AV-unprocessed.smi:3043|AV-procd|sdf|11603|dock6
  -GOLD-   2272016583D 1   1.00000     0.00000
 Structure written by MMmdl.
 44 45  0  0  0  0  0  0  0  0  2 V2000
  150.2255  135.3967  155.2602 C   0  0  0  0  0  0  0  0  0  0  0  0
  151.1945  136.3022  156.0238 C   0  0  0  0  0  0  0  0  0  0  0  0
  151.5891  135.9257  157.1273 O   0  0  0  0  0  0  0  0  0  0  0  0
  151.5866  137.4736  155.4671 N   0  0  0  0  0  0  0  0  0  0  0  0
  151.0668  137.9536  154.1812 C   0  0  0  0  0  0  0  0  0  0  0  0
  150.1700  139.1791  154.4330 C   0  0  0  0  0  0  0  0  0  0  0  0
  150.9336  140.2919  155.1849 C   0  0  0  0  0  0  0  0  0  0  0  0
  150.0086  141.4788  155.5097 C   0  0  0  0  0  0  0  0  0  0  0  0
  150.7461  142.5712  156.1808 N   0  3  0  0  0  0  0  0  0  0  0  0
  150.7950  142.4932  157.6579 C   0  0  2  0  0  0  0  0  0  0  0  0
  149.3932  142.6947  158.2664 C   0  0  0  0  0  0  0  0  0  0  0  0
  151.8240  143.5158  158.1827 C   0  0  0  0  0  0  0  0  0  0  0  0
  152.1101  143.3596  159.5979 N   0  0  0  0  0  0  0  0  0  0  0  0
  152.7284  142.3045  160.2354 C   0  0  0  0  0  0  0  0  0  0  0  0
  152.7735  142.6048  161.5667 C   0  0  0  0  0  0  0  0  0  0  0  0
  152.1538  143.8833  161.6465 C   0  0  0  0  0  0  0  0  0  0  0  0
  151.7592  144.3328  160.4659 N   0  0  0  0  0  0  0  0  0  0  0  0
  151.6199  139.7155  156.4461 C   0  0  0  0  0  0  0  0  0  0  0  0
  152.4567  138.4692  156.1054 C   0  0  0  0  0  0  0  0  0  0  0  0
  150.6386  135.1156  154.2910 H   0  0  0  0  0  0  0  0  0  0  0  0
  149.2678  135.8954  155.1083 H   0  0  0  0  0  0  0  0  0  0  0  0
  150.0378  134.4792  155.8187 H   0  0  0  0  0  0  0  0  0  0  0  0
  151.9009  138.2239  153.5320 H   0  0  0  0  0  0  0  0  0  0  0  0
  150.5061  137.1904  153.6398 H   0  0  0  0  0  0  0  0  0  0  0  0
  149.7937  139.5587  153.4823 H   0  0  0  0  0  0  0  0  0  0  0  0
  149.2959  138.8737  155.0105 H   0  0  0  0  0  0  0  0  0  0  0  0
  151.7168  140.6509  154.5147 H   0  0  0  0  0  0  0  0  0  0  0  0
  149.5710  141.8577  154.5862 H   0  0  0  0  0  0  0  0  0  0  0  0
  149.1819  141.1505  156.1413 H   0  0  0  0  0  0  0  0  0  0  0  0
  151.6968  142.5382  155.8415 H   0  0  0  0  0  0  0  0  0  0  0  0
  151.1511  141.4986  157.9314 H   0  0  0  0  0  0  0  0  0  0  0  0
  149.4091  142.5882  159.3513 H   0  0  0  0  0  0  0  0  0  0  0  0
  148.6775  141.9632  157.8928 H   0  0  0  0  0  0  0  0  0  0  0  0
  149.0036  143.6872  158.0379 H   0  0  0  0  0  0  0  0  0  0  0  0
  152.7640  143.4156  157.6383 H   0  0  0  0  0  0  0  0  0  0  0  0
  151.4714  144.5336  158.0052 H   0  0  0  0  0  0  0  0  0  0  0  0
  153.0792  141.4371  159.6956 H   0  0  0  0  0  0  0  0  0  0  0  0
  153.1875  142.0037  162.3628 H   0  0  0  0  0  0  0  0  0  0  0  0
  151.9802  144.4937  162.5205 H   0  0  0  0  0  0  0  0  0  0  0  0
  152.2611  140.4674  156.9068 H   0  0  0  0  0  0  0  0  0  0  0  0
  150.8677  139.4517  157.1911 H   0  0  0  0  0  0  0  0  0  0  0  0
  152.9560  138.1030  157.0012 H   0  0  0  0  0  0  0  0  0  0  0  0
  153.2591  138.7363  155.4163 H   0  0  0  0  0  0  0  0  0  0  0  0
  150.3432  143.4587  155.9156 H   0  0  0  0  0  0  0  0  0  0  0  0
  1  2  1  0  0  0  0
  1 20  1  0  0  0  0
  1 21  1  0  0  0  0
  1 22  1  0  0  0  0
  2  3  2  0  0  0  0
  2  4  1  0  0  0  0
  4 19  1  0  0  0  0
  4  5  1  0  0  0  0
  5  6  1  0  0  0  0
  5 23  1  0  0  0  0
  5 24  1  0  0  0  0
  6  7  1  0  0  0  0
  6 25  1  0  0  0  0
  6 26  1  0  0  0  0
  7  8  1  0  0  0  0
  7 18  1  0  0  0  0
  7 27  1  0  0  0  0
  8  9  1  0  0  0  0
  8 28  1  0  0  0  0
  8 29  1  0  0  0  0
  9 10  1  0  0  0  0
  9 30  1  0  0  0  0
  9 44  1  0  0  0  0
 10 11  1  0  0  0  0
 10 12  1  0  0  0  0
 10 31  1  0  0  0  0
 11 32  1  0  0  0  0
 11 33  1  0  0  0  0
 11 34  1  0  0  0  0
 12 13  1  0  0  0  0
 12 35  1  0  0  0  0
 12 36  1  0  0  0  0
 13 17  1  0  0  0  0
 13 14  1  0  0  0  0
 14 15  2  0  0  0  0
 14 37  1  0  0  0  0
 15 16  1  0  0  0  0
 15 38  1  0  0  0  0
 16 17  2  0  0  0  0
 16 39  1  0  0  0  0
 18 19  1  0  0  0  0
 18 40  1  0  0  0  0
 18 41  1  0  0  0  0
 19 42  1  0  0  0  0
 19 43  1  0  0  0  0
M  CHG  1   9   1
M  END
> <s_m_source_file>
AV-unprocessed.smi

> <i_m_source_file_index>
3043

> <i_lp_mmshare_version>
43012

> <i_f3d_flags>
0

> <s_epik_input>
W0NIM11DKD1PKU4xW0NIMl1bQ0gyXVtDSF0oW0NIMl1bQ0gyXTEpW0NIMl1bTkhdW0NASF0oW0NIM10pW0NIMl1uMltjSF1bY0hdW2NIXW4y

> <s_epik_cmdline>
J2VwaWtfcHl0aG9uJywgJy1waCcsICc3LjAnLCAnLXRuJywgJzgnLCAnLW1hJywgJzIwMCcsICctbWV0YWxfYmluZGluZycsICctaW1hZScsICc8aW5maWxlLm1hZT4nLCAnLW9tYWUnLCAnPG91dGZpbGUubWFlPic=

> <r_lp_tautomer_probability>
1

> <r_epik_Ionization_Penalty>
0.00300549

> <r_epik_Ionization_Penalty_Charging>
0.00299781

> <r_epik_Ionization_Penalty_Neutral>
7.6831e-06

> <r_epik_State_Penalty>
0.00210473

> <r_epik_Charging_Adjusted_Penalty>
0.00510254

> <i_epik_Tot_Q>
1

> <i_epik_Tot_abs_Q>
1

> <r_epik_Metal_State_Penalty>
-0

> <b_epik_Metal_Only>
0

> <s_lp_Force_Field>
OPLS_2005

> <r_lp_Energy>
29.3743

> <b_lp_Chiralities_Consistent>
1

> <s_lp_Variant>
AV-unprocessed.smi:3043-1

> <Gold.Version>
5.8.1

> <Gold.Id.Protein>
6NUR|6NUR_protein|mol2

> <Gold.PLP.Fitness>
49.8939

> <Gold.PLP.PLP>
-44.4533

> <Gold.PLP.part.hbond>
-1.3626

> <Gold.PLP.part.metal>
0.0000

> <Gold.PLP.part.buried>
-3.8754

> <Gold.PLP.part.nonpolar>
-39.3598

> <Gold.PLP.part.repulsive>
0.2118

> <Gold.PLP.ligand.clash>
0.0000

> <Gold.PLP.ligand.torsion>
0.3016

> <Gold.PLP.Chemscore.Hbond>
2.0000

> <Gold.PLP.Chemscore.CHOScore>
0.0000

> <Gold.PLP.Chemscore.Metal>
0.0000

> <Gold.Chemscore.Hbonds>
donor molecule, donor type, donor heavy atom, donor atom, acceptor molecule, acceptor atom, score
      L1  H     9    44       P1  8028  2.00

> <Gold.PLP.Chemscore.Internal.Correction>
0.0439

> <Gold.Rescore>
     Score         DG    S(hbond)    S(metal)    S(lipo)     H(rot)  DE(clash)    DE(int)     intcor
     16.27     -16.65       1.00        0.00     105.08       1.74       0.11       0.27       ----

> <Gold.Chemscore.Fitness>
16.2712

> <Gold.Chemscore.DG>
-16.6536

> <Gold.Chemscore.ZeroCoef>
-5.4800

> <Gold.Chemscore.Hbond>
0.9999

> <Gold.Chemscore.Metal>
0.0000

> <Gold.Chemscore.Lipo>
105.0752

> <Gold.Chemscore.Internal_Hbond>
0.0000

> <Gold.Chemscore.DEClash>
0.1081

> <Gold.Chemscore.DEInternal>
0.2744

> <Gold.Chemscore.Rot>
1.7422

> <Gold.Chemscore.Internal.Correction>
   9.000000E+99

> <Gold.Chemscore.Hbonds>
donor molecule, donor type, donor heavy atom, donor atom, acceptor molecule, acceptor atom, score
      L1  H     9    44       P1  8028  0.98

> <Gold.Chemscore.Hbond.Weighted>
-3.3398

> <Gold.Chemscore.Metal.Weighted>
-0.0000

> <Gold.Chemscore.Lipo.Weighted>
-12.2938

> <Gold.Chemscore.Internal_Hbond.Weighted>
0.0000

> <Gold.Chemscore.DEClash.Weighted>
0.1081

> <Gold.Chemscore.DEInternal.Weighted>
0.2744

> <Gold.Chemscore.Rot.Weighted>
4.4600

> <Gold.Chemscore.Internal.Correction.Weighted>
   9.000000E+99

> <Gold.Protein.RotatedTorsions>
[ 6907 6896 6895 6894 ] final  -97.66 input  -60.11 | X-H torsion
[ 7974 7965 7964 7962 ] final  169.66 input  175.53 | X-H torsion
[ 8008 7997 7996 7995 ] final   11.91 input   59.86 | X-H torsion
[ 10167 10162 10161 10158 ] final  -97.89 input  -65.29 | X-H torsion
[ 10718 10713 10712 10709 ] final  -12.31 input   66.30 | X-H torsion
[ 10763 10752 10751 10750 ] final   31.23 input  -60.55 | X-H torsion
[ 11005 11000 10999 10996 ] final  -25.82 input  -57.11 | X-H torsion

> <Gold.Protein.ActiveResidues>
 VAL166  LYS551  ARG553  GLY616  TRP617  ASP618  TYR619  PRO620  LYS621  CYS622 
 ASP623  PHE694  ASN695  SER759  ASP760  ASP761  ALA762  ILE779  LEU786  VAL792 
 PHE793  MET794  SER795  GLU796  ALA797  LYS798  CYS799  TRP800  GLU811  SER814 

> <Gold.Protein.RotatedAtoms>
  150.7023  134.1315  159.4071 H   0  0  0  0  0  0  0  0  0  0  0  0  # atno 6907 bound_to 6896
  151.9300  135.0258  160.0538 H   0  0  0  0  0  0  0  0  0  0  0  0  # atno 6908 bound_to 6896
  152.2183  133.4929  159.5185 H   0  0  0  0  0  0  0  0  0  0  0  0  # atno 6909 bound_to 6896
  144.7348  139.9087  143.6414 H   0  0  0  0  0  0  0  0  0  0  0  0  # atno 7974 bound_to 7965
  154.8133  140.2872  155.5838 H   0  0  0  0  0  0  0  0  0  0  0  0  # atno 8008 bound_to 7997
  156.2990  140.2564  156.2956 H   0  0  0  0  0  0  0  0  0  0  0  0  # atno 8009 bound_to 7997
  154.9422  140.0381  157.2092 H   0  0  0  0  0  0  0  0  0  0  0  0  # atno 8010 bound_to 7997
  140.2787  143.3296  152.0463 H   0  0  0  0  0  0  0  0  0  0  0  0  # atno 10167 bound_to 10162
  156.6464  130.4942  149.6077 H   0  0  0  0  0  0  0  0  0  0  0  0  # atno 10718 bound_to 10713
  153.0327  135.6444  154.1167 H   0  0  0  0  0  0  0  0  0  0  0  0  # atno 10763 bound_to 10752
  154.0887  135.2868  155.3277 H   0  0  0  0  0  0  0  0  0  0  0  0  # atno 10764 bound_to 10752
  154.6480  135.5436  153.7931 H   0  0  0  0  0  0  0  0  0  0  0  0  # atno 10765 bound_to 10752
  140.8973  133.7548  156.0498 H   0  0  0  0  0  0  0  0  0  0  0  0  # atno 11005 bound_to 11000
  146.1017  139.4013  143.0342 LP  0  0  0  0  0  0  0  0  0  0  0  0  # atno 17320 bound_to 7965
  145.7569  140.9951  143.1221 LP  0  0  0  0  0  0  0  0  0  0  0  0  # atno 17321 bound_to 7965
  139.4968  144.6606  151.6472 LP  0  0  0  0  0  0  0  0  0  0  0  0  # atno 17342 bound_to 10162
  140.5830  143.9914  150.6279 LP  0  0  0  0  0  0  0  0  0  0  0  0  # atno 17343 bound_to 10162
  156.2118  130.6684  151.1278 LP  0  0  0  0  0  0  0  0  0  0  0  0  # atno 17370 bound_to 10713
  157.7155  131.0712  150.6344 LP  0  0  0  0  0  0  0  0  0  0  0  0  # atno 17371 bound_to 10713
  140.8273  134.3219  157.5361 LP  0  0  0  0  0  0  0  0  0  0  0  0  # atno 17394 bound_to 11000
  139.8737  134.9343  156.3605 LP  0  0  0  0  0  0  0  0  0  0  0  0  # atno 17395 bound_to 11000

$$$$
