AV-unprocessed.smi:655|AV-procd|sdf|3217|dock4
  -GOLD-   22720 0153D 1   1.00000     0.00000
 Structure written by MMmdl.
 34 35  0  0  0  0  0  0  0  0  2 V2000
  150.8184  141.5345  156.9947 C   0  0  0  0  0  0  0  0  0  0  0  0
  151.2143  140.3172  156.1469 C   0  0  2  0  0  0  0  0  0  0  0  0
  150.2401  140.1077  154.9740 C   0  0  0  0  0  0  0  0  0  0  0  0
  150.6215  138.8822  154.1224 C   0  0  0  0  0  0  0  0  0  0  0  0
  150.7327  137.5834  154.9580 C   0  0  2  0  0  0  0  0  0  0  0  0
  151.3770  136.6111  154.1567 O   0  0  0  0  0  0  0  0  0  0  0  0
  149.3755  136.9771  155.4285 C   0  0  0  0  0  0  0  0  0  0  0  0
  149.4521  135.5853  155.9172 N   0  0  0  0  0  0  0  0  0  0  0  0
  149.1774  134.5655  154.9878 C   0  0  0  0  0  0  0  0  0  0  0  0
  149.2201  133.2601  155.3161 C   0  0  0  0  0  0  0  0  0  0  0  0
  148.8717  132.0353  154.1485 Cl  0  0  0  0  0  0  0  0  0  0  0  0
  149.5734  132.9113  156.6897 C   0  0  0  0  0  0  0  0  0  0  0  0
  149.6048  131.7295  157.0298 O   0  0  0  0  0  0  0  0  0  0  0  0
  149.8607  133.9329  157.5475 N   0  5  0  0  0  0  0  0  0  0  0  0
  149.8242  135.2539  157.1911 C   0  0  0  0  0  0  0  0  0  0  0  0
  150.1163  136.1485  157.9830 O   0  0  0  0  0  0  0  0  0  0  0  0
  151.6881  137.8183  156.1526 C   0  0  0  0  0  0  0  0  0  0  0  0
  151.2994  139.0406  157.0023 C   0  0  0  0  0  0  0  0  0  0  0  0
  149.8295  141.4053  157.4358 H   0  0  0  0  0  0  0  0  0  0  0  0
  150.7978  142.4430  156.3922 H   0  0  0  0  0  0  0  0  0  0  0  0
  151.5271  141.6942  157.8076 H   0  0  0  0  0  0  0  0  0  0  0  0
  152.2043  140.5126  155.7324 H   0  0  0  0  0  0  0  0  0  0  0  0
  149.2301  139.9946  155.3636 H   0  0  0  0  0  0  0  0  0  0  0  0
  150.2234  140.9956  154.3415 H   0  0  0  0  0  0  0  0  0  0  0  0
  149.9168  138.7613  153.2999 H   0  0  0  0  0  0  0  0  0  0  0  0
  151.5844  139.0884  153.6520 H   0  0  0  0  0  0  0  0  0  0  0  0
  150.9340  136.5741  153.3227 H   0  0  0  0  0  0  0  0  0  0  0  0
  148.9568  137.6005  156.2204 H   0  0  0  0  0  0  0  0  0  0  0  0
  148.6426  137.0479  154.6248 H   0  0  0  0  0  0  0  0  0  0  0  0
  148.9320  134.9091  153.9934 H   0  0  0  0  0  0  0  0  0  0  0  0
  151.7330  136.9294  156.7833 H   0  0  0  0  0  0  0  0  0  0  0  0
  152.7034  137.9736  155.7831 H   0  0  0  0  0  0  0  0  0  0  0  0
  152.0346  139.1761  157.7962 H   0  0  0  0  0  0  0  0  0  0  0  0
  150.3463  138.8619  157.5004 H   0  0  0  0  0  0  0  0  0  0  0  0
  1  2  1  0  0  0  0
  1 19  1  0  0  0  0
  1 20  1  0  0  0  0
  1 21  1  0  0  0  0
  2 18  1  0  0  0  0
  2  3  1  0  0  0  0
  2 22  1  0  0  0  0
  3  4  1  0  0  0  0
  3 23  1  0  0  0  0
  3 24  1  0  0  0  0
  4  5  1  0  0  0  0
  4 25  1  0  0  0  0
  4 26  1  0  0  0  0
  5  6  1  0  0  0  0
  5  7  1  0  0  0  0
  5 17  1  0  0  0  0
  6 27  1  0  0  0  0
  7  8  1  0  0  0  0
  7 28  1  0  0  0  0
  7 29  1  0  0  0  0
  8 15  1  0  0  0  0
  8  9  1  0  0  0  0
  9 10  2  0  0  0  0
  9 30  1  0  0  0  0
 10 11  1  0  0  0  0
 10 12  1  0  0  0  0
 12 13  2  0  0  0  0
 12 14  1  0  0  0  0
 14 15  1  0  0  0  0
 15 16  2  0  0  0  0
 17 18  1  0  0  0  0
 17 31  1  0  0  0  0
 17 32  1  0  0  0  0
 18 33  1  0  0  0  0
 18 34  1  0  0  0  0
M  CHG  1  14  -1
M  END
> <s_m_source_file>
AV-unprocessed.smi

> <i_m_source_file_index>
655

> <i_lp_mmshare_version>
43012

> <i_f3d_flags>
0

> <s_epik_input>
W0NIMl0xW0NIMl1bQ0BIXShbQ0gzXSlbQ0gyXVtDSDJdW0NAQF0xKFtPSF0pW0NIMl1uMltjSF1jKENsKWMoPU8pW25IXWMyPU8=

> <s_epik_cmdline>
J2VwaWtfcHl0aG9uJywgJy1waCcsICc3LjAnLCAnLXRuJywgJzgnLCAnLW1hJywgJzIwMCcsICctbWV0YWxfYmluZGluZycsICctaW1hZScsICc8aW5maWxlLm1hZT4nLCAnLW9tYWUnLCAnPG91dGZpbGUubWFlPic=

> <r_epik_Ionization_Penalty>
2.34257

> <r_epik_Ionization_Penalty_Charging>
1.00552e-07

> <r_epik_Ionization_Penalty_Neutral>
2.34257

> <r_epik_State_Penalty>
2.4963

> <r_epik_Charging_Adjusted_Penalty>
2.4963

> <i_epik_Tot_Q>
-1

> <i_epik_Tot_abs_Q>
1

> <r_epik_Metal_State_Penalty>
0.0381881

> <b_epik_Metal_Only>
0

> <s_lp_Force_Field>
OPLS_2005

> <r_lp_Energy>
26.7084

> <b_lp_Chiralities_Consistent>
1

> <s_lp_Variant>
AV-unprocessed.smi:655-4

> <Gold.Version>
5.8.1

> <Gold.Id.Protein>
6NUR|6NUR_protein|mol2

> <Gold.PLP.Fitness>
41.9488

> <Gold.PLP.PLP>
-28.7009

> <Gold.PLP.part.hbond>
-3.9896

> <Gold.PLP.part.metal>
0.0000

> <Gold.PLP.part.buried>
-3.2615

> <Gold.PLP.part.nonpolar>
-22.1861

> <Gold.PLP.part.repulsive>
0.0000

> <Gold.PLP.ligand.clash>
0.0000

> <Gold.PLP.ligand.torsion>
0.4716

> <Gold.PLP.Chemscore.Hbond>
3.7040

> <Gold.PLP.Chemscore.CHOScore>
1.0000

> <Gold.PLP.Chemscore.Metal>
0.0000

> <Gold.Chemscore.Hbonds>
donor molecule, donor type, donor heavy atom, donor atom, acceptor molecule, acceptor atom, score
      L1  H     6    27       P1  7949  0.76
      P1  H  6896  6909       L1    14  2.00
      P1  H 10752 10765       L1     6  1.00
      L1  C     9    30       P1  7948  1.00

> <Gold.PLP.Chemscore.Internal.Correction>
0.0791

> <Gold.Rescore>
     Score         DG    S(hbond)    S(metal)    S(lipo)     H(rot)  DE(clash)    DE(int)     intcor
     14.51     -16.10       2.28        0.00      65.20       1.81       0.17       1.43       ----

> <Gold.Chemscore.Fitness>
14.5100

> <Gold.Chemscore.DG>
-16.1048

> <Gold.Chemscore.ZeroCoef>
-5.4800

> <Gold.Chemscore.Hbond>
2.2839

> <Gold.Chemscore.Metal>
0.0000

> <Gold.Chemscore.Lipo>
65.1960

> <Gold.Chemscore.Internal_Hbond>
0.0000

> <Gold.Chemscore.DEClash>
0.1658

> <Gold.Chemscore.DEInternal>
1.4289

> <Gold.Chemscore.Rot>
1.8092

> <Gold.Chemscore.Internal.Correction>
   9.000000E+99

> <Gold.Chemscore.Hbonds>
donor molecule, donor type, donor heavy atom, donor atom, acceptor molecule, acceptor atom, score
      L1  H     6    27       P1  7949  0.15
      P1  H  6896  6909       L1    14  0.66
      P1  H 10752 10765       L1     6  0.97

> <Gold.Chemscore.Hbond.Weighted>
-7.6284

> <Gold.Chemscore.Metal.Weighted>
-0.0000

> <Gold.Chemscore.Lipo.Weighted>
-7.6279

> <Gold.Chemscore.Internal_Hbond.Weighted>
0.0000

> <Gold.Chemscore.DEClash.Weighted>
0.1658

> <Gold.Chemscore.DEInternal.Weighted>
1.4289

> <Gold.Chemscore.Rot.Weighted>
4.6316

> <Gold.Chemscore.Internal.Correction.Weighted>
   9.000000E+99

> <Gold.Protein.RotatedTorsions>
[ 6907 6896 6895 6894 ] final   -2.74 input  -60.11 | X-H torsion
[ 7974 7965 7964 7962 ] final -177.50 input  175.53 | X-H torsion
[ 8008 7997 7996 7995 ] final  -57.46 input   59.86 | X-H torsion
[ 10167 10162 10161 10158 ] final   -2.62 input  -65.29 | X-H torsion
[ 10718 10713 10712 10709 ] final -177.79 input   66.30 | X-H torsion
[ 10763 10752 10751 10750 ] final  168.24 input  -60.55 | X-H torsion
[ 11005 11000 10999 10996 ] final  136.28 input  -57.11 | X-H torsion

> <Gold.Protein.ActiveResidues>
 VAL166  LYS551  ARG553  GLY616  TRP617  ASP618  TYR619  PRO620  LYS621  CYS622 
 ASP623  PHE694  ASN695  SER759  ASP760  ASP761  ALA762  ILE779  LEU786  VAL792 
 PHE793  MET794  SER795  GLU796  ALA797  LYS798  CYS799  TRP800  GLU811  SER814 

> <Gold.Protein.RotatedAtoms>
  151.5250  135.1067  159.9887 H   0  0  0  0  0  0  0  0  0  0  0  0  # atno 6907 bound_to 6896
  152.4604  133.7806  159.6859 H   0  0  0  0  0  0  0  0  0  0  0  0  # atno 6908 bound_to 6896
  150.8564  133.7645  159.3032 H   0  0  0  0  0  0  0  0  0  0  0  0  # atno 6909 bound_to 6896
  144.7128  140.1010  143.6416 H   0  0  0  0  0  0  0  0  0  0  0  0  # atno 7974 bound_to 7965
  154.4269  140.1106  156.5801 H   0  0  0  0  0  0  0  0  0  0  0  0  # atno 8008 bound_to 7997
  155.6121  140.3494  155.4606 H   0  0  0  0  0  0  0  0  0  0  0  0  # atno 8009 bound_to 7997
  156.0091  140.1215  157.0461 H   0  0  0  0  0  0  0  0  0  0  0  0  # atno 8010 bound_to 7997
  140.6858  143.6635  150.8246 H   0  0  0  0  0  0  0  0  0  0  0  0  # atno 10167 bound_to 10162
  156.8346  130.9665  151.3104 H   0  0  0  0  0  0  0  0  0  0  0  0  # atno 10718 bound_to 10713
  154.3657  135.2753  155.2295 H   0  0  0  0  0  0  0  0  0  0  0  0  # atno 10763 bound_to 10752
  154.4464  135.5941  153.6166 H   0  0  0  0  0  0  0  0  0  0  0  0  # atno 10764 bound_to 10752
  152.9841  135.6031  154.3882 H   0  0  0  0  0  0  0  0  0  0  0  0  # atno 10765 bound_to 10752
  140.0035  134.9468  157.0125 H   0  0  0  0  0  0  0  0  0  0  0  0  # atno 11005 bound_to 11000
  145.9537  139.2752  143.1197 LP  0  0  0  0  0  0  0  0  0  0  0  0  # atno 17320 bound_to 7965
  145.9295  140.9058  143.0363 LP  0  0  0  0  0  0  0  0  0  0  0  0  # atno 17321 bound_to 7965
  140.0342  143.5412  152.2747 LP  0  0  0  0  0  0  0  0  0  0  0  0  # atno 17342 bound_to 10162
  139.6216  144.7630  151.2728 LP  0  0  0  0  0  0  0  0  0  0  0  0  # atno 17343 bound_to 10162
  157.6388  130.8789  149.9409 LP  0  0  0  0  0  0  0  0  0  0  0  0  # atno 17370 bound_to 10713
  156.0915  130.3663  150.0387 LP  0  0  0  0  0  0  0  0  0  0  0  0  # atno 17371 bound_to 10713
  140.4683  134.1412  155.7200 LP  0  0  0  0  0  0  0  0  0  0  0  0  # atno 17394 bound_to 11000
  141.1660  133.8702  157.1713 LP  0  0  0  0  0  0  0  0  0  0  0  0  # atno 17395 bound_to 11000

$$$$
