AV-unprocessed.smi:1433|AV-procd|sdf|5840|dock6
  -GOLD-   22720 5503D 1   1.00000     0.00000
 Structure written by MMmdl.
 44 45  0  0  0  0  0  0  0  0  1 V2000
  150.2844  135.9305  155.1513 C   0  0  0  0  0  0  0  0  0  0  0  0
  150.9943  137.2496  154.8290 C   0  0  1  0  0  0  0  0  0  0  0  0
  150.0516  138.4598  154.9578 C   0  0  0  0  0  0  0  0  0  0  0  0
  150.7318  139.7392  154.7359 N   0  0  0  0  0  0  0  0  0  0  0  0
  149.8205  140.9028  154.8459 C   0  0  1  0  0  0  0  0  0  0  0  0
  148.5199  140.7236  154.0192 C   0  0  0  0  0  0  0  0  0  0  0  0
  149.4382  141.2499  156.3116 C   0  0  0  0  0  0  0  0  0  0  0  0
  150.1140  142.4511  156.7862 N   0  0  0  0  0  0  0  0  0  0  0  0
  151.2132  142.4665  157.5541 C   0  0  0  0  0  0  0  0  0  0  0  0
  151.8138  141.4502  157.9016 O   0  0  0  0  0  0  0  0  0  0  0  0
  151.7099  143.8425  158.0023 C   0  0  0  0  0  0  0  0  0  0  0  0
  151.9494  143.8738  159.4351 N   0  0  0  0  0  0  0  0  0  0  0  0
  151.5620  144.8335  160.3471 C   0  0  0  0  0  0  0  0  0  0  0  0
  152.0261  144.4428  161.5704 C   0  0  0  0  0  0  0  0  0  0  0  0
  152.6935  143.2150  161.3027 C   0  0  0  0  0  0  0  0  0  0  0  0
  152.6468  142.8768  160.0242 N   0  0  0  0  0  0  0  0  0  0  0  0
  151.8588  139.8192  155.6726 C   0  0  0  0  0  0  0  0  0  0  0  0
  152.8130  138.6107  155.5995 C   0  0  2  0  0  0  0  0  0  0  0  0
  153.7037  138.6119  154.3450 C   0  0  0  0  0  0  0  0  0  0  0  0
  152.0834  137.3937  155.7339 O   0  0  0  0  0  0  0  0  0  0  0  0
  149.4446  135.7610  154.4771 H   0  0  0  0  0  0  0  0  0  0  0  0
  149.9003  135.9281  156.1717 H   0  0  0  0  0  0  0  0  0  0  0  0
  150.9668  135.0861  155.0502 H   0  0  0  0  0  0  0  0  0  0  0  0
  151.3740  137.1915  153.8086 H   0  0  0  0  0  0  0  0  0  0  0  0
  149.2584  138.3142  154.2275 H   0  0  0  0  0  0  0  0  0  0  0  0
  149.5818  138.4578  155.9427 H   0  0  0  0  0  0  0  0  0  0  0  0
  150.3379  141.7733  154.4394 H   0  0  0  0  0  0  0  0  0  0  0  0
  147.8241  141.5530  154.1432 H   0  0  0  0  0  0  0  0  0  0  0  0
  147.9942  139.8122  154.3060 H   0  0  0  0  0  0  0  0  0  0  0  0
  148.7130  140.6788  152.9485 H   0  0  0  0  0  0  0  0  0  0  0  0
  148.3559  141.3687  156.3914 H   0  0  0  0  0  0  0  0  0  0  0  0
  149.7275  140.4611  157.0040 H   0  0  0  0  0  0  0  0  0  0  0  0
  149.6907  143.3370  156.5492 H   0  0  0  0  0  0  0  0  0  0  0  0
  152.6383  144.0926  157.4871 H   0  0  0  0  0  0  0  0  0  0  0  0
  150.9776  144.6063  157.7356 H   0  0  0  0  0  0  0  0  0  0  0  0
  150.9979  145.7059  160.0507 H   0  0  0  0  0  0  0  0  0  0  0  0
  151.9074  144.9563  162.5127 H   0  0  0  0  0  0  0  0  0  0  0  0
  153.2080  142.5645  161.9946 H   0  0  0  0  0  0  0  0  0  0  0  0
  152.4547  140.7115  155.4894 H   0  0  0  0  0  0  0  0  0  0  0  0
  151.4757  139.9045  156.6908 H   0  0  0  0  0  0  0  0  0  0  0  0
  153.4804  138.6608  156.4602 H   0  0  0  0  0  0  0  0  0  0  0  0
  154.3449  139.4934  154.3270 H   0  0  0  0  0  0  0  0  0  0  0  0
  153.1189  138.6180  153.4254 H   0  0  0  0  0  0  0  0  0  0  0  0
  154.3495  137.7339  154.3258 H   0  0  0  0  0  0  0  0  0  0  0  0
  1  2  1  0  0  0  0
  1 21  1  0  0  0  0
  1 22  1  0  0  0  0
  1 23  1  0  0  0  0
  2 20  1  0  0  0  0
  2  3  1  0  0  0  0
  2 24  1  0  0  0  0
  3  4  1  0  0  0  0
  3 25  1  0  0  0  0
  3 26  1  0  0  0  0
  4  5  1  0  0  0  0
  4 17  1  0  0  0  0
  5  6  1  0  0  0  0
  5  7  1  0  0  0  0
  5 27  1  0  0  0  0
  6 28  1  0  0  0  0
  6 29  1  0  0  0  0
  6 30  1  0  0  0  0
  7  8  1  0  0  0  0
  7 31  1  0  0  0  0
  7 32  1  0  0  0  0
  8  9  1  0  0  0  0
  8 33  1  0  0  0  0
  9 10  2  0  0  0  0
  9 11  1  0  0  0  0
 11 12  1  0  0  0  0
 11 34  1  0  0  0  0
 11 35  1  0  0  0  0
 12 16  1  0  0  0  0
 12 13  1  0  0  0  0
 13 14  2  0  0  0  0
 13 36  1  0  0  0  0
 14 15  1  0  0  0  0
 14 37  1  0  0  0  0
 15 16  2  0  0  0  0
 15 38  1  0  0  0  0
 17 18  1  0  0  0  0
 17 39  1  0  0  0  0
 17 40  1  0  0  0  0
 18 19  1  0  0  0  0
 18 20  1  0  0  0  0
 18 41  1  0  0  0  0
 19 42  1  0  0  0  0
 19 43  1  0  0  0  0
 19 44  1  0  0  0  0
M  END
> <s_m_source_file>
AV-unprocessed.smi

> <i_m_source_file_index>
1433

> <i_lp_mmshare_version>
43012

> <i_f3d_flags>
0

> <s_epik_input>
W0NIM11bQ0BASF0xW0NIMl1OKFtDSDJdW0NASF0oTzEpW0NIM10pW0NASF0oW0NIM10pW0NIMl1bTkhdQyg9TylbQ0gyXW4yW2NIXVtjSF1bY0hdbjI=

> <s_epik_cmdline>
J2VwaWtfcHl0aG9uJywgJy1waCcsICc3LjAnLCAnLXRuJywgJzgnLCAnLW1hJywgJzIwMCcsICctbWV0YWxfYmluZGluZycsICctaW1hZScsICc8aW5maWxlLm1hZT4nLCAnLW9tYWUnLCAnPG91dGZpbGUubWFlPic=

> <r_lp_tautomer_probability>
1

> <r_epik_Ionization_Penalty>
0.196927

> <r_epik_Ionization_Penalty_Charging>
0

> <r_epik_Ionization_Penalty_Neutral>
0.196927

> <r_epik_State_Penalty>
0.186684

> <r_epik_Charging_Adjusted_Penalty>
0.186684

> <i_epik_Tot_Q>
0

> <i_epik_Tot_abs_Q>
0

> <r_epik_Metal_State_Penalty>
0.186682

> <b_epik_Metal_Only>
0

> <s_lp_Force_Field>
OPLS_2005

> <r_lp_Energy>
30.3055

> <b_lp_Chiralities_Consistent>
1

> <s_lp_Variant>
AV-unprocessed.smi:1433-6

> <Gold.Version>
5.8.1

> <Gold.Id.Protein>
6NUR|6NUR_protein|mol2

> <Gold.PLP.Fitness>
47.4163

> <Gold.PLP.PLP>
-44.9920

> <Gold.PLP.part.hbond>
-2.9089

> <Gold.PLP.part.metal>
0.0000

> <Gold.PLP.part.buried>
-4.5256

> <Gold.PLP.part.nonpolar>
-38.5931

> <Gold.PLP.part.repulsive>
0.1475

> <Gold.PLP.ligand.clash>
0.0000

> <Gold.PLP.ligand.torsion>
1.2298

> <Gold.PLP.Chemscore.Hbond>
1.6115

> <Gold.PLP.Chemscore.CHOScore>
0.0000

> <Gold.PLP.Chemscore.Metal>
0.0000

> <Gold.Chemscore.Hbonds>
donor molecule, donor type, donor heavy atom, donor atom, acceptor molecule, acceptor atom, score
      L1  H     8    33       P1  8028  1.00
      P1  H  7989  7998       L1     4  0.08
      P1  H 10752 10764       L1    20  0.19

> <Gold.PLP.Chemscore.Internal.Correction>
0.0496

> <Gold.Rescore>
     Score         DG    S(hbond)    S(metal)    S(lipo)     H(rot)  DE(clash)    DE(int)     intcor
     12.80     -17.61       1.12        0.00     111.22       1.80       0.84       3.97       ----

> <Gold.Chemscore.Fitness>
12.8003

> <Gold.Chemscore.DG>
-17.6052

> <Gold.Chemscore.ZeroCoef>
-5.4800

> <Gold.Chemscore.Hbond>
1.1170

> <Gold.Chemscore.Metal>
0.0000

> <Gold.Chemscore.Lipo>
111.2153

> <Gold.Chemscore.Internal_Hbond>
0.0000

> <Gold.Chemscore.DEClash>
0.8379

> <Gold.Chemscore.DEInternal>
3.9670

> <Gold.Chemscore.Rot>
1.8038

> <Gold.Chemscore.Internal.Correction>
   9.000000E+99

> <Gold.Chemscore.Hbonds>
donor molecule, donor type, donor heavy atom, donor atom, acceptor molecule, acceptor atom, score
      L1  H     8    33       P1  8028  1.00
      P1  H 10752 10764       L1    20  0.01

> <Gold.Chemscore.Hbond.Weighted>
-3.7308

> <Gold.Chemscore.Metal.Weighted>
-0.0000

> <Gold.Chemscore.Lipo.Weighted>
-13.0122

> <Gold.Chemscore.Internal_Hbond.Weighted>
0.0000

> <Gold.Chemscore.DEClash.Weighted>
0.8379

> <Gold.Chemscore.DEInternal.Weighted>
3.9670

> <Gold.Chemscore.Rot.Weighted>
4.6178

> <Gold.Chemscore.Internal.Correction.Weighted>
   9.000000E+99

> <Gold.Protein.RotatedTorsions>
[ 6907 6896 6895 6894 ] final   86.03 input  -60.11 | X-H torsion
[ 7974 7965 7964 7962 ] final -160.68 input  175.53 | X-H torsion
[ 8008 7997 7996 7995 ] final  162.89 input   59.86 | X-H torsion
[ 10167 10162 10161 10158 ] final   69.71 input  -65.29 | X-H torsion
[ 10718 10713 10712 10709 ] final  -75.87 input   66.30 | X-H torsion
[ 10763 10752 10751 10750 ] final  -41.97 input  -60.55 | X-H torsion
[ 11005 11000 10999 10996 ] final  -78.23 input  -57.11 | X-H torsion

> <Gold.Protein.ActiveResidues>
 VAL166  LYS551  ARG553  GLY616  TRP617  ASP618  TYR619  PRO620  LYS621  CYS622 
 ASP623  PHE694  ASN695  SER759  ASP760  ASP761  ALA762  ILE779  LEU786  VAL792 
 PHE793  MET794  SER795  GLU796  ALA797  LYS798  CYS799  TRP800  GLU811  SER814 

> <Gold.Protein.RotatedAtoms>
  152.5386  134.2495  159.8892 H   0  0  0  0  0  0  0  0  0  0  0  0  # atno 6907 bound_to 6896
  151.2459  133.4369  159.2617 H   0  0  0  0  0  0  0  0  0  0  0  0  # atno 6908 bound_to 6896
  151.0584  134.9734  159.8304 H   0  0  0  0  0  0  0  0  0  0  0  0  # atno 6909 bound_to 6896
  144.7418  140.3506  143.6116 H   0  0  0  0  0  0  0  0  0  0  0  0  # atno 7974 bound_to 7965
  156.1998  140.1738  156.7923 H   0  0  0  0  0  0  0  0  0  0  0  0  # atno 8008 bound_to 7997
  154.5577  140.0705  156.8800 H   0  0  0  0  0  0  0  0  0  0  0  0  # atno 8009 bound_to 7997
  155.2908  140.3355  155.4255 H   0  0  0  0  0  0  0  0  0  0  0  0  # atno 8010 bound_to 7997
  140.0648  144.5202  150.7268 H   0  0  0  0  0  0  0  0  0  0  0  0  # atno 10167 bound_to 10162
  156.0193  130.4451  150.3107 H   0  0  0  0  0  0  0  0  0  0  0  0  # atno 10718 bound_to 10713
  153.9713  135.6728  153.4747 H   0  0  0  0  0  0  0  0  0  0  0  0  # atno 10763 bound_to 10752
  153.0791  135.4932  154.8463 H   0  0  0  0  0  0  0  0  0  0  0  0  # atno 10764 bound_to 10752
  154.7217  135.3118  154.8997 H   0  0  0  0  0  0  0  0  0  0  0  0  # atno 10765 bound_to 10752
  141.1664  133.7055  156.7940 H   0  0  0  0  0  0  0  0  0  0  0  0  # atno 11005 bound_to 11000
  145.7280  139.1728  143.2447 LP  0  0  0  0  0  0  0  0  0  0  0  0  # atno 17320 bound_to 7965
  146.1228  140.7287  142.9449 LP  0  0  0  0  0  0  0  0  0  0  0  0  # atno 17321 bound_to 7965
  140.7154  143.2540  151.4450 LP  0  0  0  0  0  0  0  0  0  0  0  0  # atno 17342 bound_to 10162
  139.5871  144.1580  152.2043 LP  0  0  0  0  0  0  0  0  0  0  0  0  # atno 17343 bound_to 10162
  157.1209  131.0246  151.3009 LP  0  0  0  0  0  0  0  0  0  0  0  0  # atno 17370 bound_to 10713
  157.4629  130.7663  149.7252 LP  0  0  0  0  0  0  0  0  0  0  0  0  # atno 17371 bound_to 10713
  140.2304  134.8690  157.3471 LP  0  0  0  0  0  0  0  0  0  0  0  0  # atno 17394 bound_to 11000
  140.1897  134.4387  155.7723 LP  0  0  0  0  0  0  0  0  0  0  0  0  # atno 17395 bound_to 11000

$$$$
