AV-unprocessed.smi:2226|AV-procd|sdf|9019|dock9
  -GOLD-   2272012223D 1   1.00000     0.00000
 Structure written by MMmdl.
 39 41  0  0  0  0  0  0  0  0  3 V2000
  146.2697  133.4276  151.7411 C   0  0  0  0  0  0  0  0  0  0  0  0
  147.3350  133.7735  152.7119 N   0  3  2  0  0  0  0  0  0  0  0  0
  148.3285  132.6999  152.9561 C   0  0  2  0  0  0  0  0  0  0  0  0
  147.7053  131.5243  153.7508 C   0  0  0  0  0  0  0  0  0  0  0  0
  146.9876  131.9550  155.0438 C   0  0  0  0  0  0  0  0  0  0  0  0
  146.1503  133.2337  154.8526 C   0  0  0  0  0  0  0  0  0  0  0  0
  146.8500  134.3232  154.0010 C   0  0  1  0  0  0  0  0  0  0  0  0
  148.0214  135.0423  154.7067 C   0  0  0  0  0  0  0  0  0  0  0  0
  149.3075  134.1881  154.8537 C   0  0  2  0  0  0  0  0  0  0  0  0
  150.4586  135.0548  155.0959 N   0  0  0  0  0  0  0  0  0  0  0  0
  151.1434  135.1579  156.2445 C   0  0  0  0  0  0  0  0  0  0  0  0
  150.8150  134.4788  157.2200 O   0  0  0  0  0  0  0  0  0  0  0  0
  152.1626  136.0437  156.1895 N   0  5  0  0  0  0  0  0  0  0  0  0
  151.9461  137.2822  155.7180 C   0  0  0  0  0  0  0  0  0  0  0  0
  150.8351  137.7173  155.1212 N   0  0  0  0  0  0  0  0  0  0  0  0
  151.0712  139.0459  154.8036 C   0  0  0  0  0  0  0  0  0  0  0  0
  152.3343  139.3602  155.2246 C   0  0  0  0  0  0  0  0  0  0  0  0
  152.8980  138.2546  155.7990 O   0  0  0  0  0  0  0  0  0  0  0  0
  149.5873  133.3237  153.6006 C   0  0  0  0  0  0  0  0  0  0  0  0
  145.6303  132.6208  152.0979 H   0  0  0  0  0  0  0  0  0  0  0  0
  146.7077  133.1162  150.7924 H   0  0  0  0  0  0  0  0  0  0  0  0
  145.6400  134.2955  151.5433 H   0  0  0  0  0  0  0  0  0  0  0  0
  148.6404  132.3068  151.9873 H   0  0  0  0  0  0  0  0  0  0  0  0
  146.9860  131.0107  153.1125 H   0  0  0  0  0  0  0  0  0  0  0  0
  148.4687  130.7809  153.9822 H   0  0  0  0  0  0  0  0  0  0  0  0
  146.3424  131.1463  155.3881 H   0  0  0  0  0  0  0  0  0  0  0  0
  147.7055  132.0899  155.8485 H   0  0  0  0  0  0  0  0  0  0  0  0
  145.2105  132.9610  154.3720 H   0  0  0  0  0  0  0  0  0  0  0  0
  145.8706  133.6396  155.8253 H   0  0  0  0  0  0  0  0  0  0  0  0
  146.1058  135.0896  153.7791 H   0  0  0  0  0  0  0  0  0  0  0  0
  148.2614  135.9302  154.1191 H   0  0  0  0  0  0  0  0  0  0  0  0
  147.7018  135.4133  155.6811 H   0  0  0  0  0  0  0  0  0  0  0  0
  149.2129  133.5304  155.7145 H   0  0  0  0  0  0  0  0  0  0  0  0
  150.7675  135.6302  154.3259 H   0  0  0  0  0  0  0  0  0  0  0  0
  150.3300  139.6553  154.3084 H   0  0  0  0  0  0  0  0  0  0  0  0
  152.9384  140.2544  155.1934 H   0  0  0  0  0  0  0  0  0  0  0  0
  150.3162  132.5478  153.8373 H   0  0  0  0  0  0  0  0  0  0  0  0
  150.0615  133.9517  152.8442 H   0  0  0  0  0  0  0  0  0  0  0  0
  147.8484  134.5247  152.2732 H   0  0  0  0  0  0  0  0  0  0  0  0
  1  2  1  0  0  0  0
  1 20  1  0  0  0  0
  1 21  1  0  0  0  0
  1 22  1  0  0  0  0
  2  7  1  0  0  0  0
  2  3  1  0  0  0  0
  2 39  1  0  0  0  0
  3 19  1  0  0  0  0
  3  4  1  0  0  0  0
  3 23  1  0  0  0  0
  4  5  1  0  0  0  0
  4 24  1  0  0  0  0
  4 25  1  0  0  0  0
  5  6  1  0  0  0  0
  5 26  1  0  0  0  0
  5 27  1  0  0  0  0
  6  7  1  0  0  0  0
  6 28  1  0  0  0  0
  6 29  1  0  0  0  0
  7  8  1  0  0  0  0
  7 30  1  0  0  0  0
  8  9  1  0  0  0  0
  8 31  1  0  0  0  0
  8 32  1  0  0  0  0
  9 10  1  0  0  0  0
  9 19  1  0  0  0  0
  9 33  1  0  0  0  0
 10 34  1  0  0  0  0
 10 11  1  0  0  0  0
 11 13  1  0  0  0  0
 11 12  2  0  0  0  0
 13 14  1  0  0  0  0
 14 18  1  0  0  0  0
 14 15  2  0  0  0  0
 15 16  1  0  0  0  0
 16 35  1  0  0  0  0
 16 17  2  0  0  0  0
 17 36  1  0  0  0  0
 17 18  1  0  0  0  0
 19 37  1  0  0  0  0
 19 38  1  0  0  0  0
M  CHG  1   2   1
M  CHG  1  13  -1
M  END
> <s_m_source_file>
AV-unprocessed.smi

> <i_m_source_file_index>
2226

> <i_lp_mmshare_version>
43012

> <i_f3d_flags>
0

> <s_epik_input>
W0NIMl0xW0NIMl1bQ0gyXVtDQEhdKE4oW0NIM10pW0NIXTEyKVtDSDJdW0NASF0oW0NIMl0yKVtOSF1DKD1PKVtOSF1jM25bY0hdW2NIXW8z

> <s_epik_cmdline>
J2VwaWtfcHl0aG9uJywgJy1waCcsICc3LjAnLCAnLXRuJywgJzgnLCAnLW1hJywgJzIwMCcsICctbWV0YWxfYmluZGluZycsICctaW1hZScsICc8aW5maWxlLm1hZT4nLCAnLW9tYWUnLCAnPG91dGZpbGUubWFlPic=

> <r_lp_tautomer_probability>
0.107061

> <r_epik_Ionization_Penalty>
10.5612

> <r_epik_Ionization_Penalty_Charging>
7.48913

> <r_epik_Ionization_Penalty_Neutral>
3.07202

> <r_epik_State_Penalty>
5.6431

> <r_epik_Charging_Adjusted_Penalty>
13.1322

> <i_epik_Tot_Q>
0

> <i_epik_Tot_abs_Q>
2

> <r_epik_Metal_State_Penalty>
1.58163

> <b_epik_Metal_Only>
1

> <s_lp_Force_Field>
OPLS_2005

> <r_lp_Energy>
24.9808

> <b_lp_Chiralities_Consistent>
1

> <s_lp_Variant>
AV-unprocessed.smi:2226-19

> <Gold.Version>
5.8.1

> <Gold.Id.Protein>
6NUR|6NUR_protein|mol2

> <Gold.PLP.Fitness>
38.8715

> <Gold.PLP.PLP>
-26.3596

> <Gold.PLP.part.hbond>
-3.0000

> <Gold.PLP.part.metal>
0.0000

> <Gold.PLP.part.buried>
-3.9823

> <Gold.PLP.part.nonpolar>
-20.1889

> <Gold.PLP.part.repulsive>
0.1824

> <Gold.PLP.ligand.clash>
0.0106

> <Gold.PLP.ligand.torsion>
0.5246

> <Gold.PLP.Chemscore.Hbond>
4.5216

> <Gold.PLP.Chemscore.CHOScore>
0.0000

> <Gold.PLP.Chemscore.Metal>
0.0000

> <Gold.Chemscore.Hbonds>
donor molecule, donor type, donor heavy atom, donor atom, acceptor molecule, acceptor atom, score
      L1  H     2    39       P1  7948  2.00
      P1  H  6896  6908       L1    12  0.32
      P1  H 10752 10765       L1    13  2.00

> <Gold.PLP.Chemscore.Internal.Correction>
0.0070

> <Gold.Rescore>
     Score         DG    S(hbond)    S(metal)    S(lipo)     H(rot)  DE(clash)    DE(int)     intcor
     12.78     -14.92       1.95        0.00      46.93       1.00       0.08       2.06       ----

> <Gold.Chemscore.Fitness>
12.7835

> <Gold.Chemscore.DG>
-14.9203

> <Gold.Chemscore.ZeroCoef>
-5.4800

> <Gold.Chemscore.Hbond>
1.9490

> <Gold.Chemscore.Metal>
0.0000

> <Gold.Chemscore.Lipo>
46.9297

> <Gold.Chemscore.Internal_Hbond>
0.0000

> <Gold.Chemscore.DEClash>
0.0811

> <Gold.Chemscore.DEInternal>
2.0557

> <Gold.Chemscore.Rot>
1.0000

> <Gold.Chemscore.Internal.Correction>
   9.000000E+99

> <Gold.Chemscore.Hbonds>
donor molecule, donor type, donor heavy atom, donor atom, acceptor molecule, acceptor atom, score
      L1  H     2    39       P1  7948  0.42
      P1  H  6896  6908       L1    12  0.32
      P1  H 10752 10765       L1    13  0.16

> <Gold.Chemscore.Hbond.Weighted>
-6.5095

> <Gold.Chemscore.Metal.Weighted>
-0.0000

> <Gold.Chemscore.Lipo.Weighted>
-5.4908

> <Gold.Chemscore.Internal_Hbond.Weighted>
0.0000

> <Gold.Chemscore.DEClash.Weighted>
0.0811

> <Gold.Chemscore.DEInternal.Weighted>
2.0557

> <Gold.Chemscore.Rot.Weighted>
2.5600

> <Gold.Chemscore.Internal.Correction.Weighted>
   9.000000E+99

> <Gold.Protein.RotatedTorsions>
[ 6907 6896 6895 6894 ] final  137.34 input  -60.11 | X-H torsion
[ 7974 7965 7964 7962 ] final   40.16 input  175.53 | X-H torsion
[ 8008 7997 7996 7995 ] final -172.81 input   59.86 | X-H torsion
[ 10167 10162 10161 10158 ] final   74.63 input  -65.29 | X-H torsion
[ 10718 10713 10712 10709 ] final   64.51 input   66.30 | X-H torsion
[ 10763 10752 10751 10750 ] final -148.55 input  -60.55 | X-H torsion
[ 11005 11000 10999 10996 ] final  -72.24 input  -57.11 | X-H torsion

> <Gold.Protein.ActiveResidues>
 VAL166  LYS551  ARG553  GLY616  TRP617  ASP618  TYR619  PRO620  LYS621  CYS622 
 ASP623  PHE694  ASN695  SER759  ASP760  ASP761  ALA762  ILE779  LEU786  VAL792 
 PHE793  MET794  SER795  GLU796  ALA797  LYS798  CYS799  TRP800  GLU811  SER814 

> <Gold.Protein.RotatedAtoms>
  152.2792  133.5454  159.5486 H   0  0  0  0  0  0  0  0  0  0  0  0  # atno 6907 bound_to 6896
  150.7189  134.0588  159.3833 H   0  0  0  0  0  0  0  0  0  0  0  0  # atno 6908 bound_to 6896
  151.8499  135.0561  160.0508 H   0  0  0  0  0  0  0  0  0  0  0  0  # atno 6909 bound_to 6896
  146.0927  139.5566  142.9465 H   0  0  0  0  0  0  0  0  0  0  0  0  # atno 7974 bound_to 7965
  155.9494  140.1123  157.0989 H   0  0  0  0  0  0  0  0  0  0  0  0  # atno 8008 bound_to 7997
  154.4106  140.1203  156.5098 H   0  0  0  0  0  0  0  0  0  0  0  0  # atno 8009 bound_to 7997
  155.6861  140.3473  155.4877 H   0  0  0  0  0  0  0  0  0  0  0  0  # atno 8010 bound_to 7997
  140.0116  144.5610  150.7654 H   0  0  0  0  0  0  0  0  0  0  0  0  # atno 10167 bound_to 10162
  157.6044  130.9164  149.9855 H   0  0  0  0  0  0  0  0  0  0  0  0  # atno 10718 bound_to 10713
  154.8227  135.3332  154.6991 H   0  0  0  0  0  0  0  0  0  0  0  0  # atno 10763 bound_to 10752
  153.7621  135.6932  153.4928 H   0  0  0  0  0  0  0  0  0  0  0  0  # atno 10764 bound_to 10752
  153.2103  135.4484  155.0321 H   0  0  0  0  0  0  0  0  0  0  0  0  # atno 10765 bound_to 10752
  141.1605  133.6841  156.7029 H   0  0  0  0  0  0  0  0  0  0  0  0  # atno 11005 bound_to 11000
  145.6008  141.0355  143.2019 LP  0  0  0  0  0  0  0  0  0  0  0  0  # atno 17320 bound_to 7965
  144.7372  139.7551  143.7325 LP  0  0  0  0  0  0  0  0  0  0  0  0  # atno 17321 bound_to 7965
  140.7379  143.2771  151.3708 LP  0  0  0  0  0  0  0  0  0  0  0  0  # atno 17342 bound_to 10162
  139.6201  144.0924  152.2383 LP  0  0  0  0  0  0  0  0  0  0  0  0  # atno 17343 bound_to 10162
  156.1126  130.3649  150.0022 LP  0  0  0  0  0  0  0  0  0  0  0  0  # atno 17370 bound_to 10713
  156.8117  130.9327  151.3644 LP  0  0  0  0  0  0  0  0  0  0  0  0  # atno 17371 bound_to 10713
  140.2945  134.8214  157.4045 LP  0  0  0  0  0  0  0  0  0  0  0  0  # atno 17394 bound_to 11000
  140.1317  134.5086  155.8100 LP  0  0  0  0  0  0  0  0  0  0  0  0  # atno 17395 bound_to 11000

$$$$
