AV-unprocessed.smi:2742|AV-procd|sdf|10562|dock5
  -GOLD-   2272015 13D 1   1.00000     0.00000
 Structure written by MMmdl.
 37 38  0  0  0  0  0  0  0  0  1 V2000
  151.8991  144.6702  157.5267 C   0  0  0  0  0  0  0  0  0  0  0  0
  151.7257  145.0709  159.2864 S   0  0  0  0  0  0  0  0  0  0  0  0
  152.1090  143.4634  160.0414 C   0  0  2  0  0  0  0  0  0  0  0  0
  152.4731  143.6436  161.5254 C   0  0  0  0  0  0  0  0  0  0  0  0
  152.8197  142.3009  162.1863 C   0  0  0  0  0  0  0  0  0  0  0  0
  153.9582  141.5889  161.4367 C   0  0  0  0  0  0  0  0  0  0  0  0
  153.6420  141.4060  159.9370 C   0  0  1  0  0  0  0  0  0  0  0  0
  152.5910  140.4092  159.7329 N   0  0  0  0  0  0  0  0  0  0  0  0
  152.6644  139.3618  158.8987 C   0  0  0  0  0  0  0  0  0  0  0  0
  153.6406  139.1329  158.1853 O   0  0  0  0  0  0  0  0  0  0  0  0
  151.5415  138.6242  158.9487 N   0  0  0  0  0  0  0  0  0  0  0  0
  151.2101  137.4353  158.2403 C   0  0  0  0  0  0  0  0  0  0  0  0
  152.1137  136.7046  157.4301 C   0  0  0  0  0  0  0  0  0  0  0  0
  151.6557  135.5330  156.7946 C   0  0  0  0  0  0  0  0  0  0  0  0
  150.3977  135.0605  156.9205 N   0  0  0  0  0  0  0  0  0  0  0  0
  149.5421  135.7525  157.7016 C   0  0  0  0  0  0  0  0  0  0  0  0
  149.8977  136.9354  158.3803 C   0  0  0  0  0  0  0  0  0  0  0  0
  148.9888  137.5789  159.1525 F   0  0  0  0  0  0  0  0  0  0  0  0
  153.2468  142.7462  159.2847 C   0  0  0  0  0  0  0  0  0  0  0  0
  151.6683  145.5465  156.9211 H   0  0  0  0  0  0  0  0  0  0  0  0
  151.2137  143.8695  157.2485 H   0  0  0  0  0  0  0  0  0  0  0  0
  152.9167  144.3556  157.2974 H   0  0  0  0  0  0  0  0  0  0  0  0
  151.2035  142.8578  159.9874 H   0  0  0  0  0  0  0  0  0  0  0  0
  153.3217  144.3231  161.6172 H   0  0  0  0  0  0  0  0  0  0  0  0
  151.6444  144.1108  162.0587 H   0  0  0  0  0  0  0  0  0  0  0  0
  153.1055  142.4625  163.2260 H   0  0  0  0  0  0  0  0  0  0  0  0
  151.9349  141.6635  162.2070 H   0  0  0  0  0  0  0  0  0  0  0  0
  154.8704  142.1780  161.5380 H   0  0  0  0  0  0  0  0  0  0  0  0
  154.1693  140.6262  161.9039 H   0  0  0  0  0  0  0  0  0  0  0  0
  154.5449  141.0524  159.4358 H   0  0  0  0  0  0  0  0  0  0  0  0
  151.7488  140.5226  160.2779 H   0  0  0  0  0  0  0  0  0  0  0  0
  150.8090  138.9789  159.5462 H   0  0  0  0  0  0  0  0  0  0  0  0
  153.1400  137.0035  157.2887 H   0  0  0  0  0  0  0  0  0  0  0  0
  152.3222  134.9562  156.1707 H   0  0  0  0  0  0  0  0  0  0  0  0
  148.5436  135.3506  157.7903 H   0  0  0  0  0  0  0  0  0  0  0  0
  152.9691  142.5788  158.2441 H   0  0  0  0  0  0  0  0  0  0  0  0
  154.1221  143.3971  159.2606 H   0  0  0  0  0  0  0  0  0  0  0  0
  1  2  1  0  0  0  0
  1 20  1  0  0  0  0
  1 21  1  0  0  0  0
  1 22  1  0  0  0  0
  2  3  1  0  0  0  0
  3 19  1  0  0  0  0
  3  4  1  0  0  0  0
  3 23  1  0  0  0  0
  4  5  1  0  0  0  0
  4 24  1  0  0  0  0
  4 25  1  0  0  0  0
  5  6  1  0  0  0  0
  5 26  1  0  0  0  0
  5 27  1  0  0  0  0
  6  7  1  0  0  0  0
  6 28  1  0  0  0  0
  6 29  1  0  0  0  0
  7  8  1  0  0  0  0
  7 19  1  0  0  0  0
  7 30  1  0  0  0  0
  8  9  1  0  0  0  0
  8 31  1  0  0  0  0
  9 10  2  0  0  0  0
  9 11  1  0  0  0  0
 11 12  1  0  0  0  0
 11 32  1  0  0  0  0
 12 17  1  0  0  0  0
 12 13  2  0  0  0  0
 13 14  1  0  0  0  0
 13 33  1  0  0  0  0
 14 15  2  0  0  0  0
 14 34  1  0  0  0  0
 15 16  1  0  0  0  0
 16 17  2  0  0  0  0
 16 35  1  0  0  0  0
 17 18  1  0  0  0  0
 19 36  1  0  0  0  0
 19 37  1  0  0  0  0
M  END
> <s_m_source_file>
AV-unprocessed.smi

> <i_m_source_file_index>
2742

> <i_lp_mmshare_version>
43012

> <i_f3d_flags>
0

> <s_epik_input>
W0NIM11TW0NAQEhdMVtDSDJdW0NIMl1bQ0gyXVtDQEhdKFtDSDJdMSlbTkhdQyg9TylbTkhdYzJbY0hdW2NIXW5bY0hdYzJG

> <s_epik_cmdline>
J2VwaWtfcHl0aG9uJywgJy1waCcsICc3LjAnLCAnLXRuJywgJzgnLCAnLW1hJywgJzIwMCcsICctbWV0YWxfYmluZGluZycsICctaW1hZScsICc8aW5maWxlLm1hZT4nLCAnLW9tYWUnLCAnPG91dGZpbGUubWFlPic=

> <r_epik_Ionization_Penalty>
0.00344009

> <r_epik_Ionization_Penalty_Charging>
0

> <r_epik_Ionization_Penalty_Neutral>
0.00344009

> <r_epik_State_Penalty>
0.0024078

> <r_epik_Charging_Adjusted_Penalty>
0.0024078

> <i_epik_Tot_Q>
0

> <i_epik_Tot_abs_Q>
0

> <r_epik_Metal_State_Penalty>
-0

> <b_epik_Metal_Only>
0

> <s_lp_Force_Field>
OPLS_2005

> <r_lp_Energy>
13.9457

> <b_lp_Chiralities_Consistent>
1

> <s_lp_Variant>
AV-unprocessed.smi:2742-1

> <Gold.Version>
5.8.1

> <Gold.Id.Protein>
6NUR|6NUR_protein|mol2

> <Gold.PLP.Fitness>
42.0645

> <Gold.PLP.PLP>
-39.6638

> <Gold.PLP.part.hbond>
-1.0221

> <Gold.PLP.part.metal>
0.0000

> <Gold.PLP.part.buried>
-4.4481

> <Gold.PLP.part.nonpolar>
-34.2109

> <Gold.PLP.part.repulsive>
0.2540

> <Gold.PLP.ligand.clash>
0.0000

> <Gold.PLP.ligand.torsion>
0.3059

> <Gold.PLP.Chemscore.Hbond>
1.0000

> <Gold.PLP.Chemscore.CHOScore>
0.0000

> <Gold.PLP.Chemscore.Metal>
0.0000

> <Gold.Chemscore.Hbonds>
donor molecule, donor type, donor heavy atom, donor atom, acceptor molecule, acceptor atom, score
      P1  H  7997  8009       L1    10  1.00

> <Gold.PLP.Chemscore.Internal.Correction>
0.0124

> <Gold.Rescore>
     Score         DG    S(hbond)    S(metal)    S(lipo)     H(rot)  DE(clash)    DE(int)     intcor
     17.37     -18.85       1.00        0.00     111.70       1.19       0.07       1.41       ----

> <Gold.Chemscore.Fitness>
17.3744

> <Gold.Chemscore.DG>
-18.8479

> <Gold.Chemscore.ZeroCoef>
-5.4800

> <Gold.Chemscore.Hbond>
0.9995

> <Gold.Chemscore.Metal>
0.0000

> <Gold.Chemscore.Lipo>
111.7048

> <Gold.Chemscore.Internal_Hbond>
0.0000

> <Gold.Chemscore.DEClash>
0.0671

> <Gold.Chemscore.DEInternal>
1.4064

> <Gold.Chemscore.Rot>
1.1875

> <Gold.Chemscore.Internal.Correction>
   9.000000E+99

> <Gold.Chemscore.Hbonds>
donor molecule, donor type, donor heavy atom, donor atom, acceptor molecule, acceptor atom, score
      P1  H  7997  8009       L1    10  1.00

> <Gold.Chemscore.Hbond.Weighted>
-3.3384

> <Gold.Chemscore.Metal.Weighted>
-0.0000

> <Gold.Chemscore.Lipo.Weighted>
-13.0695

> <Gold.Chemscore.Internal_Hbond.Weighted>
0.0000

> <Gold.Chemscore.DEClash.Weighted>
0.0671

> <Gold.Chemscore.DEInternal.Weighted>
1.4064

> <Gold.Chemscore.Rot.Weighted>
3.0400

> <Gold.Chemscore.Internal.Correction.Weighted>
   9.000000E+99

> <Gold.Protein.RotatedTorsions>
[ 6907 6896 6895 6894 ] final  136.03 input  -60.11 | X-H torsion
[ 7974 7965 7964 7962 ] final   15.03 input  175.53 | X-H torsion
[ 8008 7997 7996 7995 ] final  148.65 input   59.86 | X-H torsion
[ 10167 10162 10161 10158 ] final  -44.72 input  -65.29 | X-H torsion
[ 10718 10713 10712 10709 ] final -176.56 input   66.30 | X-H torsion
[ 10763 10752 10751 10750 ] final  -92.87 input  -60.55 | X-H torsion
[ 11005 11000 10999 10996 ] final  -67.29 input  -57.11 | X-H torsion

> <Gold.Protein.ActiveResidues>
 VAL166  LYS551  ARG553  GLY616  TRP617  ASP618  TYR619  PRO620  LYS621  CYS622 
 ASP623  PHE694  ASN695  SER759  ASP760  ASP761  ALA762  ILE779  LEU786  VAL792 
 PHE793  MET794  SER795  GLU796  ALA797  LYS798  CYS799  TRP800  GLU811  SER814 

> <Gold.Protein.RotatedAtoms>
  152.2939  133.5588  159.5574 H   0  0  0  0  0  0  0  0  0  0  0  0  # atno 6907 bound_to 6896
  150.7247  134.0389  159.3768 H   0  0  0  0  0  0  0  0  0  0  0  0  # atno 6908 bound_to 6896
  151.8293  135.0627  160.0485 H   0  0  0  0  0  0  0  0  0  0  0  0  # atno 6909 bound_to 6896
  146.2289  139.8954  142.8548 H   0  0  0  0  0  0  0  0  0  0  0  0  # atno 7974 bound_to 7965
  156.2783  140.2123  156.5733 H   0  0  0  0  0  0  0  0  0  0  0  0  # atno 8008 bound_to 7997
  154.7118  140.0511  157.0580 H   0  0  0  0  0  0  0  0  0  0  0  0  # atno 8009 bound_to 7997
  155.0595  140.3165  155.4668 H   0  0  0  0  0  0  0  0  0  0  0  0  # atno 8010 bound_to 7997
  140.6886  143.2916  151.3535 H   0  0  0  0  0  0  0  0  0  0  0  0  # atno 10167 bound_to 10162
  156.8165  130.9605  151.3113 H   0  0  0  0  0  0  0  0  0  0  0  0  # atno 10718 bound_to 10713
  154.6903  135.5215  153.8384 H   0  0  0  0  0  0  0  0  0  0  0  0  # atno 10763 bound_to 10752
  153.0627  135.6574  154.0434 H   0  0  0  0  0  0  0  0  0  0  0  0  # atno 10764 bound_to 10752
  154.0309  135.2985  155.3348 H   0  0  0  0  0  0  0  0  0  0  0  0  # atno 10765 bound_to 10752
  141.1504  133.6716  156.6270 H   0  0  0  0  0  0  0  0  0  0  0  0  # atno 11005 bound_to 11000
  145.2376  140.9997  143.3954 LP  0  0  0  0  0  0  0  0  0  0  0  0  # atno 17320 bound_to 7965
  144.9478  139.4116  143.6417 LP  0  0  0  0  0  0  0  0  0  0  0  0  # atno 17321 bound_to 7965
  139.6267  144.0800  152.2440 LP  0  0  0  0  0  0  0  0  0  0  0  0  # atno 17342 bound_to 10162
  140.0262  144.6116  150.7525 LP  0  0  0  0  0  0  0  0  0  0  0  0  # atno 17343 bound_to 10162
  157.6479  130.8859  149.9574 LP  0  0  0  0  0  0  0  0  0  0  0  0  # atno 17370 bound_to 10713
  156.1014  130.3655  150.0212 LP  0  0  0  0  0  0  0  0  0  0  0  0  # atno 17371 bound_to 10713
  140.3496  134.7780  157.4457 LP  0  0  0  0  0  0  0  0  0  0  0  0  # atno 17394 bound_to 11000
  140.0871  134.5651  155.8481 LP  0  0  0  0  0  0  0  0  0  0  0  0  # atno 17395 bound_to 11000

$$$$
