AV-unprocessed.smi:2434|AV-procd|sdf|9591|dock10
  -GOLD-   2272013223D 1   1.00000     0.00000
 Structure written by MMmdl.
 36 37  0  0  0  0  0  0  0  0  1 V2000
  146.4714  142.2084  153.6557 C   0  0  0  0  0  0  0  0  0  0  0  0
  147.7190  141.3212  153.5225 C   0  0  0  0  0  0  0  0  0  0  0  0
  147.4643  139.8158  153.7395 C   0  0  0  0  0  0  0  0  0  0  0  0
  146.6753  139.2391  152.5441 C   0  0  0  0  0  0  0  0  0  0  0  0
  146.9111  137.8090  152.3584 N   0  0  0  0  0  0  0  0  0  0  0  0
  145.9647  136.8823  152.1506 C   0  0  0  0  0  0  0  0  0  0  0  0
  144.7588  137.1282  152.1105 O   0  0  0  0  0  0  0  0  0  0  0  0
  146.5037  135.6668  151.9628 N   0  0  0  0  0  0  0  0  0  0  0  0
  145.8037  134.4663  151.6809 C   0  0  0  0  0  0  0  0  0  0  0  0
  144.5260  134.5574  151.0915 C   0  0  0  0  0  0  0  0  0  0  0  0
  143.8333  133.3671  150.7920 C   0  0  0  0  0  0  0  0  0  0  0  0
  144.3368  132.1364  151.0248 N   0  0  0  0  0  0  0  0  0  0  0  0
  145.5714  132.0528  151.5654 C   0  0  0  0  0  0  0  0  0  0  0  0
  146.3496  133.1786  151.9035 C   0  0  0  0  0  0  0  0  0  0  0  0
  147.5985  133.0096  152.4006 F   0  0  0  0  0  0  0  0  0  0  0  0
  148.7049  138.9918  154.1539 C   0  0  0  0  0  0  0  0  0  0  0  0
  147.8483  138.2444  155.1742 C   0  0  0  0  0  0  0  0  0  0  0  0
  146.8956  139.4371  155.1250 C   0  0  0  0  0  0  0  0  0  0  0  0
  146.7421  143.2616  153.5796 H   0  0  0  0  0  0  0  0  0  0  0  0
  145.9803  142.0634  154.6179 H   0  0  0  0  0  0  0  0  0  0  0  0
  145.7429  142.0061  152.8712 H   0  0  0  0  0  0  0  0  0  0  0  0
  148.1891  141.5041  152.5562 H   0  0  0  0  0  0  0  0  0  0  0  0
  148.4481  141.6719  154.2539 H   0  0  0  0  0  0  0  0  0  0  0  0
  145.6035  139.3600  152.7026 H   0  0  0  0  0  0  0  0  0  0  0  0
  146.8861  139.8026  151.6346 H   0  0  0  0  0  0  0  0  0  0  0  0
  147.8744  137.5072  152.3705 H   0  0  0  0  0  0  0  0  0  0  0  0
  147.5093  135.6226  151.8905 H   0  0  0  0  0  0  0  0  0  0  0  0
  144.0770  135.5176  150.8826 H   0  0  0  0  0  0  0  0  0  0  0  0
  142.8482  133.4054  150.3512 H   0  0  0  0  0  0  0  0  0  0  0  0
  145.9576  131.0564  151.7216 H   0  0  0  0  0  0  0  0  0  0  0  0
  149.1235  138.3604  153.3696 H   0  0  0  0  0  0  0  0  0  0  0  0
  149.4821  139.5924  154.6296 H   0  0  0  0  0  0  0  0  0  0  0  0
  147.4083  137.3287  154.7765 H   0  0  0  0  0  0  0  0  0  0  0  0
  148.3257  138.0807  156.1407 H   0  0  0  0  0  0  0  0  0  0  0  0
  147.1182  140.1760  155.8972 H   0  0  0  0  0  0  0  0  0  0  0  0
  145.8379  139.1711  155.1292 H   0  0  0  0  0  0  0  0  0  0  0  0
  1  2  1  0  0  0  0
  1 19  1  0  0  0  0
  1 20  1  0  0  0  0
  1 21  1  0  0  0  0
  2  3  1  0  0  0  0
  2 22  1  0  0  0  0
  2 23  1  0  0  0  0
  3 18  1  0  0  0  0
  3  4  1  0  0  0  0
  3 16  1  0  0  0  0
  4  5  1  0  0  0  0
  4 24  1  0  0  0  0
  4 25  1  0  0  0  0
  5  6  1  0  0  0  0
  5 26  1  0  0  0  0
  6  7  2  0  0  0  0
  6  8  1  0  0  0  0
  8  9  1  0  0  0  0
  8 27  1  0  0  0  0
  9 14  1  0  0  0  0
  9 10  2  0  0  0  0
 10 11  1  0  0  0  0
 10 28  1  0  0  0  0
 11 12  2  0  0  0  0
 11 29  1  0  0  0  0
 12 13  1  0  0  0  0
 13 14  2  0  0  0  0
 13 30  1  0  0  0  0
 14 15  1  0  0  0  0
 16 17  1  0  0  0  0
 16 31  1  0  0  0  0
 16 32  1  0  0  0  0
 17 18  1  0  0  0  0
 17 33  1  0  0  0  0
 17 34  1  0  0  0  0
 18 35  1  0  0  0  0
 18 36  1  0  0  0  0
M  END
> <s_m_source_file>
AV-unprocessed.smi

> <i_m_source_file_index>
2434

> <i_lp_mmshare_version>
43012

> <i_f3d_flags>
0

> <s_epik_input>
W0NIMl0xW0NIMl1bQ0gyXUMxKFtDSDJdW0NIM10pW0NIMl1bTkhdQyg9TylbTkhdYzJbY0hdW2NIXW5bY0hdYzJG

> <s_epik_cmdline>
J2VwaWtfcHl0aG9uJywgJy1waCcsICc3LjAnLCAnLXRuJywgJzgnLCAnLW1hJywgJzIwMCcsICctbWV0YWxfYmluZGluZycsICctaW1hZScsICc8aW5maWxlLm1hZT4nLCAnLW9tYWUnLCAnPG91dGZpbGUubWFlPic=

> <r_epik_Ionization_Penalty>
0.00332283

> <r_epik_Ionization_Penalty_Charging>
0

> <r_epik_Ionization_Penalty_Neutral>
0.00332283

> <r_epik_State_Penalty>
0.00231995

> <r_epik_Charging_Adjusted_Penalty>
0.00231995

> <i_epik_Tot_Q>
0

> <i_epik_Tot_abs_Q>
0

> <r_epik_Metal_State_Penalty>
-0

> <b_epik_Metal_Only>
0

> <s_lp_Force_Field>
OPLS_2005

> <r_lp_Energy>
27.2745

> <b_lp_Chiralities_Consistent>
1

> <s_lp_Variant>
AV-unprocessed.smi:2434-1

> <Gold.Version>
5.8.1

> <Gold.Id.Protein>
6NUR|6NUR_protein|mol2

> <Gold.PLP.Fitness>
37.4302

> <Gold.PLP.PLP>
-29.8703

> <Gold.PLP.part.hbond>
-1.8736

> <Gold.PLP.part.metal>
0.0000

> <Gold.PLP.part.buried>
-3.9881

> <Gold.PLP.part.nonpolar>
-25.3724

> <Gold.PLP.part.repulsive>
0.8963

> <Gold.PLP.ligand.clash>
0.0196

> <Gold.PLP.ligand.torsion>
0.7946

> <Gold.PLP.Chemscore.Hbond>
1.9120

> <Gold.PLP.Chemscore.CHOScore>
1.0000

> <Gold.PLP.Chemscore.Metal>
0.0000

> <Gold.Chemscore.Hbonds>
donor molecule, donor type, donor heavy atom, donor atom, acceptor molecule, acceptor atom, score
      L1  H     5    26       P1  7948  0.88
      L1  H     8    27       P1  7948  1.00
      L1  C    11    29       P1 10186  1.00

> <Gold.PLP.Chemscore.Internal.Correction>
0.4326

> <Gold.Rescore>
     Score         DG    S(hbond)    S(metal)    S(lipo)     H(rot)  DE(clash)    DE(int)     intcor
     13.38     -16.01       1.88        0.00      67.00       1.40       0.15       2.48       ----

> <Gold.Chemscore.Fitness>
13.3751

> <Gold.Chemscore.DG>
-16.0062

> <Gold.Chemscore.ZeroCoef>
-5.4800

> <Gold.Chemscore.Hbond>
1.8768

> <Gold.Chemscore.Metal>
0.0000

> <Gold.Chemscore.Lipo>
67.0012

> <Gold.Chemscore.Internal_Hbond>
0.0000

> <Gold.Chemscore.DEClash>
0.1480

> <Gold.Chemscore.DEInternal>
2.4832

> <Gold.Chemscore.Rot>
1.3990

> <Gold.Chemscore.Internal.Correction>
   9.000000E+99

> <Gold.Chemscore.Hbonds>
donor molecule, donor type, donor heavy atom, donor atom, acceptor molecule, acceptor atom, score
      L1  H     5    26       P1  7948  0.87
      L1  H     8    27       P1  7948  0.92

> <Gold.Chemscore.Hbond.Weighted>
-6.2685

> <Gold.Chemscore.Metal.Weighted>
-0.0000

> <Gold.Chemscore.Lipo.Weighted>
-7.8391

> <Gold.Chemscore.Internal_Hbond.Weighted>
0.0000

> <Gold.Chemscore.DEClash.Weighted>
0.1480

> <Gold.Chemscore.DEInternal.Weighted>
2.4832

> <Gold.Chemscore.Rot.Weighted>
3.5814

> <Gold.Chemscore.Internal.Correction.Weighted>
   9.000000E+99

> <Gold.Protein.RotatedTorsions>
[ 6907 6896 6895 6894 ] final  -76.85 input  -60.11 | X-H torsion
[ 7974 7965 7964 7962 ] final   82.72 input  175.53 | X-H torsion
[ 8008 7997 7996 7995 ] final -105.38 input   59.86 | X-H torsion
[ 10167 10162 10161 10158 ] final  -89.58 input  -65.29 | X-H torsion
[ 10718 10713 10712 10709 ] final -144.39 input   66.30 | X-H torsion
[ 10763 10752 10751 10750 ] final -101.71 input  -60.55 | X-H torsion
[ 11005 11000 10999 10996 ] final -103.47 input  -57.11 | X-H torsion

> <Gold.Protein.ActiveResidues>
 VAL166  LYS551  ARG553  GLY616  TRP617  ASP618  TYR619  PRO620  LYS621  CYS622 
 ASP623  PHE694  ASN695  SER759  ASP760  ASP761  ALA762  ILE779  LEU786  VAL792 
 PHE793  MET794  SER795  GLU796  ALA797  LYS798  CYS799  TRP800  GLU811  SER814 

> <Gold.Protein.RotatedAtoms>
  150.7015  134.4510  159.5335 H   0  0  0  0  0  0  0  0  0  0  0  0  # atno 6907 bound_to 6896
  152.2202  134.8417  160.0496 H   0  0  0  0  0  0  0  0  0  0  0  0  # atno 6908 bound_to 6896
  151.9270  133.3566  159.3954 H   0  0  0  0  0  0  0  0  0  0  0  0  # atno 6909 bound_to 6896
  145.6213  139.2386  143.2137 H   0  0  0  0  0  0  0  0  0  0  0  0  # atno 7974 bound_to 7965
  154.8991  140.0413  157.1882 H   0  0  0  0  0  0  0  0  0  0  0  0  # atno 8008 bound_to 7997
  154.8462  140.2922  155.5606 H   0  0  0  0  0  0  0  0  0  0  0  0  # atno 8009 bound_to 7997
  156.2994  140.2473  156.3413 H   0  0  0  0  0  0  0  0  0  0  0  0  # atno 8010 bound_to 7997
  140.3634  143.2830  151.9587 H   0  0  0  0  0  0  0  0  0  0  0  0  # atno 10167 bound_to 10162
  156.3695  130.7781  151.1959 H   0  0  0  0  0  0  0  0  0  0  0  0  # atno 10718 bound_to 10713
  154.7679  135.4887  153.9590 H   0  0  0  0  0  0  0  0  0  0  0  0  # atno 10763 bound_to 10752
  153.1330  135.6757  153.9155 H   0  0  0  0  0  0  0  0  0  0  0  0  # atno 10764 bound_to 10752
  153.8852  135.3127  155.3425 H   0  0  0  0  0  0  0  0  0  0  0  0  # atno 10765 bound_to 10752
  141.1144  133.8642  157.1489 H   0  0  0  0  0  0  0  0  0  0  0  0  # atno 11005 bound_to 11000
  146.1429  140.7033  142.9358 LP  0  0  0  0  0  0  0  0  0  0  0  0  # atno 17320 bound_to 7965
  144.7230  140.4435  143.6994 LP  0  0  0  0  0  0  0  0  0  0  0  0  # atno 17321 bound_to 7965
  139.4811  144.5972  151.7669 LP  0  0  0  0  0  0  0  0  0  0  0  0  # atno 17342 bound_to 10162
  140.5105  144.1033  150.5994 LP  0  0  0  0  0  0  0  0  0  0  0  0  # atno 17343 bound_to 10162
  157.7482  131.0376  150.4465 LP  0  0  0  0  0  0  0  0  0  0  0  0  # atno 17370 bound_to 10713
  156.4689  130.4048  149.6530 LP  0  0  0  0  0  0  0  0  0  0  0  0  # atno 17371 bound_to 10713
  140.0057  135.0009  157.0288 LP  0  0  0  0  0  0  0  0  0  0  0  0  # atno 17394 bound_to 11000
  140.4686  134.1410  155.7200 LP  0  0  0  0  0  0  0  0  0  0  0  0  # atno 17395 bound_to 11000

$$$$
