AV-unprocessed.smi:188|AV-procd|sdf|1472|dock6
  -GOLD-   2262019293D 1   1.00000     0.00000
 Structure written by MMmdl.
 49 53  0  0  0  0  0  0  0  0  1 V2000
  143.2412  132.1255  148.0793 O   0  0  0  0  0  0  0  0  0  0  0  0
  143.8897  132.7251  148.9336 C   0  0  0  0  0  0  0  0  0  0  0  0
  145.1755  132.5201  149.2331 N   0  0  0  0  0  0  0  0  0  0  0  0
  145.6075  133.3219  150.2046 C   0  0  0  0  0  0  0  0  0  0  0  0
  146.7424  133.3499  150.6773 O   0  0  0  0  0  0  0  0  0  0  0  0
  144.4441  134.2121  150.6409 C   0  0  0  0  0  0  0  0  0  0  0  0
  144.7014  135.7162  150.3903 C   0  0  0  0  0  0  0  0  0  0  0  0
  145.6621  136.3296  151.4265 C   0  0  0  0  0  0  0  0  0  0  0  0
  145.2116  136.0520  152.7903 N   0  0  0  0  0  0  0  0  0  0  0  0
  145.7923  136.8267  153.7421 C   0  0  0  0  0  0  0  0  0  0  0  0
  145.7441  136.4489  155.0480 N   0  0  0  0  0  0  0  0  0  0  0  0
  146.3252  137.1973  155.9899 C   0  0  0  0  0  0  0  0  0  0  0  0
  146.9923  138.3441  155.8501 N   0  0  0  0  0  0  0  0  0  0  0  0
  147.0336  138.7375  154.5454 C   0  0  0  0  0  0  0  0  0  0  0  0
  146.4678  138.0426  153.4383 C   0  0  0  0  0  0  0  0  0  0  0  0
  146.7065  138.7493  152.2655 N   0  0  0  0  0  0  0  0  0  0  0  0
  147.3828  139.7950  152.6553 C   0  0  0  0  0  0  0  0  0  0  0  0
  147.6157  139.8738  154.0102 N   0  0  0  0  0  0  0  0  0  0  0  0
  148.3359  140.9305  154.7057 C   0  0  0  0  0  0  0  0  0  0  0  0
  149.6496  140.4709  155.3730 C   0  0  0  0  0  0  0  0  0  0  0  0
  150.4372  141.6740  155.9214 C   0  0  0  0  0  0  0  0  0  0  0  0
  149.7143  142.3456  156.9337 O   0  0  0  0  0  0  0  0  0  0  0  0
  149.5320  139.2934  156.3520 C   0  0  0  0  0  0  0  0  0  0  0  0
  150.6005  138.5746  155.7014 O   0  0  0  0  0  0  0  0  0  0  0  0
  150.4887  139.4655  154.5717 C   0  0  0  0  0  0  0  0  0  0  0  0
  145.0065  134.6368  153.1053 C   0  0  0  0  0  0  0  0  0  0  0  0
  144.0263  133.9861  152.1120 C   0  0  0  0  0  0  0  0  0  0  0  0
  143.4318  133.7003  149.7300 N   0  0  0  0  0  0  0  0  0  0  0  0
  145.7558  131.8333  148.7739 H   0  0  0  0  0  0  0  0  0  0  0  0
  145.0982  135.8768  149.3867 H   0  0  0  0  0  0  0  0  0  0  0  0
  143.7530  136.2541  150.4281 H   0  0  0  0  0  0  0  0  0  0  0  0
  146.6667  135.9253  151.2996 H   0  0  0  0  0  0  0  0  0  0  0  0
  145.7398  137.4011  151.2455 H   0  0  0  0  0  0  0  0  0  0  0  0
  146.2434  136.8236  156.9999 H   0  0  0  0  0  0  0  0  0  0  0  0
  147.7247  140.5487  151.9609 H   0  0  0  0  0  0  0  0  0  0  0  0
  148.5293  141.7288  153.9882 H   0  0  0  0  0  0  0  0  0  0  0  0
  147.6658  141.3655  155.4482 H   0  0  0  0  0  0  0  0  0  0  0  0
  151.4100  141.3760  156.3123 H   0  0  0  0  0  0  0  0  0  0  0  0
  150.6413  142.3920  155.1263 H   0  0  0  0  0  0  0  0  0  0  0  0
  149.1603  142.9944  156.5269 H   0  0  0  0  0  0  0  0  0  0  0  0
  149.7621  139.5486  157.3871 H   0  0  0  0  0  0  0  0  0  0  0  0
  148.5902  138.7472  156.2860 H   0  0  0  0  0  0  0  0  0  0  0  0
  149.9519  139.0013  153.7426 H   0  0  0  0  0  0  0  0  0  0  0  0
  151.4546  139.8510  154.2431 H   0  0  0  0  0  0  0  0  0  0  0  0
  145.9659  134.1187  153.0874 H   0  0  0  0  0  0  0  0  0  0  0  0
  144.6097  134.5352  154.1165 H   0  0  0  0  0  0  0  0  0  0  0  0
  143.0318  134.4053  152.2717 H   0  0  0  0  0  0  0  0  0  0  0  0
  143.9418  132.9204  152.3297 H   0  0  0  0  0  0  0  0  0  0  0  0
  142.4857  134.0527  149.7110 H   0  0  0  0  0  0  0  0  0  0  0  0
  1  2  2  0  0  0  0
  2 28  1  0  0  0  0
  2  3  1  0  0  0  0
  3  4  1  0  0  0  0
  3 29  1  0  0  0  0
  4  5  2  0  0  0  0
  4  6  1  0  0  0  0
  6 27  1  0  0  0  0
  6  7  1  0  0  0  0
  6 28  1  0  0  0  0
  7  8  1  0  0  0  0
  7 30  1  0  0  0  0
  7 31  1  0  0  0  0
  8  9  1  0  0  0  0
  8 32  1  0  0  0  0
  8 33  1  0  0  0  0
  9 10  1  0  0  0  0
  9 26  1  0  0  0  0
 10 15  1  0  0  0  0
 10 11  2  0  0  0  0
 11 12  1  0  0  0  0
 12 13  2  0  0  0  0
 12 34  1  0  0  0  0
 13 14  1  0  0  0  0
 14 18  1  0  0  0  0
 14 15  2  0  0  0  0
 15 16  1  0  0  0  0
 16 17  2  0  0  0  0
 17 18  1  0  0  0  0
 17 35  1  0  0  0  0
 18 19  1  0  0  0  0
 19 20  1  0  0  0  0
 19 36  1  0  0  0  0
 19 37  1  0  0  0  0
 20 25  1  0  0  0  0
 20 21  1  0  0  0  0
 20 23  1  0  0  0  0
 21 22  1  0  0  0  0
 21 38  1  0  0  0  0
 21 39  1  0  0  0  0
 22 40  1  0  0  0  0
 23 24  1  0  0  0  0
 23 41  1  0  0  0  0
 23 42  1  0  0  0  0
 24 25  1  0  0  0  0
 25 43  1  0  0  0  0
 25 44  1  0  0  0  0
 26 27  1  0  0  0  0
 26 45  1  0  0  0  0
 26 46  1  0  0  0  0
 27 47  1  0  0  0  0
 27 48  1  0  0  0  0
 28 49  1  0  0  0  0
M  END
> <s_m_source_file>
AV-unprocessed.smi

> <i_m_source_file_index>
188

> <i_lp_mmshare_version>
43012

> <i_f3d_flags>
0

> <s_epik_input>
Tz1DKFtOSF0xKVtOSF1DKD1PKUMxMltDSDJdW0NIMl1OKFtDSDJdW0NIMl0yKWMobltjSF1uMyljKGMzNCluW2NIXW40W0NIMl1DNShbQ0gyXVtPSF0pW0NIMl1PW0NIMl01

> <s_epik_cmdline>
J2VwaWtfcHl0aG9uJywgJy1waCcsICc3LjAnLCAnLXRuJywgJzgnLCAnLW1hJywgJzIwMCcsICctbWV0YWxfYmluZGluZycsICctaW1hZScsICc8aW5maWxlLm1hZT4nLCAnLW9tYWUnLCAnPG91dGZpbGUubWFlPic=

> <r_lp_tautomer_probability>
1

> <r_epik_Ionization_Penalty>
0.00868263

> <r_epik_Ionization_Penalty_Charging>
0

> <r_epik_Ionization_Penalty_Neutral>
0.00868263

> <r_epik_State_Penalty>
0.00519311

> <r_epik_Charging_Adjusted_Penalty>
0.00519311

> <i_epik_Tot_Q>
0

> <i_epik_Tot_abs_Q>
0

> <r_epik_Metal_State_Penalty>
0.404007

> <b_epik_Metal_Only>
0

> <s_lp_Force_Field>
OPLS_2005

> <r_lp_Energy>
48.5208

> <b_lp_Chiralities_Consistent>
1

> <s_lp_Variant>
AV-unprocessed.smi:188-1

> <Gold.Version>
5.8.1

> <Gold.Id.Protein>
6NUR|6NUR_protein|mol2

> <Gold.PLP.Fitness>
43.5532

> <Gold.PLP.PLP>
-34.5150

> <Gold.PLP.part.hbond>
-4.0000

> <Gold.PLP.part.metal>
0.0000

> <Gold.PLP.part.buried>
-2.1337

> <Gold.PLP.part.nonpolar>
-29.6613

> <Gold.PLP.part.repulsive>
1.2848

> <Gold.PLP.ligand.clash>
0.0000

> <Gold.PLP.ligand.torsion>
0.7955

> <Gold.PLP.Chemscore.Hbond>
2.6240

> <Gold.PLP.Chemscore.CHOScore>
0.6760

> <Gold.PLP.Chemscore.Metal>
0.0000

> <Gold.Chemscore.Hbonds>
donor molecule, donor type, donor heavy atom, donor atom, acceptor molecule, acceptor atom, score
      L1  H    22    40       P1  8028  1.00
      L1  H    28    49       P1 10186  1.00
      P1  H 10785 10796       L1     1  0.54
      L1  C    17    35       P1  7957  0.64

> <Gold.PLP.Chemscore.Internal.Correction>
0.7293

> <Gold.Rescore>
     Score         DG    S(hbond)    S(metal)    S(lipo)     H(rot)  DE(clash)    DE(int)     intcor
      8.37     -14.28       2.71        0.00      60.91       2.88       2.29       3.62       ----

> <Gold.Chemscore.Fitness>
8.3742

> <Gold.Chemscore.DG>
-14.2810

> <Gold.Chemscore.ZeroCoef>
-5.4800

> <Gold.Chemscore.Hbond>
2.7064

> <Gold.Chemscore.Metal>
0.0000

> <Gold.Chemscore.Lipo>
60.9129

> <Gold.Chemscore.Internal_Hbond>
0.0000

> <Gold.Chemscore.DEClash>
2.2896

> <Gold.Chemscore.DEInternal>
3.6171

> <Gold.Chemscore.Rot>
2.8770

> <Gold.Chemscore.Internal.Correction>
   9.000000E+99

> <Gold.Chemscore.Hbonds>
donor molecule, donor type, donor heavy atom, donor atom, acceptor molecule, acceptor atom, score
      L1  H    22    40       P1  8028  0.95
      L1  H    28    49       P1 10186  0.93
      P1  H 10785 10796       L1     1  0.28

> <Gold.Chemscore.Hbond.Weighted>
-9.0393

> <Gold.Chemscore.Metal.Weighted>
-0.0000

> <Gold.Chemscore.Lipo.Weighted>
-7.1268

> <Gold.Chemscore.Internal_Hbond.Weighted>
0.0000

> <Gold.Chemscore.DEClash.Weighted>
2.2896

> <Gold.Chemscore.DEInternal.Weighted>
3.6171

> <Gold.Chemscore.Rot.Weighted>
7.3651

> <Gold.Chemscore.Internal.Correction.Weighted>
   9.000000E+99

> <Gold.Protein.RotatedTorsions>
[ 6907 6896 6895 6894 ] final -153.65 input  -60.11 | X-H torsion
[ 7974 7965 7964 7962 ] final -177.18 input  175.53 | X-H torsion
[ 8008 7997 7996 7995 ] final -169.56 input   59.86 | X-H torsion
[ 10167 10162 10161 10158 ] final  -96.42 input  -65.29 | X-H torsion
[ 10718 10713 10712 10709 ] final  -25.51 input   66.30 | X-H torsion
[ 10763 10752 10751 10750 ] final -128.54 input  -60.55 | X-H torsion
[ 11005 11000 10999 10996 ] final -160.64 input  -57.11 | X-H torsion

> <Gold.Protein.ActiveResidues>
 VAL166  LYS551  ARG553  GLY616  TRP617  ASP618  TYR619  PRO620  LYS621  CYS622 
 ASP623  PHE694  ASN695  SER759  ASP760  ASP761  ALA762  ILE779  LEU786  VAL792 
 PHE793  MET794  SER795  GLU796  ALA797  LYS798  CYS799  TRP800  GLU811  SER814 

> <Gold.Protein.RotatedAtoms>
  151.2457  133.4376  159.2609 H   0  0  0  0  0  0  0  0  0  0  0  0  # atno 6907 bound_to 6896
  151.0663  134.9770  159.8296 H   0  0  0  0  0  0  0  0  0  0  0  0  # atno 6908 bound_to 6896
  152.5406  134.2405  159.8913 H   0  0  0  0  0  0  0  0  0  0  0  0  # atno 6909 bound_to 6896
  144.7127  140.1058  143.6414 H   0  0  0  0  0  0  0  0  0  0  0  0  # atno 7974 bound_to 7965
  155.9066  140.1050  157.1310 H   0  0  0  0  0  0  0  0  0  0  0  0  # atno 8008 bound_to 7997
  154.4033  140.1282  156.4569 H   0  0  0  0  0  0  0  0  0  0  0  0  # atno 8009 bound_to 7997
  155.7359  140.3467  155.5084 H   0  0  0  0  0  0  0  0  0  0  0  0  # atno 8010 bound_to 7997
  140.2940  143.3204  152.0317 H   0  0  0  0  0  0  0  0  0  0  0  0  # atno 10167 bound_to 10162
  156.4634  130.4509  149.6914 H   0  0  0  0  0  0  0  0  0  0  0  0  # atno 10718 bound_to 10713
  154.8756  135.3925  154.3774 H   0  0  0  0  0  0  0  0  0  0  0  0  # atno 10763 bound_to 10752
  153.4526  135.7028  153.6105 H   0  0  0  0  0  0  0  0  0  0  0  0  # atno 10764 bound_to 10752
  153.4638  135.3806  155.2322 H   0  0  0  0  0  0  0  0  0  0  0  0  # atno 10765 bound_to 10752
  140.6292  134.4669  157.5228 H   0  0  0  0  0  0  0  0  0  0  0  0  # atno 11005 bound_to 11000
  145.9498  139.2726  143.1219 LP  0  0  0  0  0  0  0  0  0  0  0  0  # atno 17320 bound_to 7965
  145.9335  140.9031  143.0344 LP  0  0  0  0  0  0  0  0  0  0  0  0  # atno 17321 bound_to 7965
  139.4931  144.6504  151.6687 LP  0  0  0  0  0  0  0  0  0  0  0  0  # atno 17342 bound_to 10162
  140.5708  144.0112  150.6216 LP  0  0  0  0  0  0  0  0  0  0  0  0  # atno 17343 bound_to 10162
  156.3693  130.7522  151.2503 LP  0  0  0  0  0  0  0  0  0  0  0  0  # atno 17370 bound_to 10713
  157.7496  131.0328  150.4241 LP  0  0  0  0  0  0  0  0  0  0  0  0  # atno 17371 bound_to 10713
  139.9122  134.8320  156.1487 LP  0  0  0  0  0  0  0  0  0  0  0  0  # atno 17394 bound_to 11000
  141.0687  133.6807  156.2097 LP  0  0  0  0  0  0  0  0  0  0  0  0  # atno 17395 bound_to 11000

$$$$
