AV-unprocessed.smi:1240|AV-procd|sdf|5209|dock6
  -GOLD-   22720 4303D 1   1.00000     0.00000
 Structure written by MMmdl.
 49 51  0  0  0  0  0  0  0  0  3 V2000
  144.7039  135.8057  153.7537 O   0  0  0  0  0  0  0  0  0  0  0  0
  145.6831  135.6897  153.0177 C   0  0  0  0  0  0  0  0  0  0  0  0
  146.8319  136.3503  153.2144 N   0  0  0  0  0  0  0  0  0  0  0  0
  147.0496  137.3099  154.2932 C   0  0  0  0  0  0  0  0  0  0  0  0
  148.5234  137.7870  154.3557 C   0  0  2  0  0  0  0  0  0  0  0  0
  149.3594  136.9303  155.3636 C   0  0  1  0  0  0  0  0  0  0  0  0
  149.4034  135.4414  155.0361 C   0  0  0  0  0  0  0  0  0  0  0  0
  150.6542  134.9760  155.7624 C   0  0  0  0  0  0  0  0  0  0  0  0
  151.5742  136.0201  155.5038 O   0  0  0  0  0  0  0  0  0  0  0  0
  150.8685  137.2535  155.4183 C   0  0  0  0  0  0  0  0  0  0  0  0
  148.5234  139.2699  154.5998 N   0  3  0  0  0  0  0  0  0  0  0  0
  149.8326  139.9721  154.6528 C   0  0  0  0  0  0  0  0  0  0  0  0
  149.6377  141.4511  155.0299 C   0  0  0  0  0  0  0  0  0  0  0  0
  148.7653  142.0748  154.0981 O   0  0  0  0  0  0  0  0  0  0  0  0
  147.4789  141.4713  154.0945 C   0  0  0  0  0  0  0  0  0  0  0  0
  147.6063  139.9958  153.6822 C   0  0  0  0  0  0  0  0  0  0  0  0
  145.7547  134.8873  151.9415 N   0  0  0  0  0  0  0  0  0  0  0  0
  144.7397  134.0537  151.3976 C   0  0  0  0  0  0  0  0  0  0  0  0
  143.4540  134.1195  151.9790 C   0  0  0  0  0  0  0  0  0  0  0  0
  142.4223  133.2981  151.4803 C   0  0  0  0  0  0  0  0  0  0  0  0
  142.6726  132.4484  150.4611 N   0  3  0  0  0  0  0  0  0  0  0  0
  143.8885  132.3384  149.8842 C   0  0  0  0  0  0  0  0  0  0  0  0
  144.9590  133.1346  150.3400 C   0  0  0  0  0  0  0  0  0  0  0  0
  147.5892  136.2057  152.5628 H   0  0  0  0  0  0  0  0  0  0  0  0
  146.3709  138.1541  154.1666 H   0  0  0  0  0  0  0  0  0  0  0  0
  146.7552  136.8486  155.2359 H   0  0  0  0  0  0  0  0  0  0  0  0
  148.9588  137.6126  153.3701 H   0  0  0  0  0  0  0  0  0  0  0  0
  148.9397  137.0161  156.3670 H   0  0  0  0  0  0  0  0  0  0  0  0
  148.5125  134.9027  155.3605 H   0  0  0  0  0  0  0  0  0  0  0  0
  149.5267  135.2856  153.9632 H   0  0  0  0  0  0  0  0  0  0  0  0
  150.4769  134.9013  156.8364 H   0  0  0  0  0  0  0  0  0  0  0  0
  151.0225  134.0150  155.4028 H   0  0  0  0  0  0  0  0  0  0  0  0
  151.2067  137.7826  154.5269 H   0  0  0  0  0  0  0  0  0  0  0  0
  151.1149  137.8658  156.2856 H   0  0  0  0  0  0  0  0  0  0  0  0
  150.4872  139.5213  155.3972 H   0  0  0  0  0  0  0  0  0  0  0  0
  150.3275  139.9099  153.6833 H   0  0  0  0  0  0  0  0  0  0  0  0
  149.2385  141.5469  156.0411 H   0  0  0  0  0  0  0  0  0  0  0  0
  150.5958  141.9707  155.0161 H   0  0  0  0  0  0  0  0  0  0  0  0
  147.0143  141.5645  155.0777 H   0  0  0  0  0  0  0  0  0  0  0  0
  146.8418  142.0046  153.3888 H   0  0  0  0  0  0  0  0  0  0  0  0
  147.9849  139.9281  152.6609 H   0  0  0  0  0  0  0  0  0  0  0  0
  146.6172  139.5394  153.6816 H   0  0  0  0  0  0  0  0  0  0  0  0
  146.6551  134.8256  151.4895 H   0  0  0  0  0  0  0  0  0  0  0  0
  143.2532  134.7975  152.7960 H   0  0  0  0  0  0  0  0  0  0  0  0
  141.4126  133.2942  151.8643 H   0  0  0  0  0  0  0  0  0  0  0  0
  143.9703  131.6171  149.0842 H   0  0  0  0  0  0  0  0  0  0  0  0
  145.9277  133.0159  149.8787 H   0  0  0  0  0  0  0  0  0  0  0  0
  148.1361  139.3797  155.5260 H   0  0  0  0  0  0  0  0  0  0  0  0
  141.9126  131.8616  150.1155 H   0  0  0  0  0  0  0  0  0  0  0  0
  1  2  2  0  0  0  0
  2  3  1  0  0  0  0
  2 17  1  0  0  0  0
  3  4  1  0  0  0  0
  3 24  1  0  0  0  0
  4  5  1  0  0  0  0
  4 25  1  0  0  0  0
  4 26  1  0  0  0  0
  5  6  1  0  0  0  0
  5 11  1  0  0  0  0
  5 27  1  0  0  0  0
  6 10  1  0  0  0  0
  6  7  1  0  0  0  0
  6 28  1  0  0  0  0
  7  8  1  0  0  0  0
  7 29  1  0  0  0  0
  7 30  1  0  0  0  0
  8  9  1  0  0  0  0
  8 31  1  0  0  0  0
  8 32  1  0  0  0  0
  9 10  1  0  0  0  0
 10 33  1  0  0  0  0
 10 34  1  0  0  0  0
 11 16  1  0  0  0  0
 11 12  1  0  0  0  0
 11 48  1  0  0  0  0
 12 13  1  0  0  0  0
 12 35  1  0  0  0  0
 12 36  1  0  0  0  0
 13 14  1  0  0  0  0
 13 37  1  0  0  0  0
 13 38  1  0  0  0  0
 14 15  1  0  0  0  0
 15 16  1  0  0  0  0
 15 39  1  0  0  0  0
 15 40  1  0  0  0  0
 16 41  1  0  0  0  0
 16 42  1  0  0  0  0
 17 18  1  0  0  0  0
 17 43  1  0  0  0  0
 18 23  1  0  0  0  0
 18 19  2  0  0  0  0
 19 20  1  0  0  0  0
 19 44  1  0  0  0  0
 20 21  2  0  0  0  0
 20 45  1  0  0  0  0
 21 22  1  0  0  0  0
 21 49  1  0  0  0  0
 22 23  2  0  0  0  0
 22 46  1  0  0  0  0
 23 47  1  0  0  0  0
M  CHG  1  11   1
M  CHG  1  21   1
M  END
> <s_m_source_file>
AV-unprocessed.smi

> <i_m_source_file_index>
1240

> <i_lp_mmshare_version>
43012

> <i_f3d_flags>
0

> <s_epik_input>
W2NIXTFbY0hdbltjSF1bY0hdYzFbTkhdQyg9TylbTkhdW0NIMl1bQ0BIXShbQ0BASF0yW0NIMl1bQ0gyXU9bQ0gyXTIpTjNbQ0gyXVtDSDJdT1tDSDJdW0NIMl0z

> <s_epik_cmdline>
J2VwaWtfcHl0aG9uJywgJy1waCcsICc3LjAnLCAnLXRuJywgJzgnLCAnLW1hJywgJzIwMCcsICctbWV0YWxfYmluZGluZycsICctaW1hZScsICc8aW5maWxlLm1hZT4nLCAnLW9tYWUnLCAnPG91dGZpbGUubWFlPic=

> <r_epik_Ionization_Penalty>
2.08105

> <r_epik_Ionization_Penalty_Charging>
2.08103

> <r_epik_Ionization_Penalty_Neutral>
2.04144e-05

> <r_epik_State_Penalty>
2.15598

> <r_epik_Charging_Adjusted_Penalty>
4.23701

> <i_epik_Tot_Q>
2

> <i_epik_Tot_abs_Q>
2

> <r_epik_Metal_State_Penalty>
2.25158

> <b_epik_Metal_Only>
0

> <s_lp_Force_Field>
OPLS_2005

> <r_lp_Energy>
62.0114

> <b_lp_Chiralities_Consistent>
1

> <s_lp_Variant>
AV-unprocessed.smi:1240-15

> <Gold.Version>
5.8.1

> <Gold.Id.Protein>
6NUR|6NUR_protein|mol2

> <Gold.PLP.Fitness>
40.6924

> <Gold.PLP.PLP>
-31.8162

> <Gold.PLP.part.hbond>
-4.9399

> <Gold.PLP.part.metal>
0.0000

> <Gold.PLP.part.buried>
-0.4316

> <Gold.PLP.part.nonpolar>
-27.7559

> <Gold.PLP.part.repulsive>
0.9432

> <Gold.PLP.ligand.clash>
0.0520

> <Gold.PLP.ligand.torsion>
0.6048

> <Gold.PLP.Chemscore.Hbond>
3.3261

> <Gold.PLP.Chemscore.CHOScore>
0.0000

> <Gold.PLP.Chemscore.Metal>
0.0000

> <Gold.Chemscore.Hbonds>
donor molecule, donor type, donor heavy atom, donor atom, acceptor molecule, acceptor atom, score
      L1  H     3    24       P1  7948  0.99
      L1  H    21    49       P1 10952  1.00
      P1  H  8011  8017       L1    14  0.34
      P1  H 10752 10764       L1     9  1.00

> <Gold.PLP.Chemscore.Internal.Correction>
0.1594

> <Gold.Rescore>
     Score         DG    S(hbond)    S(metal)    S(lipo)     H(rot)  DE(clash)    DE(int)     intcor
     17.51     -20.73       2.83        0.00      87.76       1.74       0.88       2.34       ----

> <Gold.Chemscore.Fitness>
17.5058

> <Gold.Chemscore.DG>
-20.7287

> <Gold.Chemscore.ZeroCoef>
-5.4800

> <Gold.Chemscore.Hbond>
2.8264

> <Gold.Chemscore.Metal>
0.0000

> <Gold.Chemscore.Lipo>
87.7623

> <Gold.Chemscore.Internal_Hbond>
0.0000

> <Gold.Chemscore.DEClash>
0.8840

> <Gold.Chemscore.DEInternal>
2.3389

> <Gold.Chemscore.Rot>
1.7421

> <Gold.Chemscore.Internal.Correction>
   9.000000E+99

> <Gold.Chemscore.Hbonds>
donor molecule, donor type, donor heavy atom, donor atom, acceptor molecule, acceptor atom, score
      L1  H     3    24       P1  7948  0.92
      L1  H    21    49       P1 10952  0.78
      P1  H  8011  8017       L1    14  0.23
      P1  H 10752 10764       L1     9  0.90

> <Gold.Chemscore.Hbond.Weighted>
-9.4402

> <Gold.Chemscore.Metal.Weighted>
-0.0000

> <Gold.Chemscore.Lipo.Weighted>
-10.2682

> <Gold.Chemscore.Internal_Hbond.Weighted>
0.0000

> <Gold.Chemscore.DEClash.Weighted>
0.8840

> <Gold.Chemscore.DEInternal.Weighted>
2.3389

> <Gold.Chemscore.Rot.Weighted>
4.4597

> <Gold.Chemscore.Internal.Correction.Weighted>
   9.000000E+99

> <Gold.Protein.RotatedTorsions>
[ 6907 6896 6895 6894 ] final  136.18 input  -60.11 | X-H torsion
[ 7974 7965 7964 7962 ] final -148.75 input  175.53 | X-H torsion
[ 8008 7997 7996 7995 ] final  117.36 input   59.86 | X-H torsion
[ 10167 10162 10161 10158 ] final -176.78 input  -65.29 | X-H torsion
[ 10718 10713 10712 10709 ] final  -72.72 input   66.30 | X-H torsion
[ 10763 10752 10751 10750 ] final  -55.14 input  -60.55 | X-H torsion
[ 11005 11000 10999 10996 ] final -157.59 input  -57.11 | X-H torsion

> <Gold.Protein.ActiveResidues>
 VAL166  LYS551  ARG553  GLY616  TRP617  ASP618  TYR619  PRO620  LYS621  CYS622 
 ASP623  PHE694  ASN695  SER759  ASP760  ASP761  ALA762  ILE779  LEU786  VAL792 
 PHE793  MET794  SER795  GLU796  ALA797  LYS798  CYS799  TRP800  GLU811  SER814 

> <Gold.Protein.RotatedAtoms>
  152.2922  133.5572  159.5564 H   0  0  0  0  0  0  0  0  0  0  0  0  # atno 6907 bound_to 6896
  150.7240  134.0412  159.3775 H   0  0  0  0  0  0  0  0  0  0  0  0  # atno 6908 bound_to 6896
  151.8317  135.0619  160.0488 H   0  0  0  0  0  0  0  0  0  0  0  0  # atno 6909 bound_to 6896
  144.8010  140.5155  143.5707 H   0  0  0  0  0  0  0  0  0  0  0  0  # atno 7974 bound_to 7965
  156.2490  140.2898  156.0666 H   0  0  0  0  0  0  0  0  0  0  0  0  # atno 8008 bound_to 7997
  155.1717  140.0402  157.2881 H   0  0  0  0  0  0  0  0  0  0  0  0  # atno 8009 bound_to 7997
  154.6321  140.2502  155.7428 H   0  0  0  0  0  0  0  0  0  0  0  0  # atno 8010 bound_to 7997
  139.5513  144.2103  152.1081 H   0  0  0  0  0  0  0  0  0  0  0  0  # atno 10167 bound_to 10162
  156.0309  130.4378  150.2635 H   0  0  0  0  0  0  0  0  0  0  0  0  # atno 10718 bound_to 10713
  154.1860  135.6435  153.5047 H   0  0  0  0  0  0  0  0  0  0  0  0  # atno 10763 bound_to 10752
  153.0047  135.5417  154.6464 H   0  0  0  0  0  0  0  0  0  0  0  0  # atno 10764 bound_to 10752
  154.5841  135.2928  155.0675 H   0  0  0  0  0  0  0  0  0  0  0  0  # atno 10765 bound_to 10752
  140.6630  134.4329  157.5234 H   0  0  0  0  0  0  0  0  0  0  0  0  # atno 11005 bound_to 11000
  145.5554  139.1478  143.3371 LP  0  0  0  0  0  0  0  0  0  0  0  0  # atno 17320 bound_to 7965
  146.2291  140.5691  142.8983 LP  0  0  0  0  0  0  0  0  0  0  0  0  # atno 17321 bound_to 7965
  140.1599  144.5035  150.6638 LP  0  0  0  0  0  0  0  0  0  0  0  0  # atno 17342 bound_to 10162
  140.6775  143.2312  151.5468 LP  0  0  0  0  0  0  0  0  0  0  0  0  # atno 17343 bound_to 10162
  157.0737  131.0124  151.3181 LP  0  0  0  0  0  0  0  0  0  0  0  0  # atno 17370 bound_to 10713
  157.4980  130.7862  149.7575 LP  0  0  0  0  0  0  0  0  0  0  0  0  # atno 17371 bound_to 10713
  139.9007  134.8564  156.1910 LP  0  0  0  0  0  0  0  0  0  0  0  0  # atno 17394 bound_to 11000
  141.0451  133.6917  156.1668 LP  0  0  0  0  0  0  0  0  0  0  0  0  # atno 17395 bound_to 11000

$$$$
