AV-unprocessed.smi:82|AV-procd|sdf|797|dock7
  -GOLD-   2262017173D 1   1.00000     0.00000
 Structure written by MMmdl.
 59 62  0  0  0  0  0  0  0  0  2 V2000
  152.3022  144.5608  158.4237 C   0  0  0  0  0  0  0  0  0  0  0  0
  151.1441  143.7649  158.6069 O   0  0  0  0  0  0  0  0  0  0  0  0
  151.0279  142.7404  157.6334 C   0  0  0  0  0  0  0  0  0  0  0  0
  149.6554  142.0645  157.7854 C   0  0  0  0  0  0  0  0  0  0  0  0
  148.8792  142.0483  156.5121 N   0  3  1  0  0  0  0  0  0  0  0  0
  149.4573  141.0797  155.5367 C   0  0  0  0  0  0  0  0  0  0  0  0
  148.7159  141.0925  154.1903 C   0  0  0  0  0  0  0  0  0  0  0  0
  147.2820  140.9275  154.3673 N   0  0  0  0  0  0  0  0  0  0  0  0
  146.8204  139.6577  154.3662 C   0  0  0  0  0  0  0  0  0  0  0  0
  146.6130  139.0062  155.5393 N   0  0  0  0  0  0  0  0  0  0  0  0
  146.1581  137.7497  155.5316 C   0  0  0  0  0  0  0  0  0  0  0  0
  145.8523  136.9800  154.4850 N   0  0  0  0  0  0  0  0  0  0  0  0
  146.0582  137.6341  153.3048 C   0  0  0  0  0  0  0  0  0  0  0  0
  146.5371  138.9661  153.1601 C   0  0  0  0  0  0  0  0  0  0  0  0
  146.6225  139.3019  151.8161 N   0  0  0  0  0  0  0  0  0  0  0  0
  146.2163  138.2268  151.1972 C   0  0  0  0  0  0  0  0  0  0  0  0
  145.8576  137.1751  152.0123 N   0  0  0  0  0  0  0  0  0  0  0  0
  145.3829  135.8889  151.5833 C   0  0  0  0  0  0  0  0  0  0  0  0
  145.1442  134.7517  152.5785 C   0  0  0  0  0  0  0  0  0  0  0  0
  145.5514  133.7277  151.4934 C   0  0  0  0  0  0  0  0  0  0  0  0
  146.4368  132.5787  152.0074 C   0  0  0  0  0  0  0  0  0  0  0  0
  146.7636  131.6614  150.9839 O   0  0  0  0  0  0  0  0  0  0  0  0
  144.3559  133.1411  150.7135 C   0  0  0  0  0  0  0  0  0  0  0  0
  143.8106  134.0632  149.7922 O   0  0  0  0  0  0  0  0  0  0  0  0
  146.2905  134.9148  150.8318 C   0  0  0  0  0  0  0  0  0  0  0  0
  146.6710  141.8339  155.3283 C   0  0  0  0  0  0  0  0  0  0  0  0
  147.4030  141.8573  156.6922 C   0  0  2  0  0  0  0  0  0  0  0  0
  146.7523  142.9525  157.5620 C   0  0  0  0  0  0  0  0  0  0  0  0
  152.3470  145.3259  159.1990 H   0  0  0  0  0  0  0  0  0  0  0  0
  152.2867  145.0638  157.4557 H   0  0  0  0  0  0  0  0  0  0  0  0
  153.2095  143.9590  158.4917 H   0  0  0  0  0  0  0  0  0  0  0  0
  151.1776  143.1403  156.6308 H   0  0  0  0  0  0  0  0  0  0  0  0
  151.8117  141.9990  157.7951 H   0  0  0  0  0  0  0  0  0  0  0  0
  149.7736  141.0448  158.1541 H   0  0  0  0  0  0  0  0  0  0  0  0
  149.1329  142.6043  158.5706 H   0  0  0  0  0  0  0  0  0  0  0  0
  150.5053  141.3036  155.3462 H   0  0  0  0  0  0  0  0  0  0  0  0
  149.4315  140.0781  155.9670 H   0  0  0  0  0  0  0  0  0  0  0  0
  148.8884  142.0420  153.6823 H   0  0  0  0  0  0  0  0  0  0  0  0
  149.1082  140.3141  153.5342 H   0  0  0  0  0  0  0  0  0  0  0  0
  146.0191  137.2956  156.5017 H   0  0  0  0  0  0  0  0  0  0  0  0
  146.1684  138.1732  150.1190 H   0  0  0  0  0  0  0  0  0  0  0  0
  144.4766  136.0710  151.0028 H   0  0  0  0  0  0  0  0  0  0  0  0
  145.8318  134.7770  153.4249 H   0  0  0  0  0  0  0  0  0  0  0  0
  144.1134  134.6681  152.9242 H   0  0  0  0  0  0  0  0  0  0  0  0
  147.3752  132.9638  152.4077 H   0  0  0  0  0  0  0  0  0  0  0  0
  145.9542  132.0411  152.8242 H   0  0  0  0  0  0  0  0  0  0  0  0
  147.7039  131.6319  150.8947 H   0  0  0  0  0  0  0  0  0  0  0  0
  144.6439  132.2380  150.1745 H   0  0  0  0  0  0  0  0  0  0  0  0
  143.5541  132.8443  151.3899 H   0  0  0  0  0  0  0  0  0  0  0  0
  142.8756  134.1018  149.9217 H   0  0  0  0  0  0  0  0  0  0  0  0
  146.2025  134.9669  149.7464 H   0  0  0  0  0  0  0  0  0  0  0  0
  147.3358  134.9827  151.1374 H   0  0  0  0  0  0  0  0  0  0  0  0
  146.6792  142.8319  154.8886 H   0  0  0  0  0  0  0  0  0  0  0  0
  145.6210  141.5703  155.4665 H   0  0  0  0  0  0  0  0  0  0  0  0
  147.2491  140.8972  157.1861 H   0  0  0  0  0  0  0  0  0  0  0  0
  145.6647  142.8860  157.5169 H   0  0  0  0  0  0  0  0  0  0  0  0
  147.0328  143.9499  157.2217 H   0  0  0  0  0  0  0  0  0  0  0  0
  147.0119  142.8650  158.6158 H   0  0  0  0  0  0  0  0  0  0  0  0
  148.9860  142.9668  156.1054 H   0  0  0  0  0  0  0  0  0  0  0  0
  1  2  1  0  0  0  0
  1 29  1  0  0  0  0
  1 30  1  0  0  0  0
  1 31  1  0  0  0  0
  2  3  1  0  0  0  0
  3  4  1  0  0  0  0
  3 32  1  0  0  0  0
  3 33  1  0  0  0  0
  4  5  1  0  0  0  0
  4 34  1  0  0  0  0
  4 35  1  0  0  0  0
  5 27  1  0  0  0  0
  5  6  1  0  0  0  0
  5 59  1  0  0  0  0
  6  7  1  0  0  0  0
  6 36  1  0  0  0  0
  6 37  1  0  0  0  0
  7  8  1  0  0  0  0
  7 38  1  0  0  0  0
  7 39  1  0  0  0  0
  8  9  1  0  0  0  0
  8 26  1  0  0  0  0
  9 14  1  0  0  0  0
  9 10  2  0  0  0  0
 10 11  1  0  0  0  0
 11 12  2  0  0  0  0
 11 40  1  0  0  0  0
 12 13  1  0  0  0  0
 13 17  1  0  0  0  0
 13 14  2  0  0  0  0
 14 15  1  0  0  0  0
 15 16  2  0  0  0  0
 16 17  1  0  0  0  0
 16 41  1  0  0  0  0
 17 18  1  0  0  0  0
 18 25  1  0  0  0  0
 18 19  1  0  0  0  0
 18 42  1  0  0  0  0
 19 20  1  0  0  0  0
 19 43  1  0  0  0  0
 19 44  1  0  0  0  0
 20 21  1  0  0  0  0
 20 23  1  0  0  0  0
 20 25  1  0  0  0  0
 21 22  1  0  0  0  0
 21 45  1  0  0  0  0
 21 46  1  0  0  0  0
 22 47  1  0  0  0  0
 23 24  1  0  0  0  0
 23 48  1  0  0  0  0
 23 49  1  0  0  0  0
 24 50  1  0  0  0  0
 25 51  1  0  0  0  0
 25 52  1  0  0  0  0
 26 27  1  0  0  0  0
 26 53  1  0  0  0  0
 26 54  1  0  0  0  0
 27 28  1  0  0  0  0
 27 55  1  0  0  0  0
 28 56  1  0  0  0  0
 28 57  1  0  0  0  0
 28 58  1  0  0  0  0
M  CHG  1   5   1
M  END
> <s_m_source_file>
AV-unprocessed.smi

> <i_m_source_file_index>
82

> <i_lp_mmshare_version>
43012

> <i_f3d_flags>
0

> <s_epik_input>
W0NIM11PW0NIMl1bQ0gyXU4xW0NIMl1bQ0gyXU4oW0NIMl1bQ0BIXTFbQ0gzXSljKG5bY0hdbjIpYyhjMjMpbltjSF1uM1tDSF0oW0NIMl00KVtDSDJdQzQoW0NIMl1bT0hdKVtDSDJdW09IXQ==

> <s_epik_cmdline>
J2VwaWtfcHl0aG9uJywgJy1waCcsICc3LjAnLCAnLXRuJywgJzgnLCAnLW1hJywgJzIwMCcsICctbWV0YWxfYmluZGluZycsICctaW1hZScsICc8aW5maWxlLm1hZT4nLCAnLW9tYWUnLCAnPG91dGZpbGUubWFlPic=

> <r_lp_tautomer_probability>
1

> <r_epik_Ionization_Penalty>
0.304275

> <r_epik_Ionization_Penalty_Charging>
0.304214

> <r_epik_Ionization_Penalty_Neutral>
6.13137e-05

> <r_epik_State_Penalty>
0.300354

> <r_epik_Charging_Adjusted_Penalty>
0.604567

> <i_epik_Tot_Q>
1

> <i_epik_Tot_abs_Q>
1

> <r_epik_Metal_State_Penalty>
0.301147

> <b_epik_Metal_Only>
0

> <s_lp_Force_Field>
OPLS_2005

> <r_lp_Energy>
60.5055

> <b_lp_Chiralities_Consistent>
1

> <s_lp_Variant>
AV-unprocessed.smi:82-4

> <Gold.Version>
5.8.1

> <Gold.Id.Protein>
6NUR|6NUR_protein|mol2

> <Gold.PLP.Fitness>
50.5517

> <Gold.PLP.PLP>
-39.7541

> <Gold.PLP.part.hbond>
-2.8659

> <Gold.PLP.part.metal>
0.0000

> <Gold.PLP.part.buried>
-2.3642

> <Gold.PLP.part.nonpolar>
-34.9151

> <Gold.PLP.part.repulsive>
0.6874

> <Gold.PLP.ligand.clash>
0.0000

> <Gold.PLP.ligand.torsion>
1.7279

> <Gold.PLP.Chemscore.Hbond>
4.0000

> <Gold.PLP.Chemscore.CHOScore>
0.4662

> <Gold.PLP.Chemscore.Metal>
0.0000

> <Gold.Chemscore.Hbonds>
donor molecule, donor type, donor heavy atom, donor atom, acceptor molecule, acceptor atom, score
      L1  H     5    59       P1  8028  2.00
      L1  H    22    47       P1 10747  0.93
      L1  H    24    50       P1 10186  1.00
      L1  C    16    41       P1 10171  0.41

> <Gold.PLP.Chemscore.Internal.Correction>
0.8548

> <Gold.Rescore>
     Score         DG    S(hbond)    S(metal)    S(lipo)     H(rot)  DE(clash)    DE(int)     intcor
     11.05     -15.88       2.98        0.00      89.38       3.91       1.64       3.19       ----

> <Gold.Chemscore.Fitness>
11.0455

> <Gold.Chemscore.DG>
-15.8782

> <Gold.Chemscore.ZeroCoef>
-5.4800

> <Gold.Chemscore.Hbond>
2.9758

> <Gold.Chemscore.Metal>
0.0000

> <Gold.Chemscore.Lipo>
89.3774

> <Gold.Chemscore.Internal_Hbond>
0.0000

> <Gold.Chemscore.DEClash>
1.6434

> <Gold.Chemscore.DEInternal>
3.1893

> <Gold.Chemscore.Rot>
3.9055

> <Gold.Chemscore.Internal.Correction>
   9.000000E+99

> <Gold.Chemscore.Hbonds>
donor molecule, donor type, donor heavy atom, donor atom, acceptor molecule, acceptor atom, score
      L1  H     5    59       P1  8028  1.00
      L1  H    22    47       P1 10747  0.90
      L1  H    24    50       P1 10186  0.98

> <Gold.Chemscore.Hbond.Weighted>
-9.9390

> <Gold.Chemscore.Metal.Weighted>
-0.0000

> <Gold.Chemscore.Lipo.Weighted>
-10.4572

> <Gold.Chemscore.Internal_Hbond.Weighted>
0.0000

> <Gold.Chemscore.DEClash.Weighted>
1.6434

> <Gold.Chemscore.DEInternal.Weighted>
3.1893

> <Gold.Chemscore.Rot.Weighted>
9.9980

> <Gold.Chemscore.Internal.Correction.Weighted>
   9.000000E+99

> <Gold.Protein.RotatedTorsions>
[ 6907 6896 6895 6894 ] final  136.01 input  -60.11 | X-H torsion
[ 7974 7965 7964 7962 ] final  -90.53 input  175.53 | X-H torsion
[ 8008 7997 7996 7995 ] final    4.21 input   59.86 | X-H torsion
[ 10167 10162 10161 10158 ] final  -29.39 input  -65.29 | X-H torsion
[ 10718 10713 10712 10709 ] final   18.91 input   66.30 | X-H torsion
[ 10763 10752 10751 10750 ] final  141.44 input  -60.55 | X-H torsion
[ 11005 11000 10999 10996 ] final  -43.64 input  -57.11 | X-H torsion

> <Gold.Protein.ActiveResidues>
 VAL166  LYS551  ARG553  GLY616  TRP617  ASP618  TYR619  PRO620  LYS621  CYS622 
 ASP623  PHE694  ASN695  SER759  ASP760  ASP761  ALA762  ILE779  LEU786  VAL792 
 PHE793  MET794  SER795  GLU796  ALA797  LYS798  CYS799  TRP800  GLU811  SER814 

> <Gold.Protein.RotatedAtoms>
  152.2941  133.5590  159.5575 H   0  0  0  0  0  0  0  0  0  0  0  0  # atno 6907 bound_to 6896
  150.7248  134.0386  159.3767 H   0  0  0  0  0  0  0  0  0  0  0  0  # atno 6908 bound_to 6896
  151.8290  135.0628  160.0485 H   0  0  0  0  0  0  0  0  0  0  0  0  # atno 6909 bound_to 6896
  145.4252  140.9553  143.2158 H   0  0  0  0  0  0  0  0  0  0  0  0  # atno 7974 bound_to 7965
  154.7131  140.2696  155.6611 H   0  0  0  0  0  0  0  0  0  0  0  0  # atno 8008 bound_to 7997
  156.2801  140.2749  156.1703 H   0  0  0  0  0  0  0  0  0  0  0  0  # atno 8009 bound_to 7997
  155.0608  140.0371  157.2566 H   0  0  0  0  0  0  0  0  0  0  0  0  # atno 8010 bound_to 7997
  140.7261  143.3932  151.1393 H   0  0  0  0  0  0  0  0  0  0  0  0  # atno 10167 bound_to 10162
  157.1030  130.6476  149.5877 H   0  0  0  0  0  0  0  0  0  0  0  0  # atno 10718 bound_to 10713
  153.9393  135.2981  155.3443 H   0  0  0  0  0  0  0  0  0  0  0  0  # atno 10763 bound_to 10752
  154.7485  135.4991  153.9251 H   0  0  0  0  0  0  0  0  0  0  0  0  # atno 10764 bound_to 10752
  153.1051  135.6744  153.9708 H   0  0  0  0  0  0  0  0  0  0  0  0  # atno 10765 bound_to 10752
  141.0397  133.6785  156.2761 H   0  0  0  0  0  0  0  0  0  0  0  0  # atno 11005 bound_to 11000
  144.8218  139.5778  143.6983 LP  0  0  0  0  0  0  0  0  0  0  0  0  # atno 17320 bound_to 7965
  146.2635  139.6466  142.9345 LP  0  0  0  0  0  0  0  0  0  0  0  0  # atno 17321 bound_to 7965
  139.7541  143.8734  152.3084 LP  0  0  0  0  0  0  0  0  0  0  0  0  # atno 17342 bound_to 10162
  139.8598  144.7123  150.9113 LP  0  0  0  0  0  0  0  0  0  0  0  0  # atno 17343 bound_to 10162
  155.9869  130.4906  150.7100 LP  0  0  0  0  0  0  0  0  0  0  0  0  # atno 17370 bound_to 10713
  157.4625  131.0884  151.0730 LP  0  0  0  0  0  0  0  0  0  0  0  0  # atno 17371 bound_to 10713
  140.6257  134.5316  157.5553 LP  0  0  0  0  0  0  0  0  0  0  0  0  # atno 17394 bound_to 11000
  139.9267  134.8043  156.1049 LP  0  0  0  0  0  0  0  0  0  0  0  0  # atno 17395 bound_to 11000

$$$$
