AV-unprocessed.smi:968|AV-procd|sdf|4289|dock10
  -GOLD-   22720 2193D 1   1.00000     0.00000
 Structure written by MMmdl.
 20 20  0  0  0  0  0  0  0  0  1 V2000
  145.1241  134.6414  154.6834 C   0  0  0  0  0  0  0  0  0  0  0  0
  144.9901  133.4590  153.8463 N   0  0  0  0  0  0  0  0  0  0  0  0
  145.7418  133.2107  152.7644 C   0  0  0  0  0  0  0  0  0  0  0  0
  146.6255  133.9746  152.3720 O   0  0  0  0  0  0  0  0  0  0  0  0
  145.4331  131.9019  152.0258 C   0  0  0  0  0  0  0  0  0  0  0  0
  145.0358  132.1093  150.6429 N   0  0  0  0  0  0  0  0  0  0  0  0
  145.6586  131.7975  149.5036 C   0  0  0  0  0  0  0  0  0  0  0  0
  144.9872  132.1438  148.4135 N   0  0  0  0  0  0  0  0  0  0  0  0
  143.8852  132.7012  148.9960 C   0  0  0  0  0  0  0  0  0  0  0  0
  142.8446  133.2348  148.2177 N   0  0  0  0  0  0  0  0  0  0  0  0
  143.8625  132.7086  150.3282 N   0  0  0  0  0  0  0  0  0  0  0  0
  144.3667  134.6293  155.4670 H   0  0  0  0  0  0  0  0  0  0  0  0
  144.9931  135.5522  154.0976 H   0  0  0  0  0  0  0  0  0  0  0  0
  146.1055  134.6706  155.1583 H   0  0  0  0  0  0  0  0  0  0  0  0
  144.2842  132.7857  154.1071 H   0  0  0  0  0  0  0  0  0  0  0  0
  146.3094  131.2521  152.0524 H   0  0  0  0  0  0  0  0  0  0  0  0
  144.6271  131.3781  152.5410 H   0  0  0  0  0  0  0  0  0  0  0  0
  146.6199  131.3061  149.4719 H   0  0  0  0  0  0  0  0  0  0  0  0
  142.8988  133.2128  147.2098 H   0  0  0  0  0  0  0  0  0  0  0  0
  142.0498  133.6724  148.6605 H   0  0  0  0  0  0  0  0  0  0  0  0
  1  2  1  0  0  0  0
  1 12  1  0  0  0  0
  1 13  1  0  0  0  0
  1 14  1  0  0  0  0
  2  3  1  0  0  0  0
  2 15  1  0  0  0  0
  3  4  2  0  0  0  0
  3  5  1  0  0  0  0
  5  6  1  0  0  0  0
  5 16  1  0  0  0  0
  5 17  1  0  0  0  0
  6 11  1  0  0  0  0
  6  7  1  0  0  0  0
  7  8  2  0  0  0  0
  7 18  1  0  0  0  0
  8  9  1  0  0  0  0
  9 10  1  0  0  0  0
  9 11  2  0  0  0  0
 10 19  1  0  0  0  0
 10 20  1  0  0  0  0
M  END
> <s_m_source_file>
AV-unprocessed.smi

> <i_m_source_file_index>
968

> <i_lp_mmshare_version>
43012

> <i_f3d_flags>
0

> <s_epik_input>
W0NIM11bTkhdQyg9TylbQ0gyXW4xW2NIXW5jKG4xKVtOSDJd

> <s_epik_cmdline>
J2VwaWtfcHl0aG9uJywgJy1waCcsICc3LjAnLCAnLXRuJywgJzgnLCAnLW1hJywgJzIwMCcsICctbWV0YWxfYmluZGluZycsICctaW1hZScsICc8aW5maWxlLm1hZT4nLCAnLW9tYWUnLCAnPG91dGZpbGUubWFlPic=

> <r_lp_tautomer_probability>
1

> <r_epik_Ionization_Penalty>
0.000377128

> <r_epik_Ionization_Penalty_Charging>
0

> <r_epik_Ionization_Penalty_Neutral>
0.000377128

> <r_epik_State_Penalty>
-0

> <r_epik_Charging_Adjusted_Penalty>
0

> <i_epik_Tot_Q>
0

> <i_epik_Tot_abs_Q>
0

> <r_epik_Metal_State_Penalty>
-0

> <b_epik_Metal_Only>
0

> <s_lp_Force_Field>
OPLS_2005

> <r_lp_Energy>
2.7463

> <b_lp_Chiralities_Consistent>
1

> <s_lp_Variant>
AV-unprocessed.smi:968-1

> <Gold.Version>
5.8.1

> <Gold.Id.Protein>
6NUR|6NUR_protein|mol2

> <Gold.PLP.Fitness>
32.1874

> <Gold.PLP.PLP>
-20.8171

> <Gold.PLP.part.hbond>
-4.5951

> <Gold.PLP.part.metal>
0.0000

> <Gold.PLP.part.buried>
-5.0723

> <Gold.PLP.part.nonpolar>
-11.9946

> <Gold.PLP.part.repulsive>
1.6221

> <Gold.PLP.ligand.clash>
0.0000

> <Gold.PLP.ligand.torsion>
0.0629

> <Gold.PLP.Chemscore.Hbond>
2.8320

> <Gold.PLP.Chemscore.CHOScore>
1.0000

> <Gold.PLP.Chemscore.Metal>
0.0000

> <Gold.Chemscore.Hbonds>
donor molecule, donor type, donor heavy atom, donor atom, acceptor molecule, acceptor atom, score
      L1  H     2    15       P1 10957  1.00
      L1  H    10    19       P1 10195  0.86
      L1  H    10    20       P1 10186  1.00
      L1  C     7    18       P1 10747  1.00

> <Gold.PLP.Chemscore.Internal.Correction>
0.0000

> <Gold.Rescore>
     Score         DG    S(hbond)    S(metal)    S(lipo)     H(rot)  DE(clash)    DE(int)     intcor
     11.10     -11.18       2.71        0.00       7.51       1.65       0.00       0.08       ----

> <Gold.Chemscore.Fitness>
11.1043

> <Gold.Chemscore.DG>
-11.1838

> <Gold.Chemscore.ZeroCoef>
-5.4800

> <Gold.Chemscore.Hbond>
2.7118

> <Gold.Chemscore.Metal>
0.0000

> <Gold.Chemscore.Lipo>
7.5140

> <Gold.Chemscore.Internal_Hbond>
0.0000

> <Gold.Chemscore.DEClash>
0.0000

> <Gold.Chemscore.DEInternal>
0.0795

> <Gold.Chemscore.Rot>
1.6534

> <Gold.Chemscore.Internal.Correction>
   9.000000E+99

> <Gold.Chemscore.Hbonds>
donor molecule, donor type, donor heavy atom, donor atom, acceptor molecule, acceptor atom, score
      L1  H     2    15       P1 10957  0.86
      L1  H    10    19       P1 10195  0.82
      L1  H    10    20       P1 10186  0.94

> <Gold.Chemscore.Hbond.Weighted>
-9.0574

> <Gold.Chemscore.Metal.Weighted>
-0.0000

> <Gold.Chemscore.Lipo.Weighted>
-0.8791

> <Gold.Chemscore.Internal_Hbond.Weighted>
0.0000

> <Gold.Chemscore.DEClash.Weighted>
0.0000

> <Gold.Chemscore.DEInternal.Weighted>
0.0795

> <Gold.Chemscore.Rot.Weighted>
4.2327

> <Gold.Chemscore.Internal.Correction.Weighted>
   9.000000E+99

> <Gold.Protein.RotatedTorsions>
[ 6907 6896 6895 6894 ] final  -32.79 input  -60.11 | X-H torsion
[ 7974 7965 7964 7962 ] final -114.71 input  175.53 | X-H torsion
[ 8008 7997 7996 7995 ] final   68.17 input   59.86 | X-H torsion
[ 10167 10162 10161 10158 ] final  -63.57 input  -65.29 | X-H torsion
[ 10718 10713 10712 10709 ] final    0.67 input   66.30 | X-H torsion
[ 10763 10752 10751 10750 ] final   79.44 input  -60.55 | X-H torsion
[ 11005 11000 10999 10996 ] final   -0.13 input  -57.11 | X-H torsion

> <Gold.Protein.ActiveResidues>
 VAL166  LYS551  ARG553  GLY616  TRP617  ASP618  TYR619  PRO620  LYS621  CYS622 
 ASP623  PHE694  ASN695  SER759  ASP760  ASP761  ALA762  ILE779  LEU786  VAL792 
 PHE793  MET794  SER795  GLU796  ALA797  LYS798  CYS799  TRP800  GLU811  SER814 

> <Gold.Protein.RotatedAtoms>
  151.0741  134.9817  159.8323 H   0  0  0  0  0  0  0  0  0  0  0  0  # atno 6907 bound_to 6896
  152.5412  134.2262  159.8817 H   0  0  0  0  0  0  0  0  0  0  0  0  # atno 6908 bound_to 6896
  151.2288  133.4418  159.2636 H   0  0  0  0  0  0  0  0  0  0  0  0  # atno 6909 bound_to 6896
  145.1170  140.8646  143.3836 H   0  0  0  0  0  0  0  0  0  0  0  0  # atno 7974 bound_to 7965
  155.7041  140.3495  155.4945 H   0  0  0  0  0  0  0  0  0  0  0  0  # atno 8008 bound_to 7997
  155.9414  140.1102  157.1074 H   0  0  0  0  0  0  0  0  0  0  0  0  # atno 8009 bound_to 7997
  154.4103  140.1212  156.4918 H   0  0  0  0  0  0  0  0  0  0  0  0  # atno 8010 bound_to 7997
  140.5862  143.2334  151.6238 H   0  0  0  0  0  0  0  0  0  0  0  0  # atno 10167 bound_to 10162
  156.8368  130.5507  149.5681 H   0  0  0  0  0  0  0  0  0  0  0  0  # atno 10718 bound_to 10713
  153.0953  135.4840  154.8766 H   0  0  0  0  0  0  0  0  0  0  0  0  # atno 10763 bound_to 10752
  154.7317  135.3061  154.8883 H   0  0  0  0  0  0  0  0  0  0  0  0  # atno 10764 bound_to 10752
  153.9517  135.6822  153.4797 H   0  0  0  0  0  0  0  0  0  0  0  0  # atno 10765 bound_to 10752
  140.6329  133.9559  155.8284 H   0  0  0  0  0  0  0  0  0  0  0  0  # atno 11005 bound_to 11000
  145.0783  139.2979  143.5796 LP  0  0  0  0  0  0  0  0  0  0  0  0  # atno 17320 bound_to 7965
  146.3523  140.0281  142.8653 LP  0  0  0  0  0  0  0  0  0  0  0  0  # atno 17321 bound_to 7965
  139.5199  144.3240  152.0885 LP  0  0  0  0  0  0  0  0  0  0  0  0  # atno 17342 bound_to 10162
  140.2397  144.4282  150.6265 LP  0  0  0  0  0  0  0  0  0  0  0  0  # atno 17343 bound_to 10162
  156.0903  130.5890  150.9721 LP  0  0  0  0  0  0  0  0  0  0  0  0  # atno 17370 bound_to 10713
  157.6377  131.0914  150.8315 LP  0  0  0  0  0  0  0  0  0  0  0  0  # atno 17371 bound_to 10713
  141.0662  134.0273  157.3590 LP  0  0  0  0  0  0  0  0  0  0  0  0  # atno 17394 bound_to 11000
  139.9109  135.0190  156.7687 LP  0  0  0  0  0  0  0  0  0  0  0  0  # atno 17395 bound_to 11000

$$$$
