AV-unprocessed.smi:1867|AV-procd|sdf|7564|dock2
  -GOLD-   22720 9283D 1   1.00000     0.00000
 Structure written by MMmdl.
 52 55  0  0  0  0  0  0  0  0  2 V2000
  145.5218  138.1628  153.7340 O   0  0  0  0  0  0  0  0  0  0  0  0
  146.4241  137.5874  153.1307 C   0  0  0  0  0  0  0  0  0  0  0  0
  147.7400  137.7828  153.3445 N   0  0  0  0  0  0  0  0  0  0  0  0
  148.3728  138.6231  154.2992 C   0  0  0  0  0  0  0  0  0  0  0  0
  147.8697  138.8847  155.5950 C   0  0  0  0  0  0  0  0  0  0  0  0
  148.6040  139.7242  156.4546 C   0  0  0  0  0  0  0  0  0  0  0  0
  149.8280  140.2739  156.0046 C   0  0  0  0  0  0  0  0  0  0  0  0
  150.5891  141.1233  156.8319 N   0  0  0  0  0  0  0  0  0  0  0  0
  150.2709  141.3100  158.2390 C   0  0  0  0  0  0  0  0  0  0  0  0
  151.2382  142.3934  158.7131 C   0  0  0  0  0  0  0  0  0  0  0  0
  151.4188  143.2642  157.4700 C   0  0  0  0  0  0  0  0  0  0  0  0
  151.2977  142.2797  156.3007 C   0  0  0  0  0  0  0  0  0  0  0  0
  150.3105  140.0156  154.7658 N   0  0  0  0  0  0  0  0  0  0  0  0
  149.6039  139.2103  153.9463 C   0  0  0  0  0  0  0  0  0  0  0  0
  146.1507  136.6974  152.1596 N   0  0  0  0  0  0  0  0  0  0  0  0
  144.8388  136.2572  151.6788 C   0  0  2  0  0  0  0  0  0  0  0  0
  143.9273  135.7681  152.7974 C   0  0  0  0  0  0  0  0  0  0  0  0
  142.8716  134.9464  152.0512 C   0  0  0  0  0  0  0  0  0  0  0  0
  143.5138  134.4492  150.8096 N   0  3  2  0  0  0  0  0  0  0  0  0
  143.4630  132.9707  150.6537 C   0  0  0  0  0  0  0  0  0  0  0  0
  144.4586  132.4967  149.5850 C   0  0  0  0  0  0  0  0  0  0  0  0
  145.9094  132.8385  149.9740 C   0  0  0  0  0  0  0  0  0  0  0  0
  145.9933  134.0199  150.9593 C   0  0  0  0  0  0  0  0  0  0  0  0
  144.8714  135.0577  150.7100 C   0  0  2  0  0  0  0  0  0  0  0  0
  148.3653  137.3061  152.7117 H   0  0  0  0  0  0  0  0  0  0  0  0
  146.9478  138.4537  155.9526 H   0  0  0  0  0  0  0  0  0  0  0  0
  148.2180  139.9356  157.4407 H   0  0  0  0  0  0  0  0  0  0  0  0
  149.2381  141.6468  158.3373 H   0  0  0  0  0  0  0  0  0  0  0  0
  150.3899  140.3866  158.8066 H   0  0  0  0  0  0  0  0  0  0  0  0
  150.8649  142.9485  159.5739 H   0  0  0  0  0  0  0  0  0  0  0  0
  152.1926  141.9425  158.9884 H   0  0  0  0  0  0  0  0  0  0  0  0
  150.6097  143.9939  157.4180 H   0  0  0  0  0  0  0  0  0  0  0  0
  152.3625  143.8100  157.4671 H   0  0  0  0  0  0  0  0  0  0  0  0
  152.2834  141.9621  155.9585 H   0  0  0  0  0  0  0  0  0  0  0  0
  150.7724  142.7362  155.4611 H   0  0  0  0  0  0  0  0  0  0  0  0
  150.0367  139.0329  152.9725 H   0  0  0  0  0  0  0  0  0  0  0  0
  146.9482  136.2869  151.6950 H   0  0  0  0  0  0  0  0  0  0  0  0
  144.3331  137.0940  151.1921 H   0  0  0  0  0  0  0  0  0  0  0  0
  144.4801  135.1232  153.4825 H   0  0  0  0  0  0  0  0  0  0  0  0
  143.4934  136.5821  153.3791 H   0  0  0  0  0  0  0  0  0  0  0  0
  142.4676  134.1490  152.6766 H   0  0  0  0  0  0  0  0  0  0  0  0
  142.0365  135.5854  151.7623 H   0  0  0  0  0  0  0  0  0  0  0  0
  143.6969  132.4832  151.6019 H   0  0  0  0  0  0  0  0  0  0  0  0
  142.4467  132.6762  150.3903 H   0  0  0  0  0  0  0  0  0  0  0  0
  144.3604  131.4234  149.4191 H   0  0  0  0  0  0  0  0  0  0  0  0
  144.2128  132.9749  148.6356 H   0  0  0  0  0  0  0  0  0  0  0  0
  146.3918  131.9692  150.4226 H   0  0  0  0  0  0  0  0  0  0  0  0
  146.4751  133.0652  149.0695 H   0  0  0  0  0  0  0  0  0  0  0  0
  145.9163  133.6444  151.9808 H   0  0  0  0  0  0  0  0  0  0  0  0
  146.9798  134.4771  150.8789 H   0  0  0  0  0  0  0  0  0  0  0  0
  144.9947  135.4318  149.6925 H   0  0  0  0  0  0  0  0  0  0  0  0
  142.9826  134.8369  150.0431 H   0  0  0  0  0  0  0  0  0  0  0  0
  1  2  2  0  0  0  0
  2  3  1  0  0  0  0
  2 15  1  0  0  0  0
  3  4  1  0  0  0  0
  3 25  1  0  0  0  0
  4 14  1  0  0  0  0
  4  5  2  0  0  0  0
  5  6  1  0  0  0  0
  5 26  1  0  0  0  0
  6  7  2  0  0  0  0
  6 27  1  0  0  0  0
  7  8  1  0  0  0  0
  7 13  1  0  0  0  0
  8 12  1  0  0  0  0
  8  9  1  0  0  0  0
  9 10  1  0  0  0  0
  9 28  1  0  0  0  0
  9 29  1  0  0  0  0
 10 11  1  0  0  0  0
 10 30  1  0  0  0  0
 10 31  1  0  0  0  0
 11 12  1  0  0  0  0
 11 32  1  0  0  0  0
 11 33  1  0  0  0  0
 12 34  1  0  0  0  0
 12 35  1  0  0  0  0
 13 14  2  0  0  0  0
 14 36  1  0  0  0  0
 15 16  1  0  0  0  0
 15 37  1  0  0  0  0
 16 24  1  0  0  0  0
 16 17  1  0  0  0  0
 16 38  1  0  0  0  0
 17 18  1  0  0  0  0
 17 39  1  0  0  0  0
 17 40  1  0  0  0  0
 18 19  1  0  0  0  0
 18 41  1  0  0  0  0
 18 42  1  0  0  0  0
 19 24  1  0  0  0  0
 19 20  1  0  0  0  0
 19 52  1  0  0  0  0
 20 21  1  0  0  0  0
 20 43  1  0  0  0  0
 20 44  1  0  0  0  0
 21 22  1  0  0  0  0
 21 45  1  0  0  0  0
 21 46  1  0  0  0  0
 22 23  1  0  0  0  0
 22 47  1  0  0  0  0
 22 48  1  0  0  0  0
 23 24  1  0  0  0  0
 23 49  1  0  0  0  0
 23 50  1  0  0  0  0
 24 51  1  0  0  0  0
M  CHG  1  19   1
M  END
> <s_m_source_file>
AV-unprocessed.smi

> <i_m_source_file_index>
1867

> <i_lp_mmshare_version>
43012

> <i_f3d_flags>
0

> <s_epik_input>
W0NIMl0xW0NIMl1bQ0gyXVtDSDJdW0NASF0oTjEyKVtDQEBIXShbQ0gyXVtDSDJdMilbTkhdQyg9TylbTkhdYzNbY0hdW2NIXWMobltjSF0zKU40W0NIMl1bQ0gyXVtDSDJdW0NIMl00

> <s_epik_cmdline>
J2VwaWtfcHl0aG9uJywgJy1waCcsICc3LjAnLCAnLXRuJywgJzgnLCAnLW1hJywgJzIwMCcsICctbWV0YWxfYmluZGluZycsICctaW1hZScsICc8aW5maWxlLm1hZT4nLCAnLW9tYWUnLCAnPG91dGZpbGUubWFlPic=

> <r_lp_tautomer_probability>
1

> <r_epik_Ionization_Penalty>
0.0751123

> <r_epik_Ionization_Penalty_Charging>
0.000974069

> <r_epik_Ionization_Penalty_Neutral>
0.0741382

> <r_epik_State_Penalty>
0.0647261

> <r_epik_Charging_Adjusted_Penalty>
0.0657002

> <i_epik_Tot_Q>
1

> <i_epik_Tot_abs_Q>
1

> <r_epik_Metal_State_Penalty>
0.0580571

> <b_epik_Metal_Only>
0

> <s_lp_Force_Field>
OPLS_2005

> <r_lp_Energy>
76.8202

> <b_lp_Chiralities_Consistent>
1

> <s_lp_Variant>
AV-unprocessed.smi:1867-5

> <Gold.Version>
5.8.1

> <Gold.Id.Protein>
6NUR|6NUR_protein|mol2

> <Gold.PLP.Fitness>
52.4199

> <Gold.PLP.PLP>
-37.3078

> <Gold.PLP.part.hbond>
-4.0000

> <Gold.PLP.part.metal>
0.0000

> <Gold.PLP.part.buried>
-5.4703

> <Gold.PLP.part.nonpolar>
-28.7084

> <Gold.PLP.part.repulsive>
0.2515

> <Gold.PLP.ligand.clash>
0.0000

> <Gold.PLP.ligand.torsion>
0.5937

> <Gold.PLP.Chemscore.Hbond>
4.3709

> <Gold.PLP.Chemscore.CHOScore>
1.0000

> <Gold.PLP.Chemscore.Metal>
0.0000

> <Gold.Chemscore.Hbonds>
donor molecule, donor type, donor heavy atom, donor atom, acceptor molecule, acceptor atom, score
      L1  H     3    25       P1  7948  0.88
      L1  H    15    37       P1  7948  0.82
      L1  H    19    52       P1 10186  1.02
      P1  H  7989  7998       L1    13  1.00
      L1  C    14    36       P1  7957  0.98

> <Gold.PLP.Chemscore.Internal.Correction>
0.1867

> <Gold.Rescore>
     Score         DG    S(hbond)    S(metal)    S(lipo)     H(rot)  DE(clash)    DE(int)     intcor
     21.14     -22.79       2.47        0.00      99.27       1.00       0.24       1.41       ----

> <Gold.Chemscore.Fitness>
21.1374

> <Gold.Chemscore.DG>
-22.7911

> <Gold.Chemscore.ZeroCoef>
-5.4800

> <Gold.Chemscore.Hbond>
2.4719

> <Gold.Chemscore.Metal>
0.0000

> <Gold.Chemscore.Lipo>
99.2730

> <Gold.Chemscore.Internal_Hbond>
0.0000

> <Gold.Chemscore.DEClash>
0.2417

> <Gold.Chemscore.DEInternal>
1.4120

> <Gold.Chemscore.Rot>
1.0000

> <Gold.Chemscore.Internal.Correction>
   9.000000E+99

> <Gold.Chemscore.Hbonds>
donor molecule, donor type, donor heavy atom, donor atom, acceptor molecule, acceptor atom, score
      L1  H     3    25       P1  7948  0.85
      L1  H    15    37       P1  7948  0.79
      L1  H    19    52       P1 10186  0.27
      P1  H  7989  7998       L1    13  0.33

> <Gold.Chemscore.Hbond.Weighted>
-8.2562

> <Gold.Chemscore.Metal.Weighted>
-0.0000

> <Gold.Chemscore.Lipo.Weighted>
-11.6149

> <Gold.Chemscore.Internal_Hbond.Weighted>
0.0000

> <Gold.Chemscore.DEClash.Weighted>
0.2417

> <Gold.Chemscore.DEInternal.Weighted>
1.4120

> <Gold.Chemscore.Rot.Weighted>
2.5600

> <Gold.Chemscore.Internal.Correction.Weighted>
   9.000000E+99

> <Gold.Protein.RotatedTorsions>
[ 6907 6896 6895 6894 ] final  117.67 input  -60.11 | X-H torsion
[ 7974 7965 7964 7962 ] final   58.99 input  175.53 | X-H torsion
[ 8008 7997 7996 7995 ] final -109.62 input   59.86 | X-H torsion
[ 10167 10162 10161 10158 ] final   68.93 input  -65.29 | X-H torsion
[ 10718 10713 10712 10709 ] final   60.04 input   66.30 | X-H torsion
[ 10763 10752 10751 10750 ] final   90.24 input  -60.55 | X-H torsion
[ 11005 11000 10999 10996 ] final   14.43 input  -57.11 | X-H torsion

> <Gold.Protein.ActiveResidues>
 VAL166  LYS551  ARG553  GLY616  TRP617  ASP618  TYR619  PRO620  LYS621  CYS622 
 ASP623  PHE694  ASN695  SER759  ASP760  ASP761  ALA762  ILE779  LEU786  VAL792 
 PHE793  MET794  SER795  GLU796  ALA797  LYS798  CYS799  TRP800  GLU811  SER814 

> <Gold.Protein.RotatedAtoms>
  152.4596  133.7794  159.6841 H   0  0  0  0  0  0  0  0  0  0  0  0  # atno 6907 bound_to 6896
  150.8535  133.7741  159.3023 H   0  0  0  0  0  0  0  0  0  0  0  0  # atno 6908 bound_to 6896
  151.5329  135.1071  159.9959 H   0  0  0  0  0  0  0  0  0  0  0  0  # atno 6909 bound_to 6896
  145.9121  139.3662  143.0529 H   0  0  0  0  0  0  0  0  0  0  0  0  # atno 7974 bound_to 7965
  154.9621  140.0399  157.2195 H   0  0  0  0  0  0  0  0  0  0  0  0  # atno 8008 bound_to 7997
  154.7879  140.2830  155.5991 H   0  0  0  0  0  0  0  0  0  0  0  0  # atno 8009 bound_to 7997
  156.2945  140.2579  156.2720 H   0  0  0  0  0  0  0  0  0  0  0  0  # atno 8010 bound_to 7997
  140.0733  144.5134  150.7212 H   0  0  0  0  0  0  0  0  0  0  0  0  # atno 10167 bound_to 10162
  157.5722  130.8916  149.9287 H   0  0  0  0  0  0  0  0  0  0  0  0  # atno 10718 bound_to 10713
  153.1954  135.4441  155.0201 H   0  0  0  0  0  0  0  0  0  0  0  0  # atno 10763 bound_to 10752
  154.8116  135.3297  154.7293 H   0  0  0  0  0  0  0  0  0  0  0  0  # atno 10764 bound_to 10752
  153.7743  135.6982  153.4956 H   0  0  0  0  0  0  0  0  0  0  0  0  # atno 10765 bound_to 10752
  140.4696  134.1044  155.7730 H   0  0  0  0  0  0  0  0  0  0  0  0  # atno 11005 bound_to 11000
  145.8658  140.9449  143.0676 LP  0  0  0  0  0  0  0  0  0  0  0  0  # atno 17320 bound_to 7965
  144.6744  140.0590  143.7476 LP  0  0  0  0  0  0  0  0  0  0  0  0  # atno 17321 bound_to 7965
  140.7115  143.2509  151.4567 LP  0  0  0  0  0  0  0  0  0  0  0  0  # atno 17342 bound_to 10162
  139.5823  144.1682  152.1984 LP  0  0  0  0  0  0  0  0  0  0  0  0  # atno 17343 bound_to 10162
  156.0768  130.3678  150.0662 LP  0  0  0  0  0  0  0  0  0  0  0  0  # atno 17370 bound_to 10713
  156.8813  130.9557  151.3599 LP  0  0  0  0  0  0  0  0  0  0  0  0  # atno 17371 bound_to 10713
  141.1583  133.8841  157.1917 LP  0  0  0  0  0  0  0  0  0  0  0  0  # atno 17394 bound_to 11000
  139.9893  135.0070  156.9938 LP  0  0  0  0  0  0  0  0  0  0  0  0  # atno 17395 bound_to 11000

$$$$
