AV-unprocessed.smi:1453|AV-procd|sdf|5912|dock3
  -GOLD-   22720 5593D 1   1.00000     0.00000
 Structure written by MMmdl.
 43 44  0  0  0  0  0  0  0  0  1 V2000
  148.4826  135.0172  154.8844 C   0  0  0  0  0  0  0  0  0  0  0  0
  149.8328  134.7852  155.5817 C   0  0  1  0  0  0  0  0  0  0  0  0
  150.7902  135.9664  155.3729 C   0  0  0  0  0  0  0  0  0  0  0  0
  151.7393  136.1447  156.1367 O   0  0  0  0  0  0  0  0  0  0  0  0
  150.5256  136.7744  154.3337 N   0  0  0  0  0  0  0  0  0  0  0  0
  151.3109  137.9491  153.9687 C   0  0  0  0  0  0  0  0  0  0  0  0
  151.4410  138.9885  155.0734 C   0  0  0  0  0  0  0  0  0  0  0  0
  150.4881  140.0188  155.1906 C   0  0  0  0  0  0  0  0  0  0  0  0
  150.6215  140.9617  156.2276 C   0  0  0  0  0  0  0  0  0  0  0  0
  151.7058  140.8480  157.1299 C   0  0  0  0  0  0  0  0  0  0  0  0
  151.8576  141.7800  158.1799 N   0  0  0  0  0  0  0  0  0  0  0  0
  152.9389  141.5010  159.1218 C   0  0  0  0  0  0  0  0  0  0  0  0
  152.8102  142.3956  160.3667 C   0  0  0  0  0  0  0  0  0  0  0  0
  152.7583  143.7632  159.9750 O   0  0  0  0  0  0  0  0  0  0  0  0
  151.6302  144.0342  159.1499 C   0  0  0  0  0  0  0  0  0  0  0  0
  151.7186  143.1999  157.8609 C   0  0  0  0  0  0  0  0  0  0  0  0
  152.6226  139.8555  157.0132 N   0  0  0  0  0  0  0  0  0  0  0  0
  152.4895  138.9542  156.0176 C   0  0  0  0  0  0  0  0  0  0  0  0
  149.5664  134.4935  157.3937 S   0  0  0  0  0  0  0  0  0  0  0  0
  147.7372  134.6253  157.5718 C   0  0  0  0  0  0  0  0  0  0  0  0
  149.9572  133.1133  157.7194 O   0  0  0  0  0  0  0  0  0  0  0  0
  150.1804  135.6089  158.1300 O   0  0  0  0  0  0  0  0  0  0  0  0
  148.6145  135.2269  153.8223 H   0  0  0  0  0  0  0  0  0  0  0  0
  147.9412  135.8543  155.3270 H   0  0  0  0  0  0  0  0  0  0  0  0
  147.8472  134.1353  154.9673 H   0  0  0  0  0  0  0  0  0  0  0  0
  150.2831  133.8800  155.1729 H   0  0  0  0  0  0  0  0  0  0  0  0
  149.7255  136.5631  153.7551 H   0  0  0  0  0  0  0  0  0  0  0  0
  152.3024  137.6394  153.6335 H   0  0  0  0  0  0  0  0  0  0  0  0
  150.8314  138.4225  153.1118 H   0  0  0  0  0  0  0  0  0  0  0  0
  149.6659  140.0911  154.4938 H   0  0  0  0  0  0  0  0  0  0  0  0
  149.9030  141.7634  156.3091 H   0  0  0  0  0  0  0  0  0  0  0  0
  152.9433  140.4583  159.4355 H   0  0  0  0  0  0  0  0  0  0  0  0
  153.8928  141.6873  158.6267 H   0  0  0  0  0  0  0  0  0  0  0  0
  151.9193  142.1365  160.9411 H   0  0  0  0  0  0  0  0  0  0  0  0
  153.6665  142.2473  161.0246 H   0  0  0  0  0  0  0  0  0  0  0  0
  150.7083  143.8163  159.6918 H   0  0  0  0  0  0  0  0  0  0  0  0
  151.6137  145.0970  158.9087 H   0  0  0  0  0  0  0  0  0  0  0  0
  152.5739  143.5226  157.2657 H   0  0  0  0  0  0  0  0  0  0  0  0
  150.8223  143.3659  157.2622 H   0  0  0  0  0  0  0  0  0  0  0  0
  153.2444  138.1827  155.9830 H   0  0  0  0  0  0  0  0  0  0  0  0
  147.4738  134.5545  158.6269 H   0  0  0  0  0  0  0  0  0  0  0  0
  147.2513  133.8148  157.0295 H   0  0  0  0  0  0  0  0  0  0  0  0
  147.3991  135.5842  157.1803 H   0  0  0  0  0  0  0  0  0  0  0  0
  1  2  1  0  0  0  0
  1 23  1  0  0  0  0
  1 24  1  0  0  0  0
  1 25  1  0  0  0  0
  2  3  1  0  0  0  0
  2 19  1  0  0  0  0
  2 26  1  0  0  0  0
  3  4  2  0  0  0  0
  3  5  1  0  0  0  0
  5  6  1  0  0  0  0
  5 27  1  0  0  0  0
  6  7  1  0  0  0  0
  6 28  1  0  0  0  0
  6 29  1  0  0  0  0
  7 18  1  0  0  0  0
  7  8  2  0  0  0  0
  8  9  1  0  0  0  0
  8 30  1  0  0  0  0
  9 10  2  0  0  0  0
  9 31  1  0  0  0  0
 10 11  1  0  0  0  0
 10 17  1  0  0  0  0
 11 16  1  0  0  0  0
 11 12  1  0  0  0  0
 12 13  1  0  0  0  0
 12 32  1  0  0  0  0
 12 33  1  0  0  0  0
 13 14  1  0  0  0  0
 13 34  1  0  0  0  0
 13 35  1  0  0  0  0
 14 15  1  0  0  0  0
 15 16  1  0  0  0  0
 15 36  1  0  0  0  0
 15 37  1  0  0  0  0
 16 38  1  0  0  0  0
 16 39  1  0  0  0  0
 17 18  2  0  0  0  0
 18 40  1  0  0  0  0
 19 20  1  0  0  0  0
 19 21  2  0  0  0  0
 19 22  2  0  0  0  0
 20 41  1  0  0  0  0
 20 42  1  0  0  0  0
 20 43  1  0  0  0  0
M  END
> <s_m_source_file>
AV-unprocessed.smi

> <i_m_source_file_index>
1453

> <i_lp_mmshare_version>
43012

> <i_f3d_flags>
0

> <s_epik_input>
W0NIM11TKD1PKSg9TylbQ0BIXShbQ0gzXSlDKD1PKVtOSF1bQ0gyXWMxW2NIXVtjSF1jKG5bY0hdMSlOMltDSDJdW0NIMl1PW0NIMl1bQ0gyXTI=

> <s_epik_cmdline>
J2VwaWtfcHl0aG9uJywgJy1waCcsICc3LjAnLCAnLXRuJywgJzgnLCAnLW1hJywgJzIwMCcsICctbWV0YWxfYmluZGluZycsICctaW1hZScsICc8aW5maWxlLm1hZT4nLCAnLW9tYWUnLCAnPG91dGZpbGUubWFlPic=

> <r_lp_tautomer_probability>
1

> <r_epik_Ionization_Penalty>
0.00349781

> <r_epik_Ionization_Penalty_Charging>
0

> <r_epik_Ionization_Penalty_Neutral>
0.00349781

> <r_epik_State_Penalty>
0.00248024

> <r_epik_Charging_Adjusted_Penalty>
0.00248024

> <i_epik_Tot_Q>
0

> <i_epik_Tot_abs_Q>
0

> <r_epik_Metal_State_Penalty>
-0

> <b_epik_Metal_Only>
0

> <s_lp_Force_Field>
OPLS_2005

> <r_lp_Energy>
14.4852

> <b_lp_Chiralities_Consistent>
1

> <s_lp_Variant>
AV-unprocessed.smi:1453-2

> <Gold.Version>
5.8.1

> <Gold.Id.Protein>
6NUR|6NUR_protein|mol2

> <Gold.PLP.Fitness>
48.3030

> <Gold.PLP.PLP>
-37.6990

> <Gold.PLP.part.hbond>
-5.9749

> <Gold.PLP.part.metal>
0.0000

> <Gold.PLP.part.buried>
-3.5409

> <Gold.PLP.part.nonpolar>
-29.1545

> <Gold.PLP.part.repulsive>
0.0910

> <Gold.PLP.ligand.clash>
0.0000

> <Gold.PLP.ligand.torsion>
1.2541

> <Gold.PLP.Chemscore.Hbond>
4.2032

> <Gold.PLP.Chemscore.CHOScore>
0.0000

> <Gold.PLP.Chemscore.Metal>
0.0000

> <Gold.Chemscore.Hbonds>
donor molecule, donor type, donor heavy atom, donor atom, acceptor molecule, acceptor atom, score
      L1  H     5    27       P1  7948  0.92
      P1  H  6896  6908       L1    21  0.99
      P1  H  6896  6909       L1    22  0.46
      P1  H  7997  8009       L1    17  0.79
      P1  H 10752 10763       L1     4  1.00

> <Gold.PLP.Chemscore.Internal.Correction>
0.5027

> <Gold.Rescore>
     Score         DG    S(hbond)    S(metal)    S(lipo)     H(rot)  DE(clash)    DE(int)     intcor
     16.20     -19.91       2.79        0.00      89.05       2.08       0.09       3.62       ----

> <Gold.Chemscore.Fitness>
16.2008

> <Gold.Chemscore.DG>
-19.9066

> <Gold.Chemscore.ZeroCoef>
-5.4800

> <Gold.Chemscore.Hbond>
2.7914

> <Gold.Chemscore.Metal>
0.0000

> <Gold.Chemscore.Lipo>
89.0485

> <Gold.Chemscore.Internal_Hbond>
0.0000

> <Gold.Chemscore.DEClash>
0.0868

> <Gold.Chemscore.DEInternal>
3.6190

> <Gold.Chemscore.Rot>
2.0764

> <Gold.Chemscore.Internal.Correction>
   9.000000E+99

> <Gold.Chemscore.Hbonds>
donor molecule, donor type, donor heavy atom, donor atom, acceptor molecule, acceptor atom, score
      L1  H     5    27       P1  7948  0.46
      P1  H  6896  6908       L1    21  0.24
      P1  H  6896  6909       L1    22  0.38
      P1  H  7997  8009       L1    17  0.13
      P1  H 10752 10763       L1     4  0.44

> <Gold.Chemscore.Hbond.Weighted>
-9.3234

> <Gold.Chemscore.Metal.Weighted>
-0.0000

> <Gold.Chemscore.Lipo.Weighted>
-10.4187

> <Gold.Chemscore.Internal_Hbond.Weighted>
0.0000

> <Gold.Chemscore.DEClash.Weighted>
0.0868

> <Gold.Chemscore.DEInternal.Weighted>
3.6190

> <Gold.Chemscore.Rot.Weighted>
5.3155

> <Gold.Chemscore.Internal.Correction.Weighted>
   9.000000E+99

> <Gold.Protein.RotatedTorsions>
[ 6907 6896 6895 6894 ] final   90.15 input  -60.11 | X-H torsion
[ 7974 7965 7964 7962 ] final  -93.67 input  175.53 | X-H torsion
[ 8008 7997 7996 7995 ] final  162.07 input   59.86 | X-H torsion
[ 10167 10162 10161 10158 ] final   56.01 input  -65.29 | X-H torsion
[ 10718 10713 10712 10709 ] final   23.21 input   66.30 | X-H torsion
[ 10763 10752 10751 10750 ] final   99.81 input  -60.55 | X-H torsion
[ 11005 11000 10999 10996 ] final   -0.93 input  -57.11 | X-H torsion

> <Gold.Protein.ActiveResidues>
 VAL166  LYS551  ARG553  GLY616  TRP617  ASP618  TYR619  PRO620  LYS621  CYS622 
 ASP623  PHE694  ASN695  SER759  ASP760  ASP761  ALA762  ILE779  LEU786  VAL792 
 PHE793  MET794  SER795  GLU796  ALA797  LYS798  CYS799  TRP800  GLU811  SER814 

> <Gold.Protein.RotatedAtoms>
  152.5442  134.1856  159.8652 H   0  0  0  0  0  0  0  0  0  0  0  0  # atno 6907 bound_to 6896
  151.1855  133.4692  159.2602 H   0  0  0  0  0  0  0  0  0  0  0  0  # atno 6908 bound_to 6896
  151.1135  135.0052  159.8560 H   0  0  0  0  0  0  0  0  0  0  0  0  # atno 6909 bound_to 6896
  145.3834  140.9520  143.2381 H   0  0  0  0  0  0  0  0  0  0  0  0  # atno 7974 bound_to 7965
  156.2058  140.1760  156.7803 H   0  0  0  0  0  0  0  0  0  0  0  0  # atno 8008 bound_to 7997
  154.5653  140.0692  156.8912 H   0  0  0  0  0  0  0  0  0  0  0  0  # atno 8009 bound_to 7997
  155.2773  140.3346  155.4263 H   0  0  0  0  0  0  0  0  0  0  0  0  # atno 8010 bound_to 7997
  140.2133  144.3866  150.6480 H   0  0  0  0  0  0  0  0  0  0  0  0  # atno 10167 bound_to 10162
  157.1630  130.6725  149.6051 H   0  0  0  0  0  0  0  0  0  0  0  0  # atno 10718 bound_to 10713
  153.3061  135.4100  155.1295 H   0  0  0  0  0  0  0  0  0  0  0  0  # atno 10763 bound_to 10752
  154.8563  135.3553  154.5786 H   0  0  0  0  0  0  0  0  0  0  0  0  # atno 10764 bound_to 10752
  153.6213  135.7064  153.5368 H   0  0  0  0  0  0  0  0  0  0  0  0  # atno 10765 bound_to 10752
  140.6417  133.9483  155.8330 H   0  0  0  0  0  0  0  0  0  0  0  0  # atno 11005 bound_to 11000
  144.8491  139.5350  143.6864 LP  0  0  0  0  0  0  0  0  0  0  0  0  # atno 17320 bound_to 7965
  146.2831  139.6931  142.9214 LP  0  0  0  0  0  0  0  0  0  0  0  0  # atno 17321 bound_to 7965
  140.6308  143.2187  151.6500 LP  0  0  0  0  0  0  0  0  0  0  0  0  # atno 17342 bound_to 10162
  139.5171  144.3324  152.0814 LP  0  0  0  0  0  0  0  0  0  0  0  0  # atno 17343 bound_to 10162
  155.9750  130.4705  150.6432 LP  0  0  0  0  0  0  0  0  0  0  0  0  # atno 17370 bound_to 10713
  157.4114  131.0824  151.1217 LP  0  0  0  0  0  0  0  0  0  0  0  0  # atno 17371 bound_to 10713
  141.0602  134.0358  157.3669 LP  0  0  0  0  0  0  0  0  0  0  0  0  # atno 17394 bound_to 11000
  139.9078  135.0183  156.7560 LP  0  0  0  0  0  0  0  0  0  0  0  0  # atno 17395 bound_to 11000

$$$$
