AV-unprocessed.smi:630|AV-procd|sdf|3121|dock7
  -GOLD-   22720 0 43D 1   1.00000     0.00000
 Structure written by MMmdl.
 36 37  0  0  0  0  0  0  0  0  2 V2000
  144.8768  136.2090  149.8806 N   0  0  0  0  0  0  0  0  0  0  0  0
  145.0921  135.7005  151.0969 C   0  0  0  0  0  0  0  0  0  0  0  0
  144.7103  136.2693  152.1184 O   0  0  0  0  0  0  0  0  0  0  0  0
  145.8402  134.3554  151.1780 C   0  0  2  0  0  0  0  0  0  0  0  0
  145.0463  133.2849  150.3892 C   0  0  0  0  0  0  0  0  0  0  0  0
  145.8903  132.0557  150.0142 C   0  0  0  0  0  0  0  0  0  0  0  0
  145.9174  130.9379  151.0694 C   0  0  0  0  0  0  0  0  0  0  0  0
  145.9412  131.3943  152.5376 C   0  0  0  0  0  0  0  0  0  0  0  0
  146.8423  132.6038  152.8344 C   0  0  0  0  0  0  0  0  0  0  0  0
  146.1351  133.9660  152.6552 C   0  0  1  0  0  0  0  0  0  0  0  0
  146.9773  134.9931  153.2784 N   0  0  0  0  0  0  0  0  0  0  0  0
  146.7069  135.6983  154.3872 C   0  0  0  0  0  0  0  0  0  0  0  0
  145.6590  135.5040  155.0070 O   0  0  0  0  0  0  0  0  0  0  0  0
  147.6707  136.5922  154.7061 N   0  5  0  0  0  0  0  0  0  0  0  0
  147.5998  137.8494  154.2391 C   0  0  0  0  0  0  0  0  0  0  0  0
  146.6611  138.2579  153.3773 N   0  0  0  0  0  0  0  0  0  0  0  0
  146.7762  139.6051  153.0292 C   0  0  0  0  0  0  0  0  0  0  0  0
  147.8200  140.2396  153.6488 C   0  0  0  0  0  0  0  0  0  0  0  0
  148.6959  139.1572  154.6933 S   0  0  0  0  0  0  0  0  0  0  0  0
  144.4178  137.1030  149.7864 H   0  0  0  0  0  0  0  0  0  0  0  0
  145.2007  135.7134  149.0629 H   0  0  0  0  0  0  0  0  0  0  0  0
  146.7974  134.4931  150.6714 H   0  0  0  0  0  0  0  0  0  0  0  0
  144.1458  132.9845  150.9274 H   0  0  0  0  0  0  0  0  0  0  0  0
  144.6936  133.7281  149.4561 H   0  0  0  0  0  0  0  0  0  0  0  0
  145.5058  131.6301  149.0867 H   0  0  0  0  0  0  0  0  0  0  0  0
  146.9093  132.3679  149.7831 H   0  0  0  0  0  0  0  0  0  0  0  0
  145.0487  130.2934  150.9301 H   0  0  0  0  0  0  0  0  0  0  0  0
  146.7848  130.3062  150.8747 H   0  0  0  0  0  0  0  0  0  0  0  0
  144.9261  131.6048  152.8759 H   0  0  0  0  0  0  0  0  0  0  0  0
  146.2732  130.5501  153.1431 H   0  0  0  0  0  0  0  0  0  0  0  0
  147.1548  132.5220  153.8767 H   0  0  0  0  0  0  0  0  0  0  0  0
  147.7607  132.5580  152.2478 H   0  0  0  0  0  0  0  0  0  0  0  0
  145.1801  133.9126  153.1811 H   0  0  0  0  0  0  0  0  0  0  0  0
  147.8527  135.1936  152.8178 H   0  0  0  0  0  0  0  0  0  0  0  0
  146.0697  140.0308  152.3322 H   0  0  0  0  0  0  0  0  0  0  0  0
  148.1257  141.2707  153.5560 H   0  0  0  0  0  0  0  0  0  0  0  0
  1  2  1  0  0  0  0
  1 20  1  0  0  0  0
  1 21  1  0  0  0  0
  2  3  2  0  0  0  0
  2  4  1  0  0  0  0
  4 10  1  0  0  0  0
  4  5  1  0  0  0  0
  4 22  1  0  0  0  0
  5  6  1  0  0  0  0
  5 23  1  0  0  0  0
  5 24  1  0  0  0  0
  6  7  1  0  0  0  0
  6 25  1  0  0  0  0
  6 26  1  0  0  0  0
  7  8  1  0  0  0  0
  7 27  1  0  0  0  0
  7 28  1  0  0  0  0
  8  9  1  0  0  0  0
  8 29  1  0  0  0  0
  8 30  1  0  0  0  0
  9 10  1  0  0  0  0
  9 31  1  0  0  0  0
  9 32  1  0  0  0  0
 10 11  1  0  0  0  0
 10 33  1  0  0  0  0
 11 12  1  0  0  0  0
 11 34  1  0  0  0  0
 12 13  2  0  0  0  0
 12 14  1  0  0  0  0
 14 15  1  0  0  0  0
 15 19  1  0  0  0  0
 15 16  2  0  0  0  0
 16 17  1  0  0  0  0
 17 18  2  0  0  0  0
 17 35  1  0  0  0  0
 18 19  1  0  0  0  0
 18 36  1  0  0  0  0
M  CHG  1  14  -1
M  END
> <s_m_source_file>
AV-unprocessed.smi

> <i_m_source_file_index>
630

> <i_lp_mmshare_version>
43012

> <i_f3d_flags>
0

> <s_epik_input>
W05IMl1DKD1PKVtDQEBIXTFbQ0gyXVtDSDJdW0NIMl1bQ0gyXVtDSDJdW0NASF0xW05IXUMoPU8pW05IXWMybltjSF1bY0hdczI=

> <s_epik_cmdline>
J2VwaWtfcHl0aG9uJywgJy1waCcsICc3LjAnLCAnLXRuJywgJzgnLCAnLW1hJywgJzIwMCcsICctbWV0YWxfYmluZGluZycsICctaW1hZScsICc8aW5maWxlLm1hZT4nLCAnLW9tYWUnLCAnPG91dGZpbGUubWFlPic=

> <r_lp_tautomer_probability>
0.999

> <r_epik_Ionization_Penalty>
8.29606

> <r_epik_Ionization_Penalty_Charging>
6.67551

> <r_epik_Ionization_Penalty_Neutral>
1.62055

> <r_epik_State_Penalty>
6.67568

> <r_epik_Charging_Adjusted_Penalty>
13.3512

> <i_epik_Tot_Q>
-1

> <i_epik_Tot_abs_Q>
1

> <r_epik_Metal_State_Penalty>
2.59802

> <b_epik_Metal_Only>
1

> <s_lp_Force_Field>
OPLS_2005

> <r_lp_Energy>
8.76486

> <b_lp_Chiralities_Consistent>
1

> <s_lp_Variant>
AV-unprocessed.smi:630-5

> <Gold.Version>
5.8.1

> <Gold.Id.Protein>
6NUR|6NUR_protein|mol2

> <Gold.PLP.Fitness>
37.3550

> <Gold.PLP.PLP>
-26.9511

> <Gold.PLP.part.hbond>
-3.0000

> <Gold.PLP.part.metal>
0.0000

> <Gold.PLP.part.buried>
-2.7384

> <Gold.PLP.part.nonpolar>
-22.6864

> <Gold.PLP.part.repulsive>
0.6673

> <Gold.PLP.ligand.clash>
0.0000

> <Gold.PLP.ligand.torsion>
0.8307

> <Gold.PLP.Chemscore.Hbond>
3.0000

> <Gold.PLP.Chemscore.CHOScore>
1.0000

> <Gold.PLP.Chemscore.Metal>
0.0000

> <Gold.Chemscore.Hbonds>
donor molecule, donor type, donor heavy atom, donor atom, acceptor molecule, acceptor atom, score
      L1  H     1    20       P1 10171  1.00
      L1  H     1    21       P1  7921  1.00
      L1  H    11    34       P1  7948  1.00
      L1  C    17    35       P1 10175  1.00

> <Gold.PLP.Chemscore.Internal.Correction>
0.0652

> <Gold.Rescore>
     Score         DG    S(hbond)    S(metal)    S(lipo)     H(rot)  DE(clash)    DE(int)     intcor
     18.28     -19.24       2.99        0.00      65.24       1.50       0.07       0.89       ----

> <Gold.Chemscore.Fitness>
18.2761

> <Gold.Chemscore.DG>
-19.2364

> <Gold.Chemscore.ZeroCoef>
-5.4800

> <Gold.Chemscore.Hbond>
2.9862

> <Gold.Chemscore.Metal>
0.0000

> <Gold.Chemscore.Lipo>
65.2444

> <Gold.Chemscore.Internal_Hbond>
0.0000

> <Gold.Chemscore.DEClash>
0.0749

> <Gold.Chemscore.DEInternal>
0.8855

> <Gold.Chemscore.Rot>
1.5044

> <Gold.Chemscore.Internal.Correction>
   9.000000E+99

> <Gold.Chemscore.Hbonds>
donor molecule, donor type, donor heavy atom, donor atom, acceptor molecule, acceptor atom, score
      L1  H     1    20       P1 10171  0.96
      L1  H     1    21       P1  7921  1.00
      L1  H    11    34       P1  7948  0.97

> <Gold.Chemscore.Hbond.Weighted>
-9.9740

> <Gold.Chemscore.Metal.Weighted>
-0.0000

> <Gold.Chemscore.Lipo.Weighted>
-7.6336

> <Gold.Chemscore.Internal_Hbond.Weighted>
0.0000

> <Gold.Chemscore.DEClash.Weighted>
0.0749

> <Gold.Chemscore.DEInternal.Weighted>
0.8855

> <Gold.Chemscore.Rot.Weighted>
3.8512

> <Gold.Chemscore.Internal.Correction.Weighted>
   9.000000E+99

> <Gold.Protein.RotatedTorsions>
[ 6907 6896 6895 6894 ] final  144.70 input  -60.11 | X-H torsion
[ 7974 7965 7964 7962 ] final -141.70 input  175.53 | X-H torsion
[ 8008 7997 7996 7995 ] final   15.69 input   59.86 | X-H torsion
[ 10167 10162 10161 10158 ] final  171.35 input  -65.29 | X-H torsion
[ 10718 10713 10712 10709 ] final   71.52 input   66.30 | X-H torsion
[ 10763 10752 10751 10750 ] final  129.32 input  -60.55 | X-H torsion
[ 11005 11000 10999 10996 ] final  -25.34 input  -57.11 | X-H torsion

> <Gold.Protein.ActiveResidues>
 VAL166  LYS551  ARG553  GLY616  TRP617  ASP618  TYR619  PRO620  LYS621  CYS622 
 ASP623  PHE694  ASN695  SER759  ASP760  ASP761  ALA762  ILE779  LEU786  VAL792 
 PHE793  MET794  SER795  GLU796  ALA797  LYS798  CYS799  TRP800  GLU811  SER814 

> <Gold.Protein.RotatedAtoms>
  152.1903  133.4768  159.5003 H   0  0  0  0  0  0  0  0  0  0  0  0  # atno 6907 bound_to 6896
  150.6950  134.1721  159.4225 H   0  0  0  0  0  0  0  0  0  0  0  0  # atno 6908 bound_to 6896
  151.9636  135.0111  160.0599 H   0  0  0  0  0  0  0  0  0  0  0  0  # atno 6909 bound_to 6896
  144.8499  140.6048  143.5396 H   0  0  0  0  0  0  0  0  0  0  0  0  # atno 7974 bound_to 7965
  154.8663  140.2952  155.5508 H   0  0  0  0  0  0  0  0  0  0  0  0  # atno 8008 bound_to 7997
  156.3021  140.2468  156.3578 H   0  0  0  0  0  0  0  0  0  0  0  0  # atno 8009 bound_to 7997
  154.8865  140.0396  157.1802 H   0  0  0  0  0  0  0  0  0  0  0  0  # atno 8010 bound_to 7997
  139.5044  144.3495  151.9937 H   0  0  0  0  0  0  0  0  0  0  0  0  # atno 10167 bound_to 10162
  157.6455  130.9532  150.0800 H   0  0  0  0  0  0  0  0  0  0  0  0  # atno 10718 bound_to 10713
  153.7399  135.3226  155.3302 H   0  0  0  0  0  0  0  0  0  0  0  0  # atno 10763 bound_to 10752
  154.8298  135.4542  154.1037 H   0  0  0  0  0  0  0  0  0  0  0  0  # atno 10764 bound_to 10752
  153.2209  135.6948  153.8083 H   0  0  0  0  0  0  0  0  0  0  0  0  # atno 10765 bound_to 10752
  140.8928  133.7576  156.0443 H   0  0  0  0  0  0  0  0  0  0  0  0  # atno 11005 bound_to 11000
  145.4520  139.1522  143.3913 LP  0  0  0  0  0  0  0  0  0  0  0  0  # atno 17320 bound_to 7965
  146.2776  140.4646  142.8789 LP  0  0  0  0  0  0  0  0  0  0  0  0  # atno 17321 bound_to 7965
  140.2932  144.3730  150.6082 LP  0  0  0  0  0  0  0  0  0  0  0  0  # atno 17342 bound_to 10162
  140.5930  143.2167  151.7217 LP  0  0  0  0  0  0  0  0  0  0  0  0  # atno 17343 bound_to 10162
  156.1779  130.3649  149.9075 LP  0  0  0  0  0  0  0  0  0  0  0  0  # atno 17370 bound_to 10713
  156.7034  130.8942  151.3602 LP  0  0  0  0  0  0  0  0  0  0  0  0  # atno 17371 bound_to 10713
  140.8325  134.3161  157.5343 LP  0  0  0  0  0  0  0  0  0  0  0  0  # atno 17394 bound_to 11000
  139.8732  134.9371  156.3679 LP  0  0  0  0  0  0  0  0  0  0  0  0  # atno 17395 bound_to 11000

$$$$
