AV-unprocessed.smi:3094|AV-procd|sdf|11788|dock5
  -GOLD-   2272017163D 1   1.00000     0.00000
 Structure written by MMmdl.
 30 31  0  0  0  0  0  0  0  0  2 V2000
  151.1685  140.2576  156.1243 C   0  0  0  0  0  0  0  0  0  0  0  0
  149.9857  141.2282  156.0060 C   0  0  2  0  0  0  0  0  0  0  0  0
  149.5017  141.3432  154.5442 C   0  0  0  0  0  0  0  0  0  0  0  0
  148.0419  141.4292  154.4306 N   0  0  0  0  0  0  0  0  0  0  0  0
  147.2060  142.2786  155.1089 C   0  0  0  0  0  0  0  0  0  0  0  0
  145.9351  142.0090  154.6711 C   0  0  0  0  0  0  0  0  0  0  0  0
  146.0480  141.0034  153.7488 N   0  3  0  0  0  0  0  0  0  0  0  0
  147.3293  140.6488  153.6074 C   0  0  0  0  0  0  0  0  0  0  0  0
  150.3909  142.5311  156.5330 N   0  0  0  0  0  0  0  0  0  0  0  0
  151.0460  142.7450  157.6853 C   0  0  0  0  0  0  0  0  0  0  0  0
  151.3695  141.8378  158.4536 O   0  0  0  0  0  0  0  0  0  0  0  0
  151.3309  144.1846  157.9609 C   0  0  0  0  0  0  0  0  0  0  0  0
  152.7814  144.6078  158.0748 C   0  0  0  0  0  0  0  0  0  0  0  0
  151.9217  144.5333  159.3116 C   0  0  0  0  0  0  0  0  0  0  0  0
  150.8957  139.2617  155.7742 H   0  0  0  0  0  0  0  0  0  0  0  0
  151.4962  140.1619  157.1602 H   0  0  0  0  0  0  0  0  0  0  0  0
  152.0217  140.5947  155.5343 H   0  0  0  0  0  0  0  0  0  0  0  0
  149.1763  140.8217  156.6153 H   0  0  0  0  0  0  0  0  0  0  0  0
  149.9449  142.2106  154.0522 H   0  0  0  0  0  0  0  0  0  0  0  0
  149.8118  140.4661  153.9746 H   0  0  0  0  0  0  0  0  0  0  0  0
  147.5695  142.9983  155.8282 H   0  0  0  0  0  0  0  0  0  0  0  0
  144.9843  142.4467  154.9388 H   0  0  0  0  0  0  0  0  0  0  0  0
  147.7131  139.8899  152.9489 H   0  0  0  0  0  0  0  0  0  0  0  0
  150.1679  143.3365  155.9658 H   0  0  0  0  0  0  0  0  0  0  0  0
  150.6410  144.9090  157.5300 H   0  0  0  0  0  0  0  0  0  0  0  0
  153.5562  143.8518  157.9581 H   0  0  0  0  0  0  0  0  0  0  0  0
  153.0401  145.5925  157.6909 H   0  0  0  0  0  0  0  0  0  0  0  0
  151.5973  145.4677  159.7648 H   0  0  0  0  0  0  0  0  0  0  0  0
  152.1244  143.7273  160.0146 H   0  0  0  0  0  0  0  0  0  0  0  0
  145.2753  140.5878  153.2438 H   0  0  0  0  0  0  0  0  0  0  0  0
  1  2  1  0  0  0  0
  1 15  1  0  0  0  0
  1 16  1  0  0  0  0
  1 17  1  0  0  0  0
  2  3  1  0  0  0  0
  2  9  1  0  0  0  0
  2 18  1  0  0  0  0
  3  4  1  0  0  0  0
  3 19  1  0  0  0  0
  3 20  1  0  0  0  0
  4  8  1  0  0  0  0
  4  5  1  0  0  0  0
  5  6  2  0  0  0  0
  5 21  1  0  0  0  0
  6  7  1  0  0  0  0
  6 22  1  0  0  0  0
  7  8  2  0  0  0  0
  7 30  1  0  0  0  0
  8 23  1  0  0  0  0
  9 10  1  0  0  0  0
  9 24  1  0  0  0  0
 10 11  2  0  0  0  0
 10 12  1  0  0  0  0
 12 14  1  0  0  0  0
 12 13  1  0  0  0  0
 12 25  1  0  0  0  0
 13 14  1  0  0  0  0
 13 26  1  0  0  0  0
 13 27  1  0  0  0  0
 14 28  1  0  0  0  0
 14 29  1  0  0  0  0
M  CHG  1   7   1
M  END
> <s_m_source_file>
AV-unprocessed.smi

> <i_m_source_file_index>
3094

> <i_lp_mmshare_version>
43012

> <i_f3d_flags>
0

> <s_epik_input>
W0NIMl0xW0NIMl1bQ0hdMUMoPU8pW05IXVtDQEhdKFtDSDNdKVtDSDJdbjJbY0hdW2NIXW5bY0hdMg==

> <s_epik_cmdline>
J2VwaWtfcHl0aG9uJywgJy1waCcsICc3LjAnLCAnLXRuJywgJzgnLCAnLW1hJywgJzIwMCcsICctbWV0YWxfYmluZGluZycsICctaW1hZScsICc8aW5maWxlLm1hZT4nLCAnLW9tYWUnLCAnPG91dGZpbGUubWFlPic=

> <r_lp_tautomer_probability>
1

> <r_epik_Ionization_Penalty>
0.244425

> <r_epik_Ionization_Penalty_Charging>
0

> <r_epik_Ionization_Penalty_Neutral>
0.244425

> <r_epik_State_Penalty>
0.23553

> <r_epik_Charging_Adjusted_Penalty>
0.23553

> <i_epik_Tot_Q>
1

> <i_epik_Tot_abs_Q>
1

> <r_epik_Metal_State_Penalty>
0.528799

> <b_epik_Metal_Only>
0

> <s_lp_Force_Field>
OPLS_2005

> <r_lp_Energy>
8.8376

> <b_lp_Chiralities_Consistent>
1

> <s_lp_Variant>
AV-unprocessed.smi:3094-1

> <Gold.Version>
5.8.1

> <Gold.Id.Protein>
6NUR|6NUR_protein|mol2

> <Gold.PLP.Fitness>
48.1885

> <Gold.PLP.PLP>
-34.6991

> <Gold.PLP.part.hbond>
-2.0000

> <Gold.PLP.part.metal>
0.0000

> <Gold.PLP.part.buried>
-1.0384

> <Gold.PLP.part.nonpolar>
-31.7850

> <Gold.PLP.part.repulsive>
0.0874

> <Gold.PLP.ligand.clash>
0.0000

> <Gold.PLP.ligand.torsion>
0.7983

> <Gold.PLP.Chemscore.Hbond>
3.0000

> <Gold.PLP.Chemscore.CHOScore>
2.0000

> <Gold.PLP.Chemscore.Metal>
0.0000

> <Gold.Chemscore.Hbonds>
donor molecule, donor type, donor heavy atom, donor atom, acceptor molecule, acceptor atom, score
      L1  H     7    30       P1 10175  2.00
      L1  H     9    24       P1  8028  0.91
      L1  C     5    21       P1  8028  0.97
      L1  C     8    23       P1  7957  0.83

> <Gold.PLP.Chemscore.Internal.Correction>
0.0861

> <Gold.Rescore>
     Score         DG    S(hbond)    S(metal)    S(lipo)     H(rot)  DE(clash)    DE(int)     intcor
     12.96     -14.91       1.80        0.00      70.87       1.90       0.07       1.88       ----

> <Gold.Chemscore.Fitness>
12.9628

> <Gold.Chemscore.DG>
-14.9097

> <Gold.Chemscore.ZeroCoef>
-5.4800

> <Gold.Chemscore.Hbond>
1.7985

> <Gold.Chemscore.Metal>
0.0000

> <Gold.Chemscore.Lipo>
70.8677

> <Gold.Chemscore.Internal_Hbond>
0.0000

> <Gold.Chemscore.DEClash>
0.0675

> <Gold.Chemscore.DEInternal>
1.8794

> <Gold.Chemscore.Rot>
1.9019

> <Gold.Chemscore.Internal.Correction>
   9.000000E+99

> <Gold.Chemscore.Hbonds>
donor molecule, donor type, donor heavy atom, donor atom, acceptor molecule, acceptor atom, score
      L1  H     7    30       P1 10175  0.92
      L1  H     9    24       P1  8028  0.88

> <Gold.Chemscore.Hbond.Weighted>
-6.0071

> <Gold.Chemscore.Metal.Weighted>
-0.0000

> <Gold.Chemscore.Lipo.Weighted>
-8.2915

> <Gold.Chemscore.Internal_Hbond.Weighted>
0.0000

> <Gold.Chemscore.DEClash.Weighted>
0.0675

> <Gold.Chemscore.DEInternal.Weighted>
1.8794

> <Gold.Chemscore.Rot.Weighted>
4.8689

> <Gold.Chemscore.Internal.Correction.Weighted>
   9.000000E+99

> <Gold.Protein.RotatedTorsions>
[ 6907 6896 6895 6894 ] final  148.64 input  -60.11 | X-H torsion
[ 7974 7965 7964 7962 ] final -126.74 input  175.53 | X-H torsion
[ 8008 7997 7996 7995 ] final   63.98 input   59.86 | X-H torsion
[ 10167 10162 10161 10158 ] final   14.22 input  -65.29 | X-H torsion
[ 10718 10713 10712 10709 ] final  -83.91 input   66.30 | X-H torsion
[ 10763 10752 10751 10750 ] final   65.95 input  -60.55 | X-H torsion
[ 11005 11000 10999 10996 ] final  -32.31 input  -57.11 | X-H torsion

> <Gold.Protein.ActiveResidues>
 VAL166  LYS551  ARG553  GLY616  TRP617  ASP618  TYR619  PRO620  LYS621  CYS622 
 ASP623  PHE694  ASN695  SER759  ASP760  ASP761  ALA762  ILE779  LEU786  VAL792 
 PHE793  MET794  SER795  GLU796  ALA797  LYS798  CYS799  TRP800  GLU811  SER814 

> <Gold.Protein.RotatedAtoms>
  152.1387  133.4451  159.4756 H   0  0  0  0  0  0  0  0  0  0  0  0  # atno 6907 bound_to 6896
  150.6884  134.2331  159.4451 H   0  0  0  0  0  0  0  0  0  0  0  0  # atno 6908 bound_to 6896
  152.0220  134.9816  160.0621 H   0  0  0  0  0  0  0  0  0  0  0  0  # atno 6909 bound_to 6896
  144.9842  140.7670  143.4594 H   0  0  0  0  0  0  0  0  0  0  0  0  # atno 7974 bound_to 7965
  155.6387  140.3496  155.4707 H   0  0  0  0  0  0  0  0  0  0  0  0  # atno 8008 bound_to 7997
  155.9943  140.1200  157.0631 H   0  0  0  0  0  0  0  0  0  0  0  0  # atno 8009 bound_to 7997
  154.4229  140.1113  156.5595 H   0  0  0  0  0  0  0  0  0  0  0  0  # atno 8010 bound_to 7997
  140.5950  143.8720  150.6909 H   0  0  0  0  0  0  0  0  0  0  0  0  # atno 10167 bound_to 10162
  156.0012  130.4680  150.4329 H   0  0  0  0  0  0  0  0  0  0  0  0  # atno 10718 bound_to 10713
  153.0118  135.5338  154.6747 H   0  0  0  0  0  0  0  0  0  0  0  0  # atno 10763 bound_to 10752
  154.5922  135.2860  155.0625 H   0  0  0  0  0  0  0  0  0  0  0  0  # atno 10764 bound_to 10752
  154.1714  135.6531  153.5063 H   0  0  0  0  0  0  0  0  0  0  0  0  # atno 10765 bound_to 10752
  140.9541  133.7203  156.1266 H   0  0  0  0  0  0  0  0  0  0  0  0  # atno 11005 bound_to 11000
  145.2378  139.2086  143.5009 LP  0  0  0  0  0  0  0  0  0  0  0  0  # atno 17320 bound_to 7965
  146.3416  140.2267  142.8592 LP  0  0  0  0  0  0  0  0  0  0  0  0  # atno 17321 bound_to 7965
  140.2252  143.3778  152.1611 LP  0  0  0  0  0  0  0  0  0  0  0  0  # atno 17342 bound_to 10162
  139.5252  144.7093  151.5256 LP  0  0  0  0  0  0  0  0  0  0  0  0  # atno 17343 bound_to 10162
  157.2376  131.0518  151.2455 LP  0  0  0  0  0  0  0  0  0  0  0  0  # atno 17370 bound_to 10713
  157.3651  130.7152  149.6527 LP  0  0  0  0  0  0  0  0  0  0  0  0  # atno 17371 bound_to 10713
  140.7560  134.3992  157.5533 LP  0  0  0  0  0  0  0  0  0  0  0  0  # atno 17394 bound_to 11000
  139.8857  134.8931  156.2629 LP  0  0  0  0  0  0  0  0  0  0  0  0  # atno 17395 bound_to 11000

$$$$
