AV-unprocessed.smi:3185|AV-procd|sdf|12166|dock6
  -GOLD-   2272018 03D 1   1.00000     0.00000
 Structure written by MMmdl.
 38 39  0  0  0  0  0  0  0  0  2 V2000
  152.2414  145.2111  158.9301 N   0  0  0  0  0  0  0  0  0  0  0  0
  151.9168  144.1013  158.9448 C   0  0  0  0  0  0  0  0  0  0  0  0
  151.5035  142.6902  158.9624 C   0  0  0  0  0  0  0  0  0  0  0  0
  150.4361  142.3759  157.9082 C   0  0  0  0  0  0  0  0  0  0  0  0
  151.0179  142.3164  156.4908 C   0  0  0  0  0  0  0  0  0  0  0  0
  149.9400  142.2983  155.4801 N   0  3  0  0  0  0  0  0  0  0  0  0
  148.8162  141.3715  155.7538 C   0  0  1  0  0  0  0  0  0  0  0  0
  147.8714  141.2196  154.5348 C   0  0  0  0  0  0  0  0  0  0  0  0
  146.7522  140.1999  154.7999 C   0  0  0  0  0  0  0  0  0  0  0  0
  147.3128  138.8460  155.2578 C   0  0  0  0  0  0  0  0  0  0  0  0
  148.1876  139.0129  156.5103 C   0  0  0  0  0  0  0  0  0  0  0  0
  149.3449  140.0105  156.2952 C   0  0  1  0  0  0  0  0  0  0  0  0
  150.4330  139.4058  155.5226 N   0  0  0  0  0  0  0  0  0  0  0  0
  151.7816  139.4440  155.8166 C   0  0  0  0  0  0  0  0  0  0  0  0
  152.4372  138.7237  154.8599 C   0  0  0  0  0  0  0  0  0  0  0  0
  151.3925  138.2561  154.0171 C   0  0  0  0  0  0  0  0  0  0  0  0
  150.1988  138.6589  154.4193 N   0  0  0  0  0  0  0  0  0  0  0  0
  152.3926  142.0802  158.7999 H   0  0  0  0  0  0  0  0  0  0  0  0
  151.1326  142.4642  159.9625 H   0  0  0  0  0  0  0  0  0  0  0  0
  149.9610  141.4239  158.1493 H   0  0  0  0  0  0  0  0  0  0  0  0
  149.6523  143.1337  157.9522 H   0  0  0  0  0  0  0  0  0  0  0  0
  151.6616  143.1802  156.3195 H   0  0  0  0  0  0  0  0  0  0  0  0
  151.6367  141.4249  156.3902 H   0  0  0  0  0  0  0  0  0  0  0  0
  149.5671  143.2315  155.3734 H   0  0  0  0  0  0  0  0  0  0  0  0
  148.2296  141.8133  156.5610 H   0  0  0  0  0  0  0  0  0  0  0  0
  147.4104  142.1770  154.2933 H   0  0  0  0  0  0  0  0  0  0  0  0
  148.4251  140.9282  153.6435 H   0  0  0  0  0  0  0  0  0  0  0  0
  146.0784  140.5898  155.5638 H   0  0  0  0  0  0  0  0  0  0  0  0
  146.1516  140.0675  153.8994 H   0  0  0  0  0  0  0  0  0  0  0  0
  146.4912  138.1616  155.4713 H   0  0  0  0  0  0  0  0  0  0  0  0
  147.8888  138.3894  154.4525 H   0  0  0  0  0  0  0  0  0  0  0  0
  147.5619  139.3642  157.3319 H   0  0  0  0  0  0  0  0  0  0  0  0
  148.5772  138.0439  156.8244 H   0  0  0  0  0  0  0  0  0  0  0  0
  149.7703  140.2127  157.2796 H   0  0  0  0  0  0  0  0  0  0  0  0
  152.1614  139.9767  156.6762 H   0  0  0  0  0  0  0  0  0  0  0  0
  153.5000  138.5494  154.7801 H   0  0  0  0  0  0  0  0  0  0  0  0
  151.4647  137.6379  153.1343 H   0  0  0  0  0  0  0  0  0  0  0  0
  150.3549  142.0204  154.6022 H   0  0  0  0  0  0  0  0  0  0  0  0
  1  2  3  0  0  0  0
  2  3  1  0  0  0  0
  3  4  1  0  0  0  0
  3 18  1  0  0  0  0
  3 19  1  0  0  0  0
  4  5  1  0  0  0  0
  4 20  1  0  0  0  0
  4 21  1  0  0  0  0
  5  6  1  0  0  0  0
  5 22  1  0  0  0  0
  5 23  1  0  0  0  0
  6  7  1  0  0  0  0
  6 24  1  0  0  0  0
  6 38  1  0  0  0  0
  7 12  1  0  0  0  0
  7  8  1  0  0  0  0
  7 25  1  0  0  0  0
  8  9  1  0  0  0  0
  8 26  1  0  0  0  0
  8 27  1  0  0  0  0
  9 10  1  0  0  0  0
  9 28  1  0  0  0  0
  9 29  1  0  0  0  0
 10 11  1  0  0  0  0
 10 30  1  0  0  0  0
 10 31  1  0  0  0  0
 11 12  1  0  0  0  0
 11 32  1  0  0  0  0
 11 33  1  0  0  0  0
 12 13  1  0  0  0  0
 12 34  1  0  0  0  0
 13 17  1  0  0  0  0
 13 14  1  0  0  0  0
 14 15  2  0  0  0  0
 14 35  1  0  0  0  0
 15 16  1  0  0  0  0
 15 36  1  0  0  0  0
 16 17  2  0  0  0  0
 16 37  1  0  0  0  0
M  CHG  1   6   1
M  END
> <s_m_source_file>
AV-unprocessed.smi

> <i_m_source_file_index>
3185

> <i_lp_mmshare_version>
43012

> <i_f3d_flags>
0

> <s_epik_input>
TiNDW0NIMl1bQ0gyXVtDSDJdW05IXVtDQEBIXTFbQ0gyXVtDSDJdW0NIMl1bQ0gyXVtDQEhdMW4yW2NIXVtjSF1bY0hdbjI=

> <s_epik_cmdline>
J2VwaWtfcHl0aG9uJywgJy1waCcsICc3LjAnLCAnLXRuJywgJzgnLCAnLW1hJywgJzIwMCcsICctbWV0YWxfYmluZGluZycsICctaW1hZScsICc8aW5maWxlLm1hZT4nLCAnLW9tYWUnLCAnPG91dGZpbGUubWFlPic=

> <r_lp_tautomer_probability>
1

> <r_epik_Ionization_Penalty>
0.0143465

> <r_epik_Ionization_Penalty_Charging>
0.0143338

> <r_epik_Ionization_Penalty_Neutral>
1.27047e-05

> <r_epik_State_Penalty>
0.0112058

> <r_epik_Charging_Adjusted_Penalty>
0.0255397

> <i_epik_Tot_Q>
1

> <i_epik_Tot_abs_Q>
1

> <r_epik_Metal_State_Penalty>
0.0112253

> <b_epik_Metal_Only>
0

> <s_lp_Force_Field>
OPLS_2005

> <r_lp_Energy>
18.1439

> <b_lp_Chiralities_Consistent>
1

> <s_lp_Variant>
AV-unprocessed.smi:3185-2

> <Gold.Version>
5.8.1

> <Gold.Id.Protein>
6NUR|6NUR_protein|mol2

> <Gold.PLP.Fitness>
36.1966

> <Gold.PLP.PLP>
-28.5156

> <Gold.PLP.part.hbond>
-1.0000

> <Gold.PLP.part.metal>
0.0000

> <Gold.PLP.part.buried>
-5.6691

> <Gold.PLP.part.nonpolar>
-22.1272

> <Gold.PLP.part.repulsive>
0.4327

> <Gold.PLP.ligand.clash>
0.0000

> <Gold.PLP.ligand.torsion>
0.7269

> <Gold.PLP.Chemscore.Hbond>
2.0000

> <Gold.PLP.Chemscore.CHOScore>
1.0000

> <Gold.PLP.Chemscore.Metal>
0.0000

> <Gold.Chemscore.Hbonds>
donor molecule, donor type, donor heavy atom, donor atom, acceptor molecule, acceptor atom, score
      L1  H     6    24       P1  8028  2.00
      L1  C    16    37       P1  7949  1.00

> <Gold.PLP.Chemscore.Internal.Correction>
0.1348

> <Gold.Rescore>
     Score         DG    S(hbond)    S(metal)    S(lipo)     H(rot)  DE(clash)    DE(int)     intcor
     10.73     -11.97       0.99        0.00      68.26       1.88       0.17       1.07       ----

> <Gold.Chemscore.Fitness>
10.7323

> <Gold.Chemscore.DG>
-11.9715

> <Gold.Chemscore.ZeroCoef>
-5.4800

> <Gold.Chemscore.Hbond>
0.9912

> <Gold.Chemscore.Metal>
0.0000

> <Gold.Chemscore.Lipo>
68.2556

> <Gold.Chemscore.Internal_Hbond>
0.0000

> <Gold.Chemscore.DEClash>
0.1676

> <Gold.Chemscore.DEInternal>
1.0716

> <Gold.Chemscore.Rot>
1.8769

> <Gold.Chemscore.Internal.Correction>
   9.000000E+99

> <Gold.Chemscore.Hbonds>
donor molecule, donor type, donor heavy atom, donor atom, acceptor molecule, acceptor atom, score
      L1  H     6    24       P1  8028  1.00

> <Gold.Chemscore.Hbond.Weighted>
-3.3106

> <Gold.Chemscore.Metal.Weighted>
-0.0000

> <Gold.Chemscore.Lipo.Weighted>
-7.9859

> <Gold.Chemscore.Internal_Hbond.Weighted>
0.0000

> <Gold.Chemscore.DEClash.Weighted>
0.1676

> <Gold.Chemscore.DEInternal.Weighted>
1.0716

> <Gold.Chemscore.Rot.Weighted>
4.8049

> <Gold.Chemscore.Internal.Correction.Weighted>
   9.000000E+99

> <Gold.Protein.RotatedTorsions>
[ 6907 6896 6895 6894 ] final   53.54 input  -60.11 | X-H torsion
[ 7974 7965 7964 7962 ] final   -8.48 input  175.53 | X-H torsion
[ 8008 7997 7996 7995 ] final  130.36 input   59.86 | X-H torsion
[ 10167 10162 10161 10158 ] final  100.94 input  -65.29 | X-H torsion
[ 10718 10713 10712 10709 ] final    9.68 input   66.30 | X-H torsion
[ 10763 10752 10751 10750 ] final  172.32 input  -60.55 | X-H torsion
[ 11005 11000 10999 10996 ] final  165.40 input  -57.11 | X-H torsion

> <Gold.Protein.ActiveResidues>
 VAL166  LYS551  ARG553  GLY616  TRP617  ASP618  TYR619  PRO620  LYS621  CYS622 
 ASP623  PHE694  ASN695  SER759  ASP760  ASP761  ALA762  ILE779  LEU786  VAL792 
 PHE793  MET794  SER795  GLU796  ALA797  LYS798  CYS799  TRP800  GLU811  SER814 

> <Gold.Protein.RotatedAtoms>
  152.3348  134.7213  160.0279 H   0  0  0  0  0  0  0  0  0  0  0  0  # atno 6907 bound_to 6896
  151.7617  133.3329  159.3428 H   0  0  0  0  0  0  0  0  0  0  0  0  # atno 6908 bound_to 6896
  150.7444  134.6031  159.6091 H   0  0  0  0  0  0  0  0  0  0  0  0  # atno 6909 bound_to 6896
  146.2279  140.2474  142.8346 H   0  0  0  0  0  0  0  0  0  0  0  0  # atno 7974 bound_to 7965
  156.2953  140.2598  156.2749 H   0  0  0  0  0  0  0  0  0  0  0  0  # atno 8008 bound_to 7997
  154.9659  140.0392  157.2230 H   0  0  0  0  0  0  0  0  0  0  0  0  # atno 8009 bound_to 7997
  154.7904  140.2811  155.6001 H   0  0  0  0  0  0  0  0  0  0  0  0  # atno 8010 bound_to 7997
  139.7482  144.6992  151.0472 H   0  0  0  0  0  0  0  0  0  0  0  0  # atno 10167 bound_to 10162
  156.9698  130.5965  149.5668 H   0  0  0  0  0  0  0  0  0  0  0  0  # atno 10718 bound_to 10713
  154.4244  135.2758  155.1954 H   0  0  0  0  0  0  0  0  0  0  0  0  # atno 10763 bound_to 10752
  154.3887  135.6071  153.5834 H   0  0  0  0  0  0  0  0  0  0  0  0  # atno 10764 bound_to 10752
  152.9834  135.5898  154.4545 H   0  0  0  0  0  0  0  0  0  0  0  0  # atno 10765 bound_to 10752
  140.2557  134.7941  157.3544 H   0  0  0  0  0  0  0  0  0  0  0  0  # atno 11005 bound_to 11000
  144.9438  140.8106  143.5614 LP  0  0  0  0  0  0  0  0  0  0  0  0  # atno 17320 bound_to 7965
  145.2428  139.2065  143.4983 LP  0  0  0  0  0  0  0  0  0  0  0  0  # atno 17321 bound_to 7965
  140.7794  143.4841  150.9979 LP  0  0  0  0  0  0  0  0  0  0  0  0  # atno 17342 bound_to 10162
  139.8529  143.7415  152.3177 LP  0  0  0  0  0  0  0  0  0  0  0  0  # atno 17343 bound_to 10162
  156.0287  130.5380  150.8477 LP  0  0  0  0  0  0  0  0  0  0  0  0  # atno 17370 bound_to 10713
  157.5600  131.0945  150.9573 LP  0  0  0  0  0  0  0  0  0  0  0  0  # atno 17371 bound_to 10713
  140.1513  134.4845  155.7959 LP  0  0  0  0  0  0  0  0  0  0  0  0  # atno 17394 bound_to 11000
  141.2196  133.6864  156.7384 LP  0  0  0  0  0  0  0  0  0  0  0  0  # atno 17395 bound_to 11000

$$$$
