AV-unprocessed.smi:290|AV-procd|sdf|2245|dock3
  -GOLD-   2262022123D 1   1.00000     0.00000
 Structure written by MMmdl.
 59 62  0  0  0  0  0  0  0  0  2 V2000
  156.0480  135.4040  163.5085 C   0  0  0  0  0  0  0  0  0  0  0  0
  156.4527  136.8465  163.8500 C   0  0  2  0  0  0  0  0  0  0  0  0
  156.4383  137.0665  165.2600 O   0  0  0  0  0  0  0  0  0  0  0  0
  155.7608  138.2794  165.5667 C   0  0  0  0  0  0  0  0  0  0  0  0
  155.7466  139.0679  164.2619 C   0  0  0  0  0  0  0  0  0  0  0  0
  155.6011  137.9707  163.2162 C   0  0  2  0  0  0  0  0  0  0  0  0
  154.2383  137.5834  163.1578 O   0  0  0  0  0  0  0  0  0  0  0  0
  155.9936  138.3719  161.7703 C   0  0  0  0  0  0  0  0  0  0  0  0
  155.0009  139.1626  161.0587 N   0  0  0  0  0  0  0  0  0  0  0  0
  154.5847  140.4361  161.3684 C   0  0  0  0  0  0  0  0  0  0  0  0
  153.6809  140.9331  160.5701 N   0  0  0  0  0  0  0  0  0  0  0  0
  153.4691  139.9396  159.6194 C   0  0  0  0  0  0  0  0  0  0  0  0
  152.6337  139.8103  158.4683 C   0  0  0  0  0  0  0  0  0  0  0  0
  151.7668  140.7594  158.0210 N   0  0  0  0  0  0  0  0  0  0  0  0
  151.4621  141.9590  158.7930 C   0  0  0  0  0  0  0  0  0  0  0  0
  150.3006  142.6416  158.0590 C   0  0  0  0  0  0  0  0  0  0  0  0
  150.2910  141.9741  156.6722 C   0  0  2  0  0  0  0  0  0  0  0  0
  149.0093  142.0645  155.9097 N   0  3  2  0  0  0  0  0  0  0  0  0
  147.8282  141.9229  156.8006 C   0  0  0  0  0  0  0  0  0  0  0  0
  148.9394  141.1376  154.7441 C   0  0  0  0  0  0  0  0  0  0  0  0
  147.6842  141.3460  153.8773 C   0  0  0  0  0  0  0  0  0  0  0  0
  147.5967  140.3318  152.8985 O   0  0  0  0  0  0  0  0  0  0  0  0
  150.7476  140.5374  157.0052 C   0  0  2  0  0  0  0  0  0  0  0  0
  149.6165  139.6306  157.5446 C   0  0  0  0  0  0  0  0  0  0  0  0
  152.7061  138.6391  157.7818 N   0  0  0  0  0  0  0  0  0  0  0  0
  153.5380  137.6693  158.1704 C   0  0  0  0  0  0  0  0  0  0  0  0
  154.3735  137.6562  159.2087 N   0  0  0  0  0  0  0  0  0  0  0  0
  154.3007  138.8198  159.9150 C   0  0  0  0  0  0  0  0  0  0  0  0
  151.0699  142.4509  156.0730 H   0  0  0  0  0  0  0  0  0  0  0  0
  151.1930  140.0944  156.1159 H   0  0  0  0  0  0  0  0  0  0  0  0
  156.0565  135.2396  162.4307 H   0  0  0  0  0  0  0  0  0  0  0  0
  155.0510  135.1661  163.8797 H   0  0  0  0  0  0  0  0  0  0  0  0
  156.7416  134.6929  163.9572 H   0  0  0  0  0  0  0  0  0  0  0  0
  157.4947  136.9810  163.5642 H   0  0  0  0  0  0  0  0  0  0  0  0
  154.7441  138.0438  165.8836 H   0  0  0  0  0  0  0  0  0  0  0  0
  156.2516  138.8180  166.3773 H   0  0  0  0  0  0  0  0  0  0  0  0
  154.9587  139.8210  164.2222 H   0  0  0  0  0  0  0  0  0  0  0  0
  156.7029  139.5802  164.1618 H   0  0  0  0  0  0  0  0  0  0  0  0
  154.0318  137.3454  162.2669 H   0  0  0  0  0  0  0  0  0  0  0  0
  156.9265  138.9373  161.7828 H   0  0  0  0  0  0  0  0  0  0  0  0
  156.1928  137.4772  161.1786 H   0  0  0  0  0  0  0  0  0  0  0  0
  154.9693  140.9854  162.2157 H   0  0  0  0  0  0  0  0  0  0  0  0
  151.1922  141.7209  159.8228 H   0  0  0  0  0  0  0  0  0  0  0  0
  152.3402  142.6059  158.8096 H   0  0  0  0  0  0  0  0  0  0  0  0
  149.3658  142.4436  158.5853 H   0  0  0  0  0  0  0  0  0  0  0  0
  150.4370  143.7224  158.0124 H   0  0  0  0  0  0  0  0  0  0  0  0
  147.7742  140.9165  157.2174 H   0  0  0  0  0  0  0  0  0  0  0  0
  146.8973  142.1220  156.2725 H   0  0  0  0  0  0  0  0  0  0  0  0
  147.8599  142.6258  157.6320 H   0  0  0  0  0  0  0  0  0  0  0  0
  149.7984  141.2667  154.0882 H   0  0  0  0  0  0  0  0  0  0  0  0
  148.9842  140.1073  155.1000 H   0  0  0  0  0  0  0  0  0  0  0  0
  146.7950  141.2867  154.5054 H   0  0  0  0  0  0  0  0  0  0  0  0
  147.6591  142.3253  153.4020 H   0  0  0  0  0  0  0  0  0  0  0  0
  148.3698  140.3690  152.3550 H   0  0  0  0  0  0  0  0  0  0  0  0
  148.8414  139.4644  156.7972 H   0  0  0  0  0  0  0  0  0  0  0  0
  149.1377  140.0557  158.4269 H   0  0  0  0  0  0  0  0  0  0  0  0
  149.9970  138.6493  157.8272 H   0  0  0  0  0  0  0  0  0  0  0  0
  153.5321  136.7760  157.5633 H   0  0  0  0  0  0  0  0  0  0  0  0
  148.9803  142.9981  155.5244 H   0  0  0  0  0  0  0  0  0  0  0  0
  1  2  1  0  0  0  0
  1 31  1  0  0  0  0
  1 32  1  0  0  0  0
  1 33  1  0  0  0  0
  2  6  1  0  0  0  0
  2  3  1  0  0  0  0
  2 34  1  0  0  0  0
  3  4  1  0  0  0  0
  4  5  1  0  0  0  0
  4 35  1  0  0  0  0
  4 36  1  0  0  0  0
  5  6  1  0  0  0  0
  5 37  1  0  0  0  0
  5 38  1  0  0  0  0
  6  7  1  0  0  0  0
  6  8  1  0  0  0  0
  7 39  1  0  0  0  0
  8  9  1  0  0  0  0
  8 40  1  0  0  0  0
  8 41  1  0  0  0  0
  9 28  1  0  0  0  0
  9 10  1  0  0  0  0
 10 11  2  0  0  0  0
 10 42  1  0  0  0  0
 11 12  1  0  0  0  0
 12 28  2  0  0  0  0
 12 13  1  0  0  0  0
 13 14  1  0  0  0  0
 13 25  2  0  0  0  0
 14 23  1  0  0  0  0
 14 15  1  0  0  0  0
 15 16  1  0  0  0  0
 15 43  1  0  0  0  0
 15 44  1  0  0  0  0
 16 17  1  0  0  0  0
 16 45  1  0  0  0  0
 16 46  1  0  0  0  0
 17 29  1  0  0  0  0
 17 18  1  0  0  0  0
 17 23  1  0  0  0  0
 18 19  1  0  0  0  0
 18 20  1  0  0  0  0
 18 59  1  0  0  0  0
 19 47  1  0  0  0  0
 19 48  1  0  0  0  0
 19 49  1  0  0  0  0
 20 21  1  0  0  0  0
 20 50  1  0  0  0  0
 20 51  1  0  0  0  0
 21 22  1  0  0  0  0
 21 52  1  0  0  0  0
 21 53  1  0  0  0  0
 22 54  1  0  0  0  0
 23 30  1  0  0  0  0
 23 24  1  0  0  0  0
 24 55  1  0  0  0  0
 24 56  1  0  0  0  0
 24 57  1  0  0  0  0
 25 26  1  0  0  0  0
 26 27  2  0  0  0  0
 26 58  1  0  0  0  0
 27 28  1  0  0  0  0
M  CHG  1  18   1
M  END
> <s_m_source_file>
AV-unprocessed.smi

> <i_m_source_file_index>
290

> <i_lp_mmshare_version>
43012

> <i_f3d_flags>
0

> <s_epik_input>
W0NIMl0xW0NIMl1PW0NAQEhdKFtDSDNdKVtDQEBdMShbT0hdKVtDSDJdbihbY0hdbjIpYyhjMjMpbltjSF1uYzNONFtDSDJdW0NIMl1bQ0BIXShbQ0BIXTRbQ0gzXSlOKFtDSDNdKVtDSDJdW0NIMl1bT0hd

> <s_epik_cmdline>
J2VwaWtfcHl0aG9uJywgJy1waCcsICc3LjAnLCAnLXRuJywgJzgnLCAnLW1hJywgJzIwMCcsICctbWV0YWxfYmluZGluZycsICctaW1hZScsICc8aW5maWxlLm1hZT4nLCAnLW9tYWUnLCAnPG91dGZpbGUubWFlPic=

> <r_lp_tautomer_probability>
1

> <r_epik_Ionization_Penalty>
0.0036983

> <r_epik_Ionization_Penalty_Charging>
0.0032725

> <r_epik_Ionization_Penalty_Neutral>
0.000425798

> <r_epik_State_Penalty>
-0

> <r_epik_Charging_Adjusted_Penalty>
0.0032725

> <i_epik_Tot_Q>
1

> <i_epik_Tot_abs_Q>
1

> <r_epik_Metal_State_Penalty>
-0

> <b_epik_Metal_Only>
0

> <s_lp_Force_Field>
OPLS_2005

> <r_lp_Energy>
66.7181

> <b_lp_Chiralities_Consistent>
1

> <s_lp_Variant>
AV-unprocessed.smi:290-31

> <Gold.Version>
5.8.1

> <Gold.Id.Protein>
6NUR|6NUR_protein|mol2

> <Gold.PLP.Fitness>
43.9243

> <Gold.PLP.PLP>
-35.8802

> <Gold.PLP.part.hbond>
-2.0000

> <Gold.PLP.part.metal>
0.0000

> <Gold.PLP.part.buried>
-6.5775

> <Gold.PLP.part.nonpolar>
-26.8032

> <Gold.PLP.part.repulsive>
0.1837

> <Gold.PLP.ligand.clash>
0.0000

> <Gold.PLP.ligand.torsion>
0.5962

> <Gold.PLP.Chemscore.Hbond>
3.0000

> <Gold.PLP.Chemscore.CHOScore>
0.0000

> <Gold.PLP.Chemscore.Metal>
0.0000

> <Gold.Chemscore.Hbonds>
donor molecule, donor type, donor heavy atom, donor atom, acceptor molecule, acceptor atom, score
      L1  H    18    59       P1  8028  2.00
      L1  H    22    54       P1  7957  1.00

> <Gold.PLP.Chemscore.Internal.Correction>
0.2365

> <Gold.Rescore>
     Score         DG    S(hbond)    S(metal)    S(lipo)     H(rot)  DE(clash)    DE(int)     intcor
     10.23     -12.83       1.94        0.00      80.71       3.35       0.08       2.53       ----

> <Gold.Chemscore.Fitness>
10.2255

> <Gold.Chemscore.DG>
-12.8347

> <Gold.Chemscore.ZeroCoef>
-5.4800

> <Gold.Chemscore.Hbond>
1.9437

> <Gold.Chemscore.Metal>
0.0000

> <Gold.Chemscore.Lipo>
80.7110

> <Gold.Chemscore.Internal_Hbond>
0.0000

> <Gold.Chemscore.DEClash>
0.0811

> <Gold.Chemscore.DEInternal>
2.5281

> <Gold.Chemscore.Rot>
3.3518

> <Gold.Chemscore.Internal.Correction>
   9.000000E+99

> <Gold.Chemscore.Hbonds>
donor molecule, donor type, donor heavy atom, donor atom, acceptor molecule, acceptor atom, score
      L1  H    18    59       P1  8028  0.98
      L1  H    22    54       P1  7957  1.00

> <Gold.Chemscore.Hbond.Weighted>
-6.4921

> <Gold.Chemscore.Metal.Weighted>
-0.0000

> <Gold.Chemscore.Lipo.Weighted>
-9.4432

> <Gold.Chemscore.Internal_Hbond.Weighted>
0.0000

> <Gold.Chemscore.DEClash.Weighted>
0.0811

> <Gold.Chemscore.DEInternal.Weighted>
2.5281

> <Gold.Chemscore.Rot.Weighted>
8.5806

> <Gold.Chemscore.Internal.Correction.Weighted>
   9.000000E+99

> <Gold.Protein.RotatedTorsions>
[ 6907 6896 6895 6894 ] final  -85.16 input  -60.11 | X-H torsion
[ 7974 7965 7964 7962 ] final   20.66 input  175.53 | X-H torsion
[ 8008 7997 7996 7995 ] final   71.77 input   59.86 | X-H torsion
[ 10167 10162 10161 10158 ] final -156.45 input  -65.29 | X-H torsion
[ 10718 10713 10712 10709 ] final   64.70 input   66.30 | X-H torsion
[ 10763 10752 10751 10750 ] final  -75.50 input  -60.55 | X-H torsion
[ 11005 11000 10999 10996 ] final   70.67 input  -57.11 | X-H torsion

> <Gold.Protein.ActiveResidues>
 VAL166  LYS551  ARG553  GLY616  TRP617  ASP618  TYR619  PRO620  LYS621  CYS622 
 ASP623  PHE694  ASN695  SER759  ASP760  ASP761  ALA762  ILE779  LEU786  VAL792 
 PHE793  MET794  SER795  GLU796  ALA797  LYS798  CYS799  TRP800  GLU811  SER814 

> <Gold.Protein.RotatedAtoms>
  150.6872  134.3248  159.4801 H   0  0  0  0  0  0  0  0  0  0  0  0  # atno 6907 bound_to 6896
  152.1119  134.9265  160.0575 H   0  0  0  0  0  0  0  0  0  0  0  0  # atno 6908 bound_to 6896
  152.0504  133.3982  159.4412 H   0  0  0  0  0  0  0  0  0  0  0  0  # atno 6909 bound_to 6896
  146.2102  139.8137  142.8694 H   0  0  0  0  0  0  0  0  0  0  0  0  # atno 7974 bound_to 7965
  155.7589  140.3487  155.5188 H   0  0  0  0  0  0  0  0  0  0  0  0  # atno 8008 bound_to 7997
  155.8933  140.1021  157.1424 H   0  0  0  0  0  0  0  0  0  0  0  0  # atno 8009 bound_to 7997
  154.4036  140.1300  156.4330 H   0  0  0  0  0  0  0  0  0  0  0  0  # atno 8010 bound_to 7997
  139.6849  143.9518  152.2356 H   0  0  0  0  0  0  0  0  0  0  0  0  # atno 10167 bound_to 10162
  157.6057  130.9174  149.9879 H   0  0  0  0  0  0  0  0  0  0  0  0  # atno 10718 bound_to 10713
  154.4874  135.5829  153.6434 H   0  0  0  0  0  0  0  0  0  0  0  0  # atno 10763 bound_to 10752
  152.9857  135.6104  154.3169 H   0  0  0  0  0  0  0  0  0  0  0  0  # atno 10764 bound_to 10752
  154.3066  135.2846  155.2565 H   0  0  0  0  0  0  0  0  0  0  0  0  # atno 10765 bound_to 10752
  139.9585  134.7102  156.0698 H   0  0  0  0  0  0  0  0  0  0  0  0  # atno 11005 bound_to 11000
  145.3169  141.0234  143.3523 LP  0  0  0  0  0  0  0  0  0  0  0  0  # atno 17320 bound_to 7965
  144.8895  139.4794  143.6684 LP  0  0  0  0  0  0  0  0  0  0  0  0  # atno 17321 bound_to 7965
  139.9318  144.6736  150.8355 LP  0  0  0  0  0  0  0  0  0  0  0  0  # atno 17342 bound_to 10162
  140.7664  143.3303  151.2424 LP  0  0  0  0  0  0  0  0  0  0  0  0  # atno 17343 bound_to 10162
  156.1142  130.3648  149.9996 LP  0  0  0  0  0  0  0  0  0  0  0  0  # atno 17370 bound_to 10713
  156.8089  130.9317  151.3644 LP  0  0  0  0  0  0  0  0  0  0  0  0  # atno 17371 bound_to 10713
  141.1260  133.6599  156.3337 LP  0  0  0  0  0  0  0  0  0  0  0  0  # atno 17394 bound_to 11000
  140.5554  134.5987  157.5419 LP  0  0  0  0  0  0  0  0  0  0  0  0  # atno 17395 bound_to 11000

$$$$
