AV-unprocessed.smi:2078|AV-procd|sdf|8465|dock8
  -GOLD-   2272011163D 1   1.00000     0.00000
 Structure written by MMmdl.
 42 43  0  0  0  0  0  0  0  0  2 V2000
  153.1164  137.8024  157.4704 C   0  0  0  0  0  0  0  0  0  0  0  0
  152.2100  138.2736  156.3856 C   0  0  0  0  0  0  0  0  0  0  0  0
  151.3139  137.6330  155.5765 C   0  0  0  0  0  0  0  0  0  0  0  0
  150.7949  138.6868  154.7781 C   0  0  0  0  0  0  0  0  0  0  0  0
  149.8054  138.4367  153.7929 N   0  0  0  0  0  0  0  0  0  0  0  0
  148.6325  139.0737  153.6356 C   0  0  0  0  0  0  0  0  0  0  0  0
  148.2431  140.0238  154.3155 O   0  0  0  0  0  0  0  0  0  0  0  0
  147.9149  138.5439  152.6342 N   0  0  0  0  0  0  0  0  0  0  0  0
  146.5980  139.0156  152.2215 C   0  0  0  0  0  0  0  0  0  0  0  0
  145.9339  138.0449  151.2247 C   0  0  0  0  0  0  0  0  0  0  0  0
  145.8661  136.6583  151.7492 N   0  3  1  0  0  0  0  0  0  0  0  0
  145.2968  136.6017  153.1203 C   0  0  0  0  0  0  0  0  0  0  0  0
  145.3813  135.1795  153.6971 C   0  0  0  0  0  0  0  0  0  0  0  0
  144.6945  134.1655  152.7709 C   0  0  0  0  0  0  0  0  0  0  0  0
  145.2354  134.2652  151.3325 C   0  0  2  0  0  0  0  0  0  0  0  0
  146.6443  133.6653  151.1801 C   0  0  0  0  0  0  0  0  0  0  0  0
  145.1649  135.7215  150.8290 C   0  0  0  0  0  0  0  0  0  0  0  0
  151.3279  139.8629  155.0712 N   0  0  0  0  0  0  0  0  0  0  0  0
  152.2380  139.6041  156.1026 O   0  0  0  0  0  0  0  0  0  0  0  0
  153.0242  136.7261  157.6162 H   0  0  0  0  0  0  0  0  0  0  0  0
  152.8761  138.2929  158.4138 H   0  0  0  0  0  0  0  0  0  0  0  0
  154.1562  138.0235  157.2289 H   0  0  0  0  0  0  0  0  0  0  0  0
  151.0696  136.5813  155.5633 H   0  0  0  0  0  0  0  0  0  0  0  0
  150.0039  137.6800  153.1551 H   0  0  0  0  0  0  0  0  0  0  0  0
  148.3079  137.7682  152.1206 H   0  0  0  0  0  0  0  0  0  0  0  0
  145.9823  139.1659  153.1087 H   0  0  0  0  0  0  0  0  0  0  0  0
  146.7181  139.9958  151.7594 H   0  0  0  0  0  0  0  0  0  0  0  0
  144.9244  138.4082  151.0269 H   0  0  0  0  0  0  0  0  0  0  0  0
  146.4514  138.0434  150.2641 H   0  0  0  0  0  0  0  0  0  0  0  0
  145.8400  137.2831  153.7763 H   0  0  0  0  0  0  0  0  0  0  0  0
  144.2597  136.9407  153.0994 H   0  0  0  0  0  0  0  0  0  0  0  0
  146.4259  134.9035  153.8432 H   0  0  0  0  0  0  0  0  0  0  0  0
  144.9175  135.1521  154.6836 H   0  0  0  0  0  0  0  0  0  0  0  0
  144.8171  133.1532  153.1577 H   0  0  0  0  0  0  0  0  0  0  0  0
  143.6213  134.3611  152.7639 H   0  0  0  0  0  0  0  0  0  0  0  0
  144.5789  133.6684  150.6977 H   0  0  0  0  0  0  0  0  0  0  0  0
  147.3850  134.2097  151.7657 H   0  0  0  0  0  0  0  0  0  0  0  0
  146.9675  133.6883  150.1390 H   0  0  0  0  0  0  0  0  0  0  0  0
  146.6640  132.6246  151.5049 H   0  0  0  0  0  0  0  0  0  0  0  0
  144.1215  136.0282  150.7382 H   0  0  0  0  0  0  0  0  0  0  0  0
  145.5874  135.7759  149.8262 H   0  0  0  0  0  0  0  0  0  0  0  0
  146.8200  136.3359  151.8283 H   0  0  0  0  0  0  0  0  0  0  0  0
  1  2  1  0  0  0  0
  1 20  1  0  0  0  0
  1 21  1  0  0  0  0
  1 22  1  0  0  0  0
  2 19  1  0  0  0  0
  2  3  2  0  0  0  0
  3  4  1  0  0  0  0
  3 23  1  0  0  0  0
  4  5  1  0  0  0  0
  4 18  2  0  0  0  0
  5  6  1  0  0  0  0
  5 24  1  0  0  0  0
  6  7  2  0  0  0  0
  6  8  1  0  0  0  0
  8  9  1  0  0  0  0
  8 25  1  0  0  0  0
  9 10  1  0  0  0  0
  9 26  1  0  0  0  0
  9 27  1  0  0  0  0
 10 11  1  0  0  0  0
 10 28  1  0  0  0  0
 10 29  1  0  0  0  0
 11 17  1  0  0  0  0
 11 12  1  0  0  0  0
 11 42  1  0  0  0  0
 12 13  1  0  0  0  0
 12 30  1  0  0  0  0
 12 31  1  0  0  0  0
 13 14  1  0  0  0  0
 13 32  1  0  0  0  0
 13 33  1  0  0  0  0
 14 15  1  0  0  0  0
 14 34  1  0  0  0  0
 14 35  1  0  0  0  0
 15 16  1  0  0  0  0
 15 17  1  0  0  0  0
 15 36  1  0  0  0  0
 16 37  1  0  0  0  0
 16 38  1  0  0  0  0
 16 39  1  0  0  0  0
 17 40  1  0  0  0  0
 17 41  1  0  0  0  0
 18 19  1  0  0  0  0
M  CHG  1  11   1
M  END
> <s_m_source_file>
AV-unprocessed.smi

> <i_m_source_file_index>
2078

> <i_lp_mmshare_version>
43012

> <i_f3d_flags>
0

> <s_epik_input>
W0NIM11jMVtjSF1jKG5vMSlbTkhdQyg9TylbTkhdW0NIMl1bQ0gyXU4yW0NIMl1bQ0gyXVtDSDJdW0NAQEhdKFtDSDNdKVtDSDJdMg==

> <s_epik_cmdline>
J2VwaWtfcHl0aG9uJywgJy1waCcsICc3LjAnLCAnLXRuJywgJzgnLCAnLW1hJywgJzIwMCcsICctbWV0YWxfYmluZGluZycsICctaW1hZScsICc8aW5maWxlLm1hZT4nLCAnLW9tYWUnLCAnPG91dGZpbGUubWFlPic=

> <r_epik_Ionization_Penalty>
0.00216453

> <r_epik_Ionization_Penalty_Charging>
0.00212879

> <r_epik_Ionization_Penalty_Neutral>
3.57418e-05

> <r_epik_State_Penalty>
0.00146033

> <r_epik_Charging_Adjusted_Penalty>
0.00358912

> <i_epik_Tot_Q>
1

> <i_epik_Tot_abs_Q>
1

> <r_epik_Metal_State_Penalty>
0.0215827

> <b_epik_Metal_Only>
0

> <s_lp_Force_Field>
OPLS_2005

> <r_lp_Energy>
15.3695

> <b_lp_Chiralities_Consistent>
1

> <s_lp_Variant>
AV-unprocessed.smi:2078-3

> <Gold.Version>
5.8.1

> <Gold.Id.Protein>
6NUR|6NUR_protein|mol2

> <Gold.PLP.Fitness>
45.3156

> <Gold.PLP.PLP>
-30.4827

> <Gold.PLP.part.hbond>
-6.9782

> <Gold.PLP.part.metal>
0.0000

> <Gold.PLP.part.buried>
1.3087

> <Gold.PLP.part.nonpolar>
-25.1013

> <Gold.PLP.part.repulsive>
0.3762

> <Gold.PLP.ligand.clash>
0.0000

> <Gold.PLP.ligand.torsion>
0.5437

> <Gold.PLP.Chemscore.Hbond>
5.3014

> <Gold.PLP.Chemscore.CHOScore>
0.0000

> <Gold.PLP.Chemscore.Metal>
0.0000

> <Gold.Chemscore.Hbonds>
donor molecule, donor type, donor heavy atom, donor atom, acceptor molecule, acceptor atom, score
      L1  H     5    24       P1  7948  0.57
      L1  H     8    25       P1  7948  1.00
      L1  H    11    42       P1  7948  1.59
      P1  H  7989  7998       L1    18  1.00
      P1  H  7997  8009       L1    19  0.60

> <Gold.PLP.Chemscore.Internal.Correction>
0.0162

> <Gold.Rescore>
     Score         DG    S(hbond)    S(metal)    S(lipo)     H(rot)  DE(clash)    DE(int)     intcor
     19.30     -20.30       3.86        0.00      50.84       1.57       0.09       0.90       ----

> <Gold.Chemscore.Fitness>
19.3024

> <Gold.Chemscore.DG>
-20.2957

> <Gold.Chemscore.ZeroCoef>
-5.4800

> <Gold.Chemscore.Hbond>
3.8580

> <Gold.Chemscore.Metal>
0.0000

> <Gold.Chemscore.Lipo>
50.8423

> <Gold.Chemscore.Internal_Hbond>
0.0000

> <Gold.Chemscore.DEClash>
0.0932

> <Gold.Chemscore.DEInternal>
0.9000

> <Gold.Chemscore.Rot>
1.5697

> <Gold.Chemscore.Internal.Correction>
   9.000000E+99

> <Gold.Chemscore.Hbonds>
donor molecule, donor type, donor heavy atom, donor atom, acceptor molecule, acceptor atom, score
      L1  H     5    24       P1  7948  0.19
      L1  H     8    25       P1  7948  0.99
      L1  H    11    42       P1  7948  0.79
      P1  H  7989  7998       L1    18  0.78
      P1  H  7997  8009       L1    19  0.30

> <Gold.Chemscore.Hbond.Weighted>
-12.8856

> <Gold.Chemscore.Metal.Weighted>
-0.0000

> <Gold.Chemscore.Lipo.Weighted>
-5.9486

> <Gold.Chemscore.Internal_Hbond.Weighted>
0.0000

> <Gold.Chemscore.DEClash.Weighted>
0.0932

> <Gold.Chemscore.DEInternal.Weighted>
0.9000

> <Gold.Chemscore.Rot.Weighted>
4.0185

> <Gold.Chemscore.Internal.Correction.Weighted>
   9.000000E+99

> <Gold.Protein.RotatedTorsions>
[ 6907 6896 6895 6894 ] final  -33.04 input  -60.11 | X-H torsion
[ 7974 7965 7964 7962 ] final    2.64 input  175.53 | X-H torsion
[ 8008 7997 7996 7995 ] final -150.34 input   59.86 | X-H torsion
[ 10167 10162 10161 10158 ] final   40.98 input  -65.29 | X-H torsion
[ 10718 10713 10712 10709 ] final  -72.46 input   66.30 | X-H torsion
[ 10763 10752 10751 10750 ] final   32.37 input  -60.55 | X-H torsion
[ 11005 11000 10999 10996 ] final -162.00 input  -57.11 | X-H torsion

> <Gold.Protein.ActiveResidues>
 VAL166  LYS551  ARG553  GLY616  TRP617  ASP618  TYR619  PRO620  LYS621  CYS622 
 ASP623  PHE694  ASN695  SER759  ASP760  ASP761  ALA762  ILE779  LEU786  VAL792 
 PHE793  MET794  SER795  GLU796  ALA797  LYS798  CYS799  TRP800  GLU811  SER814 

> <Gold.Protein.RotatedAtoms>
  151.0709  134.9797  159.8307 H   0  0  0  0  0  0  0  0  0  0  0  0  # atno 6907 bound_to 6896
  152.5408  134.2301  159.8831 H   0  0  0  0  0  0  0  0  0  0  0  0  # atno 6908 bound_to 6896
  151.2325  133.4399  159.2638 H   0  0  0  0  0  0  0  0  0  0  0  0  # atno 6909 bound_to 6896
  146.2444  140.0806  142.8357 H   0  0  0  0  0  0  0  0  0  0  0  0  # atno 7974 bound_to 7965
  155.6220  140.0682  157.2675 H   0  0  0  0  0  0  0  0  0  0  0  0  # atno 8008 bound_to 7997
  154.4227  140.1782  156.1430 H   0  0  0  0  0  0  0  0  0  0  0  0  # atno 8009 bound_to 7997
  156.0001  140.3337  155.6841 H   0  0  0  0  0  0  0  0  0  0  0  0  # atno 8010 bound_to 7997
  140.3688  144.2132  150.6134 H   0  0  0  0  0  0  0  0  0  0  0  0  # atno 10167 bound_to 10162
  156.0319  130.4373  150.2596 H   0  0  0  0  0  0  0  0  0  0  0  0  # atno 10718 bound_to 10713
  153.0266  135.6415  154.1345 H   0  0  0  0  0  0  0  0  0  0  0  0  # atno 10763 bound_to 10752
  154.1073  135.2855  155.3240 H   0  0  0  0  0  0  0  0  0  0  0  0  # atno 10764 bound_to 10752
  154.6357  135.5477  153.7793 H   0  0  0  0  0  0  0  0  0  0  0  0  # atno 10765 bound_to 10752
  140.6141  134.4819  157.5218 H   0  0  0  0  0  0  0  0  0  0  0  0  # atno 11005 bound_to 11000
  145.0736  140.9173  143.4867 LP  0  0  0  0  0  0  0  0  0  0  0  0  # atno 17320 bound_to 7965
  145.0945  139.2866  143.5718 LP  0  0  0  0  0  0  0  0  0  0  0  0  # atno 17321 bound_to 7965
  140.5054  143.2305  151.8616 LP  0  0  0  0  0  0  0  0  0  0  0  0  # atno 17342 bound_to 10162
  139.4806  144.5011  151.9059 LP  0  0  0  0  0  0  0  0  0  0  0  0  # atno 17343 bound_to 10162
  157.0697  131.0113  151.3194 LP  0  0  0  0  0  0  0  0  0  0  0  0  # atno 17370 bound_to 10713
  157.5008  130.7879  149.7603 LP  0  0  0  0  0  0  0  0  0  0  0  0  # atno 17371 bound_to 10713
  139.9180  134.8206  156.1303 LP  0  0  0  0  0  0  0  0  0  0  0  0  # atno 17394 bound_to 11000
  141.0788  133.6763  156.2292 LP  0  0  0  0  0  0  0  0  0  0  0  0  # atno 17395 bound_to 11000

$$$$
