AV-unprocessed.smi:255|AV-procd|sdf|1949|dock8
  -GOLD-   2262021 83D 1   1.00000     0.00000
 Structure written by MMmdl.
 44 47  0  0  0  0  0  0  0  0  1 V2000
  151.7342  145.4955  160.2934 O   0  0  0  0  0  0  0  0  0  0  0  0
  152.1866  144.5768  159.3213 C   0  0  0  0  0  0  0  0  0  0  0  0
  152.1207  143.1368  159.8647 C   0  0  2  0  0  0  0  0  0  0  0  0
  153.0703  142.8943  161.0385 C   0  0  0  0  0  0  0  0  0  0  0  0
  153.1620  141.3732  161.0514 C   0  0  2  0  0  0  0  0  0  0  0  0
  154.2631  140.9320  161.6587 F   0  0  0  0  0  0  0  0  0  0  0  0
  153.1161  140.9983  159.5676 C   0  0  0  0  0  0  0  0  0  0  0  0
  152.5202  142.1388  158.8740 N   0  0  0  0  0  0  0  0  0  0  0  0
  151.5727  141.8345  157.9596 C   0  0  0  0  0  0  0  0  0  0  0  0
  150.3867  142.4986  157.9571 N   0  0  0  0  0  0  0  0  0  0  0  0
  149.4614  142.2052  157.0381 C   0  0  0  0  0  0  0  0  0  0  0  0
  149.5177  141.3046  156.0539 N   0  0  0  0  0  0  0  0  0  0  0  0
  150.7092  140.6399  156.0564 C   0  0  0  0  0  0  0  0  0  0  0  0
  151.7838  140.8448  156.9656 C   0  0  0  0  0  0  0  0  0  0  0  0
  152.8402  139.9977  156.6576 N   0  0  0  0  0  0  0  0  0  0  0  0
  152.4111  139.3225  155.6260 C   0  0  0  0  0  0  0  0  0  0  0  0
  151.1390  139.6389  155.2029 N   0  0  0  0  0  0  0  0  0  0  0  0
  150.4194  139.0419  154.0883 C   0  0  0  0  0  0  0  0  0  0  0  0
  149.2589  138.1210  154.5316 C   0  0  1  0  0  0  0  0  0  0  0  0
  148.4101  137.8848  153.4211 O   0  0  0  0  0  0  0  0  0  0  0  0
  149.7083  136.7753  155.0942 C   0  0  0  0  0  0  0  0  0  0  0  0
  148.6289  136.4585  156.1195 C   0  0  0  0  0  0  0  0  0  0  0  0
  148.3780  137.7257  156.7027 O   0  0  0  0  0  0  0  0  0  0  0  0
  148.4107  138.7118  155.6758 C   0  0  0  0  0  0  0  0  0  0  0  0
  151.1077  142.9259  160.2136 H   0  0  0  0  0  0  0  0  0  0  0  0
  152.3026  140.9503  161.5733 H   0  0  0  0  0  0  0  0  0  0  0  0
  152.4486  146.0728  160.5159 H   0  0  0  0  0  0  0  0  0  0  0  0
  151.6179  144.6860  158.3970 H   0  0  0  0  0  0  0  0  0  0  0  0
  153.2198  144.8405  159.0935 H   0  0  0  0  0  0  0  0  0  0  0  0
  154.0499  143.3292  160.8326 H   0  0  0  0  0  0  0  0  0  0  0  0
  152.7030  143.3067  161.9787 H   0  0  0  0  0  0  0  0  0  0  0  0
  154.1271  140.8697  159.1801 H   0  0  0  0  0  0  0  0  0  0  0  0
  152.5856  140.0585  159.4094 H   0  0  0  0  0  0  0  0  0  0  0  0
  148.5454  142.7743  157.0991 H   0  0  0  0  0  0  0  0  0  0  0  0
  153.0125  138.5652  155.1442 H   0  0  0  0  0  0  0  0  0  0  0  0
  150.0393  139.8465  153.4575 H   0  0  0  0  0  0  0  0  0  0  0  0
  151.1319  138.4862  153.4771 H   0  0  0  0  0  0  0  0  0  0  0  0
  148.7523  137.1507  152.9337 H   0  0  0  0  0  0  0  0  0  0  0  0
  149.8300  135.9976  154.3388 H   0  0  0  0  0  0  0  0  0  0  0  0
  150.6598  136.8832  155.6163 H   0  0  0  0  0  0  0  0  0  0  0  0
  147.7237  136.0864  155.6369 H   0  0  0  0  0  0  0  0  0  0  0  0
  148.9521  135.7293  156.8626 H   0  0  0  0  0  0  0  0  0  0  0  0
  148.8395  139.6296  156.0794 H   0  0  0  0  0  0  0  0  0  0  0  0
  147.3924  138.9412  155.3572 H   0  0  0  0  0  0  0  0  0  0  0  0
  1  2  1  0  0  0  0
  1 27  1  0  0  0  0
  2  3  1  0  0  0  0
  2 28  1  0  0  0  0
  2 29  1  0  0  0  0
  3 25  1  0  0  0  0
  3  8  1  0  0  0  0
  3  4  1  0  0  0  0
  4  5  1  0  0  0  0
  4 30  1  0  0  0  0
  4 31  1  0  0  0  0
  5 26  1  0  0  0  0
  5  6  1  0  0  0  0
  5  7  1  0  0  0  0
  7  8  1  0  0  0  0
  7 32  1  0  0  0  0
  7 33  1  0  0  0  0
  8  9  1  0  0  0  0
  9 14  1  0  0  0  0
  9 10  2  0  0  0  0
 10 11  1  0  0  0  0
 11 12  2  0  0  0  0
 11 34  1  0  0  0  0
 12 13  1  0  0  0  0
 13 17  1  0  0  0  0
 13 14  2  0  0  0  0
 14 15  1  0  0  0  0
 15 16  2  0  0  0  0
 16 17  1  0  0  0  0
 16 35  1  0  0  0  0
 17 18  1  0  0  0  0
 18 19  1  0  0  0  0
 18 36  1  0  0  0  0
 18 37  1  0  0  0  0
 19 24  1  0  0  0  0
 19 20  1  0  0  0  0
 19 21  1  0  0  0  0
 20 38  1  0  0  0  0
 21 22  1  0  0  0  0
 21 39  1  0  0  0  0
 21 40  1  0  0  0  0
 22 23  1  0  0  0  0
 22 41  1  0  0  0  0
 22 42  1  0  0  0  0
 23 24  1  0  0  0  0
 24 43  1  0  0  0  0
 24 44  1  0  0  0  0
M  END
> <s_m_source_file>
AV-unprocessed.smi

> <i_m_source_file_index>
255

> <i_lp_mmshare_version>
43012

> <i_f3d_flags>
0

> <s_epik_input>
W09IXVtDSDJdW0NAQEhdMVtDSDJdW0NASF0oRilbQ0gyXU4xYyhuW2NIXW4yKWMoYzIzKW5bY0hdbjNbQ0gyXVtDQEBdNChbT0hdKVtDSDJdW0NIMl1PW0NIMl00

> <s_epik_cmdline>
J2VwaWtfcHl0aG9uJywgJy1waCcsICc3LjAnLCAnLXRuJywgJzgnLCAnLW1hJywgJzIwMCcsICctbWV0YWxfYmluZGluZycsICctaW1hZScsICc8aW5maWxlLm1hZT4nLCAnLW9tYWUnLCAnPG91dGZpbGUubWFlPic=

> <r_lp_tautomer_probability>
1

> <r_epik_Ionization_Penalty>
0.0058098

> <r_epik_Ionization_Penalty_Charging>
0

> <r_epik_Ionization_Penalty_Neutral>
0.0058098

> <r_epik_State_Penalty>
0.00411166

> <r_epik_Charging_Adjusted_Penalty>
0.00411166

> <i_epik_Tot_Q>
0

> <i_epik_Tot_abs_Q>
0

> <r_epik_Metal_State_Penalty>
-0

> <b_epik_Metal_Only>
0

> <s_lp_Force_Field>
OPLS_2005

> <r_lp_Energy>
52.3254

> <b_lp_Chiralities_Consistent>
1

> <s_lp_Variant>
AV-unprocessed.smi:255-1

> <Gold.Version>
5.8.1

> <Gold.Id.Protein>
6NUR|6NUR_protein|mol2

> <Gold.PLP.Fitness>
47.2622

> <Gold.PLP.PLP>
-40.5030

> <Gold.PLP.part.hbond>
-1.6037

> <Gold.PLP.part.metal>
0.0000

> <Gold.PLP.part.buried>
-3.6216

> <Gold.PLP.part.nonpolar>
-35.0071

> <Gold.PLP.part.repulsive>
0.1846

> <Gold.PLP.ligand.clash>
0.0000

> <Gold.PLP.ligand.torsion>
0.4377

> <Gold.PLP.Chemscore.Hbond>
2.0000

> <Gold.PLP.Chemscore.CHOScore>
0.5170

> <Gold.PLP.Chemscore.Metal>
0.0000

> <Gold.Chemscore.Hbonds>
donor molecule, donor type, donor heavy atom, donor atom, acceptor molecule, acceptor atom, score
      L1  H    20    38       P1  7948  0.70
      P1  H  7997  8010       L1    15  0.96
      L1  C    11    34       P1  8028  0.53

> <Gold.PLP.Chemscore.Internal.Correction>
0.0836

> <Gold.Rescore>
     Score         DG    S(hbond)    S(metal)    S(lipo)     H(rot)  DE(clash)    DE(int)     intcor
     10.92     -12.35       1.94        0.00      76.05       3.33       0.00       1.42       ----

> <Gold.Chemscore.Fitness>
10.9233

> <Gold.Chemscore.DG>
-12.3521

> <Gold.Chemscore.ZeroCoef>
-5.4800

> <Gold.Chemscore.Hbond>
1.9437

> <Gold.Chemscore.Metal>
0.0000

> <Gold.Chemscore.Lipo>
76.0525

> <Gold.Chemscore.Internal_Hbond>
0.0000

> <Gold.Chemscore.DEClash>
0.0038

> <Gold.Chemscore.DEInternal>
1.4249

> <Gold.Chemscore.Rot>
3.3273

> <Gold.Chemscore.Internal.Correction>
   9.000000E+99

> <Gold.Chemscore.Hbonds>
donor molecule, donor type, donor heavy atom, donor atom, acceptor molecule, acceptor atom, score
      L1  H    20    38       P1  7948  0.70
      P1  H  7997  8010       L1    15  0.45

> <Gold.Chemscore.Hbond.Weighted>
-6.4918

> <Gold.Chemscore.Metal.Weighted>
-0.0000

> <Gold.Chemscore.Lipo.Weighted>
-8.8981

> <Gold.Chemscore.Internal_Hbond.Weighted>
0.0000

> <Gold.Chemscore.DEClash.Weighted>
0.0038

> <Gold.Chemscore.DEInternal.Weighted>
1.4249

> <Gold.Chemscore.Rot.Weighted>
8.5179

> <Gold.Chemscore.Internal.Correction.Weighted>
   9.000000E+99

> <Gold.Protein.RotatedTorsions>
[ 6907 6896 6895 6894 ] final -130.38 input  -60.11 | X-H torsion
[ 7974 7965 7964 7962 ] final   77.51 input  175.53 | X-H torsion
[ 8008 7997 7996 7995 ] final   70.81 input   59.86 | X-H torsion
[ 10167 10162 10161 10158 ] final  -37.12 input  -65.29 | X-H torsion
[ 10718 10713 10712 10709 ] final  -58.64 input   66.30 | X-H torsion
[ 10763 10752 10751 10750 ] final -131.14 input  -60.55 | X-H torsion
[ 11005 11000 10999 10996 ] final -167.18 input  -57.11 | X-H torsion

> <Gold.Protein.ActiveResidues>
 VAL166  LYS551  ARG553  GLY616  TRP617  ASP618  TYR619  PRO620  LYS621  CYS622 
 ASP623  PHE694  ASN695  SER759  ASP760  ASP761  ALA762  ILE779  LEU786  VAL792 
 PHE793  MET794  SER795  GLU796  ALA797  LYS798  CYS799  TRP800  GLU811  SER814 

> <Gold.Protein.RotatedAtoms>
  150.9391  133.6677  159.2794 H   0  0  0  0  0  0  0  0  0  0  0  0  # atno 6907 bound_to 6896
  151.4072  135.0978  159.9584 H   0  0  0  0  0  0  0  0  0  0  0  0  # atno 6908 bound_to 6896
  152.5061  133.8872  159.7430 H   0  0  0  0  0  0  0  0  0  0  0  0  # atno 6909 bound_to 6896
  145.6891  139.2547  143.1770 H   0  0  0  0  0  0  0  0  0  0  0  0  # atno 7974 bound_to 7965
  155.7444  140.3490  155.5120 H   0  0  0  0  0  0  0  0  0  0  0  0  # atno 8008 bound_to 7997
  155.9063  140.1043  157.1334 H   0  0  0  0  0  0  0  0  0  0  0  0  # atno 8009 bound_to 7997
  154.4050  140.1276  156.4487 H   0  0  0  0  0  0  0  0  0  0  0  0  # atno 8010 bound_to 7997
  140.7126  143.3363  151.2456 H   0  0  0  0  0  0  0  0  0  0  0  0  # atno 10167 bound_to 10162
  156.1120  130.4174  150.0605 H   0  0  0  0  0  0  0  0  0  0  0  0  # atno 10718 bound_to 10713
  154.8752  135.3839  154.4198 H   0  0  0  0  0  0  0  0  0  0  0  0  # atno 10763 bound_to 10752
  153.4903  135.7030  153.5893 H   0  0  0  0  0  0  0  0  0  0  0  0  # atno 10764 bound_to 10752
  153.4270  135.3888  155.2114 H   0  0  0  0  0  0  0  0  0  0  0  0  # atno 10765 bound_to 10752
  140.5562  134.5379  157.5133 H   0  0  0  0  0  0  0  0  0  0  0  0  # atno 11005 bound_to 11000
  146.0898  140.7669  142.9601 LP  0  0  0  0  0  0  0  0  0  0  0  0  # atno 17320 bound_to 7965
  144.7002  140.3619  143.7162 LP  0  0  0  0  0  0  0  0  0  0  0  0  # atno 17321 bound_to 7965
  139.6859  143.9775  152.2833 LP  0  0  0  0  0  0  0  0  0  0  0  0  # atno 17342 bound_to 10162
  139.9420  144.6675  150.8256 LP  0  0  0  0  0  0  0  0  0  0  0  0  # atno 17343 bound_to 10162
  156.8566  130.9477  151.3621 LP  0  0  0  0  0  0  0  0  0  0  0  0  # atno 17370 bound_to 10713
  157.6301  130.8723  149.9259 LP  0  0  0  0  0  0  0  0  0  0  0  0  # atno 17371 bound_to 10713
  139.9430  134.7752  156.0630 LP  0  0  0  0  0  0  0  0  0  0  0  0  # atno 17394 bound_to 11000
  141.1142  133.6633  156.3053 LP  0  0  0  0  0  0  0  0  0  0  0  0  # atno 17395 bound_to 11000

$$$$
