AV-unprocessed.smi:1561|AV-procd|sdf|6286|dock4
  -GOLD-   22720 6483D 1   1.00000     0.00000
 Structure written by MMmdl.
 33 34  0  0  0  0  0  0  0  0  1 V2000
  151.2721  137.6303  159.2916 C   0  0  0  0  0  0  0  0  0  0  0  0
  151.2274  139.0114  158.6063 C   0  0  1  0  0  0  0  0  0  0  0  0
  152.5381  139.7965  158.7712 C   0  0  0  0  0  0  0  0  0  0  0  0
  153.5972  139.3514  158.3276 O   0  0  0  0  0  0  0  0  0  0  0  0
  152.4484  140.9694  159.4185 N   0  0  0  0  0  0  0  0  0  0  0  0
  153.5560  141.8832  159.6798 C   0  0  0  0  0  0  0  0  0  0  0  0
  153.0657  143.2564  160.1763 C   0  0  1  0  0  0  0  0  0  0  0  0
  151.8872  143.8367  159.4174 C   0  0  0  0  0  0  0  0  0  0  0  0
  151.3458  144.8693  160.4026 C   0  0  0  0  0  0  0  0  0  0  0  0
  151.6816  144.3895  161.7019 O   0  0  0  0  0  0  0  0  0  0  0  0
  152.5040  143.2320  161.5966 C   0  0  0  0  0  0  0  0  0  0  0  0
  150.8668  138.9194  157.1961 N   0  0  0  0  0  0  0  0  0  0  0  0
  151.6293  138.4257  156.1567 C   0  0  0  0  0  0  0  0  0  0  0  0
  150.8746  138.4994  155.0211 C   0  0  0  0  0  0  0  0  0  0  0  0
  149.6418  139.0482  155.4705 C   0  0  0  0  0  0  0  0  0  0  0  0
  149.6363  139.2898  156.7708 N   0  0  0  0  0  0  0  0  0  0  0  0
  151.4833  137.7285  160.3571 H   0  0  0  0  0  0  0  0  0  0  0  0
  152.0375  136.9822  158.8627 H   0  0  0  0  0  0  0  0  0  0  0  0
  150.3143  137.1184  159.1952 H   0  0  0  0  0  0  0  0  0  0  0  0
  150.4404  139.5845  159.0996 H   0  0  0  0  0  0  0  0  0  0  0  0
  151.5383  141.2560  159.7486 H   0  0  0  0  0  0  0  0  0  0  0  0
  154.2628  141.4455  160.3869 H   0  0  0  0  0  0  0  0  0  0  0  0
  154.1027  142.0107  158.7452 H   0  0  0  0  0  0  0  0  0  0  0  0
  153.8901  143.9711  160.1435 H   0  0  0  0  0  0  0  0  0  0  0  0
  152.1645  144.2735  158.4576 H   0  0  0  0  0  0  0  0  0  0  0  0
  151.1363  143.0659  159.2364 H   0  0  0  0  0  0  0  0  0  0  0  0
  151.8348  145.8325  160.2533 H   0  0  0  0  0  0  0  0  0  0  0  0
  150.2705  145.0154  160.2979 H   0  0  0  0  0  0  0  0  0  0  0  0
  151.8795  142.3508  161.7501 H   0  0  0  0  0  0  0  0  0  0  0  0
  153.2856  143.2285  162.3567 H   0  0  0  0  0  0  0  0  0  0  0  0
  152.6364  138.0664  156.3099 H   0  0  0  0  0  0  0  0  0  0  0  0
  151.1580  138.2022  154.0224 H   0  0  0  0  0  0  0  0  0  0  0  0
  148.7555  139.2723  154.8957 H   0  0  0  0  0  0  0  0  0  0  0  0
  1  2  1  0  0  0  0
  1 17  1  0  0  0  0
  1 18  1  0  0  0  0
  1 19  1  0  0  0  0
  2  3  1  0  0  0  0
  2 12  1  0  0  0  0
  2 20  1  0  0  0  0
  3  4  2  0  0  0  0
  3  5  1  0  0  0  0
  5  6  1  0  0  0  0
  5 21  1  0  0  0  0
  6  7  1  0  0  0  0
  6 22  1  0  0  0  0
  6 23  1  0  0  0  0
  7 11  1  0  0  0  0
  7  8  1  0  0  0  0
  7 24  1  0  0  0  0
  8  9  1  0  0  0  0
  8 25  1  0  0  0  0
  8 26  1  0  0  0  0
  9 10  1  0  0  0  0
  9 27  1  0  0  0  0
  9 28  1  0  0  0  0
 10 11  1  0  0  0  0
 11 29  1  0  0  0  0
 11 30  1  0  0  0  0
 12 16  1  0  0  0  0
 12 13  1  0  0  0  0
 13 14  2  0  0  0  0
 13 31  1  0  0  0  0
 14 15  1  0  0  0  0
 14 32  1  0  0  0  0
 15 16  2  0  0  0  0
 15 33  1  0  0  0  0
M  END
> <s_m_source_file>
AV-unprocessed.smi

> <i_m_source_file_index>
1561

> <i_lp_mmshare_version>
43012

> <i_f3d_flags>
0

> <s_epik_input>
bjFbY0hdW2NIXVtjSF1uMVtDQEhdKFtDSDNdKUMoPU8pW05IXVtDSDJdW0NAQEhdMltDSDJdW0NIMl1PW0NIMl0y

> <s_epik_cmdline>
J2VwaWtfcHl0aG9uJywgJy1waCcsICc3LjAnLCAnLXRuJywgJzgnLCAnLW1hJywgJzIwMCcsICctbWV0YWxfYmluZGluZycsICctaW1hZScsICc8aW5maWxlLm1hZT4nLCAnLW9tYWUnLCAnPG91dGZpbGUubWFlPic=

> <r_lp_tautomer_probability>
1

> <r_epik_Ionization_Penalty>
3.82077e-05

> <r_epik_Ionization_Penalty_Charging>
0

> <r_epik_Ionization_Penalty_Neutral>
3.82077e-05

> <r_epik_State_Penalty>
-0

> <r_epik_Charging_Adjusted_Penalty>
0

> <i_epik_Tot_Q>
0

> <i_epik_Tot_abs_Q>
0

> <r_epik_Metal_State_Penalty>
-0

> <b_epik_Metal_Only>
0

> <s_lp_Force_Field>
OPLS_2005

> <r_lp_Energy>
22.4357

> <b_lp_Chiralities_Consistent>
1

> <s_lp_Variant>
AV-unprocessed.smi:1561-4

> <Gold.Version>
5.8.1

> <Gold.Id.Protein>
6NUR|6NUR_protein|mol2

> <Gold.PLP.Fitness>
41.1761

> <Gold.PLP.PLP>
-35.8045

> <Gold.PLP.part.hbond>
-1.0000

> <Gold.PLP.part.metal>
0.0000

> <Gold.PLP.part.buried>
-4.7685

> <Gold.PLP.part.nonpolar>
-30.0579

> <Gold.PLP.part.repulsive>
0.3070

> <Gold.PLP.ligand.clash>
0.0000

> <Gold.PLP.ligand.torsion>
0.3672

> <Gold.PLP.Chemscore.Hbond>
1.0000

> <Gold.PLP.Chemscore.CHOScore>
1.0000

> <Gold.PLP.Chemscore.Metal>
0.0000

> <Gold.Chemscore.Hbonds>
donor molecule, donor type, donor heavy atom, donor atom, acceptor molecule, acceptor atom, score
      P1  H  7997  8010       L1     4  1.00

> <Gold.PLP.Chemscore.Internal.Correction>
0.1059

> <Gold.Rescore>
     Score         DG    S(hbond)    S(metal)    S(lipo)     H(rot)  DE(clash)    DE(int)     intcor
     14.54     -14.79       0.96        0.00      87.46       1.61       0.02       0.24       ----

> <Gold.Chemscore.Fitness>
14.5366

> <Gold.Chemscore.DG>
-14.7894

> <Gold.Chemscore.ZeroCoef>
-5.4800

> <Gold.Chemscore.Hbond>
0.9569

> <Gold.Chemscore.Metal>
0.0000

> <Gold.Chemscore.Lipo>
87.4648

> <Gold.Chemscore.Internal_Hbond>
0.0000

> <Gold.Chemscore.DEClash>
0.0161

> <Gold.Chemscore.DEInternal>
0.2367

> <Gold.Chemscore.Rot>
1.6094

> <Gold.Chemscore.Internal.Correction>
   9.000000E+99

> <Gold.Chemscore.Hbonds>
donor molecule, donor type, donor heavy atom, donor atom, acceptor molecule, acceptor atom, score
      P1  H  7997  8010       L1     4  1.00

> <Gold.Chemscore.Hbond.Weighted>
-3.1961

> <Gold.Chemscore.Metal.Weighted>
-0.0000

> <Gold.Chemscore.Lipo.Weighted>
-10.2334

> <Gold.Chemscore.Internal_Hbond.Weighted>
0.0000

> <Gold.Chemscore.DEClash.Weighted>
0.0161

> <Gold.Chemscore.DEInternal.Weighted>
0.2367

> <Gold.Chemscore.Rot.Weighted>
4.1201

> <Gold.Chemscore.Internal.Correction.Weighted>
   9.000000E+99

> <Gold.Protein.RotatedTorsions>
[ 6907 6896 6895 6894 ] final   72.04 input  -60.11 | X-H torsion
[ 7974 7965 7964 7962 ] final -159.02 input  175.53 | X-H torsion
[ 8008 7997 7996 7995 ] final   33.97 input   59.86 | X-H torsion
[ 10167 10162 10161 10158 ] final   -7.11 input  -65.29 | X-H torsion
[ 10718 10713 10712 10709 ] final   47.64 input   66.30 | X-H torsion
[ 10763 10752 10751 10750 ] final  -82.92 input  -60.55 | X-H torsion
[ 11005 11000 10999 10996 ] final -173.19 input  -57.11 | X-H torsion

> <Gold.Protein.ActiveResidues>
 VAL166  LYS551  ARG553  GLY616  TRP617  ASP618  TYR619  PRO620  LYS621  CYS622 
 ASP623  PHE694  ASN695  SER759  ASP760  ASP761  ALA762  ILE779  LEU786  VAL792 
 PHE793  MET794  SER795  GLU796  ALA797  LYS798  CYS799  TRP800  GLU811  SER814 

> <Gold.Protein.RotatedAtoms>
  152.4845  134.4630  159.9610 H   0  0  0  0  0  0  0  0  0  0  0  0  # atno 6907 bound_to 6896
  151.4629  133.3582  159.2819 H   0  0  0  0  0  0  0  0  0  0  0  0  # atno 6908 bound_to 6896
  150.8944  134.8376  159.7377 H   0  0  0  0  0  0  0  0  0  0  0  0  # atno 6909 bound_to 6896
  144.7482  140.3745  143.6068 H   0  0  0  0  0  0  0  0  0  0  0  0  # atno 7974 bound_to 7965
  155.1472  140.3271  155.4439 H   0  0  0  0  0  0  0  0  0  0  0  0  # atno 8008 bound_to 7997
  156.2586  140.1983  156.6535 H   0  0  0  0  0  0  0  0  0  0  0  0  # atno 8009 bound_to 7997
  154.6499  140.0560  156.9930 H   0  0  0  0  0  0  0  0  0  0  0  0  # atno 8010 bound_to 7997
  140.7018  143.6118  150.8696 H   0  0  0  0  0  0  0  0  0  0  0  0  # atno 10167 bound_to 10162
  157.4605  130.8193  149.7881 H   0  0  0  0  0  0  0  0  0  0  0  0  # atno 10718 bound_to 10713
  154.5816  135.5574  153.7191 H   0  0  0  0  0  0  0  0  0  0  0  0  # atno 10763 bound_to 10752
  153.0083  135.6321  154.1974 H   0  0  0  0  0  0  0  0  0  0  0  0  # atno 10764 bound_to 10752
  154.1915  135.2882  155.3000 H   0  0  0  0  0  0  0  0  0  0  0  0  # atno 10765 bound_to 10752
  140.4885  134.6007  157.4946 H   0  0  0  0  0  0  0  0  0  0  0  0  # atno 11005 bound_to 11000
  145.7043  139.1669  143.2575 LP  0  0  0  0  0  0  0  0  0  0  0  0  # atno 17320 bound_to 7965
  146.1393  140.7079  142.9374 LP  0  0  0  0  0  0  0  0  0  0  0  0  # atno 17321 bound_to 7965
  139.9841  143.5919  152.2933 LP  0  0  0  0  0  0  0  0  0  0  0  0  # atno 17342 bound_to 10162
  139.6550  144.7662  151.2073 LP  0  0  0  0  0  0  0  0  0  0  0  0  # atno 17343 bound_to 10162
  156.0026  130.3872  150.2547 LP  0  0  0  0  0  0  0  0  0  0  0  0  # atno 17370 bound_to 10713
  157.0724  131.0120  151.3185 LP  0  0  0  0  0  0  0  0  0  0  0  0  # atno 17371 bound_to 10713
  139.9783  134.7178  155.9907 LP  0  0  0  0  0  0  0  0  0  0  0  0  # atno 17394 bound_to 11000
  141.1496  133.6550  156.3972 LP  0  0  0  0  0  0  0  0  0  0  0  0  # atno 17395 bound_to 11000

$$$$
