AV-unprocessed.smi:1543|AV-procd|sdf|6207|dock3
  -GOLD-   22720 6373D 1   1.00000     0.00000
 Structure written by MMmdl.
 48 49  0  0  0  0  0  0  0  0  1 V2000
  151.6829  137.7275  154.4352 C   0  0  0  0  0  0  0  0  0  0  0  0
  150.8154  138.9455  154.7705 C   0  0  1  0  0  0  0  0  0  0  0  0
  149.3269  138.6969  154.4707 C   0  0  0  0  0  0  0  0  0  0  0  0
  148.4914  139.8379  154.8562 N   0  0  0  0  0  0  0  0  0  0  0  0
  147.0633  139.7401  154.4412 C   0  0  0  0  0  0  0  0  0  0  0  0
  146.3164  138.5654  155.1174 C   0  0  0  0  0  0  0  0  0  0  0  0
  146.2921  141.0375  154.7945 C   0  0  0  0  0  0  0  0  0  0  0  0
  146.9211  139.5514  152.9018 C   0  0  0  0  0  0  0  0  0  0  0  0
  147.0353  138.1510  152.4946 N   0  0  0  0  0  0  0  0  0  0  0  0
  146.0174  137.3320  152.1968 C   0  0  0  0  0  0  0  0  0  0  0  0
  144.8355  137.6690  152.2539 O   0  0  0  0  0  0  0  0  0  0  0  0
  146.4703  136.1183  151.8375 N   0  0  0  0  0  0  0  0  0  0  0  0
  145.7433  134.9536  151.4649 C   0  0  0  0  0  0  0  0  0  0  0  0
  144.3305  134.8473  151.4499 C   0  0  0  0  0  0  0  0  0  0  0  0
  143.7442  133.6294  151.0540 C   0  0  0  0  0  0  0  0  0  0  0  0
  144.5876  132.5645  150.6841 C   0  0  0  0  0  0  0  0  0  0  0  0
  145.9340  132.6528  150.6855 N   0  0  0  0  0  0  0  0  0  0  0  0
  146.4887  133.8232  151.0667 C   0  0  0  0  0  0  0  0  0  0  0  0
  148.7027  140.1091  156.2828 C   0  0  0  0  0  0  0  0  0  0  0  0
  150.1870  140.3235  156.6400 C   0  0  2  0  0  0  0  0  0  0  0  0
  150.7339  141.6837  156.1746 C   0  0  0  0  0  0  0  0  0  0  0  0
  150.9781  139.2389  156.1551 O   0  0  0  0  0  0  0  0  0  0  0  0
  151.6003  137.4650  153.3802 H   0  0  0  0  0  0  0  0  0  0  0  0
  151.3858  136.8574  155.0214 H   0  0  0  0  0  0  0  0  0  0  0  0
  152.7336  137.9280  154.6459 H   0  0  0  0  0  0  0  0  0  0  0  0
  151.1692  139.7890  154.1769 H   0  0  0  0  0  0  0  0  0  0  0  0
  149.2377  138.4909  153.4060 H   0  0  0  0  0  0  0  0  0  0  0  0
  148.9994  137.7983  154.9943 H   0  0  0  0  0  0  0  0  0  0  0  0
  145.2757  138.5262  154.7939 H   0  0  0  0  0  0  0  0  0  0  0  0
  146.3023  138.6561  156.2034 H   0  0  0  0  0  0  0  0  0  0  0  0
  146.7593  137.6003  154.8712 H   0  0  0  0  0  0  0  0  0  0  0  0
  145.3026  141.0524  154.3356 H   0  0  0  0  0  0  0  0  0  0  0  0
  146.8217  141.9270  154.4513 H   0  0  0  0  0  0  0  0  0  0  0  0
  146.1300  141.1445  155.8668 H   0  0  0  0  0  0  0  0  0  0  0  0
  145.9596  139.9231  152.5482 H   0  0  0  0  0  0  0  0  0  0  0  0
  147.6543  140.1675  152.3779 H   0  0  0  0  0  0  0  0  0  0  0  0
  147.9731  137.7869  152.4105 H   0  0  0  0  0  0  0  0  0  0  0  0
  147.4727  136.0021  151.8656 H   0  0  0  0  0  0  0  0  0  0  0  0
  143.6818  135.6633  151.7240 H   0  0  0  0  0  0  0  0  0  0  0  0
  142.6706  133.5151  151.0332 H   0  0  0  0  0  0  0  0  0  0  0  0
  144.1697  131.6174  150.3766 H   0  0  0  0  0  0  0  0  0  0  0  0
  147.5683  133.8558  151.0557 H   0  0  0  0  0  0  0  0  0  0  0  0
  148.1500  140.9906  156.6025 H   0  0  0  0  0  0  0  0  0  0  0  0
  148.3271  139.2744  156.8748 H   0  0  0  0  0  0  0  0  0  0  0  0
  150.2751  140.3021  157.7264 H   0  0  0  0  0  0  0  0  0  0  0  0
  150.1959  142.5014  156.6545 H   0  0  0  0  0  0  0  0  0  0  0  0
  150.6353  141.8189  155.0977 H   0  0  0  0  0  0  0  0  0  0  0  0
  151.7886  141.7869  156.4303 H   0  0  0  0  0  0  0  0  0  0  0  0
  1  2  1  0  0  0  0
  1 23  1  0  0  0  0
  1 24  1  0  0  0  0
  1 25  1  0  0  0  0
  2 22  1  0  0  0  0
  2  3  1  0  0  0  0
  2 26  1  0  0  0  0
  3  4  1  0  0  0  0
  3 27  1  0  0  0  0
  3 28  1  0  0  0  0
  4  5  1  0  0  0  0
  4 19  1  0  0  0  0
  5  6  1  0  0  0  0
  5  7  1  0  0  0  0
  5  8  1  0  0  0  0
  6 29  1  0  0  0  0
  6 30  1  0  0  0  0
  6 31  1  0  0  0  0
  7 32  1  0  0  0  0
  7 33  1  0  0  0  0
  7 34  1  0  0  0  0
  8  9  1  0  0  0  0
  8 35  1  0  0  0  0
  8 36  1  0  0  0  0
  9 10  1  0  0  0  0
  9 37  1  0  0  0  0
 10 11  2  0  0  0  0
 10 12  1  0  0  0  0
 12 13  1  0  0  0  0
 12 38  1  0  0  0  0
 13 18  1  0  0  0  0
 13 14  2  0  0  0  0
 14 15  1  0  0  0  0
 14 39  1  0  0  0  0
 15 16  2  0  0  0  0
 15 40  1  0  0  0  0
 16 17  1  0  0  0  0
 16 41  1  0  0  0  0
 17 18  2  0  0  0  0
 18 42  1  0  0  0  0
 19 20  1  0  0  0  0
 19 43  1  0  0  0  0
 19 44  1  0  0  0  0
 20 21  1  0  0  0  0
 20 22  1  0  0  0  0
 20 45  1  0  0  0  0
 21 46  1  0  0  0  0
 21 47  1  0  0  0  0
 21 48  1  0  0  0  0
M  END
> <s_m_source_file>
AV-unprocessed.smi

> <i_m_source_file_index>
1543

> <i_lp_mmshare_version>
43012

> <i_f3d_flags>
0

> <s_epik_input>
W0NIM11bQ0BASF0xW0NIMl1OKFtDSDJdW0NASF0oTzEpW0NIM10pQyhbQ0gzXSkoW0NIM10pW0NIMl1bTkhdQyg9TylbTkhdYzJbY0hdW2NIXVtjSF1uW2NIXTI=

> <s_epik_cmdline>
J2VwaWtfcHl0aG9uJywgJy1waCcsICc3LjAnLCAnLXRuJywgJzgnLCAnLW1hJywgJzIwMCcsICctbWV0YWxfYmluZGluZycsICctaW1hZScsICc8aW5maWxlLm1hZT4nLCAnLW9tYWUnLCAnPG91dGZpbGUubWFlPic=

> <r_epik_Ionization_Penalty>
0.270794

> <r_epik_Ionization_Penalty_Charging>
0

> <r_epik_Ionization_Penalty_Neutral>
0.270794

> <r_epik_State_Penalty>
0.268291

> <r_epik_Charging_Adjusted_Penalty>
0.268291

> <i_epik_Tot_Q>
0

> <i_epik_Tot_abs_Q>
0

> <r_epik_Metal_State_Penalty>
0.264827

> <b_epik_Metal_Only>
0

> <s_lp_Force_Field>
OPLS_2005

> <r_lp_Energy>
46.1399

> <b_lp_Chiralities_Consistent>
1

> <s_lp_Variant>
AV-unprocessed.smi:1543-3

> <Gold.Version>
5.8.1

> <Gold.Id.Protein>
6NUR|6NUR_protein|mol2

> <Gold.PLP.Fitness>
37.3217

> <Gold.PLP.PLP>
-32.3043

> <Gold.PLP.part.hbond>
-1.9878

> <Gold.PLP.part.metal>
0.0000

> <Gold.PLP.part.buried>
-7.6731

> <Gold.PLP.part.nonpolar>
-25.2980

> <Gold.PLP.part.repulsive>
0.6959

> <Gold.PLP.ligand.clash>
0.0000

> <Gold.PLP.ligand.torsion>
0.5414

> <Gold.PLP.Chemscore.Hbond>
1.8800

> <Gold.PLP.Chemscore.CHOScore>
0.1328

> <Gold.PLP.Chemscore.Metal>
0.0000

> <Gold.Chemscore.Hbonds>
donor molecule, donor type, donor heavy atom, donor atom, acceptor molecule, acceptor atom, score
      L1  H     9    37       P1  7948  0.85
      L1  H    12    38       P1  7948  0.84
      L1  C    18    42       P1  7948  0.10

> <Gold.PLP.Chemscore.Internal.Correction>
0.0618

> <Gold.Rescore>
     Score         DG    S(hbond)    S(metal)    S(lipo)     H(rot)  DE(clash)    DE(int)     intcor
     15.91     -17.72       1.90        0.00      81.65       1.43       0.12       1.68       ----

> <Gold.Chemscore.Fitness>
15.9148

> <Gold.Chemscore.DG>
-17.7163

> <Gold.Chemscore.ZeroCoef>
-5.4800

> <Gold.Chemscore.Hbond>
1.8987

> <Gold.Chemscore.Metal>
0.0000

> <Gold.Chemscore.Lipo>
81.6518

> <Gold.Chemscore.Internal_Hbond>
0.0000

> <Gold.Chemscore.DEClash>
0.1209

> <Gold.Chemscore.DEInternal>
1.6806

> <Gold.Chemscore.Rot>
1.4291

> <Gold.Chemscore.Internal.Correction>
   9.000000E+99

> <Gold.Chemscore.Hbonds>
donor molecule, donor type, donor heavy atom, donor atom, acceptor molecule, acceptor atom, score
      L1  H     9    37       P1  7948  0.85
      L1  H    12    38       P1  7948  0.82

> <Gold.Chemscore.Hbond.Weighted>
-6.3416

> <Gold.Chemscore.Metal.Weighted>
-0.0000

> <Gold.Chemscore.Lipo.Weighted>
-9.5533

> <Gold.Chemscore.Internal_Hbond.Weighted>
0.0000

> <Gold.Chemscore.DEClash.Weighted>
0.1209

> <Gold.Chemscore.DEInternal.Weighted>
1.6806

> <Gold.Chemscore.Rot.Weighted>
3.6586

> <Gold.Chemscore.Internal.Correction.Weighted>
   9.000000E+99

> <Gold.Protein.RotatedTorsions>
[ 6907 6896 6895 6894 ] final  146.32 input  -60.11 | X-H torsion
[ 7974 7965 7964 7962 ] final  126.89 input  175.53 | X-H torsion
[ 8008 7997 7996 7995 ] final  -43.03 input   59.86 | X-H torsion
[ 10167 10162 10161 10158 ] final -125.74 input  -65.29 | X-H torsion
[ 10718 10713 10712 10709 ] final  150.41 input   66.30 | X-H torsion
[ 10763 10752 10751 10750 ] final  176.62 input  -60.55 | X-H torsion
[ 11005 11000 10999 10996 ] final  -18.33 input  -57.11 | X-H torsion

> <Gold.Protein.ActiveResidues>
 VAL166  LYS551  ARG553  GLY616  TRP617  ASP618  TYR619  PRO620  LYS621  CYS622 
 ASP623  PHE694  ASN695  SER759  ASP760  ASP761  ALA762  ILE779  LEU786  VAL792 
 PHE793  MET794  SER795  GLU796  ALA797  LYS798  CYS799  TRP800  GLU811  SER814 

> <Gold.Protein.RotatedAtoms>
  152.1694  133.4633  159.4901 H   0  0  0  0  0  0  0  0  0  0  0  0  # atno 6907 bound_to 6896
  150.6917  134.1972  159.4317 H   0  0  0  0  0  0  0  0  0  0  0  0  # atno 6908 bound_to 6896
  151.9878  134.9994  160.0611 H   0  0  0  0  0  0  0  0  0  0  0  0  # atno 6909 bound_to 6896
  145.0566  139.3839  143.5027 H   0  0  0  0  0  0  0  0  0  0  0  0  # atno 7974 bound_to 7965
  154.3997  140.1458  156.3452 H   0  0  0  0  0  0  0  0  0  0  0  0  # atno 8008 bound_to 7997
  155.8320  140.3465  155.5557 H   0  0  0  0  0  0  0  0  0  0  0  0  # atno 8009 bound_to 7997
  155.8178  140.0893  157.1857 H   0  0  0  0  0  0  0  0  0  0  0  0  # atno 8010 bound_to 7997
  139.9789  143.5764  152.2385 H   0  0  0  0  0  0  0  0  0  0  0  0  # atno 10167 bound_to 10162
  157.2838  131.0840  151.1512 H   0  0  0  0  0  0  0  0  0  0  0  0  # atno 10718 bound_to 10713
  154.4836  135.2776  155.1551 H   0  0  0  0  0  0  0  0  0  0  0  0  # atno 10763 bound_to 10752
  154.3251  135.6201  153.5529 H   0  0  0  0  0  0  0  0  0  0  0  0  # atno 10764 bound_to 10752
  152.9878  135.5752  154.5242 H   0  0  0  0  0  0  0  0  0  0  0  0  # atno 10765 bound_to 10752
  140.8257  133.8034  155.9706 H   0  0  0  0  0  0  0  0  0  0  0  0  # atno 11005 bound_to 11000
  146.3522  140.0244  142.8656 LP  0  0  0  0  0  0  0  0  0  0  0  0  # atno 17320 bound_to 7965
  145.1460  140.9597  143.4460 LP  0  0  0  0  0  0  0  0  0  0  0  0  # atno 17321 bound_to 7965
  139.6424  144.7656  151.2311 LP  0  0  0  0  0  0  0  0  0  0  0  0  # atno 17342 bound_to 10162
  140.7496  143.6294  150.8437 LP  0  0  0  0  0  0  0  0  0  0  0  0  # atno 17343 bound_to 10162
  157.2935  130.6808  149.6126 LP  0  0  0  0  0  0  0  0  0  0  0  0  # atno 17370 bound_to 10713
  155.9665  130.4413  150.5336 LP  0  0  0  0  0  0  0  0  0  0  0  0  # atno 17371 bound_to 10713
  140.9051  134.2330  157.5019 LP  0  0  0  0  0  0  0  0  0  0  0  0  # atno 17394 bound_to 11000
  139.8706  134.9724  156.4774 LP  0  0  0  0  0  0  0  0  0  0  0  0  # atno 17395 bound_to 11000

$$$$
