AV-unprocessed.smi:1902|AV-procd|sdf|7720|dock4
  -GOLD-   22720 9463D 1   1.00000     0.00000
 Structure written by MMmdl.
 44 45  0  0  0  0  0  0  0  0  2 V2000
  144.4302  135.2076  150.2951 C   0  0  0  0  0  0  0  0  0  0  0  0
  145.2420  134.5197  151.4019 C   0  0  2  0  0  0  0  0  0  0  0  0
  145.7208  135.5225  152.4649 C   0  0  0  0  0  0  0  0  0  0  0  0
  146.5626  134.8297  153.5500 C   0  0  0  0  0  0  0  0  0  0  0  0
  147.7199  134.1104  152.9571 N   0  3  1  0  0  0  0  0  0  0  0  0
  148.6197  133.5471  153.9947 C   0  0  0  0  0  0  0  0  0  0  0  0
  148.9629  134.5687  155.0969 C   0  0  0  0  0  0  0  0  0  0  0  0
  149.6765  135.7168  154.5513 N   0  0  0  0  0  0  0  0  0  0  0  0
  150.8636  136.1606  154.9912 C   0  0  0  0  0  0  0  0  0  0  0  0
  151.4626  135.6507  155.9390 O   0  0  0  0  0  0  0  0  0  0  0  0
  151.4526  137.3698  154.2514 C   0  0  0  0  0  0  0  0  0  0  0  0
  150.8391  138.6455  154.6571 N   0  0  0  0  0  0  0  0  0  0  0  0
  149.5219  138.8940  154.2224 C   0  0  0  0  0  0  0  0  0  0  0  0
  148.8707  140.0238  154.5412 C   0  0  0  0  0  0  0  0  0  0  0  0
  149.5559  141.0010  155.3536 C   0  0  0  0  0  0  0  0  0  0  0  0
  150.8151  140.7725  155.7763 C   0  0  0  0  0  0  0  0  0  0  0  0
  151.5304  139.5385  155.4315 C   0  0  0  0  0  0  0  0  0  0  0  0
  152.6794  139.3189  155.8170 O   0  0  0  0  0  0  0  0  0  0  0  0
  147.2773  133.1061  151.9536 C   0  0  0  0  0  0  0  0  0  0  0  0
  146.4560  133.7664  150.8336 C   0  0  0  0  0  0  0  0  0  0  0  0
  145.0272  135.9524  149.7678 H   0  0  0  0  0  0  0  0  0  0  0  0
  143.5556  135.7127  150.7060 H   0  0  0  0  0  0  0  0  0  0  0  0
  144.0764  134.4841  149.5603 H   0  0  0  0  0  0  0  0  0  0  0  0
  144.5896  133.7934  151.8892 H   0  0  0  0  0  0  0  0  0  0  0  0
  146.3116  136.3094  151.9936 H   0  0  0  0  0  0  0  0  0  0  0  0
  144.8638  136.0147  152.9258 H   0  0  0  0  0  0  0  0  0  0  0  0
  146.9172  135.5809  154.2569 H   0  0  0  0  0  0  0  0  0  0  0  0
  145.9467  134.1281  154.1150 H   0  0  0  0  0  0  0  0  0  0  0  0
  148.1262  132.6931  154.4607 H   0  0  0  0  0  0  0  0  0  0  0  0
  149.5270  133.1597  153.5285 H   0  0  0  0  0  0  0  0  0  0  0  0
  148.0595  134.9481  155.5726 H   0  0  0  0  0  0  0  0  0  0  0  0
  149.5559  134.0998  155.8843 H   0  0  0  0  0  0  0  0  0  0  0  0
  149.2470  136.1986  153.7743 H   0  0  0  0  0  0  0  0  0  0  0  0
  152.5316  137.4118  154.4132 H   0  0  0  0  0  0  0  0  0  0  0  0
  151.3302  137.2042  153.1801 H   0  0  0  0  0  0  0  0  0  0  0  0
  149.0779  138.1116  153.6243 H   0  0  0  0  0  0  0  0  0  0  0  0
  147.8598  140.1960  154.2015 H   0  0  0  0  0  0  0  0  0  0  0  0
  149.0558  141.9189  155.6251 H   0  0  0  0  0  0  0  0  0  0  0  0
  151.3113  141.5144  156.3845 H   0  0  0  0  0  0  0  0  0  0  0  0
  148.1367  132.6066  151.5084 H   0  0  0  0  0  0  0  0  0  0  0  0
  146.6851  132.3333  152.4469 H   0  0  0  0  0  0  0  0  0  0  0  0
  146.1255  133.0062  150.1249 H   0  0  0  0  0  0  0  0  0  0  0  0
  147.0913  134.4543  150.2739 H   0  0  0  0  0  0  0  0  0  0  0  0
  148.2577  134.8075  152.4618 H   0  0  0  0  0  0  0  0  0  0  0  0
  1  2  1  0  0  0  0
  1 21  1  0  0  0  0
  1 22  1  0  0  0  0
  1 23  1  0  0  0  0
  2 20  1  0  0  0  0
  2  3  1  0  0  0  0
  2 24  1  0  0  0  0
  3  4  1  0  0  0  0
  3 25  1  0  0  0  0
  3 26  1  0  0  0  0
  4  5  1  0  0  0  0
  4 27  1  0  0  0  0
  4 28  1  0  0  0  0
  5  6  1  0  0  0  0
  5 19  1  0  0  0  0
  5 44  1  0  0  0  0
  6  7  1  0  0  0  0
  6 29  1  0  0  0  0
  6 30  1  0  0  0  0
  7  8  1  0  0  0  0
  7 31  1  0  0  0  0
  7 32  1  0  0  0  0
  8  9  1  0  0  0  0
  8 33  1  0  0  0  0
  9 10  2  0  0  0  0
  9 11  1  0  0  0  0
 11 12  1  0  0  0  0
 11 34  1  0  0  0  0
 11 35  1  0  0  0  0
 12 17  1  0  0  0  0
 12 13  1  0  0  0  0
 13 14  2  0  0  0  0
 13 36  1  0  0  0  0
 14 15  1  0  0  0  0
 14 37  1  0  0  0  0
 15 16  2  0  0  0  0
 15 38  1  0  0  0  0
 16 17  1  0  0  0  0
 16 39  1  0  0  0  0
 17 18  2  0  0  0  0
 19 20  1  0  0  0  0
 19 40  1  0  0  0  0
 19 41  1  0  0  0  0
 20 42  1  0  0  0  0
 20 43  1  0  0  0  0
M  CHG  1   5   1
M  END
> <s_m_source_file>
AV-unprocessed.smi

> <i_m_source_file_index>
1902

> <i_lp_mmshare_version>
43012

> <i_f3d_flags>
0

> <s_epik_input>
W0NIM11bQ0hdMVtDSDJdW0NIMl1OKFtDSDJdW0NIMl0xKVtDSDJdW0NIMl1bTkhdQyg9TylbQ0gyXW4yW2NIXVtjSF1bY0hdW2NIXWMyPU8=

> <s_epik_cmdline>
J2VwaWtfcHl0aG9uJywgJy1waCcsICc3LjAnLCAnLXRuJywgJzgnLCAnLW1hJywgJzIwMCcsICctbWV0YWxfYmluZGluZycsICctaW1hZScsICc8aW5maWxlLm1hZT4nLCAnLW9tYWUnLCAnPG91dGZpbGUubWFlPic=

> <r_lp_tautomer_probability>
1

> <r_epik_Ionization_Penalty>
0.00156146

> <r_epik_Ionization_Penalty_Charging>
0.00156137

> <r_epik_Ionization_Penalty_Neutral>
8.12891e-08

> <r_epik_State_Penalty>
0.00104868

> <r_epik_Charging_Adjusted_Penalty>
0.00261006

> <i_epik_Tot_Q>
1

> <i_epik_Tot_abs_Q>
1

> <r_epik_Metal_State_Penalty>
-0

> <b_epik_Metal_Only>
0

> <s_lp_Force_Field>
OPLS_2005

> <r_lp_Energy>
24.6388

> <b_lp_Chiralities_Consistent>
1

> <s_lp_Variant>
AV-unprocessed.smi:1902-1

> <Gold.Version>
5.8.1

> <Gold.Id.Protein>
6NUR|6NUR_protein|mol2

> <Gold.PLP.Fitness>
55.6545

> <Gold.PLP.PLP>
-38.8131

> <Gold.PLP.part.hbond>
-4.0000

> <Gold.PLP.part.metal>
0.0000

> <Gold.PLP.part.buried>
-0.4982

> <Gold.PLP.part.nonpolar>
-34.7103

> <Gold.PLP.part.repulsive>
0.0749

> <Gold.PLP.ligand.clash>
0.0000

> <Gold.PLP.ligand.torsion>
0.4609

> <Gold.PLP.Chemscore.Hbond>
4.8960

> <Gold.PLP.Chemscore.CHOScore>
1.0000

> <Gold.PLP.Chemscore.Metal>
0.0000

> <Gold.Chemscore.Hbonds>
donor molecule, donor type, donor heavy atom, donor atom, acceptor molecule, acceptor atom, score
      L1  H     5    44       P1  7948  2.00
      L1  H     8    33       P1  7948  0.90
      P1  H  7997  8009       L1    18  1.00
      P1  H 10752 10764       L1    10  0.90
      L1  C    13    36       P1  7948  0.94

> <Gold.PLP.Chemscore.Internal.Correction>
0.0752

> <Gold.Rescore>
     Score         DG    S(hbond)    S(metal)    S(lipo)     H(rot)  DE(clash)    DE(int)     intcor
     19.12     -19.85       3.25        0.00      70.68       1.86       0.33       0.40       ----

> <Gold.Chemscore.Fitness>
19.1247

> <Gold.Chemscore.DG>
-19.8505

> <Gold.Chemscore.ZeroCoef>
-5.4800

> <Gold.Chemscore.Hbond>
3.2511

> <Gold.Chemscore.Metal>
0.0000

> <Gold.Chemscore.Lipo>
70.6827

> <Gold.Chemscore.Internal_Hbond>
0.0000

> <Gold.Chemscore.DEClash>
0.3286

> <Gold.Chemscore.DEInternal>
0.3971

> <Gold.Chemscore.Rot>
1.8586

> <Gold.Chemscore.Internal.Correction>
   9.000000E+99

> <Gold.Chemscore.Hbonds>
donor molecule, donor type, donor heavy atom, donor atom, acceptor molecule, acceptor atom, score
      L1  H     5    44       P1  7948  0.40
      L1  H     8    33       P1  7948  0.77
      P1  H  7997  8009       L1    18  1.00
      P1  H 10752 10764       L1    10  0.18

> <Gold.Chemscore.Hbond.Weighted>
-10.8587

> <Gold.Chemscore.Metal.Weighted>
-0.0000

> <Gold.Chemscore.Lipo.Weighted>
-8.2699

> <Gold.Chemscore.Internal_Hbond.Weighted>
0.0000

> <Gold.Chemscore.DEClash.Weighted>
0.3286

> <Gold.Chemscore.DEInternal.Weighted>
0.3971

> <Gold.Chemscore.Rot.Weighted>
4.7581

> <Gold.Chemscore.Internal.Correction.Weighted>
   9.000000E+99

> <Gold.Protein.RotatedTorsions>
[ 6907 6896 6895 6894 ] final -133.37 input  -60.11 | X-H torsion
[ 7974 7965 7964 7962 ] final  138.65 input  175.53 | X-H torsion
[ 8008 7997 7996 7995 ] final -163.76 input   59.86 | X-H torsion
[ 10167 10162 10161 10158 ] final -108.38 input  -65.29 | X-H torsion
[ 10718 10713 10712 10709 ] final -103.95 input   66.30 | X-H torsion
[ 10763 10752 10751 10750 ] final  -24.53 input  -60.55 | X-H torsion
[ 11005 11000 10999 10996 ] final  -41.92 input  -57.11 | X-H torsion

> <Gold.Protein.ActiveResidues>
 VAL166  LYS551  ARG553  GLY616  TRP617  ASP618  TYR619  PRO620  LYS621  CYS622 
 ASP623  PHE694  ASN695  SER759  ASP760  ASP761  ALA762  ILE779  LEU786  VAL792 
 PHE793  MET794  SER795  GLU796  ALA797  LYS798  CYS799  TRP800  GLU811  SER814 

> <Gold.Protein.RotatedAtoms>
  150.9732  133.6322  159.2734 H   0  0  0  0  0  0  0  0  0  0  0  0  # atno 6907 bound_to 6896
  151.3603  135.0901  159.9442 H   0  0  0  0  0  0  0  0  0  0  0  0  # atno 6908 bound_to 6896
  152.5190  133.9307  159.7634 H   0  0  0  0  0  0  0  0  0  0  0  0  # atno 6909 bound_to 6896
  144.9353  139.4997  143.5598 H   0  0  0  0  0  0  0  0  0  0  0  0  # atno 7974 bound_to 7965
  155.8258  140.0926  157.1822 H   0  0  0  0  0  0  0  0  0  0  0  0  # atno 8008 bound_to 7997
  154.3979  140.1428  156.3615 H   0  0  0  0  0  0  0  0  0  0  0  0  # atno 8009 bound_to 7997
  155.8218  140.3446  155.5521 H   0  0  0  0  0  0  0  0  0  0  0  0  # atno 8010 bound_to 7997
  140.1667  143.4075  152.1385 H   0  0  0  0  0  0  0  0  0  0  0  0  # atno 10167 bound_to 10162
  156.0285  130.5492  150.7326 H   0  0  0  0  0  0  0  0  0  0  0  0  # atno 10718 bound_to 10713
  153.6853  135.6964  153.5106 H   0  0  0  0  0  0  0  0  0  0  0  0  # atno 10763 bound_to 10752
  153.2454  135.4292  155.0741 H   0  0  0  0  0  0  0  0  0  0  0  0  # atno 10764 bound_to 10752
  154.8388  135.3518  154.6395 H   0  0  0  0  0  0  0  0  0  0  0  0  # atno 10765 bound_to 10752
  141.0280  133.6833  156.2523 H   0  0  0  0  0  0  0  0  0  0  0  0  # atno 11005 bound_to 11000
  146.3264  139.8333  142.8904 LP  0  0  0  0  0  0  0  0  0  0  0  0  # atno 17320 bound_to 7965
  145.3077  141.0211  143.3572 LP  0  0  0  0  0  0  0  0  0  0  0  0  # atno 17321 bound_to 7965
  139.5356  144.7206  151.4905 LP  0  0  0  0  0  0  0  0  0  0  0  0  # atno 17342 bound_to 10162
  140.6608  143.8502  150.6886 LP  0  0  0  0  0  0  0  0  0  0  0  0  # atno 17343 bound_to 10162
  157.4915  131.0911  151.0421 LP  0  0  0  0  0  0  0  0  0  0  0  0  # atno 17370 bound_to 10713
  157.0827  130.5909  149.5423 LP  0  0  0  0  0  0  0  0  0  0  0  0  # atno 17371 bound_to 10713
  140.6458  134.5119  157.5573 LP  0  0  0  0  0  0  0  0  0  0  0  0  # atno 17394 bound_to 11000
  139.9188  134.8190  156.1277 LP  0  0  0  0  0  0  0  0  0  0  0  0  # atno 17395 bound_to 11000

$$$$
