AV-unprocessed.smi:2902|AV-procd|sdf|11152|dock5
  -GOLD-   2272016 33D 1   1.00000     0.00000
 Structure written by MMmdl.
 47 48  0  0  0  0  0  0  0  0  1 V2000
  151.8856  138.7076  156.7375 C   0  0  0  0  0  0  0  0  0  0  0  0
  152.1187  140.2225  156.8024 C   0  0  0  0  0  0  0  0  0  0  0  0
  150.8147  141.0312  156.6707 C   0  0  1  0  0  0  0  0  0  0  0  0
  151.1544  142.4173  156.7053 O   0  0  0  0  0  0  0  0  0  0  0  0
  151.2240  143.0258  157.9926 C   0  0  0  0  0  0  0  0  0  0  0  0
  151.5766  144.5052  157.8577 C   0  0  0  0  0  0  0  0  0  0  0  0
  152.1374  144.8943  159.2288 C   0  0  0  0  0  0  0  0  0  0  0  0
  152.6904  143.6002  159.8465 C   0  0  0  0  0  0  0  0  0  0  0  0
  152.3606  142.4748  158.8584 C   0  0  0  0  0  0  0  0  0  0  0  0
  150.0795  140.7037  155.3615 C   0  0  0  0  0  0  0  0  0  0  0  0
  150.5686  139.9103  154.5570 O   0  0  0  0  0  0  0  0  0  0  0  0
  148.9144  141.3405  155.1627 N   0  0  0  0  0  0  0  0  0  0  0  0
  148.0606  141.2279  153.9814 C   0  0  2  0  0  0  0  0  0  0  0  0
  146.9356  142.2729  154.0892 C   0  0  0  0  0  0  0  0  0  0  0  0
  147.5431  139.7732  153.8310 C   0  0  2  0  0  0  0  0  0  0  0  0
  146.7903  139.5378  152.5068 C   0  0  0  0  0  0  0  0  0  0  0  0
  146.7177  139.3693  154.9614 N   0  0  0  0  0  0  0  0  0  0  0  0
  145.4458  138.9669  155.0014 C   0  0  0  0  0  0  0  0  0  0  0  0
  145.0150  138.6677  156.2189 N   0  0  0  0  0  0  0  0  0  0  0  0
  146.1504  138.9272  156.9329 C   0  0  0  0  0  0  0  0  0  0  0  0
  147.1996  139.3506  156.2284 N   0  0  0  0  0  0  0  0  0  0  0  0
  152.8275  138.1661  156.8245 H   0  0  0  0  0  0  0  0  0  0  0  0
  151.4227  138.4202  155.7931 H   0  0  0  0  0  0  0  0  0  0  0  0
  151.2347  138.3727  157.5456 H   0  0  0  0  0  0  0  0  0  0  0  0
  152.6191  140.4690  157.7400 H   0  0  0  0  0  0  0  0  0  0  0  0
  152.8078  140.5023  156.0041 H   0  0  0  0  0  0  0  0  0  0  0  0
  150.1720  140.7809  157.5163 H   0  0  0  0  0  0  0  0  0  0  0  0
  150.2776  142.9489  158.5295 H   0  0  0  0  0  0  0  0  0  0  0  0
  152.3514  144.6319  157.1001 H   0  0  0  0  0  0  0  0  0  0  0  0
  150.7221  145.1149  157.5630 H   0  0  0  0  0  0  0  0  0  0  0  0
  152.8996  145.6694  159.1459 H   0  0  0  0  0  0  0  0  0  0  0  0
  151.3383  145.2877  159.8581 H   0  0  0  0  0  0  0  0  0  0  0  0
  153.7644  143.6638  160.0245 H   0  0  0  0  0  0  0  0  0  0  0  0
  152.2113  143.4142  160.8084 H   0  0  0  0  0  0  0  0  0  0  0  0
  152.0946  141.5448  159.3614 H   0  0  0  0  0  0  0  0  0  0  0  0
  153.2323  142.2754  158.2331 H   0  0  0  0  0  0  0  0  0  0  0  0
  148.6020  141.9743  155.8838 H   0  0  0  0  0  0  0  0  0  0  0  0
  148.6363  141.4709  153.0864 H   0  0  0  0  0  0  0  0  0  0  0  0
  146.3217  142.3006  153.1888 H   0  0  0  0  0  0  0  0  0  0  0  0
  147.3455  143.2740  154.2279 H   0  0  0  0  0  0  0  0  0  0  0  0
  146.2793  142.0626  154.9344 H   0  0  0  0  0  0  0  0  0  0  0  0
  148.4107  139.1110  153.8307 H   0  0  0  0  0  0  0  0  0  0  0  0
  147.4375  139.6941  151.6438 H   0  0  0  0  0  0  0  0  0  0  0  0
  145.9390  140.2118  152.4071 H   0  0  0  0  0  0  0  0  0  0  0  0
  146.4143  138.5161  152.4468 H   0  0  0  0  0  0  0  0  0  0  0  0
  144.8231  138.8882  154.1224 H   0  0  0  0  0  0  0  0  0  0  0  0
  146.2056  138.8000  158.0041 H   0  0  0  0  0  0  0  0  0  0  0  0
  1  2  1  0  0  0  0
  1 22  1  0  0  0  0
  1 23  1  0  0  0  0
  1 24  1  0  0  0  0
  2  3  1  0  0  0  0
  2 25  1  0  0  0  0
  2 26  1  0  0  0  0
  3  4  1  0  0  0  0
  3 10  1  0  0  0  0
  3 27  1  0  0  0  0
  4  5  1  0  0  0  0
  5  9  1  0  0  0  0
  5  6  1  0  0  0  0
  5 28  1  0  0  0  0
  6  7  1  0  0  0  0
  6 29  1  0  0  0  0
  6 30  1  0  0  0  0
  7  8  1  0  0  0  0
  7 31  1  0  0  0  0
  7 32  1  0  0  0  0
  8  9  1  0  0  0  0
  8 33  1  0  0  0  0
  8 34  1  0  0  0  0
  9 35  1  0  0  0  0
  9 36  1  0  0  0  0
 10 11  2  0  0  0  0
 10 12  1  0  0  0  0
 12 13  1  0  0  0  0
 12 37  1  0  0  0  0
 13 14  1  0  0  0  0
 13 15  1  0  0  0  0
 13 38  1  0  0  0  0
 14 39  1  0  0  0  0
 14 40  1  0  0  0  0
 14 41  1  0  0  0  0
 15 16  1  0  0  0  0
 15 17  1  0  0  0  0
 15 42  1  0  0  0  0
 16 43  1  0  0  0  0
 16 44  1  0  0  0  0
 16 45  1  0  0  0  0
 17 21  1  0  0  0  0
 17 18  1  0  0  0  0
 18 19  2  0  0  0  0
 18 46  1  0  0  0  0
 19 20  1  0  0  0  0
 20 21  2  0  0  0  0
 20 47  1  0  0  0  0
M  END
> <s_m_source_file>
AV-unprocessed.smi

> <i_m_source_file_index>
2902

> <i_lp_mmshare_version>
43012

> <i_f3d_flags>
0

> <s_epik_input>
W0NIMl0xW0NIMl1bQ0gyXVtDSDJdW0NIXTFPW0NAQEhdKFtDSDJdW0NIM10pQyg9TylbTkhdW0NASF0oW0NIM10pW0NASF0oW0NIM10pbjJbY0hdbltjSF1uMg==

> <s_epik_cmdline>
J2VwaWtfcHl0aG9uJywgJy1waCcsICc3LjAnLCAnLXRuJywgJzgnLCAnLW1hJywgJzIwMCcsICctbWV0YWxfYmluZGluZycsICctaW1hZScsICc8aW5maWxlLm1hZT4nLCAnLW9tYWUnLCAnPG91dGZpbGUubWFlPic=

> <r_lp_tautomer_probability>
1

> <r_epik_Ionization_Penalty>
6.95617e-05

> <r_epik_Ionization_Penalty_Charging>
0

> <r_epik_Ionization_Penalty_Neutral>
6.95617e-05

> <r_epik_State_Penalty>
-0

> <r_epik_Charging_Adjusted_Penalty>
0

> <i_epik_Tot_Q>
0

> <i_epik_Tot_abs_Q>
0

> <r_epik_Metal_State_Penalty>
-0

> <b_epik_Metal_Only>
0

> <s_lp_Force_Field>
OPLS_2005

> <r_lp_Energy>
28.6706

> <b_lp_Chiralities_Consistent>
1

> <s_lp_Variant>
AV-unprocessed.smi:2902-2

> <Gold.Version>
5.8.1

> <Gold.Id.Protein>
6NUR|6NUR_protein|mol2

> <Gold.PLP.Fitness>
43.1920

> <Gold.PLP.PLP>
-37.8928

> <Gold.PLP.part.hbond>
-1.0000

> <Gold.PLP.part.metal>
0.0000

> <Gold.PLP.part.buried>
-2.5300

> <Gold.PLP.part.nonpolar>
-34.8728

> <Gold.PLP.part.repulsive>
0.3453

> <Gold.PLP.ligand.clash>
0.0000

> <Gold.PLP.ligand.torsion>
0.4710

> <Gold.PLP.Chemscore.Hbond>
1.0000

> <Gold.PLP.Chemscore.CHOScore>
1.0000

> <Gold.PLP.Chemscore.Metal>
0.0000

> <Gold.Chemscore.Hbonds>
donor molecule, donor type, donor heavy atom, donor atom, acceptor molecule, acceptor atom, score
      P1  H  7989  7998       L1    11  1.00
      L1  C    18    46       P1 10175  0.95

> <Gold.PLP.Chemscore.Internal.Correction>
0.2413

> <Gold.Rescore>
     Score         DG    S(hbond)    S(metal)    S(lipo)     H(rot)  DE(clash)    DE(int)     intcor
     11.03     -14.36       0.95        0.00     107.82       2.69       0.28       3.05       ----

> <Gold.Chemscore.Fitness>
11.0266

> <Gold.Chemscore.DG>
-14.3635

> <Gold.Chemscore.ZeroCoef>
-5.4800

> <Gold.Chemscore.Hbond>
0.9471

> <Gold.Chemscore.Metal>
0.0000

> <Gold.Chemscore.Lipo>
107.8244

> <Gold.Chemscore.Internal_Hbond>
0.0000

> <Gold.Chemscore.DEClash>
0.2820

> <Gold.Chemscore.DEInternal>
3.0548

> <Gold.Chemscore.Rot>
2.6935

> <Gold.Chemscore.Internal.Correction>
   9.000000E+99

> <Gold.Chemscore.Hbonds>
donor molecule, donor type, donor heavy atom, donor atom, acceptor molecule, acceptor atom, score
      P1  H  7989  7998       L1    11  0.55

> <Gold.Chemscore.Hbond.Weighted>
-3.1634

> <Gold.Chemscore.Metal.Weighted>
-0.0000

> <Gold.Chemscore.Lipo.Weighted>
-12.6155

> <Gold.Chemscore.Internal_Hbond.Weighted>
0.0000

> <Gold.Chemscore.DEClash.Weighted>
0.2820

> <Gold.Chemscore.DEInternal.Weighted>
3.0548

> <Gold.Chemscore.Rot.Weighted>
6.8954

> <Gold.Chemscore.Internal.Correction.Weighted>
   9.000000E+99

> <Gold.Protein.RotatedTorsions>
[ 6907 6896 6895 6894 ] final  151.12 input  -60.11 | X-H torsion
[ 7974 7965 7964 7962 ] final  105.42 input  175.53 | X-H torsion
[ 8008 7997 7996 7995 ] final -178.66 input   59.86 | X-H torsion
[ 10167 10162 10161 10158 ] final  -18.83 input  -65.29 | X-H torsion
[ 10718 10713 10712 10709 ] final -118.13 input   66.30 | X-H torsion
[ 10763 10752 10751 10750 ] final  149.41 input  -60.55 | X-H torsion
[ 11005 11000 10999 10996 ] final  -53.29 input  -57.11 | X-H torsion

> <Gold.Protein.ActiveResidues>
 VAL166  LYS551  ARG553  GLY616  TRP617  ASP618  TYR619  PRO620  LYS621  CYS622 
 ASP623  PHE694  ASN695  SER759  ASP760  ASP761  ALA762  ILE779  LEU786  VAL792 
 PHE793  MET794  SER795  GLU796  ALA797  LYS798  CYS799  TRP800  GLU811  SER814 

> <Gold.Protein.RotatedAtoms>
  152.1050  133.4270  159.4604 H   0  0  0  0  0  0  0  0  0  0  0  0  # atno 6907 bound_to 6896
  150.6865  134.2715  159.4599 H   0  0  0  0  0  0  0  0  0  0  0  0  # atno 6908 bound_to 6896
  152.0579  134.9612  160.0625 H   0  0  0  0  0  0  0  0  0  0  0  0  # atno 6909 bound_to 6896
  145.3200  139.2515  143.3717 H   0  0  0  0  0  0  0  0  0  0  0  0  # atno 7974 bound_to 7965
  156.0214  140.1262  157.0354 H   0  0  0  0  0  0  0  0  0  0  0  0  # atno 8008 bound_to 7997
  154.4313  140.1068  156.6039 H   0  0  0  0  0  0  0  0  0  0  0  0  # atno 8009 bound_to 7997
  155.5939  140.3469  155.4576 H   0  0  0  0  0  0  0  0  0  0  0  0  # atno 8010 bound_to 7997
  140.7262  143.4878  151.0031 H   0  0  0  0  0  0  0  0  0  0  0  0  # atno 10167 bound_to 10162
  156.1083  130.6228  150.9251 H   0  0  0  0  0  0  0  0  0  0  0  0  # atno 10718 bound_to 10713
  154.0706  135.2867  155.3309 H   0  0  0  0  0  0  0  0  0  0  0  0  # atno 10763 bound_to 10752
  154.6749  135.5285  153.8189 H   0  0  0  0  0  0  0  0  0  0  0  0  # atno 10764 bound_to 10752
  153.0487  135.6567  154.0888 H   0  0  0  0  0  0  0  0  0  0  0  0  # atno 10765 bound_to 10752
  141.0968  133.6623  156.4150 H   0  0  0  0  0  0  0  0  0  0  0  0  # atno 11005 bound_to 11000
  146.3086  140.3755  142.8678 LP  0  0  0  0  0  0  0  0  0  0  0  0  # atno 17320 bound_to 7965
  144.8947  140.7568  143.5904 LP  0  0  0  0  0  0  0  0  0  0  0  0  # atno 17321 bound_to 7965
  139.8581  143.7351  152.3175 LP  0  0  0  0  0  0  0  0  0  0  0  0  # atno 17342 bound_to 10162
  139.7556  144.7521  151.0440 LP  0  0  0  0  0  0  0  0  0  0  0  0  # atno 17343 bound_to 10162
  157.6262  131.0925  150.8528 LP  0  0  0  0  0  0  0  0  0  0  0  0  # atno 17370 bound_to 10713
  156.8643  130.5124  149.5301 LP  0  0  0  0  0  0  0  0  0  0  0  0  # atno 17371 bound_to 10713
  140.5119  134.6386  157.5287 LP  0  0  0  0  0  0  0  0  0  0  0  0  # atno 17394 bound_to 11000
  139.9807  134.7141  155.9864 LP  0  0  0  0  0  0  0  0  0  0  0  0  # atno 17395 bound_to 11000

$$$$
