AV-unprocessed.smi:873|AV-procd|sdf|4016|dock7
  -GOLD-   22720 1503D 1   1.00000     0.00000
 Structure written by MMmdl.
 45 48  0  0  0  0  0  0  0  0  1 V2000
  149.0424  135.0981  156.1191 O   0  0  0  0  0  0  0  0  0  0  0  0
  149.0389  135.3978  154.9257 C   0  0  0  0  0  0  0  0  0  0  0  0
  149.4183  136.5826  154.4169 N   0  0  0  0  0  0  0  0  0  0  0  0
  149.9478  137.7167  155.0907 C   0  0  0  0  0  0  0  0  0  0  0  0
  150.0728  137.8574  156.4956 C   0  0  0  0  0  0  0  0  0  0  0  0
  150.6048  138.9671  157.0527 N   0  0  0  0  0  0  0  0  0  0  0  0
  151.0220  139.9246  156.2200 C   0  0  0  0  0  0  0  0  0  0  0  0
  151.5764  141.1663  156.8467 C   0  0  0  0  0  0  0  0  0  0  0  0
  151.7101  141.2835  158.3517 C   0  0  0  0  0  0  0  0  0  0  0  0
  150.6807  142.1060  157.6282 C   0  0  0  0  0  0  0  0  0  0  0  0
  150.9485  139.9068  154.8865 N   0  0  0  0  0  0  0  0  0  0  0  0
  150.4182  138.8014  154.3211 C   0  0  0  0  0  0  0  0  0  0  0  0
  148.6354  134.5651  153.9559 N   0  0  0  0  0  0  0  0  0  0  0  0
  148.1566  133.2012  154.1608 C   0  0  0  0  0  0  0  0  0  0  0  0
  149.1075  132.1788  153.5131 C   0  0  0  0  0  0  0  0  0  0  0  0
  148.5272  130.7559  153.5944 C   0  0  0  0  0  0  0  0  0  0  0  0
  147.2210  130.7027  152.9372 N   0  0  0  0  0  0  0  0  0  0  0  0
  146.7206  129.3389  152.9964 C   0  0  0  0  0  0  0  0  0  0  0  0
  147.0598  128.4176  151.8468 C   0  0  0  0  0  0  0  0  0  0  0  0
  145.6527  128.9417  152.0027 C   0  0  0  0  0  0  0  0  0  0  0  0
  146.2792  131.5811  153.6311 C   0  0  0  0  0  0  0  0  0  0  0  0
  146.7560  133.0418  153.5486 C   0  0  0  0  0  0  0  0  0  0  0  0
  149.3020  136.6914  153.4200 H   0  0  0  0  0  0  0  0  0  0  0  0
  149.7679  137.0948  157.1941 H   0  0  0  0  0  0  0  0  0  0  0  0
  152.3597  141.6047  156.2313 H   0  0  0  0  0  0  0  0  0  0  0  0
  151.3509  140.4559  158.9602 H   0  0  0  0  0  0  0  0  0  0  0  0
  152.5854  141.8007  158.7388 H   0  0  0  0  0  0  0  0  0  0  0  0
  150.8668  143.1731  157.5284 H   0  0  0  0  0  0  0  0  0  0  0  0
  149.6372  141.8252  157.7573 H   0  0  0  0  0  0  0  0  0  0  0  0
  150.3687  138.7847  153.2422 H   0  0  0  0  0  0  0  0  0  0  0  0
  148.6640  134.8966  153.0030 H   0  0  0  0  0  0  0  0  0  0  0  0
  148.0888  132.9989  155.2316 H   0  0  0  0  0  0  0  0  0  0  0  0
  149.2815  132.4396  152.4679 H   0  0  0  0  0  0  0  0  0  0  0  0
  150.0810  132.2050  154.0041 H   0  0  0  0  0  0  0  0  0  0  0  0
  149.2081  130.0578  153.1059 H   0  0  0  0  0  0  0  0  0  0  0  0
  148.4388  130.4416  154.6360 H   0  0  0  0  0  0  0  0  0  0  0  0
  146.6484  128.8559  153.9697 H   0  0  0  0  0  0  0  0  0  0  0  0
  147.6562  128.8187  151.0293 H   0  0  0  0  0  0  0  0  0  0  0  0
  147.2344  127.3692  152.0797 H   0  0  0  0  0  0  0  0  0  0  0  0
  144.8899  128.2430  152.3402 H   0  0  0  0  0  0  0  0  0  0  0  0
  145.3152  129.6909  151.2888 H   0  0  0  0  0  0  0  0  0  0  0  0
  145.2944  131.4947  153.1703 H   0  0  0  0  0  0  0  0  0  0  0  0
  146.1735  131.2742  154.6730 H   0  0  0  0  0  0  0  0  0  0  0  0
  146.0468  133.6905  154.0636 H   0  0  0  0  0  0  0  0  0  0  0  0
  146.7649  133.3595  152.5046 H   0  0  0  0  0  0  0  0  0  0  0  0
  1  2  2  0  0  0  0
  2  3  1  0  0  0  0
  2 13  1  0  0  0  0
  3  4  1  0  0  0  0
  3 23  1  0  0  0  0
  4 12  1  0  0  0  0
  4  5  2  0  0  0  0
  5  6  1  0  0  0  0
  5 24  1  0  0  0  0
  6  7  2  0  0  0  0
  7  8  1  0  0  0  0
  7 11  1  0  0  0  0
  8 10  1  0  0  0  0
  8  9  1  0  0  0  0
  8 25  1  0  0  0  0
  9 10  1  0  0  0  0
  9 26  1  0  0  0  0
  9 27  1  0  0  0  0
 10 28  1  0  0  0  0
 10 29  1  0  0  0  0
 11 12  2  0  0  0  0
 12 30  1  0  0  0  0
 13 14  1  0  0  0  0
 13 31  1  0  0  0  0
 14 22  1  0  0  0  0
 14 15  1  0  0  0  0
 14 32  1  0  0  0  0
 15 16  1  0  0  0  0
 15 33  1  0  0  0  0
 15 34  1  0  0  0  0
 16 17  1  0  0  0  0
 16 35  1  0  0  0  0
 16 36  1  0  0  0  0
 17 18  1  0  0  0  0
 17 21  1  0  0  0  0
 18 20  1  0  0  0  0
 18 19  1  0  0  0  0
 18 37  1  0  0  0  0
 19 20  1  0  0  0  0
 19 38  1  0  0  0  0
 19 39  1  0  0  0  0
 20 40  1  0  0  0  0
 20 41  1  0  0  0  0
 21 22  1  0  0  0  0
 21 42  1  0  0  0  0
 21 43  1  0  0  0  0
 22 44  1  0  0  0  0
 22 45  1  0  0  0  0
M  END
> <s_m_source_file>
AV-unprocessed.smi

> <i_m_source_file_index>
873

> <i_lp_mmshare_version>
43012

> <i_f3d_flags>
0

> <s_epik_input>
W0NIMl0xW0NIMl1bQ0hdMU4oW0NIMl1bQ0gyXTIpW0NIMl1bQ0gyXVtDSF0yW05IXUMoPU8pW05IXWMzW2NIXW5jKG5bY0hdMylbQ0hdNFtDSDJdW0NIMl00

> <s_epik_cmdline>
J2VwaWtfcHl0aG9uJywgJy1waCcsICc3LjAnLCAnLXRuJywgJzgnLCAnLW1hJywgJzIwMCcsICctbWV0YWxfYmluZGluZycsICctaW1hZScsICc8aW5maWxlLm1hZT4nLCAnLW9tYWUnLCAnPG91dGZpbGUubWFlPic=

> <r_lp_tautomer_probability>
1

> <r_epik_Ionization_Penalty>
0.990889

> <r_epik_Ionization_Penalty_Charging>
0

> <r_epik_Ionization_Penalty_Neutral>
0.990889

> <r_epik_State_Penalty>
1.03856

> <r_epik_Charging_Adjusted_Penalty>
1.03856

> <i_epik_Tot_Q>
0

> <i_epik_Tot_abs_Q>
0

> <r_epik_Metal_State_Penalty>
1.03856

> <b_epik_Metal_Only>
0

> <s_lp_Force_Field>
OPLS_2005

> <r_lp_Energy>
20.0784

> <b_lp_Chiralities_Consistent>
1

> <s_lp_Variant>
AV-unprocessed.smi:873-3

> <Gold.Version>
5.8.1

> <Gold.Id.Protein>
6NUR|6NUR_protein|mol2

> <Gold.PLP.Fitness>
46.3599

> <Gold.PLP.PLP>
-34.4762

> <Gold.PLP.part.hbond>
-3.0000

> <Gold.PLP.part.metal>
0.0000

> <Gold.PLP.part.buried>
-5.2984

> <Gold.PLP.part.nonpolar>
-25.5257

> <Gold.PLP.part.repulsive>
0.2236

> <Gold.PLP.ligand.clash>
0.0000

> <Gold.PLP.ligand.torsion>
0.7002

> <Gold.PLP.Chemscore.Hbond>
3.0000

> <Gold.PLP.Chemscore.CHOScore>
0.9998

> <Gold.PLP.Chemscore.Metal>
0.0000

> <Gold.Chemscore.Hbonds>
donor molecule, donor type, donor heavy atom, donor atom, acceptor molecule, acceptor atom, score
      L1  H     3    23       P1  7948  1.00
      L1  H    13    31       P1  7948  1.00
      P1  H  7989  7998       L1    11  1.00
      L1  C    12    30       P1  7957  1.00

> <Gold.PLP.Chemscore.Internal.Correction>
1.2845

> <Gold.Rescore>
     Score         DG    S(hbond)    S(metal)    S(lipo)     H(rot)  DE(clash)    DE(int)     intcor
     18.18     -20.08       2.46        0.00      83.64       1.33       0.01       1.89       ----

> <Gold.Chemscore.Fitness>
18.1829

> <Gold.Chemscore.DG>
-20.0787

> <Gold.Chemscore.ZeroCoef>
-5.4800

> <Gold.Chemscore.Hbond>
2.4610

> <Gold.Chemscore.Metal>
0.0000

> <Gold.Chemscore.Lipo>
83.6431

> <Gold.Chemscore.Internal_Hbond>
0.0000

> <Gold.Chemscore.DEClash>
0.0106

> <Gold.Chemscore.DEInternal>
1.8851

> <Gold.Chemscore.Rot>
1.3310

> <Gold.Chemscore.Internal.Correction>
   9.000000E+99

> <Gold.Chemscore.Hbonds>
donor molecule, donor type, donor heavy atom, donor atom, acceptor molecule, acceptor atom, score
      L1  H     3    23       P1  7948  0.93
      L1  H    13    31       P1  7948  0.37
      P1  H  7989  7998       L1    11  0.50

> <Gold.Chemscore.Hbond.Weighted>
-8.2199

> <Gold.Chemscore.Metal.Weighted>
-0.0000

> <Gold.Chemscore.Lipo.Weighted>
-9.7862

> <Gold.Chemscore.Internal_Hbond.Weighted>
0.0000

> <Gold.Chemscore.DEClash.Weighted>
0.0106

> <Gold.Chemscore.DEInternal.Weighted>
1.8851

> <Gold.Chemscore.Rot.Weighted>
3.4075

> <Gold.Chemscore.Internal.Correction.Weighted>
   9.000000E+99

> <Gold.Protein.RotatedTorsions>
[ 6907 6896 6895 6894 ] final   83.29 input  -60.11 | X-H torsion
[ 7974 7965 7964 7962 ] final  113.66 input  175.53 | X-H torsion
[ 8008 7997 7996 7995 ] final   36.20 input   59.86 | X-H torsion
[ 10167 10162 10161 10158 ] final  151.66 input  -65.29 | X-H torsion
[ 10718 10713 10712 10709 ] final  -95.67 input   66.30 | X-H torsion
[ 10763 10752 10751 10750 ] final   22.88 input  -60.55 | X-H torsion
[ 11005 11000 10999 10996 ] final  105.17 input  -57.11 | X-H torsion

> <Gold.Protein.ActiveResidues>
 VAL166  LYS551  ARG553  GLY616  TRP617  ASP618  TYR619  PRO620  LYS621  CYS622 
 ASP623  PHE694  ASN695  SER759  ASP760  ASP761  ALA762  ILE779  LEU786  VAL792 
 PHE793  MET794  SER795  GLU796  ALA797  LYS798  CYS799  TRP800  GLU811  SER814 

> <Gold.Protein.RotatedAtoms>
  152.5323  134.2918  159.9045 H   0  0  0  0  0  0  0  0  0  0  0  0  # atno 6907 bound_to 6896
  151.2870  133.4176  159.2638 H   0  0  0  0  0  0  0  0  0  0  0  0  # atno 6908 bound_to 6896
  151.0234  134.9501  159.8129 H   0  0  0  0  0  0  0  0  0  0  0  0  # atno 6909 bound_to 6896
  145.2141  139.2892  143.4253 H   0  0  0  0  0  0  0  0  0  0  0  0  # atno 7974 bound_to 7965
  155.1836  140.3302  155.4371 H   0  0  0  0  0  0  0  0  0  0  0  0  # atno 8008 bound_to 7997
  156.2468  140.1922  156.6883 H   0  0  0  0  0  0  0  0  0  0  0  0  # atno 8009 bound_to 7997
  154.6254  140.0589  156.9653 H   0  0  0  0  0  0  0  0  0  0  0  0  # atno 8010 bound_to 7997
  139.4839  144.5423  151.7544 H   0  0  0  0  0  0  0  0  0  0  0  0  # atno 10167 bound_to 10162
  156.0047  130.5119  150.6111 H   0  0  0  0  0  0  0  0  0  0  0  0  # atno 10718 bound_to 10713
  153.0881  135.6639  153.9908 H   0  0  0  0  0  0  0  0  0  0  0  0  # atno 10763 bound_to 10752
  153.9512  135.2983  155.3440 H   0  0  0  0  0  0  0  0  0  0  0  0  # atno 10764 bound_to 10752
  154.7292  135.5130  153.9009 H   0  0  0  0  0  0  0  0  0  0  0  0  # atno 10765 bound_to 10752
  139.8799  134.9326  156.5474 H   0  0  0  0  0  0  0  0  0  0  0  0  # atno 11005 bound_to 11000
  146.3391  140.2426  142.8596 LP  0  0  0  0  0  0  0  0  0  0  0  0  # atno 17320 bound_to 7965
  144.9827  140.8475  143.5387 LP  0  0  0  0  0  0  0  0  0  0  0  0  # atno 17321 bound_to 7965
  140.4964  144.1234  150.5961 LP  0  0  0  0  0  0  0  0  0  0  0  0  # atno 17342 bound_to 10162
  140.4112  143.2656  151.9830 LP  0  0  0  0  0  0  0  0  0  0  0  0  # atno 17343 bound_to 10162
  157.3943  131.0800  151.1366 LP  0  0  0  0  0  0  0  0  0  0  0  0  # atno 17370 bound_to 10713
  157.2048  130.6411  149.5752 LP  0  0  0  0  0  0  0  0  0  0  0  0  # atno 17371 bound_to 10713
  140.8266  133.8312  155.8944 LP  0  0  0  0  0  0  0  0  0  0  0  0  # atno 17394 bound_to 11000
  140.9368  134.1951  157.4825 LP  0  0  0  0  0  0  0  0  0  0  0  0  # atno 17395 bound_to 11000

$$$$
