AV-unprocessed.smi:3252|AV-procd|sdf|12440|dock5
  -GOLD-   2272018333D 1   1.00000     0.00000
 Structure written by MMmdl.
 37 38  0  0  0  0  0  0  0  0  2 V2000
  143.8349  132.7641  148.4358 C   0  0  0  0  0  0  0  0  0  0  0  0
  144.2425  132.9872  149.8987 C   0  0  0  0  0  0  0  0  0  0  0  0
  145.3000  134.0230  150.0407 N   0  3  2  0  0  0  0  0  0  0  0  0
  146.4956  133.5506  150.7799 C   0  0  0  0  0  0  0  0  0  0  0  0
  146.2396  133.5368  152.2966 C   0  0  0  0  0  0  0  0  0  0  0  0
  145.8492  134.8376  152.7153 O   0  0  0  0  0  0  0  0  0  0  0  0
  144.6293  135.2660  152.1182 C   0  0  1  0  0  0  0  0  0  0  0  0
  144.2540  136.6473  152.6839 C   0  0  0  0  0  0  0  0  0  0  0  0
  145.0398  137.7260  152.0953 N   0  0  0  0  0  0  0  0  0  0  0  0
  146.1470  138.2796  152.7552 C   0  0  0  0  0  0  0  0  0  0  0  0
  146.6645  139.5061  152.2878 C   0  0  0  0  0  0  0  0  0  0  0  0
  147.7766  140.0699  152.9437 C   0  0  0  0  0  0  0  0  0  0  0  0
  148.3324  139.3875  154.0438 C   0  0  0  0  0  0  0  0  0  0  0  0
  149.4779  139.9281  154.7550 C   0  0  0  0  0  0  0  0  0  0  0  0
  150.3904  140.3587  155.3212 N   0  0  0  0  0  0  0  0  0  0  0  0
  147.7488  138.1664  154.4368 C   0  0  0  0  0  0  0  0  0  0  0  0
  146.6837  137.6213  153.8103 N   0  0  0  0  0  0  0  0  0  0  0  0
  144.8320  135.3235  150.5873 C   0  0  0  0  0  0  0  0  0  0  0  0
  143.1335  131.9331  148.3566 H   0  0  0  0  0  0  0  0  0  0  0  0
  144.7007  132.5239  147.8178 H   0  0  0  0  0  0  0  0  0  0  0  0
  143.3469  133.6392  148.0077 H   0  0  0  0  0  0  0  0  0  0  0  0
  143.3701  133.2319  150.5041 H   0  0  0  0  0  0  0  0  0  0  0  0
  144.6219  132.0390  150.2814 H   0  0  0  0  0  0  0  0  0  0  0  0
  146.8059  132.5662  150.4281 H   0  0  0  0  0  0  0  0  0  0  0  0
  147.3226  134.2275  150.5619 H   0  0  0  0  0  0  0  0  0  0  0  0
  145.4769  132.8051  152.5668 H   0  0  0  0  0  0  0  0  0  0  0  0
  147.1496  133.2561  152.8271 H   0  0  0  0  0  0  0  0  0  0  0  0
  143.8333  134.5607  152.3624 H   0  0  0  0  0  0  0  0  0  0  0  0
  143.1845  136.8342  152.5820 H   0  0  0  0  0  0  0  0  0  0  0  0
  144.4590  136.6610  153.7546 H   0  0  0  0  0  0  0  0  0  0  0  0
  144.6919  138.1731  151.2592 H   0  0  0  0  0  0  0  0  0  0  0  0
  146.2200  140.0106  151.4422 H   0  0  0  0  0  0  0  0  0  0  0  0
  148.1903  141.0088  152.6046 H   0  0  0  0  0  0  0  0  0  0  0  0
  148.1415  137.6080  155.2745 H   0  0  0  0  0  0  0  0  0  0  0  0
  145.5875  136.0754  150.3538 H   0  0  0  0  0  0  0  0  0  0  0  0
  143.9200  135.6506  150.0896 H   0  0  0  0  0  0  0  0  0  0  0  0
  145.6153  134.2045  149.0984 H   0  0  0  0  0  0  0  0  0  0  0  0
  1  2  1  0  0  0  0
  1 19  1  0  0  0  0
  1 20  1  0  0  0  0
  1 21  1  0  0  0  0
  2  3  1  0  0  0  0
  2 22  1  0  0  0  0
  2 23  1  0  0  0  0
  3 18  1  0  0  0  0
  3  4  1  0  0  0  0
  3 37  1  0  0  0  0
  4  5  1  0  0  0  0
  4 24  1  0  0  0  0
  4 25  1  0  0  0  0
  5  6  1  0  0  0  0
  5 26  1  0  0  0  0
  5 27  1  0  0  0  0
  6  7  1  0  0  0  0
  7  8  1  0  0  0  0
  7 18  1  0  0  0  0
  7 28  1  0  0  0  0
  8  9  1  0  0  0  0
  8 29  1  0  0  0  0
  8 30  1  0  0  0  0
  9 10  1  0  0  0  0
  9 31  1  0  0  0  0
 10 17  1  0  0  0  0
 10 11  2  0  0  0  0
 11 12  1  0  0  0  0
 11 32  1  0  0  0  0
 12 13  2  0  0  0  0
 12 33  1  0  0  0  0
 13 14  1  0  0  0  0
 13 16  1  0  0  0  0
 14 15  3  0  0  0  0
 16 17  2  0  0  0  0
 16 34  1  0  0  0  0
 18 35  1  0  0  0  0
 18 36  1  0  0  0  0
M  CHG  1   3   1
M  END
> <s_m_source_file>
AV-unprocessed.smi

> <i_m_source_file_index>
3252

> <i_lp_mmshare_version>
43012

> <i_f3d_flags>
0

> <s_epik_input>
W0NIM11bQ0gyXU4xW0NIMl1bQ0gyXU9bQ0BIXShbQ0gyXTEpW0NIMl1bTkhdYzJbY0hdW2NIXWMoQyNOKVtjSF1uMg==

> <s_epik_cmdline>
J2VwaWtfcHl0aG9uJywgJy1waCcsICc3LjAnLCAnLXRuJywgJzgnLCAnLW1hJywgJzIwMCcsICctbWV0YWxfYmluZGluZycsICctaW1hZScsICc8aW5maWxlLm1hZT4nLCAnLW9tYWUnLCAnPG91dGZpbGUubWFlPic=

> <r_epik_Ionization_Penalty>
0.178512

> <r_epik_Ionization_Penalty_Charging>
0.178504

> <r_epik_Ionization_Penalty_Neutral>
8.15545e-06

> <r_epik_State_Penalty>
0.167974

> <r_epik_Charging_Adjusted_Penalty>
0.346478

> <i_epik_Tot_Q>
1

> <i_epik_Tot_abs_Q>
1

> <r_epik_Metal_State_Penalty>
0.167974

> <b_epik_Metal_Only>
0

> <s_lp_Force_Field>
OPLS_2005

> <r_lp_Energy>
19.5584

> <b_lp_Chiralities_Consistent>
1

> <s_lp_Variant>
AV-unprocessed.smi:3252-2

> <Gold.Version>
5.8.1

> <Gold.Id.Protein>
6NUR|6NUR_protein|mol2

> <Gold.PLP.Fitness>
38.3509

> <Gold.PLP.PLP>
-31.3939

> <Gold.PLP.part.hbond>
-3.9310

> <Gold.PLP.part.metal>
0.0000

> <Gold.PLP.part.buried>
3.8817

> <Gold.PLP.part.nonpolar>
-31.4966

> <Gold.PLP.part.repulsive>
0.4422

> <Gold.PLP.ligand.clash>
0.0000

> <Gold.PLP.ligand.torsion>
1.0314

> <Gold.PLP.Chemscore.Hbond>
3.0000

> <Gold.PLP.Chemscore.CHOScore>
0.0000

> <Gold.PLP.Chemscore.Metal>
0.0000

> <Gold.Chemscore.Hbonds>
donor molecule, donor type, donor heavy atom, donor atom, acceptor molecule, acceptor atom, score
      L1  H     3    37       P1  7921  1.00
      L1  H     9    31       P1 10171  1.00
      P1  H  7989  7998       L1    15  0.36

> <Gold.PLP.Chemscore.Internal.Correction>
0.0198

> <Gold.Rescore>
     Score         DG    S(hbond)    S(metal)    S(lipo)     H(rot)  DE(clash)    DE(int)     intcor
     14.95     -17.77       2.05        0.00      78.69       1.47       1.90       0.92       ----

> <Gold.Chemscore.Fitness>
14.9467

> <Gold.Chemscore.DG>
-17.7663

> <Gold.Chemscore.ZeroCoef>
-5.4800

> <Gold.Chemscore.Hbond>
2.0473

> <Gold.Chemscore.Metal>
0.0000

> <Gold.Chemscore.Lipo>
78.6905

> <Gold.Chemscore.Internal_Hbond>
0.0000

> <Gold.Chemscore.DEClash>
1.8953

> <Gold.Chemscore.DEInternal>
0.9244

> <Gold.Chemscore.Rot>
1.4681

> <Gold.Chemscore.Internal.Correction>
   9.000000E+99

> <Gold.Chemscore.Hbonds>
donor molecule, donor type, donor heavy atom, donor atom, acceptor molecule, acceptor atom, score
      L1  H     3    37       P1  7921  0.78
      L1  H     9    31       P1 10171  1.00
      P1  H  7989  7998       L1    15  0.06

> <Gold.Chemscore.Hbond.Weighted>
-6.8380

> <Gold.Chemscore.Metal.Weighted>
-0.0000

> <Gold.Chemscore.Lipo.Weighted>
-9.2068

> <Gold.Chemscore.Internal_Hbond.Weighted>
0.0000

> <Gold.Chemscore.DEClash.Weighted>
1.8953

> <Gold.Chemscore.DEInternal.Weighted>
0.9244

> <Gold.Chemscore.Rot.Weighted>
3.7584

> <Gold.Chemscore.Internal.Correction.Weighted>
   9.000000E+99

> <Gold.Protein.RotatedTorsions>
[ 6907 6896 6895 6894 ] final  179.25 input  -60.11 | X-H torsion
[ 7974 7965 7964 7962 ] final  -53.71 input  175.53 | X-H torsion
[ 8008 7997 7996 7995 ] final -130.12 input   59.86 | X-H torsion
[ 10167 10162 10161 10158 ] final  134.67 input  -65.29 | X-H torsion
[ 10718 10713 10712 10709 ] final   -1.64 input   66.30 | X-H torsion
[ 10763 10752 10751 10750 ] final  175.10 input  -60.55 | X-H torsion
[ 11005 11000 10999 10996 ] final   23.43 input  -57.11 | X-H torsion

> <Gold.Protein.ActiveResidues>
 VAL166  LYS551  ARG553  GLY616  TRP617  ASP618  TYR619  PRO620  LYS621  CYS622 
 ASP623  PHE694  ASN695  SER759  ASP760  ASP761  ALA762  ILE779  LEU786  VAL792 
 PHE793  MET794  SER795  GLU796  ALA797  LYS798  CYS799  TRP800  GLU811  SER814 

> <Gold.Protein.RotatedAtoms>
  151.6747  133.3313  159.3204 H   0  0  0  0  0  0  0  0  0  0  0  0  # atno 6907 bound_to 6896
  150.7851  134.6832  159.6465 H   0  0  0  0  0  0  0  0  0  0  0  0  # atno 6908 bound_to 6896
  152.3918  134.6432  160.0156 H   0  0  0  0  0  0  0  0  0  0  0  0  # atno 6909 bound_to 6896
  145.8938  140.8049  142.9778 H   0  0  0  0  0  0  0  0  0  0  0  0  # atno 7974 bound_to 7965
  155.2904  140.0448  157.3022 H   0  0  0  0  0  0  0  0  0  0  0  0  # atno 8008 bound_to 7997
  154.5544  140.2327  155.8401 H   0  0  0  0  0  0  0  0  0  0  0  0  # atno 8009 bound_to 7997
  156.1995  140.3029  155.9503 H   0  0  0  0  0  0  0  0  0  0  0  0  # atno 8010 bound_to 7997
  139.5247  144.6556  151.5173 H   0  0  0  0  0  0  0  0  0  0  0  0  # atno 10167 bound_to 10162
  156.8026  130.5398  149.5719 H   0  0  0  0  0  0  0  0  0  0  0  0  # atno 10718 bound_to 10713
  154.4629  135.2768  155.1699 H   0  0  0  0  0  0  0  0  0  0  0  0  # atno 10763 bound_to 10752
  154.3480  135.6156  153.5632 H   0  0  0  0  0  0  0  0  0  0  0  0  # atno 10764 bound_to 10752
  152.9856  135.5804  154.4995 H   0  0  0  0  0  0  0  0  0  0  0  0  # atno 10765 bound_to 10752
  140.3697  134.2036  155.7667 H   0  0  0  0  0  0  0  0  0  0  0  0  # atno 11005 bound_to 11000
  144.6732  140.1571  143.7425 LP  0  0  0  0  0  0  0  0  0  0  0  0  # atno 17320 bound_to 7965
  145.8875  139.2357  143.1569 LP  0  0  0  0  0  0  0  0  0  0  0  0  # atno 17321 bound_to 7965
  140.6380  143.8946  150.6665 LP  0  0  0  0  0  0  0  0  0  0  0  0  # atno 17342 bound_to 10162
  140.2272  143.3764  152.1595 LP  0  0  0  0  0  0  0  0  0  0  0  0  # atno 17343 bound_to 10162
  156.1092  130.6028  151.0020 LP  0  0  0  0  0  0  0  0  0  0  0  0  # atno 17370 bound_to 10713
  157.6546  131.0891  150.7975 LP  0  0  0  0  0  0  0  0  0  0  0  0  # atno 17371 bound_to 10713
  141.1958  133.8096  157.0698 LP  0  0  0  0  0  0  0  0  0  0  0  0  # atno 17394 bound_to 11000
  140.0561  134.9780  157.1223 LP  0  0  0  0  0  0  0  0  0  0  0  0  # atno 17395 bound_to 11000

$$$$
