AV-unprocessed.smi:623|AV-procd|sdf|3091|dock7
  -GOLD-   22720 0 13D 1   1.00000     0.00000
 Structure written by MMmdl.
 45 47  0  0  0  0  0  0  0  0  1 V2000
  150.0558  139.2801  157.2570 C   0  0  0  0  0  0  0  0  0  0  0  0
  149.2643  140.2524  156.3380 C   0  0  0  0  0  0  0  0  0  0  0  0
  149.1461  141.5772  157.1431 C   0  0  0  0  0  0  0  0  0  0  0  0
  149.8657  140.4238  154.9285 C   0  0  2  0  0  0  0  0  0  0  0  0
  148.8353  141.3127  154.1972 C   0  0  0  0  0  0  0  0  0  0  0  0
  147.4969  140.8340  154.7938 C   0  0  0  0  0  0  0  0  0  0  0  0
  147.9378  139.6939  155.7535 C   0  0  2  0  0  0  0  0  0  0  0  0
  146.8578  139.3240  156.7852 C   0  0  0  0  0  0  0  0  0  0  0  0
  148.4238  138.4857  154.8902 C   0  0  1  0  0  0  0  0  0  0  0  0
  147.5044  138.0955  153.8209 N   0  0  0  0  0  0  0  0  0  0  0  0
  146.8660  136.9190  153.7351 C   0  0  0  0  0  0  0  0  0  0  0  0
  146.9866  136.0227  154.5718 O   0  0  0  0  0  0  0  0  0  0  0  0
  145.9298  136.7466  152.5311 C   0  0  0  0  0  0  0  0  0  0  0  0
  144.6214  136.1884  152.9011 N   0  0  0  0  0  0  0  0  0  0  0  0
  143.4642  136.9289  152.7047 C   0  0  0  0  0  0  0  0  0  0  0  0
  142.2296  136.4860  153.0416 C   0  0  0  0  0  0  0  0  0  0  0  0
  142.0567  135.1688  153.6450 C   0  0  0  0  0  0  0  0  0  0  0  0
  140.9813  134.6792  153.9833 O   0  0  0  0  0  0  0  0  0  0  0  0
  143.2445  134.4554  153.8278 N   0  0  0  0  0  0  0  0  0  0  0  0
  144.5198  134.9069  153.4851 C   0  0  0  0  0  0  0  0  0  0  0  0
  145.5036  134.1982  153.6956 O   0  0  0  0  0  0  0  0  0  0  0  0
  149.7573  139.0118  154.3121 C   0  0  0  0  0  0  0  0  0  0  0  0
  143.1741  133.5386  154.2449 H   0  0  0  0  0  0  0  0  0  0  0  0
  151.0342  139.6955  157.5003 H   0  0  0  0  0  0  0  0  0  0  0  0
  150.2390  138.2927  156.8402 H   0  0  0  0  0  0  0  0  0  0  0  0
  149.5309  139.1260  158.2000 H   0  0  0  0  0  0  0  0  0  0  0  0
  148.6277  142.3855  156.6323 H   0  0  0  0  0  0  0  0  0  0  0  0
  150.1352  141.9606  157.3953 H   0  0  0  0  0  0  0  0  0  0  0  0
  148.6184  141.4140  158.0831 H   0  0  0  0  0  0  0  0  0  0  0  0
  150.8784  140.8275  154.9057 H   0  0  0  0  0  0  0  0  0  0  0  0
  149.0024  142.3712  154.3976 H   0  0  0  0  0  0  0  0  0  0  0  0
  148.8717  141.1826  153.1151 H   0  0  0  0  0  0  0  0  0  0  0  0
  147.0029  141.6413  155.3348 H   0  0  0  0  0  0  0  0  0  0  0  0
  146.7911  140.5183  154.0262 H   0  0  0  0  0  0  0  0  0  0  0  0
  145.9480  138.9787  156.2942 H   0  0  0  0  0  0  0  0  0  0  0  0
  146.5878  140.1796  157.4040 H   0  0  0  0  0  0  0  0  0  0  0  0
  147.1972  138.5277  157.4475 H   0  0  0  0  0  0  0  0  0  0  0  0
  148.6228  137.6171  155.5196 H   0  0  0  0  0  0  0  0  0  0  0  0
  147.3402  138.7760  153.0934 H   0  0  0  0  0  0  0  0  0  0  0  0
  145.8027  137.7219  152.0591 H   0  0  0  0  0  0  0  0  0  0  0  0
  146.4093  136.1214  151.7750 H   0  0  0  0  0  0  0  0  0  0  0  0
  143.5462  137.9133  152.2659 H   0  0  0  0  0  0  0  0  0  0  0  0
  141.3657  137.1104  152.8656 H   0  0  0  0  0  0  0  0  0  0  0  0
  149.7691  139.0421  153.2213 H   0  0  0  0  0  0  0  0  0  0  0  0
  150.5923  138.3795  154.6141 H   0  0  0  0  0  0  0  0  0  0  0  0
  1  2  1  0  0  0  0
  1 24  1  0  0  0  0
  1 25  1  0  0  0  0
  1 26  1  0  0  0  0
  2  7  1  0  0  0  0
  2  3  1  0  0  0  0
  2  4  1  0  0  0  0
  3 27  1  0  0  0  0
  3 28  1  0  0  0  0
  3 29  1  0  0  0  0
  4 22  1  0  0  0  0
  4  5  1  0  0  0  0
  4 30  1  0  0  0  0
  5  6  1  0  0  0  0
  5 31  1  0  0  0  0
  5 32  1  0  0  0  0
  6  7  1  0  0  0  0
  6 33  1  0  0  0  0
  6 34  1  0  0  0  0
  7  8  1  0  0  0  0
  7  9  1  0  0  0  0
  8 35  1  0  0  0  0
  8 36  1  0  0  0  0
  8 37  1  0  0  0  0
  9 10  1  0  0  0  0
  9 22  1  0  0  0  0
  9 38  1  0  0  0  0
 10 11  1  0  0  0  0
 10 39  1  0  0  0  0
 11 12  2  0  0  0  0
 11 13  1  0  0  0  0
 13 14  1  0  0  0  0
 13 40  1  0  0  0  0
 13 41  1  0  0  0  0
 14 20  1  0  0  0  0
 14 15  1  0  0  0  0
 15 16  2  0  0  0  0
 15 42  1  0  0  0  0
 16 17  1  0  0  0  0
 16 43  1  0  0  0  0
 17 18  2  0  0  0  0
 17 19  1  0  0  0  0
 19 23  1  0  0  0  0
 19 20  1  0  0  0  0
 20 21  2  0  0  0  0
 22 44  1  0  0  0  0
 22 45  1  0  0  0  0
M  END
> <s_m_source_file>
AV-unprocessed.smi

> <i_m_source_file_index>
623

> <i_lp_mmshare_version>
43012

> <i_f3d_flags>
0

> <s_epik_input>
W0NIM11bQ0BdMTJDKFtDSDNdKShbQ0gzXSlbQ0BIXShbQ0gyXVtDSDJdMSlbQ0gyXVtDQEBIXTJbTkhdQyg9TylbQ0gyXW4zW2NIXVtjSF1jKD1PKVtuSF1jMz1P

> <s_epik_cmdline>
J2VwaWtfcHl0aG9uJywgJy1waCcsICc3LjAnLCAnLXRuJywgJzgnLCAnLW1hJywgJzIwMCcsICctbWV0YWxfYmluZGluZycsICctaW1hZScsICc8aW5maWxlLm1hZT4nLCAnLW9tYWUnLCAnPG91dGZpbGUubWFlPic=

> <r_lp_tautomer_probability>
0.999537

> <r_epik_Ionization_Penalty>
0.00303563

> <r_epik_Ionization_Penalty_Charging>
0.00303561

> <r_epik_Ionization_Penalty_Neutral>
2.03238e-08

> <r_epik_State_Penalty>
0.00213308

> <r_epik_Charging_Adjusted_Penalty>
0.00516869

> <i_epik_Tot_Q>
0

> <i_epik_Tot_abs_Q>
0

> <r_epik_Metal_State_Penalty>
0.361714

> <b_epik_Metal_Only>
0

> <s_lp_Force_Field>
OPLS_2005

> <r_lp_Energy>
55.109

> <b_lp_Chiralities_Consistent>
1

> <s_lp_Variant>
AV-unprocessed.smi:623-1

> <Gold.Version>
5.8.1

> <Gold.Id.Protein>
6NUR|6NUR_protein|mol2

> <Gold.PLP.Fitness>
37.1260

> <Gold.PLP.PLP>
-25.5843

> <Gold.PLP.part.hbond>
-3.4177

> <Gold.PLP.part.metal>
0.0000

> <Gold.PLP.part.buried>
-2.4319

> <Gold.PLP.part.nonpolar>
-19.5909

> <Gold.PLP.part.repulsive>
0.3413

> <Gold.PLP.ligand.clash>
0.0000

> <Gold.PLP.ligand.torsion>
0.2230

> <Gold.PLP.Chemscore.Hbond>
1.9913

> <Gold.PLP.Chemscore.CHOScore>
2.0000

> <Gold.PLP.Chemscore.Metal>
0.0000

> <Gold.Chemscore.Hbonds>
donor molecule, donor type, donor heavy atom, donor atom, acceptor molecule, acceptor atom, score
      L1  H    19    23       P1 10957  1.00
      P1  H 11000 11005       L1    18  1.00
      L1  C    15    42       P1 10171  0.95
      L1  C    15    42       P1 10175  1.00

> <Gold.PLP.Chemscore.Internal.Correction>
0.0139

> <Gold.Rescore>
     Score         DG    S(hbond)    S(metal)    S(lipo)     H(rot)  DE(clash)    DE(int)     intcor
     10.32     -14.24       1.99        0.00      54.37       1.66       0.08       3.84       ----

> <Gold.Chemscore.Fitness>
10.3228

> <Gold.Chemscore.DG>
-14.2421

> <Gold.Chemscore.ZeroCoef>
-5.4800

> <Gold.Chemscore.Hbond>
1.9948

> <Gold.Chemscore.Metal>
0.0000

> <Gold.Chemscore.Lipo>
54.3683

> <Gold.Chemscore.Internal_Hbond>
0.0000

> <Gold.Chemscore.DEClash>
0.0838

> <Gold.Chemscore.DEInternal>
3.8355

> <Gold.Chemscore.Rot>
1.6647

> <Gold.Chemscore.Internal.Correction>
   9.000000E+99

> <Gold.Chemscore.Hbonds>
donor molecule, donor type, donor heavy atom, donor atom, acceptor molecule, acceptor atom, score
      L1  H    19    23       P1 10957  1.00
      P1  H 11000 11005       L1    18  0.99

> <Gold.Chemscore.Hbond.Weighted>
-6.6627

> <Gold.Chemscore.Metal.Weighted>
-0.0000

> <Gold.Chemscore.Lipo.Weighted>
-6.3611

> <Gold.Chemscore.Internal_Hbond.Weighted>
0.0000

> <Gold.Chemscore.DEClash.Weighted>
0.0838

> <Gold.Chemscore.DEInternal.Weighted>
3.8355

> <Gold.Chemscore.Rot.Weighted>
4.2617

> <Gold.Chemscore.Internal.Correction.Weighted>
   9.000000E+99

> <Gold.Protein.RotatedTorsions>
[ 6907 6896 6895 6894 ] final -120.76 input  -60.11 | X-H torsion
[ 7974 7965 7964 7962 ] final   10.54 input  175.53 | X-H torsion
[ 8008 7997 7996 7995 ] final -151.90 input   59.86 | X-H torsion
[ 10167 10162 10161 10158 ] final  142.99 input  -65.29 | X-H torsion
[ 10718 10713 10712 10709 ] final -174.55 input   66.30 | X-H torsion
[ 10763 10752 10751 10750 ] final   78.12 input  -60.55 | X-H torsion
[ 11005 11000 10999 10996 ] final   12.34 input  -57.11 | X-H torsion

> <Gold.Protein.ActiveResidues>
 VAL166  LYS551  ARG553  GLY616  TRP617  ASP618  TYR619  PRO620  LYS621  CYS622 
 ASP623  PHE694  ASN695  SER759  ASP760  ASP761  ALA762  ILE779  LEU786  VAL792 
 PHE793  MET794  SER795  GLU796  ALA797  LYS798  CYS799  TRP800  GLU811  SER814 

> <Gold.Protein.RotatedAtoms>
  150.8422  133.7918  159.3056 H   0  0  0  0  0  0  0  0  0  0  0  0  # atno 6907 bound_to 6896
  151.5616  135.1063  159.9983 H   0  0  0  0  0  0  0  0  0  0  0  0  # atno 6908 bound_to 6896
  152.4483  133.7537  159.6764 H   0  0  0  0  0  0  0  0  0  0  0  0  # atno 6909 bound_to 6896
  146.2386  139.9619  142.8457 H   0  0  0  0  0  0  0  0  0  0  0  0  # atno 7974 bound_to 7965
  155.6468  140.0707  157.2600 H   0  0  0  0  0  0  0  0  0  0  0  0  # atno 8008 bound_to 7997
  154.4171  140.1740  156.1681 H   0  0  0  0  0  0  0  0  0  0  0  0  # atno 8009 bound_to 7997
  155.9810  140.3353  155.6666 H   0  0  0  0  0  0  0  0  0  0  0  0  # atno 8010 bound_to 7997
  139.4980  144.6070  151.6356 H   0  0  0  0  0  0  0  0  0  0  0  0  # atno 10167 bound_to 10162
  156.7868  130.9503  151.3120 H   0  0  0  0  0  0  0  0  0  0  0  0  # atno 10718 bound_to 10713
  153.0850  135.4889  154.8578 H   0  0  0  0  0  0  0  0  0  0  0  0  # atno 10763 bound_to 10752
  154.7199  135.3037  154.9067 H   0  0  0  0  0  0  0  0  0  0  0  0  # atno 10764 bound_to 10752
  153.9735  135.6798  153.4801 H   0  0  0  0  0  0  0  0  0  0  0  0  # atno 10765 bound_to 10752
  140.4931  134.0821  155.7776 H   0  0  0  0  0  0  0  0  0  0  0  0  # atno 11005 bound_to 11000
  145.1763  140.9745  143.4292 LP  0  0  0  0  0  0  0  0  0  0  0  0  # atno 17320 bound_to 7965
  144.9982  139.3623  143.6180 LP  0  0  0  0  0  0  0  0  0  0  0  0  # atno 17321 bound_to 7965
  140.5735  144.0069  150.6229 LP  0  0  0  0  0  0  0  0  0  0  0  0  # atno 17342 bound_to 10162
  140.3194  143.3147  152.0799 LP  0  0  0  0  0  0  0  0  0  0  0  0  # atno 17343 bound_to 10162
  157.6620  130.8974  149.9850 LP  0  0  0  0  0  0  0  0  0  0  0  0  # atno 17370 bound_to 10713
  156.1184  130.3647  149.9929 LP  0  0  0  0  0  0  0  0  0  0  0  0  # atno 17371 bound_to 10713
  141.1474  133.9030  157.2182 LP  0  0  0  0  0  0  0  0  0  0  0  0  # atno 17394 bound_to 11000
  139.9757  135.0114  156.9626 LP  0  0  0  0  0  0  0  0  0  0  0  0  # atno 17395 bound_to 11000

$$$$
