AV-unprocessed.smi:1995|AV-procd|sdf|8082|dock4
  -GOLD-   2272010293D 1   1.00000     0.00000
 Structure written by MMmdl.
 42 43  0  0  0  0  0  0  0  0  3 V2000
  151.3475  136.6937  154.0178 C   0  0  0  0  0  0  0  0  0  0  0  0
  151.6719  137.9473  154.8495 C   0  0  0  0  0  0  0  0  0  0  0  0
  150.6869  138.2796  156.0118 C   0  0  1  0  0  0  0  0  0  0  0  0
  149.2590  138.4765  155.4347 C   0  0  0  0  0  0  0  0  0  0  0  0
  150.6110  137.0889  157.0150 C   0  0  0  0  0  0  0  0  0  0  0  0
  149.6273  137.3192  158.0749 N   0  0  0  0  0  0  0  0  0  0  0  0
  149.1038  136.3998  158.8982 C   0  0  0  0  0  0  0  0  0  0  0  0
  149.3556  135.2048  158.7329 O   0  0  0  0  0  0  0  0  0  0  0  0
  148.3442  136.9273  159.8824 N   0  5  0  0  0  0  0  0  0  0  0  0
  147.8792  136.1375  160.8637 C   0  0  0  0  0  0  0  0  0  0  0  0
  147.8026  134.8062  160.7518 N   0  0  0  0  0  0  0  0  0  0  0  0
  147.2894  134.1829  161.8908 C   0  0  0  0  0  0  0  0  0  0  0  0
  146.9750  135.0596  162.8950 C   0  0  0  0  0  0  0  0  0  0  0  0
  147.3148  136.7041  162.4372 S   0  0  0  0  0  0  0  0  0  0  0  0
  151.1335  139.5151  156.7560 N   0  3  0  0  0  0  0  0  0  0  0  0
  152.4679  139.4244  157.4107 C   0  0  0  0  0  0  0  0  0  0  0  0
  152.6656  140.6093  158.3669 C   0  0  0  0  0  0  0  0  0  0  0  0
  152.5824  141.8182  157.6241 O   0  0  0  0  0  0  0  0  0  0  0  0
  151.3068  141.9782  157.0172 C   0  0  0  0  0  0  0  0  0  0  0  0
  151.0270  140.8184  156.0431 C   0  0  0  0  0  0  0  0  0  0  0  0
  152.1140  136.5353  153.2590 H   0  0  0  0  0  0  0  0  0  0  0  0
  150.3961  136.7851  153.4947 H   0  0  0  0  0  0  0  0  0  0  0  0
  151.3141  135.7951  154.6328 H   0  0  0  0  0  0  0  0  0  0  0  0
  152.6792  137.8119  155.2429 H   0  0  0  0  0  0  0  0  0  0  0  0
  151.7288  138.7964  154.1678 H   0  0  0  0  0  0  0  0  0  0  0  0
  148.8324  137.5368  155.0834 H   0  0  0  0  0  0  0  0  0  0  0  0
  149.2524  139.1587  154.5840 H   0  0  0  0  0  0  0  0  0  0  0  0
  148.5697  138.8681  156.1840 H   0  0  0  0  0  0  0  0  0  0  0  0
  150.3088  136.1769  156.5008 H   0  0  0  0  0  0  0  0  0  0  0  0
  151.5904  136.8615  157.4368 H   0  0  0  0  0  0  0  0  0  0  0  0
  149.3654  138.2799  158.2426 H   0  0  0  0  0  0  0  0  0  0  0  0
  147.1839  133.1082  161.9006 H   0  0  0  0  0  0  0  0  0  0  0  0
  146.5679  134.8407  163.8705 H   0  0  0  0  0  0  0  0  0  0  0  0
  152.5788  138.4950  157.9656 H   0  0  0  0  0  0  0  0  0  0  0  0
  153.2587  139.4395  156.6597 H   0  0  0  0  0  0  0  0  0  0  0  0
  151.9231  140.5987  159.1670 H   0  0  0  0  0  0  0  0  0  0  0  0
  153.6463  140.5525  158.8391 H   0  0  0  0  0  0  0  0  0  0  0  0
  150.5338  142.0310  157.7859 H   0  0  0  0  0  0  0  0  0  0  0  0
  151.2879  142.9287  156.4838 H   0  0  0  0  0  0  0  0  0  0  0  0
  151.7286  140.8452  155.2084 H   0  0  0  0  0  0  0  0  0  0  0  0
  150.0314  140.9807  155.6344 H   0  0  0  0  0  0  0  0  0  0  0  0
  150.4709  139.5876  157.5163 H   0  0  0  0  0  0  0  0  0  0  0  0
  1  2  1  0  0  0  0
  1 21  1  0  0  0  0
  1 22  1  0  0  0  0
  1 23  1  0  0  0  0
  2  3  1  0  0  0  0
  2 24  1  0  0  0  0
  2 25  1  0  0  0  0
  3  4  1  0  0  0  0
  3  5  1  0  0  0  0
  3 15  1  0  0  0  0
  4 26  1  0  0  0  0
  4 27  1  0  0  0  0
  4 28  1  0  0  0  0
  5  6  1  0  0  0  0
  5 29  1  0  0  0  0
  5 30  1  0  0  0  0
  6  7  1  0  0  0  0
  6 31  1  0  0  0  0
  7  8  2  0  0  0  0
  7  9  1  0  0  0  0
  9 10  1  0  0  0  0
 10 14  1  0  0  0  0
 10 11  2  0  0  0  0
 11 12  1  0  0  0  0
 12 13  2  0  0  0  0
 12 32  1  0  0  0  0
 13 14  1  0  0  0  0
 13 33  1  0  0  0  0
 15 20  1  0  0  0  0
 15 16  1  0  0  0  0
 15 42  1  0  0  0  0
 16 17  1  0  0  0  0
 16 34  1  0  0  0  0
 16 35  1  0  0  0  0
 17 18  1  0  0  0  0
 17 36  1  0  0  0  0
 17 37  1  0  0  0  0
 18 19  1  0  0  0  0
 19 20  1  0  0  0  0
 19 38  1  0  0  0  0
 19 39  1  0  0  0  0
 20 40  1  0  0  0  0
 20 41  1  0  0  0  0
M  CHG  1   9  -1
M  CHG  1  15   1
M  END
> <s_m_source_file>
AV-unprocessed.smi

> <i_m_source_file_index>
1995

> <i_lp_mmshare_version>
43012

> <i_f3d_flags>
0

> <s_epik_input>
W0NIMl0xW0NIMl1PW0NIMl1bQ0gyXU4xW0NAQF0oW0NIM10pKFtDSDJdW0NIM10pW0NIMl1bTkhdQyg9TylbTkhdYzJuW2NIXVtjSF1zMg==

> <s_epik_cmdline>
J2VwaWtfcHl0aG9uJywgJy1waCcsICc3LjAnLCAnLXRuJywgJzgnLCAnLW1hJywgJzIwMCcsICctbWV0YWxfYmluZGluZycsICctaW1hZScsICc8aW5maWxlLm1hZT4nLCAnLW9tYWUnLCAnPG91dGZpbGUubWFlPic=

> <r_lp_tautomer_probability>
0.999

> <r_epik_Ionization_Penalty>
8.09417

> <r_epik_Ionization_Penalty_Charging>
6.70334

> <r_epik_Ionization_Penalty_Neutral>
1.39083

> <r_epik_State_Penalty>
6.86521

> <r_epik_Charging_Adjusted_Penalty>
13.5685

> <i_epik_Tot_Q>
0

> <i_epik_Tot_abs_Q>
2

> <r_epik_Metal_State_Penalty>
2.79608

> <b_epik_Metal_Only>
1

> <s_lp_Force_Field>
OPLS_2005

> <r_lp_Energy>
20.9753

> <b_lp_Chiralities_Consistent>
1

> <s_lp_Variant>
AV-unprocessed.smi:1995-7

> <Gold.Version>
5.8.1

> <Gold.Id.Protein>
6NUR|6NUR_protein|mol2

> <Gold.PLP.Fitness>
45.8763

> <Gold.PLP.PLP>
-38.0170

> <Gold.PLP.part.hbond>
-3.0000

> <Gold.PLP.part.metal>
0.0000

> <Gold.PLP.part.buried>
-6.3984

> <Gold.PLP.part.nonpolar>
-30.2048

> <Gold.PLP.part.repulsive>
0.3228

> <Gold.PLP.ligand.clash>
0.0000

> <Gold.PLP.ligand.torsion>
0.2801

> <Gold.PLP.Chemscore.Hbond>
2.7269

> <Gold.PLP.Chemscore.CHOScore>
0.0000

> <Gold.PLP.Chemscore.Metal>
0.0000

> <Gold.Chemscore.Hbonds>
donor molecule, donor type, donor heavy atom, donor atom, acceptor molecule, acceptor atom, score
      P1  H  6896  6909       L1     8  1.00

> <Gold.PLP.Chemscore.Internal.Correction>
0.2388

> <Gold.Rescore>
     Score         DG    S(hbond)    S(metal)    S(lipo)     H(rot)  DE(clash)    DE(int)     intcor
     14.20     -16.12       1.65        0.00      82.03       1.75       0.05       1.87       ----

> <Gold.Chemscore.Fitness>
14.1998

> <Gold.Chemscore.DG>
-16.1171

> <Gold.Chemscore.ZeroCoef>
-5.4800

> <Gold.Chemscore.Hbond>
1.6544

> <Gold.Chemscore.Metal>
0.0000

> <Gold.Chemscore.Lipo>
82.0283

> <Gold.Chemscore.Internal_Hbond>
0.0000

> <Gold.Chemscore.DEClash>
0.0475

> <Gold.Chemscore.DEInternal>
1.8698

> <Gold.Chemscore.Rot>
1.7523

> <Gold.Chemscore.Internal.Correction>
   9.000000E+99

> <Gold.Chemscore.Hbonds>
donor molecule, donor type, donor heavy atom, donor atom, acceptor molecule, acceptor atom, score
      P1  H  6896  6909       L1     8  0.97

> <Gold.Chemscore.Hbond.Weighted>
-5.5256

> <Gold.Chemscore.Metal.Weighted>
-0.0000

> <Gold.Chemscore.Lipo.Weighted>
-9.5973

> <Gold.Chemscore.Internal_Hbond.Weighted>
0.0000

> <Gold.Chemscore.DEClash.Weighted>
0.0475

> <Gold.Chemscore.DEInternal.Weighted>
1.8698

> <Gold.Chemscore.Rot.Weighted>
4.4858

> <Gold.Chemscore.Internal.Correction.Weighted>
   9.000000E+99

> <Gold.Protein.RotatedTorsions>
[ 6907 6896 6895 6894 ] final   46.95 input  -60.11 | X-H torsion
[ 7974 7965 7964 7962 ] final  -45.49 input  175.53 | X-H torsion
[ 8008 7997 7996 7995 ] final  146.29 input   59.86 | X-H torsion
[ 10167 10162 10161 10158 ] final  -34.60 input  -65.29 | X-H torsion
[ 10718 10713 10712 10709 ] final -176.86 input   66.30 | X-H torsion
[ 10763 10752 10751 10750 ] final   29.11 input  -60.55 | X-H torsion
[ 11005 11000 10999 10996 ] final   69.90 input  -57.11 | X-H torsion

> <Gold.Protein.ActiveResidues>
 VAL166  LYS551  ARG553  GLY616  TRP617  ASP618  TYR619  PRO620  LYS621  CYS622 
 ASP623  PHE694  ASN695  SER759  ASP760  ASP761  ALA762  ILE779  LEU786  VAL792 
 PHE793  MET794  SER795  GLU796  ALA797  LYS798  CYS799  TRP800  GLU811  SER814 

> <Gold.Protein.RotatedAtoms>
  152.2624  134.8020  160.0428 H   0  0  0  0  0  0  0  0  0  0  0  0  # atno 6907 bound_to 6896
  151.8662  133.3461  159.3728 H   0  0  0  0  0  0  0  0  0  0  0  0  # atno 6908 bound_to 6896
  150.7121  134.5085  159.5640 H   0  0  0  0  0  0  0  0  0  0  0  0  # atno 6909 bound_to 6896
  145.9816  140.7278  142.9361 H   0  0  0  0  0  0  0  0  0  0  0  0  # atno 7974 bound_to 7965
  156.2859  140.2186  156.5352 H   0  0  0  0  0  0  0  0  0  0  0  0  # atno 8008 bound_to 7997
  154.7415  140.0487  157.0837 H   0  0  0  0  0  0  0  0  0  0  0  0  # atno 8009 bound_to 7997
  155.0224  140.3125  155.4791 H   0  0  0  0  0  0  0  0  0  0  0  0  # atno 8010 bound_to 7997
  140.7182  143.3536  151.2104 H   0  0  0  0  0  0  0  0  0  0  0  0  # atno 10167 bound_to 10162
  156.8208  130.9619  151.3112 H   0  0  0  0  0  0  0  0  0  0  0  0  # atno 10718 bound_to 10713
  153.0450  135.6497  154.0841 H   0  0  0  0  0  0  0  0  0  0  0  0  # atno 10763 bound_to 10752
  154.0541  135.2893  155.3337 H   0  0  0  0  0  0  0  0  0  0  0  0  # atno 10764 bound_to 10752
  154.6701  135.5359  153.8193 H   0  0  0  0  0  0  0  0  0  0  0  0  # atno 10765 bound_to 10752
  139.9628  134.7032  156.0610 H   0  0  0  0  0  0  0  0  0  0  0  0  # atno 11005 bound_to 11000
  144.6863  140.2917  143.7277 LP  0  0  0  0  0  0  0  0  0  0  0  0  # atno 17320 bound_to 7965
  145.7762  139.1874  143.2184 LP  0  0  0  0  0  0  0  0  0  0  0  0  # atno 17321 bound_to 7965
  139.7073  143.9434  152.2932 LP  0  0  0  0  0  0  0  0  0  0  0  0  # atno 17342 bound_to 10162
  139.9148  144.6835  150.8524 LP  0  0  0  0  0  0  0  0  0  0  0  0  # atno 17343 bound_to 10162
  157.6457  130.8842  149.9535 LP  0  0  0  0  0  0  0  0  0  0  0  0  # atno 17370 bound_to 10713
  156.0990  130.3657  150.0254 LP  0  0  0  0  0  0  0  0  0  0  0  0  # atno 17371 bound_to 10713
  141.1306  133.6587  156.3454 LP  0  0  0  0  0  0  0  0  0  0  0  0  # atno 17394 bound_to 11000
  140.5463  134.6071  157.5395 LP  0  0  0  0  0  0  0  0  0  0  0  0  # atno 17395 bound_to 11000

$$$$
