AV-unprocessed.smi:2776|AV-procd|sdf|10707|dock4
  -GOLD-   2272015143D 1   1.00000     0.00000
 Structure written by MMmdl.
 26 27  0  0  0  0  0  0  0  0  2 V2000
  149.8817  138.8654  156.6391 O   0  0  0  0  0  0  0  0  0  0  0  0
  151.0034  139.1950  155.8418 C   0  0  1  0  0  0  0  0  0  0  0  0
  152.0047  140.0340  156.6626 C   0  0  0  0  0  0  0  0  0  0  0  0
  151.4785  141.3587  157.0233 N   0  0  0  0  0  0  0  0  0  0  0  0
  150.6420  142.1784  156.3304 C   0  0  0  0  0  0  0  0  0  0  0  0
  150.4453  143.2969  157.0820 N   0  3  0  0  0  0  0  0  0  0  0  0
  151.1654  143.1904  158.2739 C   0  0  0  0  0  0  0  0  0  0  0  0
  151.2803  144.0645  159.3500 C   0  0  0  0  0  0  0  0  0  0  0  0
  152.0991  143.6497  160.4209 C   0  0  0  0  0  0  0  0  0  0  0  0
  152.2449  144.4625  161.4940 F   0  0  0  0  0  0  0  0  0  0  0  0
  152.7663  142.4067  160.3957 C   0  0  0  0  0  0  0  0  0  0  0  0
  153.5411  142.0455  161.4457 F   0  0  0  0  0  0  0  0  0  0  0  0
  152.6431  141.5295  159.2980 C   0  0  0  0  0  0  0  0  0  0  0  0
  151.8323  141.9475  158.2434 C   0  0  0  0  0  0  0  0  0  0  0  0
  151.6231  137.8995  155.2836 C   0  0  0  0  0  0  0  0  0  0  0  0
  152.6816  138.1897  154.5267 F   0  0  0  0  0  0  0  0  0  0  0  0
  152.0352  137.1332  156.2933 F   0  0  0  0  0  0  0  0  0  0  0  0
  150.7327  137.2160  154.5638 F   0  0  0  0  0  0  0  0  0  0  0  0
  149.1266  139.3164  156.2922 H   0  0  0  0  0  0  0  0  0  0  0  0
  150.6418  139.7964  155.0067 H   0  0  0  0  0  0  0  0  0  0  0  0
  152.3133  139.5111  157.5681 H   0  0  0  0  0  0  0  0  0  0  0  0
  152.9137  140.1993  156.0832 H   0  0  0  0  0  0  0  0  0  0  0  0
  150.2115  141.9776  155.3598 H   0  0  0  0  0  0  0  0  0  0  0  0
  150.7702  145.0161  159.3743 H   0  0  0  0  0  0  0  0  0  0  0  0
  153.1542  140.5783  159.2930 H   0  0  0  0  0  0  0  0  0  0  0  0
  149.8609  144.0736  156.7999 H   0  0  0  0  0  0  0  0  0  0  0  0
  1  2  1  0  0  0  0
  1 19  1  0  0  0  0
  2  3  1  0  0  0  0
  2 15  1  0  0  0  0
  2 20  1  0  0  0  0
  3  4  1  0  0  0  0
  3 21  1  0  0  0  0
  3 22  1  0  0  0  0
  4 14  1  0  0  0  0
  4  5  1  0  0  0  0
  5  6  2  0  0  0  0
  5 23  1  0  0  0  0
  6  7  1  0  0  0  0
  6 26  1  0  0  0  0
  7 14  2  0  0  0  0
  7  8  1  0  0  0  0
  8  9  2  0  0  0  0
  8 24  1  0  0  0  0
  9 10  1  0  0  0  0
  9 11  1  0  0  0  0
 11 12  1  0  0  0  0
 11 13  2  0  0  0  0
 13 14  1  0  0  0  0
 13 25  1  0  0  0  0
 15 16  1  0  0  0  0
 15 17  1  0  0  0  0
 15 18  1  0  0  0  0
M  CHG  1   6   1
M  END
> <s_m_source_file>
AV-unprocessed.smi

> <i_m_source_file_index>
2776

> <i_lp_mmshare_version>
43012

> <i_f3d_flags>
0

> <s_epik_input>
RkMoRikoRilbQ0BIXShbT0hdKVtDSDJdbihbY0hdbjEpYyhjMTIpW2NIXWMoRiljKEYpW2NIXTI=

> <s_epik_cmdline>
J2VwaWtfcHl0aG9uJywgJy1waCcsICc3LjAnLCAnLXRuJywgJzgnLCAnLW1hJywgJzIwMCcsICctbWV0YWxfYmluZGluZycsICctaW1hZScsICc8aW5maWxlLm1hZT4nLCAnLW9tYWUnLCAnPG91dGZpbGUubWFlPic=

> <r_epik_Ionization_Penalty>
2.38424

> <r_epik_Ionization_Penalty_Charging>
2.37244

> <r_epik_Ionization_Penalty_Neutral>
0.0117937

> <r_epik_State_Penalty>
2.52832

> <r_epik_Charging_Adjusted_Penalty>
4.90076

> <i_epik_Tot_Q>
1

> <i_epik_Tot_abs_Q>
1

> <r_epik_Metal_State_Penalty>
6.61271

> <b_epik_Metal_Only>
0

> <s_lp_Force_Field>
OPLS_2005

> <r_lp_Energy>
13.8942

> <b_lp_Chiralities_Consistent>
1

> <s_lp_Variant>
AV-unprocessed.smi:2776-4

> <Gold.Version>
5.8.1

> <Gold.Id.Protein>
6NUR|6NUR_protein|mol2

> <Gold.PLP.Fitness>
44.4132

> <Gold.PLP.PLP>
-39.4296

> <Gold.PLP.part.hbond>
-0.9669

> <Gold.PLP.part.metal>
0.0000

> <Gold.PLP.part.buried>
-1.5848

> <Gold.PLP.part.nonpolar>
-36.6055

> <Gold.PLP.part.repulsive>
0.0078

> <Gold.PLP.ligand.clash>
0.0000

> <Gold.PLP.ligand.torsion>
0.3930

> <Gold.PLP.Chemscore.Hbond>
1.9200

> <Gold.PLP.Chemscore.CHOScore>
0.0000

> <Gold.PLP.Chemscore.Metal>
0.0000

> <Gold.Chemscore.Hbonds>
donor molecule, donor type, donor heavy atom, donor atom, acceptor molecule, acceptor atom, score
      L1  H     6    26       P1  8028  1.95

> <Gold.PLP.Chemscore.Internal.Correction>
0.0097

> <Gold.Rescore>
     Score         DG    S(hbond)    S(metal)    S(lipo)     H(rot)  DE(clash)    DE(int)     intcor
     11.94     -12.37       0.94        0.00      78.26       2.12       0.36       0.07       ----

> <Gold.Chemscore.Fitness>
11.9423

> <Gold.Chemscore.DG>
-12.3717

> <Gold.Chemscore.ZeroCoef>
-5.4800

> <Gold.Chemscore.Hbond>
0.9446

> <Gold.Chemscore.Metal>
0.0000

> <Gold.Chemscore.Lipo>
78.2646

> <Gold.Chemscore.Internal_Hbond>
0.0000

> <Gold.Chemscore.DEClash>
0.3590

> <Gold.Chemscore.DEInternal>
0.0703

> <Gold.Chemscore.Rot>
2.1173

> <Gold.Chemscore.Internal.Correction>
   9.000000E+99

> <Gold.Chemscore.Hbonds>
donor molecule, donor type, donor heavy atom, donor atom, acceptor molecule, acceptor atom, score
      L1  H     6    26       P1  8028  0.89

> <Gold.Chemscore.Hbond.Weighted>
-3.1549

> <Gold.Chemscore.Metal.Weighted>
-0.0000

> <Gold.Chemscore.Lipo.Weighted>
-9.1570

> <Gold.Chemscore.Internal_Hbond.Weighted>
0.0000

> <Gold.Chemscore.DEClash.Weighted>
0.3590

> <Gold.Chemscore.DEInternal.Weighted>
0.0703

> <Gold.Chemscore.Rot.Weighted>
5.4202

> <Gold.Chemscore.Internal.Correction.Weighted>
   9.000000E+99

> <Gold.Protein.RotatedTorsions>
[ 6907 6896 6895 6894 ] final  114.53 input  -60.11 | X-H torsion
[ 7974 7965 7964 7962 ] final  113.58 input  175.53 | X-H torsion
[ 8008 7997 7996 7995 ] final  -37.65 input   59.86 | X-H torsion
[ 10167 10162 10161 10158 ] final -136.51 input  -65.29 | X-H torsion
[ 10718 10713 10712 10709 ] final -177.58 input   66.30 | X-H torsion
[ 10763 10752 10751 10750 ] final   48.34 input  -60.55 | X-H torsion
[ 11005 11000 10999 10996 ] final   50.57 input  -57.11 | X-H torsion

> <Gold.Protein.ActiveResidues>
 VAL166  LYS551  ARG553  GLY616  TRP617  ASP618  TYR619  PRO620  LYS621  CYS622 
 ASP623  PHE694  ASN695  SER759  ASP760  ASP761  ALA762  ILE779  LEU786  VAL792 
 PHE793  MET794  SER795  GLU796  ALA797  LYS798  CYS799  TRP800  GLU811  SER814 

> <Gold.Protein.RotatedAtoms>
  152.4797  133.8223  159.7059 H   0  0  0  0  0  0  0  0  0  0  0  0  # atno 6907 bound_to 6896
  150.8838  133.7327  159.2931 H   0  0  0  0  0  0  0  0  0  0  0  0  # atno 6908 bound_to 6896
  151.4822  135.1056  159.9833 H   0  0  0  0  0  0  0  0  0  0  0  0  # atno 6909 bound_to 6896
  145.2152  139.2887  143.4247 H   0  0  0  0  0  0  0  0  0  0  0  0  # atno 7974 bound_to 7965
  154.4050  140.1598  156.2571 H   0  0  0  0  0  0  0  0  0  0  0  0  # atno 8008 bound_to 7997
  155.9069  140.3430  155.6046 H   0  0  0  0  0  0  0  0  0  0  0  0  # atno 8009 bound_to 7997
  155.7382  140.0789  157.2248 H   0  0  0  0  0  0  0  0  0  0  0  0  # atno 8010 bound_to 7997
  139.8670  143.7005  152.2644 H   0  0  0  0  0  0  0  0  0  0  0  0  # atno 10167 bound_to 10162
  156.8315  130.9655  151.3106 H   0  0  0  0  0  0  0  0  0  0  0  0  # atno 10718 bound_to 10713
  152.9793  135.5947  154.3909 H   0  0  0  0  0  0  0  0  0  0  0  0  # atno 10763 bound_to 10752
  154.3565  135.2767  155.2345 H   0  0  0  0  0  0  0  0  0  0  0  0  # atno 10764 bound_to 10752
  154.4362  135.6024  153.6155 H   0  0  0  0  0  0  0  0  0  0  0  0  # atno 10765 bound_to 10752
  140.1006  134.5086  155.8766 H   0  0  0  0  0  0  0  0  0  0  0  0  # atno 11005 bound_to 11000
  146.3389  140.2440  142.8596 LP  0  0  0  0  0  0  0  0  0  0  0  0  # atno 17320 bound_to 7965
  144.9818  140.8466  143.5392 LP  0  0  0  0  0  0  0  0  0  0  0  0  # atno 17321 bound_to 7965
  139.7319  144.7580  151.0788 LP  0  0  0  0  0  0  0  0  0  0  0  0  # atno 17342 bound_to 10162
  140.7766  143.5077  150.9691 LP  0  0  0  0  0  0  0  0  0  0  0  0  # atno 17343 bound_to 10162
  157.6404  130.8801  149.9437 LP  0  0  0  0  0  0  0  0  0  0  0  0  # atno 17370 bound_to 10713
  156.0931  130.3661  150.0357 LP  0  0  0  0  0  0  0  0  0  0  0  0  # atno 17371 bound_to 10713
  141.2104  133.6695  156.6511 LP  0  0  0  0  0  0  0  0  0  0  0  0  # atno 17394 bound_to 11000
  140.3225  134.7996  157.4263 LP  0  0  0  0  0  0  0  0  0  0  0  0  # atno 17395 bound_to 11000

$$$$
