AV-unprocessed.smi:148|AV-procd|sdf|1224|dock6
  -GOLD-   2262018423D 1   1.00000     0.00000
 Structure written by MMmdl.
 63 67  0  0  0  0  0  0  0  0  1 V2000
  148.3240  132.0785  158.6830 O   0  0  0  0  0  0  0  0  0  0  0  0
  148.2331  133.0214  159.7300 C   0  0  0  0  0  0  0  0  0  0  0  0
  147.2008  134.1363  159.4178 C   0  0  2  0  0  0  0  0  0  0  0  0
  147.5988  134.9369  158.1503 C   0  0  0  0  0  0  0  0  0  0  0  0
  147.1860  134.3079  156.9075 N   0  0  0  0  0  0  0  0  0  0  0  0
  145.9162  133.8888  156.5769 C   0  0  0  0  0  0  0  0  0  0  0  0
  145.7979  133.3481  155.3949 N   0  0  0  0  0  0  0  0  0  0  0  0
  147.0857  133.3912  154.8778 C   0  0  0  0  0  0  0  0  0  0  0  0
  147.6715  132.9692  153.6564 C   0  0  0  0  0  0  0  0  0  0  0  0
  146.9415  132.3875  152.6802 N   0  0  0  0  0  0  0  0  0  0  0  0
  146.8107  130.9514  152.9362 C   0  0  0  0  0  0  0  0  0  0  0  0
  146.2675  130.2131  151.7092 C   0  0  0  0  0  0  0  0  0  0  0  0
  144.9357  130.8317  151.2827 C   0  0  0  0  0  0  0  0  0  0  0  0
  145.1146  132.3346  151.0314 C   0  0  0  0  0  0  0  0  0  0  0  0
  145.7095  133.0838  152.2552 C   0  0  2  0  0  0  0  0  0  0  0  0
  145.9222  134.6020  151.9178 C   0  0  1  0  0  0  0  0  0  0  0  0
  144.9930  135.1688  150.8269 C   0  0  0  0  0  0  0  0  0  0  0  0
  145.0439  136.6951  150.9611 C   0  0  0  0  0  0  0  0  0  0  0  0
  145.6172  136.9824  152.3530 C   0  0  0  0  0  0  0  0  0  0  0  0
  145.7199  135.6263  153.0589 C   0  0  1  0  0  0  0  0  0  0  0  0
  144.5139  135.3845  153.7595 O   0  0  0  0  0  0  0  0  0  0  0  0
  149.0041  133.1734  153.4819 N   0  0  0  0  0  0  0  0  0  0  0  0
  149.7216  133.7452  154.4543 C   0  0  0  0  0  0  0  0  0  0  0  0
  149.3128  134.1820  155.6484 N   0  0  0  0  0  0  0  0  0  0  0  0
  147.9734  133.9850  155.8169 C   0  0  0  0  0  0  0  0  0  0  0  0
  146.9953  135.0999  160.6199 C   0  0  1  0  0  0  0  0  0  0  0  0
  147.0527  134.4388  161.9877 C   0  0  0  0  0  0  0  0  0  0  0  0
  147.2754  135.6248  162.9194 C   0  0  0  0  0  0  0  0  0  0  0  0
  148.0241  136.5713  162.1670 O   0  0  0  0  0  0  0  0  0  0  0  0
  148.0742  136.1742  160.8008 C   0  0  0  0  0  0  0  0  0  0  0  0
  147.9082  131.2771  158.9624 H   0  0  0  0  0  0  0  0  0  0  0  0
  147.9834  132.5115  160.6608 H   0  0  0  0  0  0  0  0  0  0  0  0
  149.2367  133.4252  159.8538 H   0  0  0  0  0  0  0  0  0  0  0  0
  146.2464  133.6534  159.2030 H   0  0  0  0  0  0  0  0  0  0  0  0
  147.1547  135.9321  158.1659 H   0  0  0  0  0  0  0  0  0  0  0  0
  148.6798  135.0804  158.1224 H   0  0  0  0  0  0  0  0  0  0  0  0
  145.0729  134.0041  157.2420 H   0  0  0  0  0  0  0  0  0  0  0  0
  147.7790  130.5304  153.2123 H   0  0  0  0  0  0  0  0  0  0  0  0
  146.1413  130.7918  153.7829 H   0  0  0  0  0  0  0  0  0  0  0  0
  146.9863  130.2752  150.8911 H   0  0  0  0  0  0  0  0  0  0  0  0
  146.1375  129.1544  151.9344 H   0  0  0  0  0  0  0  0  0  0  0  0
  144.5634  130.3407  150.3832 H   0  0  0  0  0  0  0  0  0  0  0  0
  144.1874  130.6734  152.0604 H   0  0  0  0  0  0  0  0  0  0  0  0
  145.7627  132.4778  150.1654 H   0  0  0  0  0  0  0  0  0  0  0  0
  144.1416  132.7428  150.7604 H   0  0  0  0  0  0  0  0  0  0  0  0
  144.9864  132.9993  153.0670 H   0  0  0  0  0  0  0  0  0  0  0  0
  146.9417  134.7193  151.5453 H   0  0  0  0  0  0  0  0  0  0  0  0
  145.2792  134.8471  149.8251 H   0  0  0  0  0  0  0  0  0  0  0  0
  143.9700  134.8320  151.0006 H   0  0  0  0  0  0  0  0  0  0  0  0
  145.6843  137.1311  150.1934 H   0  0  0  0  0  0  0  0  0  0  0  0
  144.0499  137.1268  150.8408 H   0  0  0  0  0  0  0  0  0  0  0  0
  146.6164  137.4062  152.2438 H   0  0  0  0  0  0  0  0  0  0  0  0
  145.0224  137.7075  152.9107 H   0  0  0  0  0  0  0  0  0  0  0  0
  146.5399  135.6452  153.7734 H   0  0  0  0  0  0  0  0  0  0  0  0
  144.5989  134.5697  154.2304 H   0  0  0  0  0  0  0  0  0  0  0  0
  150.7738  133.8692  154.2454 H   0  0  0  0  0  0  0  0  0  0  0  0
  146.0280  135.5958  160.5219 H   0  0  0  0  0  0  0  0  0  0  0  0
  146.1487  133.8838  162.2395 H   0  0  0  0  0  0  0  0  0  0  0  0
  147.9007  133.7545  162.0440 H   0  0  0  0  0  0  0  0  0  0  0  0
  146.3218  136.0774  163.1940 H   0  0  0  0  0  0  0  0  0  0  0  0
  147.7938  135.3427  163.8360 H   0  0  0  0  0  0  0  0  0  0  0  0
  149.0655  135.7640  160.6021 H   0  0  0  0  0  0  0  0  0  0  0  0
  147.9246  137.0325  160.1455 H   0  0  0  0  0  0  0  0  0  0  0  0
  1  2  1  0  0  0  0
  1 31  1  0  0  0  0
  2  3  1  0  0  0  0
  2 32  1  0  0  0  0
  2 33  1  0  0  0  0
  3  4  1  0  0  0  0
  3 26  1  0  0  0  0
  3 34  1  0  0  0  0
  4  5  1  0  0  0  0
  4 35  1  0  0  0  0
  4 36  1  0  0  0  0
  5 25  1  0  0  0  0
  5  6  1  0  0  0  0
  6  7  2  0  0  0  0
  6 37  1  0  0  0  0
  7  8  1  0  0  0  0
  8 25  2  0  0  0  0
  8  9  1  0  0  0  0
  9 10  1  0  0  0  0
  9 22  2  0  0  0  0
 10 15  1  0  0  0  0
 10 11  1  0  0  0  0
 11 12  1  0  0  0  0
 11 38  1  0  0  0  0
 11 39  1  0  0  0  0
 12 13  1  0  0  0  0
 12 40  1  0  0  0  0
 12 41  1  0  0  0  0
 13 14  1  0  0  0  0
 13 42  1  0  0  0  0
 13 43  1  0  0  0  0
 14 15  1  0  0  0  0
 14 44  1  0  0  0  0
 14 45  1  0  0  0  0
 15 16  1  0  0  0  0
 15 46  1  0  0  0  0
 16 20  1  0  0  0  0
 16 17  1  0  0  0  0
 16 47  1  0  0  0  0
 17 18  1  0  0  0  0
 17 48  1  0  0  0  0
 17 49  1  0  0  0  0
 18 19  1  0  0  0  0
 18 50  1  0  0  0  0
 18 51  1  0  0  0  0
 19 20  1  0  0  0  0
 19 52  1  0  0  0  0
 19 53  1  0  0  0  0
 20 21  1  0  0  0  0
 20 54  1  0  0  0  0
 21 55  1  0  0  0  0
 22 23  1  0  0  0  0
 23 24  2  0  0  0  0
 23 56  1  0  0  0  0
 24 25  1  0  0  0  0
 26 30  1  0  0  0  0
 26 27  1  0  0  0  0
 26 57  1  0  0  0  0
 27 28  1  0  0  0  0
 27 58  1  0  0  0  0
 27 59  1  0  0  0  0
 28 29  1  0  0  0  0
 28 60  1  0  0  0  0
 28 61  1  0  0  0  0
 29 30  1  0  0  0  0
 30 62  1  0  0  0  0
 30 63  1  0  0  0  0
M  END
> <s_m_source_file>
AV-unprocessed.smi

> <i_m_source_file_index>
148

> <i_lp_mmshare_version>
43012

> <i_f3d_flags>
0

> <s_epik_input>
W0NIMl0xT1tDSDJdW0NIMl1bQ0BIXTFbQ0BIXShbQ0gyXVtPSF0pW0NIMl1uKFtjSF1uMiljKGMyMyluW2NIXW5jM040W0NIMl1bQ0gyXVtDSDJdW0NIMl1bQ0BIXTRbQ0BASF01W0NIMl1bQ0gyXVtDSDJdW0NASF01W09IXQ==

> <s_epik_cmdline>
J2VwaWtfcHl0aG9uJywgJy1waCcsICc3LjAnLCAnLXRuJywgJzgnLCAnLW1hJywgJzIwMCcsICctbWV0YWxfYmluZGluZycsICctaW1hZScsICc8aW5maWxlLm1hZT4nLCAnLW9tYWUnLCAnPG91dGZpbGUubWFlPic=

> <r_lp_tautomer_probability>
1

> <r_epik_Ionization_Penalty>
0.00556303

> <r_epik_Ionization_Penalty_Charging>
0

> <r_epik_Ionization_Penalty_Neutral>
0.00556303

> <r_epik_State_Penalty>
0.00401767

> <r_epik_Charging_Adjusted_Penalty>
0.00401767

> <i_epik_Tot_Q>
0

> <i_epik_Tot_abs_Q>
0

> <r_epik_Metal_State_Penalty>
-0

> <b_epik_Metal_Only>
0

> <s_lp_Force_Field>
OPLS_2005

> <r_lp_Energy>
70.7604

> <b_lp_Chiralities_Consistent>
1

> <s_lp_Variant>
AV-unprocessed.smi:148-23

> <Gold.Version>
5.8.1

> <Gold.Id.Protein>
6NUR|6NUR_protein|mol2

> <Gold.PLP.Fitness>
40.1474

> <Gold.PLP.PLP>
-40.3628

> <Gold.PLP.part.hbond>
-1.0000

> <Gold.PLP.part.metal>
0.0000

> <Gold.PLP.part.buried>
-1.9921

> <Gold.PLP.part.nonpolar>
-37.3254

> <Gold.PLP.part.repulsive>
0.4436

> <Gold.PLP.ligand.clash>
0.0000

> <Gold.PLP.ligand.torsion>
1.9775

> <Gold.PLP.Chemscore.Hbond>
1.0000

> <Gold.PLP.Chemscore.CHOScore>
0.0000

> <Gold.PLP.Chemscore.Metal>
0.0000

> <Gold.Chemscore.Hbonds>
donor molecule, donor type, donor heavy atom, donor atom, acceptor molecule, acceptor atom, score
      P1  H  6931  6943       L1    29  0.80

> <Gold.PLP.Chemscore.Internal.Correction>
0.7397

> <Gold.Rescore>
     Score         DG    S(hbond)    S(metal)    S(lipo)     H(rot)  DE(clash)    DE(int)     intcor
      8.69     -12.90       0.96        0.00     108.55       3.32       2.28       1.93       ----

> <Gold.Chemscore.Fitness>
8.6900

> <Gold.Chemscore.DG>
-12.8951

> <Gold.Chemscore.ZeroCoef>
-5.4800

> <Gold.Chemscore.Hbond>
0.9624

> <Gold.Chemscore.Metal>
0.0000

> <Gold.Chemscore.Lipo>
108.5532

> <Gold.Chemscore.Internal_Hbond>
0.0000

> <Gold.Chemscore.DEClash>
2.2753

> <Gold.Chemscore.DEInternal>
1.9298

> <Gold.Chemscore.Rot>
3.3203

> <Gold.Chemscore.Internal.Correction>
   9.000000E+99

> <Gold.Chemscore.Hbonds>
donor molecule, donor type, donor heavy atom, donor atom, acceptor molecule, acceptor atom, score
      P1  H  6931  6943       L1    29  0.12

> <Gold.Chemscore.Hbond.Weighted>
-3.2144

> <Gold.Chemscore.Metal.Weighted>
-0.0000

> <Gold.Chemscore.Lipo.Weighted>
-12.7007

> <Gold.Chemscore.Internal_Hbond.Weighted>
0.0000

> <Gold.Chemscore.DEClash.Weighted>
2.2753

> <Gold.Chemscore.DEInternal.Weighted>
1.9298

> <Gold.Chemscore.Rot.Weighted>
8.5000

> <Gold.Chemscore.Internal.Correction.Weighted>
   9.000000E+99

> <Gold.Protein.RotatedTorsions>
[ 6907 6896 6895 6894 ] final    6.87 input  -60.11 | X-H torsion
[ 7974 7965 7964 7962 ] final -115.93 input  175.53 | X-H torsion
[ 8008 7997 7996 7995 ] final   99.58 input   59.86 | X-H torsion
[ 10167 10162 10161 10158 ] final  170.23 input  -65.29 | X-H torsion
[ 10718 10713 10712 10709 ] final  -50.60 input   66.30 | X-H torsion
[ 10763 10752 10751 10750 ] final   75.86 input  -60.55 | X-H torsion
[ 11005 11000 10999 10996 ] final -148.89 input  -57.11 | X-H torsion

> <Gold.Protein.ActiveResidues>
 VAL166  LYS551  ARG553  GLY616  TRP617  ASP618  TYR619  PRO620  LYS621  CYS622 
 ASP623  PHE694  ASN695  SER759  ASP760  ASP761  ALA762  ILE779  LEU786  VAL792 
 PHE793  MET794  SER795  GLU796  ALA797  LYS798  CYS799  TRP800  GLU811  SER814 

> <Gold.Protein.RotatedAtoms>
  151.6807  135.0962  160.0215 H   0  0  0  0  0  0  0  0  0  0  0  0  # atno 6907 bound_to 6896
  152.3837  133.6577  159.6190 H   0  0  0  0  0  0  0  0  0  0  0  0  # atno 6908 bound_to 6896
  150.7768  133.8987  159.3376 H   0  0  0  0  0  0  0  0  0  0  0  0  # atno 6909 bound_to 6896
  145.1026  140.8561  143.3917 H   0  0  0  0  0  0  0  0  0  0  0  0  # atno 7974 bound_to 7965
  156.1119  140.3226  155.8085 H   0  0  0  0  0  0  0  0  0  0  0  0  # atno 8008 bound_to 7997
  155.4658  140.0543  157.3003 H   0  0  0  0  0  0  0  0  0  0  0  0  # atno 8009 bound_to 7997
  154.4766  140.2035  155.9878 H   0  0  0  0  0  0  0  0  0  0  0  0  # atno 8010 bound_to 7997
  139.5013  144.3619  151.9816 H   0  0  0  0  0  0  0  0  0  0  0  0  # atno 10167 bound_to 10162
  156.1785  130.4150  149.9541 H   0  0  0  0  0  0  0  0  0  0  0  0  # atno 10718 bound_to 10713
  153.0684  135.4973  154.8251 H   0  0  0  0  0  0  0  0  0  0  0  0  # atno 10763 bound_to 10752
  154.6987  135.2997  154.9375 H   0  0  0  0  0  0  0  0  0  0  0  0  # atno 10764 bound_to 10752
  154.0106  135.6755  153.4818 H   0  0  0  0  0  0  0  0  0  0  0  0  # atno 10765 bound_to 10752
  140.7565  134.3346  157.5112 H   0  0  0  0  0  0  0  0  0  0  0  0  # atno 11005 bound_to 11000
  145.0938  139.2871  143.5721 LP  0  0  0  0  0  0  0  0  0  0  0  0  # atno 17320 bound_to 7965
  146.3529  140.0483  142.8638 LP  0  0  0  0  0  0  0  0  0  0  0  0  # atno 17321 bound_to 7965
  140.3055  144.3598  150.6048 LP  0  0  0  0  0  0  0  0  0  0  0  0  # atno 17342 bound_to 10162
  140.5840  143.2171  151.7377 LP  0  0  0  0  0  0  0  0  0  0  0  0  # atno 17343 bound_to 10162
  156.7319  130.9046  151.3626 LP  0  0  0  0  0  0  0  0  0  0  0  0  # atno 17370 bound_to 10713
  157.6852  130.9179  150.0369 LP  0  0  0  0  0  0  0  0  0  0  0  0  # atno 17371 bound_to 10713
  139.8778  134.9175  156.3181 LP  0  0  0  0  0  0  0  0  0  0  0  0  # atno 17394 bound_to 11000
  140.9702  133.7332  156.0524 LP  0  0  0  0  0  0  0  0  0  0  0  0  # atno 17395 bound_to 11000

$$$$
