AV-unprocessed.smi:375|AV-procd|sdf|2453|dock3
  -GOLD-   2262022393D 1   1.00000     0.00000
 Structure written by MMmdl.
 36 38  0  0  0  0  0  0  0  0  1 V2000
  153.6965  140.3294  160.4566 C   0  0  0  0  0  0  0  0  0  0  0  0
  152.9112  141.1924  159.5829 N   0  0  0  0  0  0  0  0  0  0  0  0
  152.5157  140.9284  158.3156 C   0  0  0  0  0  0  0  0  0  0  0  0
  152.7609  139.9036  157.6795 O   0  0  0  0  0  0  0  0  0  0  0  0
  151.8198  141.9988  157.8616 N   0  0  0  0  0  0  0  0  0  0  0  0
  151.2473  142.1722  156.5261 C   0  0  0  0  0  0  0  0  0  0  0  0
  150.5237  140.9035  156.0252 C   0  0  2  0  0  0  0  0  0  0  0  0
  151.3748  140.2414  155.1118 O   0  0  0  0  0  0  0  0  0  0  0  0
  149.1502  141.1996  155.4316 C   0  0  0  0  0  0  0  0  0  0  0  0
  148.9237  141.0271  154.0479 C   0  0  0  0  0  0  0  0  0  0  0  0
  147.6643  141.3196  153.4900 C   0  0  0  0  0  0  0  0  0  0  0  0
  146.6231  141.7915  154.3110 C   0  0  0  0  0  0  0  0  0  0  0  0
  146.8426  141.9708  155.6899 C   0  0  0  0  0  0  0  0  0  0  0  0
  148.1007  141.6766  156.2507 C   0  0  0  0  0  0  0  0  0  0  0  0
  148.2959  141.8667  157.5778 F   0  0  0  0  0  0  0  0  0  0  0  0
  151.7755  142.9754  158.8667 C   0  0  0  0  0  0  0  0  0  0  0  0
  151.1910  144.2535  158.8897 C   0  0  0  0  0  0  0  0  0  0  0  0
  151.3358  145.0089  160.0771 C   0  0  0  0  0  0  0  0  0  0  0  0
  152.0429  144.4850  161.1906 C   0  0  0  0  0  0  0  0  0  0  0  0
  152.6210  143.1948  161.1404 C   0  0  0  0  0  0  0  0  0  0  0  0
  152.4629  142.4676  159.9483 C   0  0  0  0  0  0  0  0  0  0  0  0
  153.9977  139.4066  159.9594 H   0  0  0  0  0  0  0  0  0  0  0  0
  153.1171  140.0628  161.3408 H   0  0  0  0  0  0  0  0  0  0  0  0
  154.6000  140.8453  160.7827 H   0  0  0  0  0  0  0  0  0  0  0  0
  150.5555  143.0164  156.5311 H   0  0  0  0  0  0  0  0  0  0  0  0
  152.0462  142.4455  155.8355 H   0  0  0  0  0  0  0  0  0  0  0  0
  150.3991  140.2184  156.8639 H   0  0  0  0  0  0  0  0  0  0  0  0
  152.2208  140.1306  155.5181 H   0  0  0  0  0  0  0  0  0  0  0  0
  149.7189  140.6755  153.4069 H   0  0  0  0  0  0  0  0  0  0  0  0
  147.4987  141.1848  152.4314 H   0  0  0  0  0  0  0  0  0  0  0  0
  145.6579  142.0181  153.8829 H   0  0  0  0  0  0  0  0  0  0  0  0
  146.0452  142.3377  156.3191 H   0  0  0  0  0  0  0  0  0  0  0  0
  150.6552  144.6466  158.0385 H   0  0  0  0  0  0  0  0  0  0  0  0
  150.9034  145.9967  160.1362 H   0  0  0  0  0  0  0  0  0  0  0  0
  152.1416  145.0788  162.0873 H   0  0  0  0  0  0  0  0  0  0  0  0
  153.1616  142.7889  161.9828 H   0  0  0  0  0  0  0  0  0  0  0  0
  1  2  1  0  0  0  0
  1 22  1  0  0  0  0
  1 23  1  0  0  0  0
  1 24  1  0  0  0  0
  2 21  1  0  0  0  0
  2  3  1  0  0  0  0
  3  4  2  0  0  0  0
  3  5  1  0  0  0  0
  5  6  1  0  0  0  0
  5 16  1  0  0  0  0
  6  7  1  0  0  0  0
  6 25  1  0  0  0  0
  6 26  1  0  0  0  0
  7  8  1  0  0  0  0
  7  9  1  0  0  0  0
  7 27  1  0  0  0  0
  8 28  1  0  0  0  0
  9 14  1  0  0  0  0
  9 10  2  0  0  0  0
 10 11  1  0  0  0  0
 10 29  1  0  0  0  0
 11 12  2  0  0  0  0
 11 30  1  0  0  0  0
 12 13  1  0  0  0  0
 12 31  1  0  0  0  0
 13 14  2  0  0  0  0
 13 32  1  0  0  0  0
 14 15  1  0  0  0  0
 16 21  2  0  0  0  0
 16 17  1  0  0  0  0
 17 18  2  0  0  0  0
 17 33  1  0  0  0  0
 18 19  1  0  0  0  0
 18 34  1  0  0  0  0
 19 20  2  0  0  0  0
 19 35  1  0  0  0  0
 20 21  1  0  0  0  0
 20 36  1  0  0  0  0
M  END
> <s_m_source_file>
AV-unprocessed.smi

> <i_m_source_file_index>
375

> <i_lp_mmshare_version>
43012

> <i_f3d_flags>
0

> <s_epik_input>
W2NIXTFbY0hdW2NIXVtjSF1jKGMxMiluKFtDSDNdKWMoPU8pbjJbQ0gyXVtDQEhdKFtPSF0pYzNbY0hdW2NIXVtjSF1bY0hdYzNG

> <s_epik_cmdline>
J2VwaWtfcHl0aG9uJywgJy1waCcsICc3LjAnLCAnLXRuJywgJzgnLCAnLW1hJywgJzIwMCcsICctbWV0YWxfYmluZGluZycsICctaW1hZScsICc8aW5maWxlLm1hZT4nLCAnLW9tYWUnLCAnPG91dGZpbGUubWFlPic=

> <r_lp_tautomer_probability>
1

> <r_epik_Ionization_Penalty>
1.34619e-06

> <r_epik_Ionization_Penalty_Charging>
2.57375e-09

> <r_epik_Ionization_Penalty_Neutral>
1.34362e-06

> <r_epik_State_Penalty>
-0

> <r_epik_Charging_Adjusted_Penalty>
2.57375e-09

> <i_epik_Tot_Q>
0

> <i_epik_Tot_abs_Q>
0

> <r_epik_Metal_State_Penalty>
-0

> <b_epik_Metal_Only>
0

> <s_lp_Force_Field>
OPLS_2005

> <r_lp_Energy>
41.1048

> <b_lp_Chiralities_Consistent>
1

> <s_lp_Variant>
AV-unprocessed.smi:375-1

> <Gold.Version>
5.8.1

> <Gold.Id.Protein>
6NUR|6NUR_protein|mol2

> <Gold.PLP.Fitness>
53.7045

> <Gold.PLP.PLP>
-49.7001

> <Gold.PLP.part.hbond>
-2.0000

> <Gold.PLP.part.metal>
0.0000

> <Gold.PLP.part.buried>
-6.2758

> <Gold.PLP.part.nonpolar>
-39.8689

> <Gold.PLP.part.repulsive>
0.0000

> <Gold.PLP.ligand.clash>
0.0000

> <Gold.PLP.ligand.torsion>
1.0088

> <Gold.PLP.Chemscore.Hbond>
2.0000

> <Gold.PLP.Chemscore.CHOScore>
0.0000

> <Gold.PLP.Chemscore.Metal>
0.0000

> <Gold.Chemscore.Hbonds>
donor molecule, donor type, donor heavy atom, donor atom, acceptor molecule, acceptor atom, score
      P1  H  7989  7998       L1     8  1.00
      P1  H  7997  8008       L1     4  1.00

> <Gold.PLP.Chemscore.Internal.Correction>
0.0220

> <Gold.Rescore>
     Score         DG    S(hbond)    S(metal)    S(lipo)     H(rot)  DE(clash)    DE(int)     intcor
     18.62     -21.02       1.57        0.00     128.33       1.85       0.34       2.06       ----

> <Gold.Chemscore.Fitness>
18.6197

> <Gold.Chemscore.DG>
-21.0168

> <Gold.Chemscore.ZeroCoef>
-5.4800

> <Gold.Chemscore.Hbond>
1.5715

> <Gold.Chemscore.Metal>
0.0000

> <Gold.Chemscore.Lipo>
128.3328

> <Gold.Chemscore.Internal_Hbond>
0.0000

> <Gold.Chemscore.DEClash>
0.3400

> <Gold.Chemscore.DEInternal>
2.0570

> <Gold.Chemscore.Rot>
1.8465

> <Gold.Chemscore.Internal.Correction>
   9.000000E+99

> <Gold.Chemscore.Hbonds>
donor molecule, donor type, donor heavy atom, donor atom, acceptor molecule, acceptor atom, score
      P1  H  7989  7998       L1     8  0.57
      P1  H  7997  8008       L1     4  0.77

> <Gold.Chemscore.Hbond.Weighted>
-5.2489

> <Gold.Chemscore.Metal.Weighted>
-0.0000

> <Gold.Chemscore.Lipo.Weighted>
-15.0149

> <Gold.Chemscore.Internal_Hbond.Weighted>
0.0000

> <Gold.Chemscore.DEClash.Weighted>
0.3400

> <Gold.Chemscore.DEInternal.Weighted>
2.0570

> <Gold.Chemscore.Rot.Weighted>
4.7270

> <Gold.Chemscore.Internal.Correction.Weighted>
   9.000000E+99

> <Gold.Protein.RotatedTorsions>
[ 6907 6896 6895 6894 ] final  115.44 input  -60.11 | X-H torsion
[ 7974 7965 7964 7962 ] final  -67.26 input  175.53 | X-H torsion
[ 8008 7997 7996 7995 ] final  -62.81 input   59.86 | X-H torsion
[ 10167 10162 10161 10158 ] final  164.12 input  -65.29 | X-H torsion
[ 10718 10713 10712 10709 ] final -110.44 input   66.30 | X-H torsion
[ 10763 10752 10751 10750 ] final  132.49 input  -60.55 | X-H torsion
[ 11005 11000 10999 10996 ] final   36.73 input  -57.11 | X-H torsion

> <Gold.Protein.ActiveResidues>
 VAL166  LYS551  ARG553  GLY616  TRP617  ASP618  TYR619  PRO620  LYS621  CYS622 
 ASP623  PHE694  ASN695  SER759  ASP760  ASP761  ALA762  ILE779  LEU786  VAL792 
 PHE793  MET794  SER795  GLU796  ALA797  LYS798  CYS799  TRP800  GLU811  SER814 

> <Gold.Protein.RotatedAtoms>
  152.4741  133.8097  159.6996 H   0  0  0  0  0  0  0  0  0  0  0  0  # atno 6907 bound_to 6896
  150.8747  133.7446  159.2957 H   0  0  0  0  0  0  0  0  0  0  0  0  # atno 6908 bound_to 6896
  151.4970  135.1063  159.9871 H   0  0  0  0  0  0  0  0  0  0  0  0  # atno 6909 bound_to 6896
  145.7314  140.8995  143.0578 H   0  0  0  0  0  0  0  0  0  0  0  0  # atno 7974 bound_to 7965
  154.4520  140.0988  156.6646 H   0  0  0  0  0  0  0  0  0  0  0  0  # atno 8008 bound_to 7997
  155.5256  140.3480  155.4397 H   0  0  0  0  0  0  0  0  0  0  0  0  # atno 8009 bound_to 7997
  156.0700  140.1347  156.9828 H   0  0  0  0  0  0  0  0  0  0  0  0  # atno 8010 bound_to 7997
  139.4884  144.4268  151.9119 H   0  0  0  0  0  0  0  0  0  0  0  0  # atno 10167 bound_to 10162
  156.0591  130.5815  150.8238 H   0  0  0  0  0  0  0  0  0  0  0  0  # atno 10718 bound_to 10713
  153.7916  135.3154  155.3379 H   0  0  0  0  0  0  0  0  0  0  0  0  # atno 10763 bound_to 10752
  154.8123  135.4659  154.0553 H   0  0  0  0  0  0  0  0  0  0  0  0  # atno 10764 bound_to 10752
  153.1873  135.6903  153.8485 H   0  0  0  0  0  0  0  0  0  0  0  0  # atno 10765 bound_to 10752
  140.2296  134.3543  155.7969 H   0  0  0  0  0  0  0  0  0  0  0  0  # atno 11005 bound_to 11000
  144.6892  139.9336  143.7472 LP  0  0  0  0  0  0  0  0  0  0  0  0  # atno 17320 bound_to 7965
  146.0534  139.3533  143.0625 LP  0  0  0  0  0  0  0  0  0  0  0  0  # atno 17321 bound_to 7965
  140.3714  144.2850  150.5919 LP  0  0  0  0  0  0  0  0  0  0  0  0  # atno 17342 bound_to 10162
  140.5315  143.2242  151.8230 LP  0  0  0  0  0  0  0  0  0  0  0  0  # atno 17343 bound_to 10162
  157.5585  131.0945  150.9593 LP  0  0  0  0  0  0  0  0  0  0  0  0  # atno 17370 bound_to 10713
  156.9836  130.5536  149.5298 LP  0  0  0  0  0  0  0  0  0  0  0  0  # atno 17371 bound_to 10713
  141.2218  133.7238  156.8710 LP  0  0  0  0  0  0  0  0  0  0  0  0  # atno 17394 bound_to 11000
  140.1764  134.9064  157.2896 LP  0  0  0  0  0  0  0  0  0  0  0  0  # atno 17395 bound_to 11000

$$$$
