AV-unprocessed.smi:1965|AV-procd|sdf|7944|dock2
  -GOLD-   2272010113D 1   1.00000     0.00000
 Structure written by MMmdl.
 36 38  0  0  0  0  0  0  0  0  3 V2000
  154.0303  139.1082  158.3267 O   0  0  0  0  0  0  0  0  0  0  0  0
  152.8265  139.2239  158.5510 C   0  0  0  0  0  0  0  0  0  0  0  0
  151.8837  138.3851  158.0478 N   0  5  0  0  0  0  0  0  0  0  0  0
  151.4926  138.4268  156.7603 C   0  0  0  0  0  0  0  0  0  0  0  0
  150.8509  137.4190  156.1576 N   0  0  0  0  0  0  0  0  0  0  0  0
  150.5323  137.6820  154.8240 C   0  0  0  0  0  0  0  0  0  0  0  0
  150.9408  138.9192  154.4015 C   0  0  0  0  0  0  0  0  0  0  0  0
  151.7480  139.7934  155.6717 S   0  0  0  0  0  0  0  0  0  0  0  0
  152.4053  140.2307  159.3380 N   0  0  0  0  0  0  0  0  0  0  0  0
  153.2378  141.2484  159.9697 C   0  0  2  0  0  0  0  0  0  0  0  0
  153.0846  141.3064  161.5051 C   0  0  0  0  0  0  0  0  0  0  0  0
  152.9248  142.7945  161.8323 C   0  0  0  0  0  0  0  0  0  0  0  0
  152.2646  143.3308  160.6360 N   0  3  1  0  0  0  0  0  0  0  0  0
  152.1834  144.7977  160.4799 C   0  0  0  0  0  0  0  0  0  0  0  0
  151.3234  145.1165  159.2379 C   0  0  0  0  0  0  0  0  0  0  0  0
  151.8188  144.3724  157.9773 C   0  0  0  0  0  0  0  0  0  0  0  0
  151.9913  142.8620  158.2412 C   0  0  0  0  0  0  0  0  0  0  0  0
  152.8885  142.6686  159.4783 C   0  0  2  0  0  0  0  0  0  0  0  0
  150.0133  136.9298  154.2487 H   0  0  0  0  0  0  0  0  0  0  0  0
  150.8216  139.3657  153.4258 H   0  0  0  0  0  0  0  0  0  0  0  0
  151.4112  140.2936  159.5028 H   0  0  0  0  0  0  0  0  0  0  0  0
  154.2788  141.0440  159.7123 H   0  0  0  0  0  0  0  0  0  0  0  0
  152.1862  140.7711  161.8174 H   0  0  0  0  0  0  0  0  0  0  0  0
  153.9302  140.8563  162.0260 H   0  0  0  0  0  0  0  0  0  0  0  0
  152.3380  142.9667  162.7351 H   0  0  0  0  0  0  0  0  0  0  0  0
  153.9010  143.2660  161.9571 H   0  0  0  0  0  0  0  0  0  0  0  0
  151.7352  145.2381  161.3712 H   0  0  0  0  0  0  0  0  0  0  0  0
  153.1844  145.2198  160.3777 H   0  0  0  0  0  0  0  0  0  0  0  0
  150.2900  144.8290  159.4363 H   0  0  0  0  0  0  0  0  0  0  0  0
  151.3120  146.1917  159.0570 H   0  0  0  0  0  0  0  0  0  0  0  0
  151.1257  144.5315  157.1508 H   0  0  0  0  0  0  0  0  0  0  0  0
  152.7741  144.7950  157.6629 H   0  0  0  0  0  0  0  0  0  0  0  0
  151.0149  142.4013  158.4000 H   0  0  0  0  0  0  0  0  0  0  0  0
  152.4327  142.3770  157.3698 H   0  0  0  0  0  0  0  0  0  0  0  0
  153.8392  143.1721  159.2876 H   0  0  0  0  0  0  0  0  0  0  0  0
  151.3152  142.9878  160.6740 H   0  0  0  0  0  0  0  0  0  0  0  0
  1  2  2  0  0  0  0
  2  3  1  0  0  0  0
  2  9  1  0  0  0  0
  3  4  1  0  0  0  0
  4  8  1  0  0  0  0
  4  5  2  0  0  0  0
  5  6  1  0  0  0  0
  6  7  2  0  0  0  0
  6 19  1  0  0  0  0
  7  8  1  0  0  0  0
  7 20  1  0  0  0  0
  9 10  1  0  0  0  0
  9 21  1  0  0  0  0
 10 18  1  0  0  0  0
 10 11  1  0  0  0  0
 10 22  1  0  0  0  0
 11 12  1  0  0  0  0
 11 23  1  0  0  0  0
 11 24  1  0  0  0  0
 12 13  1  0  0  0  0
 12 25  1  0  0  0  0
 12 26  1  0  0  0  0
 13 18  1  0  0  0  0
 13 14  1  0  0  0  0
 13 36  1  0  0  0  0
 14 15  1  0  0  0  0
 14 27  1  0  0  0  0
 14 28  1  0  0  0  0
 15 16  1  0  0  0  0
 15 29  1  0  0  0  0
 15 30  1  0  0  0  0
 16 17  1  0  0  0  0
 16 31  1  0  0  0  0
 16 32  1  0  0  0  0
 17 18  1  0  0  0  0
 17 33  1  0  0  0  0
 17 34  1  0  0  0  0
 18 35  1  0  0  0  0
M  CHG  1   3  -1
M  CHG  1  13   1
M  END
> <s_m_source_file>
AV-unprocessed.smi

> <i_m_source_file_index>
1965

> <i_lp_mmshare_version>
43012

> <i_f3d_flags>
0

> <s_epik_input>
czFbY0hdW2NIXW5jMVtOSF1DKD1PKVtOSF1bQ0BIXShbQ0gyXVtDSDJdMilbQ0BASF0oTjIzKVtDSDJdW0NIMl1bQ0gyXVtDSDJdMw==

> <s_epik_cmdline>
J2VwaWtfcHl0aG9uJywgJy1waCcsICc3LjAnLCAnLXRuJywgJzgnLCAnLW1hJywgJzIwMCcsICctbWV0YWxfYmluZGluZycsICctaW1hZScsICc8aW5maWxlLm1hZT4nLCAnLW9tYWUnLCAnPG91dGZpbGUubWFlPic=

> <r_lp_tautomer_probability>
1

> <r_epik_Ionization_Penalty>
7.4116

> <r_epik_Ionization_Penalty_Charging>
6.13869

> <r_epik_Ionization_Penalty_Neutral>
1.27291

> <r_epik_State_Penalty>
6.13761

> <r_epik_Charging_Adjusted_Penalty>
12.2763

> <i_epik_Tot_Q>
0

> <i_epik_Tot_abs_Q>
2

> <r_epik_Metal_State_Penalty>
2.08142

> <b_epik_Metal_Only>
1

> <s_lp_Force_Field>
OPLS_2005

> <r_lp_Energy>
32.5811

> <b_lp_Chiralities_Consistent>
1

> <s_lp_Variant>
AV-unprocessed.smi:1965-13

> <Gold.Version>
5.8.1

> <Gold.Id.Protein>
6NUR|6NUR_protein|mol2

> <Gold.PLP.Fitness>
46.1777

> <Gold.PLP.PLP>
-39.3004

> <Gold.PLP.part.hbond>
-1.0000

> <Gold.PLP.part.metal>
0.0000

> <Gold.PLP.part.buried>
-4.8512

> <Gold.PLP.part.nonpolar>
-33.3176

> <Gold.PLP.part.repulsive>
0.2155

> <Gold.PLP.ligand.clash>
0.0000

> <Gold.PLP.ligand.torsion>
0.7801

> <Gold.PLP.Chemscore.Hbond>
0.9600

> <Gold.PLP.Chemscore.CHOScore>
1.8483

> <Gold.PLP.Chemscore.Metal>
0.0000

> <Gold.Chemscore.Hbonds>
donor molecule, donor type, donor heavy atom, donor atom, acceptor molecule, acceptor atom, score
      P1  H  7997  8008       L1     1  1.00
      L1  C     6    19       P1  7948  0.66
      L1  C     7    20       P1  7957  0.73

> <Gold.PLP.Chemscore.Internal.Correction>
0.0128

> <Gold.Rescore>
     Score         DG    S(hbond)    S(metal)    S(lipo)     H(rot)  DE(clash)    DE(int)     intcor
     18.77     -19.50       0.99        0.00     113.56       1.00       0.03       0.70       ----

> <Gold.Chemscore.Fitness>
18.7652

> <Gold.Chemscore.DG>
-19.4978

> <Gold.Chemscore.ZeroCoef>
-5.4800

> <Gold.Chemscore.Hbond>
0.9853

> <Gold.Chemscore.Metal>
0.0000

> <Gold.Chemscore.Lipo>
113.5632

> <Gold.Chemscore.Internal_Hbond>
0.0000

> <Gold.Chemscore.DEClash>
0.0281

> <Gold.Chemscore.DEInternal>
0.7044

> <Gold.Chemscore.Rot>
1.0000

> <Gold.Chemscore.Internal.Correction>
   9.000000E+99

> <Gold.Chemscore.Hbonds>
donor molecule, donor type, donor heavy atom, donor atom, acceptor molecule, acceptor atom, score
      P1  H  7997  8008       L1     1  0.94

> <Gold.Chemscore.Hbond.Weighted>
-3.2909

> <Gold.Chemscore.Metal.Weighted>
-0.0000

> <Gold.Chemscore.Lipo.Weighted>
-13.2869

> <Gold.Chemscore.Internal_Hbond.Weighted>
0.0000

> <Gold.Chemscore.DEClash.Weighted>
0.0281

> <Gold.Chemscore.DEInternal.Weighted>
0.7044

> <Gold.Chemscore.Rot.Weighted>
2.5600

> <Gold.Chemscore.Internal.Correction.Weighted>
   9.000000E+99

> <Gold.Protein.RotatedTorsions>
[ 6907 6896 6895 6894 ] final  -98.02 input  -60.11 | X-H torsion
[ 7974 7965 7964 7962 ] final  -23.35 input  175.53 | X-H torsion
[ 8008 7997 7996 7995 ] final -121.12 input   59.86 | X-H torsion
[ 10167 10162 10161 10158 ] final   32.66 input  -65.29 | X-H torsion
[ 10718 10713 10712 10709 ] final -101.20 input   66.30 | X-H torsion
[ 10763 10752 10751 10750 ] final -143.82 input  -60.55 | X-H torsion
[ 11005 11000 10999 10996 ] final  -50.08 input  -57.11 | X-H torsion

> <Gold.Protein.ActiveResidues>
 VAL166  LYS551  ARG553  GLY616  TRP617  ASP618  TYR619  PRO620  LYS621  CYS622 
 ASP623  PHE694  ASN695  SER759  ASP760  ASP761  ALA762  ILE779  LEU786  VAL792 
 PHE793  MET794  SER795  GLU796  ALA797  LYS798  CYS799  TRP800  GLU811  SER814 

> <Gold.Protein.RotatedAtoms>
  150.7034  134.1258  159.4051 H   0  0  0  0  0  0  0  0  0  0  0  0  # atno 6907 bound_to 6896
  151.9244  135.0282  160.0534 H   0  0  0  0  0  0  0  0  0  0  0  0  # atno 6908 bound_to 6896
  152.2228  133.4962  159.5209 H   0  0  0  0  0  0  0  0  0  0  0  0  # atno 6909 bound_to 6896
  146.1621  140.4604  142.8567 H   0  0  0  0  0  0  0  0  0  0  0  0  # atno 7974 bound_to 7965
  155.1429  140.0402  157.2803 H   0  0  0  0  0  0  0  0  0  0  0  0  # atno 8008 bound_to 7997
  154.6460  140.2558  155.7241 H   0  0  0  0  0  0  0  0  0  0  0  0  # atno 8009 bound_to 7997
  156.2555  140.2846  156.0874 H   0  0  0  0  0  0  0  0  0  0  0  0  # atno 8010 bound_to 7997
  140.4478  144.1093  150.6186 H   0  0  0  0  0  0  0  0  0  0  0  0  # atno 10167 bound_to 10162
  156.0187  130.5362  150.6928 H   0  0  0  0  0  0  0  0  0  0  0  0  # atno 10718 bound_to 10713
  154.8454  135.3457  154.6248 H   0  0  0  0  0  0  0  0  0  0  0  0  # atno 10763 bound_to 10752
  153.6857  135.6977  153.5109 H   0  0  0  0  0  0  0  0  0  0  0  0  # atno 10764 bound_to 10752
  153.2633  135.4316  155.0872 H   0  0  0  0  0  0  0  0  0  0  0  0  # atno 10765 bound_to 10752
  141.0796  133.6657  156.3680 H   0  0  0  0  0  0  0  0  0  0  0  0  # atno 11005 bound_to 11000
  144.8042  140.6268  143.6458 LP  0  0  0  0  0  0  0  0  0  0  0  0  # atno 17320 bound_to 7965
  145.4561  139.1518  143.3892 LP  0  0  0  0  0  0  0  0  0  0  0  0  # atno 17321 bound_to 7965
  140.4243  143.2597  151.9676 LP  0  0  0  0  0  0  0  0  0  0  0  0  # atno 17342 bound_to 10162
  139.4794  144.5802  151.7945 LP  0  0  0  0  0  0  0  0  0  0  0  0  # atno 17343 bound_to 10162
  157.4606  131.0883  151.0749 LP  0  0  0  0  0  0  0  0  0  0  0  0  # atno 17370 bound_to 10713
  157.1238  130.6073  149.5512 LP  0  0  0  0  0  0  0  0  0  0  0  0  # atno 17371 bound_to 10713
  140.5498  134.6039  157.5404 LP  0  0  0  0  0  0  0  0  0  0  0  0  # atno 17394 bound_to 11000
  139.9609  134.7454  156.0239 LP  0  0  0  0  0  0  0  0  0  0  0  0  # atno 17395 bound_to 11000

$$$$
