AV-unprocessed.smi:3025|AV-procd|sdf|11510|dock5
  -GOLD-   2272016443D 1   1.00000     0.00000
 Structure written by MMmdl.
 42 43  0  0  0  0  0  0  0  0  2 V2000
  153.0709  143.6502  163.2434 C   0  0  0  0  0  0  0  0  0  0  0  0
  152.5007  143.8634  161.8370 C   0  0  0  0  0  0  0  0  0  0  0  0
  152.1273  142.5400  161.1478 C   0  0  0  0  0  0  0  0  0  0  0  0
  152.2473  142.5714  159.6099 C   0  0  2  0  0  0  0  0  0  0  0  0
  151.4917  143.7606  158.9789 C   0  0  0  0  0  0  0  0  0  0  0  0
  151.6062  143.7614  157.4445 C   0  0  0  0  0  0  0  0  0  0  0  0
  151.1259  142.4353  156.8175 C   0  0  2  0  0  0  0  0  0  0  0  0
  149.6587  142.2570  156.9238 N   0  3  0  0  0  0  0  0  0  0  0  0
  149.1166  141.0467  156.2714 C   0  0  0  0  0  0  0  0  0  0  0  0
  148.4250  141.3980  154.9475 C   0  0  0  0  0  0  0  0  0  0  0  0
  147.6989  140.2327  154.3593 C   0  0  0  0  0  0  0  0  0  0  0  0
  146.5721  139.7106  154.8580 N   0  0  0  0  0  0  0  0  0  0  0  0
  146.2341  138.6717  154.0051 N   0  0  0  0  0  0  0  0  0  0  0  0
  147.1889  138.6694  153.0738 C   0  0  0  0  0  0  0  0  0  0  0  0
  148.1191  139.6165  153.2439 N   0  0  0  0  0  0  0  0  0  0  0  0
  151.8591  141.2445  157.4623 C   0  0  0  0  0  0  0  0  0  0  0  0
  151.7464  141.2482  158.9970 C   0  0  0  0  0  0  0  0  0  0  0  0
  148.9303  139.8125  152.6753 H   0  0  0  0  0  0  0  0  0  0  0  0
  153.3220  144.6034  163.7092 H   0  0  0  0  0  0  0  0  0  0  0  0
  153.9779  143.0456  163.2144 H   0  0  0  0  0  0  0  0  0  0  0  0
  152.3513  143.1446  163.8878 H   0  0  0  0  0  0  0  0  0  0  0  0
  151.6272  144.5107  161.9101 H   0  0  0  0  0  0  0  0  0  0  0  0
  153.2335  144.3983  161.2319 H   0  0  0  0  0  0  0  0  0  0  0  0
  152.7843  141.7597  161.5348 H   0  0  0  0  0  0  0  0  0  0  0  0
  151.1157  142.2490  161.4334 H   0  0  0  0  0  0  0  0  0  0  0  0
  153.3049  142.6691  159.3595 H   0  0  0  0  0  0  0  0  0  0  0  0
  150.4410  143.7293  159.2698 H   0  0  0  0  0  0  0  0  0  0  0  0
  151.8852  144.7039  159.3563 H   0  0  0  0  0  0  0  0  0  0  0  0
  151.0673  144.6128  157.0296 H   0  0  0  0  0  0  0  0  0  0  0  0
  152.6514  143.9183  157.1743 H   0  0  0  0  0  0  0  0  0  0  0  0
  151.3758  142.4392  155.7556 H   0  0  0  0  0  0  0  0  0  0  0  0
  149.4317  142.1953  157.9060 H   0  0  0  0  0  0  0  0  0  0  0  0
  149.9221  140.3362  156.0857 H   0  0  0  0  0  0  0  0  0  0  0  0
  148.4046  140.5615  156.9402 H   0  0  0  0  0  0  0  0  0  0  0  0
  147.7194  142.2167  155.0967 H   0  0  0  0  0  0  0  0  0  0  0  0
  149.1597  141.7482  154.2211 H   0  0  0  0  0  0  0  0  0  0  0  0
  147.2074  137.9665  152.2538 H   0  0  0  0  0  0  0  0  0  0  0  0
  151.4788  140.3039  157.0618 H   0  0  0  0  0  0  0  0  0  0  0  0
  152.9139  141.2842  157.1871 H   0  0  0  0  0  0  0  0  0  0  0  0
  152.3197  140.4123  159.3995 H   0  0  0  0  0  0  0  0  0  0  0  0
  150.7102  141.0744  159.2906 H   0  0  0  0  0  0  0  0  0  0  0  0
  149.2031  143.0737  156.5417 H   0  0  0  0  0  0  0  0  0  0  0  0
  1  2  1  0  0  0  0
  1 19  1  0  0  0  0
  1 20  1  0  0  0  0
  1 21  1  0  0  0  0
  2  3  1  0  0  0  0
  2 22  1  0  0  0  0
  2 23  1  0  0  0  0
  3  4  1  0  0  0  0
  3 24  1  0  0  0  0
  3 25  1  0  0  0  0
  4 17  1  0  0  0  0
  4  5  1  0  0  0  0
  4 26  1  0  0  0  0
  5  6  1  0  0  0  0
  5 27  1  0  0  0  0
  5 28  1  0  0  0  0
  6  7  1  0  0  0  0
  6 29  1  0  0  0  0
  6 30  1  0  0  0  0
  7  8  1  0  0  0  0
  7 16  1  0  0  0  0
  7 31  1  0  0  0  0
  8  9  1  0  0  0  0
  8 32  1  0  0  0  0
  8 42  1  0  0  0  0
  9 10  1  0  0  0  0
  9 33  1  0  0  0  0
  9 34  1  0  0  0  0
 10 11  1  0  0  0  0
 10 35  1  0  0  0  0
 10 36  1  0  0  0  0
 11 15  1  0  0  0  0
 11 12  2  0  0  0  0
 12 13  1  0  0  0  0
 13 14  2  0  0  0  0
 14 15  1  0  0  0  0
 14 37  1  0  0  0  0
 15 18  1  0  0  0  0
 16 17  1  0  0  0  0
 16 38  1  0  0  0  0
 16 39  1  0  0  0  0
 17 40  1  0  0  0  0
 17 41  1  0  0  0  0
M  CHG  1   8   1
M  END
> <s_m_source_file>
AV-unprocessed.smi

> <i_m_source_file_index>
3025

> <i_lp_mmshare_version>
43012

> <i_f3d_flags>
0

> <s_epik_input>
W0NIM11bQ0gyXVtDSDJdW0NAQEhdMVtDSDJdW0NIMl1bQ0BIXShbQ0gyXVtDSDJdMSlbTkhdW0NIMl1bQ0gyXWMybm5bY0hdW25IXTI=

> <s_epik_cmdline>
J2VwaWtfcHl0aG9uJywgJy1waCcsICc3LjAnLCAnLXRuJywgJzgnLCAnLW1hJywgJzIwMCcsICctbWV0YWxfYmluZGluZycsICctaW1hZScsICc8aW5maWxlLm1hZT4nLCAnLW9tYWUnLCAnPG91dGZpbGUubWFlPic=

> <r_lp_tautomer_probability>
0.0517155

> <r_epik_Ionization_Penalty>
0.0349397

> <r_epik_Ionization_Penalty_Charging>
0.000546397

> <r_epik_Ionization_Penalty_Neutral>
0.0343933

> <r_epik_State_Penalty>
2.24019

> <r_epik_Charging_Adjusted_Penalty>
2.24074

> <i_epik_Tot_Q>
1

> <i_epik_Tot_abs_Q>
1

> <r_epik_Metal_State_Penalty>
2.47389

> <b_epik_Metal_Only>
0

> <s_lp_Force_Field>
OPLS_2005

> <r_lp_Energy>
17.8014

> <b_lp_Chiralities_Consistent>
1

> <s_lp_Variant>
AV-unprocessed.smi:3025-6

> <Gold.Version>
5.8.1

> <Gold.Id.Protein>
6NUR|6NUR_protein|mol2

> <Gold.PLP.Fitness>
44.2636

> <Gold.PLP.PLP>
-33.7869

> <Gold.PLP.part.hbond>
-2.0000

> <Gold.PLP.part.metal>
0.0000

> <Gold.PLP.part.buried>
-4.0557

> <Gold.PLP.part.nonpolar>
-28.4963

> <Gold.PLP.part.repulsive>
0.3336

> <Gold.PLP.ligand.clash>
0.0000

> <Gold.PLP.ligand.torsion>
0.6413

> <Gold.PLP.Chemscore.Hbond>
2.9760

> <Gold.PLP.Chemscore.CHOScore>
0.9053

> <Gold.PLP.Chemscore.Metal>
0.0000

> <Gold.Chemscore.Hbonds>
donor molecule, donor type, donor heavy atom, donor atom, acceptor molecule, acceptor atom, score
      L1  H     8    42       P1  8028  2.00
      L1  H    15    18       P1  7957  0.98
      L1  C    14    37       P1  7948  0.93

> <Gold.PLP.Chemscore.Internal.Correction>
0.1152

> <Gold.Rescore>
     Score         DG    S(hbond)    S(metal)    S(lipo)     H(rot)  DE(clash)    DE(int)     intcor
     16.94     -17.73       2.00        0.00     103.76       2.56       0.26       0.53       ----

> <Gold.Chemscore.Fitness>
16.9433

> <Gold.Chemscore.DG>
-17.7324

> <Gold.Chemscore.ZeroCoef>
-5.4800

> <Gold.Chemscore.Hbond>
1.9961

> <Gold.Chemscore.Metal>
0.0000

> <Gold.Chemscore.Lipo>
103.7573

> <Gold.Chemscore.Internal_Hbond>
0.0000

> <Gold.Chemscore.DEClash>
0.2579

> <Gold.Chemscore.DEInternal>
0.5313

> <Gold.Chemscore.Rot>
2.5602

> <Gold.Chemscore.Internal.Correction>
   9.000000E+99

> <Gold.Chemscore.Hbonds>
donor molecule, donor type, donor heavy atom, donor atom, acceptor molecule, acceptor atom, score
      L1  H     8    42       P1  8028  0.99
      L1  H    15    18       P1  7957  0.93

> <Gold.Chemscore.Hbond.Weighted>
-6.6670

> <Gold.Chemscore.Metal.Weighted>
-0.0000

> <Gold.Chemscore.Lipo.Weighted>
-12.1396

> <Gold.Chemscore.Internal_Hbond.Weighted>
0.0000

> <Gold.Chemscore.DEClash.Weighted>
0.2579

> <Gold.Chemscore.DEInternal.Weighted>
0.5313

> <Gold.Chemscore.Rot.Weighted>
6.5542

> <Gold.Chemscore.Internal.Correction.Weighted>
   9.000000E+99

> <Gold.Protein.RotatedTorsions>
[ 6907 6896 6895 6894 ] final    1.41 input  -60.11 | X-H torsion
[ 7974 7965 7964 7962 ] final -122.03 input  175.53 | X-H torsion
[ 8008 7997 7996 7995 ] final  -52.75 input   59.86 | X-H torsion
[ 10167 10162 10161 10158 ] final  105.21 input  -65.29 | X-H torsion
[ 10718 10713 10712 10709 ] final   80.75 input   66.30 | X-H torsion
[ 10763 10752 10751 10750 ] final  166.84 input  -60.55 | X-H torsion
[ 11005 11000 10999 10996 ] final -161.63 input  -57.11 | X-H torsion

> <Gold.Protein.ActiveResidues>
 VAL166  LYS551  ARG553  GLY616  TRP617  ASP618  TYR619  PRO620  LYS621  CYS622 
 ASP623  PHE694  ASN695  SER759  ASP760  ASP761  ALA762  ILE779  LEU786  VAL792 
 PHE793  MET794  SER795  GLU796  ALA797  LYS798  CYS799  TRP800  GLU811  SER814 

> <Gold.Protein.RotatedAtoms>
  151.5922  135.1052  160.0041 H   0  0  0  0  0  0  0  0  0  0  0  0  # atno 6907 bound_to 6896
  152.4300  133.7258  159.6570 H   0  0  0  0  0  0  0  0  0  0  0  0  # atno 6908 bound_to 6896
  150.8192  133.8211  159.3169 H   0  0  0  0  0  0  0  0  0  0  0  0  # atno 6909 bound_to 6896
  145.0339  140.8090  143.4307 H   0  0  0  0  0  0  0  0  0  0  0  0  # atno 7974 bound_to 7965
  154.4115  140.1216  156.5042 H   0  0  0  0  0  0  0  0  0  0  0  0  # atno 8008 bound_to 7997
  155.6864  140.3495  155.4856 H   0  0  0  0  0  0  0  0  0  0  0  0  # atno 8009 bound_to 7997
  155.9507  140.1104  157.0969 H   0  0  0  0  0  0  0  0  0  0  0  0  # atno 8010 bound_to 7997
  139.7112  144.7077  151.1024 H   0  0  0  0  0  0  0  0  0  0  0  0  # atno 10167 bound_to 10162
  157.6814  130.9973  150.2125 H   0  0  0  0  0  0  0  0  0  0  0  0  # atno 10718 bound_to 10713
  154.3450  135.2753  155.2402 H   0  0  0  0  0  0  0  0  0  0  0  0  # atno 10763 bound_to 10752
  154.4656  135.5896  153.6289 H   0  0  0  0  0  0  0  0  0  0  0  0  # atno 10764 bound_to 10752
  152.9854  135.6075  154.3655 H   0  0  0  0  0  0  0  0  0  0  0  0  # atno 10765 bound_to 10752
  140.6182  134.4778  157.5221 H   0  0  0  0  0  0  0  0  0  0  0  0  # atno 11005 bound_to 11000
  145.1735  139.2391  143.5329 LP  0  0  0  0  0  0  0  0  0  0  0  0  # atno 17320 bound_to 7965
  146.3502  140.1492  142.8593 LP  0  0  0  0  0  0  0  0  0  0  0  0  # atno 17321 bound_to 7965
  140.7733  143.5291  150.9445 LP  0  0  0  0  0  0  0  0  0  0  0  0  # atno 17342 bound_to 10162
  139.8976  143.6876  152.3136 LP  0  0  0  0  0  0  0  0  0  0  0  0  # atno 17343 bound_to 10162
  156.2793  130.3731  149.7951 LP  0  0  0  0  0  0  0  0  0  0  0  0  # atno 17370 bound_to 10713
  156.5645  130.8398  151.3338 LP  0  0  0  0  0  0  0  0  0  0  0  0  # atno 17371 bound_to 10713
  139.9164  134.8237  156.1352 LP  0  0  0  0  0  0  0  0  0  0  0  0  # atno 17394 bound_to 11000
  141.0761  133.6775  156.2239 LP  0  0  0  0  0  0  0  0  0  0  0  0  # atno 17395 bound_to 11000

$$$$
