AV-unprocessed.smi:261|AV-procd|sdf|1987|dock6
  -GOLD-   2262021163D 1   1.00000     0.00000
 Structure written by MMmdl.
 51 54  0  0  0  0  0  0  0  0  1 V2000
  148.0536  132.5776  153.3499 C   0  0  0  0  0  0  0  0  0  0  0  0
  149.3564  132.9755  153.7451 O   0  0  0  0  0  0  0  0  0  0  0  0
  149.3808  134.2146  154.4379 C   0  0  1  0  0  0  0  0  0  0  0  0
  148.3829  134.2128  155.5891 C   0  0  0  0  0  0  0  0  0  0  0  0
  148.9103  135.3259  156.5048 C   0  0  1  0  0  0  0  0  0  0  0  0
  148.4658  135.1308  157.9615 C   0  0  0  0  0  0  0  0  0  0  0  0
  147.1509  135.0856  158.1875 N   0  0  0  0  0  0  0  0  0  0  0  0
  149.2888  135.0074  158.8673 O   0  0  0  0  0  0  0  0  0  0  0  0
  150.3666  135.2550  156.3544 N   0  0  0  0  0  0  0  0  0  0  0  0
  151.0176  136.4300  156.5022 C   0  0  0  0  0  0  0  0  0  0  0  0
  152.3720  136.3984  156.4679 N   0  0  0  0  0  0  0  0  0  0  0  0
  153.0695  137.5294  156.6136 C   0  0  0  0  0  0  0  0  0  0  0  0
  152.6178  138.7719  156.8014 N   0  0  0  0  0  0  0  0  0  0  0  0
  151.2545  138.8032  156.8392 C   0  0  0  0  0  0  0  0  0  0  0  0
  150.3822  137.6881  156.7003 C   0  0  0  0  0  0  0  0  0  0  0  0
  149.0593  138.1033  156.7978 N   0  0  0  0  0  0  0  0  0  0  0  0
  149.1449  139.3924  156.9839 C   0  0  0  0  0  0  0  0  0  0  0  0
  150.4255  139.8955  157.0223 N   0  0  0  0  0  0  0  0  0  0  0  0
  150.8067  141.2829  157.2184 C   0  0  0  0  0  0  0  0  0  0  0  0
  151.5201  141.5146  158.5651 C   0  0  1  0  0  0  0  0  0  0  0  0
  152.9012  141.2437  158.4191 O   0  0  0  0  0  0  0  0  0  0  0  0
  151.3464  142.9583  159.0713 C   0  0  2  0  0  0  0  0  0  0  0  0
  152.0506  144.0189  158.2259 C   0  0  0  0  0  0  0  0  0  0  0  0
  152.2088  145.1790  159.1928 C   0  0  0  0  0  0  0  0  0  0  0  0
  152.1194  144.5221  160.5737 C   0  0  0  0  0  0  0  0  0  0  0  0
  151.9838  143.1277  160.3281 O   0  0  0  0  0  0  0  0  0  0  0  0
  150.7043  134.4867  155.1593 C   0  0  0  0  0  0  0  0  0  0  0  0
  149.1395  135.0404  153.7657 H   0  0  0  0  0  0  0  0  0  0  0  0
  148.5430  136.2882  156.1416 H   0  0  0  0  0  0  0  0  0  0  0  0
  148.1045  131.6117  152.8475 H   0  0  0  0  0  0  0  0  0  0  0  0
  147.6098  133.2913  152.6553 H   0  0  0  0  0  0  0  0  0  0  0  0
  147.3950  132.4725  154.2129 H   0  0  0  0  0  0  0  0  0  0  0  0
  147.3607  134.3910  155.2539 H   0  0  0  0  0  0  0  0  0  0  0  0
  148.4064  133.2463  156.0968 H   0  0  0  0  0  0  0  0  0  0  0  0
  146.8038  134.9582  159.1270 H   0  0  0  0  0  0  0  0  0  0  0  0
  146.5075  135.1785  157.4149 H   0  0  0  0  0  0  0  0  0  0  0  0
  154.1436  137.4233  156.5744 H   0  0  0  0  0  0  0  0  0  0  0  0
  148.2710  140.0164  157.1021 H   0  0  0  0  0  0  0  0  0  0  0  0
  151.4443  141.5920  156.3892 H   0  0  0  0  0  0  0  0  0  0  0  0
  149.9046  141.8928  157.1586 H   0  0  0  0  0  0  0  0  0  0  0  0
  151.1209  140.8218  159.3071 H   0  0  0  0  0  0  0  0  0  0  0  0
  153.1615  140.6383  159.0964 H   0  0  0  0  0  0  0  0  0  0  0  0
  150.2880  143.2056  159.1747 H   0  0  0  0  0  0  0  0  0  0  0  0
  153.0340  143.6623  157.9167 H   0  0  0  0  0  0  0  0  0  0  0  0
  151.4920  144.2877  157.3291 H   0  0  0  0  0  0  0  0  0  0  0  0
  153.1539  145.7014  159.0428 H   0  0  0  0  0  0  0  0  0  0  0  0
  151.4014  145.9011  159.0670 H   0  0  0  0  0  0  0  0  0  0  0  0
  153.0008  144.7176  161.1846 H   0  0  0  0  0  0  0  0  0  0  0  0
  151.2438  144.8829  161.1149 H   0  0  0  0  0  0  0  0  0  0  0  0
  151.1543  133.5502  155.4908 H   0  0  0  0  0  0  0  0  0  0  0  0
  151.4271  134.9779  154.5057 H   0  0  0  0  0  0  0  0  0  0  0  0
  1  2  1  0  0  0  0
  1 30  1  0  0  0  0
  1 31  1  0  0  0  0
  1 32  1  0  0  0  0
  2  3  1  0  0  0  0
  3 28  1  0  0  0  0
  3 27  1  0  0  0  0
  3  4  1  0  0  0  0
  4  5  1  0  0  0  0
  4 33  1  0  0  0  0
  4 34  1  0  0  0  0
  5 29  1  0  0  0  0
  5  6  1  0  0  0  0
  5  9  1  0  0  0  0
  6  7  1  0  0  0  0
  6  8  2  0  0  0  0
  7 35  1  0  0  0  0
  7 36  1  0  0  0  0
  9 10  1  0  0  0  0
  9 27  1  0  0  0  0
 10 15  1  0  0  0  0
 10 11  2  0  0  0  0
 11 12  1  0  0  0  0
 12 13  2  0  0  0  0
 12 37  1  0  0  0  0
 13 14  1  0  0  0  0
 14 18  1  0  0  0  0
 14 15  2  0  0  0  0
 15 16  1  0  0  0  0
 16 17  2  0  0  0  0
 17 18  1  0  0  0  0
 17 38  1  0  0  0  0
 18 19  1  0  0  0  0
 19 20  1  0  0  0  0
 19 39  1  0  0  0  0
 19 40  1  0  0  0  0
 20 21  1  0  0  0  0
 20 22  1  0  0  0  0
 20 41  1  0  0  0  0
 21 42  1  0  0  0  0
 22 26  1  0  0  0  0
 22 23  1  0  0  0  0
 22 43  1  0  0  0  0
 23 24  1  0  0  0  0
 23 44  1  0  0  0  0
 23 45  1  0  0  0  0
 24 25  1  0  0  0  0
 24 46  1  0  0  0  0
 24 47  1  0  0  0  0
 25 26  1  0  0  0  0
 25 48  1  0  0  0  0
 25 49  1  0  0  0  0
 27 50  1  0  0  0  0
 27 51  1  0  0  0  0
M  END
> <s_m_source_file>
AV-unprocessed.smi

> <i_m_source_file_index>
261

> <i_lp_mmshare_version>
43012

> <i_f3d_flags>
0

> <s_epik_input>
W0NIM11PW0NASF0xW0NIMl1bQ0BASF0oQyg9TylbTkgyXSlOKFtDSDJdMSljKG5bY0hdbjIpYyhjMjMpbltjSF1uM1tDSDJdW0NASF0oW09IXSlbQ0BASF00W0NIMl1bQ0gyXVtDSDJdTzQ=

> <s_epik_cmdline>
J2VwaWtfcHl0aG9uJywgJy1waCcsICc3LjAnLCAnLXRuJywgJzgnLCAnLW1hJywgJzIwMCcsICctbWV0YWxfYmluZGluZycsICctaW1hZScsICc8aW5maWxlLm1hZT4nLCAnLW9tYWUnLCAnPG91dGZpbGUubWFlPic=

> <r_lp_tautomer_probability>
1

> <r_epik_Ionization_Penalty>
0.000713824

> <r_epik_Ionization_Penalty_Charging>
0

> <r_epik_Ionization_Penalty_Neutral>
0.000713824

> <r_epik_State_Penalty>
0.000402132

> <r_epik_Charging_Adjusted_Penalty>
0.000402132

> <i_epik_Tot_Q>
0

> <i_epik_Tot_abs_Q>
0

> <r_epik_Metal_State_Penalty>
-0

> <b_epik_Metal_Only>
0

> <s_lp_Force_Field>
OPLS_2005

> <r_lp_Energy>
45.3763

> <b_lp_Chiralities_Consistent>
1

> <s_lp_Variant>
AV-unprocessed.smi:261-5

> <Gold.Version>
5.8.1

> <Gold.Id.Protein>
6NUR|6NUR_protein|mol2

> <Gold.PLP.Fitness>
39.6130

> <Gold.PLP.PLP>
-34.5032

> <Gold.PLP.part.hbond>
-2.1998

> <Gold.PLP.part.metal>
0.0000

> <Gold.PLP.part.buried>
-6.0791

> <Gold.PLP.part.nonpolar>
-25.8491

> <Gold.PLP.part.repulsive>
0.2125

> <Gold.PLP.ligand.clash>
0.0000

> <Gold.PLP.ligand.torsion>
0.5132

> <Gold.PLP.Chemscore.Hbond>
1.9920

> <Gold.PLP.Chemscore.CHOScore>
0.0000

> <Gold.PLP.Chemscore.Metal>
0.0000

> <Gold.Chemscore.Hbonds>
donor molecule, donor type, donor heavy atom, donor atom, acceptor molecule, acceptor atom, score
      P1  H  6896  6907       L1     8  0.98
      P1  H  7997  8008       L1    13  0.11
      P1  H 10752 10764       L1    11  1.00

> <Gold.PLP.Chemscore.Internal.Correction>
0.1602

> <Gold.Rescore>
     Score         DG    S(hbond)    S(metal)    S(lipo)     H(rot)  DE(clash)    DE(int)     intcor
      7.85      -9.81       1.15        0.00      82.28       3.57       0.02       1.94       ----

> <Gold.Chemscore.Fitness>
7.8523

> <Gold.Chemscore.DG>
-9.8111

> <Gold.Chemscore.ZeroCoef>
-5.4800

> <Gold.Chemscore.Hbond>
1.1539

> <Gold.Chemscore.Metal>
0.0000

> <Gold.Chemscore.Lipo>
82.2783

> <Gold.Chemscore.Internal_Hbond>
0.0000

> <Gold.Chemscore.DEClash>
0.0197

> <Gold.Chemscore.DEInternal>
1.9392

> <Gold.Chemscore.Rot>
3.5740

> <Gold.Chemscore.Internal.Correction>
   9.000000E+99

> <Gold.Chemscore.Hbonds>
donor molecule, donor type, donor heavy atom, donor atom, acceptor molecule, acceptor atom, score
      P1  H  6896  6907       L1     8  0.93
      P1  H  7997  8008       L1    13  0.06
      P1  H 10752 10764       L1    11  0.49

> <Gold.Chemscore.Hbond.Weighted>
-3.8540

> <Gold.Chemscore.Metal.Weighted>
-0.0000

> <Gold.Chemscore.Lipo.Weighted>
-9.6266

> <Gold.Chemscore.Internal_Hbond.Weighted>
0.0000

> <Gold.Chemscore.DEClash.Weighted>
0.0197

> <Gold.Chemscore.DEInternal.Weighted>
1.9392

> <Gold.Chemscore.Rot.Weighted>
9.1495

> <Gold.Chemscore.Internal.Correction.Weighted>
   9.000000E+99

> <Gold.Protein.RotatedTorsions>
[ 6907 6896 6895 6894 ] final  -98.08 input  -60.11 | X-H torsion
[ 7974 7965 7964 7962 ] final   11.17 input  175.53 | X-H torsion
[ 8008 7997 7996 7995 ] final  -24.64 input   59.86 | X-H torsion
[ 10167 10162 10161 10158 ] final  -57.94 input  -65.29 | X-H torsion
[ 10718 10713 10712 10709 ] final -108.33 input   66.30 | X-H torsion
[ 10763 10752 10751 10750 ] final  -20.80 input  -60.55 | X-H torsion
[ 11005 11000 10999 10996 ] final   24.29 input  -57.11 | X-H torsion

> <Gold.Protein.ActiveResidues>
 VAL166  LYS551  ARG553  GLY616  TRP617  ASP618  TYR619  PRO620  LYS621  CYS622 
 ASP623  PHE694  ASN695  SER759  ASP760  ASP761  ALA762  ILE779  LEU786  VAL792 
 PHE793  MET794  SER795  GLU796  ALA797  LYS798  CYS799  TRP800  GLU811  SER814 

> <Gold.Protein.RotatedAtoms>
  150.7035  134.1250  159.4048 H   0  0  0  0  0  0  0  0  0  0  0  0  # atno 6907 bound_to 6896
  151.9236  135.0285  160.0533 H   0  0  0  0  0  0  0  0  0  0  0  0  # atno 6908 bound_to 6896
  152.2235  133.4967  159.5212 H   0  0  0  0  0  0  0  0  0  0  0  0  # atno 6909 bound_to 6896
  146.2376  139.9525  142.8469 H   0  0  0  0  0  0  0  0  0  0  0  0  # atno 7974 bound_to 7965
  154.4518  140.1948  156.0496 H   0  0  0  0  0  0  0  0  0  0  0  0  # atno 8008 bound_to 7997
  156.0664  140.3290  155.7495 H   0  0  0  0  0  0  0  0  0  0  0  0  # atno 8009 bound_to 7997
  155.5332  140.0580  157.2875 H   0  0  0  0  0  0  0  0  0  0  0  0  # atno 8010 bound_to 7997
  140.6228  143.2426  151.5439 H   0  0  0  0  0  0  0  0  0  0  0  0  # atno 10167 bound_to 10162
  156.0480  130.5707  150.7945 H   0  0  0  0  0  0  0  0  0  0  0  0  # atno 10718 bound_to 10713
  153.6261  135.6991  153.5292 H   0  0  0  0  0  0  0  0  0  0  0  0  # atno 10763 bound_to 10752
  153.2898  135.4160  155.1155 H   0  0  0  0  0  0  0  0  0  0  0  0  # atno 10764 bound_to 10752
  154.8532  135.3622  154.5803 H   0  0  0  0  0  0  0  0  0  0  0  0  # atno 10765 bound_to 10752
  140.3603  134.2133  155.7673 H   0  0  0  0  0  0  0  0  0  0  0  0  # atno 11005 bound_to 11000
  145.1848  140.9784  143.4245 LP  0  0  0  0  0  0  0  0  0  0  0  0  # atno 17320 bound_to 7965
  144.9910  139.3689  143.6215 LP  0  0  0  0  0  0  0  0  0  0  0  0  # atno 17321 bound_to 7965
  139.5453  144.2537  152.1430 LP  0  0  0  0  0  0  0  0  0  0  0  0  # atno 17342 bound_to 10162
  140.1761  144.4889  150.6553 LP  0  0  0  0  0  0  0  0  0  0  0  0  # atno 17343 bound_to 10162
  157.5376  131.0939  150.9871 LP  0  0  0  0  0  0  0  0  0  0  0  0  # atno 17370 bound_to 10713
  157.0161  130.5656  149.5326 LP  0  0  0  0  0  0  0  0  0  0  0  0  # atno 17371 bound_to 10713
  141.1986  133.8031  157.0575 LP  0  0  0  0  0  0  0  0  0  0  0  0  # atno 17394 bound_to 11000
  140.0632  134.9743  157.1341 LP  0  0  0  0  0  0  0  0  0  0  0  0  # atno 17395 bound_to 11000

$$$$
