AV-unprocessed.smi:2760|AV-procd|sdf|10631|dock3
  -GOLD-   2272015 83D 1   1.00000     0.00000
 Structure written by MMmdl.
 32 33  0  0  0  0  0  0  0  0  1 V2000
  149.4836  141.0369  153.7036 O   0  0  0  0  0  0  0  0  0  0  0  0
  149.9405  140.9287  154.9835 C   0  0  0  0  0  0  0  0  0  0  0  0
  150.2026  142.0945  155.7342 C   0  0  0  0  0  0  0  0  0  0  0  0
  150.6723  141.9068  157.0529 C   0  0  0  0  0  0  0  0  0  0  0  0
  150.9880  143.0477  157.9681 C   0  0  0  0  0  0  0  0  0  0  0  0
  151.8892  144.1797  157.5271 C   0  0  0  0  0  0  0  0  0  0  0  0
  152.3666  143.1985  158.5691 C   0  0  0  0  0  0  0  0  0  0  0  0
  150.8474  140.6707  157.5699 N   0  0  0  0  0  0  0  0  0  0  0  0
  150.5646  139.6438  156.7653 C   0  0  0  0  0  0  0  0  0  0  0  0
  150.7820  138.0136  157.4417 S   0  0  0  0  0  0  0  0  0  0  0  0
  149.7108  138.1007  158.9071 C   0  0  0  0  0  0  0  0  0  0  0  0
  149.2086  136.7163  159.3357 C   0  0  0  0  0  0  0  0  0  0  0  0
  148.4362  136.8480  160.5165 O   0  0  0  0  0  0  0  0  0  0  0  0
  147.8175  135.6300  160.9019 C   0  0  0  0  0  0  0  0  0  0  0  0
  146.9551  135.8603  162.1486 C   0  0  0  0  0  0  0  0  0  0  0  0
  146.5227  134.6857  162.6057 F   0  0  0  0  0  0  0  0  0  0  0  0
  147.6731  136.4522  163.1027 F   0  0  0  0  0  0  0  0  0  0  0  0
  145.8998  136.6165  161.8472 F   0  0  0  0  0  0  0  0  0  0  0  0
  150.1277  139.6974  155.5060 N   0  0  0  0  0  0  0  0  0  0  0  0
  149.6377  140.2593  153.1900 H   0  0  0  0  0  0  0  0  0  0  0  0
  150.0524  143.0816  155.3220 H   0  0  0  0  0  0  0  0  0  0  0  0
  150.1326  143.2968  158.5933 H   0  0  0  0  0  0  0  0  0  0  0  0
  152.3496  144.1195  156.5429 H   0  0  0  0  0  0  0  0  0  0  0  0
  151.6501  145.1837  157.8716 H   0  0  0  0  0  0  0  0  0  0  0  0
  152.4384  143.5633  159.5917 H   0  0  0  0  0  0  0  0  0  0  0  0
  153.1331  142.4860  158.2705 H   0  0  0  0  0  0  0  0  0  0  0  0
  150.2835  138.5516  159.7175 H   0  0  0  0  0  0  0  0  0  0  0  0
  148.8717  138.7676  158.7073 H   0  0  0  0  0  0  0  0  0  0  0  0
  148.6007  136.2699  158.5475 H   0  0  0  0  0  0  0  0  0  0  0  0
  150.0552  136.0519  159.5160 H   0  0  0  0  0  0  0  0  0  0  0  0
  147.1981  135.2520  160.0867 H   0  0  0  0  0  0  0  0  0  0  0  0
  148.5773  134.8751  161.1113 H   0  0  0  0  0  0  0  0  0  0  0  0
  1  2  1  0  0  0  0
  1 20  1  0  0  0  0
  2 19  1  0  0  0  0
  2  3  2  0  0  0  0
  3  4  1  0  0  0  0
  3 21  1  0  0  0  0
  4  5  1  0  0  0  0
  4  8  2  0  0  0  0
  5  7  1  0  0  0  0
  5  6  1  0  0  0  0
  5 22  1  0  0  0  0
  6  7  1  0  0  0  0
  6 23  1  0  0  0  0
  6 24  1  0  0  0  0
  7 25  1  0  0  0  0
  7 26  1  0  0  0  0
  8  9  1  0  0  0  0
  9 10  1  0  0  0  0
  9 19  2  0  0  0  0
 10 11  1  0  0  0  0
 11 12  1  0  0  0  0
 11 27  1  0  0  0  0
 11 28  1  0  0  0  0
 12 13  1  0  0  0  0
 12 29  1  0  0  0  0
 12 30  1  0  0  0  0
 13 14  1  0  0  0  0
 14 15  1  0  0  0  0
 14 31  1  0  0  0  0
 14 32  1  0  0  0  0
 15 16  1  0  0  0  0
 15 17  1  0  0  0  0
 15 18  1  0  0  0  0
M  END
> <s_m_source_file>
AV-unprocessed.smi

> <i_m_source_file_index>
2760

> <i_lp_mmshare_version>
43012

> <i_f3d_flags>
0

> <s_epik_input>
W09IXWMxW2NIXWMoW0NIXTJbQ0gyXVtDSDJdMiluYyhuMSlTW0NIMl1bQ0gyXU9bQ0gyXUMoRikoRilG

> <s_epik_cmdline>
J2VwaWtfcHl0aG9uJywgJy1waCcsICc3LjAnLCAnLXRuJywgJzgnLCAnLW1hJywgJzIwMCcsICctbWV0YWxfYmluZGluZycsICctaW1hZScsICc8aW5maWxlLm1hZT4nLCAnLW9tYWUnLCAnPG91dGZpbGUubWFlPic=

> <r_lp_tautomer_probability>
0.0660145

> <r_epik_Ionization_Penalty>
3.02064

> <r_epik_Ionization_Penalty_Charging>
0

> <r_epik_Ionization_Penalty_Neutral>
3.02064

> <r_epik_State_Penalty>
2.51658

> <r_epik_Charging_Adjusted_Penalty>
2.51658

> <i_epik_Tot_Q>
0

> <i_epik_Tot_abs_Q>
0

> <r_epik_Metal_State_Penalty>
3.1674

> <b_epik_Metal_Only>
0

> <s_lp_Force_Field>
OPLS_2005

> <r_lp_Energy>
-0.868617

> <b_lp_Chiralities_Consistent>
1

> <s_lp_Variant>
AV-unprocessed.smi:2760-4

> <Gold.Version>
5.8.1

> <Gold.Id.Protein>
6NUR|6NUR_protein|mol2

> <Gold.PLP.Fitness>
47.3730

> <Gold.PLP.PLP>
-40.4470

> <Gold.PLP.part.hbond>
-4.1128

> <Gold.PLP.part.metal>
0.0000

> <Gold.PLP.part.buried>
-2.2769

> <Gold.PLP.part.nonpolar>
-34.0373

> <Gold.PLP.part.repulsive>
0.0322

> <Gold.PLP.ligand.clash>
0.0000

> <Gold.PLP.ligand.torsion>
0.3053

> <Gold.PLP.Chemscore.Hbond>
2.4242

> <Gold.PLP.Chemscore.CHOScore>
0.0000

> <Gold.PLP.Chemscore.Metal>
0.0000

> <Gold.Chemscore.Hbonds>
donor molecule, donor type, donor heavy atom, donor atom, acceptor molecule, acceptor atom, score
      L1  H     1    20       P1  7957  0.56
      P1  H  6931  6943       L1    13  0.83
      P1  H  8011  8017       L1     1  0.98

> <Gold.PLP.Chemscore.Internal.Correction>
0.2638

> <Gold.Rescore>
     Score         DG    S(hbond)    S(metal)    S(lipo)     H(rot)  DE(clash)    DE(int)     intcor
     11.85     -12.72       1.84        0.00      78.39       3.16       0.57       0.29       ----

> <Gold.Chemscore.Fitness>
11.8507

> <Gold.Chemscore.DG>
-12.7158

> <Gold.Chemscore.ZeroCoef>
-5.4800

> <Gold.Chemscore.Hbond>
1.8392

> <Gold.Chemscore.Metal>
0.0000

> <Gold.Chemscore.Lipo>
78.3892

> <Gold.Chemscore.Internal_Hbond>
0.0000

> <Gold.Chemscore.DEClash>
0.5714

> <Gold.Chemscore.DEInternal>
0.2937

> <Gold.Chemscore.Rot>
3.1557

> <Gold.Chemscore.Internal.Correction>
   9.000000E+99

> <Gold.Chemscore.Hbonds>
donor molecule, donor type, donor heavy atom, donor atom, acceptor molecule, acceptor atom, score
      L1  H     1    20       P1  7957  0.53
      P1  H  6931  6943       L1    13  0.73
      P1  H  8011  8017       L1     1  0.23

> <Gold.Chemscore.Hbond.Weighted>
-6.1428

> <Gold.Chemscore.Metal.Weighted>
-0.0000

> <Gold.Chemscore.Lipo.Weighted>
-9.1715

> <Gold.Chemscore.Internal_Hbond.Weighted>
0.0000

> <Gold.Chemscore.DEClash.Weighted>
0.5714

> <Gold.Chemscore.DEInternal.Weighted>
0.2937

> <Gold.Chemscore.Rot.Weighted>
8.0785

> <Gold.Chemscore.Internal.Correction.Weighted>
   9.000000E+99

> <Gold.Protein.RotatedTorsions>
[ 6907 6896 6895 6894 ] final  153.34 input  -60.11 | X-H torsion
[ 7974 7965 7964 7962 ] final   28.65 input  175.53 | X-H torsion
[ 8008 7997 7996 7995 ] final -123.83 input   59.86 | X-H torsion
[ 10167 10162 10161 10158 ] final -123.81 input  -65.29 | X-H torsion
[ 10718 10713 10712 10709 ] final  -71.28 input   66.30 | X-H torsion
[ 10763 10752 10751 10750 ] final    1.27 input  -60.55 | X-H torsion
[ 11005 11000 10999 10996 ] final  102.88 input  -57.11 | X-H torsion

> <Gold.Protein.ActiveResidues>
 VAL166  LYS551  ARG553  GLY616  TRP617  ASP618  TYR619  PRO620  LYS621  CYS622 
 ASP623  PHE694  ASN695  SER759  ASP760  ASP761  ALA762  ILE779  LEU786  VAL792 
 PHE793  MET794  SER795  GLU796  ALA797  LYS798  CYS799  TRP800  GLU811  SER814 

> <Gold.Protein.RotatedAtoms>
  152.0741  133.4120  159.4471 H   0  0  0  0  0  0  0  0  0  0  0  0  # atno 6907 bound_to 6896
  150.6863  134.3058  159.4735 H   0  0  0  0  0  0  0  0  0  0  0  0  # atno 6908 bound_to 6896
  152.0893  134.9418  160.0623 H   0  0  0  0  0  0  0  0  0  0  0  0  # atno 6909 bound_to 6896
  146.1717  139.7027  142.8963 H   0  0  0  0  0  0  0  0  0  0  0  0  # atno 7974 bound_to 7965
  155.1869  140.0412  157.2893 H   0  0  0  0  0  0  0  0  0  0  0  0  # atno 8008 bound_to 7997
  154.6165  140.2490  155.7575 H   0  0  0  0  0  0  0  0  0  0  0  0  # atno 8009 bound_to 7997
  156.2409  140.2904  156.0452 H   0  0  0  0  0  0  0  0  0  0  0  0  # atno 8010 bound_to 7997
  139.9995  143.5556  152.2309 H   0  0  0  0  0  0  0  0  0  0  0  0  # atno 10167 bound_to 10162
  156.0370  130.4348  150.2421 H   0  0  0  0  0  0  0  0  0  0  0  0  # atno 10718 bound_to 10713
  153.3102  135.6962  153.7123 H   0  0  0  0  0  0  0  0  0  0  0  0  # atno 10763 bound_to 10752
  153.6003  135.3463  155.2943 H   0  0  0  0  0  0  0  0  0  0  0  0  # atno 10764 bound_to 10752
  154.8573  135.4339  154.2238 H   0  0  0  0  0  0  0  0  0  0  0  0  # atno 10765 bound_to 10752
  139.8780  134.9241  156.5125 H   0  0  0  0  0  0  0  0  0  0  0  0  # atno 11005 bound_to 11000
  145.4323  141.0416  143.2904 LP  0  0  0  0  0  0  0  0  0  0  0  0  # atno 17320 bound_to 7965
  144.8173  139.5854  143.7003 LP  0  0  0  0  0  0  0  0  0  0  0  0  # atno 17321 bound_to 7965
  139.6282  144.7640  151.2593 LP  0  0  0  0  0  0  0  0  0  0  0  0  # atno 17342 bound_to 10162
  140.7424  143.6526  150.8235 LP  0  0  0  0  0  0  0  0  0  0  0  0  # atno 17343 bound_to 10162
  157.0519  131.0065  151.3251 LP  0  0  0  0  0  0  0  0  0  0  0  0  # atno 17370 bound_to 10713
  157.5134  130.7953  149.7730 LP  0  0  0  0  0  0  0  0  0  0  0  0  # atno 17371 bound_to 10713
  140.8510  133.8132  155.9168 LP  0  0  0  0  0  0  0  0  0  0  0  0  # atno 17394 bound_to 11000
  140.9144  134.2220  157.4966 LP  0  0  0  0  0  0  0  0  0  0  0  0  # atno 17395 bound_to 11000

$$$$
