AV-unprocessed.smi:855|AV-procd|sdf|3958|dock7
  -GOLD-   22720 1433D 1   1.00000     0.00000
 Structure written by MMmdl.
 35 36  0  0  0  0  0  0  0  0  3 V2000
  151.8456  145.2551  159.5925 C   0  0  0  0  0  0  0  0  0  0  0  0
  151.4218  143.9966  158.9167 C   0  0  0  0  0  0  0  0  0  0  0  0
  151.4487  143.5852  157.6139 C   0  0  0  0  0  0  0  0  0  0  0  0
  150.8905  142.2805  157.6773 C   0  0  0  0  0  0  0  0  0  0  0  0
  150.7382  141.5004  156.5005 N   0  0  0  0  0  0  0  0  0  0  0  0
  151.4696  140.4497  156.0856 C   0  0  0  0  0  0  0  0  0  0  0  0
  152.4301  140.0534  156.7562 O   0  0  0  0  0  0  0  0  0  0  0  0
  151.0149  139.9396  154.9083 N   0  5  0  0  0  0  0  0  0  0  0  0
  149.9870  138.9035  154.7973 C   0  0  0  0  0  0  0  0  0  0  0  0
  148.7370  139.4802  154.1025 C   0  0  0  0  0  0  0  0  0  0  0  0
  147.9366  138.4432  153.3970 N   0  3  0  0  0  0  0  0  0  0  0  0
  147.1867  137.5298  154.2927 C   0  0  0  0  0  0  0  0  0  0  0  0
  145.8118  137.2985  153.6513 C   0  0  0  0  0  0  0  0  0  0  0  0
  145.9574  137.8176  152.2251 C   0  0  0  0  0  0  0  0  0  0  0  0
  146.9839  138.9348  152.3741 C   0  0  0  0  0  0  0  0  0  0  0  0
  150.5550  141.9279  158.9095 N   0  0  0  0  0  0  0  0  0  0  0  0
  150.8940  143.0253  159.7096 O   0  0  0  0  0  0  0  0  0  0  0  0
  152.1323  146.0122  158.8625 H   0  0  0  0  0  0  0  0  0  0  0  0
  152.6993  145.0736  160.2455 H   0  0  0  0  0  0  0  0  0  0  0  0
  151.0351  145.6602  160.1985 H   0  0  0  0  0  0  0  0  0  0  0  0
  151.8088  144.1317  156.7550 H   0  0  0  0  0  0  0  0  0  0  0  0
  149.9751  141.7684  155.8974 H   0  0  0  0  0  0  0  0  0  0  0  0
  150.3411  138.0458  154.2248 H   0  0  0  0  0  0  0  0  0  0  0  0
  149.6978  138.5117  155.7733 H   0  0  0  0  0  0  0  0  0  0  0  0
  148.1159  139.9493  154.8675 H   0  0  0  0  0  0  0  0  0  0  0  0
  149.0141  140.2750  153.4092 H   0  0  0  0  0  0  0  0  0  0  0  0
  147.7427  136.5963  154.3840 H   0  0  0  0  0  0  0  0  0  0  0  0
  147.0684  137.9445  155.2950 H   0  0  0  0  0  0  0  0  0  0  0  0
  145.5008  136.2541  153.6873 H   0  0  0  0  0  0  0  0  0  0  0  0
  145.0591  137.8868  154.1779 H   0  0  0  0  0  0  0  0  0  0  0  0
  146.3545  137.0315  151.5817 H   0  0  0  0  0  0  0  0  0  0  0  0
  145.0144  138.1605  151.7985 H   0  0  0  0  0  0  0  0  0  0  0  0
  146.4891  139.8399  152.7303 H   0  0  0  0  0  0  0  0  0  0  0  0
  147.4805  139.1685  151.4319 H   0  0  0  0  0  0  0  0  0  0  0  0
  148.6054  137.8608  152.9120 H   0  0  0  0  0  0  0  0  0  0  0  0
  1  2  1  0  0  0  0
  1 18  1  0  0  0  0
  1 19  1  0  0  0  0
  1 20  1  0  0  0  0
  2 17  1  0  0  0  0
  2  3  2  0  0  0  0
  3  4  1  0  0  0  0
  3 21  1  0  0  0  0
  4  5  1  0  0  0  0
  4 16  2  0  0  0  0
  5  6  1  0  0  0  0
  5 22  1  0  0  0  0
  6  7  2  0  0  0  0
  6  8  1  0  0  0  0
  8  9  1  0  0  0  0
  9 10  1  0  0  0  0
  9 23  1  0  0  0  0
  9 24  1  0  0  0  0
 10 11  1  0  0  0  0
 10 25  1  0  0  0  0
 10 26  1  0  0  0  0
 11 15  1  0  0  0  0
 11 12  1  0  0  0  0
 11 35  1  0  0  0  0
 12 13  1  0  0  0  0
 12 27  1  0  0  0  0
 12 28  1  0  0  0  0
 13 14  1  0  0  0  0
 13 29  1  0  0  0  0
 13 30  1  0  0  0  0
 14 15  1  0  0  0  0
 14 31  1  0  0  0  0
 14 32  1  0  0  0  0
 15 33  1  0  0  0  0
 15 34  1  0  0  0  0
 16 17  1  0  0  0  0
M  CHG  1   8  -1
M  CHG  1  11   1
M  END
> <s_m_source_file>
AV-unprocessed.smi

> <i_m_source_file_index>
855

> <i_lp_mmshare_version>
43012

> <i_f3d_flags>
0

> <s_epik_input>
W0NIM11jMVtjSF1jKG5vMSlbTkhdQyg9TylbTkhdW0NIMl1bQ0gyXU4yW0NIMl1bQ0gyXVtDSDJdW0NIMl0y

> <s_epik_cmdline>
J2VwaWtfcHl0aG9uJywgJy1waCcsICc3LjAnLCAnLXRuJywgJzgnLCAnLW1hJywgJzIwMCcsICctbWV0YWxfYmluZGluZycsICctaW1hZScsICc8aW5maWxlLm1hZT4nLCAnLW9tYWUnLCAnPG91dGZpbGUubWFlPic=

> <r_epik_Ionization_Penalty>
6.76467

> <r_epik_Ionization_Penalty_Charging>
6.76466

> <r_epik_Ionization_Penalty_Neutral>
5.76722e-06

> <r_epik_State_Penalty>
6.79042

> <r_epik_Charging_Adjusted_Penalty>
13.5551

> <i_epik_Tot_Q>
0

> <i_epik_Tot_abs_Q>
2

> <r_epik_Metal_State_Penalty>
2.72416

> <b_epik_Metal_Only>
1

> <s_lp_Force_Field>
OPLS_2005

> <r_lp_Energy>
21.5232

> <b_lp_Chiralities_Consistent>
1

> <s_lp_Variant>
AV-unprocessed.smi:855-3

> <Gold.Version>
5.8.1

> <Gold.Id.Protein>
6NUR|6NUR_protein|mol2

> <Gold.PLP.Fitness>
41.4907

> <Gold.PLP.PLP>
-32.9183

> <Gold.PLP.part.hbond>
-3.8884

> <Gold.PLP.part.metal>
0.0000

> <Gold.PLP.part.buried>
-2.7892

> <Gold.PLP.part.nonpolar>
-26.2181

> <Gold.PLP.part.repulsive>
0.2199

> <Gold.PLP.ligand.clash>
0.0000

> <Gold.PLP.ligand.torsion>
1.7351

> <Gold.PLP.Chemscore.Hbond>
3.9920

> <Gold.PLP.Chemscore.CHOScore>
0.0000

> <Gold.PLP.Chemscore.Metal>
0.0000

> <Gold.Chemscore.Hbonds>
donor molecule, donor type, donor heavy atom, donor atom, acceptor molecule, acceptor atom, score
      L1  H    11    35       P1  7948  1.98
      P1  H  7989  7998       L1     8  1.00
      P1  H  7997  8010       L1     7  0.96

> <Gold.PLP.Chemscore.Internal.Correction>
0.0667

> <Gold.Rescore>
     Score         DG    S(hbond)    S(metal)    S(lipo)     H(rot)  DE(clash)    DE(int)     intcor
     16.82     -18.64       2.77        0.00      67.68       1.57       0.10       1.72       ----

> <Gold.Chemscore.Fitness>
16.8155

> <Gold.Chemscore.DG>
-18.6376

> <Gold.Chemscore.ZeroCoef>
-5.4800

> <Gold.Chemscore.Hbond>
2.7742

> <Gold.Chemscore.Metal>
0.0000

> <Gold.Chemscore.Lipo>
67.6818

> <Gold.Chemscore.Internal_Hbond>
0.0000

> <Gold.Chemscore.DEClash>
0.0997

> <Gold.Chemscore.DEInternal>
1.7224

> <Gold.Chemscore.Rot>
1.5731

> <Gold.Chemscore.Internal.Correction>
   9.000000E+99

> <Gold.Chemscore.Hbonds>
donor molecule, donor type, donor heavy atom, donor atom, acceptor molecule, acceptor atom, score
      L1  H    11    35       P1  7948  0.92
      P1  H  7989  7998       L1     8  0.82
      P1  H  7997  8010       L1     7  0.90

> <Gold.Chemscore.Hbond.Weighted>
-9.2659

> <Gold.Chemscore.Metal.Weighted>
-0.0000

> <Gold.Chemscore.Lipo.Weighted>
-7.9188

> <Gold.Chemscore.Internal_Hbond.Weighted>
0.0000

> <Gold.Chemscore.DEClash.Weighted>
0.0997

> <Gold.Chemscore.DEInternal.Weighted>
1.7224

> <Gold.Chemscore.Rot.Weighted>
4.0271

> <Gold.Chemscore.Internal.Correction.Weighted>
   9.000000E+99

> <Gold.Protein.RotatedTorsions>
[ 6907 6896 6895 6894 ] final  106.42 input  -60.11 | X-H torsion
[ 7974 7965 7964 7962 ] final  -53.25 input  175.53 | X-H torsion
[ 8008 7997 7996 7995 ] final   85.00 input   59.86 | X-H torsion
[ 10167 10162 10161 10158 ] final -144.96 input  -65.29 | X-H torsion
[ 10718 10713 10712 10709 ] final -159.20 input   66.30 | X-H torsion
[ 10763 10752 10751 10750 ] final  149.43 input  -60.55 | X-H torsion
[ 11005 11000 10999 10996 ] final  -50.65 input  -57.11 | X-H torsion

> <Gold.Protein.ActiveResidues>
 VAL166  LYS551  ARG553  GLY616  TRP617  ASP618  TYR619  PRO620  LYS621  CYS622 
 ASP623  PHE694  ASN695  SER759  ASP760  ASP761  ALA762  ILE779  LEU786  VAL792 
 PHE793  MET794  SER795  GLU796  ALA797  LYS798  CYS799  TRP800  GLU811  SER814 

> <Gold.Protein.RotatedAtoms>
  152.5194  133.9384  159.7614 H   0  0  0  0  0  0  0  0  0  0  0  0  # atno 6907 bound_to 6896
  150.9719  133.6326  159.2743 H   0  0  0  0  0  0  0  0  0  0  0  0  # atno 6908 bound_to 6896
  151.3534  135.0895  159.9463 H   0  0  0  0  0  0  0  0  0  0  0  0  # atno 6909 bound_to 6896
  145.8989  140.8010  142.9753 H   0  0  0  0  0  0  0  0  0  0  0  0  # atno 7974 bound_to 7965
  155.9444  140.3405  155.6354 H   0  0  0  0  0  0  0  0  0  0  0  0  # atno 8008 bound_to 7997
  155.6999  140.0759  157.2433 H   0  0  0  0  0  0  0  0  0  0  0  0  # atno 8009 bound_to 7997
  154.4109  140.1642  156.2167 H   0  0  0  0  0  0  0  0  0  0  0  0  # atno 8010 bound_to 7997
  139.7850  143.8047  152.2643 H   0  0  0  0  0  0  0  0  0  0  0  0  # atno 10167 bound_to 10162
  156.5647  130.8662  151.2820 H   0  0  0  0  0  0  0  0  0  0  0  0  # atno 10718 bound_to 10713
  154.0711  135.2866  155.3308 H   0  0  0  0  0  0  0  0  0  0  0  0  # atno 10763 bound_to 10752
  154.6746  135.5286  153.8186 H   0  0  0  0  0  0  0  0  0  0  0  0  # atno 10764 bound_to 10752
  153.0485  135.6566  154.0892 H   0  0  0  0  0  0  0  0  0  0  0  0  # atno 10765 bound_to 10752
  141.0828  133.6649  156.3762 H   0  0  0  0  0  0  0  0  0  0  0  0  # atno 11005 bound_to 11000
  144.6734  140.1646  143.7419 LP  0  0  0  0  0  0  0  0  0  0  0  0  # atno 17320 bound_to 7965
  145.8816  139.2326  143.1602 LP  0  0  0  0  0  0  0  0  0  0  0  0  # atno 17321 bound_to 7965
  139.8121  144.7331  150.9683 LP  0  0  0  0  0  0  0  0  0  0  0  0  # atno 17342 bound_to 10162
  140.7819  143.4240  151.0796 LP  0  0  0  0  0  0  0  0  0  0  0  0  # atno 17343 bound_to 10162
  157.7361  130.9773  150.2117 LP  0  0  0  0  0  0  0  0  0  0  0  0  # atno 17370 bound_to 10713
  156.2767  130.3728  149.7976 LP  0  0  0  0  0  0  0  0  0  0  0  0  # atno 17371 bound_to 10713
  140.5431  134.6101  157.5386 LP  0  0  0  0  0  0  0  0  0  0  0  0  # atno 17394 bound_to 11000
  139.9643  134.7400  156.0171 LP  0  0  0  0  0  0  0  0  0  0  0  0  # atno 17395 bound_to 11000

$$$$
