AV-unprocessed.smi:1766|AV-procd|sdf|7137|dock6
  -GOLD-   22720 8373D 1   1.00000     0.00000
 Structure written by MMmdl.
 40 42  0  0  0  0  0  0  0  0  2 V2000
  148.8194  140.2783  153.5277 N   0  0  0  0  0  0  0  0  0  0  0  0
  149.5997  140.5111  154.5861 C   0  0  0  0  0  0  0  0  0  0  0  0
  150.7819  140.1755  154.6175 O   0  0  0  0  0  0  0  0  0  0  0  0
  148.9653  141.2194  155.7854 C   0  0  0  0  0  0  0  0  0  0  0  0
  150.0070  141.6067  156.7926 C   0  0  0  0  0  0  0  0  0  0  0  0
  150.2001  142.8618  157.2931 N   0  3  0  0  0  0  0  0  0  0  0  0
  151.2569  142.8553  158.2026 C   0  0  0  0  0  0  0  0  0  0  0  0
  151.8208  143.8834  158.9516 C   0  0  0  0  0  0  0  0  0  0  0  0
  152.9010  143.5364  159.7895 C   0  0  0  0  0  0  0  0  0  0  0  0
  153.3792  142.2118  159.8597 C   0  0  0  0  0  0  0  0  0  0  0  0
  152.7969  141.1777  159.0971 C   0  0  0  0  0  0  0  0  0  0  0  0
  151.7293  141.5294  158.2712 C   0  0  0  0  0  0  0  0  0  0  0  0
  150.9248  140.7917  157.3948 N   0  0  0  0  0  0  0  0  0  0  0  0
  151.1667  139.3453  157.2613 C   0  0  0  0  0  0  0  0  0  0  0  0
  149.9766  138.4869  157.7330 C   0  0  2  0  0  0  0  0  0  0  0  0
  150.0782  138.2449  159.1226 O   0  0  0  0  0  0  0  0  0  0  0  0
  149.8762  137.1998  156.9298 C   0  0  0  0  0  0  0  0  0  0  0  0
  150.7638  136.9685  155.8570 C   0  0  0  0  0  0  0  0  0  0  0  0
  150.6838  135.7744  155.1141 C   0  0  0  0  0  0  0  0  0  0  0  0
  149.7172  134.8040  155.4408 C   0  0  0  0  0  0  0  0  0  0  0  0
  149.6404  133.6565  154.7264 F   0  0  0  0  0  0  0  0  0  0  0  0
  148.8315  135.0272  156.5124 C   0  0  0  0  0  0  0  0  0  0  0  0
  148.9115  136.2207  157.2561 C   0  0  0  0  0  0  0  0  0  0  0  0
  149.1996  139.8081  152.7188 H   0  0  0  0  0  0  0  0  0  0  0  0
  147.8513  140.5668  153.5393 H   0  0  0  0  0  0  0  0  0  0  0  0
  148.4495  142.1174  155.4440 H   0  0  0  0  0  0  0  0  0  0  0  0
  148.2115  140.5758  156.2377 H   0  0  0  0  0  0  0  0  0  0  0  0
  151.4559  144.8989  158.8986 H   0  0  0  0  0  0  0  0  0  0  0  0
  153.3723  144.3016  160.3894 H   0  0  0  0  0  0  0  0  0  0  0  0
  154.2097  141.9842  160.5123 H   0  0  0  0  0  0  0  0  0  0  0  0
  153.1722  140.1668  159.1581 H   0  0  0  0  0  0  0  0  0  0  0  0
  151.4046  139.1333  156.2182 H   0  0  0  0  0  0  0  0  0  0  0  0
  152.0660  139.0978  157.8250 H   0  0  0  0  0  0  0  0  0  0  0  0
  149.0547  139.0508  157.5858 H   0  0  0  0  0  0  0  0  0  0  0  0
  149.7446  139.0010  159.5817 H   0  0  0  0  0  0  0  0  0  0  0  0
  151.5108  137.7051  155.5995 H   0  0  0  0  0  0  0  0  0  0  0  0
  151.3645  135.6025  154.2934 H   0  0  0  0  0  0  0  0  0  0  0  0
  148.0912  134.2822  156.7644 H   0  0  0  0  0  0  0  0  0  0  0  0
  148.2307  136.3807  158.0794 H   0  0  0  0  0  0  0  0  0  0  0  0
  149.6491  143.6657  157.0200 H   0  0  0  0  0  0  0  0  0  0  0  0
  1  2  1  0  0  0  0
  1 24  1  0  0  0  0
  1 25  1  0  0  0  0
  2  3  2  0  0  0  0
  2  4  1  0  0  0  0
  4  5  1  0  0  0  0
  4 26  1  0  0  0  0
  4 27  1  0  0  0  0
  5 13  1  0  0  0  0
  5  6  2  0  0  0  0
  6  7  1  0  0  0  0
  6 40  1  0  0  0  0
  7 12  2  0  0  0  0
  7  8  1  0  0  0  0
  8  9  2  0  0  0  0
  8 28  1  0  0  0  0
  9 10  1  0  0  0  0
  9 29  1  0  0  0  0
 10 11  2  0  0  0  0
 10 30  1  0  0  0  0
 11 12  1  0  0  0  0
 11 31  1  0  0  0  0
 12 13  1  0  0  0  0
 13 14  1  0  0  0  0
 14 15  1  0  0  0  0
 14 32  1  0  0  0  0
 14 33  1  0  0  0  0
 15 16  1  0  0  0  0
 15 17  1  0  0  0  0
 15 34  1  0  0  0  0
 16 35  1  0  0  0  0
 17 23  1  0  0  0  0
 17 18  2  0  0  0  0
 18 19  1  0  0  0  0
 18 36  1  0  0  0  0
 19 20  2  0  0  0  0
 19 37  1  0  0  0  0
 20 21  1  0  0  0  0
 20 22  1  0  0  0  0
 22 23  2  0  0  0  0
 22 38  1  0  0  0  0
 23 39  1  0  0  0  0
M  CHG  1   6   1
M  END
> <s_m_source_file>
AV-unprocessed.smi

> <i_m_source_file_index>
1766

> <i_lp_mmshare_version>
43012

> <i_f3d_flags>
0

> <s_epik_input>
W2NIXTFbY0hdW2NIXVtjSF1jKGMxMiluKGMobjIpW0NIMl1DKD1PKVtOSDJdKVtDSDJdW0NASF0oW09IXSljM1tjSF1bY0hdYyhGKVtjSF1bY0hdMw==

> <s_epik_cmdline>
J2VwaWtfcHl0aG9uJywgJy1waCcsICc3LjAnLCAnLXRuJywgJzgnLCAnLW1hJywgJzIwMCcsICctbWV0YWxfYmluZGluZycsICctaW1hZScsICc8aW5maWxlLm1hZT4nLCAnLW9tYWUnLCAnPG91dGZpbGUubWFlPic=

> <r_epik_Ionization_Penalty>
1.66646

> <r_epik_Ionization_Penalty_Charging>
1.66645

> <r_epik_Ionization_Penalty_Neutral>
2.12833e-06

> <r_epik_State_Penalty>
1.76975

> <r_epik_Charging_Adjusted_Penalty>
3.43621

> <i_epik_Tot_Q>
1

> <i_epik_Tot_abs_Q>
1

> <r_epik_Metal_State_Penalty>
1.80493

> <b_epik_Metal_Only>
0

> <s_lp_Force_Field>
OPLS_2005

> <r_lp_Energy>
14.4919

> <b_lp_Chiralities_Consistent>
1

> <s_lp_Variant>
AV-unprocessed.smi:1766-3

> <Gold.Version>
5.8.1

> <Gold.Id.Protein>
6NUR|6NUR_protein|mol2

> <Gold.PLP.Fitness>
51.2867

> <Gold.PLP.PLP>
-40.7023

> <Gold.PLP.part.hbond>
-3.6911

> <Gold.PLP.part.metal>
0.0000

> <Gold.PLP.part.buried>
-6.2785

> <Gold.PLP.part.nonpolar>
-31.2577

> <Gold.PLP.part.repulsive>
0.2524

> <Gold.PLP.ligand.clash>
0.0000

> <Gold.PLP.ligand.torsion>
0.5701

> <Gold.PLP.Chemscore.Hbond>
3.8800

> <Gold.PLP.Chemscore.CHOScore>
0.0000

> <Gold.PLP.Chemscore.Metal>
0.0000

> <Gold.Chemscore.Hbonds>
donor molecule, donor type, donor heavy atom, donor atom, acceptor molecule, acceptor atom, score
      L1  H     1    24       P1  7957  0.86
      L1  H     6    40       P1  8028  2.00
      P1  H  7989  7998       L1     3  1.00

> <Gold.PLP.Chemscore.Internal.Correction>
0.0846

> <Gold.Rescore>
     Score         DG    S(hbond)    S(metal)    S(lipo)     H(rot)  DE(clash)    DE(int)     intcor
     16.43     -17.84       2.78        0.00      92.89       3.05       0.09       1.31       ----

> <Gold.Chemscore.Fitness>
16.4309

> <Gold.Chemscore.DG>
-17.8358

> <Gold.Chemscore.ZeroCoef>
-5.4800

> <Gold.Chemscore.Hbond>
2.7807

> <Gold.Chemscore.Metal>
0.0000

> <Gold.Chemscore.Lipo>
92.8950

> <Gold.Chemscore.Internal_Hbond>
0.0000

> <Gold.Chemscore.DEClash>
0.0901

> <Gold.Chemscore.DEInternal>
1.3149

> <Gold.Chemscore.Rot>
3.0470

> <Gold.Chemscore.Internal.Correction>
   9.000000E+99

> <Gold.Chemscore.Hbonds>
donor molecule, donor type, donor heavy atom, donor atom, acceptor molecule, acceptor atom, score
      L1  H     1    24       P1  7957  0.84
      L1  H     6    40       P1  8028  0.87
      P1  H  7989  7998       L1     3  0.79

> <Gold.Chemscore.Hbond.Weighted>
-9.2875

> <Gold.Chemscore.Metal.Weighted>
-0.0000

> <Gold.Chemscore.Lipo.Weighted>
-10.8687

> <Gold.Chemscore.Internal_Hbond.Weighted>
0.0000

> <Gold.Chemscore.DEClash.Weighted>
0.0901

> <Gold.Chemscore.DEInternal.Weighted>
1.3149

> <Gold.Chemscore.Rot.Weighted>
7.8004

> <Gold.Chemscore.Internal.Correction.Weighted>
   9.000000E+99

> <Gold.Protein.RotatedTorsions>
[ 6907 6896 6895 6894 ] final  -92.19 input  -60.11 | X-H torsion
[ 7974 7965 7964 7962 ] final  167.44 input  175.53 | X-H torsion
[ 8008 7997 7996 7995 ] final  155.05 input   59.86 | X-H torsion
[ 10167 10162 10161 10158 ] final  170.01 input  -65.29 | X-H torsion
[ 10718 10713 10712 10709 ] final   26.20 input   66.30 | X-H torsion
[ 10763 10752 10751 10750 ] final  -51.91 input  -60.55 | X-H torsion
[ 11005 11000 10999 10996 ] final -177.75 input  -57.11 | X-H torsion

> <Gold.Protein.ActiveResidues>
 VAL166  LYS551  ARG553  GLY616  TRP617  ASP618  TYR619  PRO620  LYS621  CYS622 
 ASP623  PHE694  ASN695  SER759  ASP760  ASP761  ALA762  ILE779  LEU786  VAL792 
 PHE793  MET794  SER795  GLU796  ALA797  LYS798  CYS799  TRP800  GLU811  SER814 

> <Gold.Protein.RotatedAtoms>
  150.6902  134.2160  159.4377 H   0  0  0  0  0  0  0  0  0  0  0  0  # atno 6907 bound_to 6896
  152.0119  134.9869  160.0577 H   0  0  0  0  0  0  0  0  0  0  0  0  # atno 6908 bound_to 6896
  152.1480  133.4469  159.4836 H   0  0  0  0  0  0  0  0  0  0  0  0  # atno 6909 bound_to 6896
  144.7424  139.8762  143.6393 H   0  0  0  0  0  0  0  0  0  0  0  0  # atno 7974 bound_to 7965
  156.2499  140.1950  156.6741 H   0  0  0  0  0  0  0  0  0  0  0  0  # atno 8008 bound_to 7997
  154.6370  140.0588  156.9827 H   0  0  0  0  0  0  0  0  0  0  0  0  # atno 8009 bound_to 7997
  155.1621  140.3261  155.4412 H   0  0  0  0  0  0  0  0  0  0  0  0  # atno 8010 bound_to 7997
  139.5007  144.3644  151.9791 H   0  0  0  0  0  0  0  0  0  0  0  0  # atno 10167 bound_to 10162
  157.2036  130.6901  149.6198 H   0  0  0  0  0  0  0  0  0  0  0  0  # atno 10718 bound_to 10713
  154.1342  135.6515  153.4928 H   0  0  0  0  0  0  0  0  0  0  0  0  # atno 10763 bound_to 10752
  153.0186  135.5300  154.6971 H   0  0  0  0  0  0  0  0  0  0  0  0  # atno 10764 bound_to 10752
  154.6214  135.2965  155.0292 H   0  0  0  0  0  0  0  0  0  0  0  0  # atno 10765 bound_to 10752
  140.4374  134.6463  157.4741 H   0  0  0  0  0  0  0  0  0  0  0  0  # atno 11005 bound_to 11000
  146.1244  139.4268  143.0208 LP  0  0  0  0  0  0  0  0  0  0  0  0  # atno 17320 bound_to 7965
  145.7256  141.0060  143.1379 LP  0  0  0  0  0  0  0  0  0  0  0  0  # atno 17321 bound_to 7965
  140.3080  144.3571  150.6041 LP  0  0  0  0  0  0  0  0  0  0  0  0  # atno 17342 bound_to 10162
  140.5821  143.2172  151.7409 LP  0  0  0  0  0  0  0  0  0  0  0  0  # atno 17343 bound_to 10162
  155.9698  130.4574  150.5963 LP  0  0  0  0  0  0  0  0  0  0  0  0  # atno 17370 bound_to 10713
  157.3743  131.0770  151.1531 LP  0  0  0  0  0  0  0  0  0  0  0  0  # atno 17371 bound_to 10713
  140.0093  134.6715  155.9406 LP  0  0  0  0  0  0  0  0  0  0  0  0  # atno 17394 bound_to 11000
  141.1720  133.6538  156.4687 LP  0  0  0  0  0  0  0  0  0  0  0  0  # atno 17395 bound_to 11000

$$$$
