AV-unprocessed.smi:30|AV-procd|sdf|193|dock4
  -GOLD-   2262015463D 1   1.00000     0.00000
 Structure written by MMmdl.
 54 57  0  0  0  0  0  0  0  0  1 V2000
  148.2959  137.9299  154.5923 O   0  0  0  0  0  0  0  0  0  0  0  0
  148.0303  137.2373  155.5758 C   0  0  0  0  0  0  0  0  0  0  0  0
  146.8738  136.2259  155.5285 C   0  0  0  0  0  0  0  0  0  0  0  0
  147.1330  135.0704  154.6412 N   0  0  0  0  0  0  0  0  0  0  0  0
  148.1048  134.1194  155.0388 C   0  0  0  0  0  0  0  0  0  0  0  0
  148.7019  134.2261  156.1112 O   0  0  0  0  0  0  0  0  0  0  0  0
  148.3518  133.0403  154.0908 C   0  0  0  0  0  0  0  0  0  0  0  0
  149.2931  132.1200  154.3608 F   0  0  0  0  0  0  0  0  0  0  0  0
  147.6624  132.9604  152.9344 C   0  0  0  0  0  0  0  0  0  0  0  0
  146.6746  133.8633  152.5809 N   0  0  0  0  0  0  0  0  0  0  0  0
  145.9893  133.8050  151.2307 C   0  0  2  0  0  0  0  0  0  0  0  0
  144.4521  133.8132  151.3028 C   0  0  0  0  0  0  0  0  0  0  0  0
  144.1059  132.3692  150.9963 C   0  0  0  0  0  0  0  0  0  0  0  0
  145.2427  131.9731  150.0625 C   0  0  0  0  0  0  0  0  0  0  0  0
  146.3848  132.6180  150.6106 O   0  0  0  0  0  0  0  0  0  0  0  0
  146.4347  134.9809  153.4129 C   0  0  0  0  0  0  0  0  0  0  0  0
  145.6370  135.8592  153.0773 O   0  0  0  0  0  0  0  0  0  0  0  0
  148.6736  137.3130  156.7552 N   0  0  0  0  0  0  0  0  0  0  0  0
  149.7911  138.1181  157.1049 C   0  0  0  0  0  0  0  0  0  0  0  0
  150.1806  138.1338  158.4588 C   0  0  0  0  0  0  0  0  0  0  0  0
  151.2929  138.8908  158.8727 C   0  0  0  0  0  0  0  0  0  0  0  0
  152.0459  139.6359  157.9436 C   0  0  0  0  0  0  0  0  0  0  0  0
  153.1209  140.3458  158.4343 O   0  0  0  0  0  0  0  0  0  0  0  0
  153.0912  140.7600  159.7936 C   0  0  0  0  0  0  0  0  0  0  0  0
  152.7245  142.2256  159.9138 C   0  0  0  0  0  0  0  0  0  0  0  0
  152.5710  143.0084  158.7505 C   0  0  0  0  0  0  0  0  0  0  0  0
  152.2360  144.3727  158.8540 C   0  0  0  0  0  0  0  0  0  0  0  0
  152.0545  144.9592  160.1216 C   0  0  0  0  0  0  0  0  0  0  0  0
  152.2086  144.1810  161.2853 C   0  0  0  0  0  0  0  0  0  0  0  0
  152.5442  142.8168  161.1823 C   0  0  0  0  0  0  0  0  0  0  0  0
  151.6637  139.6074  156.5793 C   0  0  0  0  0  0  0  0  0  0  0  0
  150.5502  138.8520  156.1633 C   0  0  0  0  0  0  0  0  0  0  0  0
  146.6626  135.8869  156.5443 H   0  0  0  0  0  0  0  0  0  0  0  0
  145.9668  136.7564  155.2351 H   0  0  0  0  0  0  0  0  0  0  0  0
  147.9151  132.1526  152.2665 H   0  0  0  0  0  0  0  0  0  0  0  0
  146.3437  134.6723  150.6717 H   0  0  0  0  0  0  0  0  0  0  0  0
  144.0623  134.1909  152.2479 H   0  0  0  0  0  0  0  0  0  0  0  0
  144.0796  134.4582  150.5061 H   0  0  0  0  0  0  0  0  0  0  0  0
  144.1369  131.7624  151.9012 H   0  0  0  0  0  0  0  0  0  0  0  0
  143.1219  132.2530  150.5421 H   0  0  0  0  0  0  0  0  0  0  0  0
  145.3823  130.8938  150.0004 H   0  0  0  0  0  0  0  0  0  0  0  0
  145.0636  132.3551  149.0562 H   0  0  0  0  0  0  0  0  0  0  0  0
  148.2826  136.7646  157.5073 H   0  0  0  0  0  0  0  0  0  0  0  0
  149.6231  137.5672  159.1904 H   0  0  0  0  0  0  0  0  0  0  0  0
  151.5735  138.8964  159.9158 H   0  0  0  0  0  0  0  0  0  0  0  0
  152.3718  140.1590  160.3526 H   0  0  0  0  0  0  0  0  0  0  0  0
  154.0713  140.6181  160.2514 H   0  0  0  0  0  0  0  0  0  0  0  0
  152.7098  142.5628  157.7762 H   0  0  0  0  0  0  0  0  0  0  0  0
  152.1183  144.9691  157.9613 H   0  0  0  0  0  0  0  0  0  0  0  0
  151.7976  146.0052  160.2010 H   0  0  0  0  0  0  0  0  0  0  0  0
  152.0691  144.6302  162.2575 H   0  0  0  0  0  0  0  0  0  0  0  0
  152.6607  142.2278  162.0803 H   0  0  0  0  0  0  0  0  0  0  0  0
  152.2129  140.1534  155.8276 H   0  0  0  0  0  0  0  0  0  0  0  0
  150.3071  138.8379  155.1120 H   0  0  0  0  0  0  0  0  0  0  0  0
  1  2  2  0  0  0  0
  2  3  1  0  0  0  0
  2 18  1  0  0  0  0
  3  4  1  0  0  0  0
  3 33  1  0  0  0  0
  3 34  1  0  0  0  0
  4 16  1  0  0  0  0
  4  5  1  0  0  0  0
  5  6  2  0  0  0  0
  5  7  1  0  0  0  0
  7  8  1  0  0  0  0
  7  9  2  0  0  0  0
  9 10  1  0  0  0  0
  9 35  1  0  0  0  0
 10 11  1  0  0  0  0
 10 16  1  0  0  0  0
 11 15  1  0  0  0  0
 11 12  1  0  0  0  0
 11 36  1  0  0  0  0
 12 13  1  0  0  0  0
 12 37  1  0  0  0  0
 12 38  1  0  0  0  0
 13 14  1  0  0  0  0
 13 39  1  0  0  0  0
 13 40  1  0  0  0  0
 14 15  1  0  0  0  0
 14 41  1  0  0  0  0
 14 42  1  0  0  0  0
 16 17  2  0  0  0  0
 18 19  1  0  0  0  0
 18 43  1  0  0  0  0
 19 32  1  0  0  0  0
 19 20  2  0  0  0  0
 20 21  1  0  0  0  0
 20 44  1  0  0  0  0
 21 22  2  0  0  0  0
 21 45  1  0  0  0  0
 22 23  1  0  0  0  0
 22 31  1  0  0  0  0
 23 24  1  0  0  0  0
 24 25  1  0  0  0  0
 24 46  1  0  0  0  0
 24 47  1  0  0  0  0
 25 30  1  0  0  0  0
 25 26  2  0  0  0  0
 26 27  1  0  0  0  0
 26 48  1  0  0  0  0
 27 28  2  0  0  0  0
 27 49  1  0  0  0  0
 28 29  1  0  0  0  0
 28 50  1  0  0  0  0
 29 30  2  0  0  0  0
 29 51  1  0  0  0  0
 30 52  1  0  0  0  0
 31 32  2  0  0  0  0
 31 53  1  0  0  0  0
 32 54  1  0  0  0  0
M  END
> <s_m_source_file>
AV-unprocessed.smi

> <i_m_source_file_index>
30

> <i_lp_mmshare_version>
43012

> <i_f3d_flags>
0

> <s_epik_input>
TzFbQ0gyXVtDSDJdW0NIMl1bQ0BIXTFuKGMyPU8pW2NIXWMoRiljKD1PKW4yW0NIMl1DKD1PKVtOSF1jM1tjSF1bY0hdYyhbY0hdW2NIXTMpT1tDSDJdYzRbY0hdW2NIXVtjSF1bY0hdW2NIXTQ=

> <s_epik_cmdline>
J2VwaWtfcHl0aG9uJywgJy1waCcsICc3LjAnLCAnLXRuJywgJzgnLCAnLW1hJywgJzIwMCcsICctbWV0YWxfYmluZGluZycsICctaW1hZScsICc8aW5maWxlLm1hZT4nLCAnLW9tYWUnLCAnPG91dGZpbGUubWFlPic=

> <r_lp_tautomer_probability>
1

> <r_epik_Ionization_Penalty>
1.04818e-05

> <r_epik_Ionization_Penalty_Charging>
3.88729e-08

> <r_epik_Ionization_Penalty_Neutral>
1.04429e-05

> <r_epik_State_Penalty>
-0

> <r_epik_Charging_Adjusted_Penalty>
3.88729e-08

> <i_epik_Tot_Q>
0

> <i_epik_Tot_abs_Q>
0

> <r_epik_Metal_State_Penalty>
-0

> <b_epik_Metal_Only>
0

> <s_epik_Chemistry_Notes>
This compound contains an acetal/aminal-like group ( X-CH(R)-Y where X, Y are N, S, or O) that may be acid/base labile, releasing an aldehyde.

> <s_lp_Force_Field>
OPLS_2005

> <r_lp_Energy>
43.3432

> <b_lp_Chiralities_Consistent>
1

> <s_lp_Variant>
AV-unprocessed.smi:30-1

> <Gold.Version>
5.8.1

> <Gold.Id.Protein>
6NUR|6NUR_protein|mol2

> <Gold.PLP.Fitness>
61.7398

> <Gold.PLP.PLP>
-57.5754

> <Gold.PLP.part.hbond>
-1.0000

> <Gold.PLP.part.metal>
0.0000

> <Gold.PLP.part.buried>
-6.0954

> <Gold.PLP.part.nonpolar>
-50.6109

> <Gold.PLP.part.repulsive>
0.4726

> <Gold.PLP.ligand.clash>
0.0000

> <Gold.PLP.ligand.torsion>
0.9581

> <Gold.PLP.Chemscore.Hbond>
0.8960

> <Gold.PLP.Chemscore.CHOScore>
1.0000

> <Gold.PLP.Chemscore.Metal>
0.0000

> <Gold.Chemscore.Hbonds>
donor molecule, donor type, donor heavy atom, donor atom, acceptor molecule, acceptor atom, score
      P1  H  7997  8008       L1    23  0.84
      L1  C     9    35       P1 10747  0.84

> <Gold.PLP.Chemscore.Internal.Correction>
0.3926

> <Gold.Rescore>
     Score         DG    S(hbond)    S(metal)    S(lipo)     H(rot)  DE(clash)    DE(int)     intcor
     15.86     -19.26       0.81        0.00     142.64       2.20       0.03       3.36       ----

> <Gold.Chemscore.Fitness>
15.8638

> <Gold.Chemscore.DG>
-19.2589

> <Gold.Chemscore.ZeroCoef>
-5.4800

> <Gold.Chemscore.Hbond>
0.8113

> <Gold.Chemscore.Metal>
0.0000

> <Gold.Chemscore.Lipo>
142.6379

> <Gold.Chemscore.Internal_Hbond>
0.0000

> <Gold.Chemscore.DEClash>
0.0317

> <Gold.Chemscore.DEInternal>
3.3634

> <Gold.Chemscore.Rot>
2.1952

> <Gold.Chemscore.Internal.Correction>
   9.000000E+99

> <Gold.Chemscore.Hbonds>
donor molecule, donor type, donor heavy atom, donor atom, acceptor molecule, acceptor atom, score
      P1  H  7997  8008       L1    23  0.39

> <Gold.Chemscore.Hbond.Weighted>
-2.7099

> <Gold.Chemscore.Metal.Weighted>
-0.0000

> <Gold.Chemscore.Lipo.Weighted>
-16.6886

> <Gold.Chemscore.Internal_Hbond.Weighted>
0.0000

> <Gold.Chemscore.DEClash.Weighted>
0.0317

> <Gold.Chemscore.DEInternal.Weighted>
3.3634

> <Gold.Chemscore.Rot.Weighted>
5.6196

> <Gold.Chemscore.Internal.Correction.Weighted>
   9.000000E+99

> <Gold.Protein.RotatedTorsions>
[ 6907 6896 6895 6894 ] final -121.36 input  -60.11 | X-H torsion
[ 7974 7965 7964 7962 ] final -101.07 input  175.53 | X-H torsion
[ 8008 7997 7996 7995 ] final  -86.84 input   59.86 | X-H torsion
[ 10167 10162 10161 10158 ] final  -77.71 input  -65.29 | X-H torsion
[ 10718 10713 10712 10709 ] final  -40.54 input   66.30 | X-H torsion
[ 10763 10752 10751 10750 ] final  143.31 input  -60.55 | X-H torsion
[ 11005 11000 10999 10996 ] final  -52.51 input  -57.11 | X-H torsion

> <Gold.Protein.ActiveResidues>
 VAL166  LYS551  ARG553  GLY616  TRP617  ASP618  TYR619  PRO620  LYS621  CYS622 
 ASP623  PHE694  ASN695  SER759  ASP760  ASP761  ALA762  ILE779  LEU786  VAL792 
 PHE793  MET794  SER795  GLU796  ALA797  LYS798  CYS799  TRP800  GLU811  SER814 

> <Gold.Protein.RotatedAtoms>
  150.8476  133.7837  159.3036 H   0  0  0  0  0  0  0  0  0  0  0  0  # atno 6907 bound_to 6896
  151.5518  135.1065  159.9961 H   0  0  0  0  0  0  0  0  0  0  0  0  # atno 6908 bound_to 6896
  152.4526  133.7617  159.6806 H   0  0  0  0  0  0  0  0  0  0  0  0  # atno 6909 bound_to 6896
  145.2864  140.9341  143.2903 H   0  0  0  0  0  0  0  0  0  0  0  0  # atno 7974 bound_to 7965
  154.6564  140.0573  157.0013 H   0  0  0  0  0  0  0  0  0  0  0  0  # atno 8008 bound_to 7997
  155.1294  140.3255  155.4459 H   0  0  0  0  0  0  0  0  0  0  0  0  # atno 8009 bound_to 7997
  156.2599  140.1983  156.6414 H   0  0  0  0  0  0  0  0  0  0  0  0  # atno 8010 bound_to 7997
  140.4746  143.2417  151.8152 H   0  0  0  0  0  0  0  0  0  0  0  0  # atno 10167 bound_to 10162
  156.2802  130.4216  149.8345 H   0  0  0  0  0  0  0  0  0  0  0  0  # atno 10718 bound_to 10713
  153.9702  135.2951  155.3428 H   0  0  0  0  0  0  0  0  0  0  0  0  # atno 10763 bound_to 10752
  154.7327  135.5060  153.8993 H   0  0  0  0  0  0  0  0  0  0  0  0  # atno 10764 bound_to 10752
  153.0904  135.6706  153.9978 H   0  0  0  0  0  0  0  0  0  0  0  0  # atno 10765 bound_to 10752
  141.0928  133.6629  156.4035 H   0  0  0  0  0  0  0  0  0  0  0  0  # atno 11005 bound_to 11000
  144.9210  139.4412  143.6541 LP  0  0  0  0  0  0  0  0  0  0  0  0  # atno 17320 bound_to 7965
  146.3199  139.8070  142.8953 LP  0  0  0  0  0  0  0  0  0  0  0  0  # atno 17321 bound_to 7965
  139.4823  144.4849  151.9259 LP  0  0  0  0  0  0  0  0  0  0  0  0  # atno 17342 bound_to 10162
  140.3934  144.2586  150.5898 LP  0  0  0  0  0  0  0  0  0  0  0  0  # atno 17343 bound_to 10162
  156.5795  130.8459  151.3379 LP  0  0  0  0  0  0  0  0  0  0  0  0  # atno 17370 bound_to 10713
  157.7312  130.9696  150.1869 LP  0  0  0  0  0  0  0  0  0  0  0  0  # atno 17371 bound_to 10713
  140.5212  134.6303  157.5318 LP  0  0  0  0  0  0  0  0  0  0  0  0  # atno 17394 bound_to 11000
  139.9757  134.7218  155.9954 LP  0  0  0  0  0  0  0  0  0  0  0  0  # atno 17395 bound_to 11000

$$$$
