AV-unprocessed.smi:3032|AV-procd|sdf|11565|dock10
  -GOLD-   2272016533D 1   1.00000     0.00000
 Structure written by MMmdl.
 37 38  0  0  0  0  0  0  0  0  1 V2000
  153.7115  141.7658  160.6352 C   0  0  0  0  0  0  0  0  0  0  0  0
  152.4591  142.3659  159.9813 C   0  0  2  0  0  0  0  0  0  0  0  0
  152.1403  141.6796  158.6403 C   0  0  0  0  0  0  0  0  0  0  0  0
  150.8749  142.2626  157.9931 C   0  0  0  0  0  0  0  0  0  0  0  0
  150.9707  143.7929  157.8280 C   0  0  0  0  0  0  0  0  0  0  0  0
  151.3634  144.5367  159.1282 C   0  0  1  0  0  0  0  0  0  0  0  0
  150.2111  144.6799  160.1396 C   0  0  0  0  0  0  0  0  0  0  0  0
  150.2935  144.2119  161.2749 O   0  0  0  0  0  0  0  0  0  0  0  0
  149.1314  145.3478  159.7056 N   0  0  0  0  0  0  0  0  0  0  0  0
  147.9571  145.6709  160.5110 C   0  0  0  0  0  0  0  0  0  0  0  0
  147.1771  144.4243  160.9798 C   0  0  0  0  0  0  0  0  0  0  0  0
  146.6530  143.5778  159.8621 C   0  0  0  0  0  0  0  0  0  0  0  0
  146.0271  142.4053  160.0192 N   0  0  0  0  0  0  0  0  0  0  0  0
  145.7368  141.9639  158.7376 N   0  0  0  0  0  0  0  0  0  0  0  0
  146.2136  142.9146  157.9323 C   0  0  0  0  0  0  0  0  0  0  0  0
  146.7893  143.9362  158.5759 N   0  0  0  0  0  0  0  0  0  0  0  0
  152.6093  143.8865  159.7722 C   0  0  0  0  0  0  0  0  0  0  0  0
  147.2229  144.7631  158.1916 H   0  0  0  0  0  0  0  0  0  0  0  0
  154.5914  141.9012  160.0056 H   0  0  0  0  0  0  0  0  0  0  0  0
  153.5883  140.6967  160.8103 H   0  0  0  0  0  0  0  0  0  0  0  0
  153.9152  142.2352  161.5977 H   0  0  0  0  0  0  0  0  0  0  0  0
  151.6244  142.1892  160.6608 H   0  0  0  0  0  0  0  0  0  0  0  0
  152.9832  141.7961  157.9575 H   0  0  0  0  0  0  0  0  0  0  0  0
  152.0110  140.6073  158.7902 H   0  0  0  0  0  0  0  0  0  0  0  0
  150.7147  141.8002  157.0190 H   0  0  0  0  0  0  0  0  0  0  0  0
  150.0057  141.9968  158.5935 H   0  0  0  0  0  0  0  0  0  0  0  0
  151.7174  144.0137  157.0640 H   0  0  0  0  0  0  0  0  0  0  0  0
  150.0280  144.1802  157.4390 H   0  0  0  0  0  0  0  0  0  0  0  0
  151.6354  145.5533  158.8393 H   0  0  0  0  0  0  0  0  0  0  0  0
  149.1400  145.6945  158.7571 H   0  0  0  0  0  0  0  0  0  0  0  0
  148.3125  146.2183  161.3843 H   0  0  0  0  0  0  0  0  0  0  0  0
  147.3007  146.3511  159.9668 H   0  0  0  0  0  0  0  0  0  0  0  0
  147.8166  143.8087  161.6130 H   0  0  0  0  0  0  0  0  0  0  0  0
  146.3381  144.7294  161.6067 H   0  0  0  0  0  0  0  0  0  0  0  0
  146.1426  142.8634  156.8559 H   0  0  0  0  0  0  0  0  0  0  0  0
  152.8335  144.3699  160.7245 H   0  0  0  0  0  0  0  0  0  0  0  0
  153.4744  144.0779  159.1362 H   0  0  0  0  0  0  0  0  0  0  0  0
  1  2  1  0  0  0  0
  1 19  1  0  0  0  0
  1 20  1  0  0  0  0
  1 21  1  0  0  0  0
  2 17  1  0  0  0  0
  2  3  1  0  0  0  0
  2 22  1  0  0  0  0
  3  4  1  0  0  0  0
  3 23  1  0  0  0  0
  3 24  1  0  0  0  0
  4  5  1  0  0  0  0
  4 25  1  0  0  0  0
  4 26  1  0  0  0  0
  5  6  1  0  0  0  0
  5 27  1  0  0  0  0
  5 28  1  0  0  0  0
  6  7  1  0  0  0  0
  6 17  1  0  0  0  0
  6 29  1  0  0  0  0
  7  8  2  0  0  0  0
  7  9  1  0  0  0  0
  9 10  1  0  0  0  0
  9 30  1  0  0  0  0
 10 11  1  0  0  0  0
 10 31  1  0  0  0  0
 10 32  1  0  0  0  0
 11 12  1  0  0  0  0
 11 33  1  0  0  0  0
 11 34  1  0  0  0  0
 12 16  1  0  0  0  0
 12 13  2  0  0  0  0
 13 14  1  0  0  0  0
 14 15  2  0  0  0  0
 15 16  1  0  0  0  0
 15 35  1  0  0  0  0
 16 18  1  0  0  0  0
 17 36  1  0  0  0  0
 17 37  1  0  0  0  0
M  END
> <s_m_source_file>
AV-unprocessed.smi

> <i_m_source_file_index>
3032

> <i_lp_mmshare_version>
43012

> <i_f3d_flags>
0

> <s_epik_input>
W0NIM11bQ0BASF0xW0NIMl1bQ0gyXVtDSDJdW0NASF0oW0NIMl0xKUMoPU8pW05IXVtDSDJdW0NIMl1jMm5uW2NIXVtuSF0y

> <s_epik_cmdline>
J2VwaWtfcHl0aG9uJywgJy1waCcsICc3LjAnLCAnLXRuJywgJzgnLCAnLW1hJywgJzIwMCcsICctbWV0YWxfYmluZGluZycsICctaW1hZScsICc8aW5maWxlLm1hZT4nLCAnLW9tYWUnLCAnPG91dGZpbGUubWFlPic=

> <r_lp_tautomer_probability>
0.0517155

> <r_epik_Ionization_Penalty>
0.00149837

> <r_epik_Ionization_Penalty_Charging>
0

> <r_epik_Ionization_Penalty_Neutral>
0.00149837

> <r_epik_State_Penalty>
2.1109

> <r_epik_Charging_Adjusted_Penalty>
2.1109

> <i_epik_Tot_Q>
0

> <i_epik_Tot_abs_Q>
0

> <r_epik_Metal_State_Penalty>
2.23635

> <b_epik_Metal_Only>
0

> <s_lp_Force_Field>
OPLS_2005

> <r_lp_Energy>
9.22736

> <b_lp_Chiralities_Consistent>
1

> <s_lp_Variant>
AV-unprocessed.smi:3032-9

> <Gold.Version>
5.8.1

> <Gold.Id.Protein>
6NUR|6NUR_protein|mol2

> <Gold.PLP.Fitness>
44.0951

> <Gold.PLP.PLP>
-35.5372

> <Gold.PLP.part.hbond>
-4.1926

> <Gold.PLP.part.metal>
0.0000

> <Gold.PLP.part.buried>
-5.0178

> <Gold.PLP.part.nonpolar>
-28.0857

> <Gold.PLP.part.repulsive>
0.9685

> <Gold.PLP.ligand.clash>
0.0000

> <Gold.PLP.ligand.torsion>
0.0636

> <Gold.PLP.Chemscore.Hbond>
2.8800

> <Gold.PLP.Chemscore.CHOScore>
0.0000

> <Gold.PLP.Chemscore.Metal>
0.0000

> <Gold.Chemscore.Hbonds>
donor molecule, donor type, donor heavy atom, donor atom, acceptor molecule, acceptor atom, score
      L1  H     9    30       P1  8029  0.78
      L1  H    16    18       P1  8029  1.00
      P1  H  6934  6946       L1    13  1.00

> <Gold.PLP.Chemscore.Internal.Correction>
0.0451

> <Gold.Rescore>
     Score         DG    S(hbond)    S(metal)    S(lipo)     H(rot)  DE(clash)    DE(int)     intcor
     18.53     -18.79       2.77        0.00      84.07       2.25       0.09       0.17       ----

> <Gold.Chemscore.Fitness>
18.5332

> <Gold.Chemscore.DG>
-18.7920

> <Gold.Chemscore.ZeroCoef>
-5.4800

> <Gold.Chemscore.Hbond>
2.7654

> <Gold.Chemscore.Metal>
0.0000

> <Gold.Chemscore.Lipo>
84.0681

> <Gold.Chemscore.Internal_Hbond>
0.0000

> <Gold.Chemscore.DEClash>
0.0930

> <Gold.Chemscore.DEInternal>
0.1657

> <Gold.Chemscore.Rot>
2.2501

> <Gold.Chemscore.Internal.Correction>
   9.000000E+99

> <Gold.Chemscore.Hbonds>
donor molecule, donor type, donor heavy atom, donor atom, acceptor molecule, acceptor atom, score
      L1  H     9    30       P1  8029  0.79
      L1  H    16    18       P1  8029  0.87
      P1  H  6934  6946       L1    13  0.25

> <Gold.Chemscore.Hbond.Weighted>
-9.2363

> <Gold.Chemscore.Metal.Weighted>
-0.0000

> <Gold.Chemscore.Lipo.Weighted>
-9.8360

> <Gold.Chemscore.Internal_Hbond.Weighted>
0.0000

> <Gold.Chemscore.DEClash.Weighted>
0.0930

> <Gold.Chemscore.DEInternal.Weighted>
0.1657

> <Gold.Chemscore.Rot.Weighted>
5.7603

> <Gold.Chemscore.Internal.Correction.Weighted>
   9.000000E+99

> <Gold.Protein.RotatedTorsions>
[ 6907 6896 6895 6894 ] final -136.16 input  -60.11 | X-H torsion
[ 7974 7965 7964 7962 ] final  -91.05 input  175.53 | X-H torsion
[ 8008 7997 7996 7995 ] final  -23.21 input   59.86 | X-H torsion
[ 10167 10162 10161 10158 ] final  -83.10 input  -65.29 | X-H torsion
[ 10718 10713 10712 10709 ] final   -7.99 input   66.30 | X-H torsion
[ 10763 10752 10751 10750 ] final  -19.80 input  -60.55 | X-H torsion
[ 11005 11000 10999 10996 ] final -165.13 input  -57.11 | X-H torsion

> <Gold.Protein.ActiveResidues>
 VAL166  LYS551  ARG553  GLY616  TRP617  ASP618  TYR619  PRO620  LYS621  CYS622 
 ASP623  PHE694  ASN695  SER759  ASP760  ASP761  ALA762  ILE779  LEU786  VAL792 
 PHE793  MET794  SER795  GLU796  ALA797  LYS798  CYS799  TRP800  GLU811  SER814 

> <Gold.Protein.RotatedAtoms>
  151.0067  133.6004  159.2687 H   0  0  0  0  0  0  0  0  0  0  0  0  # atno 6907 bound_to 6896
  151.3171  135.0808  159.9302 H   0  0  0  0  0  0  0  0  0  0  0  0  # atno 6908 bound_to 6896
  152.5288  133.9721  159.7821 H   0  0  0  0  0  0  0  0  0  0  0  0  # atno 6909 bound_to 6896
  145.4183  140.9549  143.2195 H   0  0  0  0  0  0  0  0  0  0  0  0  # atno 7974 bound_to 7965
  154.4598  140.1987  156.0276 H   0  0  0  0  0  0  0  0  0  0  0  0  # atno 8008 bound_to 7997
  156.0818  140.3270  155.7675 H   0  0  0  0  0  0  0  0  0  0  0  0  # atno 8009 bound_to 7997
  155.5099  140.0561  157.2916 H   0  0  0  0  0  0  0  0  0  0  0  0  # atno 8010 bound_to 7997
  140.4258  143.2567  151.8827 H   0  0  0  0  0  0  0  0  0  0  0  0  # atno 10167 bound_to 10162
  156.7091  130.5116  149.5897 H   0  0  0  0  0  0  0  0  0  0  0  0  # atno 10718 bound_to 10713
  153.6104  135.6996  153.5349 H   0  0  0  0  0  0  0  0  0  0  0  0  # atno 10763 bound_to 10752
  153.3022  135.4125  155.1262 H   0  0  0  0  0  0  0  0  0  0  0  0  # atno 10764 bound_to 10752
  154.8564  135.3651  154.5642 H   0  0  0  0  0  0  0  0  0  0  0  0  # atno 10765 bound_to 10752
  140.5791  134.5159  157.5175 H   0  0  0  0  0  0  0  0  0  0  0  0  # atno 11005 bound_to 11000
  144.8262  139.5706  143.6964 LP  0  0  0  0  0  0  0  0  0  0  0  0  # atno 17320 bound_to 7965
  146.2669  139.6542  142.9323 LP  0  0  0  0  0  0  0  0  0  0  0  0  # atno 17321 bound_to 7965
  139.4783  144.5388  151.8559 LP  0  0  0  0  0  0  0  0  0  0  0  0  # atno 17342 bound_to 10162
  140.4482  144.1891  150.5895 LP  0  0  0  0  0  0  0  0  0  0  0  0  # atno 17343 bound_to 10162
  156.1674  130.6414  151.0795 LP  0  0  0  0  0  0  0  0  0  0  0  0  # atno 17370 bound_to 10713
  157.6943  131.0799  150.7015 LP  0  0  0  0  0  0  0  0  0  0  0  0  # atno 17371 bound_to 10713
  139.9325  134.7936  156.0891 LP  0  0  0  0  0  0  0  0  0  0  0  0  # atno 17394 bound_to 11000
  141.1007  133.6678  156.2748 LP  0  0  0  0  0  0  0  0  0  0  0  0  # atno 17395 bound_to 11000

$$$$
