AV-unprocessed.smi:2025|AV-procd|sdf|8200|dock9
  -GOLD-   2272010453D 1   1.00000     0.00000
 Structure written by MMmdl.
 39 40  0  0  0  0  0  0  0  0  1 V2000
  153.0830  142.8757  162.6804 C   0  0  0  0  0  0  0  0  0  0  0  0
  153.1646  142.9049  161.1463 C   0  0  1  0  0  0  0  0  0  0  0  0
  152.6896  141.6223  160.6318 N   0  0  0  0  0  0  0  0  0  0  0  0
  153.4088  140.7577  159.8993 C   0  0  0  0  0  0  0  0  0  0  0  0
  154.5789  140.9576  159.5696 O   0  0  0  0  0  0  0  0  0  0  0  0
  152.6754  139.4853  159.4539 C   0  0  0  0  0  0  0  0  0  0  0  0
  152.2039  139.5493  158.0644 N   0  0  0  0  0  0  0  0  0  0  0  0
  150.9988  140.1655  157.7794 C   0  0  0  0  0  0  0  0  0  0  0  0
  150.5008  140.2854  156.5294 C   0  0  0  0  0  0  0  0  0  0  0  0
  151.2253  139.7523  155.3827 C   0  0  0  0  0  0  0  0  0  0  0  0
  150.8222  139.8511  154.2228 O   0  0  0  0  0  0  0  0  0  0  0  0
  152.4467  139.1150  155.7021 N   0  0  0  0  0  0  0  0  0  0  0  0
  153.2163  138.5805  154.5975 C   0  0  0  0  0  0  0  0  0  0  0  0
  152.9729  139.0091  157.0106 C   0  0  0  0  0  0  0  0  0  0  0  0
  154.0607  138.4763  157.2427 O   0  0  0  0  0  0  0  0  0  0  0  0
  152.3358  144.0546  160.5356 C   0  0  1  0  0  0  0  0  0  0  0  0
  152.5351  144.2578  159.0345 C   0  0  0  0  0  0  0  0  0  0  0  0
  151.2909  145.0318  158.6579 C   0  0  0  0  0  0  0  0  0  0  0  0
  150.2333  144.4540  159.5985 C   0  0  0  0  0  0  0  0  0  0  0  0
  150.9420  143.7831  160.6374 O   0  0  0  0  0  0  0  0  0  0  0  0
  153.4891  143.7878  163.1182 H   0  0  0  0  0  0  0  0  0  0  0  0
  153.6541  142.0404  163.0873 H   0  0  0  0  0  0  0  0  0  0  0  0
  152.0524  142.7726  163.0218 H   0  0  0  0  0  0  0  0  0  0  0  0
  154.2126  143.0446  160.8753 H   0  0  0  0  0  0  0  0  0  0  0  0
  151.7341  141.3756  160.8451 H   0  0  0  0  0  0  0  0  0  0  0  0
  153.3233  138.6177  159.5918 H   0  0  0  0  0  0  0  0  0  0  0  0
  151.8294  139.3295  160.1246 H   0  0  0  0  0  0  0  0  0  0  0  0
  150.4269  140.5806  158.5967 H   0  0  0  0  0  0  0  0  0  0  0  0
  149.5555  140.7848  156.3757 H   0  0  0  0  0  0  0  0  0  0  0  0
  153.9446  137.8510  154.9524 H   0  0  0  0  0  0  0  0  0  0  0  0
  153.7091  139.4266  154.1166 H   0  0  0  0  0  0  0  0  0  0  0  0
  152.5323  138.0744  153.9138 H   0  0  0  0  0  0  0  0  0  0  0  0
  152.5400  144.9908  161.0587 H   0  0  0  0  0  0  0  0  0  0  0  0
  153.4537  144.7931  158.7925 H   0  0  0  0  0  0  0  0  0  0  0  0
  152.5497  143.2975  158.5165 H   0  0  0  0  0  0  0  0  0  0  0  0
  151.4363  146.0924  158.8677 H   0  0  0  0  0  0  0  0  0  0  0  0
  151.0268  144.9275  157.6051 H   0  0  0  0  0  0  0  0  0  0  0  0
  149.5936  145.2358  160.0094 H   0  0  0  0  0  0  0  0  0  0  0  0
  149.5982  143.7326  159.0834 H   0  0  0  0  0  0  0  0  0  0  0  0
  1  2  1  0  0  0  0
  1 21  1  0  0  0  0
  1 22  1  0  0  0  0
  1 23  1  0  0  0  0
  2  3  1  0  0  0  0
  2 16  1  0  0  0  0
  2 24  1  0  0  0  0
  3  4  1  0  0  0  0
  3 25  1  0  0  0  0
  4  5  2  0  0  0  0
  4  6  1  0  0  0  0
  6  7  1  0  0  0  0
  6 26  1  0  0  0  0
  6 27  1  0  0  0  0
  7 14  1  0  0  0  0
  7  8  1  0  0  0  0
  8  9  2  0  0  0  0
  8 28  1  0  0  0  0
  9 10  1  0  0  0  0
  9 29  1  0  0  0  0
 10 11  2  0  0  0  0
 10 12  1  0  0  0  0
 12 13  1  0  0  0  0
 12 14  1  0  0  0  0
 13 30  1  0  0  0  0
 13 31  1  0  0  0  0
 13 32  1  0  0  0  0
 14 15  2  0  0  0  0
 16 20  1  0  0  0  0
 16 17  1  0  0  0  0
 16 33  1  0  0  0  0
 17 18  1  0  0  0  0
 17 34  1  0  0  0  0
 17 35  1  0  0  0  0
 18 19  1  0  0  0  0
 18 36  1  0  0  0  0
 18 37  1  0  0  0  0
 19 20  1  0  0  0  0
 19 38  1  0  0  0  0
 19 39  1  0  0  0  0
M  END
> <s_m_source_file>
AV-unprocessed.smi

> <i_m_source_file_index>
2025

> <i_lp_mmshare_version>
43012

> <i_f3d_flags>
0

> <s_epik_input>
TzFbQ0gyXVtDSDJdW0NIMl1bQ0BIXTFbQ0BIXShbQ0gzXSlbTkhdQyg9TylbQ0gyXW4yW2NIXVtjSF1jKD1PKW4oW0NIM10pYzI9Tw==

> <s_epik_cmdline>
J2VwaWtfcHl0aG9uJywgJy1waCcsICc3LjAnLCAnLXRuJywgJzgnLCAnLW1hJywgJzIwMCcsICctbWV0YWxfYmluZGluZycsICctaW1hZScsICc8aW5maWxlLm1hZT4nLCAnLW9tYWUnLCAnPG91dGZpbGUubWFlPic=

> <r_lp_tautomer_probability>
1

> <r_epik_Ionization_Penalty>
3.54787e-08

> <r_epik_Ionization_Penalty_Charging>
1.24654e-08

> <r_epik_Ionization_Penalty_Neutral>
2.30132e-08

> <r_epik_State_Penalty>
-0

> <r_epik_Charging_Adjusted_Penalty>
1.24654e-08

> <i_epik_Tot_Q>
0

> <i_epik_Tot_abs_Q>
0

> <r_epik_Metal_State_Penalty>
-0

> <b_epik_Metal_Only>
0

> <s_lp_Force_Field>
OPLS_2005

> <r_lp_Energy>
25.8508

> <b_lp_Chiralities_Consistent>
1

> <s_lp_Variant>
AV-unprocessed.smi:2025-4

> <Gold.Version>
5.8.1

> <Gold.Id.Protein>
6NUR|6NUR_protein|mol2

> <Gold.PLP.Fitness>
48.2162

> <Gold.PLP.PLP>
-44.5763

> <Gold.PLP.part.hbond>
-3.4183

> <Gold.PLP.part.metal>
0.0000

> <Gold.PLP.part.buried>
-6.0589

> <Gold.PLP.part.nonpolar>
-35.5652

> <Gold.PLP.part.repulsive>
0.3790

> <Gold.PLP.ligand.clash>
0.0000

> <Gold.PLP.ligand.torsion>
0.7167

> <Gold.PLP.Chemscore.Hbond>
1.6840

> <Gold.PLP.Chemscore.CHOScore>
0.0000

> <Gold.PLP.Chemscore.Metal>
0.0000

> <Gold.Chemscore.Hbonds>
donor molecule, donor type, donor heavy atom, donor atom, acceptor molecule, acceptor atom, score
      P1  H  7989  7998       L1    11  0.89
      P1  H  7997  8009       L1    15  0.28

> <Gold.PLP.Chemscore.Internal.Correction>
0.0213

> <Gold.Rescore>
     Score         DG    S(hbond)    S(metal)    S(lipo)     H(rot)  DE(clash)    DE(int)     intcor
     14.26     -15.06       1.04        0.00      91.97       1.82       0.07       0.73       ----

> <Gold.Chemscore.Fitness>
14.2595

> <Gold.Chemscore.DG>
-15.0608

> <Gold.Chemscore.ZeroCoef>
-5.4800

> <Gold.Chemscore.Hbond>
1.0440

> <Gold.Chemscore.Metal>
0.0000

> <Gold.Chemscore.Lipo>
91.9683

> <Gold.Chemscore.Internal_Hbond>
0.0000

> <Gold.Chemscore.DEClash>
0.0727

> <Gold.Chemscore.DEInternal>
0.7286

> <Gold.Chemscore.Rot>
1.8228

> <Gold.Chemscore.Internal.Correction>
   9.000000E+99

> <Gold.Chemscore.Hbonds>
donor molecule, donor type, donor heavy atom, donor atom, acceptor molecule, acceptor atom, score
      P1  H  7989  7998       L1    11  0.64
      P1  H  7997  8009       L1    15  0.01

> <Gold.Chemscore.Hbond.Weighted>
-3.4870

> <Gold.Chemscore.Metal.Weighted>
-0.0000

> <Gold.Chemscore.Lipo.Weighted>
-10.7603

> <Gold.Chemscore.Internal_Hbond.Weighted>
0.0000

> <Gold.Chemscore.DEClash.Weighted>
0.0727

> <Gold.Chemscore.DEInternal.Weighted>
0.7286

> <Gold.Chemscore.Rot.Weighted>
4.6665

> <Gold.Chemscore.Internal.Correction.Weighted>
   9.000000E+99

> <Gold.Protein.RotatedTorsions>
[ 6907 6896 6895 6894 ] final  -92.67 input  -60.11 | X-H torsion
[ 7974 7965 7964 7962 ] final -179.37 input  175.53 | X-H torsion
[ 8008 7997 7996 7995 ] final  141.92 input   59.86 | X-H torsion
[ 10167 10162 10161 10158 ] final  164.64 input  -65.29 | X-H torsion
[ 10718 10713 10712 10709 ] final   50.15 input   66.30 | X-H torsion
[ 10763 10752 10751 10750 ] final -107.46 input  -60.55 | X-H torsion
[ 11005 11000 10999 10996 ] final -178.99 input  -57.11 | X-H torsion

> <Gold.Protein.ActiveResidues>
 VAL166  LYS551  ARG553  GLY616  TRP617  ASP618  TYR619  PRO620  LYS621  CYS622 
 ASP623  PHE694  ASN695  SER759  ASP760  ASP761  ALA762  ILE779  LEU786  VAL792 
 PHE793  MET794  SER795  GLU796  ALA797  LYS798  CYS799  TRP800  GLU811  SER814 

> <Gold.Protein.RotatedAtoms>
  150.6910  134.2087  159.4350 H   0  0  0  0  0  0  0  0  0  0  0  0  # atno 6907 bound_to 6896
  152.0049  134.9905  160.0575 H   0  0  0  0  0  0  0  0  0  0  0  0  # atno 6908 bound_to 6896
  152.1543  133.4506  159.4866 H   0  0  0  0  0  0  0  0  0  0  0  0  # atno 6909 bound_to 6896
  144.7136  140.0728  143.6428 H   0  0  0  0  0  0  0  0  0  0  0  0  # atno 7974 bound_to 7965
  156.2958  140.2302  156.4643 H   0  0  0  0  0  0  0  0  0  0  0  0  # atno 8008 bound_to 7997
  154.7991  140.0449  157.1280 H   0  0  0  0  0  0  0  0  0  0  0  0  # atno 8009 bound_to 7997
  154.9555  140.3047  155.5058 H   0  0  0  0  0  0  0  0  0  0  0  0  # atno 8010 bound_to 7997
  139.4892  144.4214  151.9181 H   0  0  0  0  0  0  0  0  0  0  0  0  # atno 10167 bound_to 10162
  157.4856  130.8343  149.8143 H   0  0  0  0  0  0  0  0  0  0  0  0  # atno 10718 bound_to 10713
  154.8076  135.4674  154.0434 H   0  0  0  0  0  0  0  0  0  0  0  0  # atno 10763 bound_to 10752
  153.1890  135.6852  153.8385 H   0  0  0  0  0  0  0  0  0  0  0  0  # atno 10764 bound_to 10752
  153.7909  135.3243  155.3355 H   0  0  0  0  0  0  0  0  0  0  0  0  # atno 10765 bound_to 10752
  140.4236  134.6583  157.4676 H   0  0  0  0  0  0  0  0  0  0  0  0  # atno 11005 bound_to 11000
  145.9769  139.2911  143.1065 LP  0  0  0  0  0  0  0  0  0  0  0  0  # atno 17320 bound_to 7965
  145.9054  140.9215  143.0481 LP  0  0  0  0  0  0  0  0  0  0  0  0  # atno 17321 bound_to 7965
  140.3658  144.2916  150.5927 LP  0  0  0  0  0  0  0  0  0  0  0  0  # atno 17342 bound_to 10162
  140.5362  143.2233  151.8159 LP  0  0  0  0  0  0  0  0  0  0  0  0  # atno 17343 bound_to 10162
  156.0145  130.3819  150.2156 LP  0  0  0  0  0  0  0  0  0  0  0  0  # atno 17370 bound_to 10713
  157.0343  131.0016  151.3303 LP  0  0  0  0  0  0  0  0  0  0  0  0  # atno 17371 bound_to 10713
  140.0183  134.6586  155.9277 LP  0  0  0  0  0  0  0  0  0  0  0  0  # atno 17394 bound_to 11000
  141.1774  133.6542  156.4883 LP  0  0  0  0  0  0  0  0  0  0  0  0  # atno 17395 bound_to 11000

$$$$
