AV-unprocessed.smi:364|AV-procd|sdf|2425|dock1
  -GOLD-   2262022363D 1   1.00000     0.00000
 Structure written by MMmdl.
 37 38  0  0  0  0  0  0  0  0  1 V2000
  153.4787  142.3037  160.9143 C   0  0  0  0  0  0  0  0  0  0  0  0
  152.3369  142.3511  159.8893 C   0  0  2  0  0  0  0  0  0  0  0  0
  152.2269  141.0293  159.1055 C   0  0  0  0  0  0  0  0  0  0  0  0
  151.0863  141.0740  158.0760 C   0  0  0  0  0  0  0  0  0  0  0  0
  151.2458  142.2646  157.1100 C   0  0  1  0  0  0  0  0  0  0  0  0
  150.1128  142.3399  156.1948 N   0  0  0  0  0  0  0  0  0  0  0  0
  149.8219  141.4515  155.2296 C   0  0  0  0  0  0  0  0  0  0  0  0
  150.4983  140.4444  155.0244 O   0  0  0  0  0  0  0  0  0  0  0  0
  148.5862  141.7134  154.3506 C   0  0  0  0  0  0  0  0  0  0  0  0
  147.5599  140.6554  154.3881 N   0  0  0  0  0  0  0  0  0  0  0  0
  147.8656  139.4355  153.7616 C   0  0  0  0  0  0  0  0  0  0  0  0
  146.9849  138.4246  153.7566 C   0  0  0  0  0  0  0  0  0  0  0  0
  145.7057  138.6700  154.4351 C   0  0  0  0  0  0  0  0  0  0  0  0
  145.4247  139.7801  155.0090 N   0  0  0  0  0  0  0  0  0  0  0  0
  146.3512  140.8400  155.0132 C   0  0  0  0  0  0  0  0  0  0  0  0
  146.0907  141.9073  155.5683 O   0  0  0  0  0  0  0  0  0  0  0  0
  151.3587  143.5863  157.8906 C   0  0  0  0  0  0  0  0  0  0  0  0
  152.4996  143.5368  158.9193 C   0  0  0  0  0  0  0  0  0  0  0  0
  154.4438  142.1642  160.4263 H   0  0  0  0  0  0  0  0  0  0  0  0
  153.3402  141.4834  161.6189 H   0  0  0  0  0  0  0  0  0  0  0  0
  153.5271  143.2280  161.4906 H   0  0  0  0  0  0  0  0  0  0  0  0
  151.4063  142.4930  160.4408 H   0  0  0  0  0  0  0  0  0  0  0  0
  153.1682  140.8239  158.5940 H   0  0  0  0  0  0  0  0  0  0  0  0
  152.0634  140.1994  159.7939 H   0  0  0  0  0  0  0  0  0  0  0  0
  151.0627  140.1369  157.5186 H   0  0  0  0  0  0  0  0  0  0  0  0
  150.1311  141.1461  158.5979 H   0  0  0  0  0  0  0  0  0  0  0  0
  152.1631  142.1323  156.5326 H   0  0  0  0  0  0  0  0  0  0  0  0
  149.5026  143.1386  156.2937 H   0  0  0  0  0  0  0  0  0  0  0  0
  148.1509  142.6705  154.6428 H   0  0  0  0  0  0  0  0  0  0  0  0
  148.9294  141.8629  153.3258 H   0  0  0  0  0  0  0  0  0  0  0  0
  148.8418  139.3785  153.3018 H   0  0  0  0  0  0  0  0  0  0  0  0
  147.1562  137.4630  153.2959 H   0  0  0  0  0  0  0  0  0  0  0  0
  145.0007  137.8351  154.4193 H   0  0  0  0  0  0  0  0  0  0  0  0
  151.5231  144.4148  157.2007 H   0  0  0  0  0  0  0  0  0  0  0  0
  150.4190  143.7946  158.4044 H   0  0  0  0  0  0  0  0  0  0  0  0
  152.5279  144.4738  159.4764 H   0  0  0  0  0  0  0  0  0  0  0  0
  153.4546  143.4594  158.3977 H   0  0  0  0  0  0  0  0  0  0  0  0
  1  2  1  0  0  0  0
  1 19  1  0  0  0  0
  1 20  1  0  0  0  0
  1 21  1  0  0  0  0
  2 18  1  0  0  0  0
  2  3  1  0  0  0  0
  2 22  1  0  0  0  0
  3  4  1  0  0  0  0
  3 23  1  0  0  0  0
  3 24  1  0  0  0  0
  4  5  1  0  0  0  0
  4 25  1  0  0  0  0
  4 26  1  0  0  0  0
  5  6  1  0  0  0  0
  5 17  1  0  0  0  0
  5 27  1  0  0  0  0
  6  7  1  0  0  0  0
  6 28  1  0  0  0  0
  7  8  2  0  0  0  0
  7  9  1  0  0  0  0
  9 10  1  0  0  0  0
  9 29  1  0  0  0  0
  9 30  1  0  0  0  0
 10 15  1  0  0  0  0
 10 11  1  0  0  0  0
 11 12  2  0  0  0  0
 11 31  1  0  0  0  0
 12 13  1  0  0  0  0
 12 32  1  0  0  0  0
 13 14  2  0  0  0  0
 13 33  1  0  0  0  0
 14 15  1  0  0  0  0
 15 16  2  0  0  0  0
 17 18  1  0  0  0  0
 17 34  1  0  0  0  0
 17 35  1  0  0  0  0
 18 36  1  0  0  0  0
 18 37  1  0  0  0  0
M  END
> <s_m_source_file>
AV-unprocessed.smi

> <i_m_source_file_index>
364

> <i_lp_mmshare_version>
43012

> <i_f3d_flags>
0

> <s_epik_input>
W0NIM11bQ0BASF0xW0NIMl1bQ0gyXVtDQEhdKFtDSDJdW0NIMl0xKVtOSF1DKD1PKVtDSDJdbjJbY0hdW2NIXVtjSF1uYzI9Tw==

> <s_epik_cmdline>
J2VwaWtfcHl0aG9uJywgJy1waCcsICc3LjAnLCAnLXRuJywgJzgnLCAnLW1hJywgJzIwMCcsICctbWV0YWxfYmluZGluZycsICctaW1hZScsICc8aW5maWxlLm1hZT4nLCAnLW9tYWUnLCAnPG91dGZpbGUubWFlPic=

> <r_lp_tautomer_probability>
1

> <r_epik_Ionization_Penalty>
7.65306e-06

> <r_epik_Ionization_Penalty_Charging>
1.81354e-08

> <r_epik_Ionization_Penalty_Neutral>
7.63492e-06

> <r_epik_State_Penalty>
-0

> <r_epik_Charging_Adjusted_Penalty>
1.81354e-08

> <i_epik_Tot_Q>
0

> <i_epik_Tot_abs_Q>
0

> <r_epik_Metal_State_Penalty>
-0

> <b_epik_Metal_Only>
0

> <s_lp_Force_Field>
OPLS_2005

> <r_lp_Energy>
10.9522

> <b_lp_Chiralities_Consistent>
1

> <s_lp_Variant>
AV-unprocessed.smi:364-1

> <Gold.Version>
5.8.1

> <Gold.Id.Protein>
6NUR|6NUR_protein|mol2

> <Gold.PLP.Fitness>
42.9705

> <Gold.PLP.PLP>
-34.3410

> <Gold.PLP.part.hbond>
-2.0000

> <Gold.PLP.part.metal>
0.0000

> <Gold.PLP.part.buried>
-3.8949

> <Gold.PLP.part.nonpolar>
-28.7283

> <Gold.PLP.part.repulsive>
0.3914

> <Gold.PLP.ligand.clash>
0.0000

> <Gold.PLP.ligand.torsion>
0.1871

> <Gold.PLP.Chemscore.Hbond>
2.0000

> <Gold.PLP.Chemscore.CHOScore>
1.0000

> <Gold.PLP.Chemscore.Metal>
0.0000

> <Gold.Chemscore.Hbonds>
donor molecule, donor type, donor heavy atom, donor atom, acceptor molecule, acceptor atom, score
      L1  H     6    28       P1  8028  0.99
      P1  H  7989  7998       L1     8  1.00
      L1  C    11    31       P1  7957  1.00

> <Gold.PLP.Chemscore.Internal.Correction>
0.0037

> <Gold.Rescore>
     Score         DG    S(hbond)    S(metal)    S(lipo)     H(rot)  DE(clash)    DE(int)     intcor
     17.47     -17.75       1.70        0.00      89.06       1.50       0.04       0.23       ----

> <Gold.Chemscore.Fitness>
17.4736

> <Gold.Chemscore.DG>
-17.7460

> <Gold.Chemscore.ZeroCoef>
-5.4800

> <Gold.Chemscore.Hbond>
1.7005

> <Gold.Chemscore.Metal>
0.0000

> <Gold.Chemscore.Lipo>
89.0634

> <Gold.Chemscore.Internal_Hbond>
0.0000

> <Gold.Chemscore.DEClash>
0.0417

> <Gold.Chemscore.DEInternal>
0.2307

> <Gold.Chemscore.Rot>
1.4977

> <Gold.Chemscore.Internal.Correction>
   9.000000E+99

> <Gold.Chemscore.Hbonds>
donor molecule, donor type, donor heavy atom, donor atom, acceptor molecule, acceptor atom, score
      L1  H     6    28       P1  8028  0.94
      P1  H  7989  7998       L1     8  0.48

> <Gold.Chemscore.Hbond.Weighted>
-5.6797

> <Gold.Chemscore.Metal.Weighted>
-0.0000

> <Gold.Chemscore.Lipo.Weighted>
-10.4204

> <Gold.Chemscore.Internal_Hbond.Weighted>
0.0000

> <Gold.Chemscore.DEClash.Weighted>
0.0417

> <Gold.Chemscore.DEInternal.Weighted>
0.2307

> <Gold.Chemscore.Rot.Weighted>
3.8341

> <Gold.Chemscore.Internal.Correction.Weighted>
   9.000000E+99

> <Gold.Protein.RotatedTorsions>
[ 6907 6896 6895 6894 ] final   82.03 input  -60.11 | X-H torsion
[ 7974 7965 7964 7962 ] final  125.13 input  175.53 | X-H torsion
[ 8008 7997 7996 7995 ] final  158.89 input   59.86 | X-H torsion
[ 10167 10162 10161 10158 ] final  171.05 input  -65.29 | X-H torsion
[ 10718 10713 10712 10709 ] final   95.24 input   66.30 | X-H torsion
[ 10763 10752 10751 10750 ] final  142.64 input  -60.55 | X-H torsion
[ 11005 11000 10999 10996 ] final  146.16 input  -57.11 | X-H torsion

> <Gold.Protein.ActiveResidues>
 VAL166  LYS551  ARG553  GLY616  TRP617  ASP618  TYR619  PRO620  LYS621  CYS622 
 ASP623  PHE694  ASN695  SER759  ASP760  ASP761  ALA762  ILE779  LEU786  VAL792 
 PHE793  MET794  SER795  GLU796  ALA797  LYS798  CYS799  TRP800  GLU811  SER814 

> <Gold.Protein.RotatedAtoms>
  152.5287  134.3112  159.9114 H   0  0  0  0  0  0  0  0  0  0  0  0  # atno 6907 bound_to 6896
  151.3062  133.4094  159.2651 H   0  0  0  0  0  0  0  0  0  0  0  0  # atno 6908 bound_to 6896
  151.0077  134.9389  159.8047 H   0  0  0  0  0  0  0  0  0  0  0  0  # atno 6909 bound_to 6896
  145.0764  139.3690  143.4931 H   0  0  0  0  0  0  0  0  0  0  0  0  # atno 7974 bound_to 7965
  156.2274  140.1846  156.7329 H   0  0  0  0  0  0  0  0  0  0  0  0  # atno 8008 bound_to 7997
  154.5964  140.0643  156.9336 H   0  0  0  0  0  0  0  0  0  0  0  0  # atno 8009 bound_to 7997
  155.2249  140.3310  155.4313 H   0  0  0  0  0  0  0  0  0  0  0  0  # atno 8010 bound_to 7997
  139.5035  144.3529  151.9904 H   0  0  0  0  0  0  0  0  0  0  0  0  # atno 10167 bound_to 10162
  157.6940  131.0539  150.4308 H   0  0  0  0  0  0  0  0  0  0  0  0  # atno 10718 bound_to 10713
  153.9592  135.2962  155.3434 H   0  0  0  0  0  0  0  0  0  0  0  0  # atno 10763 bound_to 10752
  154.7384  135.5036  153.9084 H   0  0  0  0  0  0  0  0  0  0  0  0  # atno 10764 bound_to 10752
  153.0955  135.6720  153.9881 H   0  0  0  0  0  0  0  0  0  0  0  0  # atno 10765 bound_to 10752
  140.0771  134.9119  157.1440 H   0  0  0  0  0  0  0  0  0  0  0  0  # atno 11005 bound_to 11000
  146.3530  140.0534  142.8634 LP  0  0  0  0  0  0  0  0  0  0  0  0  # atno 17320 bound_to 7965
  145.1230  140.9473  143.4589 LP  0  0  0  0  0  0  0  0  0  0  0  0  # atno 17321 bound_to 7965
  140.2965  144.3695  150.6073 LP  0  0  0  0  0  0  0  0  0  0  0  0  # atno 17342 bound_to 10162
  140.5906  143.2168  151.7260 LP  0  0  0  0  0  0  0  0  0  0  0  0  # atno 17343 bound_to 10162
  156.4675  130.4045  149.6538 LP  0  0  0  0  0  0  0  0  0  0  0  0  # atno 17370 bound_to 10713
  156.3631  130.7492  151.2466 LP  0  0  0  0  0  0  0  0  0  0  0  0  # atno 17371 bound_to 10713
  140.3542  134.2565  155.7194 LP  0  0  0  0  0  0  0  0  0  0  0  0  # atno 17394 bound_to 11000
  141.2033  133.7915  157.0345 LP  0  0  0  0  0  0  0  0  0  0  0  0  # atno 17395 bound_to 11000

$$$$
