AV-unprocessed.smi:862|AV-procd|sdf|3979|dock3
  -GOLD-   22720 1453D 1   1.00000     0.00000
 Structure written by MMmdl.
 44 46  0  0  0  0  0  0  0  0  2 V2000
  149.5025  138.7429  153.4655 N   0  0  0  0  0  0  0  0  0  0  0  0
  148.5757  139.0119  154.3902 C   0  0  0  0  0  0  0  0  0  0  0  0
  147.8767  138.1182  154.8639 O   0  0  0  0  0  0  0  0  0  0  0  0
  148.5068  140.3095  154.7819 N   0  0  0  0  0  0  0  0  0  0  0  0
  147.4730  140.8997  155.6483 C   0  0  0  0  0  0  0  0  0  0  0  0
  148.0734  141.1283  157.0474 C   0  0  0  0  0  0  0  0  0  0  0  0
  149.3278  142.0247  156.9782 C   0  0  0  0  0  0  0  0  0  0  0  0
  149.9544  142.1190  158.3151 N   0  3  0  0  0  0  0  0  0  0  0  0
  151.1322  143.0099  158.4117 C   0  0  1  0  0  0  0  0  0  0  0  0
  150.7551  144.4893  158.5409 C   0  0  0  0  0  0  0  0  0  0  0  0
  151.9580  145.1556  159.2239 C   0  0  0  0  0  0  0  0  0  0  0  0
  152.7767  144.0265  159.8703 C   0  0  0  0  0  0  0  0  0  0  0  0
  151.9435  142.7500  159.6851 C   0  0  2  0  0  0  0  0  0  0  0  0
  152.7411  141.5348  159.6189 N   0  0  0  0  0  0  0  0  0  0  0  0
  153.6987  141.1212  160.5364 C   0  0  0  0  0  0  0  0  0  0  0  0
  154.1848  139.9149  160.0851 C   0  0  0  0  0  0  0  0  0  0  0  0
  153.5428  139.5654  158.9002 N   0  0  0  0  0  0  0  0  0  0  0  0
  152.7039  140.5700  158.6867 C   0  0  0  0  0  0  0  0  0  0  0  0
  150.3244  141.4922  155.9229 C   0  0  0  0  0  0  0  0  0  0  0  0
  149.6229  141.2407  154.5757 C   0  0  0  0  0  0  0  0  0  0  0  0
  149.6165  137.7952  153.1354 H   0  0  0  0  0  0  0  0  0  0  0  0
  150.0913  139.4805  153.1076 H   0  0  0  0  0  0  0  0  0  0  0  0
  147.1480  141.8499  155.2219 H   0  0  0  0  0  0  0  0  0  0  0  0
  146.5694  140.2962  155.7305 H   0  0  0  0  0  0  0  0  0  0  0  0
  147.3263  141.5811  157.7003 H   0  0  0  0  0  0  0  0  0  0  0  0
  148.3280  140.1642  157.4905 H   0  0  0  0  0  0  0  0  0  0  0  0
  148.9996  143.0203  156.6766 H   0  0  0  0  0  0  0  0  0  0  0  0
  149.2631  142.4551  158.9703 H   0  0  0  0  0  0  0  0  0  0  0  0
  151.7780  142.8820  157.5425 H   0  0  0  0  0  0  0  0  0  0  0  0
  150.5215  144.9476  157.5794 H   0  0  0  0  0  0  0  0  0  0  0  0
  149.8758  144.5967  159.1782 H   0  0  0  0  0  0  0  0  0  0  0  0
  152.5689  145.6872  158.4934 H   0  0  0  0  0  0  0  0  0  0  0  0
  151.6288  145.8860  159.9635 H   0  0  0  0  0  0  0  0  0  0  0  0
  153.7380  143.9480  159.3616 H   0  0  0  0  0  0  0  0  0  0  0  0
  152.9845  144.2214  160.9229 H   0  0  0  0  0  0  0  0  0  0  0  0
  151.2587  142.6655  160.5313 H   0  0  0  0  0  0  0  0  0  0  0  0
  153.9503  141.7020  161.4117 H   0  0  0  0  0  0  0  0  0  0  0  0
  154.9392  139.2756  160.5195 H   0  0  0  0  0  0  0  0  0  0  0  0
  152.0436  140.6014  157.8323 H   0  0  0  0  0  0  0  0  0  0  0  0
  151.1437  142.1957  155.7751 H   0  0  0  0  0  0  0  0  0  0  0  0
  150.7757  140.5624  156.2737 H   0  0  0  0  0  0  0  0  0  0  0  0
  150.3431  140.8757  153.8418 H   0  0  0  0  0  0  0  0  0  0  0  0
  149.2410  142.1787  154.1701 H   0  0  0  0  0  0  0  0  0  0  0  0
  150.2300  141.1878  158.5932 H   0  0  0  0  0  0  0  0  0  0  0  0
  1  2  1  0  0  0  0
  1 21  1  0  0  0  0
  1 22  1  0  0  0  0
  2  3  2  0  0  0  0
  2  4  1  0  0  0  0
  4 20  1  0  0  0  0
  4  5  1  0  0  0  0
  5  6  1  0  0  0  0
  5 23  1  0  0  0  0
  5 24  1  0  0  0  0
  6  7  1  0  0  0  0
  6 25  1  0  0  0  0
  6 26  1  0  0  0  0
  7  8  1  0  0  0  0
  7 19  1  0  0  0  0
  7 27  1  0  0  0  0
  8  9  1  0  0  0  0
  8 28  1  0  0  0  0
  8 44  1  0  0  0  0
  9 13  1  0  0  0  0
  9 10  1  0  0  0  0
  9 29  1  0  0  0  0
 10 11  1  0  0  0  0
 10 30  1  0  0  0  0
 10 31  1  0  0  0  0
 11 12  1  0  0  0  0
 11 32  1  0  0  0  0
 11 33  1  0  0  0  0
 12 13  1  0  0  0  0
 12 34  1  0  0  0  0
 12 35  1  0  0  0  0
 13 14  1  0  0  0  0
 13 36  1  0  0  0  0
 14 18  1  0  0  0  0
 14 15  1  0  0  0  0
 15 16  2  0  0  0  0
 15 37  1  0  0  0  0
 16 17  1  0  0  0  0
 16 38  1  0  0  0  0
 17 18  2  0  0  0  0
 18 39  1  0  0  0  0
 19 20  1  0  0  0  0
 19 40  1  0  0  0  0
 19 41  1  0  0  0  0
 20 42  1  0  0  0  0
 20 43  1  0  0  0  0
M  CHG  1   8   1
M  END
> <s_m_source_file>
AV-unprocessed.smi

> <i_m_source_file_index>
862

> <i_lp_mmshare_version>
43012

> <i_f3d_flags>
0

> <s_epik_input>
W05IMl1DKD1PKU4xW0NIMl1bQ0gyXVtDSF0oW0NIMl1bQ0gyXTEpW05IXVtDQEBIXTJbQ0gyXVtDSDJdW0NIMl1bQ0BIXTJuM1tjSF1bY0hdbltjSF0z

> <s_epik_cmdline>
J2VwaWtfcHl0aG9uJywgJy1waCcsICc3LjAnLCAnLXRuJywgJzgnLCAnLW1hJywgJzIwMCcsICctbWV0YWxfYmluZGluZycsICctaW1hZScsICc8aW5maWxlLm1hZT4nLCAnLW9tYWUnLCAnPG91dGZpbGUubWFlPic=

> <r_lp_tautomer_probability>
1

> <r_epik_Ionization_Penalty>
0.0731506

> <r_epik_Ionization_Penalty_Charging>
0.0731

> <r_epik_Ionization_Penalty_Neutral>
5.05966e-05

> <r_epik_State_Penalty>
0.128895

> <r_epik_Charging_Adjusted_Penalty>
0.201995

> <i_epik_Tot_Q>
1

> <i_epik_Tot_abs_Q>
1

> <r_epik_Metal_State_Penalty>
0.113934

> <b_epik_Metal_Only>
0

> <s_lp_Force_Field>
OPLS_2005

> <r_lp_Energy>
55.4297

> <b_lp_Chiralities_Consistent>
1

> <s_lp_Variant>
AV-unprocessed.smi:862-4

> <Gold.Version>
5.8.1

> <Gold.Id.Protein>
6NUR|6NUR_protein|mol2

> <Gold.PLP.Fitness>
44.4014

> <Gold.PLP.PLP>
-38.6012

> <Gold.PLP.part.hbond>
-3.0000

> <Gold.PLP.part.metal>
0.0000

> <Gold.PLP.part.buried>
-3.8803

> <Gold.PLP.part.nonpolar>
-32.0753

> <Gold.PLP.part.repulsive>
0.3214

> <Gold.PLP.ligand.clash>
0.5033

> <Gold.PLP.ligand.torsion>
0.4229

> <Gold.PLP.Chemscore.Hbond>
2.3648

> <Gold.PLP.Chemscore.CHOScore>
0.0000

> <Gold.PLP.Chemscore.Metal>
0.0000

> <Gold.Chemscore.Hbonds>
donor molecule, donor type, donor heavy atom, donor atom, acceptor molecule, acceptor atom, score
      L1  H     1    21       P1  7948  0.84
      L1  H     1    22       P1  7957  0.24
      P1  H  7997  8008       L1    17  0.53

> <Gold.PLP.Chemscore.Internal.Correction>
0.0550

> <Gold.Rescore>
     Score         DG    S(hbond)    S(metal)    S(lipo)     H(rot)  DE(clash)    DE(int)     intcor
     18.56     -19.00       2.08        0.00      92.02       1.64       0.24       0.20       ----

> <Gold.Chemscore.Fitness>
18.5631

> <Gold.Chemscore.DG>
-19.0041

> <Gold.Chemscore.ZeroCoef>
-5.4800

> <Gold.Chemscore.Hbond>
2.0834

> <Gold.Chemscore.Metal>
0.0000

> <Gold.Chemscore.Lipo>
92.0248

> <Gold.Chemscore.Internal_Hbond>
0.0000

> <Gold.Chemscore.DEClash>
0.2384

> <Gold.Chemscore.DEInternal>
0.2027

> <Gold.Chemscore.Rot>
1.6411

> <Gold.Chemscore.Internal.Correction>
   9.000000E+99

> <Gold.Chemscore.Hbonds>
donor molecule, donor type, donor heavy atom, donor atom, acceptor molecule, acceptor atom, score
      L1  H     1    21       P1  7948  0.61
      L1  H     1    22       P1  7957  0.22
      P1  H  7997  8008       L1    17  0.06

> <Gold.Chemscore.Hbond.Weighted>
-6.9586

> <Gold.Chemscore.Metal.Weighted>
-0.0000

> <Gold.Chemscore.Lipo.Weighted>
-10.7669

> <Gold.Chemscore.Internal_Hbond.Weighted>
0.0000

> <Gold.Chemscore.DEClash.Weighted>
0.2384

> <Gold.Chemscore.DEInternal.Weighted>
0.2027

> <Gold.Chemscore.Rot.Weighted>
4.2013

> <Gold.Chemscore.Internal.Correction.Weighted>
   9.000000E+99

> <Gold.Protein.RotatedTorsions>
[ 6907 6896 6895 6894 ] final  -14.68 input  -60.11 | X-H torsion
[ 7974 7965 7964 7962 ] final   76.03 input  175.53 | X-H torsion
[ 8008 7997 7996 7995 ] final -112.19 input   59.86 | X-H torsion
[ 10167 10162 10161 10158 ] final   52.01 input  -65.29 | X-H torsion
[ 10718 10713 10712 10709 ] final   75.12 input   66.30 | X-H torsion
[ 10763 10752 10751 10750 ] final   73.85 input  -60.55 | X-H torsion
[ 11005 11000 10999 10996 ] final -109.42 input  -57.11 | X-H torsion

> <Gold.Protein.ActiveResidues>
 VAL166  LYS551  ARG553  GLY616  TRP617  ASP618  TYR619  PRO620  LYS621  CYS622 
 ASP623  PHE694  ASN695  SER759  ASP760  ASP761  ALA762  ILE779  LEU786  VAL792 
 PHE793  MET794  SER795  GLU796  ALA797  LYS798  CYS799  TRP800  GLU811  SER814 

> <Gold.Protein.RotatedAtoms>
  151.3357  135.0852  159.9353 H   0  0  0  0  0  0  0  0  0  0  0  0  # atno 6907 bound_to 6896
  152.5224  133.9498  159.7677 H   0  0  0  0  0  0  0  0  0  0  0  0  # atno 6908 bound_to 6896
  150.9845  133.6158  159.2747 H   0  0  0  0  0  0  0  0  0  0  0  0  # atno 6909 bound_to 6896
  145.7080  139.2605  143.1667 H   0  0  0  0  0  0  0  0  0  0  0  0  # atno 7974 bound_to 7965
  155.0014  140.0394  157.2361 H   0  0  0  0  0  0  0  0  0  0  0  0  # atno 8008 bound_to 7997
  154.7540  140.2772  155.6245 H   0  0  0  0  0  0  0  0  0  0  0  0  # atno 8009 bound_to 7997
  156.2891  140.2641  156.2302 H   0  0  0  0  0  0  0  0  0  0  0  0  # atno 8010 bound_to 7997
  140.2559  144.3428  150.6333 H   0  0  0  0  0  0  0  0  0  0  0  0  # atno 10167 bound_to 10162
  157.6621  130.9711  150.1308 H   0  0  0  0  0  0  0  0  0  0  0  0  # atno 10718 bound_to 10713
  153.0548  135.5047  154.7955 H   0  0  0  0  0  0  0  0  0  0  0  0  # atno 10763 bound_to 10752
  154.6789  135.2965  154.9642 H   0  0  0  0  0  0  0  0  0  0  0  0  # atno 10764 bound_to 10752
  154.0435  135.6713  153.4845 H   0  0  0  0  0  0  0  0  0  0  0  0  # atno 10765 bound_to 10752
  141.0848  133.9157  157.2209 H   0  0  0  0  0  0  0  0  0  0  0  0  # atno 11005 bound_to 11000
  146.0738  140.7840  142.9675 LP  0  0  0  0  0  0  0  0  0  0  0  0  # atno 17320 bound_to 7965
  144.6950  140.3383  143.7204 LP  0  0  0  0  0  0  0  0  0  0  0  0  # atno 17321 bound_to 7965
  140.6004  143.2167  151.7082 LP  0  0  0  0  0  0  0  0  0  0  0  0  # atno 17342 bound_to 10162
  139.5032  144.3801  152.0384 LP  0  0  0  0  0  0  0  0  0  0  0  0  # atno 17343 bound_to 10162
  156.2156  130.3670  149.8618 LP  0  0  0  0  0  0  0  0  0  0  0  0  # atno 17370 bound_to 10713
  156.6485  130.8734  151.3527 LP  0  0  0  0  0  0  0  0  0  0  0  0  # atno 17371 bound_to 10713
  139.9665  135.0140  156.9401 LP  0  0  0  0  0  0  0  0  0  0  0  0  # atno 17394 bound_to 11000
  140.5387  134.0741  155.7335 LP  0  0  0  0  0  0  0  0  0  0  0  0  # atno 17395 bound_to 11000

$$$$
