AV-unprocessed.smi:2126|AV-procd|sdf|8677|dock10
  -GOLD-   2272011433D 1   1.00000     0.00000
 Structure written by MMmdl.
 41 43  0  0  0  0  0  0  0  0  2 V2000
  145.1647  133.0014  162.3665 C   0  0  0  0  0  0  0  0  0  0  0  0
  146.1929  133.6901  163.0627 O   0  0  0  0  0  0  0  0  0  0  0  0
  146.9564  134.5973  162.3601 C   0  0  0  0  0  0  0  0  0  0  0  0
  147.5783  135.7321  162.9363 C   0  0  0  0  0  0  0  0  0  0  0  0
  148.3417  136.6069  162.1395 C   0  0  0  0  0  0  0  0  0  0  0  0
  148.5049  136.3753  160.7594 C   0  0  0  0  0  0  0  0  0  0  0  0
  149.2690  137.2824  160.0572 O   0  0  0  0  0  0  0  0  0  0  0  0
  149.4374  137.0825  158.6598 C   0  0  0  0  0  0  0  0  0  0  0  0
  149.5368  138.4503  157.9683 C   0  0  2  0  0  0  0  0  0  0  0  0
  149.9282  138.2457  156.6251 O   0  0  0  0  0  0  0  0  0  0  0  0
  150.5319  139.3950  158.6718 C   0  0  0  0  0  0  0  0  0  0  0  0
  150.4688  140.7715  158.1599 N   0  0  0  0  0  0  0  0  0  0  0  0
  149.6965  141.2921  157.1681 C   0  0  0  0  0  0  0  0  0  0  0  0
  149.9981  142.6159  157.0626 N   0  3  0  0  0  0  0  0  0  0  0  0
  150.9779  142.9471  158.0008 C   0  0  0  0  0  0  0  0  0  0  0  0
  151.6023  144.1599  158.2754 C   0  0  0  0  0  0  0  0  0  0  0  0
  152.5674  144.1568  159.3039 C   0  0  0  0  0  0  0  0  0  0  0  0
  152.8817  142.9788  160.0121 C   0  0  0  0  0  0  0  0  0  0  0  0
  152.2436  141.7543  159.7240 C   0  0  0  0  0  0  0  0  0  0  0  0
  151.2871  141.7662  158.7089 C   0  0  0  0  0  0  0  0  0  0  0  0
  147.8822  135.2410  160.1834 C   0  0  0  0  0  0  0  0  0  0  0  0
  147.1182  134.3667  160.9798 C   0  0  0  0  0  0  0  0  0  0  0  0
  144.6572  132.3247  163.0536 H   0  0  0  0  0  0  0  0  0  0  0  0
  145.5686  132.4005  161.5505 H   0  0  0  0  0  0  0  0  0  0  0  0
  144.4184  133.6922  161.9721 H   0  0  0  0  0  0  0  0  0  0  0  0
  147.4854  135.9545  163.9884 H   0  0  0  0  0  0  0  0  0  0  0  0
  148.8087  137.4676  162.5953 H   0  0  0  0  0  0  0  0  0  0  0  0
  150.3339  136.4940  158.4572 H   0  0  0  0  0  0  0  0  0  0  0  0
  148.5774  136.5361  158.2683 H   0  0  0  0  0  0  0  0  0  0  0  0
  148.5483  138.9116  157.9523 H   0  0  0  0  0  0  0  0  0  0  0  0
  150.8099  138.5689  156.5171 H   0  0  0  0  0  0  0  0  0  0  0  0
  150.3080  139.4430  159.7382 H   0  0  0  0  0  0  0  0  0  0  0  0
  151.5546  139.0255  158.5937 H   0  0  0  0  0  0  0  0  0  0  0  0
  148.9743  140.7522  156.5726 H   0  0  0  0  0  0  0  0  0  0  0  0
  151.3655  145.0630  157.7322 H   0  0  0  0  0  0  0  0  0  0  0  0
  153.0780  145.0758  159.5532 H   0  0  0  0  0  0  0  0  0  0  0  0
  153.6292  143.0141  160.7915 H   0  0  0  0  0  0  0  0  0  0  0  0
  152.4977  140.8570  160.2684 H   0  0  0  0  0  0  0  0  0  0  0  0
  147.9739  135.0179  159.1314 H   0  0  0  0  0  0  0  0  0  0  0  0
  146.6499  133.5065  160.5241 H   0  0  0  0  0  0  0  0  0  0  0  0
  149.5647  143.2445  156.3983 H   0  0  0  0  0  0  0  0  0  0  0  0
  1  2  1  0  0  0  0
  1 23  1  0  0  0  0
  1 24  1  0  0  0  0
  1 25  1  0  0  0  0
  2  3  1  0  0  0  0
  3 22  1  0  0  0  0
  3  4  2  0  0  0  0
  4  5  1  0  0  0  0
  4 26  1  0  0  0  0
  5  6  2  0  0  0  0
  5 27  1  0  0  0  0
  6  7  1  0  0  0  0
  6 21  1  0  0  0  0
  7  8  1  0  0  0  0
  8  9  1  0  0  0  0
  8 28  1  0  0  0  0
  8 29  1  0  0  0  0
  9 10  1  0  0  0  0
  9 11  1  0  0  0  0
  9 30  1  0  0  0  0
 10 31  1  0  0  0  0
 11 12  1  0  0  0  0
 11 32  1  0  0  0  0
 11 33  1  0  0  0  0
 12 20  1  0  0  0  0
 12 13  1  0  0  0  0
 13 14  2  0  0  0  0
 13 34  1  0  0  0  0
 14 15  1  0  0  0  0
 14 41  1  0  0  0  0
 15 20  2  0  0  0  0
 15 16  1  0  0  0  0
 16 17  2  0  0  0  0
 16 35  1  0  0  0  0
 17 18  1  0  0  0  0
 17 36  1  0  0  0  0
 18 19  2  0  0  0  0
 18 37  1  0  0  0  0
 19 20  1  0  0  0  0
 19 38  1  0  0  0  0
 21 22  2  0  0  0  0
 21 39  1  0  0  0  0
 22 40  1  0  0  0  0
M  CHG  1  14   1
M  END
> <s_m_source_file>
AV-unprocessed.smi

> <i_m_source_file_index>
2126

> <i_lp_mmshare_version>
43012

> <i_f3d_flags>
0

> <s_epik_input>
W0NIM11PYzFbY0hdW2NIXWMoW2NIXVtjSF0xKU9bQ0gyXVtDQEhdKFtPSF0pW0NIMl1uKFtjSF1uMiljKGMyMylbY0hdW2NIXVtjSF1bY0hdMw==

> <s_epik_cmdline>
J2VwaWtfcHl0aG9uJywgJy1waCcsICc3LjAnLCAnLXRuJywgJzgnLCAnLW1hJywgJzIwMCcsICctbWV0YWxfYmluZGluZycsICctaW1hZScsICc8aW5maWxlLm1hZT4nLCAnLW9tYWUnLCAnPG91dGZpbGUubWFlPic=

> <r_lp_tautomer_probability>
1

> <r_epik_Ionization_Penalty>
1.37822

> <r_epik_Ionization_Penalty_Charging>
1.37822

> <r_epik_Ionization_Penalty_Neutral>
2.3993e-06

> <r_epik_State_Penalty>
1.45852

> <r_epik_Charging_Adjusted_Penalty>
2.83674

> <i_epik_Tot_Q>
1

> <i_epik_Tot_abs_Q>
1

> <r_epik_Metal_State_Penalty>
5.4985

> <b_epik_Metal_Only>
0

> <s_lp_Force_Field>
OPLS_2005

> <r_lp_Energy>
23.2038

> <b_lp_Chiralities_Consistent>
1

> <s_lp_Variant>
AV-unprocessed.smi:2126-3

> <Gold.Version>
5.8.1

> <Gold.Id.Protein>
6NUR|6NUR_protein|mol2

> <Gold.PLP.Fitness>
51.6863

> <Gold.PLP.PLP>
-47.0025

> <Gold.PLP.part.hbond>
-3.0000

> <Gold.PLP.part.metal>
0.0000

> <Gold.PLP.part.buried>
-2.6294

> <Gold.PLP.part.nonpolar>
-41.7407

> <Gold.PLP.part.repulsive>
0.0714

> <Gold.PLP.ligand.clash>
0.0000

> <Gold.PLP.ligand.torsion>
0.6925

> <Gold.PLP.Chemscore.Hbond>
2.0000

> <Gold.PLP.Chemscore.CHOScore>
0.0000

> <Gold.PLP.Chemscore.Metal>
0.0000

> <Gold.Chemscore.Hbonds>
donor molecule, donor type, donor heavy atom, donor atom, acceptor molecule, acceptor atom, score
      L1  H    14    41       P1  8028  2.00

> <Gold.PLP.Chemscore.Internal.Correction>
0.0688

> <Gold.Rescore>
     Score         DG    S(hbond)    S(metal)    S(lipo)     H(rot)  DE(clash)    DE(int)     intcor
     15.21     -15.95       0.98        0.00     118.48       2.60       0.09       0.64       ----

> <Gold.Chemscore.Fitness>
15.2148

> <Gold.Chemscore.DG>
-15.9490

> <Gold.Chemscore.ZeroCoef>
-5.4800

> <Gold.Chemscore.Hbond>
0.9801

> <Gold.Chemscore.Metal>
0.0000

> <Gold.Chemscore.Lipo>
118.4829

> <Gold.Chemscore.Internal_Hbond>
0.0000

> <Gold.Chemscore.DEClash>
0.0901

> <Gold.Chemscore.DEInternal>
0.6441

> <Gold.Chemscore.Rot>
2.6043

> <Gold.Chemscore.Internal.Correction>
   9.000000E+99

> <Gold.Chemscore.Hbonds>
donor molecule, donor type, donor heavy atom, donor atom, acceptor molecule, acceptor atom, score
      L1  H    14    41       P1  8028  1.00

> <Gold.Chemscore.Hbond.Weighted>
-3.2736

> <Gold.Chemscore.Metal.Weighted>
-0.0000

> <Gold.Chemscore.Lipo.Weighted>
-13.8625

> <Gold.Chemscore.Internal_Hbond.Weighted>
0.0000

> <Gold.Chemscore.DEClash.Weighted>
0.0901

> <Gold.Chemscore.DEInternal.Weighted>
0.6441

> <Gold.Chemscore.Rot.Weighted>
6.6670

> <Gold.Chemscore.Internal.Correction.Weighted>
   9.000000E+99

> <Gold.Protein.RotatedTorsions>
[ 6907 6896 6895 6894 ] final  114.11 input  -60.11 | X-H torsion
[ 7974 7965 7964 7962 ] final -115.77 input  175.53 | X-H torsion
[ 8008 7997 7996 7995 ] final -160.65 input   59.86 | X-H torsion
[ 10167 10162 10161 10158 ] final   84.63 input  -65.29 | X-H torsion
[ 10718 10713 10712 10709 ] final  138.09 input   66.30 | X-H torsion
[ 10763 10752 10751 10750 ] final  166.07 input  -60.55 | X-H torsion
[ 11005 11000 10999 10996 ] final   12.84 input  -57.11 | X-H torsion

> <Gold.Protein.ActiveResidues>
 VAL166  LYS551  ARG553  GLY616  TRP617  ASP618  TYR619  PRO620  LYS621  CYS622 
 ASP623  PHE694  ASN695  SER759  ASP760  ASP761  ALA762  ILE779  LEU786  VAL792 
 PHE793  MET794  SER795  GLU796  ALA797  LYS798  CYS799  TRP800  GLU811  SER814 

> <Gold.Protein.RotatedAtoms>
  152.4822  133.8282  159.7088 H   0  0  0  0  0  0  0  0  0  0  0  0  # atno 6907 bound_to 6896
  150.8880  133.7272  159.2919 H   0  0  0  0  0  0  0  0  0  0  0  0  # atno 6908 bound_to 6896
  151.4755  135.1052  159.9815 H   0  0  0  0  0  0  0  0  0  0  0  0  # atno 6909 bound_to 6896
  145.1045  140.8573  143.3906 H   0  0  0  0  0  0  0  0  0  0  0  0  # atno 7974 bound_to 7965
  155.7805  140.0864  157.2061 H   0  0  0  0  0  0  0  0  0  0  0  0  # atno 8008 bound_to 7997
  154.3990  140.1508  156.3104 H   0  0  0  0  0  0  0  0  0  0  0  0  # atno 8009 bound_to 7997
  155.8658  140.3428  155.5790 H   0  0  0  0  0  0  0  0  0  0  0  0  # atno 8010 bound_to 7997
  139.9060  144.6300  150.8587 H   0  0  0  0  0  0  0  0  0  0  0  0  # atno 10167 bound_to 10162
  157.4290  131.1046  151.0270 H   0  0  0  0  0  0  0  0  0  0  0  0  # atno 10718 bound_to 10713
  154.3335  135.2754  155.2460 H   0  0  0  0  0  0  0  0  0  0  0  0  # atno 10763 bound_to 10752
  154.4761  135.5870  153.6360 H   0  0  0  0  0  0  0  0  0  0  0  0  # atno 10764 bound_to 10752
  152.9864  135.6100  154.3529 H   0  0  0  0  0  0  0  0  0  0  0  0  # atno 10765 bound_to 10752
  140.4875  134.0874  155.7764 H   0  0  0  0  0  0  0  0  0  0  0  0  # atno 11005 bound_to 11000
  145.0917  139.2885  143.5731 LP  0  0  0  0  0  0  0  0  0  0  0  0  # atno 17320 bound_to 7965
  146.3528  140.0456  142.8639 LP  0  0  0  0  0  0  0  0  0  0  0  0  # atno 17321 bound_to 7965
  140.7696  143.3401  151.2226 LP  0  0  0  0  0  0  0  0  0  0  0  0  # atno 17342 bound_to 10162
  139.6983  143.9575  152.2893 LP  0  0  0  0  0  0  0  0  0  0  0  0  # atno 17343 bound_to 10162
  157.1174  130.6047  149.5496 LP  0  0  0  0  0  0  0  0  0  0  0  0  # atno 17370 bound_to 10713
  155.9906  130.4958  150.7266 LP  0  0  0  0  0  0  0  0  0  0  0  0  # atno 17371 bound_to 10713
  141.1501  133.8985  157.2120 LP  0  0  0  0  0  0  0  0  0  0  0  0  # atno 17394 bound_to 11000
  139.9789  135.0105  156.9701 LP  0  0  0  0  0  0  0  0  0  0  0  0  # atno 17395 bound_to 11000

$$$$
