AV-unprocessed.smi:3258|AV-procd|sdf|12471|dock7
  -GOLD-   2272018373D 1   1.00000     0.00000
 Structure written by MMmdl.
 38 39  0  0  0  0  0  0  0  0  1 V2000
  144.4110  135.8091  152.6455 C   0  0  0  0  0  0  0  0  0  0  0  0
  145.7138  134.9934  152.6360 C   0  0  1  0  0  0  0  0  0  0  0  0
  146.0403  134.3865  151.2491 C   0  0  0  0  0  0  0  0  0  0  0  0
  145.1302  133.3275  150.8428 N   0  0  0  0  0  0  0  0  0  0  0  0
  144.3868  133.2315  149.6850 C   0  0  0  0  0  0  0  0  0  0  0  0
  143.6799  132.0651  149.7508 C   0  0  0  0  0  0  0  0  0  0  0  0
  144.0575  131.5113  151.0060 C   0  0  0  0  0  0  0  0  0  0  0  0
  144.9237  132.2695  151.6576 N   0  0  0  0  0  0  0  0  0  0  0  0
  146.8077  135.8283  153.1285 N   0  0  0  0  0  0  0  0  0  0  0  0
  146.8919  136.3537  154.3583 C   0  0  0  0  0  0  0  0  0  0  0  0
  146.0220  136.2340  155.2214 O   0  0  0  0  0  0  0  0  0  0  0  0
  148.0501  137.0030  154.5401 N   0  0  0  0  0  0  0  0  0  0  0  0
  148.4852  137.6174  155.7899 C   0  0  0  0  0  0  0  0  0  0  0  0
  149.8938  138.2266  155.6609 C   0  0  1  0  0  0  0  0  0  0  0  0
  150.8117  137.4586  154.7322 C   0  0  0  0  0  0  0  0  0  0  0  0
  151.9039  138.4852  154.4461 C   0  0  0  0  0  0  0  0  0  0  0  0
  151.2726  139.7604  154.5250 O   0  0  0  0  0  0  0  0  0  0  0  0
  149.9490  139.6203  155.0320 C   0  0  0  0  0  0  0  0  0  0  0  0
  143.5736  135.2121  152.2837 H   0  0  0  0  0  0  0  0  0  0  0  0
  144.4837  136.6971  152.0170 H   0  0  0  0  0  0  0  0  0  0  0  0
  144.1657  136.1404  153.6552 H   0  0  0  0  0  0  0  0  0  0  0  0
  145.5834  134.1675  153.3375 H   0  0  0  0  0  0  0  0  0  0  0  0
  146.0451  135.1583  150.4779 H   0  0  0  0  0  0  0  0  0  0  0  0
  147.0495  133.9735  151.2627 H   0  0  0  0  0  0  0  0  0  0  0  0
  144.4248  133.9916  148.9185 H   0  0  0  0  0  0  0  0  0  0  0  0
  142.9956  131.6687  149.0157 H   0  0  0  0  0  0  0  0  0  0  0  0
  143.7296  130.5881  151.4602 H   0  0  0  0  0  0  0  0  0  0  0  0
  147.5794  135.9812  152.4958 H   0  0  0  0  0  0  0  0  0  0  0  0
  148.6973  137.0424  153.7662 H   0  0  0  0  0  0  0  0  0  0  0  0
  147.7713  138.4026  156.0396 H   0  0  0  0  0  0  0  0  0  0  0  0
  148.4487  136.9000  156.6117 H   0  0  0  0  0  0  0  0  0  0  0  0
  150.3605  138.2704  156.6467 H   0  0  0  0  0  0  0  0  0  0  0  0
  151.1989  136.5396  155.1732 H   0  0  0  0  0  0  0  0  0  0  0  0
  150.2908  137.2016  153.8087 H   0  0  0  0  0  0  0  0  0  0  0  0
  152.6813  138.4366  155.2096 H   0  0  0  0  0  0  0  0  0  0  0  0
  152.3740  138.3319  153.4745 H   0  0  0  0  0  0  0  0  0  0  0  0
  149.2517  139.6947  154.1962 H   0  0  0  0  0  0  0  0  0  0  0  0
  149.7101  140.4120  155.7427 H   0  0  0  0  0  0  0  0  0  0  0  0
  1  2  1  0  0  0  0
  1 19  1  0  0  0  0
  1 20  1  0  0  0  0
  1 21  1  0  0  0  0
  2  3  1  0  0  0  0
  2  9  1  0  0  0  0
  2 22  1  0  0  0  0
  3  4  1  0  0  0  0
  3 23  1  0  0  0  0
  3 24  1  0  0  0  0
  4  8  1  0  0  0  0
  4  5  1  0  0  0  0
  5  6  2  0  0  0  0
  5 25  1  0  0  0  0
  6  7  1  0  0  0  0
  6 26  1  0  0  0  0
  7  8  2  0  0  0  0
  7 27  1  0  0  0  0
  9 10  1  0  0  0  0
  9 28  1  0  0  0  0
 10 11  2  0  0  0  0
 10 12  1  0  0  0  0
 12 13  1  0  0  0  0
 12 29  1  0  0  0  0
 13 14  1  0  0  0  0
 13 30  1  0  0  0  0
 13 31  1  0  0  0  0
 14 18  1  0  0  0  0
 14 15  1  0  0  0  0
 14 32  1  0  0  0  0
 15 16  1  0  0  0  0
 15 33  1  0  0  0  0
 15 34  1  0  0  0  0
 16 17  1  0  0  0  0
 16 35  1  0  0  0  0
 16 36  1  0  0  0  0
 17 18  1  0  0  0  0
 18 37  1  0  0  0  0
 18 38  1  0  0  0  0
M  END
> <s_m_source_file>
AV-unprocessed.smi

> <i_m_source_file_index>
3258

> <i_lp_mmshare_version>
43012

> <i_f3d_flags>
0

> <s_epik_input>
bjFbY0hdW2NIXVtjSF1uMVtDSDJdW0NAQEhdKFtDSDNdKVtOSF1DKD1PKVtOSF1bQ0gyXVtDQEBIXTJbQ0gyXVtDSDJdT1tDSDJdMg==

> <s_epik_cmdline>
J2VwaWtfcHl0aG9uJywgJy1waCcsICc3LjAnLCAnLXRuJywgJzgnLCAnLW1hJywgJzIwMCcsICctbWV0YWxfYmluZGluZycsICctaW1hZScsICc8aW5maWxlLm1hZT4nLCAnLW9tYWUnLCAnPG91dGZpbGUubWFlPic=

> <r_lp_tautomer_probability>
1

> <r_epik_Ionization_Penalty>
6.85079e-05

> <r_epik_Ionization_Penalty_Charging>
0

> <r_epik_Ionization_Penalty_Neutral>
6.85079e-05

> <r_epik_State_Penalty>
-0

> <r_epik_Charging_Adjusted_Penalty>
0

> <i_epik_Tot_Q>
0

> <i_epik_Tot_abs_Q>
0

> <r_epik_Metal_State_Penalty>
-0

> <b_epik_Metal_Only>
0

> <s_lp_Force_Field>
OPLS_2005

> <r_lp_Energy>
16.3591

> <b_lp_Chiralities_Consistent>
1

> <s_lp_Variant>
AV-unprocessed.smi:3258-4

> <Gold.Version>
5.8.1

> <Gold.Id.Protein>
6NUR|6NUR_protein|mol2

> <Gold.PLP.Fitness>
38.2200

> <Gold.PLP.PLP>
-27.6221

> <Gold.PLP.part.hbond>
-2.9056

> <Gold.PLP.part.metal>
0.0000

> <Gold.PLP.part.buried>
-1.9013

> <Gold.PLP.part.nonpolar>
-23.4948

> <Gold.PLP.part.repulsive>
0.2570

> <Gold.PLP.ligand.clash>
0.0000

> <Gold.PLP.ligand.torsion>
0.3973

> <Gold.PLP.Chemscore.Hbond>
2.7839

> <Gold.PLP.Chemscore.CHOScore>
1.0000

> <Gold.PLP.Chemscore.Metal>
0.0000

> <Gold.Chemscore.Hbonds>
donor molecule, donor type, donor heavy atom, donor atom, acceptor molecule, acceptor atom, score
      L1  H     9    28       P1  7948  0.98
      L1  H    12    29       P1  7948  0.73
      P1  H  7989  7998       L1    17  1.00
      L1  C     5    25       P1  7921  1.00

> <Gold.PLP.Chemscore.Internal.Correction>
0.0410

> <Gold.Rescore>
     Score         DG    S(hbond)    S(metal)    S(lipo)     H(rot)  DE(clash)    DE(int)     intcor
     17.41     -18.02       2.73        0.00      70.21       1.87       0.05       0.55       ----

> <Gold.Chemscore.Fitness>
17.4107

> <Gold.Chemscore.DG>
-18.0168

> <Gold.Chemscore.ZeroCoef>
-5.4800

> <Gold.Chemscore.Hbond>
2.7291

> <Gold.Chemscore.Metal>
0.0000

> <Gold.Chemscore.Lipo>
70.2115

> <Gold.Chemscore.Internal_Hbond>
0.0000

> <Gold.Chemscore.DEClash>
0.0518

> <Gold.Chemscore.DEInternal>
0.5543

> <Gold.Chemscore.Rot>
1.8724

> <Gold.Chemscore.Internal.Correction>
   9.000000E+99

> <Gold.Chemscore.Hbonds>
donor molecule, donor type, donor heavy atom, donor atom, acceptor molecule, acceptor atom, score
      L1  H     9    28       P1  7948  0.92
      L1  H    12    29       P1  7948  0.70
      P1  H  7989  7998       L1    17  0.91

> <Gold.Chemscore.Hbond.Weighted>
-9.1153

> <Gold.Chemscore.Metal.Weighted>
-0.0000

> <Gold.Chemscore.Lipo.Weighted>
-8.2148

> <Gold.Chemscore.Internal_Hbond.Weighted>
0.0000

> <Gold.Chemscore.DEClash.Weighted>
0.0518

> <Gold.Chemscore.DEInternal.Weighted>
0.5543

> <Gold.Chemscore.Rot.Weighted>
4.7933

> <Gold.Chemscore.Internal.Correction.Weighted>
   9.000000E+99

> <Gold.Protein.RotatedTorsions>
[ 6907 6896 6895 6894 ] final  153.48 input  -60.11 | X-H torsion
[ 7974 7965 7964 7962 ] final  132.38 input  175.53 | X-H torsion
[ 8008 7997 7996 7995 ] final  -34.80 input   59.86 | X-H torsion
[ 10167 10162 10161 10158 ] final  -26.73 input  -65.29 | X-H torsion
[ 10718 10713 10712 10709 ] final -122.80 input   66.30 | X-H torsion
[ 10763 10752 10751 10750 ] final -156.13 input  -60.55 | X-H torsion
[ 11005 11000 10999 10996 ] final  108.77 input  -57.11 | X-H torsion

> <Gold.Protein.ActiveResidues>
 VAL166  LYS551  ARG553  GLY616  TRP617  ASP618  TYR619  PRO620  LYS621  CYS622 
 ASP623  PHE694  ASN695  SER759  ASP760  ASP761  ALA762  ILE779  LEU786  VAL792 
 PHE793  MET794  SER795  GLU796  ALA797  LYS798  CYS799  TRP800  GLU811  SER814 

> <Gold.Protein.RotatedAtoms>
  152.0721  133.4111  159.4463 H   0  0  0  0  0  0  0  0  0  0  0  0  # atno 6907 bound_to 6896
  150.6863  134.3079  159.4743 H   0  0  0  0  0  0  0  0  0  0  0  0  # atno 6908 bound_to 6896
  152.0912  134.9405  160.0622 H   0  0  0  0  0  0  0  0  0  0  0  0  # atno 6909 bound_to 6896
  144.9974  139.4345  143.5309 H   0  0  0  0  0  0  0  0  0  0  0  0  # atno 7974 bound_to 7965
  154.4111  140.1674  156.2107 H   0  0  0  0  0  0  0  0  0  0  0  0  # atno 8008 bound_to 7997
  155.9446  140.3405  155.6333 H   0  0  0  0  0  0  0  0  0  0  0  0  # atno 8009 bound_to 7997
  155.6946  140.0738  157.2425 H   0  0  0  0  0  0  0  0  0  0  0  0  # atno 8010 bound_to 7997
  140.7281  143.4153  151.1039 H   0  0  0  0  0  0  0  0  0  0  0  0  # atno 10167 bound_to 10162
  156.1449  130.6492  150.9827 H   0  0  0  0  0  0  0  0  0  0  0  0  # atno 10718 bound_to 10713
  154.7736  135.3152  154.8139 H   0  0  0  0  0  0  0  0  0  0  0  0  # atno 10763 bound_to 10752
  153.8868  135.6829  153.4767 H   0  0  0  0  0  0  0  0  0  0  0  0  # atno 10764 bound_to 10752
  153.1354  135.4762  154.9350 H   0  0  0  0  0  0  0  0  0  0  0  0  # atno 10765 bound_to 10752
  139.8850  134.9440  156.6024 H   0  0  0  0  0  0  0  0  0  0  0  0  # atno 11005 bound_to 11000
  146.3445  139.9342  142.8749 LP  0  0  0  0  0  0  0  0  0  0  0  0  # atno 17320 bound_to 7965
  145.2200  140.9931  143.4051 LP  0  0  0  0  0  0  0  0  0  0  0  0  # atno 17321 bound_to 7965
  139.7792  143.8381  152.3134 LP  0  0  0  0  0  0  0  0  0  0  0  0  # atno 17342 bound_to 10162
  139.8326  144.7247  150.9431 LP  0  0  0  0  0  0  0  0  0  0  0  0  # atno 17343 bound_to 10162
  157.6608  131.0881  150.7843 LP  0  0  0  0  0  0  0  0  0  0  0  0  # atno 17370 bound_to 10713
  156.7916  130.4892  149.5384 LP  0  0  0  0  0  0  0  0  0  0  0  0  # atno 17371 bound_to 10713
  140.7874  133.8610  155.8617 LP  0  0  0  0  0  0  0  0  0  0  0  0  # atno 17394 bound_to 11000
  140.9707  134.1534  157.4578 LP  0  0  0  0  0  0  0  0  0  0  0  0  # atno 17395 bound_to 11000

$$$$
