AV-unprocessed.smi:3322|AV-procd|sdf|12773|dock8
  -GOLD-   2272019113D 1   1.00000     0.00000
 Structure written by MMmdl.
 39 40  0  0  0  0  0  0  0  0  2 V2000
  147.5818  141.9891  155.2387 C   0  0  0  0  0  0  0  0  0  0  0  0
  148.7874  141.3958  155.9870 C   0  0  2  0  0  0  0  0  0  0  0  0
  149.4035  142.4508  156.8270 N   0  3  0  0  0  0  0  0  0  0  0  0
  150.8621  142.3204  157.0307 C   0  0  0  0  0  0  0  0  0  0  0  0
  151.4795  143.6605  157.4541 C   0  0  0  0  0  0  0  0  0  0  0  0
  151.9135  143.6372  158.8374 N   0  0  0  0  0  0  0  0  0  0  0  0
  151.6237  144.5342  159.8441 C   0  0  0  0  0  0  0  0  0  0  0  0
  152.2533  144.0941  160.9730 C   0  0  0  0  0  0  0  0  0  0  0  0
  152.9091  142.9033  160.5524 C   0  0  0  0  0  0  0  0  0  0  0  0
  152.7027  142.6320  159.2735 N   0  0  0  0  0  0  0  0  0  0  0  0
  149.7977  140.7966  154.9836 C   0  0  0  0  0  0  0  0  0  0  0  0
  149.7272  141.1588  153.8075 O   0  0  0  0  0  0  0  0  0  0  0  0
  150.7225  139.8947  155.3996 N   0  0  0  0  0  0  0  0  0  0  0  0
  150.8489  139.3181  156.7436 C   0  0  0  0  0  0  0  0  0  0  0  0
  150.6253  137.7974  156.6495 C   0  0  0  0  0  0  0  0  0  0  0  0
  151.5588  137.2262  155.7375 O   0  0  0  0  0  0  0  0  0  0  0  0
  151.4653  137.7794  154.4282 C   0  0  0  0  0  0  0  0  0  0  0  0
  151.7111  139.2967  154.4949 C   0  0  0  0  0  0  0  0  0  0  0  0
  147.0715  141.2409  154.6322 H   0  0  0  0  0  0  0  0  0  0  0  0
  147.8839  142.8005  154.5749 H   0  0  0  0  0  0  0  0  0  0  0  0
  146.8484  142.3913  155.9380 H   0  0  0  0  0  0  0  0  0  0  0  0
  148.4365  140.6271  156.6747 H   0  0  0  0  0  0  0  0  0  0  0  0
  149.2075  143.3476  156.4051 H   0  0  0  0  0  0  0  0  0  0  0  0
  151.0488  141.5638  157.7941 H   0  0  0  0  0  0  0  0  0  0  0  0
  151.3346  141.9734  156.1110 H   0  0  0  0  0  0  0  0  0  0  0  0
  152.3387  143.8980  156.8252 H   0  0  0  0  0  0  0  0  0  0  0  0
  150.7608  144.4720  157.3300 H   0  0  0  0  0  0  0  0  0  0  0  0
  151.0022  145.4016  159.6765 H   0  0  0  0  0  0  0  0  0  0  0  0
  152.2455  144.5520  161.9510 H   0  0  0  0  0  0  0  0  0  0  0  0
  153.5242  142.2327  161.1341 H   0  0  0  0  0  0  0  0  0  0  0  0
  151.8483  139.5258  157.1292 H   0  0  0  0  0  0  0  0  0  0  0  0
  150.1572  139.7284  157.4749 H   0  0  0  0  0  0  0  0  0  0  0  0
  150.7609  137.3351  157.6273 H   0  0  0  0  0  0  0  0  0  0  0  0
  149.6070  137.5726  156.3286 H   0  0  0  0  0  0  0  0  0  0  0  0
  152.2102  137.3035  153.7898 H   0  0  0  0  0  0  0  0  0  0  0  0
  150.4868  137.5602  153.9978 H   0  0  0  0  0  0  0  0  0  0  0  0
  151.6818  139.7153  153.4882 H   0  0  0  0  0  0  0  0  0  0  0  0
  152.7146  139.4971  154.8736 H   0  0  0  0  0  0  0  0  0  0  0  0
  148.9664  142.4200  157.7369 H   0  0  0  0  0  0  0  0  0  0  0  0
  1  2  1  0  0  0  0
  1 19  1  0  0  0  0
  1 20  1  0  0  0  0
  1 21  1  0  0  0  0
  2  3  1  0  0  0  0
  2 11  1  0  0  0  0
  2 22  1  0  0  0  0
  3  4  1  0  0  0  0
  3 23  1  0  0  0  0
  3 39  1  0  0  0  0
  4  5  1  0  0  0  0
  4 24  1  0  0  0  0
  4 25  1  0  0  0  0
  5  6  1  0  0  0  0
  5 26  1  0  0  0  0
  5 27  1  0  0  0  0
  6 10  1  0  0  0  0
  6  7  1  0  0  0  0
  7  8  2  0  0  0  0
  7 28  1  0  0  0  0
  8  9  1  0  0  0  0
  8 29  1  0  0  0  0
  9 10  2  0  0  0  0
  9 30  1  0  0  0  0
 11 12  2  0  0  0  0
 11 13  1  0  0  0  0
 13 18  1  0  0  0  0
 13 14  1  0  0  0  0
 14 15  1  0  0  0  0
 14 31  1  0  0  0  0
 14 32  1  0  0  0  0
 15 16  1  0  0  0  0
 15 33  1  0  0  0  0
 15 34  1  0  0  0  0
 16 17  1  0  0  0  0
 17 18  1  0  0  0  0
 17 35  1  0  0  0  0
 17 36  1  0  0  0  0
 18 37  1  0  0  0  0
 18 38  1  0  0  0  0
M  CHG  1   3   1
M  END
> <s_m_source_file>
AV-unprocessed.smi

> <i_m_source_file_index>
3322

> <i_lp_mmshare_version>
43012

> <i_f3d_flags>
0

> <s_epik_input>
W0NIMl0xW0NIMl1PW0NIMl1bQ0gyXU4xQyg9TylbQ0BIXShbQ0gzXSlbTkhdW0NIMl1bQ0gyXW4yW2NIXVtjSF1bY0hdbjI=

> <s_epik_cmdline>
J2VwaWtfcHl0aG9uJywgJy1waCcsICc3LjAnLCAnLXRuJywgJzgnLCAnLW1hJywgJzIwMCcsICctbWV0YWxfYmluZGluZycsICctaW1hZScsICc8aW5maWxlLm1hZT4nLCAnLW9tYWUnLCAnPG91dGZpbGUubWFlPic=

> <r_lp_tautomer_probability>
1

> <r_epik_Ionization_Penalty>
0.3254

> <r_epik_Ionization_Penalty_Charging>
0.325398

> <r_epik_Ionization_Penalty_Neutral>
2.29478e-06

> <r_epik_State_Penalty>
0.320187

> <r_epik_Charging_Adjusted_Penalty>
0.645585

> <i_epik_Tot_Q>
1

> <i_epik_Tot_abs_Q>
1

> <r_epik_Metal_State_Penalty>
0.320558

> <b_epik_Metal_Only>
0

> <s_lp_Force_Field>
OPLS_2005

> <r_lp_Energy>
25.684

> <b_lp_Chiralities_Consistent>
1

> <s_lp_Variant>
AV-unprocessed.smi:3322-1

> <Gold.Version>
5.8.1

> <Gold.Id.Protein>
6NUR|6NUR_protein|mol2

> <Gold.PLP.Fitness>
44.1966

> <Gold.PLP.PLP>
-37.3247

> <Gold.PLP.part.hbond>
-2.9077

> <Gold.PLP.part.metal>
0.0000

> <Gold.PLP.part.buried>
-1.6611

> <Gold.PLP.part.nonpolar>
-34.0330

> <Gold.PLP.part.repulsive>
1.9289

> <Gold.PLP.ligand.clash>
0.0000

> <Gold.PLP.ligand.torsion>
1.4319

> <Gold.PLP.Chemscore.Hbond>
3.2299

> <Gold.PLP.Chemscore.CHOScore>
0.0000

> <Gold.PLP.Chemscore.Metal>
0.0000

> <Gold.Chemscore.Hbonds>
donor molecule, donor type, donor heavy atom, donor atom, acceptor molecule, acceptor atom, score
      L1  H     3    23       P1  8028  2.00
      P1  H  7989  7998       L1    12  0.23
      P1  H  8011  8017       L1    12  0.86

> <Gold.PLP.Chemscore.Internal.Correction>
0.0459

> <Gold.Rescore>
     Score         DG    S(hbond)    S(metal)    S(lipo)     H(rot)  DE(clash)    DE(int)     intcor
     12.97     -17.09       1.90        0.00      86.86       1.91       1.47       2.65       ----

> <Gold.Chemscore.Fitness>
12.9716

> <Gold.Chemscore.DG>
-17.0871

> <Gold.Chemscore.ZeroCoef>
-5.4800

> <Gold.Chemscore.Hbond>
1.8960

> <Gold.Chemscore.Metal>
0.0000

> <Gold.Chemscore.Lipo>
86.8606

> <Gold.Chemscore.Internal_Hbond>
0.0000

> <Gold.Chemscore.DEClash>
1.4681

> <Gold.Chemscore.DEInternal>
2.6474

> <Gold.Chemscore.Rot>
1.9095

> <Gold.Chemscore.Internal.Correction>
   9.000000E+99

> <Gold.Chemscore.Hbonds>
donor molecule, donor type, donor heavy atom, donor atom, acceptor molecule, acceptor atom, score
      L1  H     3    23       P1  8028  0.98
      P1  H  7989  7998       L1    12  0.03
      P1  H  8011  8017       L1    12  0.84

> <Gold.Chemscore.Hbond.Weighted>
-6.3328

> <Gold.Chemscore.Metal.Weighted>
-0.0000

> <Gold.Chemscore.Lipo.Weighted>
-10.1627

> <Gold.Chemscore.Internal_Hbond.Weighted>
0.0000

> <Gold.Chemscore.DEClash.Weighted>
1.4681

> <Gold.Chemscore.DEInternal.Weighted>
2.6474

> <Gold.Chemscore.Rot.Weighted>
4.8884

> <Gold.Chemscore.Internal.Correction.Weighted>
   9.000000E+99

> <Gold.Protein.RotatedTorsions>
[ 6907 6896 6895 6894 ] final   61.85 input  -60.11 | X-H torsion
[ 7974 7965 7964 7962 ] final  -20.30 input  175.53 | X-H torsion
[ 8008 7997 7996 7995 ] final  137.89 input   59.86 | X-H torsion
[ 10167 10162 10161 10158 ] final -134.14 input  -65.29 | X-H torsion
[ 10718 10713 10712 10709 ] final   54.47 input   66.30 | X-H torsion
[ 10763 10752 10751 10750 ] final -111.82 input  -60.55 | X-H torsion
[ 11005 11000 10999 10996 ] final   44.79 input  -57.11 | X-H torsion

> <Gold.Protein.ActiveResidues>
 VAL166  LYS551  ARG553  GLY616  TRP617  ASP618  TYR619  PRO620  LYS621  CYS622 
 ASP623  PHE694  ASN695  SER759  ASP760  ASP761  ALA762  ILE779  LEU786  VAL792 
 PHE793  MET794  SER795  GLU796  ALA797  LYS798  CYS799  TRP800  GLU811  SER814 

> <Gold.Protein.RotatedAtoms>
  152.4123  134.6102  160.0023 H   0  0  0  0  0  0  0  0  0  0  0  0  # atno 6907 bound_to 6896
  151.6275  133.3329  159.3109 H   0  0  0  0  0  0  0  0  0  0  0  0  # atno 6908 bound_to 6896
  150.8014  134.7150  159.6670 H   0  0  0  0  0  0  0  0  0  0  0  0  # atno 6909 bound_to 6896
  146.1795  140.4183  142.8500 H   0  0  0  0  0  0  0  0  0  0  0  0  # atno 7974 bound_to 7965
  156.3000  140.2408  156.3984 H   0  0  0  0  0  0  0  0  0  0  0  0  # atno 8008 bound_to 7997
  154.8550  140.0422  157.1648 H   0  0  0  0  0  0  0  0  0  0  0  0  # atno 8009 bound_to 7997
  154.8958  140.2970  155.5349 H   0  0  0  0  0  0  0  0  0  0  0  0  # atno 8010 bound_to 7997
  139.8911  143.6721  152.2612 H   0  0  0  0  0  0  0  0  0  0  0  0  # atno 10167 bound_to 10162
  157.5260  130.8597  149.8622 H   0  0  0  0  0  0  0  0  0  0  0  0  # atno 10718 bound_to 10713
  154.8319  135.4513  154.1099 H   0  0  0  0  0  0  0  0  0  0  0  0  # atno 10763 bound_to 10752
  153.2364  135.6911  153.7838 H   0  0  0  0  0  0  0  0  0  0  0  0  # atno 10764 bound_to 10752
  153.7202  135.3343  155.3241 H   0  0  0  0  0  0  0  0  0  0  0  0  # atno 10765 bound_to 10752
  140.1519  134.4451  155.8376 H   0  0  0  0  0  0  0  0  0  0  0  0  # atno 11005 bound_to 11000
  144.8292  140.6679  143.6302 LP  0  0  0  0  0  0  0  0  0  0  0  0  # atno 17320 bound_to 7965
  145.4115  139.1579  143.4123 LP  0  0  0  0  0  0  0  0  0  0  0  0  # atno 17321 bound_to 7965
  139.7109  144.7620  151.1114 LP  0  0  0  0  0  0  0  0  0  0  0  0  # atno 17342 bound_to 10162
  140.7726  143.5332  150.9399 LP  0  0  0  0  0  0  0  0  0  0  0  0  # atno 17343 bound_to 10162
  156.0387  130.3744  150.1492 LP  0  0  0  0  0  0  0  0  0  0  0  0  # atno 17370 bound_to 10713
  156.9678  130.9825  151.3465 LP  0  0  0  0  0  0  0  0  0  0  0  0  # atno 17371 bound_to 10713
  141.2200  133.6876  156.7437 LP  0  0  0  0  0  0  0  0  0  0  0  0  # atno 17394 bound_to 11000
  140.2594  134.8478  157.3744 LP  0  0  0  0  0  0  0  0  0  0  0  0  # atno 17395 bound_to 11000

$$$$
