AV-unprocessed.smi:2893|AV-procd|sdf|11123|dock1
  -GOLD-   2272015593D 1   1.00000     0.00000
 Structure written by MMmdl.
 37 39  0  0  0  0  0  0  0  0  1 V2000
  154.7830  131.2140  156.8155 C   0  0  0  0  0  0  0  0  0  0  0  0
  153.4085  130.7044  157.2688 C   0  0  0  0  0  0  0  0  0  0  0  0
  152.3734  131.0112  156.2892 N   0  0  0  0  0  0  0  0  0  0  0  0
  151.3205  131.8202  156.4993 C   0  0  0  0  0  0  0  0  0  0  0  0
  151.1082  132.3868  157.5722 O   0  0  0  0  0  0  0  0  0  0  0  0
  150.3659  131.9683  155.3449 C   0  0  0  0  0  0  0  0  0  0  0  0
  149.7406  133.2095  155.0968 C   0  0  0  0  0  0  0  0  0  0  0  0
  148.8691  133.2975  153.9979 C   0  0  0  0  0  0  0  0  0  0  0  0
  148.6841  132.1428  153.2145 C   0  0  0  0  0  0  0  0  0  0  0  0
  147.8199  132.2032  152.1123 N   0  0  0  0  0  0  0  0  0  0  0  0
  146.4834  132.7762  152.2416 C   0  0  1  0  0  0  0  0  0  0  0  0
  146.1806  133.8394  151.1830 C   0  0  0  0  0  0  0  0  0  0  0  0
  144.8639  133.3236  150.5847 C   0  0  1  0  0  0  0  0  0  0  0  0
  145.0974  132.1172  149.6662 C   0  0  0  0  0  0  0  0  0  0  0  0
  145.4249  131.0185  150.6753 C   0  0  0  0  0  0  0  0  0  0  0  0
  145.3332  131.7749  152.0121 C   0  0  2  0  0  0  0  0  0  0  0  0
  144.2867  132.6823  151.7100 O   0  0  0  0  0  0  0  0  0  0  0  0
  149.3150  130.9779  153.5007 N   0  0  0  0  0  0  0  0  0  0  0  0
  150.1448  130.8937  154.5458 N   0  0  0  0  0  0  0  0  0  0  0  0
  155.5524  130.9479  157.5405 H   0  0  0  0  0  0  0  0  0  0  0  0
  154.7898  132.2992  156.7101 H   0  0  0  0  0  0  0  0  0  0  0  0
  155.0668  130.7815  155.8557 H   0  0  0  0  0  0  0  0  0  0  0  0
  153.4430  129.6227  157.3996 H   0  0  0  0  0  0  0  0  0  0  0  0
  153.1482  131.1266  158.2408 H   0  0  0  0  0  0  0  0  0  0  0  0
  152.4597  130.5799  155.3798 H   0  0  0  0  0  0  0  0  0  0  0  0
  149.9169  134.0705  155.7251 H   0  0  0  0  0  0  0  0  0  0  0  0
  148.3638  134.2233  153.7649 H   0  0  0  0  0  0  0  0  0  0  0  0
  148.0077  131.6129  151.3150 H   0  0  0  0  0  0  0  0  0  0  0  0
  146.3789  133.2317  153.2275 H   0  0  0  0  0  0  0  0  0  0  0  0
  146.0394  134.8121  151.6552 H   0  0  0  0  0  0  0  0  0  0  0  0
  146.9595  133.9425  150.4258 H   0  0  0  0  0  0  0  0  0  0  0  0
  144.2428  134.1027  150.1420 H   0  0  0  0  0  0  0  0  0  0  0  0
  144.1920  131.8689  149.1111 H   0  0  0  0  0  0  0  0  0  0  0  0
  145.9016  132.2891  148.9501 H   0  0  0  0  0  0  0  0  0  0  0  0
  144.6742  130.2288  150.6304 H   0  0  0  0  0  0  0  0  0  0  0  0
  146.4005  130.5622  150.5067 H   0  0  0  0  0  0  0  0  0  0  0  0
  145.1281  131.1313  152.8680 H   0  0  0  0  0  0  0  0  0  0  0  0
  1  2  1  0  0  0  0
  1 20  1  0  0  0  0
  1 21  1  0  0  0  0
  1 22  1  0  0  0  0
  2  3  1  0  0  0  0
  2 23  1  0  0  0  0
  2 24  1  0  0  0  0
  3  4  1  0  0  0  0
  3 25  1  0  0  0  0
  4  5  2  0  0  0  0
  4  6  1  0  0  0  0
  6 19  1  0  0  0  0
  6  7  2  0  0  0  0
  7  8  1  0  0  0  0
  7 26  1  0  0  0  0
  8  9  2  0  0  0  0
  8 27  1  0  0  0  0
  9 10  1  0  0  0  0
  9 18  1  0  0  0  0
 10 11  1  0  0  0  0
 10 28  1  0  0  0  0
 11 16  1  0  0  0  0
 11 12  1  0  0  0  0
 11 29  1  0  0  0  0
 12 13  1  0  0  0  0
 12 30  1  0  0  0  0
 12 31  1  0  0  0  0
 13 17  1  0  0  0  0
 13 14  1  0  0  0  0
 13 32  1  0  0  0  0
 14 15  1  0  0  0  0
 14 33  1  0  0  0  0
 14 34  1  0  0  0  0
 15 16  1  0  0  0  0
 15 35  1  0  0  0  0
 15 36  1  0  0  0  0
 16 17  1  0  0  0  0
 16 37  1  0  0  0  0
 18 19  2  0  0  0  0
M  END
> <s_m_source_file>
AV-unprocessed.smi

> <i_m_source_file_index>
2893

> <i_lp_mmshare_version>
43012

> <i_f3d_flags>
0

> <s_epik_input>
W0NIM11bQ0gyXVtOSF1DKD1PKWMxW2NIXVtjSF1jKG5uMSlbTkhdW0NASF0oW0NIMl1bQ0BASF0yMylbQ0BASF0oTzMpW0NIMl1bQ0gyXTI=

> <s_epik_cmdline>
J2VwaWtfcHl0aG9uJywgJy1waCcsICc3LjAnLCAnLXRuJywgJzgnLCAnLW1hJywgJzIwMCcsICctbWV0YWxfYmluZGluZycsICctaW1hZScsICc8aW5maWxlLm1hZT4nLCAnLW9tYWUnLCAnPG91dGZpbGUubWFlPic=

> <r_lp_tautomer_probability>
1

> <r_epik_Ionization_Penalty>
0.00432031

> <r_epik_Ionization_Penalty_Charging>
0

> <r_epik_Ionization_Penalty_Neutral>
0.00432031

> <r_epik_State_Penalty>
-0

> <r_epik_Charging_Adjusted_Penalty>
0

> <i_epik_Tot_Q>
0

> <i_epik_Tot_abs_Q>
0

> <r_epik_Metal_State_Penalty>
-0

> <b_epik_Metal_Only>
0

> <s_lp_Force_Field>
OPLS_2005

> <r_lp_Energy>
51.8171

> <b_lp_Chiralities_Consistent>
1

> <s_lp_Variant>
AV-unprocessed.smi:2893-2

> <Gold.Version>
5.8.1

> <Gold.Id.Protein>
6NUR|6NUR_protein|mol2

> <Gold.PLP.Fitness>
36.2392

> <Gold.PLP.PLP>
-32.2553

> <Gold.PLP.part.hbond>
-2.0000

> <Gold.PLP.part.metal>
0.0000

> <Gold.PLP.part.buried>
-5.9691

> <Gold.PLP.part.nonpolar>
-24.6527

> <Gold.PLP.part.repulsive>
0.3021

> <Gold.PLP.ligand.clash>
0.0000

> <Gold.PLP.ligand.torsion>
1.0058

> <Gold.PLP.Chemscore.Hbond>
1.9920

> <Gold.PLP.Chemscore.CHOScore>
0.0000

> <Gold.PLP.Chemscore.Metal>
0.0000

> <Gold.Chemscore.Hbonds>
donor molecule, donor type, donor heavy atom, donor atom, acceptor molecule, acceptor atom, score
      L1  H    10    28       P1 10747  1.00
      P1  H  6896  6908       L1     5  1.00

> <Gold.PLP.Chemscore.Internal.Correction>
0.0196

> <Gold.Rescore>
     Score         DG    S(hbond)    S(metal)    S(lipo)     H(rot)  DE(clash)    DE(int)     intcor
     16.24     -17.60       1.95        0.00      74.28       1.21       0.04       1.31       ----

> <Gold.Chemscore.Fitness>
16.2421

> <Gold.Chemscore.DG>
-17.5962

> <Gold.Chemscore.ZeroCoef>
-5.4800

> <Gold.Chemscore.Hbond>
1.9499

> <Gold.Chemscore.Metal>
0.0000

> <Gold.Chemscore.Lipo>
74.2826

> <Gold.Chemscore.Internal_Hbond>
0.0000

> <Gold.Chemscore.DEClash>
0.0447

> <Gold.Chemscore.DEInternal>
1.3094

> <Gold.Chemscore.Rot>
1.2061

> <Gold.Chemscore.Internal.Correction>
   9.000000E+99

> <Gold.Chemscore.Hbonds>
donor molecule, donor type, donor heavy atom, donor atom, acceptor molecule, acceptor atom, score
      L1  H    10    28       P1 10747  0.96
      P1  H  6896  6908       L1     5  0.99

> <Gold.Chemscore.Hbond.Weighted>
-6.5128

> <Gold.Chemscore.Metal.Weighted>
-0.0000

> <Gold.Chemscore.Lipo.Weighted>
-8.6911

> <Gold.Chemscore.Internal_Hbond.Weighted>
0.0000

> <Gold.Chemscore.DEClash.Weighted>
0.0447

> <Gold.Chemscore.DEInternal.Weighted>
1.3094

> <Gold.Chemscore.Rot.Weighted>
3.0876

> <Gold.Chemscore.Internal.Correction.Weighted>
   9.000000E+99

> <Gold.Protein.RotatedTorsions>
[ 6907 6896 6895 6894 ] final   89.64 input  -60.11 | X-H torsion
[ 7974 7965 7964 7962 ] final  -18.08 input  175.53 | X-H torsion
[ 8008 7997 7996 7995 ] final  -48.17 input   59.86 | X-H torsion
[ 10167 10162 10161 10158 ] final  129.77 input  -65.29 | X-H torsion
[ 10718 10713 10712 10709 ] final -143.85 input   66.30 | X-H torsion
[ 10763 10752 10751 10750 ] final   67.49 input  -60.55 | X-H torsion
[ 11005 11000 10999 10996 ] final  -71.20 input  -57.11 | X-H torsion

> <Gold.Protein.ActiveResidues>
 VAL166  LYS551  ARG553  GLY616  TRP617  ASP618  TYR619  PRO620  LYS621  CYS622 
 ASP623  PHE694  ASN695  SER759  ASP760  ASP761  ALA762  ILE779  LEU786  VAL792 
 PHE793  MET794  SER795  GLU796  ALA797  LYS798  CYS799  TRP800  GLU811  SER814 

> <Gold.Protein.RotatedAtoms>
  152.5438  134.1934  159.8682 H   0  0  0  0  0  0  0  0  0  0  0  0  # atno 6907 bound_to 6896
  151.1928  133.4650  159.2602 H   0  0  0  0  0  0  0  0  0  0  0  0  # atno 6908 bound_to 6896
  151.1066  135.0015  159.8529 H   0  0  0  0  0  0  0  0  0  0  0  0  # atno 6909 bound_to 6896
  146.1910  140.3870  142.8458 H   0  0  0  0  0  0  0  0  0  0  0  0  # atno 7974 bound_to 7965
  154.4025  140.1328  156.4294 H   0  0  0  0  0  0  0  0  0  0  0  0  # atno 8008 bound_to 7997
  155.7565  140.3487  155.5156 H   0  0  0  0  0  0  0  0  0  0  0  0  # atno 8009 bound_to 7997
  155.8899  140.1001  157.1416 H   0  0  0  0  0  0  0  0  0  0  0  0  # atno 8010 bound_to 7997
  139.5462  144.6775  151.4467 H   0  0  0  0  0  0  0  0  0  0  0  0  # atno 10167 bound_to 10162
  156.3630  130.7748  151.1918 H   0  0  0  0  0  0  0  0  0  0  0  0  # atno 10718 bound_to 10713
  153.0189  135.5282  154.6988 H   0  0  0  0  0  0  0  0  0  0  0  0  # atno 10763 bound_to 10752
  154.6103  135.2877  155.0442 H   0  0  0  0  0  0  0  0  0  0  0  0  # atno 10764 bound_to 10752
  154.1466  135.6569  153.5006 H   0  0  0  0  0  0  0  0  0  0  0  0  # atno 10765 bound_to 10752
  141.1588  133.6811  156.6869 H   0  0  0  0  0  0  0  0  0  0  0  0  # atno 11005 bound_to 11000
  144.8487  140.6968  143.6182 LP  0  0  0  0  0  0  0  0  0  0  0  0  # atno 17320 bound_to 7965
  145.3793  139.1640  143.4289 LP  0  0  0  0  0  0  0  0  0  0  0  0  # atno 17321 bound_to 7965
  140.6710  143.8293  150.7000 LP  0  0  0  0  0  0  0  0  0  0  0  0  # atno 17342 bound_to 10162
  140.1717  143.4189  152.1996 LP  0  0  0  0  0  0  0  0  0  0  0  0  # atno 17343 bound_to 10162
  157.7475  131.0394  150.4551 LP  0  0  0  0  0  0  0  0  0  0  0  0  # atno 17370 bound_to 10713
  156.4765  130.4064  149.6487 LP  0  0  0  0  0  0  0  0  0  0  0  0  # atno 17371 bound_to 10713
  140.3060  134.8125  157.4137 LP  0  0  0  0  0  0  0  0  0  0  0  0  # atno 17394 bound_to 11000
  140.1220  134.5207  155.8176 LP  0  0  0  0  0  0  0  0  0  0  0  0  # atno 17395 bound_to 11000

$$$$
