AV-unprocessed.smi:2131|AV-procd|sdf|8687|dock5
  -GOLD-   2272011443D 1   1.00000     0.00000
 Structure written by MMmdl.
 40 42  0  0  0  0  0  0  0  0  1 V2000
  148.6347  133.0815  152.5882 N   0  0  0  0  0  0  0  0  0  0  0  0
  149.2680  133.4922  153.4652 C   0  0  0  0  0  0  0  0  0  0  0  0
  150.0735  134.0140  154.5797 C   0  0  0  0  0  0  0  0  0  0  0  0
  149.8532  135.4967  154.7960 C   0  0  0  0  0  0  0  0  0  0  0  0
  148.5684  135.9863  155.1014 C   0  0  0  0  0  0  0  0  0  0  0  0
  148.3682  137.3654  155.3042 C   0  0  0  0  0  0  0  0  0  0  0  0
  149.4419  138.2743  155.2050 C   0  0  0  0  0  0  0  0  0  0  0  0
  149.1574  139.6058  155.4221 O   0  0  0  0  0  0  0  0  0  0  0  0
  150.2381  140.5296  155.4429 C   0  0  0  0  0  0  0  0  0  0  0  0
  150.1703  141.3576  156.7347 C   0  0  2  0  0  0  0  0  0  0  0  0
  149.0885  142.2622  156.6278 O   0  0  0  0  0  0  0  0  0  0  0  0
  151.4737  142.1335  157.0077 C   0  0  0  0  0  0  0  0  0  0  0  0
  151.4381  142.8535  158.2687 N   0  0  0  0  0  0  0  0  0  0  0  0
  150.6796  143.9260  158.5659 C   0  0  0  0  0  0  0  0  0  0  0  0
  150.7985  144.4374  159.7877 N   0  0  0  0  0  0  0  0  0  0  0  0
  151.7444  143.5980  160.3510 C   0  0  0  0  0  0  0  0  0  0  0  0
  152.3181  143.5985  161.6428 C   0  0  0  0  0  0  0  0  0  0  0  0
  153.2806  142.6305  161.9974 C   0  0  0  0  0  0  0  0  0  0  0  0
  153.6846  141.6498  161.0681 C   0  0  0  0  0  0  0  0  0  0  0  0
  153.1273  141.6290  159.7751 C   0  0  0  0  0  0  0  0  0  0  0  0
  152.1658  142.5956  159.4257 C   0  0  0  0  0  0  0  0  0  0  0  0
  150.7315  137.7745  154.8922 C   0  0  0  0  0  0  0  0  0  0  0  0
  150.9330  136.3951  154.6908 C   0  0  0  0  0  0  0  0  0  0  0  0
  149.8153  133.4594  155.4823 H   0  0  0  0  0  0  0  0  0  0  0  0
  151.1251  133.8203  154.3660 H   0  0  0  0  0  0  0  0  0  0  0  0
  147.7332  135.3060  155.1813 H   0  0  0  0  0  0  0  0  0  0  0  0
  147.3791  137.7299  155.5397 H   0  0  0  0  0  0  0  0  0  0  0  0
  151.1949  140.0077  155.3843 H   0  0  0  0  0  0  0  0  0  0  0  0
  150.1602  141.1930  154.5795 H   0  0  0  0  0  0  0  0  0  0  0  0
  149.9589  140.6917  157.5724 H   0  0  0  0  0  0  0  0  0  0  0  0
  149.4098  143.0707  156.2586 H   0  0  0  0  0  0  0  0  0  0  0  0
  152.3224  141.4487  157.0331 H   0  0  0  0  0  0  0  0  0  0  0  0
  151.6735  142.8435  156.2042 H   0  0  0  0  0  0  0  0  0  0  0  0
  150.0025  144.3564  157.8423 H   0  0  0  0  0  0  0  0  0  0  0  0
  152.0173  144.3453  162.3627 H   0  0  0  0  0  0  0  0  0  0  0  0
  153.7121  142.6407  162.9876 H   0  0  0  0  0  0  0  0  0  0  0  0
  154.4233  140.9134  161.3486 H   0  0  0  0  0  0  0  0  0  0  0  0
  153.4363  140.8808  159.0603 H   0  0  0  0  0  0  0  0  0  0  0  0
  151.5847  138.4291  154.8007 H   0  0  0  0  0  0  0  0  0  0  0  0
  151.9207  136.0275  154.4542 H   0  0  0  0  0  0  0  0  0  0  0  0
  1  2  3  0  0  0  0
  2  3  1  0  0  0  0
  3  4  1  0  0  0  0
  3 24  1  0  0  0  0
  3 25  1  0  0  0  0
  4 23  1  0  0  0  0
  4  5  2  0  0  0  0
  5  6  1  0  0  0  0
  5 26  1  0  0  0  0
  6  7  2  0  0  0  0
  6 27  1  0  0  0  0
  7  8  1  0  0  0  0
  7 22  1  0  0  0  0
  8  9  1  0  0  0  0
  9 10  1  0  0  0  0
  9 28  1  0  0  0  0
  9 29  1  0  0  0  0
 10 11  1  0  0  0  0
 10 12  1  0  0  0  0
 10 30  1  0  0  0  0
 11 31  1  0  0  0  0
 12 13  1  0  0  0  0
 12 32  1  0  0  0  0
 12 33  1  0  0  0  0
 13 21  1  0  0  0  0
 13 14  1  0  0  0  0
 14 15  2  0  0  0  0
 14 34  1  0  0  0  0
 15 16  1  0  0  0  0
 16 21  2  0  0  0  0
 16 17  1  0  0  0  0
 17 18  2  0  0  0  0
 17 35  1  0  0  0  0
 18 19  1  0  0  0  0
 18 36  1  0  0  0  0
 19 20  2  0  0  0  0
 19 37  1  0  0  0  0
 20 21  1  0  0  0  0
 20 38  1  0  0  0  0
 22 23  2  0  0  0  0
 22 39  1  0  0  0  0
 23 40  1  0  0  0  0
M  END
> <s_m_source_file>
AV-unprocessed.smi

> <i_m_source_file_index>
2131

> <i_lp_mmshare_version>
43012

> <i_f3d_flags>
0

> <s_epik_input>
TiNDW0NIMl1jMVtjSF1bY0hdYyhbY0hdW2NIXTEpT1tDSDJdW0NASF0oW09IXSlbQ0gyXW4oW2NIXW4yKWMoYzIzKVtjSF1bY0hdW2NIXVtjSF0z

> <s_epik_cmdline>
J2VwaWtfcHl0aG9uJywgJy1waCcsICc3LjAnLCAnLXRuJywgJzgnLCAnLW1hJywgJzIwMCcsICctbWV0YWxfYmluZGluZycsICctaW1hZScsICc8aW5maWxlLm1hZT4nLCAnLW9tYWUnLCAnPG91dGZpbGUubWFlPic=

> <r_lp_tautomer_probability>
1

> <r_epik_Ionization_Penalty>
0.0609831

> <r_epik_Ionization_Penalty_Charging>
0

> <r_epik_Ionization_Penalty_Neutral>
0.0609831

> <r_epik_State_Penalty>
0.0529032

> <r_epik_Charging_Adjusted_Penalty>
0.0529032

> <i_epik_Tot_Q>
0

> <i_epik_Tot_abs_Q>
0

> <r_epik_Metal_State_Penalty>
5.53344e-05

> <b_epik_Metal_Only>
0

> <s_lp_Force_Field>
OPLS_2005

> <r_lp_Energy>
15.4123

> <b_lp_Chiralities_Consistent>
1

> <s_lp_Variant>
AV-unprocessed.smi:2131-1

> <Gold.Version>
5.8.1

> <Gold.Id.Protein>
6NUR|6NUR_protein|mol2

> <Gold.PLP.Fitness>
50.0602

> <Gold.PLP.PLP>
-45.5469

> <Gold.PLP.part.hbond>
-1.0000

> <Gold.PLP.part.metal>
0.0000

> <Gold.PLP.part.buried>
-7.3597

> <Gold.PLP.part.nonpolar>
-38.6241

> <Gold.PLP.part.repulsive>
0.3766

> <Gold.PLP.ligand.clash>
0.0000

> <Gold.PLP.ligand.torsion>
0.5565

> <Gold.PLP.Chemscore.Hbond>
0.7520

> <Gold.PLP.Chemscore.CHOScore>
1.0969

> <Gold.PLP.Chemscore.Metal>
0.0000

> <Gold.Chemscore.Hbonds>
donor molecule, donor type, donor heavy atom, donor atom, acceptor molecule, acceptor atom, score
      L1  H    11    31       P1  8028  0.86
      L1  C    14    34       P1  8028  0.90
      L1  C    14    34       P1  8029  0.21

> <Gold.PLP.Chemscore.Internal.Correction>
0.0796

> <Gold.Rescore>
     Score         DG    S(hbond)    S(metal)    S(lipo)     H(rot)  DE(clash)    DE(int)     intcor
     14.34     -15.14       0.95        0.00     114.80       2.72       0.19       0.61       ----

> <Gold.Chemscore.Fitness>
14.3404

> <Gold.Chemscore.DG>
-15.1380

> <Gold.Chemscore.ZeroCoef>
-5.4800

> <Gold.Chemscore.Hbond>
0.9537

> <Gold.Chemscore.Metal>
0.0000

> <Gold.Chemscore.Lipo>
114.7981

> <Gold.Chemscore.Internal_Hbond>
0.0000

> <Gold.Chemscore.DEClash>
0.1869

> <Gold.Chemscore.DEInternal>
0.6106

> <Gold.Chemscore.Rot>
2.7183

> <Gold.Chemscore.Internal.Correction>
   9.000000E+99

> <Gold.Chemscore.Hbonds>
donor molecule, donor type, donor heavy atom, donor atom, acceptor molecule, acceptor atom, score
      L1  H    11    31       P1  8028  0.85

> <Gold.Chemscore.Hbond.Weighted>
-3.1854

> <Gold.Chemscore.Metal.Weighted>
-0.0000

> <Gold.Chemscore.Lipo.Weighted>
-13.4314

> <Gold.Chemscore.Internal_Hbond.Weighted>
0.0000

> <Gold.Chemscore.DEClash.Weighted>
0.1869

> <Gold.Chemscore.DEInternal.Weighted>
0.6106

> <Gold.Chemscore.Rot.Weighted>
6.9588

> <Gold.Chemscore.Internal.Correction.Weighted>
   9.000000E+99

> <Gold.Protein.RotatedTorsions>
[ 6907 6896 6895 6894 ] final -145.24 input  -60.11 | X-H torsion
[ 7974 7965 7964 7962 ] final -131.03 input  175.53 | X-H torsion
[ 8008 7997 7996 7995 ] final    1.13 input   59.86 | X-H torsion
[ 10167 10162 10161 10158 ] final  -62.65 input  -65.29 | X-H torsion
[ 10718 10713 10712 10709 ] final  135.14 input   66.30 | X-H torsion
[ 10763 10752 10751 10750 ] final  -67.03 input  -60.55 | X-H torsion
[ 11005 11000 10999 10996 ] final  140.14 input  -57.11 | X-H torsion

> <Gold.Protein.ActiveResidues>
 VAL166  LYS551  ARG553  GLY616  TRP617  ASP618  TYR619  PRO620  LYS621  CYS622 
 ASP623  PHE694  ASN695  SER759  ASP760  ASP761  ALA762  ILE779  LEU786  VAL792 
 PHE793  MET794  SER795  GLU796  ALA797  LYS798  CYS799  TRP800  GLU811  SER814 

> <Gold.Protein.RotatedAtoms>
  151.1251  133.5076  159.2600 H   0  0  0  0  0  0  0  0  0  0  0  0  # atno 6907 bound_to 6896
  151.1819  135.0364  159.8806 H   0  0  0  0  0  0  0  0  0  0  0  0  # atno 6908 bound_to 6896
  152.5457  134.1102  159.8408 H   0  0  0  0  0  0  0  0  0  0  0  0  # atno 6909 bound_to 6896
  144.9418  140.7247  143.4842 H   0  0  0  0  0  0  0  0  0  0  0  0  # atno 7974 bound_to 7965
  154.6762  140.2622  155.6956 H   0  0  0  0  0  0  0  0  0  0  0  0  # atno 8008 bound_to 7997
  156.2679  140.2819  156.1212 H   0  0  0  0  0  0  0  0  0  0  0  0  # atno 8009 bound_to 7997
  155.1097  140.0375  157.2710 H   0  0  0  0  0  0  0  0  0  0  0  0  # atno 8010 bound_to 7997
  140.5925  143.2344  151.6109 H   0  0  0  0  0  0  0  0  0  0  0  0  # atno 10167 bound_to 10162
  157.4601  131.1073  150.9931 H   0  0  0  0  0  0  0  0  0  0  0  0  # atno 10718 bound_to 10713
  154.3685  135.6100  153.5727 H   0  0  0  0  0  0  0  0  0  0  0  0  # atno 10763 bound_to 10752
  152.9791  135.5832  154.4550 H   0  0  0  0  0  0  0  0  0  0  0  0  # atno 10764 bound_to 10752
  154.4300  135.2847  155.1896 H   0  0  0  0  0  0  0  0  0  0  0  0  # atno 10765 bound_to 10752
  140.0306  134.9354  157.0654 H   0  0  0  0  0  0  0  0  0  0  0  0  # atno 11005 bound_to 11000
  145.2979  139.1860  143.4705 LP  0  0  0  0  0  0  0  0  0  0  0  0  # atno 17320 bound_to 7965
  146.3288  140.2966  142.8618 LP  0  0  0  0  0  0  0  0  0  0  0  0  # atno 17321 bound_to 7965
  139.5236  144.3127  152.0979 LP  0  0  0  0  0  0  0  0  0  0  0  0  # atno 17342 bound_to 10162
  140.2294  144.4384  150.6307 LP  0  0  0  0  0  0  0  0  0  0  0  0  # atno 17343 bound_to 10162
  157.0731  130.5872  149.5406 LP  0  0  0  0  0  0  0  0  0  0  0  0  # atno 17370 bound_to 10713
  156.0024  130.5106  150.7712 LP  0  0  0  0  0  0  0  0  0  0  0  0  # atno 17371 bound_to 10713
  140.4232  134.1858  155.7165 LP  0  0  0  0  0  0  0  0  0  0  0  0  # atno 17394 bound_to 11000
  141.1828  133.8376  157.1195 LP  0  0  0  0  0  0  0  0  0  0  0  0  # atno 17395 bound_to 11000

$$$$
