AV-unprocessed.smi:2445|AV-procd|sdf|9638|dock7
  -GOLD-   2272013273D 1   1.00000     0.00000
 Structure written by MMmdl.
 40 41  0  0  0  0  0  0  0  0  1 V2000
  151.3412  141.7707  158.8015 C   0  0  0  0  0  0  0  0  0  0  0  0
  150.9376  141.1811  157.4929 C   0  0  0  0  0  0  0  0  0  0  0  0
  150.7033  141.8394  156.3112 C   0  0  0  0  0  0  0  0  0  0  0  0
  150.3409  140.9973  155.2581 N   0  0  0  0  0  0  0  0  0  0  0  0
  150.2964  139.7125  155.6211 C   0  0  0  0  0  0  0  0  0  0  0  0
  149.9107  138.6040  154.6876 C   0  0  1  0  0  0  0  0  0  0  0  0
  151.0672  137.6211  154.4559 C   0  0  0  0  0  0  0  0  0  0  0  0
  148.6098  137.8877  155.1138 C   0  0  0  0  0  0  0  0  0  0  0  0
  148.1485  136.9162  154.1259 N   0  0  0  0  0  0  0  0  0  0  0  0
  147.1257  136.0695  154.3027 C   0  0  0  0  0  0  0  0  0  0  0  0
  146.4208  136.0408  155.3116 O   0  0  0  0  0  0  0  0  0  0  0  0
  146.9709  135.2532  153.2513 N   0  0  0  0  0  0  0  0  0  0  0  0
  145.9763  134.1852  153.1485 C   0  0  2  0  0  0  0  0  0  0  0  0
  146.6614  132.8291  152.9886 C   0  0  0  0  0  0  0  0  0  0  0  0
  145.9277  132.1784  151.8214 C   0  0  0  0  0  0  0  0  0  0  0  0
  145.5517  133.2844  151.0203 O   0  0  0  0  0  0  0  0  0  0  0  0
  145.0715  134.2925  151.8982 C   0  0  2  0  0  0  0  0  0  0  0  0
  145.0200  135.6449  151.1698 C   0  0  0  0  0  0  0  0  0  0  0  0
  150.7037  139.4618  157.3167 S   0  0  0  0  0  0  0  0  0  0  0  0
  151.4720  142.8502  158.7230 H   0  0  0  0  0  0  0  0  0  0  0  0
  152.2831  141.3421  159.1441 H   0  0  0  0  0  0  0  0  0  0  0  0
  150.5852  141.5780  159.5628 H   0  0  0  0  0  0  0  0  0  0  0  0
  150.7713  142.9021  156.1304 H   0  0  0  0  0  0  0  0  0  0  0  0
  149.7124  139.0687  153.7202 H   0  0  0  0  0  0  0  0  0  0  0  0
  151.9496  138.1365  154.0756 H   0  0  0  0  0  0  0  0  0  0  0  0
  150.7921  136.8581  153.7271 H   0  0  0  0  0  0  0  0  0  0  0  0
  151.3495  137.1123  155.3779 H   0  0  0  0  0  0  0  0  0  0  0  0
  148.7385  137.4034  156.0831 H   0  0  0  0  0  0  0  0  0  0  0  0
  147.8129  138.6209  155.2409 H   0  0  0  0  0  0  0  0  0  0  0  0
  148.6661  136.8646  153.2606 H   0  0  0  0  0  0  0  0  0  0  0  0
  147.5991  135.3627  152.4688 H   0  0  0  0  0  0  0  0  0  0  0  0
  145.3491  134.1683  154.0419 H   0  0  0  0  0  0  0  0  0  0  0  0
  147.7134  132.9514  152.7253 H   0  0  0  0  0  0  0  0  0  0  0  0
  146.6166  132.2242  153.8947 H   0  0  0  0  0  0  0  0  0  0  0  0
  146.5504  131.4728  151.2714 H   0  0  0  0  0  0  0  0  0  0  0  0
  145.0341  131.6546  152.1652 H   0  0  0  0  0  0  0  0  0  0  0  0
  144.0556  134.0147  152.1849 H   0  0  0  0  0  0  0  0  0  0  0  0
  144.6561  136.4323  151.8300 H   0  0  0  0  0  0  0  0  0  0  0  0
  144.3464  135.5955  150.3143 H   0  0  0  0  0  0  0  0  0  0  0  0
  146.0010  135.9404  150.7969 H   0  0  0  0  0  0  0  0  0  0  0  0
  1  2  1  0  0  0  0
  1 20  1  0  0  0  0
  1 21  1  0  0  0  0
  1 22  1  0  0  0  0
  2 19  1  0  0  0  0
  2  3  2  0  0  0  0
  3  4  1  0  0  0  0
  3 23  1  0  0  0  0
  4  5  2  0  0  0  0
  5  6  1  0  0  0  0
  5 19  1  0  0  0  0
  6  7  1  0  0  0  0
  6  8  1  0  0  0  0
  6 24  1  0  0  0  0
  7 25  1  0  0  0  0
  7 26  1  0  0  0  0
  7 27  1  0  0  0  0
  8  9  1  0  0  0  0
  8 28  1  0  0  0  0
  8 29  1  0  0  0  0
  9 10  1  0  0  0  0
  9 30  1  0  0  0  0
 10 11  2  0  0  0  0
 10 12  1  0  0  0  0
 12 13  1  0  0  0  0
 12 31  1  0  0  0  0
 13 17  1  0  0  0  0
 13 14  1  0  0  0  0
 13 32  1  0  0  0  0
 14 15  1  0  0  0  0
 14 33  1  0  0  0  0
 14 34  1  0  0  0  0
 15 16  1  0  0  0  0
 15 35  1  0  0  0  0
 15 36  1  0  0  0  0
 16 17  1  0  0  0  0
 17 18  1  0  0  0  0
 17 37  1  0  0  0  0
 18 38  1  0  0  0  0
 18 39  1  0  0  0  0
 18 40  1  0  0  0  0
M  END
> <s_m_source_file>
AV-unprocessed.smi

> <i_m_source_file_index>
2445

> <i_lp_mmshare_version>
43012

> <i_f3d_flags>
0

> <s_epik_input>
W0NIM11jMVtjSF1uYyhzMSlbQ0BIXShbQ0gzXSlbQ0gyXVtOSF1DKD1PKVtOSF1bQ0BASF0yW0NIMl1bQ0gyXU9bQ0BIXTJbQ0gzXQ==

> <s_epik_cmdline>
J2VwaWtfcHl0aG9uJywgJy1waCcsICc3LjAnLCAnLXRuJywgJzgnLCAnLW1hJywgJzIwMCcsICctbWV0YWxfYmluZGluZycsICctaW1hZScsICc8aW5maWxlLm1hZT4nLCAnLW9tYWUnLCAnPG91dGZpbGUubWFlPic=

> <r_epik_Ionization_Penalty>
0.000649483

> <r_epik_Ionization_Penalty_Charging>
0

> <r_epik_Ionization_Penalty_Neutral>
0.000649483

> <r_epik_State_Penalty>
0.000379895

> <r_epik_Charging_Adjusted_Penalty>
0.000379895

> <i_epik_Tot_Q>
0

> <i_epik_Tot_abs_Q>
0

> <r_epik_Metal_State_Penalty>
-0

> <b_epik_Metal_Only>
0

> <s_lp_Force_Field>
OPLS_2005

> <r_lp_Energy>
6.13351

> <b_lp_Chiralities_Consistent>
1

> <s_lp_Variant>
AV-unprocessed.smi:2445-6

> <Gold.Version>
5.8.1

> <Gold.Id.Protein>
6NUR|6NUR_protein|mol2

> <Gold.PLP.Fitness>
37.6120

> <Gold.PLP.PLP>
-27.1770

> <Gold.PLP.part.hbond>
-2.8158

> <Gold.PLP.part.metal>
0.0000

> <Gold.PLP.part.buried>
-3.4791

> <Gold.PLP.part.nonpolar>
-21.5694

> <Gold.PLP.part.repulsive>
0.2615

> <Gold.PLP.ligand.clash>
0.0000

> <Gold.PLP.ligand.torsion>
0.0779

> <Gold.PLP.Chemscore.Hbond>
2.5068

> <Gold.PLP.Chemscore.CHOScore>
0.9944

> <Gold.PLP.Chemscore.Metal>
0.0000

> <Gold.Chemscore.Hbonds>
donor molecule, donor type, donor heavy atom, donor atom, acceptor molecule, acceptor atom, score
      L1  H     9    30       P1  7948  1.00
      L1  H    12    31       P1  7948  0.93
      P1  H  7989  7998       L1     4  0.46
      L1  C     3    23       P1  8028  0.69

> <Gold.PLP.Chemscore.Internal.Correction>
0.0873

> <Gold.Rescore>
     Score         DG    S(hbond)    S(metal)    S(lipo)     H(rot)  DE(clash)    DE(int)     intcor
     18.13     -18.40       2.73        0.00      66.18       1.53       0.08       0.20       ----

> <Gold.Chemscore.Fitness>
18.1307

> <Gold.Chemscore.DG>
-18.4033

> <Gold.Chemscore.ZeroCoef>
-5.4800

> <Gold.Chemscore.Hbond>
2.7258

> <Gold.Chemscore.Metal>
0.0000

> <Gold.Chemscore.Lipo>
66.1757

> <Gold.Chemscore.Internal_Hbond>
0.0000

> <Gold.Chemscore.DEClash>
0.0775

> <Gold.Chemscore.DEInternal>
0.1950

> <Gold.Chemscore.Rot>
1.5325

> <Gold.Chemscore.Internal.Correction>
   9.000000E+99

> <Gold.Chemscore.Hbonds>
donor molecule, donor type, donor heavy atom, donor atom, acceptor molecule, acceptor atom, score
      L1  H     9    30       P1  7948  0.92
      L1  H    12    31       P1  7948  0.91
      P1  H  7989  7998       L1     4  0.14

> <Gold.Chemscore.Hbond.Weighted>
-9.1040

> <Gold.Chemscore.Metal.Weighted>
-0.0000

> <Gold.Chemscore.Lipo.Weighted>
-7.7426

> <Gold.Chemscore.Internal_Hbond.Weighted>
0.0000

> <Gold.Chemscore.DEClash.Weighted>
0.0775

> <Gold.Chemscore.DEInternal.Weighted>
0.1950

> <Gold.Chemscore.Rot.Weighted>
3.9233

> <Gold.Chemscore.Internal.Correction.Weighted>
   9.000000E+99

> <Gold.Protein.RotatedTorsions>
[ 6907 6896 6895 6894 ] final   95.63 input  -60.11 | X-H torsion
[ 7974 7965 7964 7962 ] final   94.78 input  175.53 | X-H torsion
[ 8008 7997 7996 7995 ] final  -90.21 input   59.86 | X-H torsion
[ 10167 10162 10161 10158 ] final  -61.85 input  -65.29 | X-H torsion
[ 10718 10713 10712 10709 ] final   13.37 input   66.30 | X-H torsion
[ 10763 10752 10751 10750 ] final -151.23 input  -60.55 | X-H torsion
[ 11005 11000 10999 10996 ] final   -1.41 input  -57.11 | X-H torsion

> <Gold.Protein.ActiveResidues>
 VAL166  LYS551  ARG553  GLY616  TRP617  ASP618  TYR619  PRO620  LYS621  CYS622 
 ASP623  PHE694  ASN695  SER759  ASP760  ASP761  ALA762  ILE779  LEU786  VAL792 
 PHE793  MET794  SER795  GLU796  ALA797  LYS798  CYS799  TRP800  GLU811  SER814 

> <Gold.Protein.RotatedAtoms>
  152.5442  134.1010  159.8317 H   0  0  0  0  0  0  0  0  0  0  0  0  # atno 6907 bound_to 6896
  151.1088  133.5181  159.2614 H   0  0  0  0  0  0  0  0  0  0  0  0  # atno 6908 bound_to 6896
  151.1908  135.0411  159.8886 H   0  0  0  0  0  0  0  0  0  0  0  0  # atno 6909 bound_to 6896
  145.4609  139.2287  143.2988 H   0  0  0  0  0  0  0  0  0  0  0  0  # atno 7974 bound_to 7965
  154.6958  140.0533  157.0409 H   0  0  0  0  0  0  0  0  0  0  0  0  # atno 8008 bound_to 7997
  155.0753  140.3204  155.4599 H   0  0  0  0  0  0  0  0  0  0  0  0  # atno 8009 bound_to 7997
  156.2744  140.2074  156.5880 H   0  0  0  0  0  0  0  0  0  0  0  0  # atno 8010 bound_to 7997
  140.5978  143.2354  151.5996 H   0  0  0  0  0  0  0  0  0  0  0  0  # atno 10167 bound_to 10162
  157.0236  130.6164  149.5724 H   0  0  0  0  0  0  0  0  0  0  0  0  # atno 10718 bound_to 10713
  154.8070  135.3265  154.7404 H   0  0  0  0  0  0  0  0  0  0  0  0  # atno 10763 bound_to 10752
  153.8060  135.6899  153.4852 H   0  0  0  0  0  0  0  0  0  0  0  0  # atno 10764 bound_to 10752
  153.1823  135.4582  154.9989 H   0  0  0  0  0  0  0  0  0  0  0  0  # atno 10765 bound_to 10752
  140.6471  133.9438  155.8358 H   0  0  0  0  0  0  0  0  0  0  0  0  # atno 11005 bound_to 11000
  146.2451  140.5378  142.8917 LP  0  0  0  0  0  0  0  0  0  0  0  0  # atno 17320 bound_to 7965
  144.8003  140.6201  143.6482 LP  0  0  0  0  0  0  0  0  0  0  0  0  # atno 17321 bound_to 7965
  139.5270  144.3029  152.1058 LP  0  0  0  0  0  0  0  0  0  0  0  0  # atno 17342 bound_to 10162
  140.2204  144.4472  150.6344 LP  0  0  0  0  0  0  0  0  0  0  0  0  # atno 17343 bound_to 10162
  156.0094  130.5184  150.7937 LP  0  0  0  0  0  0  0  0  0  0  0  0  # atno 17370 bound_to 10713
  157.5231  131.0932  151.0053 LP  0  0  0  0  0  0  0  0  0  0  0  0  # atno 17371 bound_to 10713
  141.0564  134.0410  157.3716 LP  0  0  0  0  0  0  0  0  0  0  0  0  # atno 17394 bound_to 11000
  139.9059  135.0179  156.7483 LP  0  0  0  0  0  0  0  0  0  0  0  0  # atno 17395 bound_to 11000

$$$$
