AV-unprocessed.smi:468|AV-procd|sdf|2652|dock10
  -GOLD-   2262023 63D 1   1.00000     0.00000
 Structure written by MMmdl.
 49 50  0  0  0  0  0  0  0  0  2 V2000
  151.4295  137.6885  154.5103 C   0  0  0  0  0  0  0  0  0  0  0  0
  150.2057  137.3921  155.1574 O   0  0  0  0  0  0  0  0  0  0  0  0
  150.2250  136.1389  155.8197 C   0  0  0  0  0  0  0  0  0  0  0  0
  148.8265  135.8370  156.3827 C   0  0  0  0  0  0  0  0  0  0  0  0
  148.8688  134.9541  157.5603 N   0  0  0  0  0  0  0  0  0  0  0  0
  149.4344  133.7199  157.4885 C   0  0  0  0  0  0  0  0  0  0  0  0
  149.5657  133.0085  158.4865 O   0  0  0  0  0  0  0  0  0  0  0  0
  149.8851  133.1711  156.1147 C   0  0  0  0  0  0  0  0  0  0  0  0
  149.3325  131.7839  155.7263 C   0  0  0  0  0  0  0  0  0  0  0  0
  150.7357  131.4101  155.2412 C   0  0  0  0  0  0  0  0  0  0  0  0
  151.2842  132.5331  156.1251 C   0  0  0  0  0  0  0  0  0  0  0  0
  148.3418  135.4693  158.7594 C   0  0  0  0  0  0  0  0  0  0  0  0
  147.0930  135.1616  159.2017 C   0  0  0  0  0  0  0  0  0  0  0  0
  146.2649  134.3192  158.4735 N   0  0  0  0  0  0  0  0  0  0  0  0
  146.6155  135.7106  160.4223 N   0  0  0  0  0  0  0  0  0  0  0  0
  145.2456  135.3666  160.8701 C   0  0  0  0  0  0  0  0  0  0  0  0
  145.2012  134.7525  162.2911 C   0  0  0  0  0  0  0  0  0  0  0  0
  146.1404  133.5459  162.4576 C   0  0  0  0  0  0  0  0  0  0  0  0
  143.7622  134.3685  162.6655 C   0  0  0  0  0  0  0  0  0  0  0  0
  147.4058  136.5435  161.1690 C   0  0  0  0  0  0  0  0  0  0  0  0
  146.9672  137.0127  162.2199 O   0  0  0  0  0  0  0  0  0  0  0  0
  148.6615  136.8394  160.7268 N   0  5  0  0  0  0  0  0  0  0  0  0
  149.1840  136.3555  159.5694 C   0  0  0  0  0  0  0  0  0  0  0  0
  150.3247  136.6330  159.1980 O   0  0  0  0  0  0  0  0  0  0  0  0
  151.3575  138.6608  154.0229 H   0  0  0  0  0  0  0  0  0  0  0  0
  151.6606  136.9457  153.7458 H   0  0  0  0  0  0  0  0  0  0  0  0
  152.2538  137.7278  155.2233 H   0  0  0  0  0  0  0  0  0  0  0  0
  150.5529  135.3472  155.1444 H   0  0  0  0  0  0  0  0  0  0  0  0
  150.9433  136.1827  156.6396 H   0  0  0  0  0  0  0  0  0  0  0  0
  148.3290  136.7722  156.6453 H   0  0  0  0  0  0  0  0  0  0  0  0
  148.2084  135.3995  155.5970 H   0  0  0  0  0  0  0  0  0  0  0  0
  149.7566  133.8717  155.2881 H   0  0  0  0  0  0  0  0  0  0  0  0
  149.0069  131.1607  156.5604 H   0  0  0  0  0  0  0  0  0  0  0  0
  148.5834  131.8056  154.9345 H   0  0  0  0  0  0  0  0  0  0  0  0
  151.0637  130.4085  155.5208 H   0  0  0  0  0  0  0  0  0  0  0  0
  150.8796  131.6031  154.1769 H   0  0  0  0  0  0  0  0  0  0  0  0
  152.0568  133.1359  155.6469 H   0  0  0  0  0  0  0  0  0  0  0  0
  151.6012  132.1836  157.1094 H   0  0  0  0  0  0  0  0  0  0  0  0
  146.5701  133.9157  157.5995 H   0  0  0  0  0  0  0  0  0  0  0  0
  145.2727  134.2810  158.6568 H   0  0  0  0  0  0  0  0  0  0  0  0
  144.6209  136.2598  160.8338 H   0  0  0  0  0  0  0  0  0  0  0  0
  144.7485  134.6900  160.1737 H   0  0  0  0  0  0  0  0  0  0  0  0
  145.5233  135.5104  163.0054 H   0  0  0  0  0  0  0  0  0  0  0  0
  145.9066  132.7599  161.7390 H   0  0  0  0  0  0  0  0  0  0  0  0
  146.0579  133.1188  163.4573 H   0  0  0  0  0  0  0  0  0  0  0  0
  147.1836  133.8289  162.3162 H   0  0  0  0  0  0  0  0  0  0  0  0
  143.3726  133.5972  162.0001 H   0  0  0  0  0  0  0  0  0  0  0  0
  143.0966  135.2299  162.6031 H   0  0  0  0  0  0  0  0  0  0  0  0
  143.7088  133.9868  163.6854 H   0  0  0  0  0  0  0  0  0  0  0  0
  1  2  1  0  0  0  0
  1 25  1  0  0  0  0
  1 26  1  0  0  0  0
  1 27  1  0  0  0  0
  2  3  1  0  0  0  0
  3  4  1  0  0  0  0
  3 28  1  0  0  0  0
  3 29  1  0  0  0  0
  4  5  1  0  0  0  0
  4 30  1  0  0  0  0
  4 31  1  0  0  0  0
  5  6  1  0  0  0  0
  5 12  1  0  0  0  0
  6  7  2  0  0  0  0
  6  8  1  0  0  0  0
  8 11  1  0  0  0  0
  8  9  1  0  0  0  0
  8 32  1  0  0  0  0
  9 10  1  0  0  0  0
  9 33  1  0  0  0  0
  9 34  1  0  0  0  0
 10 11  1  0  0  0  0
 10 35  1  0  0  0  0
 10 36  1  0  0  0  0
 11 37  1  0  0  0  0
 11 38  1  0  0  0  0
 12 23  1  0  0  0  0
 12 13  2  0  0  0  0
 13 14  1  0  0  0  0
 13 15  1  0  0  0  0
 14 39  1  0  0  0  0
 14 40  1  0  0  0  0
 15 16  1  0  0  0  0
 15 20  1  0  0  0  0
 16 17  1  0  0  0  0
 16 41  1  0  0  0  0
 16 42  1  0  0  0  0
 17 18  1  0  0  0  0
 17 19  1  0  0  0  0
 17 43  1  0  0  0  0
 18 44  1  0  0  0  0
 18 45  1  0  0  0  0
 18 46  1  0  0  0  0
 19 47  1  0  0  0  0
 19 48  1  0  0  0  0
 19 49  1  0  0  0  0
 20 21  2  0  0  0  0
 20 22  1  0  0  0  0
 22 23  1  0  0  0  0
 23 24  2  0  0  0  0
M  CHG  1  22  -1
M  END
> <s_m_source_file>
AV-unprocessed.smi

> <i_m_source_file_index>
468

> <i_lp_mmshare_version>
43012

> <i_f3d_flags>
0

> <s_epik_input>
W0NIMl0xW0NIMl1bQ0gyXVtDSF0xQyg9TylOKFtDSDJdW0NIMl1PW0NIM10pYzJjKFtOSDJdKW4oW0NIMl1bQ0hdKFtDSDNdKVtDSDNdKWMoPU8pW25IXWMyPU8=

> <s_epik_cmdline>
J2VwaWtfcHl0aG9uJywgJy1waCcsICc3LjAnLCAnLXRuJywgJzgnLCAnLW1hJywgJzIwMCcsICctbWV0YWxfYmluZGluZycsICctaW1hZScsICc8aW5maWxlLm1hZT4nLCAnLW9tYWUnLCAnPG91dGZpbGUubWFlPic=

> <r_lp_tautomer_probability>
1

> <r_epik_Ionization_Penalty>
5.91772

> <r_epik_Ionization_Penalty_Charging>
1.97379e-07

> <r_epik_Ionization_Penalty_Neutral>
5.91772

> <r_epik_State_Penalty>
5.91769

> <r_epik_Charging_Adjusted_Penalty>
5.91769

> <i_epik_Tot_Q>
-1

> <i_epik_Tot_abs_Q>
1

> <r_epik_Metal_State_Penalty>
1.85156

> <b_epik_Metal_Only>
1

> <s_lp_Force_Field>
OPLS_2005

> <r_lp_Energy>
46.8311

> <b_lp_Chiralities_Consistent>
1

> <s_lp_Variant>
AV-unprocessed.smi:468-2

> <Gold.Version>
5.8.1

> <Gold.Id.Protein>
6NUR|6NUR_protein|mol2

> <Gold.PLP.Fitness>
40.2276

> <Gold.PLP.PLP>
-29.7077

> <Gold.PLP.part.hbond>
-3.7551

> <Gold.PLP.part.metal>
0.0000

> <Gold.PLP.part.buried>
-4.6789

> <Gold.PLP.part.nonpolar>
-22.9024

> <Gold.PLP.part.repulsive>
0.1329

> <Gold.PLP.ligand.clash>
0.0000

> <Gold.PLP.ligand.torsion>
1.8894

> <Gold.PLP.Chemscore.Hbond>
3.8560

> <Gold.PLP.Chemscore.CHOScore>
0.0000

> <Gold.PLP.Chemscore.Metal>
0.0000

> <Gold.Chemscore.Hbonds>
donor molecule, donor type, donor heavy atom, donor atom, acceptor molecule, acceptor atom, score
      P1  H  6896  6907       L1    24  1.00
      P1  H  6896  6909       L1     7  1.00
      P1  H  6931  6943       L1    22  1.76

> <Gold.PLP.Chemscore.Internal.Correction>
2.7309

> <Gold.Rescore>
     Score         DG    S(hbond)    S(metal)    S(lipo)     H(rot)  DE(clash)    DE(int)     intcor
     11.67     -14.77       2.33        0.00      57.45       2.04       0.00       3.10       ----

> <Gold.Chemscore.Fitness>
11.6662

> <Gold.Chemscore.DG>
-14.7722

> <Gold.Chemscore.ZeroCoef>
-5.4800

> <Gold.Chemscore.Hbond>
2.3303

> <Gold.Chemscore.Metal>
0.0000

> <Gold.Chemscore.Lipo>
57.4509

> <Gold.Chemscore.Internal_Hbond>
0.0000

> <Gold.Chemscore.DEClash>
0.0029

> <Gold.Chemscore.DEInternal>
3.1031

> <Gold.Chemscore.Rot>
2.0362

> <Gold.Chemscore.Internal.Correction>
   9.000000E+99

> <Gold.Chemscore.Hbonds>
donor molecule, donor type, donor heavy atom, donor atom, acceptor molecule, acceptor atom, score
      P1  H  6896  6907       L1    24  0.24
      P1  H  6896  6909       L1     7  0.49
      P1  H  6931  6943       L1    22  0.20

> <Gold.Chemscore.Hbond.Weighted>
-7.7831

> <Gold.Chemscore.Metal.Weighted>
-0.0000

> <Gold.Chemscore.Lipo.Weighted>
-6.7218

> <Gold.Chemscore.Internal_Hbond.Weighted>
0.0000

> <Gold.Chemscore.DEClash.Weighted>
0.0029

> <Gold.Chemscore.DEInternal.Weighted>
3.1031

> <Gold.Chemscore.Rot.Weighted>
5.2126

> <Gold.Chemscore.Internal.Correction.Weighted>
   9.000000E+99

> <Gold.Protein.RotatedTorsions>
[ 6907 6896 6895 6894 ] final  -14.91 input  -60.11 | X-H torsion
[ 7974 7965 7964 7962 ] final   24.26 input  175.53 | X-H torsion
[ 8008 7997 7996 7995 ] final -129.87 input   59.86 | X-H torsion
[ 10167 10162 10161 10158 ] final  -92.37 input  -65.29 | X-H torsion
[ 10718 10713 10712 10709 ] final   18.59 input   66.30 | X-H torsion
[ 10763 10752 10751 10750 ] final  -47.92 input  -60.55 | X-H torsion
[ 11005 11000 10999 10996 ] final  -51.59 input  -57.11 | X-H torsion

> <Gold.Protein.ActiveResidues>
 VAL166  LYS551  ARG553  GLY616  TRP617  ASP618  TYR619  PRO620  LYS621  CYS622 
 ASP623  PHE694  ASN695  SER759  ASP760  ASP761  ALA762  ILE779  LEU786  VAL792 
 PHE793  MET794  SER795  GLU796  ALA797  LYS798  CYS799  TRP800  GLU811  SER814 

> <Gold.Protein.RotatedAtoms>
  151.3321  135.0844  159.9341 H   0  0  0  0  0  0  0  0  0  0  0  0  # atno 6907 bound_to 6896
  152.5232  133.9532  159.7692 H   0  0  0  0  0  0  0  0  0  0  0  0  # atno 6908 bound_to 6896
  150.9873  133.6132  159.2743 H   0  0  0  0  0  0  0  0  0  0  0  0  # atno 6909 bound_to 6896
  146.1946  139.7630  142.8807 H   0  0  0  0  0  0  0  0  0  0  0  0  # atno 7974 bound_to 7965
  155.2863  140.0446  157.3019 H   0  0  0  0  0  0  0  0  0  0  0  0  # atno 8008 bound_to 7997
  154.5567  140.2334  155.8367 H   0  0  0  0  0  0  0  0  0  0  0  0  # atno 8009 bound_to 7997
  156.2013  140.3025  155.9540 H   0  0  0  0  0  0  0  0  0  0  0  0  # atno 8010 bound_to 7997
  140.3354  143.2971  151.9895 H   0  0  0  0  0  0  0  0  0  0  0  0  # atno 10167 bound_to 10162
  157.0985  130.6458  149.5866 H   0  0  0  0  0  0  0  0  0  0  0  0  # atno 10718 bound_to 10713
  154.0693  135.6607  153.4822 H   0  0  0  0  0  0  0  0  0  0  0  0  # atno 10763 bound_to 10752
  153.0397  135.5153  154.7583 H   0  0  0  0  0  0  0  0  0  0  0  0  # atno 10764 bound_to 10752
  154.6643  135.3020  154.9793 H   0  0  0  0  0  0  0  0  0  0  0  0  # atno 10765 bound_to 10752
  141.0879  133.6638  156.3899 H   0  0  0  0  0  0  0  0  0  0  0  0  # atno 11005 bound_to 11000
  145.3684  141.0338  143.3245 LP  0  0  0  0  0  0  0  0  0  0  0  0  # atno 17320 bound_to 7965
  144.8554  139.5257  143.6837 LP  0  0  0  0  0  0  0  0  0  0  0  0  # atno 17321 bound_to 7965
  139.4849  144.6200  151.7273 LP  0  0  0  0  0  0  0  0  0  0  0  0  # atno 17342 bound_to 10162
  140.5358  144.0658  150.6070 LP  0  0  0  0  0  0  0  0  0  0  0  0  # atno 17343 bound_to 10162
  155.9879  130.4921  150.7148 LP  0  0  0  0  0  0  0  0  0  0  0  0  # atno 17370 bound_to 10713
  157.4661  131.0888  151.0693 LP  0  0  0  0  0  0  0  0  0  0  0  0  # atno 17371 bound_to 10713
  140.5320  134.6203  157.5353 LP  0  0  0  0  0  0  0  0  0  0  0  0  # atno 17394 bound_to 11000
  139.9700  134.7309  156.0061 LP  0  0  0  0  0  0  0  0  0  0  0  0  # atno 17395 bound_to 11000

$$$$
