AV-unprocessed.smi:2062|AV-procd|sdf|8405|dock1
  -GOLD-   2272011 93D 1   1.00000     0.00000
 Structure written by MMmdl.
 42 43  0  0  0  0  0  0  0  0  3 V2000
  152.6903  144.4205  158.4699 C   0  0  0  0  0  0  0  0  0  0  0  0
  151.9082  143.5521  159.4698 C   0  0  0  0  0  0  0  0  0  0  0  0
  152.8194  142.4687  160.0654 C   0  0  0  0  0  0  0  0  0  0  0  0
  150.6580  142.9153  158.8247 C   0  0  0  0  0  0  0  0  0  0  0  0
  150.9804  141.7632  157.9444 N   0  3  2  0  0  0  0  0  0  0  0  0
  150.2610  141.7828  156.6467 C   0  0  0  0  0  0  0  0  0  0  0  0
  150.6857  140.5846  155.7823 C   0  0  0  0  0  0  0  0  0  0  0  0
  150.4506  139.3788  156.4965 O   0  0  0  0  0  0  0  0  0  0  0  0
  151.2140  139.3030  157.6966 C   0  0  2  0  0  0  0  0  0  0  0  0
  150.9718  137.9299  158.3375 C   0  0  0  0  0  0  0  0  0  0  0  0
  149.7586  137.9589  159.1463 N   0  0  0  0  0  0  0  0  0  0  0  0
  148.9385  136.9271  159.3842 C   0  0  0  0  0  0  0  0  0  0  0  0
  149.1650  135.8256  158.8783 O   0  0  0  0  0  0  0  0  0  0  0  0
  147.9054  137.2395  160.1984 N   0  5  0  0  0  0  0  0  0  0  0  0
  147.2768  136.2739  160.8884 C   0  0  0  0  0  0  0  0  0  0  0  0
  146.9536  136.3946  162.1810 N   0  0  0  0  0  0  0  0  0  0  0  0
  146.3120  135.2687  162.7003 C   0  0  0  0  0  0  0  0  0  0  0  0
  146.1504  134.2640  161.7837 C   0  0  0  0  0  0  0  0  0  0  0  0
  146.8042  134.7040  160.2318 S   0  0  0  0  0  0  0  0  0  0  0  0
  150.7865  140.4589  158.6213 C   0  0  0  0  0  0  0  0  0  0  0  0
  153.0223  143.8357  157.6114 H   0  0  0  0  0  0  0  0  0  0  0  0
  153.5750  144.8550  158.9366 H   0  0  0  0  0  0  0  0  0  0  0  0
  152.0837  145.2459  158.0966 H   0  0  0  0  0  0  0  0  0  0  0  0
  151.5988  144.1895  160.2975 H   0  0  0  0  0  0  0  0  0  0  0  0
  153.1849  141.7889  159.2950 H   0  0  0  0  0  0  0  0  0  0  0  0
  152.2894  141.8742  160.8102 H   0  0  0  0  0  0  0  0  0  0  0  0
  153.6870  142.9101  160.5569 H   0  0  0  0  0  0  0  0  0  0  0  0
  149.9932  142.5845  159.6243 H   0  0  0  0  0  0  0  0  0  0  0  0
  150.0985  143.6578  158.2534 H   0  0  0  0  0  0  0  0  0  0  0  0
  149.1846  141.7492  156.8233 H   0  0  0  0  0  0  0  0  0  0  0  0
  150.4676  142.7053  156.1057 H   0  0  0  0  0  0  0  0  0  0  0  0
  150.1089  140.5648  154.8575 H   0  0  0  0  0  0  0  0  0  0  0  0
  151.7375  140.6579  155.5008 H   0  0  0  0  0  0  0  0  0  0  0  0
  152.2758  139.4008  157.4607 H   0  0  0  0  0  0  0  0  0  0  0  0
  150.8419  137.1715  157.5650 H   0  0  0  0  0  0  0  0  0  0  0  0
  151.8450  137.6387  158.9235 H   0  0  0  0  0  0  0  0  0  0  0  0
  149.5233  138.8383  159.5823 H   0  0  0  0  0  0  0  0  0  0  0  0
  146.0056  135.2686  163.7356 H   0  0  0  0  0  0  0  0  0  0  0  0
  145.6914  133.2973  161.9250 H   0  0  0  0  0  0  0  0  0  0  0  0
  151.3769  140.4304  159.5380 H   0  0  0  0  0  0  0  0  0  0  0  0
  149.7396  140.3482  158.9095 H   0  0  0  0  0  0  0  0  0  0  0  0
  151.9669  141.8273  157.7376 H   0  0  0  0  0  0  0  0  0  0  0  0
  1  2  1  0  0  0  0
  1 21  1  0  0  0  0
  1 22  1  0  0  0  0
  1 23  1  0  0  0  0
  2  3  1  0  0  0  0
  2  4  1  0  0  0  0
  2 24  1  0  0  0  0
  3 25  1  0  0  0  0
  3 26  1  0  0  0  0
  3 27  1  0  0  0  0
  4  5  1  0  0  0  0
  4 28  1  0  0  0  0
  4 29  1  0  0  0  0
  5 20  1  0  0  0  0
  5  6  1  0  0  0  0
  5 42  1  0  0  0  0
  6  7  1  0  0  0  0
  6 30  1  0  0  0  0
  6 31  1  0  0  0  0
  7  8  1  0  0  0  0
  7 32  1  0  0  0  0
  7 33  1  0  0  0  0
  8  9  1  0  0  0  0
  9 10  1  0  0  0  0
  9 20  1  0  0  0  0
  9 34  1  0  0  0  0
 10 11  1  0  0  0  0
 10 35  1  0  0  0  0
 10 36  1  0  0  0  0
 11 12  1  0  0  0  0
 11 37  1  0  0  0  0
 12 13  2  0  0  0  0
 12 14  1  0  0  0  0
 14 15  1  0  0  0  0
 15 19  1  0  0  0  0
 15 16  2  0  0  0  0
 16 17  1  0  0  0  0
 17 18  2  0  0  0  0
 17 38  1  0  0  0  0
 18 19  1  0  0  0  0
 18 39  1  0  0  0  0
 20 40  1  0  0  0  0
 20 41  1  0  0  0  0
M  CHG  1   5   1
M  CHG  1  14  -1
M  END
> <s_m_source_file>
AV-unprocessed.smi

> <i_m_source_file_index>
2062

> <i_lp_mmshare_version>
43012

> <i_f3d_flags>
0

> <s_epik_input>
W0NIM11bQ0hdKFtDSDNdKVtDSDJdTjFbQ0gyXVtDSDJdT1tDQEhdKFtDSDJdMSlbQ0gyXVtOSF1DKD1PKVtOSF1jMm5bY0hdW2NIXXMy

> <s_epik_cmdline>
J2VwaWtfcHl0aG9uJywgJy1waCcsICc3LjAnLCAnLXRuJywgJzgnLCAnLW1hJywgJzIwMCcsICctbWV0YWxfYmluZGluZycsICctaW1hZScsICc8aW5maWxlLm1hZT4nLCAnLW9tYWUnLCAnPG91dGZpbGUubWFlPic=

> <r_lp_tautomer_probability>
0.999

> <r_epik_Ionization_Penalty>
6.35835

> <r_epik_Ionization_Penalty_Charging>
5.49938

> <r_epik_Ionization_Penalty_Neutral>
0.858963

> <r_epik_State_Penalty>
5.49328

> <r_epik_Charging_Adjusted_Penalty>
10.9927

> <i_epik_Tot_Q>
0

> <i_epik_Tot_abs_Q>
2

> <r_epik_Metal_State_Penalty>
1.51523

> <b_epik_Metal_Only>
1

> <s_lp_Force_Field>
OPLS_2005

> <r_lp_Energy>
7.82162

> <b_lp_Chiralities_Consistent>
1

> <s_lp_Variant>
AV-unprocessed.smi:2062-10

> <Gold.Version>
5.8.1

> <Gold.Id.Protein>
6NUR|6NUR_protein|mol2

> <Gold.PLP.Fitness>
46.8258

> <Gold.PLP.PLP>
-38.9576

> <Gold.PLP.part.hbond>
-3.0000

> <Gold.PLP.part.metal>
0.0000

> <Gold.PLP.part.buried>
-6.0913

> <Gold.PLP.part.nonpolar>
-33.0970

> <Gold.PLP.part.repulsive>
0.7203

> <Gold.PLP.ligand.clash>
0.0000

> <Gold.PLP.ligand.torsion>
1.6279

> <Gold.PLP.Chemscore.Hbond>
3.5676

> <Gold.PLP.Chemscore.CHOScore>
0.0000

> <Gold.PLP.Chemscore.Metal>
0.0000

> <Gold.Chemscore.Hbonds>
donor molecule, donor type, donor heavy atom, donor atom, acceptor molecule, acceptor atom, score
      P1  H  6896  6908       L1    13  0.93
      P1  H  6931  6943       L1    14  0.51
      P1  H  6934  6947       L1    14  1.50

> <Gold.PLP.Chemscore.Internal.Correction>
0.4212

> <Gold.Rescore>
     Score         DG    S(hbond)    S(metal)    S(lipo)     H(rot)  DE(clash)    DE(int)     intcor
     15.28     -17.41       1.60        0.00      93.81       1.72       0.38       1.75       ----

> <Gold.Chemscore.Fitness>
15.2759

> <Gold.Chemscore.DG>
-17.4069

> <Gold.Chemscore.ZeroCoef>
-5.4800

> <Gold.Chemscore.Hbond>
1.6028

> <Gold.Chemscore.Metal>
0.0000

> <Gold.Chemscore.Lipo>
93.8066

> <Gold.Chemscore.Internal_Hbond>
0.0000

> <Gold.Chemscore.DEClash>
0.3784

> <Gold.Chemscore.DEInternal>
1.7526

> <Gold.Chemscore.Rot>
1.7194

> <Gold.Chemscore.Internal.Correction>
   9.000000E+99

> <Gold.Chemscore.Hbonds>
donor molecule, donor type, donor heavy atom, donor atom, acceptor molecule, acceptor atom, score
      P1  H  6896  6908       L1    13  0.87
      P1  H  6931  6943       L1    14  0.02
      P1  H  6934  6947       L1    14  0.42

> <Gold.Chemscore.Hbond.Weighted>
-5.3533

> <Gold.Chemscore.Metal.Weighted>
-0.0000

> <Gold.Chemscore.Lipo.Weighted>
-10.9754

> <Gold.Chemscore.Internal_Hbond.Weighted>
0.0000

> <Gold.Chemscore.DEClash.Weighted>
0.3784

> <Gold.Chemscore.DEInternal.Weighted>
1.7526

> <Gold.Chemscore.Rot.Weighted>
4.4017

> <Gold.Chemscore.Internal.Correction.Weighted>
   9.000000E+99

> <Gold.Protein.RotatedTorsions>
[ 6907 6896 6895 6894 ] final  171.99 input  -60.11 | X-H torsion
[ 7974 7965 7964 7962 ] final  128.93 input  175.53 | X-H torsion
[ 8008 7997 7996 7995 ] final  175.35 input   59.86 | X-H torsion
[ 10167 10162 10161 10158 ] final -128.18 input  -65.29 | X-H torsion
[ 10718 10713 10712 10709 ] final -171.78 input   66.30 | X-H torsion
[ 10763 10752 10751 10750 ] final   65.35 input  -60.55 | X-H torsion
[ 11005 11000 10999 10996 ] final  140.16 input  -57.11 | X-H torsion

> <Gold.Protein.ActiveResidues>
 VAL166  LYS551  ARG553  GLY616  TRP617  ASP618  TYR619  PRO620  LYS621  CYS622 
 ASP623  PHE694  ASN695  SER759  ASP760  ASP761  ALA762  ILE779  LEU786  VAL792 
 PHE793  MET794  SER795  GLU796  ALA797  LYS798  CYS799  TRP800  GLU811  SER814 

> <Gold.Protein.RotatedAtoms>
  151.7915  133.3360  159.3500 H   0  0  0  0  0  0  0  0  0  0  0  0  # atno 6907 bound_to 6896
  150.7390  134.5838  159.5961 H   0  0  0  0  0  0  0  0  0  0  0  0  # atno 6908 bound_to 6896
  152.3207  134.7385  160.0366 H   0  0  0  0  0  0  0  0  0  0  0  0  # atno 6909 bound_to 6896
  145.0342  139.4020  143.5134 H   0  0  0  0  0  0  0  0  0  0  0  0  # atno 7974 bound_to 7965
  156.0879  140.1411  156.9629 H   0  0  0  0  0  0  0  0  0  0  0  0  # atno 8008 bound_to 7997
  154.4624  140.0938  156.6977 H   0  0  0  0  0  0  0  0  0  0  0  0  # atno 8009 bound_to 7997
  155.4968  140.3449  155.4366 H   0  0  0  0  0  0  0  0  0  0  0  0  # atno 8010 bound_to 7997
  139.9530  143.6034  152.2469 H   0  0  0  0  0  0  0  0  0  0  0  0  # atno 10167 bound_to 10162
  156.7458  130.9359  151.3112 H   0  0  0  0  0  0  0  0  0  0  0  0  # atno 10718 bound_to 10713
  153.0093  135.5360  154.6654 H   0  0  0  0  0  0  0  0  0  0  0  0  # atno 10763 bound_to 10752
  154.5852  135.2853  155.0694 H   0  0  0  0  0  0  0  0  0  0  0  0  # atno 10764 bound_to 10752
  154.1808  135.6516  153.5086 H   0  0  0  0  0  0  0  0  0  0  0  0  # atno 10765 bound_to 10752
  140.0307  134.9353  157.0656 H   0  0  0  0  0  0  0  0  0  0  0  0  # atno 11005 bound_to 11000
  146.3502  139.9908  142.8686 LP  0  0  0  0  0  0  0  0  0  0  0  0  # atno 17320 bound_to 7965
  145.1731  140.9731  143.4310 LP  0  0  0  0  0  0  0  0  0  0  0  0  # atno 17321 bound_to 7965
  139.6613  144.7662  151.1957 LP  0  0  0  0  0  0  0  0  0  0  0  0  # atno 17342 bound_to 10162
  140.7577  143.6005  150.8704 LP  0  0  0  0  0  0  0  0  0  0  0  0  # atno 17343 bound_to 10162
  157.6798  130.9129  150.0240 LP  0  0  0  0  0  0  0  0  0  0  0  0  # atno 17370 bound_to 10713
  156.1434  130.3642  149.9548 LP  0  0  0  0  0  0  0  0  0  0  0  0  # atno 17371 bound_to 10713
  140.4231  134.1860  155.7165 LP  0  0  0  0  0  0  0  0  0  0  0  0  # atno 17394 bound_to 11000
  141.1829  133.8375  157.1193 LP  0  0  0  0  0  0  0  0  0  0  0  0  # atno 17395 bound_to 11000

$$$$
