AV-unprocessed.smi:2390|AV-procd|sdf|9476|dock2
  -GOLD-   2272013103D 1   1.00000     0.00000
 Structure written by MMmdl.
 45 46  0  0  0  0  0  0  0  0  1 V2000
  152.5757  143.4661  162.3230 C   0  0  0  0  0  0  0  0  0  0  0  0
  152.1700  143.8255  160.9092 C   0  0  0  0  0  0  0  0  0  0  0  0
  153.0666  143.6656  159.8343 C   0  0  0  0  0  0  0  0  0  0  0  0
  152.6263  144.0178  158.5460 C   0  0  0  0  0  0  0  0  0  0  0  0
  151.3170  144.5115  158.3864 C   0  0  0  0  0  0  0  0  0  0  0  0
  150.4808  144.6434  159.5179 C   0  0  0  0  0  0  0  0  0  0  0  0
  149.1807  145.1484  159.2506 N   0  0  0  0  0  0  0  0  0  0  0  0
  148.3033  145.6841  160.1174 C   0  0  0  0  0  0  0  0  0  0  0  0
  148.5043  145.8511  161.3208 O   0  0  0  0  0  0  0  0  0  0  0  0
  147.1593  146.0175  159.5020 N   0  0  0  0  0  0  0  0  0  0  0  0
  145.9727  146.5804  160.1468 C   0  0  1  0  0  0  0  0  0  0  0  0
  145.9569  148.1085  159.9593 C   0  0  0  0  0  0  0  0  0  0  0  0
  144.6818  145.8506  159.6582 C   0  0  1  0  0  0  0  0  0  0  0  0
  144.5094  146.0529  158.1306 C   0  0  0  0  0  0  0  0  0  0  0  0
  144.6180  144.4202  160.0528 N   0  0  0  0  0  0  0  0  0  0  0  0
  144.9994  144.2017  161.4530 C   0  0  0  0  0  0  0  0  0  0  0  0
  144.9472  142.7200  161.8638 C   0  0  0  0  0  0  0  0  0  0  0  0
  145.7804  141.9542  161.0051 O   0  0  0  0  0  0  0  0  0  0  0  0
  145.3941  142.0747  159.6434 C   0  0  0  0  0  0  0  0  0  0  0  0
  145.4543  143.5510  159.2160 C   0  0  0  0  0  0  0  0  0  0  0  0
  150.9153  144.3012  160.7565 N   0  0  0  0  0  0  0  0  0  0  0  0
  153.5405  142.9585  162.3403 H   0  0  0  0  0  0  0  0  0  0  0  0
  151.8362  142.8043  162.7751 H   0  0  0  0  0  0  0  0  0  0  0  0
  152.6518  144.3656  162.9343 H   0  0  0  0  0  0  0  0  0  0  0  0
  154.0649  143.2835  159.9901 H   0  0  0  0  0  0  0  0  0  0  0  0
  153.2810  143.9105  157.6937 H   0  0  0  0  0  0  0  0  0  0  0  0
  150.9626  144.7849  157.4029 H   0  0  0  0  0  0  0  0  0  0  0  0
  148.8778  145.0815  158.2903 H   0  0  0  0  0  0  0  0  0  0  0  0
  147.0878  145.8400  158.5109 H   0  0  0  0  0  0  0  0  0  0  0  0
  146.0424  146.4585  161.2266 H   0  0  0  0  0  0  0  0  0  0  0  0
  145.0342  148.5433  160.3445 H   0  0  0  0  0  0  0  0  0  0  0  0
  146.0603  148.4020  158.9150 H   0  0  0  0  0  0  0  0  0  0  0  0
  146.7846  148.5689  160.4999 H   0  0  0  0  0  0  0  0  0  0  0  0
  143.8427  146.3594  160.1352 H   0  0  0  0  0  0  0  0  0  0  0  0
  144.5936  147.0974  157.8376 H   0  0  0  0  0  0  0  0  0  0  0  0
  143.5235  145.7476  157.7839 H   0  0  0  0  0  0  0  0  0  0  0  0
  145.2523  145.4896  157.5651 H   0  0  0  0  0  0  0  0  0  0  0  0
  146.0040  144.5902  161.6271 H   0  0  0  0  0  0  0  0  0  0  0  0
  144.3306  144.7387  162.1230 H   0  0  0  0  0  0  0  0  0  0  0  0
  145.2910  142.5999  162.8913 H   0  0  0  0  0  0  0  0  0  0  0  0
  143.9240  142.3428  161.8227 H   0  0  0  0  0  0  0  0  0  0  0  0
  146.0654  141.4751  159.0287 H   0  0  0  0  0  0  0  0  0  0  0  0
  144.3886  141.6740  159.5043 H   0  0  0  0  0  0  0  0  0  0  0  0
  145.1317  143.5853  158.1777 H   0  0  0  0  0  0  0  0  0  0  0  0
  146.4889  143.8960  159.2405 H   0  0  0  0  0  0  0  0  0  0  0  0
  1  2  1  0  0  0  0
  1 22  1  0  0  0  0
  1 23  1  0  0  0  0
  1 24  1  0  0  0  0
  2 21  1  0  0  0  0
  2  3  2  0  0  0  0
  3  4  1  0  0  0  0
  3 25  1  0  0  0  0
  4  5  2  0  0  0  0
  4 26  1  0  0  0  0
  5  6  1  0  0  0  0
  5 27  1  0  0  0  0
  6  7  1  0  0  0  0
  6 21  2  0  0  0  0
  7  8  1  0  0  0  0
  7 28  1  0  0  0  0
  8  9  2  0  0  0  0
  8 10  1  0  0  0  0
 10 11  1  0  0  0  0
 10 29  1  0  0  0  0
 11 12  1  0  0  0  0
 11 13  1  0  0  0  0
 11 30  1  0  0  0  0
 12 31  1  0  0  0  0
 12 32  1  0  0  0  0
 12 33  1  0  0  0  0
 13 14  1  0  0  0  0
 13 15  1  0  0  0  0
 13 34  1  0  0  0  0
 14 35  1  0  0  0  0
 14 36  1  0  0  0  0
 14 37  1  0  0  0  0
 15 20  1  0  0  0  0
 15 16  1  0  0  0  0
 16 17  1  0  0  0  0
 16 38  1  0  0  0  0
 16 39  1  0  0  0  0
 17 18  1  0  0  0  0
 17 40  1  0  0  0  0
 17 41  1  0  0  0  0
 18 19  1  0  0  0  0
 19 20  1  0  0  0  0
 19 42  1  0  0  0  0
 19 43  1  0  0  0  0
 20 44  1  0  0  0  0
 20 45  1  0  0  0  0
M  END
> <s_m_source_file>
AV-unprocessed.smi

> <i_m_source_file_index>
2390

> <i_lp_mmshare_version>
43012

> <i_f3d_flags>
0

> <s_epik_input>
W0NIM11jMVtjSF1bY0hdW2NIXWMobjEpW05IXUMoPU8pW05IXVtDQEhdKFtDSDNdKVtDQEhdKFtDSDNdKU4yW0NIMl1bQ0gyXU9bQ0gyXVtDSDJdMg==

> <s_epik_cmdline>
J2VwaWtfcHl0aG9uJywgJy1waCcsICc3LjAnLCAnLXRuJywgJzgnLCAnLW1hJywgJzIwMCcsICctbWV0YWxfYmluZGluZycsICctaW1hZScsICc8aW5maWxlLm1hZT4nLCAnLW9tYWUnLCAnPG91dGZpbGUubWFlPic=

> <r_epik_Ionization_Penalty>
0.266074

> <r_epik_Ionization_Penalty_Charging>
0

> <r_epik_Ionization_Penalty_Neutral>
0.266074

> <r_epik_State_Penalty>
0.257924

> <r_epik_Charging_Adjusted_Penalty>
0.257924

> <i_epik_Tot_Q>
0

> <i_epik_Tot_abs_Q>
0

> <r_epik_Metal_State_Penalty>
0.257919

> <b_epik_Metal_Only>
0

> <s_lp_Force_Field>
OPLS_2005

> <r_lp_Energy>
36.7319

> <b_lp_Chiralities_Consistent>
1

> <s_lp_Variant>
AV-unprocessed.smi:2390-4

> <Gold.Version>
5.8.1

> <Gold.Id.Protein>
6NUR|6NUR_protein|mol2

> <Gold.PLP.Fitness>
42.9833

> <Gold.PLP.PLP>
-36.4691

> <Gold.PLP.part.hbond>
-3.1106

> <Gold.PLP.part.metal>
0.0000

> <Gold.PLP.part.buried>
-1.4833

> <Gold.PLP.part.nonpolar>
-34.6790

> <Gold.PLP.part.repulsive>
1.6526

> <Gold.PLP.ligand.clash>
0.0000

> <Gold.PLP.ligand.torsion>
0.5348

> <Gold.PLP.Chemscore.Hbond>
2.4872

> <Gold.PLP.Chemscore.CHOScore>
0.0000

> <Gold.PLP.Chemscore.Metal>
0.0000

> <Gold.Chemscore.Hbonds>
donor molecule, donor type, donor heavy atom, donor atom, acceptor molecule, acceptor atom, score
      L1  H     7    28       P1  8029  0.74
      L1  H    10    29       P1  8029  0.66
      P1  H  6934  6946       L1    18  0.80

> <Gold.PLP.Chemscore.Internal.Correction>
0.1222

> <Gold.Rescore>
     Score         DG    S(hbond)    S(metal)    S(lipo)     H(rot)  DE(clash)    DE(int)     intcor
     17.58     -22.62       2.84        0.00      96.91       1.44       2.34       2.70       ----

> <Gold.Chemscore.Fitness>
17.5796

> <Gold.Chemscore.DG>
-22.6182

> <Gold.Chemscore.ZeroCoef>
-5.4800

> <Gold.Chemscore.Hbond>
2.8400

> <Gold.Chemscore.Metal>
0.0000

> <Gold.Chemscore.Lipo>
96.9055

> <Gold.Chemscore.Internal_Hbond>
0.0000

> <Gold.Chemscore.DEClash>
2.3386

> <Gold.Chemscore.DEInternal>
2.6999

> <Gold.Chemscore.Rot>
1.4396

> <Gold.Chemscore.Internal.Correction>
   9.000000E+99

> <Gold.Chemscore.Hbonds>
donor molecule, donor type, donor heavy atom, donor atom, acceptor molecule, acceptor atom, score
      L1  H     7    28       P1  8029  0.60
      L1  H    10    29       P1  8029  0.64
      P1  H  6934  6946       L1    18  0.11

> <Gold.Chemscore.Hbond.Weighted>
-9.4857

> <Gold.Chemscore.Metal.Weighted>
-0.0000

> <Gold.Chemscore.Lipo.Weighted>
-11.3379

> <Gold.Chemscore.Internal_Hbond.Weighted>
0.0000

> <Gold.Chemscore.DEClash.Weighted>
2.3386

> <Gold.Chemscore.DEInternal.Weighted>
2.6999

> <Gold.Chemscore.Rot.Weighted>
3.6855

> <Gold.Chemscore.Internal.Correction.Weighted>
   9.000000E+99

> <Gold.Protein.RotatedTorsions>
[ 6907 6896 6895 6894 ] final -144.07 input  -60.11 | X-H torsion
[ 7974 7965 7964 7962 ] final  124.34 input  175.53 | X-H torsion
[ 8008 7997 7996 7995 ] final    5.82 input   59.86 | X-H torsion
[ 10167 10162 10161 10158 ] final  123.63 input  -65.29 | X-H torsion
[ 10718 10713 10712 10709 ] final  161.72 input   66.30 | X-H torsion
[ 10763 10752 10751 10750 ] final -117.35 input  -60.55 | X-H torsion
[ 11005 11000 10999 10996 ] final  -46.43 input  -57.11 | X-H torsion

> <Gold.Protein.ActiveResidues>
 VAL166  LYS551  ARG553  GLY616  TRP617  ASP618  TYR619  PRO620  LYS621  CYS622 
 ASP623  PHE694  ASN695  SER759  ASP760  ASP761  ALA762  ILE779  LEU786  VAL792 
 PHE793  MET794  SER795  GLU796  ALA797  LYS798  CYS799  TRP800  GLU811  SER814 

> <Gold.Protein.RotatedAtoms>
  151.1090  133.5187  159.2606 H   0  0  0  0  0  0  0  0  0  0  0  0  # atno 6907 bound_to 6896
  151.1988  135.0433  159.8873 H   0  0  0  0  0  0  0  0  0  0  0  0  # atno 6908 bound_to 6896
  152.5449  134.0921  159.8335 H   0  0  0  0  0  0  0  0  0  0  0  0  # atno 6909 bound_to 6896
  145.0856  139.3625  143.4887 H   0  0  0  0  0  0  0  0  0  0  0  0  # atno 7974 bound_to 7965
  154.7332  140.2734  155.6438 H   0  0  0  0  0  0  0  0  0  0  0  0  # atno 8008 bound_to 7997
  156.2855  140.2711  156.1963 H   0  0  0  0  0  0  0  0  0  0  0  0  # atno 8009 bound_to 7997
  155.0355  140.0371  157.2480 H   0  0  0  0  0  0  0  0  0  0  0  0  # atno 8010 bound_to 7997
  139.5788  144.6976  151.3582 H   0  0  0  0  0  0  0  0  0  0  0  0  # atno 10167 bound_to 10162
  157.1326  131.0520  151.2364 H   0  0  0  0  0  0  0  0  0  0  0  0  # atno 10718 bound_to 10713
  154.8552  135.4313  154.1965 H   0  0  0  0  0  0  0  0  0  0  0  0  # atno 10763 bound_to 10752
  153.3022  135.6969  153.7199 H   0  0  0  0  0  0  0  0  0  0  0  0  # atno 10764 bound_to 10752
  153.6324  135.3482  155.3020 H   0  0  0  0  0  0  0  0  0  0  0  0  # atno 10765 bound_to 10752
  141.0578  133.6719  156.3154 H   0  0  0  0  0  0  0  0  0  0  0  0  # atno 11005 bound_to 11000
  146.3531  140.0666  142.8626 LP  0  0  0  0  0  0  0  0  0  0  0  0  # atno 17320 bound_to 7965
  145.1127  140.9415  143.4647 LP  0  0  0  0  0  0  0  0  0  0  0  0  # atno 17321 bound_to 7965
  140.7069  143.7492  150.7497 LP  0  0  0  0  0  0  0  0  0  0  0  0  # atno 17342 bound_to 10162
  140.1019  143.4780  152.2420 LP  0  0  0  0  0  0  0  0  0  0  0  0  # atno 17343 bound_to 10162
  157.4379  130.7527  149.7044 LP  0  0  0  0  0  0  0  0  0  0  0  0  # atno 17370 bound_to 10713
  155.9805  130.4029  150.3527 LP  0  0  0  0  0  0  0  0  0  0  0  0  # atno 17371 bound_to 10713
  140.5929  134.5633  157.5503 LP  0  0  0  0  0  0  0  0  0  0  0  0  # atno 17394 bound_to 11000
  139.9406  134.7795  156.0689 LP  0  0  0  0  0  0  0  0  0  0  0  0  # atno 17395 bound_to 11000

$$$$
