AV-unprocessed.smi:2412|AV-procd|sdf|9533|dock8
  -GOLD-   2272013163D 1   1.00000     0.00000
 Structure written by MMmdl.
 38 39  0  0  0  0  0  0  0  0  2 V2000
  150.1584  138.7816  154.3208 C   0  0  0  0  0  0  0  0  0  0  0  0
  149.1573  139.9217  154.2511 C   0  0  0  0  0  0  0  0  0  0  0  0
  149.4987  141.1802  154.7930 C   0  0  0  0  0  0  0  0  0  0  0  0
  148.6216  142.2042  154.7350 N   0  3  0  0  0  0  0  0  0  0  0  0
  147.4035  142.0899  154.1667 C   0  0  0  0  0  0  0  0  0  0  0  0
  147.0020  140.8612  153.6063 C   0  0  0  0  0  0  0  0  0  0  0  0
  147.8811  139.7490  153.6558 C   0  0  0  0  0  0  0  0  0  0  0  0
  147.5570  138.4821  153.0923 N   0  0  0  0  0  0  0  0  0  0  0  0
  146.3709  137.8501  153.0788 C   0  0  0  0  0  0  0  0  0  0  0  0
  145.3410  138.2599  153.6138 O   0  0  0  0  0  0  0  0  0  0  0  0
  146.4458  136.6886  152.4119 N   0  0  0  0  0  0  0  0  0  0  0  0
  145.3241  135.7808  152.1768 C   0  0  0  0  0  0  0  0  0  0  0  0
  145.5471  134.3719  152.7584 C   0  0  0  0  0  0  0  0  0  0  0  0
  145.8060  134.2341  153.9557 O   0  0  0  0  0  0  0  0  0  0  0  0
  145.4405  133.3161  151.9252 N   0  0  0  0  0  0  0  0  0  0  0  0
  145.6177  131.9119  152.2955 C   0  0  0  0  0  0  0  0  0  0  0  0
  145.1933  131.1031  151.0689 C   0  0  0  0  0  0  0  0  0  0  0  0
  145.3994  132.0572  149.9010 C   0  0  0  0  0  0  0  0  0  0  0  0
  145.1441  133.4405  150.4993 C   0  0  0  0  0  0  0  0  0  0  0  0
  151.0681  139.0846  154.8402 H   0  0  0  0  0  0  0  0  0  0  0  0
  150.4354  138.4564  153.3175 H   0  0  0  0  0  0  0  0  0  0  0  0
  149.7334  137.9318  154.8557 H   0  0  0  0  0  0  0  0  0  0  0  0
  150.4441  141.3998  155.2673 H   0  0  0  0  0  0  0  0  0  0  0  0
  146.7923  142.9808  154.1700 H   0  0  0  0  0  0  0  0  0  0  0  0
  146.0322  140.8010  153.1361 H   0  0  0  0  0  0  0  0  0  0  0  0
  148.3335  137.9749  152.6933 H   0  0  0  0  0  0  0  0  0  0  0  0
  147.3320  136.4261  152.0063 H   0  0  0  0  0  0  0  0  0  0  0  0
  144.4368  136.2159  152.6372 H   0  0  0  0  0  0  0  0  0  0  0  0
  145.1247  135.7147  151.1060 H   0  0  0  0  0  0  0  0  0  0  0  0
  146.6692  131.7334  152.5250 H   0  0  0  0  0  0  0  0  0  0  0  0
  145.0247  131.6323  153.1670 H   0  0  0  0  0  0  0  0  0  0  0  0
  145.7529  130.1737  150.9601 H   0  0  0  0  0  0  0  0  0  0  0  0
  144.1353  130.8482  151.1477 H   0  0  0  0  0  0  0  0  0  0  0  0
  146.4324  131.9926  149.5565 H   0  0  0  0  0  0  0  0  0  0  0  0
  144.7500  131.8365  149.0534 H   0  0  0  0  0  0  0  0  0  0  0  0
  144.0973  133.7237  150.3792 H   0  0  0  0  0  0  0  0  0  0  0  0
  145.7590  134.2007  150.0147 H   0  0  0  0  0  0  0  0  0  0  0  0
  148.8930  143.1040  155.1325 H   0  0  0  0  0  0  0  0  0  0  0  0
  1  2  1  0  0  0  0
  1 20  1  0  0  0  0
  1 21  1  0  0  0  0
  1 22  1  0  0  0  0
  2  7  1  0  0  0  0
  2  3  2  0  0  0  0
  3  4  1  0  0  0  0
  3 23  1  0  0  0  0
  4  5  2  0  0  0  0
  4 38  1  0  0  0  0
  5  6  1  0  0  0  0
  5 24  1  0  0  0  0
  6  7  2  0  0  0  0
  6 25  1  0  0  0  0
  7  8  1  0  0  0  0
  8  9  1  0  0  0  0
  8 26  1  0  0  0  0
  9 10  2  0  0  0  0
  9 11  1  0  0  0  0
 11 12  1  0  0  0  0
 11 27  1  0  0  0  0
 12 13  1  0  0  0  0
 12 28  1  0  0  0  0
 12 29  1  0  0  0  0
 13 14  2  0  0  0  0
 13 15  1  0  0  0  0
 15 19  1  0  0  0  0
 15 16  1  0  0  0  0
 16 17  1  0  0  0  0
 16 30  1  0  0  0  0
 16 31  1  0  0  0  0
 17 18  1  0  0  0  0
 17 32  1  0  0  0  0
 17 33  1  0  0  0  0
 18 19  1  0  0  0  0
 18 34  1  0  0  0  0
 18 35  1  0  0  0  0
 19 36  1  0  0  0  0
 19 37  1  0  0  0  0
M  CHG  1   4   1
M  END
> <s_m_source_file>
AV-unprocessed.smi

> <i_m_source_file_index>
2412

> <i_lp_mmshare_version>
43012

> <i_f3d_flags>
0

> <s_epik_input>
W0NIM11jMVtjSF1uW2NIXVtjSF1jMVtOSF1DKD1PKVtOSF1bQ0gyXUMoPU8pTjJbQ0gyXVtDSDJdW0NIMl1bQ0gyXTI=

> <s_epik_cmdline>
J2VwaWtfcHl0aG9uJywgJy1waCcsICc3LjAnLCAnLXRuJywgJzgnLCAnLW1hJywgJzIwMCcsICctbWV0YWxfYmluZGluZycsICctaW1hZScsICc8aW5maWxlLm1hZT4nLCAnLW9tYWUnLCAnPG91dGZpbGUubWFlPic=

> <r_epik_Ionization_Penalty>
0.861722

> <r_epik_Ionization_Penalty_Charging>
0.861704

> <r_epik_Ionization_Penalty_Neutral>
1.84974e-05

> <r_epik_State_Penalty>
0.898238

> <r_epik_Charging_Adjusted_Penalty>
1.75994

> <i_epik_Tot_Q>
1

> <i_epik_Tot_abs_Q>
1

> <r_epik_Metal_State_Penalty>
1.0245

> <b_epik_Metal_Only>
0

> <s_lp_Force_Field>
OPLS_2005

> <r_lp_Energy>
33.6381

> <b_lp_Chiralities_Consistent>
1

> <s_lp_Variant>
AV-unprocessed.smi:2412-2

> <Gold.Version>
5.8.1

> <Gold.Id.Protein>
6NUR|6NUR_protein|mol2

> <Gold.PLP.Fitness>
45.1282

> <Gold.PLP.PLP>
-33.8759

> <Gold.PLP.part.hbond>
-3.4597

> <Gold.PLP.part.metal>
0.0000

> <Gold.PLP.part.buried>
-4.0269

> <Gold.PLP.part.nonpolar>
-28.7397

> <Gold.PLP.part.repulsive>
1.5287

> <Gold.PLP.ligand.clash>
0.0000

> <Gold.PLP.ligand.torsion>
0.2905

> <Gold.PLP.Chemscore.Hbond>
3.9440

> <Gold.PLP.Chemscore.CHOScore>
0.0000

> <Gold.PLP.Chemscore.Metal>
0.0000

> <Gold.Chemscore.Hbonds>
donor molecule, donor type, donor heavy atom, donor atom, acceptor molecule, acceptor atom, score
      L1  H     4    38       P1  8028  2.00
      L1  H     8    26       P1  7948  0.94
      L1  H    11    27       P1  7948  1.00

> <Gold.PLP.Chemscore.Internal.Correction>
0.0013

> <Gold.Rescore>
     Score         DG    S(hbond)    S(metal)    S(lipo)     H(rot)  DE(clash)    DE(int)     intcor
     20.13     -21.41       2.91        0.00      81.06       1.28       0.37       0.90       ----

> <Gold.Chemscore.Fitness>
20.1337

> <Gold.Chemscore.DG>
-21.4119

> <Gold.Chemscore.ZeroCoef>
-5.4800

> <Gold.Chemscore.Hbond>
2.9106

> <Gold.Chemscore.Metal>
0.0000

> <Gold.Chemscore.Lipo>
81.0577

> <Gold.Chemscore.Internal_Hbond>
0.0000

> <Gold.Chemscore.DEClash>
0.3737

> <Gold.Chemscore.DEInternal>
0.9044

> <Gold.Chemscore.Rot>
1.2786

> <Gold.Chemscore.Internal.Correction>
   9.000000E+99

> <Gold.Chemscore.Hbonds>
donor molecule, donor type, donor heavy atom, donor atom, acceptor molecule, acceptor atom, score
      L1  H     4    38       P1  8028  1.00
      L1  H     8    26       P1  7948  0.87
      L1  H    11    27       P1  7948  0.99

> <Gold.Chemscore.Hbond.Weighted>
-9.7214

> <Gold.Chemscore.Metal.Weighted>
-0.0000

> <Gold.Chemscore.Lipo.Weighted>
-9.4837

> <Gold.Chemscore.Internal_Hbond.Weighted>
0.0000

> <Gold.Chemscore.DEClash.Weighted>
0.3737

> <Gold.Chemscore.DEInternal.Weighted>
0.9044

> <Gold.Chemscore.Rot.Weighted>
3.2733

> <Gold.Chemscore.Internal.Correction.Weighted>
   9.000000E+99

> <Gold.Protein.RotatedTorsions>
[ 6907 6896 6895 6894 ] final   38.90 input  -60.11 | X-H torsion
[ 7974 7965 7964 7962 ] final   58.23 input  175.53 | X-H torsion
[ 8008 7997 7996 7995 ] final   -7.06 input   59.86 | X-H torsion
[ 10167 10162 10161 10158 ] final  169.09 input  -65.29 | X-H torsion
[ 10718 10713 10712 10709 ] final -107.90 input   66.30 | X-H torsion
[ 10763 10752 10751 10750 ] final -154.21 input  -60.55 | X-H torsion
[ 11005 11000 10999 10996 ] final  161.50 input  -57.11 | X-H torsion

> <Gold.Protein.ActiveResidues>
 VAL166  LYS551  ARG553  GLY616  TRP617  ASP618  TYR619  PRO620  LYS621  CYS622 
 ASP623  PHE694  ASN695  SER759  ASP760  ASP761  ALA762  ILE779  LEU786  VAL792 
 PHE793  MET794  SER795  GLU796  ALA797  LYS798  CYS799  TRP800  GLU811  SER814 

> <Gold.Protein.RotatedAtoms>
  152.1625  134.8900  160.0540 H   0  0  0  0  0  0  0  0  0  0  0  0  # atno 6907 bound_to 6896
  151.9890  133.3779  159.4145 H   0  0  0  0  0  0  0  0  0  0  0  0  # atno 6908 bound_to 6896
  150.6890  134.3879  159.5107 H   0  0  0  0  0  0  0  0  0  0  0  0  # atno 6909 bound_to 6896
  145.9204  139.3725  143.0481 H   0  0  0  0  0  0  0  0  0  0  0  0  # atno 7974 bound_to 7965
  154.5876  140.2417  155.7966 H   0  0  0  0  0  0  0  0  0  0  0  0  # atno 8008 bound_to 7997
  156.2224  140.2993  155.9939 H   0  0  0  0  0  0  0  0  0  0  0  0  # atno 8009 bound_to 7997
  155.2431  140.0408  157.2968 H   0  0  0  0  0  0  0  0  0  0  0  0  # atno 8010 bound_to 7997
  139.4984  144.3743  151.9691 H   0  0  0  0  0  0  0  0  0  0  0  0  # atno 10167 bound_to 10162
  156.0459  130.5686  150.7886 H   0  0  0  0  0  0  0  0  0  0  0  0  # atno 10718 bound_to 10713
  154.7875  135.3195  154.7854 H   0  0  0  0  0  0  0  0  0  0  0  0  # atno 10763 bound_to 10752
  153.8550  135.6858  153.4793 H   0  0  0  0  0  0  0  0  0  0  0  0  # atno 10764 bound_to 10752
  153.1532  135.4691  154.9606 H   0  0  0  0  0  0  0  0  0  0  0  0  # atno 10765 bound_to 10752
  140.2164  134.8229  157.3174 H   0  0  0  0  0  0  0  0  0  0  0  0  # atno 11005 bound_to 11000
  145.8557  140.9504  143.0726 LP  0  0  0  0  0  0  0  0  0  0  0  0  # atno 17320 bound_to 7965
  144.6752  140.0465  143.7480 LP  0  0  0  0  0  0  0  0  0  0  0  0  # atno 17321 bound_to 7965
  140.3179  144.3461  150.6017 LP  0  0  0  0  0  0  0  0  0  0  0  0  # atno 17342 bound_to 10162
  140.5746  143.2177  151.7538 LP  0  0  0  0  0  0  0  0  0  0  0  0  # atno 17343 bound_to 10162
  157.5333  131.0937  150.9926 LP  0  0  0  0  0  0  0  0  0  0  0  0  # atno 17370 bound_to 10713
  157.0227  130.5680  149.5333 LP  0  0  0  0  0  0  0  0  0  0  0  0  # atno 17371 bound_to 10713
  140.1896  134.4388  155.7723 LP  0  0  0  0  0  0  0  0  0  0  0  0  # atno 17394 bound_to 11000
  141.2224  133.7021  156.8005 LP  0  0  0  0  0  0  0  0  0  0  0  0  # atno 17395 bound_to 11000

$$$$
