AV-unprocessed.smi:3186|AV-procd|sdf|12174|dock2
  -GOLD-   2272018 13D 1   1.00000     0.00000
 Structure written by MMmdl.
 37 38  0  0  0  0  0  0  0  0  2 V2000
  150.7706  139.3031  154.7273 C   0  0  0  0  0  0  0  0  0  0  0  0
  149.3682  139.8468  154.5187 C   0  0  0  0  0  0  0  0  0  0  0  0
  148.5759  139.3488  153.4609 C   0  0  0  0  0  0  0  0  0  0  0  0
  147.3222  139.7752  153.2017 N   0  0  0  0  0  0  0  0  0  0  0  0
  146.8036  140.7314  153.9990 C   0  0  0  0  0  0  0  0  0  0  0  0
  147.5043  141.2982  155.0813 C   0  0  0  0  0  0  0  0  0  0  0  0
  148.8149  140.8514  155.3513 C   0  0  0  0  0  0  0  0  0  0  0  0
  149.5802  141.4504  156.5207 C   0  0  0  0  0  0  0  0  0  0  0  0
  150.8486  142.1860  156.0664 C   0  0  0  0  0  0  0  0  0  0  0  0
  151.0796  143.3965  156.8824 N   0  3  0  0  0  0  0  0  0  0  0  0
  151.2763  143.1543  158.3293 C   0  0  1  0  0  0  0  0  0  0  0  0
  152.3241  142.0436  158.5670 C   0  0  0  0  0  0  0  0  0  0  0  0
  152.5244  141.7195  160.0567 C   0  0  0  0  0  0  0  0  0  0  0  0
  153.0179  142.9291  160.8619 C   0  0  0  0  0  0  0  0  0  0  0  0
  151.8112  144.2805  160.8124 S   0  0  0  0  0  0  0  0  0  0  0  0
  151.6936  144.4692  159.0127 C   0  0  0  0  0  0  0  0  0  0  0  0
  150.9707  138.4634  154.0608 H   0  0  0  0  0  0  0  0  0  0  0  0
  150.9051  138.9531  155.7505 H   0  0  0  0  0  0  0  0  0  0  0  0
  151.5115  140.0763  154.5236 H   0  0  0  0  0  0  0  0  0  0  0  0
  148.9577  138.5839  152.8005 H   0  0  0  0  0  0  0  0  0  0  0  0
  145.7989  141.0542  153.7693 H   0  0  0  0  0  0  0  0  0  0  0  0
  147.0399  142.0607  155.6894 H   0  0  0  0  0  0  0  0  0  0  0  0
  148.9318  142.1221  157.0837 H   0  0  0  0  0  0  0  0  0  0  0  0
  149.8470  140.6490  157.2113 H   0  0  0  0  0  0  0  0  0  0  0  0
  151.7125  141.5256  156.1537 H   0  0  0  0  0  0  0  0  0  0  0  0
  150.7598  142.4575  155.0152 H   0  0  0  0  0  0  0  0  0  0  0  0
  151.8821  143.8945  156.5247 H   0  0  0  0  0  0  0  0  0  0  0  0
  150.3193  142.8448  158.7529 H   0  0  0  0  0  0  0  0  0  0  0  0
  152.0248  141.1273  158.0592 H   0  0  0  0  0  0  0  0  0  0  0  0
  153.2788  142.3351  158.1269 H   0  0  0  0  0  0  0  0  0  0  0  0
  151.5917  141.3485  160.4834 H   0  0  0  0  0  0  0  0  0  0  0  0
  153.2465  140.9079  160.1528 H   0  0  0  0  0  0  0  0  0  0  0  0
  153.1859  142.6480  161.9018 H   0  0  0  0  0  0  0  0  0  0  0  0
  153.9704  143.2861  160.4687 H   0  0  0  0  0  0  0  0  0  0  0  0
  152.6551  144.8150  158.6308 H   0  0  0  0  0  0  0  0  0  0  0  0
  150.9665  145.2544  158.8031 H   0  0  0  0  0  0  0  0  0  0  0  0
  150.2654  143.9853  156.7778 H   0  0  0  0  0  0  0  0  0  0  0  0
  1  2  1  0  0  0  0
  1 17  1  0  0  0  0
  1 18  1  0  0  0  0
  1 19  1  0  0  0  0
  2  7  1  0  0  0  0
  2  3  2  0  0  0  0
  3  4  1  0  0  0  0
  3 20  1  0  0  0  0
  4  5  2  0  0  0  0
  5  6  1  0  0  0  0
  5 21  1  0  0  0  0
  6  7  2  0  0  0  0
  6 22  1  0  0  0  0
  7  8  1  0  0  0  0
  8  9  1  0  0  0  0
  8 23  1  0  0  0  0
  8 24  1  0  0  0  0
  9 10  1  0  0  0  0
  9 25  1  0  0  0  0
  9 26  1  0  0  0  0
 10 11  1  0  0  0  0
 10 27  1  0  0  0  0
 10 37  1  0  0  0  0
 11 16  1  0  0  0  0
 11 12  1  0  0  0  0
 11 28  1  0  0  0  0
 12 13  1  0  0  0  0
 12 29  1  0  0  0  0
 12 30  1  0  0  0  0
 13 14  1  0  0  0  0
 13 31  1  0  0  0  0
 13 32  1  0  0  0  0
 14 15  1  0  0  0  0
 14 33  1  0  0  0  0
 14 34  1  0  0  0  0
 15 16  1  0  0  0  0
 16 35  1  0  0  0  0
 16 36  1  0  0  0  0
M  CHG  1  10   1
M  END
> <s_m_source_file>
AV-unprocessed.smi

> <i_m_source_file_index>
3186

> <i_lp_mmshare_version>
43012

> <i_f3d_flags>
0

> <s_epik_input>
W0NIM11jMVtjSF1uW2NIXVtjSF1jMVtDSDJdW0NIMl1bTkhdW0NAQEhdMltDSDJdW0NIMl1bQ0gyXVNbQ0gyXTI=

> <s_epik_cmdline>
J2VwaWtfcHl0aG9uJywgJy1waCcsICc3LjAnLCAnLXRuJywgJzgnLCAnLW1hJywgJzIwMCcsICctbWV0YWxfYmluZGluZycsICctaW1hZScsICc8aW5maWxlLm1hZT4nLCAnLW9tYWUnLCAnPG91dGZpbGUubWFlPic=

> <r_epik_Ionization_Penalty>
0.00563987

> <r_epik_Ionization_Penalty_Charging>
0.00306352

> <r_epik_Ionization_Penalty_Neutral>
0.00257635

> <r_epik_State_Penalty>
0.00506628

> <r_epik_Charging_Adjusted_Penalty>
0.0081298

> <i_epik_Tot_Q>
1

> <i_epik_Tot_abs_Q>
1

> <r_epik_Metal_State_Penalty>
-0

> <b_epik_Metal_Only>
0

> <s_lp_Force_Field>
OPLS_2005

> <r_lp_Energy>
10.8164

> <b_lp_Chiralities_Consistent>
1

> <s_lp_Variant>
AV-unprocessed.smi:3186-2

> <Gold.Version>
5.8.1

> <Gold.Id.Protein>
6NUR|6NUR_protein|mol2

> <Gold.PLP.Fitness>
45.8945

> <Gold.PLP.PLP>
-33.5343

> <Gold.PLP.part.hbond>
-1.0000

> <Gold.PLP.part.metal>
0.0000

> <Gold.PLP.part.buried>
-1.4099

> <Gold.PLP.part.nonpolar>
-31.7575

> <Gold.PLP.part.repulsive>
0.2946

> <Gold.PLP.ligand.clash>
0.0000

> <Gold.PLP.ligand.torsion>
0.3055

> <Gold.PLP.Chemscore.Hbond>
2.0000

> <Gold.PLP.Chemscore.CHOScore>
2.3188

> <Gold.PLP.Chemscore.Metal>
0.0000

> <Gold.Chemscore.Hbonds>
donor molecule, donor type, donor heavy atom, donor atom, acceptor molecule, acceptor atom, score
      L1  H    10    37       P1  8028  2.00
      L1  C     3    20       P1  7948  1.00
      L1  C     3    20       P1  7957  0.32
      L1  C     5    21       P1 10175  0.98

> <Gold.PLP.Chemscore.Internal.Correction>
0.0148

> <Gold.Rescore>
     Score         DG    S(hbond)    S(metal)    S(lipo)     H(rot)  DE(clash)    DE(int)     intcor
     18.23     -18.86       1.00        0.00     114.36       1.30       0.38       0.25       ----

> <Gold.Chemscore.Fitness>
18.2268

> <Gold.Chemscore.DG>
-18.8588

> <Gold.Chemscore.ZeroCoef>
-5.4800

> <Gold.Chemscore.Hbond>
0.9986

> <Gold.Chemscore.Metal>
0.0000

> <Gold.Chemscore.Lipo>
114.3565

> <Gold.Chemscore.Internal_Hbond>
0.0000

> <Gold.Chemscore.DEClash>
0.3773

> <Gold.Chemscore.DEInternal>
0.2547

> <Gold.Chemscore.Rot>
1.3031

> <Gold.Chemscore.Internal.Correction>
   9.000000E+99

> <Gold.Chemscore.Hbonds>
donor molecule, donor type, donor heavy atom, donor atom, acceptor molecule, acceptor atom, score
      L1  H    10    37       P1  8028  0.94

> <Gold.Chemscore.Hbond.Weighted>
-3.3352

> <Gold.Chemscore.Metal.Weighted>
-0.0000

> <Gold.Chemscore.Lipo.Weighted>
-13.3797

> <Gold.Chemscore.Internal_Hbond.Weighted>
0.0000

> <Gold.Chemscore.DEClash.Weighted>
0.3773

> <Gold.Chemscore.DEInternal.Weighted>
0.2547

> <Gold.Chemscore.Rot.Weighted>
3.3361

> <Gold.Chemscore.Internal.Correction.Weighted>
   9.000000E+99

> <Gold.Protein.RotatedTorsions>
[ 6907 6896 6895 6894 ] final -143.15 input  -60.11 | X-H torsion
[ 7974 7965 7964 7962 ] final   48.46 input  175.53 | X-H torsion
[ 8008 7997 7996 7995 ] final   15.82 input   59.86 | X-H torsion
[ 10167 10162 10161 10158 ] final   91.77 input  -65.29 | X-H torsion
[ 10718 10713 10712 10709 ] final  -46.13 input   66.30 | X-H torsion
[ 10763 10752 10751 10750 ] final -172.09 input  -60.55 | X-H torsion
[ 11005 11000 10999 10996 ] final   80.89 input  -57.11 | X-H torsion

> <Gold.Protein.ActiveResidues>
 VAL166  LYS551  ARG553  GLY616  TRP617  ASP618  TYR619  PRO620  LYS621  CYS622 
 ASP623  PHE694  ASN695  SER759  ASP760  ASP761  ALA762  ILE779  LEU786  VAL792 
 PHE793  MET794  SER795  GLU796  ALA797  LYS798  CYS799  TRP800  GLU811  SER814 

> <Gold.Protein.RotatedAtoms>
  151.0966  133.5275  159.2611 H   0  0  0  0  0  0  0  0  0  0  0  0  # atno 6907 bound_to 6896
  151.2122  135.0485  159.8926 H   0  0  0  0  0  0  0  0  0  0  0  0  # atno 6908 bound_to 6896
  152.5439  134.0780  159.8276 H   0  0  0  0  0  0  0  0  0  0  0  0  # atno 6909 bound_to 6896
  146.0202  139.4643  142.9902 H   0  0  0  0  0  0  0  0  0  0  0  0  # atno 7974 bound_to 7965
  154.8681  140.2954  155.5498 H   0  0  0  0  0  0  0  0  0  0  0  0  # atno 8008 bound_to 7997
  156.3021  140.2465  156.3598 H   0  0  0  0  0  0  0  0  0  0  0  0  # atno 8009 bound_to 7997
  154.8846  140.0396  157.1792 H   0  0  0  0  0  0  0  0  0  0  0  0  # atno 8010 bound_to 7997
  139.8342  144.6673  150.9363 H   0  0  0  0  0  0  0  0  0  0  0  0  # atno 10167 bound_to 10162
  156.2214  130.4166  149.8989 H   0  0  0  0  0  0  0  0  0  0  0  0  # atno 10718 bound_to 10713
  154.6232  135.2877  155.0302 H   0  0  0  0  0  0  0  0  0  0  0  0  # atno 10763 bound_to 10752
  154.1490  135.6506  153.4963 H   0  0  0  0  0  0  0  0  0  0  0  0  # atno 10764 bound_to 10752
  153.0245  135.5351  154.7030 H   0  0  0  0  0  0  0  0  0  0  0  0  # atno 10765 bound_to 10752
  139.9118  134.7955  156.1969 H   0  0  0  0  0  0  0  0  0  0  0  0  # atno 11005 bound_to 11000
  145.7205  141.0076  143.1405 LP  0  0  0  0  0  0  0  0  0  0  0  0  # atno 17320 bound_to 7965
  144.6987  139.8864  143.7450 LP  0  0  0  0  0  0  0  0  0  0  0  0  # atno 17321 bound_to 7965
  140.7804  143.3973  151.1209 LP  0  0  0  0  0  0  0  0  0  0  0  0  # atno 17342 bound_to 10162
  139.7624  143.8615  152.3103 LP  0  0  0  0  0  0  0  0  0  0  0  0  # atno 17343 bound_to 10162
  156.6634  130.8791  151.3551 LP  0  0  0  0  0  0  0  0  0  0  0  0  # atno 17370 bound_to 10713
  157.7089  130.9417  150.1022 LP  0  0  0  0  0  0  0  0  0  0  0  0  # atno 17371 bound_to 10713
  141.0549  133.6870  156.1841 LP  0  0  0  0  0  0  0  0  0  0  0  0  # atno 17394 bound_to 11000
  140.6753  134.4825  157.5588 LP  0  0  0  0  0  0  0  0  0  0  0  0  # atno 17395 bound_to 11000

$$$$
