AV-unprocessed.smi:1240|AV-procd|sdf|5200|dock7
  -GOLD-   22720 4283D 1   1.00000     0.00000
 Structure written by MMmdl.
 48 50  0  0  0  0  0  0  0  0  2 V2000
  144.6790  137.0333  151.6532 O   0  0  0  0  0  0  0  0  0  0  0  0
  145.8774  136.7730  151.7597 C   0  0  0  0  0  0  0  0  0  0  0  0
  146.7991  137.6837  152.1036 N   0  0  0  0  0  0  0  0  0  0  0  0
  146.5198  139.0846  152.3983 C   0  0  0  0  0  0  0  0  0  0  0  0
  146.9267  139.5228  153.8355 C   0  0  1  0  0  0  0  0  0  0  0  0
  148.4530  139.7620  154.0170 C   0  0  2  0  0  0  0  0  0  0  0  0
  149.3235  138.5136  154.0641 C   0  0  0  0  0  0  0  0  0  0  0  0
  150.5808  138.9766  154.7998 C   0  0  0  0  0  0  0  0  0  0  0  0
  150.2194  140.1592  155.5038 O   0  0  0  0  0  0  0  0  0  0  0  0
  148.8257  140.3861  155.3647 C   0  0  0  0  0  0  0  0  0  0  0  0
  146.1654  140.7286  154.2819 N   0  3  0  0  0  0  0  0  0  0  0  0
  145.8118  140.7825  155.7233 C   0  0  0  0  0  0  0  0  0  0  0  0
  144.8819  141.9781  155.9891 C   0  0  0  0  0  0  0  0  0  0  0  0
  145.5181  143.1787  155.5668 O   0  0  0  0  0  0  0  0  0  0  0  0
  145.7989  143.1753  154.1718 C   0  0  0  0  0  0  0  0  0  0  0  0
  146.7532  142.0162  153.8374 C   0  0  0  0  0  0  0  0  0  0  0  0
  146.4393  135.5711  151.5441 N   0  0  0  0  0  0  0  0  0  0  0  0
  145.8095  134.3429  151.2052 C   0  0  0  0  0  0  0  0  0  0  0  0
  146.6244  133.1975  151.0928 C   0  0  0  0  0  0  0  0  0  0  0  0
  146.0223  131.9636  150.7753 C   0  0  0  0  0  0  0  0  0  0  0  0
  144.6951  131.8144  150.5814 N   0  0  0  0  0  0  0  0  0  0  0  0
  143.9144  132.9089  150.7037 C   0  0  0  0  0  0  0  0  0  0  0  0
  144.4148  134.1891  151.0162 C   0  0  0  0  0  0  0  0  0  0  0  0
  147.7629  137.3882  152.1613 H   0  0  0  0  0  0  0  0  0  0  0  0
  147.0574  139.6768  151.6578 H   0  0  0  0  0  0  0  0  0  0  0  0
  145.4590  139.2634  152.2199 H   0  0  0  0  0  0  0  0  0  0  0  0
  146.6551  138.7225  154.5255 H   0  0  0  0  0  0  0  0  0  0  0  0
  148.8271  140.4071  153.2210 H   0  0  0  0  0  0  0  0  0  0  0  0
  148.8307  137.7286  154.6396 H   0  0  0  0  0  0  0  0  0  0  0  0
  149.5577  138.1139  153.0775 H   0  0  0  0  0  0  0  0  0  0  0  0
  150.9515  138.2127  155.4839 H   0  0  0  0  0  0  0  0  0  0  0  0
  151.3791  139.2182  154.0973 H   0  0  0  0  0  0  0  0  0  0  0  0
  148.5987  141.4514  155.4160 H   0  0  0  0  0  0  0  0  0  0  0  0
  148.3036  139.8870  156.1828 H   0  0  0  0  0  0  0  0  0  0  0  0
  145.3167  139.8621  156.0316 H   0  0  0  0  0  0  0  0  0  0  0  0
  146.7113  140.8862  156.3314 H   0  0  0  0  0  0  0  0  0  0  0  0
  143.9292  141.8541  155.4717 H   0  0  0  0  0  0  0  0  0  0  0  0
  144.6590  142.0521  157.0537 H   0  0  0  0  0  0  0  0  0  0  0  0
  144.8712  143.0930  153.6029 H   0  0  0  0  0  0  0  0  0  0  0  0
  146.2548  144.1278  153.9008 H   0  0  0  0  0  0  0  0  0  0  0  0
  147.7153  142.1804  154.3233 H   0  0  0  0  0  0  0  0  0  0  0  0
  146.9360  141.9945  152.7625 H   0  0  0  0  0  0  0  0  0  0  0  0
  147.4472  135.5387  151.5859 H   0  0  0  0  0  0  0  0  0  0  0  0
  147.6926  133.2581  151.2411 H   0  0  0  0  0  0  0  0  0  0  0  0
  146.6241  131.0722  150.6769 H   0  0  0  0  0  0  0  0  0  0  0  0
  142.8551  132.7591  150.5550 H   0  0  0  0  0  0  0  0  0  0  0  0
  143.7243  135.0120  151.1154 H   0  0  0  0  0  0  0  0  0  0  0  0
  145.2844  140.6685  153.7913 H   0  0  0  0  0  0  0  0  0  0  0  0
  1  2  2  0  0  0  0
  2  3  1  0  0  0  0
  2 17  1  0  0  0  0
  3  4  1  0  0  0  0
  3 24  1  0  0  0  0
  4  5  1  0  0  0  0
  4 25  1  0  0  0  0
  4 26  1  0  0  0  0
  5  6  1  0  0  0  0
  5 11  1  0  0  0  0
  5 27  1  0  0  0  0
  6 10  1  0  0  0  0
  6  7  1  0  0  0  0
  6 28  1  0  0  0  0
  7  8  1  0  0  0  0
  7 29  1  0  0  0  0
  7 30  1  0  0  0  0
  8  9  1  0  0  0  0
  8 31  1  0  0  0  0
  8 32  1  0  0  0  0
  9 10  1  0  0  0  0
 10 33  1  0  0  0  0
 10 34  1  0  0  0  0
 11 16  1  0  0  0  0
 11 12  1  0  0  0  0
 11 48  1  0  0  0  0
 12 13  1  0  0  0  0
 12 35  1  0  0  0  0
 12 36  1  0  0  0  0
 13 14  1  0  0  0  0
 13 37  1  0  0  0  0
 13 38  1  0  0  0  0
 14 15  1  0  0  0  0
 15 16  1  0  0  0  0
 15 39  1  0  0  0  0
 15 40  1  0  0  0  0
 16 41  1  0  0  0  0
 16 42  1  0  0  0  0
 17 18  1  0  0  0  0
 17 43  1  0  0  0  0
 18 23  1  0  0  0  0
 18 19  2  0  0  0  0
 19 20  1  0  0  0  0
 19 44  1  0  0  0  0
 20 21  2  0  0  0  0
 20 45  1  0  0  0  0
 21 22  1  0  0  0  0
 22 23  2  0  0  0  0
 22 46  1  0  0  0  0
 23 47  1  0  0  0  0
M  CHG  1  11   1
M  END
> <s_m_source_file>
AV-unprocessed.smi

> <i_m_source_file_index>
1240

> <i_lp_mmshare_version>
43012

> <i_f3d_flags>
0

> <s_epik_input>
W2NIXTFbY0hdbltjSF1bY0hdYzFbTkhdQyg9TylbTkhdW0NIMl1bQ0BIXShbQ0BASF0yW0NIMl1bQ0gyXU9bQ0gyXTIpTjNbQ0gyXVtDSDJdT1tDSDJdW0NIMl0z

> <s_epik_cmdline>
J2VwaWtfcHl0aG9uJywgJy1waCcsICc3LjAnLCAnLXRuJywgJzgnLCAnLW1hJywgJzIwMCcsICctbWV0YWxfYmluZGluZycsICctaW1hZScsICc8aW5maWxlLm1hZT4nLCAnLW9tYWUnLCAnPG91dGZpbGUubWFlPic=

> <r_epik_Ionization_Penalty>
1.08433

> <r_epik_Ionization_Penalty_Charging>
0.98326

> <r_epik_Ionization_Penalty_Neutral>
0.10107

> <r_epik_State_Penalty>
1.11265

> <r_epik_Charging_Adjusted_Penalty>
2.09591

> <i_epik_Tot_Q>
1

> <i_epik_Tot_abs_Q>
1

> <r_epik_Metal_State_Penalty>
1.10731

> <b_epik_Metal_Only>
0

> <s_lp_Force_Field>
OPLS_2005

> <r_lp_Energy>
42.8142

> <b_lp_Chiralities_Consistent>
1

> <s_lp_Variant>
AV-unprocessed.smi:1240-6

> <Gold.Version>
5.8.1

> <Gold.Id.Protein>
6NUR|6NUR_protein|mol2

> <Gold.PLP.Fitness>
50.4447

> <Gold.PLP.PLP>
-34.3693

> <Gold.PLP.part.hbond>
-2.9834

> <Gold.PLP.part.metal>
0.0000

> <Gold.PLP.part.buried>
-5.2335

> <Gold.PLP.part.nonpolar>
-32.0943

> <Gold.PLP.part.repulsive>
4.9868

> <Gold.PLP.ligand.clash>
0.0000

> <Gold.PLP.ligand.torsion>
1.0094

> <Gold.PLP.Chemscore.Hbond>
4.0000

> <Gold.PLP.Chemscore.CHOScore>
1.9445

> <Gold.PLP.Chemscore.Metal>
0.0000

> <Gold.Chemscore.Hbonds>
donor molecule, donor type, donor heavy atom, donor atom, acceptor molecule, acceptor atom, score
      L1  H     3    24       P1  7948  0.99
      L1  H    11    48       P1 10175  1.79
      L1  H    17    43       P1  7948  1.00
      L1  C    20    45       P1 10747  1.00
      L1  C    22    46       P1 10186  0.63

> <Gold.PLP.Chemscore.Internal.Correction>
0.2608

> <Gold.Rescore>
     Score         DG    S(hbond)    S(metal)    S(lipo)     H(rot)  DE(clash)    DE(int)     intcor
     17.33     -20.78       2.87        0.00      85.98       1.70       1.35       2.09       ----

> <Gold.Chemscore.Fitness>
17.3339

> <Gold.Chemscore.DG>
-20.7759

> <Gold.Chemscore.ZeroCoef>
-5.4800

> <Gold.Chemscore.Hbond>
2.8722

> <Gold.Chemscore.Metal>
0.0000

> <Gold.Chemscore.Lipo>
85.9849

> <Gold.Chemscore.Internal_Hbond>
0.0000

> <Gold.Chemscore.DEClash>
1.3541

> <Gold.Chemscore.DEInternal>
2.0879

> <Gold.Chemscore.Rot>
1.7021

> <Gold.Chemscore.Internal.Correction>
   9.000000E+99

> <Gold.Chemscore.Hbonds>
donor molecule, donor type, donor heavy atom, donor atom, acceptor molecule, acceptor atom, score
      L1  H     3    24       P1  7948  0.94
      L1  H    11    48       P1 10175  0.83
      L1  H    17    43       P1  7948  0.94

> <Gold.Chemscore.Hbond.Weighted>
-9.5931

> <Gold.Chemscore.Metal.Weighted>
-0.0000

> <Gold.Chemscore.Lipo.Weighted>
-10.0602

> <Gold.Chemscore.Internal_Hbond.Weighted>
0.0000

> <Gold.Chemscore.DEClash.Weighted>
1.3541

> <Gold.Chemscore.DEInternal.Weighted>
2.0879

> <Gold.Chemscore.Rot.Weighted>
4.3575

> <Gold.Chemscore.Internal.Correction.Weighted>
   9.000000E+99

> <Gold.Protein.RotatedTorsions>
[ 6907 6896 6895 6894 ] final -125.47 input  -60.11 | X-H torsion
[ 7974 7965 7964 7962 ] final  155.58 input  175.53 | X-H torsion
[ 8008 7997 7996 7995 ] final  -80.95 input   59.86 | X-H torsion
[ 10167 10162 10161 10158 ] final  148.91 input  -65.29 | X-H torsion
[ 10718 10713 10712 10709 ] final  -67.75 input   66.30 | X-H torsion
[ 10763 10752 10751 10750 ] final  -62.62 input  -60.55 | X-H torsion
[ 11005 11000 10999 10996 ] final   35.67 input  -57.11 | X-H torsion

> <Gold.Protein.ActiveResidues>
 VAL166  LYS551  ARG553  GLY616  TRP617  ASP618  TYR619  PRO620  LYS621  CYS622 
 ASP623  PHE694  ASN695  SER759  ASP760  ASP761  ALA762  ILE779  LEU786  VAL792 
 PHE793  MET794  SER795  GLU796  ALA797  LYS798  CYS799  TRP800  GLU811  SER814 

> <Gold.Protein.RotatedAtoms>
  150.8870  133.7294  159.2915 H   0  0  0  0  0  0  0  0  0  0  0  0  # atno 6907 bound_to 6896
  151.4856  135.1053  159.9799 H   0  0  0  0  0  0  0  0  0  0  0  0  # atno 6908 bound_to 6896
  152.4796  133.8176  159.7092 H   0  0  0  0  0  0  0  0  0  0  0  0  # atno 6909 bound_to 6896
  144.8016  139.7088  143.6179 H   0  0  0  0  0  0  0  0  0  0  0  0  # atno 7974 bound_to 7965
  154.5934  140.0655  156.9270 H   0  0  0  0  0  0  0  0  0  0  0  0  # atno 8008 bound_to 7997
  155.2256  140.3333  155.4291 H   0  0  0  0  0  0  0  0  0  0  0  0  # atno 8009 bound_to 7997
  156.2271  140.1824  156.7320 H   0  0  0  0  0  0  0  0  0  0  0  0  # atno 8010 bound_to 7997
  139.4868  144.5643  151.7174 H   0  0  0  0  0  0  0  0  0  0  0  0  # atno 10167 bound_to 10162
  156.0541  130.4283  150.1900 H   0  0  0  0  0  0  0  0  0  0  0  0  # atno 10718 bound_to 10713
  154.3026  135.6231  153.5431 H   0  0  0  0  0  0  0  0  0  0  0  0  # atno 10763 bound_to 10752
  152.9838  135.5682  154.5266 H   0  0  0  0  0  0  0  0  0  0  0  0  # atno 10764 bound_to 10752
  154.4900  135.2867  155.1480 H   0  0  0  0  0  0  0  0  0  0  0  0  # atno 10765 bound_to 10752
  140.2403  134.3423  155.7928 H   0  0  0  0  0  0  0  0  0  0  0  0  # atno 11005 bound_to 11000
  146.2298  139.5792  142.9563 LP  0  0  0  0  0  0  0  0  0  0  0  0  # atno 17320 bound_to 7965
  145.5540  141.0410  143.2263 LP  0  0  0  0  0  0  0  0  0  0  0  0  # atno 17321 bound_to 7965
  140.5218  144.0867  150.6025 LP  0  0  0  0  0  0  0  0  0  0  0  0  # atno 17342 bound_to 10162
  140.3828  143.2794  152.0151 LP  0  0  0  0  0  0  0  0  0  0  0  0  # atno 17343 bound_to 10162
  156.9978  130.9913  151.3398 LP  0  0  0  0  0  0  0  0  0  0  0  0  # atno 17370 bound_to 10713
  157.5495  130.8173  149.8127 LP  0  0  0  0  0  0  0  0  0  0  0  0  # atno 17371 bound_to 10713
  141.2211  133.7295  156.8875 LP  0  0  0  0  0  0  0  0  0  0  0  0  # atno 17394 bound_to 11000
  140.1660  134.9133  157.2774 LP  0  0  0  0  0  0  0  0  0  0  0  0  # atno 17395 bound_to 11000

$$$$
