AV-unprocessed.smi:3151|AV-procd|sdf|12015|dock8
  -GOLD-   2272017423D 1   1.00000     0.00000
 Structure written by MMmdl.
 36 37  0  0  0  0  0  0  0  0  2 V2000
  152.9173  139.6023  157.8040 O   0  0  0  0  0  0  0  0  0  0  0  0
  152.4188  140.5970  158.3313 C   0  0  0  0  0  0  0  0  0  0  0  0
  153.1004  141.2622  159.5319 C   0  0  0  0  0  0  0  0  0  0  0  0
  152.3102  142.4604  160.0988 C   0  0  0  0  0  0  0  0  0  0  0  0
  152.3854  143.7394  159.2535 C   0  0  0  0  0  0  0  0  0  0  0  0
  152.0910  144.8965  160.2186 C   0  0  0  0  0  0  0  0  0  0  0  0
  152.2134  144.3217  161.6372 C   0  0  0  0  0  0  0  0  0  0  0  0
  152.8045  142.9204  161.4715 C   0  0  0  0  0  0  0  0  0  0  0  0
  151.2777  141.1595  157.9037 N   0  0  0  0  0  0  0  0  0  0  0  0
  150.4750  140.6681  156.7904 C   0  0  0  0  0  0  0  0  0  0  0  0
  151.3537  140.2640  155.5952 C   0  0  0  0  0  0  0  0  0  0  0  0
  151.0617  138.9017  155.1473 N   0  0  0  0  0  0  0  0  0  0  0  0
  151.4378  137.7278  155.7478 C   0  0  0  0  0  0  0  0  0  0  0  0
  150.9428  136.7146  154.9674 C   0  0  0  0  0  0  0  0  0  0  0  0
  150.2877  137.3129  153.9244 N   0  3  0  0  0  0  0  0  0  0  0  0
  150.3619  138.6432  154.0353 C   0  0  0  0  0  0  0  0  0  0  0  0
  153.2232  140.5062  160.3082 H   0  0  0  0  0  0  0  0  0  0  0  0
  154.1055  141.5823  159.2525 H   0  0  0  0  0  0  0  0  0  0  0  0
  151.2599  142.1817  160.2046 H   0  0  0  0  0  0  0  0  0  0  0  0
  153.3913  143.8571  158.8476 H   0  0  0  0  0  0  0  0  0  0  0  0
  151.6937  143.7209  158.4106 H   0  0  0  0  0  0  0  0  0  0  0  0
  152.7933  145.7156  160.0598 H   0  0  0  0  0  0  0  0  0  0  0  0
  151.0877  145.2928  160.0578 H   0  0  0  0  0  0  0  0  0  0  0  0
  152.8219  144.9491  162.2889 H   0  0  0  0  0  0  0  0  0  0  0  0
  151.2219  144.2482  162.0864 H   0  0  0  0  0  0  0  0  0  0  0  0
  152.5052  142.2451  162.2739 H   0  0  0  0  0  0  0  0  0  0  0  0
  153.8940  142.9808  161.4767 H   0  0  0  0  0  0  0  0  0  0  0  0
  150.9380  141.9765  158.3908 H   0  0  0  0  0  0  0  0  0  0  0  0
  149.8630  139.8262  157.1191 H   0  0  0  0  0  0  0  0  0  0  0  0
  149.7824  141.4565  156.4940 H   0  0  0  0  0  0  0  0  0  0  0  0
  151.1937  140.9377  154.7522 H   0  0  0  0  0  0  0  0  0  0  0  0
  152.4136  140.3147  155.8500 H   0  0  0  0  0  0  0  0  0  0  0  0
  152.0146  137.7013  156.6609 H   0  0  0  0  0  0  0  0  0  0  0  0
  151.0067  135.6411  155.0729 H   0  0  0  0  0  0  0  0  0  0  0  0
  149.9408  139.3663  153.3591 H   0  0  0  0  0  0  0  0  0  0  0  0
  149.8152  136.8221  153.1756 H   0  0  0  0  0  0  0  0  0  0  0  0
  1  2  2  0  0  0  0
  2  3  1  0  0  0  0
  2  9  1  0  0  0  0
  3  4  1  0  0  0  0
  3 17  1  0  0  0  0
  3 18  1  0  0  0  0
  4  8  1  0  0  0  0
  4  5  1  0  0  0  0
  4 19  1  0  0  0  0
  5  6  1  0  0  0  0
  5 20  1  0  0  0  0
  5 21  1  0  0  0  0
  6  7  1  0  0  0  0
  6 22  1  0  0  0  0
  6 23  1  0  0  0  0
  7  8  1  0  0  0  0
  7 24  1  0  0  0  0
  7 25  1  0  0  0  0
  8 26  1  0  0  0  0
  8 27  1  0  0  0  0
  9 10  1  0  0  0  0
  9 28  1  0  0  0  0
 10 11  1  0  0  0  0
 10 29  1  0  0  0  0
 10 30  1  0  0  0  0
 11 12  1  0  0  0  0
 11 31  1  0  0  0  0
 11 32  1  0  0  0  0
 12 16  1  0  0  0  0
 12 13  1  0  0  0  0
 13 14  2  0  0  0  0
 13 33  1  0  0  0  0
 14 15  1  0  0  0  0
 14 34  1  0  0  0  0
 15 16  2  0  0  0  0
 15 36  1  0  0  0  0
 16 35  1  0  0  0  0
M  CHG  1  15   1
M  END
> <s_m_source_file>
AV-unprocessed.smi

> <i_m_source_file_index>
3151

> <i_lp_mmshare_version>
43012

> <i_f3d_flags>
0

> <s_epik_input>
W0NIMl0xW0NIMl1bQ0gyXVtDSDJdW0NIXTFbQ0gyXUMoPU8pW05IXVtDSDJdW0NIMl1uMltjSF1bY0hdbltjSF0y

> <s_epik_cmdline>
J2VwaWtfcHl0aG9uJywgJy1waCcsICc3LjAnLCAnLXRuJywgJzgnLCAnLW1hJywgJzIwMCcsICctbWV0YWxfYmluZGluZycsICctaW1hZScsICc8aW5maWxlLm1hZT4nLCAnLW9tYWUnLCAnPG91dGZpbGUubWFlPic=

> <r_lp_tautomer_probability>
1

> <r_epik_Ionization_Penalty>
0.269485

> <r_epik_Ionization_Penalty_Charging>
0

> <r_epik_Ionization_Penalty_Neutral>
0.269485

> <r_epik_State_Penalty>
0.261564

> <r_epik_Charging_Adjusted_Penalty>
0.261564

> <i_epik_Tot_Q>
1

> <i_epik_Tot_abs_Q>
1

> <r_epik_Metal_State_Penalty>
0.546677

> <b_epik_Metal_Only>
0

> <s_lp_Force_Field>
OPLS_2005

> <r_lp_Energy>
22.4511

> <b_lp_Chiralities_Consistent>
1

> <s_lp_Variant>
AV-unprocessed.smi:3151-1

> <Gold.Version>
5.8.1

> <Gold.Id.Protein>
6NUR|6NUR_protein|mol2

> <Gold.PLP.Fitness>
48.7487

> <Gold.PLP.PLP>
-38.2783

> <Gold.PLP.part.hbond>
-3.0000

> <Gold.PLP.part.metal>
0.0000

> <Gold.PLP.part.buried>
-2.4814

> <Gold.PLP.part.nonpolar>
-32.9238

> <Gold.PLP.part.repulsive>
0.1301

> <Gold.PLP.ligand.clash>
0.0000

> <Gold.PLP.ligand.torsion>
0.7767

> <Gold.PLP.Chemscore.Hbond>
3.0000

> <Gold.PLP.Chemscore.CHOScore>
1.0000

> <Gold.PLP.Chemscore.Metal>
0.0000

> <Gold.Chemscore.Hbonds>
donor molecule, donor type, donor heavy atom, donor atom, acceptor molecule, acceptor atom, score
      L1  H    15    36       P1  7948  2.00
      P1  H  7997  8009       L1     1  1.00
      L1  C    16    35       P1  7957  1.00

> <Gold.PLP.Chemscore.Internal.Correction>
0.0238

> <Gold.Rescore>
     Score         DG    S(hbond)    S(metal)    S(lipo)     H(rot)  DE(clash)    DE(int)     intcor
     14.55     -16.92       1.79        0.00      92.20       2.08       0.15       2.22       ----

> <Gold.Chemscore.Fitness>
14.5517

> <Gold.Chemscore.DG>
-16.9242

> <Gold.Chemscore.ZeroCoef>
-5.4800

> <Gold.Chemscore.Hbond>
1.7890

> <Gold.Chemscore.Metal>
0.0000

> <Gold.Chemscore.Lipo>
92.1973

> <Gold.Chemscore.Internal_Hbond>
0.0000

> <Gold.Chemscore.DEClash>
0.1504

> <Gold.Chemscore.DEInternal>
2.2221

> <Gold.Chemscore.Rot>
2.0774

> <Gold.Chemscore.Internal.Correction>
   9.000000E+99

> <Gold.Chemscore.Hbonds>
donor molecule, donor type, donor heavy atom, donor atom, acceptor molecule, acceptor atom, score
      L1  H    15    36       P1  7948  0.25
      P1  H  7997  8009       L1     1  0.72

> <Gold.Chemscore.Hbond.Weighted>
-5.9754

> <Gold.Chemscore.Metal.Weighted>
-0.0000

> <Gold.Chemscore.Lipo.Weighted>
-10.7871

> <Gold.Chemscore.Internal_Hbond.Weighted>
0.0000

> <Gold.Chemscore.DEClash.Weighted>
0.1504

> <Gold.Chemscore.DEInternal.Weighted>
2.2221

> <Gold.Chemscore.Rot.Weighted>
5.3183

> <Gold.Chemscore.Internal.Correction.Weighted>
   9.000000E+99

> <Gold.Protein.RotatedTorsions>
[ 6907 6896 6895 6894 ] final   77.30 input  -60.11 | X-H torsion
[ 7974 7965 7964 7962 ] final    1.88 input  175.53 | X-H torsion
[ 8008 7997 7996 7995 ] final  148.37 input   59.86 | X-H torsion
[ 10167 10162 10161 10158 ] final  -37.47 input  -65.29 | X-H torsion
[ 10718 10713 10712 10709 ] final  153.62 input   66.30 | X-H torsion
[ 10763 10752 10751 10750 ] final   28.18 input  -60.55 | X-H torsion
[ 11005 11000 10999 10996 ] final  -19.87 input  -57.11 | X-H torsion

> <Gold.Protein.ActiveResidues>
 VAL166  LYS551  ARG553  GLY616  TRP617  ASP618  TYR619  PRO620  LYS621  CYS622 
 ASP623  PHE694  ASN695  SER759  ASP760  ASP761  ALA762  ILE779  LEU786  VAL792 
 PHE793  MET794  SER795  GLU796  ALA797  LYS798  CYS799  TRP800  GLU811  SER814 

> <Gold.Protein.RotatedAtoms>
  152.5111  134.3837  159.9359 H   0  0  0  0  0  0  0  0  0  0  0  0  # atno 6907 bound_to 6896
  151.3795  133.3820  159.2716 H   0  0  0  0  0  0  0  0  0  0  0  0  # atno 6908 bound_to 6896
  150.9515  134.8935  159.7734 H   0  0  0  0  0  0  0  0  0  0  0  0  # atno 6909 bound_to 6896
  146.2442  140.0921  142.8351 H   0  0  0  0  0  0  0  0  0  0  0  0  # atno 7974 bound_to 7965
  156.2793  140.2130  156.5687 H   0  0  0  0  0  0  0  0  0  0  0  0  # atno 8008 bound_to 7997
  154.7153  140.0508  157.0612 H   0  0  0  0  0  0  0  0  0  0  0  0  # atno 8009 bound_to 7997
  155.0551  140.3160  155.4682 H   0  0  0  0  0  0  0  0  0  0  0  0  # atno 8010 bound_to 7997
  140.7117  143.3340  151.2505 H   0  0  0  0  0  0  0  0  0  0  0  0  # atno 10167 bound_to 10162
  157.2423  131.0762  151.1784 H   0  0  0  0  0  0  0  0  0  0  0  0  # atno 10718 bound_to 10713
  153.0508  135.6519  154.0698 H   0  0  0  0  0  0  0  0  0  0  0  0  # atno 10763 bound_to 10752
  154.0387  135.2905  155.3359 H   0  0  0  0  0  0  0  0  0  0  0  0  # atno 10764 bound_to 10752
  154.6795  135.5325  153.8311 H   0  0  0  0  0  0  0  0  0  0  0  0  # atno 10765 bound_to 10752
  140.8409  133.7927  155.9859 H   0  0  0  0  0  0  0  0  0  0  0  0  # atno 11005 bound_to 11000
  145.0642  140.9109  143.4921 LP  0  0  0  0  0  0  0  0  0  0  0  0  # atno 17320 bound_to 7965
  145.1042  139.2801  143.5671 LP  0  0  0  0  0  0  0  0  0  0  0  0  # atno 17321 bound_to 7965
  139.6830  143.9823  152.2818 LP  0  0  0  0  0  0  0  0  0  0  0  0  # atno 17342 bound_to 10162
  139.9459  144.6652  150.8220 LP  0  0  0  0  0  0  0  0  0  0  0  0  # atno 17343 bound_to 10162
  157.3365  130.7011  149.6356 LP  0  0  0  0  0  0  0  0  0  0  0  0  # atno 17370 bound_to 10713
  155.9669  130.4292  150.4823 LP  0  0  0  0  0  0  0  0  0  0  0  0  # atno 17371 bound_to 10713
  140.8896  134.2511  157.5101 LP  0  0  0  0  0  0  0  0  0  0  0  0  # atno 17394 bound_to 11000
  139.8703  134.9655  156.4531 LP  0  0  0  0  0  0  0  0  0  0  0  0  # atno 17395 bound_to 11000

$$$$
