AV-unprocessed.smi:3194|AV-procd|sdf|12209|dock4
  -GOLD-   2272018 43D 1   1.00000     0.00000
 Structure written by MMmdl.
 28 28  0  0  0  0  0  0  0  0  1 V2000
  148.7910  139.1222  154.1264 C   0  0  0  0  0  0  0  0  0  0  0  0
  149.2471  140.5413  154.4982 C   0  0  1  0  0  0  0  0  0  0  0  0
  148.0924  141.5609  154.4439 C   0  0  0  0  0  0  0  0  0  0  0  0
  148.0747  142.3507  155.6143 O   0  0  0  0  0  0  0  0  0  0  0  0
  149.8393  140.5152  155.8325 N   0  0  0  0  0  0  0  0  0  0  0  0
  151.1061  140.1727  156.1219 C   0  0  0  0  0  0  0  0  0  0  0  0
  151.9275  139.8503  155.2627 O   0  0  0  0  0  0  0  0  0  0  0  0
  151.5057  140.1879  157.6052 C   0  0  0  0  0  0  0  0  0  0  0  0
  150.5442  139.5933  158.3153 F   0  0  0  0  0  0  0  0  0  0  0  0
  152.6273  139.4808  157.7671 F   0  0  0  0  0  0  0  0  0  0  0  0
  151.7108  141.6225  158.0841 C   0  0  0  0  0  0  0  0  0  0  0  0
  152.2290  141.8933  159.3711 C   0  0  0  0  0  0  0  0  0  0  0  0
  152.3857  143.2354  159.7677 C   0  0  0  0  0  0  0  0  0  0  0  0
  152.0194  144.2560  158.8701 C   0  0  0  0  0  0  0  0  0  0  0  0
  151.5087  143.8872  157.6104 C   0  0  0  0  0  0  0  0  0  0  0  0
  151.3540  142.6039  157.2206 N   0  0  0  0  0  0  0  0  0  0  0  0
  150.0190  140.8429  153.7874 H   0  0  0  0  0  0  0  0  0  0  0  0
  148.3830  139.0899  153.1159 H   0  0  0  0  0  0  0  0  0  0  0  0
  148.0205  138.7605  154.8080 H   0  0  0  0  0  0  0  0  0  0  0  0
  149.6250  138.4205  154.1641 H   0  0  0  0  0  0  0  0  0  0  0  0
  148.1775  142.2047  153.5677 H   0  0  0  0  0  0  0  0  0  0  0  0
  147.1304  141.0517  154.3763 H   0  0  0  0  0  0  0  0  0  0  0  0
  148.1950  143.2551  155.3681 H   0  0  0  0  0  0  0  0  0  0  0  0
  149.2336  140.7620  156.6022 H   0  0  0  0  0  0  0  0  0  0  0  0
  152.4968  141.0932  160.0452 H   0  0  0  0  0  0  0  0  0  0  0  0
  152.7785  143.4770  160.7443 H   0  0  0  0  0  0  0  0  0  0  0  0
  152.1260  145.2962  159.1405 H   0  0  0  0  0  0  0  0  0  0  0  0
  151.2157  144.6429  156.8967 H   0  0  0  0  0  0  0  0  0  0  0  0
  1  2  1  0  0  0  0
  1 18  1  0  0  0  0
  1 19  1  0  0  0  0
  1 20  1  0  0  0  0
  2 17  1  0  0  0  0
  2  3  1  0  0  0  0
  2  5  1  0  0  0  0
  3  4  1  0  0  0  0
  3 21  1  0  0  0  0
  3 22  1  0  0  0  0
  4 23  1  0  0  0  0
  5  6  1  0  0  0  0
  5 24  1  0  0  0  0
  6  7  2  0  0  0  0
  6  8  1  0  0  0  0
  8  9  1  0  0  0  0
  8 10  1  0  0  0  0
  8 11  1  0  0  0  0
 11 16  1  0  0  0  0
 11 12  2  0  0  0  0
 12 13  1  0  0  0  0
 12 25  1  0  0  0  0
 13 14  2  0  0  0  0
 13 26  1  0  0  0  0
 14 15  1  0  0  0  0
 14 27  1  0  0  0  0
 15 16  2  0  0  0  0
 15 28  1  0  0  0  0
M  END
> <s_m_source_file>
AV-unprocessed.smi

> <i_m_source_file_index>
3194

> <i_lp_mmshare_version>
43012

> <i_f3d_flags>
0

> <s_epik_input>
W09IXVtDSDJdW0NASF0oW0NIM10pW05IXUMoPU8pQyhGKShGKWMxW2NIXVtjSF1bY0hdW2NIXW4x

> <s_epik_cmdline>
J2VwaWtfcHl0aG9uJywgJy1waCcsICc3LjAnLCAnLXRuJywgJzgnLCAnLW1hJywgJzIwMCcsICctbWV0YWxfYmluZGluZycsICctaW1hZScsICc8aW5maWxlLm1hZT4nLCAnLW9tYWUnLCAnPG91dGZpbGUubWFlPic=

> <r_lp_tautomer_probability>
1

> <r_epik_Ionization_Penalty>
3.67967e-05

> <r_epik_Ionization_Penalty_Charging>
0

> <r_epik_Ionization_Penalty_Neutral>
3.67967e-05

> <r_epik_State_Penalty>
-0

> <r_epik_Charging_Adjusted_Penalty>
0

> <i_epik_Tot_Q>
0

> <i_epik_Tot_abs_Q>
0

> <r_epik_Metal_State_Penalty>
0.0311521

> <b_epik_Metal_Only>
0

> <s_lp_Force_Field>
OPLS_2005

> <r_lp_Energy>
9.58736

> <b_lp_Chiralities_Consistent>
1

> <s_lp_Variant>
AV-unprocessed.smi:3194-1

> <Gold.Version>
5.8.1

> <Gold.Id.Protein>
6NUR|6NUR_protein|mol2

> <Gold.PLP.Fitness>
37.7028

> <Gold.PLP.PLP>
-32.7909

> <Gold.PLP.part.hbond>
-2.0000

> <Gold.PLP.part.metal>
0.0000

> <Gold.PLP.part.buried>
-2.7458

> <Gold.PLP.part.nonpolar>
-29.0071

> <Gold.PLP.part.repulsive>
0.1736

> <Gold.PLP.ligand.clash>
0.0000

> <Gold.PLP.ligand.torsion>
1.8297

> <Gold.PLP.Chemscore.Hbond>
1.8960

> <Gold.PLP.Chemscore.CHOScore>
0.9494

> <Gold.PLP.Chemscore.Metal>
0.0000

> <Gold.Chemscore.Hbonds>
donor molecule, donor type, donor heavy atom, donor atom, acceptor molecule, acceptor atom, score
      L1  H     4    23       P1  8028  1.00
      P1  H  7989  7998       L1     7  0.86
      L1  C    15    28       P1  8028  0.76

> <Gold.PLP.Chemscore.Internal.Correction>
0.0352

> <Gold.Rescore>
     Score         DG    S(hbond)    S(metal)    S(lipo)     H(rot)  DE(clash)    DE(int)     intcor
     11.21     -14.13       1.87        0.00      75.29       2.50       0.00       2.93       ----

> <Gold.Chemscore.Fitness>
11.2054

> <Gold.Chemscore.DG>
-14.1321

> <Gold.Chemscore.ZeroCoef>
-5.4800

> <Gold.Chemscore.Hbond>
1.8669

> <Gold.Chemscore.Metal>
0.0000

> <Gold.Chemscore.Lipo>
75.2905

> <Gold.Chemscore.Internal_Hbond>
0.0000

> <Gold.Chemscore.DEClash>
0.0015

> <Gold.Chemscore.DEInternal>
2.9253

> <Gold.Chemscore.Rot>
2.4970

> <Gold.Chemscore.Internal.Correction>
   9.000000E+99

> <Gold.Chemscore.Hbonds>
donor molecule, donor type, donor heavy atom, donor atom, acceptor molecule, acceptor atom, score
      L1  H     4    23       P1  8028  0.86
      P1  H  7989  7998       L1     7  0.69

> <Gold.Chemscore.Hbond.Weighted>
-6.2353

> <Gold.Chemscore.Metal.Weighted>
-0.0000

> <Gold.Chemscore.Lipo.Weighted>
-8.8090

> <Gold.Chemscore.Internal_Hbond.Weighted>
0.0000

> <Gold.Chemscore.DEClash.Weighted>
0.0015

> <Gold.Chemscore.DEInternal.Weighted>
2.9253

> <Gold.Chemscore.Rot.Weighted>
6.3922

> <Gold.Chemscore.Internal.Correction.Weighted>
   9.000000E+99

> <Gold.Protein.RotatedTorsions>
[ 6907 6896 6895 6894 ] final  -51.95 input  -60.11 | X-H torsion
[ 7974 7965 7964 7962 ] final -108.15 input  175.53 | X-H torsion
[ 8008 7997 7996 7995 ] final -150.21 input   59.86 | X-H torsion
[ 10167 10162 10161 10158 ] final -128.35 input  -65.29 | X-H torsion
[ 10718 10713 10712 10709 ] final -172.40 input   66.30 | X-H torsion
[ 10763 10752 10751 10750 ] final -178.82 input  -60.55 | X-H torsion
[ 11005 11000 10999 10996 ] final -123.11 input  -57.11 | X-H torsion

> <Gold.Protein.ActiveResidues>
 VAL166  LYS551  ARG553  GLY616  TRP617  ASP618  TYR619  PRO620  LYS621  CYS622 
 ASP623  PHE694  ASN695  SER759  ASP760  ASP761  ALA762  ILE779  LEU786  VAL792 
 PHE793  MET794  SER795  GLU796  ALA797  LYS798  CYS799  TRP800  GLU811  SER814 

> <Gold.Protein.RotatedAtoms>
  150.8563  134.7902  159.7047 H   0  0  0  0  0  0  0  0  0  0  0  0  # atno 6907 bound_to 6896
  152.4613  134.5173  159.9782 H   0  0  0  0  0  0  0  0  0  0  0  0  # atno 6908 bound_to 6896
  151.5285  133.3415  159.2949 H   0  0  0  0  0  0  0  0  0  0  0  0  # atno 6909 bound_to 6896
  145.1965  140.9037  143.3394 H   0  0  0  0  0  0  0  0  0  0  0  0  # atno 7974 bound_to 7965
  155.6200  140.0680  157.2681 H   0  0  0  0  0  0  0  0  0  0  0  0  # atno 8008 bound_to 7997
  154.4231  140.1786  156.1410 H   0  0  0  0  0  0  0  0  0  0  0  0  # atno 8009 bound_to 7997
  156.0017  140.3335  155.6855 H   0  0  0  0  0  0  0  0  0  0  0  0  # atno 8010 bound_to 7997
  139.9512  143.6054  152.2475 H   0  0  0  0  0  0  0  0  0  0  0  0  # atno 10167 bound_to 10162
  156.7551  130.9392  151.3116 H   0  0  0  0  0  0  0  0  0  0  0  0  # atno 10718 bound_to 10713
  154.5428  135.2807  155.1080 H   0  0  0  0  0  0  0  0  0  0  0  0  # atno 10763 bound_to 10752
  154.2556  135.6331  153.5259 H   0  0  0  0  0  0  0  0  0  0  0  0  # atno 10764 bound_to 10752
  152.9983  135.5593  154.5972 H   0  0  0  0  0  0  0  0  0  0  0  0  # atno 10765 bound_to 10752
  140.9944  134.0493  157.3615 H   0  0  0  0  0  0  0  0  0  0  0  0  # atno 11005 bound_to 11000
  144.9990  139.3616  143.6177 LP  0  0  0  0  0  0  0  0  0  0  0  0  # atno 17320 bound_to 7965
  146.3426  139.9205  142.8767 LP  0  0  0  0  0  0  0  0  0  0  0  0  # atno 17321 bound_to 7965
  139.6627  144.7662  151.1932 LP  0  0  0  0  0  0  0  0  0  0  0  0  # atno 17342 bound_to 10162
  140.7582  143.5985  150.8723 LP  0  0  0  0  0  0  0  0  0  0  0  0  # atno 17343 bound_to 10162
  157.6760  130.9095  150.0151 LP  0  0  0  0  0  0  0  0  0  0  0  0  # atno 17370 bound_to 10713
  156.1376  130.3642  149.9633 LP  0  0  0  0  0  0  0  0  0  0  0  0  # atno 17371 bound_to 10713
  139.9007  135.0163  156.7256 LP  0  0  0  0  0  0  0  0  0  0  0  0  # atno 17394 bound_to 11000
  140.6989  133.9324  155.8012 LP  0  0  0  0  0  0  0  0  0  0  0  0  # atno 17395 bound_to 11000

$$$$
