AV-unprocessed.smi:766|AV-procd|sdf|3654|dock4
  -GOLD-   22720 1 63D 1   1.00000     0.00000
 Structure written by MMmdl.
 48 50  0  0  0  0  0  0  0  0  3 V2000
  152.8157  143.7379  160.1265 C   0  0  0  0  0  0  0  0  0  0  0  0
  152.3732  142.8274  158.9935 C   0  0  0  0  0  0  0  0  0  0  0  0
  151.5561  143.3666  157.9746 C   0  0  0  0  0  0  0  0  0  0  0  0
  151.1660  142.5083  156.9532 C   0  0  0  0  0  0  0  0  0  0  0  0
  150.3747  142.7314  155.8246 N   0  3  0  0  0  0  0  0  0  0  0  0
  150.2666  141.5776  155.1094 C   0  0  0  0  0  0  0  0  0  0  0  0
  150.9799  140.6201  155.7632 N   0  0  0  0  0  0  0  0  0  0  0  0
  151.1752  139.2014  155.4275 C   0  0  0  0  0  0  0  0  0  0  0  0
  150.5111  138.7953  154.0969 C   0  0  1  0  0  0  0  0  0  0  0  0
  150.7354  137.4206  153.8512 O   0  0  0  0  0  0  0  0  0  0  0  0
  148.9945  139.0492  154.1218 C   0  0  0  0  0  0  0  0  0  0  0  0
  148.4002  138.9121  152.7774 N   0  3  0  0  0  0  0  0  0  0  0  0
  146.9312  139.0608  152.7529 C   0  0  0  0  0  0  0  0  0  0  0  0
  146.3217  138.4514  151.4778 C   0  0  0  0  0  0  0  0  0  0  0  0
  146.0317  137.0319  151.6028 N   0  0  0  0  0  0  0  0  0  0  0  0
  145.7368  136.1302  150.6013 C   0  0  0  0  0  0  0  0  0  0  0  0
  145.5673  134.9092  151.1888 C   0  0  0  0  0  0  0  0  0  0  0  0
  145.7969  135.1631  152.5696 C   0  0  0  0  0  0  0  0  0  0  0  0
  146.0808  136.4325  152.8130 N   0  0  0  0  0  0  0  0  0  0  0  0
  151.5591  141.1560  156.9207 C   0  0  0  0  0  0  0  0  0  0  0  0
  152.3674  140.6101  157.9157 C   0  0  0  0  0  0  0  0  0  0  0  0
  152.7736  141.4665  158.9640 C   0  0  0  0  0  0  0  0  0  0  0  0
  153.6531  140.8972  160.0645 C   0  0  0  0  0  0  0  0  0  0  0  0
  152.4553  144.7570  159.9833 H   0  0  0  0  0  0  0  0  0  0  0  0
  153.9035  143.7757  160.1873 H   0  0  0  0  0  0  0  0  0  0  0  0
  152.4273  143.3783  161.0796 H   0  0  0  0  0  0  0  0  0  0  0  0
  151.2470  144.4015  157.9904 H   0  0  0  0  0  0  0  0  0  0  0  0
  149.7104  141.4458  154.1924 H   0  0  0  0  0  0  0  0  0  0  0  0
  152.2420  138.9760  155.4221 H   0  0  0  0  0  0  0  0  0  0  0  0
  150.7484  138.6193  156.2452 H   0  0  0  0  0  0  0  0  0  0  0  0
  150.9645  139.3667  153.2857 H   0  0  0  0  0  0  0  0  0  0  0  0
  150.1613  137.1428  153.1532 H   0  0  0  0  0  0  0  0  0  0  0  0
  148.5029  138.3658  154.8159 H   0  0  0  0  0  0  0  0  0  0  0  0
  148.7989  140.0613  154.4790 H   0  0  0  0  0  0  0  0  0  0  0  0
  148.8003  139.6194  152.1775 H   0  0  0  0  0  0  0  0  0  0  0  0
  146.5119  138.5676  153.6307 H   0  0  0  0  0  0  0  0  0  0  0  0
  146.6676  140.1164  152.8317 H   0  0  0  0  0  0  0  0  0  0  0  0
  145.4008  138.9741  151.2153 H   0  0  0  0  0  0  0  0  0  0  0  0
  147.0064  138.5831  150.6390 H   0  0  0  0  0  0  0  0  0  0  0  0
  145.6715  136.4280  149.5650 H   0  0  0  0  0  0  0  0  0  0  0  0
  145.3236  133.9748  150.7048 H   0  0  0  0  0  0  0  0  0  0  0  0
  145.7693  134.4676  153.3955 H   0  0  0  0  0  0  0  0  0  0  0  0
  152.6781  139.5760  157.8948 H   0  0  0  0  0  0  0  0  0  0  0  0
  153.8313  139.8308  159.9222 H   0  0  0  0  0  0  0  0  0  0  0  0
  153.1822  141.0273  161.0392 H   0  0  0  0  0  0  0  0  0  0  0  0
  154.6213  141.3985  160.0772 H   0  0  0  0  0  0  0  0  0  0  0  0
  148.6412  138.0021  152.4108 H   0  0  0  0  0  0  0  0  0  0  0  0
  149.9355  143.6048  155.5628 H   0  0  0  0  0  0  0  0  0  0  0  0
  1  2  1  0  0  0  0
  1 24  1  0  0  0  0
  1 25  1  0  0  0  0
  1 26  1  0  0  0  0
  2 22  1  0  0  0  0
  2  3  2  0  0  0  0
  3  4  1  0  0  0  0
  3 27  1  0  0  0  0
  4 20  2  0  0  0  0
  4  5  1  0  0  0  0
  5  6  2  0  0  0  0
  5 48  1  0  0  0  0
  6  7  1  0  0  0  0
  6 28  1  0  0  0  0
  7  8  1  0  0  0  0
  7 20  1  0  0  0  0
  8  9  1  0  0  0  0
  8 29  1  0  0  0  0
  8 30  1  0  0  0  0
  9 10  1  0  0  0  0
  9 11  1  0  0  0  0
  9 31  1  0  0  0  0
 10 32  1  0  0  0  0
 11 12  1  0  0  0  0
 11 33  1  0  0  0  0
 11 34  1  0  0  0  0
 12 13  1  0  0  0  0
 12 35  1  0  0  0  0
 12 47  1  0  0  0  0
 13 14  1  0  0  0  0
 13 36  1  0  0  0  0
 13 37  1  0  0  0  0
 14 15  1  0  0  0  0
 14 38  1  0  0  0  0
 14 39  1  0  0  0  0
 15 19  1  0  0  0  0
 15 16  1  0  0  0  0
 16 17  2  0  0  0  0
 16 40  1  0  0  0  0
 17 18  1  0  0  0  0
 17 41  1  0  0  0  0
 18 19  2  0  0  0  0
 18 42  1  0  0  0  0
 20 21  1  0  0  0  0
 21 22  2  0  0  0  0
 21 43  1  0  0  0  0
 22 23  1  0  0  0  0
 23 44  1  0  0  0  0
 23 45  1  0  0  0  0
 23 46  1  0  0  0  0
M  CHG  1   5   1
M  CHG  1  12   1
M  END
> <s_m_source_file>
AV-unprocessed.smi

> <i_m_source_file_index>
766

> <i_lp_mmshare_version>
43012

> <i_f3d_flags>
0

> <s_epik_input>
W0NIM11jKFtjSF0xKWMoW0NIM10pW2NIXWMoYzEyKW4oW2NIXW4yKVtDSDJdW0NASF0oW09IXSlbQ0gyXVtOSF1bQ0gyXVtDSDJdbjNbY0hdW2NIXVtjSF1uMw==

> <s_epik_cmdline>
J2VwaWtfcHl0aG9uJywgJy1waCcsICc3LjAnLCAnLXRuJywgJzgnLCAnLW1hJywgJzIwMCcsICctbWV0YWxfYmluZGluZycsICctaW1hZScsICc8aW5maWxlLm1hZT4nLCAnLW9tYWUnLCAnPG91dGZpbGUubWFlPic=

> <r_lp_tautomer_probability>
1

> <r_epik_Ionization_Penalty>
1.25103

> <r_epik_Ionization_Penalty_Charging>
1.25102

> <r_epik_Ionization_Penalty_Neutral>
6.05394e-06

> <r_epik_State_Penalty>
1.2613

> <r_epik_Charging_Adjusted_Penalty>
2.51232

> <i_epik_Tot_Q>
2

> <i_epik_Tot_abs_Q>
2

> <r_epik_Metal_State_Penalty>
1.33164

> <b_epik_Metal_Only>
0

> <s_lp_Force_Field>
OPLS_2005

> <r_lp_Energy>
19.1357

> <b_lp_Chiralities_Consistent>
1

> <s_lp_Variant>
AV-unprocessed.smi:766-4

> <Gold.Version>
5.8.1

> <Gold.Id.Protein>
6NUR|6NUR_protein|mol2

> <Gold.PLP.Fitness>
70.2329

> <Gold.PLP.PLP>
-50.2466

> <Gold.PLP.part.hbond>
-4.9194

> <Gold.PLP.part.metal>
0.0000

> <Gold.PLP.part.buried>
-1.6442

> <Gold.PLP.part.nonpolar>
-44.2828

> <Gold.PLP.part.repulsive>
0.3625

> <Gold.PLP.ligand.clash>
0.0754

> <Gold.PLP.ligand.torsion>
0.4538

> <Gold.PLP.Chemscore.Hbond>
6.0000

> <Gold.PLP.Chemscore.CHOScore>
0.9640

> <Gold.PLP.Chemscore.Metal>
0.0000

> <Gold.Chemscore.Hbonds>
donor molecule, donor type, donor heavy atom, donor atom, acceptor molecule, acceptor atom, score
      L1  H     5    48       P1  8028  1.98
      L1  H    10    32       P1  7948  0.70
      L1  H    12    35       P1  7957  0.57
      L1  H    12    47       P1  7948  2.00
      L1  C    16    40       P1  7921  0.86
      L1  C    16    40       P1 10171  0.14

> <Gold.PLP.Chemscore.Internal.Correction>
0.0774

> <Gold.Rescore>
     Score         DG    S(hbond)    S(metal)    S(lipo)     H(rot)  DE(clash)    DE(int)     intcor
     21.07     -22.81       3.45        0.00     115.73       3.02       0.15       1.58       ----

> <Gold.Chemscore.Fitness>
21.0729

> <Gold.Chemscore.DG>
-22.8062

> <Gold.Chemscore.ZeroCoef>
-5.4800

> <Gold.Chemscore.Hbond>
3.4505

> <Gold.Chemscore.Metal>
0.0000

> <Gold.Chemscore.Lipo>
115.7280

> <Gold.Chemscore.Internal_Hbond>
0.0000

> <Gold.Chemscore.DEClash>
0.1508

> <Gold.Chemscore.DEInternal>
1.5825

> <Gold.Chemscore.Rot>
3.0229

> <Gold.Chemscore.Internal.Correction>
   9.000000E+99

> <Gold.Chemscore.Hbonds>
donor molecule, donor type, donor heavy atom, donor atom, acceptor molecule, acceptor atom, score
      L1  H     5    48       P1  8028  0.91
      L1  H    10    32       P1  7948  0.07
      L1  H    12    35       P1  7957  0.55
      L1  H    12    47       P1  7948  1.00

> <Gold.Chemscore.Hbond.Weighted>
-11.5246

> <Gold.Chemscore.Metal.Weighted>
-0.0000

> <Gold.Chemscore.Lipo.Weighted>
-13.5402

> <Gold.Chemscore.Internal_Hbond.Weighted>
0.0000

> <Gold.Chemscore.DEClash.Weighted>
0.1508

> <Gold.Chemscore.DEInternal.Weighted>
1.5825

> <Gold.Chemscore.Rot.Weighted>
7.7386

> <Gold.Chemscore.Internal.Correction.Weighted>
   9.000000E+99

> <Gold.Protein.RotatedTorsions>
[ 6907 6896 6895 6894 ] final -152.29 input  -60.11 | X-H torsion
[ 7974 7965 7964 7962 ] final  -56.38 input  175.53 | X-H torsion
[ 8008 7997 7996 7995 ] final  102.40 input   59.86 | X-H torsion
[ 10167 10162 10161 10158 ] final -122.88 input  -65.29 | X-H torsion
[ 10718 10713 10712 10709 ] final  -41.27 input   66.30 | X-H torsion
[ 10763 10752 10751 10750 ] final -124.84 input  -60.55 | X-H torsion
[ 11005 11000 10999 10996 ] final  158.76 input  -57.11 | X-H torsion

> <Gold.Protein.ActiveResidues>
 VAL166  LYS551  ARG553  GLY616  TRP617  ASP618  TYR619  PRO620  LYS621  CYS622 
 ASP623  PHE694  ASN695  SER759  ASP760  ASP761  ALA762  ILE779  LEU786  VAL792 
 PHE793  MET794  SER795  GLU796  ALA797  LYS798  CYS799  TRP800  GLU811  SER814 

> <Gold.Protein.RotatedAtoms>
  151.2257  133.4478  159.2601 H   0  0  0  0  0  0  0  0  0  0  0  0  # atno 6907 bound_to 6896
  151.0842  134.9877  159.8381 H   0  0  0  0  0  0  0  0  0  0  0  0  # atno 6908 bound_to 6896
  152.5428  134.2194  159.8834 H   0  0  0  0  0  0  0  0  0  0  0  0  # atno 6909 bound_to 6896
  145.8634  140.8269  142.9925 H   0  0  0  0  0  0  0  0  0  0  0  0  # atno 7974 bound_to 7965
  156.1389  140.3182  155.8464 H   0  0  0  0  0  0  0  0  0  0  0  0  # atno 8008 bound_to 7997
  155.4192  140.0511  157.3044 H   0  0  0  0  0  0  0  0  0  0  0  0  # atno 8009 bound_to 7997
  154.4960  140.2111  155.9459 H   0  0  0  0  0  0  0  0  0  0  0  0  # atno 8010 bound_to 7997
  140.0095  143.5456  152.2269 H   0  0  0  0  0  0  0  0  0  0  0  0  # atno 10167 bound_to 10162
  156.2722  130.4208  149.8426 H   0  0  0  0  0  0  0  0  0  0  0  0  # atno 10718 bound_to 10713
  154.8728  135.4050  154.3171 H   0  0  0  0  0  0  0  0  0  0  0  0  # atno 10763 bound_to 10752
  153.4006  135.7018  153.6434 H   0  0  0  0  0  0  0  0  0  0  0  0  # atno 10764 bound_to 10752
  153.5179  135.3693  155.2589 H   0  0  0  0  0  0  0  0  0  0  0  0  # atno 10765 bound_to 10752
  140.1896  134.8416  157.2897 H   0  0  0  0  0  0  0  0  0  0  0  0  # atno 11005 bound_to 11000
  144.6726  140.1129  143.7454 LP  0  0  0  0  0  0  0  0  0  0  0  0  # atno 17320 bound_to 7965
  145.9222  139.2553  143.1375 LP  0  0  0  0  0  0  0  0  0  0  0  0  # atno 17321 bound_to 7965
  139.6215  144.7630  151.2730 LP  0  0  0  0  0  0  0  0  0  0  0  0  # atno 17342 bound_to 10162
  140.7387  143.6640  150.8139 LP  0  0  0  0  0  0  0  0  0  0  0  0  # atno 17343 bound_to 10162
  156.5903  130.8503  151.3406 LP  0  0  0  0  0  0  0  0  0  0  0  0  # atno 17370 bound_to 10713
  157.7287  130.9661  150.1756 LP  0  0  0  0  0  0  0  0  0  0  0  0  # atno 17371 bound_to 10713
  140.2174  134.4065  155.7582 LP  0  0  0  0  0  0  0  0  0  0  0  0  # atno 17394 bound_to 11000
  141.2226  133.7149  156.8436 LP  0  0  0  0  0  0  0  0  0  0  0  0  # atno 17395 bound_to 11000

$$$$
