AV-unprocessed.smi:486|AV-procd|sdf|2695|dock1
  -GOLD-   2262023123D 1   1.00000     0.00000
 Structure written by MMmdl.
 43 45  0  0  0  0  0  0  0  0  1 V2000
  144.4419  142.9714  155.4141 C   0  0  0  0  0  0  0  0  0  0  0  0
  144.9655  141.7035  155.7814 O   0  0  0  0  0  0  0  0  0  0  0  0
  146.2301  141.3724  155.3437 C   0  0  0  0  0  0  0  0  0  0  0  0
  146.7769  140.1638  155.8173 C   0  0  0  0  0  0  0  0  0  0  0  0
  148.0619  139.7495  155.4194 C   0  0  0  0  0  0  0  0  0  0  0  0
  148.8333  140.5347  154.5404 C   0  0  0  0  0  0  0  0  0  0  0  0
  150.0815  140.0565  154.2038 O   0  0  0  0  0  0  0  0  0  0  0  0
  150.7377  139.1840  155.1147 C   0  0  0  0  0  0  0  0  0  0  0  0
  151.5507  140.0275  156.1092 C   0  0  2  0  0  0  0  0  0  0  0  0
  152.8635  139.5052  156.1684 O   0  0  0  0  0  0  0  0  0  0  0  0
  150.9339  140.0040  157.5229 C   0  0  0  0  0  0  0  0  0  0  0  0
  151.7500  140.7028  158.5072 N   0  0  0  0  0  0  0  0  0  0  0  0
  152.6358  140.1694  159.3840 C   0  0  0  0  0  0  0  0  0  0  0  0
  152.9009  138.6984  159.4421 C   0  0  0  0  0  0  0  0  0  0  0  0
  153.2574  141.0361  160.1837 N   0  0  0  0  0  0  0  0  0  0  0  0
  152.7262  142.2483  159.7870 C   0  0  0  0  0  0  0  0  0  0  0  0
  152.9803  143.5582  160.2526 C   0  0  0  0  0  0  0  0  0  0  0  0
  152.3080  144.6607  159.6850 C   0  0  0  0  0  0  0  0  0  0  0  0
  151.3736  144.4693  158.6467 C   0  0  0  0  0  0  0  0  0  0  0  0
  151.1052  143.1723  158.1682 C   0  0  0  0  0  0  0  0  0  0  0  0
  151.7794  142.0752  158.7373 C   0  0  0  0  0  0  0  0  0  0  0  0
  148.2877  141.7510  154.0610 C   0  0  0  0  0  0  0  0  0  0  0  0
  147.0010  142.1649  154.4579 C   0  0  0  0  0  0  0  0  0  0  0  0
  143.4393  143.0803  155.8273 H   0  0  0  0  0  0  0  0  0  0  0  0
  144.3639  143.0713  154.3308 H   0  0  0  0  0  0  0  0  0  0  0  0
  145.0516  143.7850  155.8097 H   0  0  0  0  0  0  0  0  0  0  0  0
  146.2045  139.5460  156.4937 H   0  0  0  0  0  0  0  0  0  0  0  0
  148.4602  138.8180  155.7945 H   0  0  0  0  0  0  0  0  0  0  0  0
  149.9770  138.6202  155.6572 H   0  0  0  0  0  0  0  0  0  0  0  0
  151.3802  138.4680  154.5989 H   0  0  0  0  0  0  0  0  0  0  0  0
  151.5990  141.0580  155.7564 H   0  0  0  0  0  0  0  0  0  0  0  0
  152.8611  138.7569  156.7459 H   0  0  0  0  0  0  0  0  0  0  0  0
  149.9412  140.4552  157.5107 H   0  0  0  0  0  0  0  0  0  0  0  0
  150.7918  138.9752  157.8562 H   0  0  0  0  0  0  0  0  0  0  0  0
  153.5902  138.4661  160.2547 H   0  0  0  0  0  0  0  0  0  0  0  0
  153.3464  138.3592  158.5069 H   0  0  0  0  0  0  0  0  0  0  0  0
  151.9752  138.1499  159.6132 H   0  0  0  0  0  0  0  0  0  0  0  0
  153.6938  143.7151  161.0479 H   0  0  0  0  0  0  0  0  0  0  0  0
  152.5103  145.6574  160.0487 H   0  0  0  0  0  0  0  0  0  0  0  0
  150.8618  145.3187  158.2185 H   0  0  0  0  0  0  0  0  0  0  0  0
  150.3871  143.0220  157.3758 H   0  0  0  0  0  0  0  0  0  0  0  0
  148.8367  142.3875  153.3840 H   0  0  0  0  0  0  0  0  0  0  0  0
  146.6269  143.0984  154.0663 H   0  0  0  0  0  0  0  0  0  0  0  0
  1  2  1  0  0  0  0
  1 24  1  0  0  0  0
  1 25  1  0  0  0  0
  1 26  1  0  0  0  0
  2  3  1  0  0  0  0
  3 23  1  0  0  0  0
  3  4  2  0  0  0  0
  4  5  1  0  0  0  0
  4 27  1  0  0  0  0
  5  6  2  0  0  0  0
  5 28  1  0  0  0  0
  6  7  1  0  0  0  0
  6 22  1  0  0  0  0
  7  8  1  0  0  0  0
  8  9  1  0  0  0  0
  8 29  1  0  0  0  0
  8 30  1  0  0  0  0
  9 10  1  0  0  0  0
  9 11  1  0  0  0  0
  9 31  1  0  0  0  0
 10 32  1  0  0  0  0
 11 12  1  0  0  0  0
 11 33  1  0  0  0  0
 11 34  1  0  0  0  0
 12 21  1  0  0  0  0
 12 13  1  0  0  0  0
 13 14  1  0  0  0  0
 13 15  2  0  0  0  0
 14 35  1  0  0  0  0
 14 36  1  0  0  0  0
 14 37  1  0  0  0  0
 15 16  1  0  0  0  0
 16 21  2  0  0  0  0
 16 17  1  0  0  0  0
 17 18  2  0  0  0  0
 17 38  1  0  0  0  0
 18 19  1  0  0  0  0
 18 39  1  0  0  0  0
 19 20  2  0  0  0  0
 19 40  1  0  0  0  0
 20 21  1  0  0  0  0
 20 41  1  0  0  0  0
 22 23  2  0  0  0  0
 22 42  1  0  0  0  0
 23 43  1  0  0  0  0
M  END
> <s_m_source_file>
AV-unprocessed.smi

> <i_m_source_file_index>
486

> <i_lp_mmshare_version>
43012

> <i_f3d_flags>
0

> <s_epik_input>
W0NIM11PYzFbY0hdW2NIXWMoW2NIXVtjSF0xKU9bQ0gyXVtDQEhdKFtPSF0pW0NIMl1uKGMobjIpW0NIM10pYyhjMjMpW2NIXVtjSF1bY0hdW2NIXTM=

> <s_epik_cmdline>
J2VwaWtfcHl0aG9uJywgJy1waCcsICc3LjAnLCAnLXRuJywgJzgnLCAnLW1hJywgJzIwMCcsICctbWV0YWxfYmluZGluZycsICctaW1hZScsICc8aW5maWxlLm1hZT4nLCAnLW9tYWUnLCAnPG91dGZpbGUubWFlPic=

> <r_lp_tautomer_probability>
1

> <r_epik_Ionization_Penalty>
0.114052

> <r_epik_Ionization_Penalty_Charging>
0

> <r_epik_Ionization_Penalty_Neutral>
0.114052

> <r_epik_State_Penalty>
0.103717

> <r_epik_Charging_Adjusted_Penalty>
0.103717

> <i_epik_Tot_Q>
0

> <i_epik_Tot_abs_Q>
0

> <r_epik_Metal_State_Penalty>
0.000113338

> <b_epik_Metal_Only>
0

> <s_lp_Force_Field>
OPLS_2005

> <r_lp_Energy>
19.9985

> <b_lp_Chiralities_Consistent>
1

> <s_lp_Variant>
AV-unprocessed.smi:486-1

> <Gold.Version>
5.8.1

> <Gold.Id.Protein>
6NUR|6NUR_protein|mol2

> <Gold.PLP.Fitness>
49.9351

> <Gold.PLP.PLP>
-46.7825

> <Gold.PLP.part.hbond>
-2.0000

> <Gold.PLP.part.metal>
0.0000

> <Gold.PLP.part.buried>
-6.4424

> <Gold.PLP.part.nonpolar>
-39.7134

> <Gold.PLP.part.repulsive>
1.0109

> <Gold.PLP.ligand.clash>
0.0000

> <Gold.PLP.ligand.torsion>
1.5817

> <Gold.PLP.Chemscore.Hbond>
1.9920

> <Gold.PLP.Chemscore.CHOScore>
0.0000

> <Gold.PLP.Chemscore.Metal>
0.0000

> <Gold.Chemscore.Hbonds>
donor molecule, donor type, donor heavy atom, donor atom, acceptor molecule, acceptor atom, score
      P1  H  7989  7998       L1     7  0.89
      P1  H  7997  8008       L1    10  1.00

> <Gold.PLP.Chemscore.Internal.Correction>
0.3400

> <Gold.Rescore>
     Score         DG    S(hbond)    S(metal)    S(lipo)     H(rot)  DE(clash)    DE(int)     intcor
     18.05     -19.69       1.75        0.00     121.91       2.30       0.04       1.61       ----

> <Gold.Chemscore.Fitness>
18.0464

> <Gold.Chemscore.DG>
-19.6949

> <Gold.Chemscore.ZeroCoef>
-5.4800

> <Gold.Chemscore.Hbond>
1.7503

> <Gold.Chemscore.Metal>
0.0000

> <Gold.Chemscore.Lipo>
121.9055

> <Gold.Chemscore.Internal_Hbond>
0.0000

> <Gold.Chemscore.DEClash>
0.0392

> <Gold.Chemscore.DEInternal>
1.6093

> <Gold.Chemscore.Rot>
2.3023

> <Gold.Chemscore.Internal.Correction>
   9.000000E+99

> <Gold.Chemscore.Hbonds>
donor molecule, donor type, donor heavy atom, donor atom, acceptor molecule, acceptor atom, score
      P1  H  7989  7998       L1     7  0.17
      P1  H  7997  8008       L1    10  0.34

> <Gold.Chemscore.Hbond.Weighted>
-5.8460

> <Gold.Chemscore.Metal.Weighted>
-0.0000

> <Gold.Chemscore.Lipo.Weighted>
-14.2629

> <Gold.Chemscore.Internal_Hbond.Weighted>
0.0000

> <Gold.Chemscore.DEClash.Weighted>
0.0392

> <Gold.Chemscore.DEInternal.Weighted>
1.6093

> <Gold.Chemscore.Rot.Weighted>
5.8940

> <Gold.Chemscore.Internal.Correction.Weighted>
   9.000000E+99

> <Gold.Protein.RotatedTorsions>
[ 6907 6896 6895 6894 ] final   64.03 input  -60.11 | X-H torsion
[ 7974 7965 7964 7962 ] final  139.73 input  175.53 | X-H torsion
[ 8008 7997 7996 7995 ] final  -46.96 input   59.86 | X-H torsion
[ 10167 10162 10161 10158 ] final  -91.89 input  -65.29 | X-H torsion
[ 10718 10713 10712 10709 ] final  -80.79 input   66.30 | X-H torsion
[ 10763 10752 10751 10750 ] final -117.81 input  -60.55 | X-H torsion
[ 11005 11000 10999 10996 ] final  -90.47 input  -57.11 | X-H torsion

> <Gold.Protein.ActiveResidues>
 VAL166  LYS551  ARG553  GLY616  TRP617  ASP618  TYR619  PRO620  LYS621  CYS622 
 ASP623  PHE694  ASN695  SER759  ASP760  ASP761  ALA762  ILE779  LEU786  VAL792 
 PHE793  MET794  SER795  GLU796  ALA797  LYS798  CYS799  TRP800  GLU811  SER814 

> <Gold.Protein.RotatedAtoms>
  152.4300  134.5796  159.9943 H   0  0  0  0  0  0  0  0  0  0  0  0  # atno 6907 bound_to 6896
  151.5922  133.3359  159.3038 H   0  0  0  0  0  0  0  0  0  0  0  0  # atno 6908 bound_to 6896
  150.8192  134.7426  159.6822 H   0  0  0  0  0  0  0  0  0  0  0  0  # atno 6909 bound_to 6896
  144.9252  139.5117  143.5644 H   0  0  0  0  0  0  0  0  0  0  0  0  # atno 7974 bound_to 7965
  154.4012  140.1358  156.4097 H   0  0  0  0  0  0  0  0  0  0  0  0  # atno 8008 bound_to 7997
  155.7745  140.3483  155.5244 H   0  0  0  0  0  0  0  0  0  0  0  0  # atno 8009 bound_to 7997
  155.8734  140.0975  157.1525 H   0  0  0  0  0  0  0  0  0  0  0  0  # atno 8010 bound_to 7997
  140.3403  143.2946  151.9843 H   0  0  0  0  0  0  0  0  0  0  0  0  # atno 10167 bound_to 10162
  156.0063  130.4585  150.3854 H   0  0  0  0  0  0  0  0  0  0  0  0  # atno 10718 bound_to 10713
  154.8567  135.4296  154.2039 H   0  0  0  0  0  0  0  0  0  0  0  0  # atno 10763 bound_to 10752
  153.3080  135.6973  153.7148 H   0  0  0  0  0  0  0  0  0  0  0  0  # atno 10764 bound_to 10752
  153.6251  135.3495  155.2998 H   0  0  0  0  0  0  0  0  0  0  0  0  # atno 10765 bound_to 10752
  141.1565  133.7694  156.9742 H   0  0  0  0  0  0  0  0  0  0  0  0  # atno 11005 bound_to 11000
  146.3223  139.8161  142.8936 LP  0  0  0  0  0  0  0  0  0  0  0  0  # atno 17320 bound_to 7965
  145.3231  141.0249  143.3489 LP  0  0  0  0  0  0  0  0  0  0  0  0  # atno 17321 bound_to 7965
  139.4841  144.6162  151.7341 LP  0  0  0  0  0  0  0  0  0  0  0  0  # atno 17342 bound_to 10162
  140.5315  144.0723  150.6055 LP  0  0  0  0  0  0  0  0  0  0  0  0  # atno 17343 bound_to 10162
  157.1932  131.0420  151.2689 LP  0  0  0  0  0  0  0  0  0  0  0  0  # atno 17370 bound_to 10713
  157.4042  130.7350  149.6790 LP  0  0  0  0  0  0  0  0  0  0  0  0  # atno 17371 bound_to 10713
  140.1109  134.9477  157.2063 LP  0  0  0  0  0  0  0  0  0  0  0  0  # atno 17394 bound_to 11000
  140.3195  134.2932  155.7249 LP  0  0  0  0  0  0  0  0  0  0  0  0  # atno 17395 bound_to 11000

$$$$
