AV-unprocessed.smi:399|AV-procd|sdf|2491|dock9
  -GOLD-   2262022433D 1   1.00000     0.00000
 Structure written by MMmdl.
 47 48  0  0  0  0  0  0  0  0  4 V2000
  146.2162  143.1416  154.0884 C   0  0  0  0  0  0  0  0  0  0  0  0
  146.1031  141.7794  154.8182 C   0  0  0  0  0  0  0  0  0  0  0  0
  146.8252  140.7458  153.9182 C   0  0  0  0  0  0  0  0  0  0  0  0
  146.8134  141.8590  156.1999 C   0  0  0  0  0  0  0  0  0  0  0  0
  148.2484  142.1004  156.0831 N   0  0  0  0  0  0  0  0  0  0  0  0
  149.1778  141.1357  156.0357 C   0  0  0  0  0  0  0  0  0  0  0  0
  148.9013  139.9357  156.0684 O   0  0  0  0  0  0  0  0  0  0  0  0
  150.6339  141.6101  155.9214 C   0  0  0  0  0  0  0  0  0  0  0  0
  151.2954  141.7925  157.2249 N   0  0  0  0  0  0  0  0  0  0  0  0
  151.2325  143.0769  157.8008 C   0  0  0  0  0  0  0  0  0  0  0  0
  151.8083  143.3589  158.9860 C   0  0  0  0  0  0  0  0  0  0  0  0
  151.7349  144.6836  159.5624 N   0  3  0  0  0  0  0  0  0  0  0  0
  152.0756  144.8364  160.7308 O   0  0  0  0  0  0  0  0  0  0  0  0
  151.3335  145.6134  158.8690 O   0  5  0  0  0  0  0  0  0  0  0  0
  152.5080  142.2873  159.6677 C   0  0  0  0  0  0  0  0  0  0  0  0
  152.5728  141.0571  159.1217 C   0  0  0  0  0  0  0  0  0  0  0  0
  151.9462  140.7526  157.8313 C   0  0  0  0  0  0  0  0  0  0  0  0
  152.0038  139.6317  157.3254 O   0  0  0  0  0  0  0  0  0  0  0  0
  144.6522  141.3956  154.9664 N   0  3  0  0  0  0  0  0  0  0  0  0
  144.3893  140.1241  155.6993 C   0  0  0  0  0  0  0  0  0  0  0  0
  142.8993  139.7519  155.6241 C   0  0  0  0  0  0  0  0  0  0  0  0
  142.1158  140.8091  156.1584 O   0  0  0  0  0  0  0  0  0  0  0  0
  142.2799  142.0088  155.4162 C   0  0  0  0  0  0  0  0  0  0  0  0
  143.7477  142.4633  155.4812 C   0  0  0  0  0  0  0  0  0  0  0  0
  147.2411  143.3531  153.7810 H   0  0  0  0  0  0  0  0  0  0  0  0
  145.9137  143.9765  154.7205 H   0  0  0  0  0  0  0  0  0  0  0  0
  145.6033  143.1617  153.1863 H   0  0  0  0  0  0  0  0  0  0  0  0
  147.8195  141.0867  153.6275 H   0  0  0  0  0  0  0  0  0  0  0  0
  146.2688  140.5628  152.9981 H   0  0  0  0  0  0  0  0  0  0  0  0
  146.9708  139.7891  154.4193 H   0  0  0  0  0  0  0  0  0  0  0  0
  146.3935  142.6607  156.8076 H   0  0  0  0  0  0  0  0  0  0  0  0
  146.6682  140.9325  156.7563 H   0  0  0  0  0  0  0  0  0  0  0  0
  148.5541  143.0623  156.0475 H   0  0  0  0  0  0  0  0  0  0  0  0
  151.1800  140.8878  155.3129 H   0  0  0  0  0  0  0  0  0  0  0  0
  150.6637  142.5415  155.3526 H   0  0  0  0  0  0  0  0  0  0  0  0
  150.6944  143.8067  157.2130 H   0  0  0  0  0  0  0  0  0  0  0  0
  152.9848  142.4630  160.6207 H   0  0  0  0  0  0  0  0  0  0  0  0
  153.0999  140.2739  159.6465 H   0  0  0  0  0  0  0  0  0  0  0  0
  144.9600  139.2963  155.2836 H   0  0  0  0  0  0  0  0  0  0  0  0
  144.6790  140.2227  156.7455 H   0  0  0  0  0  0  0  0  0  0  0  0
  142.5999  139.5406  154.5962 H   0  0  0  0  0  0  0  0  0  0  0  0
  142.7097  138.8475  156.2024 H   0  0  0  0  0  0  0  0  0  0  0  0
  141.9628  141.8597  154.3826 H   0  0  0  0  0  0  0  0  0  0  0  0
  141.6314  142.7759  155.8395 H   0  0  0  0  0  0  0  0  0  0  0  0
  144.0027  142.7109  156.5117 H   0  0  0  0  0  0  0  0  0  0  0  0
  143.8349  143.3781  154.8984 H   0  0  0  0  0  0  0  0  0  0  0  0
  144.3391  141.2226  154.0218 H   0  0  0  0  0  0  0  0  0  0  0  0
  1  2  1  0  0  0  0
  1 25  1  0  0  0  0
  1 26  1  0  0  0  0
  1 27  1  0  0  0  0
  2  3  1  0  0  0  0
  2  4  1  0  0  0  0
  2 19  1  0  0  0  0
  3 28  1  0  0  0  0
  3 29  1  0  0  0  0
  3 30  1  0  0  0  0
  4  5  1  0  0  0  0
  4 31  1  0  0  0  0
  4 32  1  0  0  0  0
  5  6  1  0  0  0  0
  5 33  1  0  0  0  0
  6  7  2  0  0  0  0
  6  8  1  0  0  0  0
  8  9  1  0  0  0  0
  8 34  1  0  0  0  0
  8 35  1  0  0  0  0
  9 17  1  0  0  0  0
  9 10  1  0  0  0  0
 10 11  2  0  0  0  0
 10 36  1  0  0  0  0
 11 12  1  0  0  0  0
 11 15  1  0  0  0  0
 12 13  2  0  0  0  0
 12 14  1  0  0  0  0
 15 16  2  0  0  0  0
 15 37  1  0  0  0  0
 16 17  1  0  0  0  0
 16 38  1  0  0  0  0
 17 18  2  0  0  0  0
 19 24  1  0  0  0  0
 19 20  1  0  0  0  0
 19 47  1  0  0  0  0
 20 21  1  0  0  0  0
 20 39  1  0  0  0  0
 20 40  1  0  0  0  0
 21 22  1  0  0  0  0
 21 41  1  0  0  0  0
 21 42  1  0  0  0  0
 22 23  1  0  0  0  0
 23 24  1  0  0  0  0
 23 43  1  0  0  0  0
 23 44  1  0  0  0  0
 24 45  1  0  0  0  0
 24 46  1  0  0  0  0
M  CHG  1  12   1
M  CHG  1  14  -1
M  CHG  1  19   1
M  END
> <s_m_source_file>
AV-unprocessed.smi

> <i_m_source_file_index>
399

> <i_lp_mmshare_version>
43012

> <i_f3d_flags>
0

> <s_epik_input>
W0NIMl0xW0NIMl1PW0NIMl1bQ0gyXU4xQyhbQ0gzXSkoW0NIM10pW0NIMl1bTkhdQyg9TylbQ0gyXW4yW2NIXWMoW04rXSg9TylbTy1dKVtjSF1bY0hdYzI9Tw==

> <s_epik_cmdline>
J2VwaWtfcHl0aG9uJywgJy1waCcsICc3LjAnLCAnLXRuJywgJzgnLCAnLW1hJywgJzIwMCcsICctbWV0YWxfYmluZGluZycsICctaW1hZScsICc8aW5maWxlLm1hZT4nLCAnLW9tYWUnLCAnPG91dGZpbGUubWFlPic=

> <r_lp_tautomer_probability>
1

> <r_epik_Ionization_Penalty>
0.656654

> <r_epik_Ionization_Penalty_Charging>
0.656653

> <r_epik_Ionization_Penalty_Neutral>
9.12373e-08

> <r_epik_State_Penalty>
0.675641

> <r_epik_Charging_Adjusted_Penalty>
1.33229

> <i_epik_Tot_Q>
1

> <i_epik_Tot_abs_Q>
3

> <r_epik_Metal_State_Penalty>
0.675694

> <b_epik_Metal_Only>
0

> <s_lp_Force_Field>
OPLS_2005

> <r_lp_Energy>
37.786

> <b_lp_Chiralities_Consistent>
1

> <s_lp_Variant>
AV-unprocessed.smi:399-2

> <Gold.Version>
5.8.1

> <Gold.Id.Protein>
6NUR|6NUR_protein|mol2

> <Gold.PLP.Fitness>
48.0948

> <Gold.PLP.PLP>
-38.3120

> <Gold.PLP.part.hbond>
-3.0000

> <Gold.PLP.part.metal>
0.0000

> <Gold.PLP.part.buried>
-5.2334

> <Gold.PLP.part.nonpolar>
-29.5270

> <Gold.PLP.part.repulsive>
0.4456

> <Gold.PLP.ligand.clash>
0.0000

> <Gold.PLP.ligand.torsion>
1.1848

> <Gold.PLP.Chemscore.Hbond>
3.0000

> <Gold.PLP.Chemscore.CHOScore>
1.0000

> <Gold.PLP.Chemscore.Metal>
0.0000

> <Gold.Chemscore.Hbonds>
donor molecule, donor type, donor heavy atom, donor atom, acceptor molecule, acceptor atom, score
      L1  H     5    33       P1  8028  1.00
      L1  H    19    47       P1 10175  2.00
      L1  C    10    36       P1  8028  0.99

> <Gold.PLP.Chemscore.Internal.Correction>
0.1525

> <Gold.Rescore>
     Score         DG    S(hbond)    S(metal)    S(lipo)     H(rot)  DE(clash)    DE(int)     intcor
     14.67     -16.24       2.31        0.00      73.86       2.18       0.46       1.12       ----

> <Gold.Chemscore.Fitness>
14.6657

> <Gold.Chemscore.DG>
-16.2407

> <Gold.Chemscore.ZeroCoef>
-5.4800

> <Gold.Chemscore.Hbond>
2.3058

> <Gold.Chemscore.Metal>
0.0000

> <Gold.Chemscore.Lipo>
73.8612

> <Gold.Chemscore.Internal_Hbond>
0.0000

> <Gold.Chemscore.DEClash>
0.4590

> <Gold.Chemscore.DEInternal>
1.1160

> <Gold.Chemscore.Rot>
2.1806

> <Gold.Chemscore.Internal.Correction>
   9.000000E+99

> <Gold.Chemscore.Hbonds>
donor molecule, donor type, donor heavy atom, donor atom, acceptor molecule, acceptor atom, score
      L1  H     5    33       P1  8028  0.97
      L1  H    19    47       P1 10175  0.55

> <Gold.Chemscore.Hbond.Weighted>
-7.7014

> <Gold.Chemscore.Metal.Weighted>
-0.0000

> <Gold.Chemscore.Lipo.Weighted>
-8.6418

> <Gold.Chemscore.Internal_Hbond.Weighted>
0.0000

> <Gold.Chemscore.DEClash.Weighted>
0.4590

> <Gold.Chemscore.DEInternal.Weighted>
1.1160

> <Gold.Chemscore.Rot.Weighted>
5.5825

> <Gold.Chemscore.Internal.Correction.Weighted>
   9.000000E+99

> <Gold.Protein.RotatedTorsions>
[ 6907 6896 6895 6894 ] final  -12.46 input  -60.11 | X-H torsion
[ 7974 7965 7964 7962 ] final    5.92 input  175.53 | X-H torsion
[ 8008 7997 7996 7995 ] final   32.16 input   59.86 | X-H torsion
[ 10167 10162 10161 10158 ] final   -8.03 input  -65.29 | X-H torsion
[ 10718 10713 10712 10709 ] final   -3.02 input   66.30 | X-H torsion
[ 10763 10752 10751 10750 ] final  171.11 input  -60.55 | X-H torsion
[ 11005 11000 10999 10996 ] final  -71.32 input  -57.11 | X-H torsion

> <Gold.Protein.ActiveResidues>
 VAL166  LYS551  ARG553  GLY616  TRP617  ASP618  TYR619  PRO620  LYS621  CYS622 
 ASP623  PHE694  ASN695  SER759  ASP760  ASP761  ALA762  ILE779  LEU786  VAL792 
 PHE793  MET794  SER795  GLU796  ALA797  LYS798  CYS799  TRP800  GLU811  SER814 

> <Gold.Protein.RotatedAtoms>
  151.3702  135.0921  159.9462 H   0  0  0  0  0  0  0  0  0  0  0  0  # atno 6907 bound_to 6896
  152.5138  133.9172  159.7527 H   0  0  0  0  0  0  0  0  0  0  0  0  # atno 6908 bound_to 6896
  150.9585  133.6417  159.2788 H   0  0  0  0  0  0  0  0  0  0  0  0  # atno 6909 bound_to 6896
  146.2438  140.0312  142.8389 H   0  0  0  0  0  0  0  0  0  0  0  0  # atno 7974 bound_to 7965
  155.1180  140.3245  155.4504 H   0  0  0  0  0  0  0  0  0  0  0  0  # atno 8008 bound_to 7997
  156.2671  140.2032  156.6250 H   0  0  0  0  0  0  0  0  0  0  0  0  # atno 8009 bound_to 7997
  154.6706  140.0537  157.0148 H   0  0  0  0  0  0  0  0  0  0  0  0  # atno 8010 bound_to 7997
  140.7047  143.6014  150.8794 H   0  0  0  0  0  0  0  0  0  0  0  0  # atno 10167 bound_to 10162
  156.7822  130.5334  149.5749 H   0  0  0  0  0  0  0  0  0  0  0  0  # atno 10718 bound_to 10713
  154.4073  135.2756  155.2059 H   0  0  0  0  0  0  0  0  0  0  0  0  # atno 10763 bound_to 10752
  154.4060  135.6033  153.5928 H   0  0  0  0  0  0  0  0  0  0  0  0  # atno 10764 bound_to 10752
  152.9831  135.5938  154.4349 H   0  0  0  0  0  0  0  0  0  0  0  0  # atno 10765 bound_to 10752
  141.1590  133.6814  156.6888 H   0  0  0  0  0  0  0  0  0  0  0  0  # atno 11005 bound_to 11000
  145.1153  140.9430  143.4632 LP  0  0  0  0  0  0  0  0  0  0  0  0  # atno 17320 bound_to 7965
  145.0535  139.3162  143.5916 LP  0  0  0  0  0  0  0  0  0  0  0  0  # atno 17321 bound_to 7965
  139.9738  143.6027  152.2965 LP  0  0  0  0  0  0  0  0  0  0  0  0  # atno 17342 bound_to 10162
  139.6623  144.7662  151.1939 LP  0  0  0  0  0  0  0  0  0  0  0  0  # atno 17343 bound_to 10162
  156.1211  130.6110  151.0195 LP  0  0  0  0  0  0  0  0  0  0  0  0  # atno 17370 bound_to 10713
  157.6641  131.0875  150.7770 LP  0  0  0  0  0  0  0  0  0  0  0  0  # atno 17371 bound_to 10713
  140.3046  134.8135  157.4126 LP  0  0  0  0  0  0  0  0  0  0  0  0  # atno 17394 bound_to 11000
  140.1231  134.5193  155.8167 LP  0  0  0  0  0  0  0  0  0  0  0  0  # atno 17395 bound_to 11000

$$$$
