AV-unprocessed.smi:2857|AV-procd|sdf|10997|dock5
  -GOLD-   2272015453D 1   1.00000     0.00000
 Structure written by MMmdl.
 44 46  0  0  0  0  0  0  0  0  1 V2000
  151.8596  145.3976  159.2336 C   0  0  0  0  0  0  0  0  0  0  0  0
  152.0534  143.9002  159.1095 C   0  0  0  0  0  0  0  0  0  0  0  0
  152.7974  143.1959  160.0756 C   0  0  0  0  0  0  0  0  0  0  0  0
  152.9705  141.8057  159.9526 C   0  0  0  0  0  0  0  0  0  0  0  0
  152.4015  141.1111  158.8651 C   0  0  0  0  0  0  0  0  0  0  0  0
  152.5999  139.6115  158.7480 C   0  0  0  0  0  0  0  0  0  0  0  0
  151.6533  141.8060  157.8866 C   0  0  0  0  0  0  0  0  0  0  0  0
  151.1253  141.0667  156.8480 O   0  0  0  0  0  0  0  0  0  0  0  0
  150.4601  141.7503  155.7944 C   0  0  0  0  0  0  0  0  0  0  0  0
  149.9313  140.7111  154.7941 C   0  0  2  0  0  0  0  0  0  0  0  0
  149.1706  141.3860  153.8111 O   0  0  0  0  0  0  0  0  0  0  0  0
  149.0485  139.6495  155.4800 C   0  0  0  0  0  0  0  0  0  0  0  0
  149.6589  138.3282  155.4757 N   0  0  0  0  0  0  0  0  0  0  0  0
  150.2827  137.8856  154.3532 N   0  0  0  0  0  0  0  0  0  0  0  0
  150.7247  136.6634  154.6420 C   0  0  0  0  0  0  0  0  0  0  0  0
  150.3954  136.2775  155.9701 C   0  0  0  0  0  0  0  0  0  0  0  0
  150.6178  135.0883  156.7865 C   0  0  0  0  0  0  0  0  0  0  0  0
  150.1573  135.0811  157.9982 N   0  0  0  0  0  0  0  0  0  0  0  0
  149.4635  136.1793  158.5190 N   0  0  0  0  0  0  0  0  0  0  0  0
  149.0073  136.0169  159.8975 C   0  0  0  0  0  0  0  0  0  0  0  0
  149.2054  137.3383  157.8410 C   0  0  0  0  0  0  0  0  0  0  0  0
  148.5961  138.2945  158.3201 O   0  0  0  0  0  0  0  0  0  0  0  0
  149.7286  137.3550  156.4534 C   0  0  0  0  0  0  0  0  0  0  0  0
  151.4847  143.2080  158.0211 C   0  0  0  0  0  0  0  0  0  0  0  0
  152.4002  145.8003  160.0906 H   0  0  0  0  0  0  0  0  0  0  0  0
  150.8020  145.6316  159.3573 H   0  0  0  0  0  0  0  0  0  0  0  0
  152.2207  145.9017  158.3368 H   0  0  0  0  0  0  0  0  0  0  0  0
  153.2375  143.7171  160.9134 H   0  0  0  0  0  0  0  0  0  0  0  0
  153.5437  141.2743  160.6983 H   0  0  0  0  0  0  0  0  0  0  0  0
  153.1864  139.3774  157.8595 H   0  0  0  0  0  0  0  0  0  0  0  0
  151.6378  139.1051  158.6686 H   0  0  0  0  0  0  0  0  0  0  0  0
  153.1222  139.2085  159.6159 H   0  0  0  0  0  0  0  0  0  0  0  0
  149.6200  142.3026  156.2188 H   0  0  0  0  0  0  0  0  0  0  0  0
  151.1169  142.4675  155.2985 H   0  0  0  0  0  0  0  0  0  0  0  0
  150.7713  140.2120  154.3089 H   0  0  0  0  0  0  0  0  0  0  0  0
  149.2989  140.9485  152.9830 H   0  0  0  0  0  0  0  0  0  0  0  0
  148.8670  139.9337  156.5177 H   0  0  0  0  0  0  0  0  0  0  0  0
  148.0676  139.5965  155.0090 H   0  0  0  0  0  0  0  0  0  0  0  0
  151.2600  136.1062  153.8874 H   0  0  0  0  0  0  0  0  0  0  0  0
  151.1571  134.2319  156.3823 H   0  0  0  0  0  0  0  0  0  0  0  0
  147.9236  136.1274  159.9601 H   0  0  0  0  0  0  0  0  0  0  0  0
  149.4653  136.7673  160.5432 H   0  0  0  0  0  0  0  0  0  0  0  0
  149.2620  135.0349  160.2999 H   0  0  0  0  0  0  0  0  0  0  0  0
  150.9196  143.7774  157.2990 H   0  0  0  0  0  0  0  0  0  0  0  0
  1  2  1  0  0  0  0
  1 25  1  0  0  0  0
  1 26  1  0  0  0  0
  1 27  1  0  0  0  0
  2 24  1  0  0  0  0
  2  3  2  0  0  0  0
  3  4  1  0  0  0  0
  3 28  1  0  0  0  0
  4  5  2  0  0  0  0
  4 29  1  0  0  0  0
  5  6  1  0  0  0  0
  5  7  1  0  0  0  0
  6 30  1  0  0  0  0
  6 31  1  0  0  0  0
  6 32  1  0  0  0  0
  7  8  1  0  0  0  0
  7 24  2  0  0  0  0
  8  9  1  0  0  0  0
  9 10  1  0  0  0  0
  9 33  1  0  0  0  0
  9 34  1  0  0  0  0
 10 11  1  0  0  0  0
 10 12  1  0  0  0  0
 10 35  1  0  0  0  0
 11 36  1  0  0  0  0
 12 13  1  0  0  0  0
 12 37  1  0  0  0  0
 12 38  1  0  0  0  0
 13 23  1  0  0  0  0
 13 14  1  0  0  0  0
 14 15  2  0  0  0  0
 15 16  1  0  0  0  0
 15 39  1  0  0  0  0
 16 23  2  0  0  0  0
 16 17  1  0  0  0  0
 17 18  2  0  0  0  0
 17 40  1  0  0  0  0
 18 19  1  0  0  0  0
 19 20  1  0  0  0  0
 19 21  1  0  0  0  0
 20 41  1  0  0  0  0
 20 42  1  0  0  0  0
 20 43  1  0  0  0  0
 21 22  2  0  0  0  0
 21 23  1  0  0  0  0
 24 44  1  0  0  0  0
M  END
> <s_m_source_file>
AV-unprocessed.smi

> <i_m_source_file_index>
2857

> <i_lp_mmshare_version>
43012

> <i_f3d_flags>
0

> <s_epik_input>
W0NIM11jMVtjSF1bY0hdYyhbQ0gzXSljKFtjSF0xKU9bQ0gyXVtDQEhdKFtPSF0pW0NIMl1uKG5bY0hdMiljKGMyMyljKD1PKW4oW0NIM10pbltjSF0z

> <s_epik_cmdline>
J2VwaWtfcHl0aG9uJywgJy1waCcsICc3LjAnLCAnLXRuJywgJzgnLCAnLW1hJywgJzIwMCcsICctbWV0YWxfYmluZGluZycsICctaW1hZScsICc8aW5maWxlLm1hZT4nLCAnLW9tYWUnLCAnPG91dGZpbGUubWFlPic=

> <r_lp_tautomer_probability>
1

> <r_epik_Ionization_Penalty>
2.24607e-06

> <r_epik_Ionization_Penalty_Charging>
1.42095e-10

> <r_epik_Ionization_Penalty_Neutral>
2.24593e-06

> <r_epik_State_Penalty>
-0

> <r_epik_Charging_Adjusted_Penalty>
1.42095e-10

> <i_epik_Tot_Q>
0

> <i_epik_Tot_abs_Q>
0

> <r_epik_Metal_State_Penalty>
-0

> <b_epik_Metal_Only>
0

> <s_lp_Force_Field>
OPLS_2005

> <r_lp_Energy>
31.8826

> <b_lp_Chiralities_Consistent>
1

> <s_lp_Variant>
AV-unprocessed.smi:2857-1

> <Gold.Version>
5.8.1

> <Gold.Id.Protein>
6NUR|6NUR_protein|mol2

> <Gold.PLP.Fitness>
50.2193

> <Gold.PLP.PLP>
-43.2118

> <Gold.PLP.part.hbond>
-4.3885

> <Gold.PLP.part.metal>
0.0000

> <Gold.PLP.part.buried>
-5.0390

> <Gold.PLP.part.nonpolar>
-34.7366

> <Gold.PLP.part.repulsive>
0.2509

> <Gold.PLP.ligand.clash>
0.0000

> <Gold.PLP.ligand.torsion>
1.0065

> <Gold.PLP.Chemscore.Hbond>
2.0000

> <Gold.PLP.Chemscore.CHOScore>
1.0000

> <Gold.PLP.Chemscore.Metal>
0.0000

> <Gold.Chemscore.Hbonds>
donor molecule, donor type, donor heavy atom, donor atom, acceptor molecule, acceptor atom, score
      L1  H    11    36       P1  7957  0.94
      P1  H  6896  6909       L1    18  0.78
      L1  C    15    39       P1  7949  1.00

> <Gold.PLP.Chemscore.Internal.Correction>
0.0205

> <Gold.Rescore>
     Score         DG    S(hbond)    S(metal)    S(lipo)     H(rot)  DE(clash)    DE(int)     intcor
     18.37     -19.57       1.74        0.00     121.54       2.32       0.15       1.05       ----

> <Gold.Chemscore.Fitness>
18.3687

> <Gold.Chemscore.DG>
-19.5708

> <Gold.Chemscore.ZeroCoef>
-5.4800

> <Gold.Chemscore.Hbond>
1.7424

> <Gold.Chemscore.Metal>
0.0000

> <Gold.Chemscore.Lipo>
121.5358

> <Gold.Chemscore.Internal_Hbond>
0.0000

> <Gold.Chemscore.DEClash>
0.1496

> <Gold.Chemscore.DEInternal>
1.0525

> <Gold.Chemscore.Rot>
2.3236

> <Gold.Chemscore.Internal.Correction>
   9.000000E+99

> <Gold.Chemscore.Hbonds>
donor molecule, donor type, donor heavy atom, donor atom, acceptor molecule, acceptor atom, score
      L1  H    11    36       P1  7957  0.90
      P1  H  6896  6909       L1    18  0.20

> <Gold.Chemscore.Hbond.Weighted>
-5.8195

> <Gold.Chemscore.Metal.Weighted>
-0.0000

> <Gold.Chemscore.Lipo.Weighted>
-14.2197

> <Gold.Chemscore.Internal_Hbond.Weighted>
0.0000

> <Gold.Chemscore.DEClash.Weighted>
0.1496

> <Gold.Chemscore.DEInternal.Weighted>
1.0525

> <Gold.Chemscore.Rot.Weighted>
5.9484

> <Gold.Chemscore.Internal.Correction.Weighted>
   9.000000E+99

> <Gold.Protein.RotatedTorsions>
[ 6907 6896 6895 6894 ] final   33.73 input  -60.11 | X-H torsion
[ 7974 7965 7964 7962 ] final  -15.08 input  175.53 | X-H torsion
[ 8008 7997 7996 7995 ] final   60.23 input   59.86 | X-H torsion
[ 10167 10162 10161 10158 ] final   16.69 input  -65.29 | X-H torsion
[ 10718 10713 10712 10709 ] final  -54.64 input   66.30 | X-H torsion
[ 10763 10752 10751 10750 ] final  -75.04 input  -60.55 | X-H torsion
[ 11005 11000 10999 10996 ] final  126.91 input  -57.11 | X-H torsion

> <Gold.Protein.ActiveResidues>
 VAL166  LYS551  ARG553  GLY616  TRP617  ASP618  TYR619  PRO620  LYS621  CYS622 
 ASP623  PHE694  ASN695  SER759  ASP760  ASP761  ALA762  ILE779  LEU786  VAL792 
 PHE793  MET794  SER795  GLU796  ALA797  LYS798  CYS799  TRP800  GLU811  SER814 

> <Gold.Protein.RotatedAtoms>
  152.0925  134.9397  160.0571 H   0  0  0  0  0  0  0  0  0  0  0  0  # atno 6907 bound_to 6896
  152.0643  133.4072  159.4439 H   0  0  0  0  0  0  0  0  0  0  0  0  # atno 6908 bound_to 6896
  150.6837  134.3085  159.4780 H   0  0  0  0  0  0  0  0  0  0  0  0  # atno 6909 bound_to 6896
  146.2047  140.3441  142.8411 H   0  0  0  0  0  0  0  0  0  0  0  0  # atno 7974 bound_to 7965
  155.5790  140.3491  155.4535 H   0  0  0  0  0  0  0  0  0  0  0  0  # atno 8008 bound_to 7997
  156.0388  140.1291  157.0204 H   0  0  0  0  0  0  0  0  0  0  0  0  # atno 8009 bound_to 7997
  154.4383  140.1028  156.6192 H   0  0  0  0  0  0  0  0  0  0  0  0  # atno 8010 bound_to 7997
  140.5779  143.9036  150.6765 H   0  0  0  0  0  0  0  0  0  0  0  0  # atno 10167 bound_to 10162
  156.1434  130.4153  150.0064 H   0  0  0  0  0  0  0  0  0  0  0  0  # atno 10718 bound_to 10713
  154.4812  135.5844  153.6391 H   0  0  0  0  0  0  0  0  0  0  0  0  # atno 10763 bound_to 10752
  152.9848  135.6090  154.3243 H   0  0  0  0  0  0  0  0  0  0  0  0  # atno 10764 bound_to 10752
  154.3135  135.2844  155.2534 H   0  0  0  0  0  0  0  0  0  0  0  0  # atno 10765 bound_to 10752
  139.9480  134.9626  156.8776 H   0  0  0  0  0  0  0  0  0  0  0  0  # atno 11005 bound_to 11000
  144.8765  140.7343  143.6014 LP  0  0  0  0  0  0  0  0  0  0  0  0  # atno 17320 bound_to 7965
  145.3361  139.1745  143.4511 LP  0  0  0  0  0  0  0  0  0  0  0  0  # atno 17321 bound_to 7965
  140.2528  143.3580  152.1390 LP  0  0  0  0  0  0  0  0  0  0  0  0  # atno 17342 bound_to 10162
  139.5153  144.6961  151.5626 LP  0  0  0  0  0  0  0  0  0  0  0  0  # atno 17343 bound_to 10162
  156.7943  130.9267  151.3646 LP  0  0  0  0  0  0  0  0  0  0  0  0  # atno 17370 bound_to 10713
  157.6596  130.8954  149.9801 LP  0  0  0  0  0  0  0  0  0  0  0  0  # atno 17371 bound_to 10713
  140.5788  134.0373  155.7456 LP  0  0  0  0  0  0  0  0  0  0  0  0  # atno 17394 bound_to 11000
  141.1136  133.9577  157.2865 LP  0  0  0  0  0  0  0  0  0  0  0  0  # atno 17395 bound_to 11000

$$$$
