AV-unprocessed.smi:1540|AV-procd|sdf|6201|dock8
  -GOLD-   22720 6373D 1   1.00000     0.00000
 Structure written by MMmdl.
 32 32  0  0  0  0  0  0  0  0  2 V2000
  147.4997  141.7986  154.1640 C   0  0  0  0  0  0  0  0  0  0  0  0
  148.2811  140.8487  154.6995 C   0  0  0  0  0  0  0  0  0  0  0  0
  148.9697  139.7575  153.9099 C   0  0  0  0  0  0  0  0  0  0  0  0
  150.3768  139.8229  154.1061 O   0  0  0  0  0  0  0  0  0  0  0  0
  150.9239  138.8172  154.9559 C   0  0  1  0  0  0  0  0  0  0  0  0
  151.7048  137.8366  154.0680 C   0  0  0  0  0  0  0  0  0  0  0  0
  151.8321  139.4518  156.0221 C   0  0  0  0  0  0  0  0  0  0  0  0
  153.0379  139.2050  156.0107 O   0  0  0  0  0  0  0  0  0  0  0  0
  151.2061  140.2512  156.9082 N   0  0  0  0  0  0  0  0  0  0  0  0
  151.7283  140.9937  157.9818 C   0  0  0  0  0  0  0  0  0  0  0  0
  151.4115  142.2871  158.2681 C   0  0  0  0  0  0  0  0  0  0  0  0
  151.9871  142.9994  159.4020 C   0  0  0  0  0  0  0  0  0  0  0  0
  151.5978  144.4144  159.7917 C   0  0  0  0  0  0  0  0  0  0  0  0
  152.0374  145.2985  158.8960 F   0  0  0  0  0  0  0  0  0  0  0  0
  150.2714  144.5169  159.8608 F   0  0  0  0  0  0  0  0  0  0  0  0
  152.1016  144.7367  160.9832 F   0  0  0  0  0  0  0  0  0  0  0  0
  152.8426  142.2055  160.1407 C   0  0  0  0  0  0  0  0  0  0  0  0
  153.2144  140.9251  159.9236 N   0  5  0  0  0  0  0  0  0  0  0  0
  152.6768  140.2716  158.8554 C   0  0  0  0  0  0  0  0  0  0  0  0
  152.9643  139.1003  158.6063 O   0  0  0  0  0  0  0  0  0  0  0  0
  147.3124  141.8387  153.1009 H   0  0  0  0  0  0  0  0  0  0  0  0
  147.0367  142.5510  154.7854 H   0  0  0  0  0  0  0  0  0  0  0  0
  148.4463  140.8400  155.7670 H   0  0  0  0  0  0  0  0  0  0  0  0
  148.5709  138.7979  154.2395 H   0  0  0  0  0  0  0  0  0  0  0  0
  148.7335  139.8665  152.8501 H   0  0  0  0  0  0  0  0  0  0  0  0
  150.1114  138.2687  155.4368 H   0  0  0  0  0  0  0  0  0  0  0  0
  152.1628  137.0439  154.6608 H   0  0  0  0  0  0  0  0  0  0  0  0
  152.4963  138.3405  153.5118 H   0  0  0  0  0  0  0  0  0  0  0  0
  151.0436  137.3633  153.3416 H   0  0  0  0  0  0  0  0  0  0  0  0
  150.2029  140.3158  156.8141 H   0  0  0  0  0  0  0  0  0  0  0  0
  150.7075  142.8346  157.6649 H   0  0  0  0  0  0  0  0  0  0  0  0
  153.2932  142.6673  161.0450 H   0  0  0  0  0  0  0  0  0  0  0  0
  1  2  2  0  0  0  0
  1 21  1  0  0  0  0
  1 22  1  0  0  0  0
  2  3  1  0  0  0  0
  2 23  1  0  0  0  0
  3  4  1  0  0  0  0
  3 24  1  0  0  0  0
  3 25  1  0  0  0  0
  4  5  1  0  0  0  0
  5  6  1  0  0  0  0
  5  7  1  0  0  0  0
  5 26  1  0  0  0  0
  6 27  1  0  0  0  0
  6 28  1  0  0  0  0
  6 29  1  0  0  0  0
  7  8  2  0  0  0  0
  7  9  1  0  0  0  0
  9 10  1  0  0  0  0
  9 30  1  0  0  0  0
 10 19  1  0  0  0  0
 10 11  2  0  0  0  0
 11 12  1  0  0  0  0
 11 31  1  0  0  0  0
 12 13  1  0  0  0  0
 12 17  2  0  0  0  0
 13 14  1  0  0  0  0
 13 15  1  0  0  0  0
 13 16  1  0  0  0  0
 17 18  1  0  0  0  0
 17 32  1  0  0  0  0
 18 19  1  0  0  0  0
 19 20  2  0  0  0  0
M  CHG  1  18  -1
M  END
> <s_m_source_file>
AV-unprocessed.smi

> <i_m_source_file_index>
1540

> <i_lp_mmshare_version>
43012

> <i_f3d_flags>
0

> <s_epik_input>
W0NIMl09W0NIXVtDSDJdT1tDQEhdKFtDSDNdKUMoPU8pW05IXWMxW2NIXWMoQyhGKShGKUYpW2NIXVtuSF1jMT1P

> <s_epik_cmdline>
J2VwaWtfcHl0aG9uJywgJy1waCcsICc3LjAnLCAnLXRuJywgJzgnLCAnLW1hJywgJzIwMCcsICctbWV0YWxfYmluZGluZycsICctaW1hZScsICc8aW5maWxlLm1hZT4nLCAnLW9tYWUnLCAnPG91dGZpbGUubWFlPic=

> <r_epik_Ionization_Penalty>
2.56803

> <r_epik_Ionization_Penalty_Charging>
0.0609694

> <r_epik_Ionization_Penalty_Neutral>
2.50706

> <r_epik_State_Penalty>
2.67253

> <r_epik_Charging_Adjusted_Penalty>
2.7335

> <i_epik_Tot_Q>
-1

> <i_epik_Tot_abs_Q>
1

> <r_epik_Metal_State_Penalty>
0.517713

> <b_epik_Metal_Only>
0

> <s_lp_Force_Field>
OPLS_2005

> <r_lp_Energy>
20.9633

> <b_lp_Chiralities_Consistent>
1

> <s_lp_Variant>
AV-unprocessed.smi:1540-4

> <Gold.Version>
5.8.1

> <Gold.Id.Protein>
6NUR|6NUR_protein|mol2

> <Gold.PLP.Fitness>
48.8222

> <Gold.PLP.PLP>
-45.9583

> <Gold.PLP.part.hbond>
-2.0000

> <Gold.PLP.part.metal>
0.0000

> <Gold.PLP.part.buried>
-5.0461

> <Gold.PLP.part.nonpolar>
-38.8658

> <Gold.PLP.part.repulsive>
0.7772

> <Gold.PLP.ligand.clash>
0.0000

> <Gold.PLP.ligand.torsion>
1.6294

> <Gold.PLP.Chemscore.Hbond>
2.0000

> <Gold.PLP.Chemscore.CHOScore>
0.0000

> <Gold.PLP.Chemscore.Metal>
0.0000

> <Gold.Chemscore.Hbonds>
donor molecule, donor type, donor heavy atom, donor atom, acceptor molecule, acceptor atom, score
      P1  H  7989  7998       L1     4  1.00
      P1  H  7997  8010       L1     8  1.00

> <Gold.PLP.Chemscore.Internal.Correction>
0.1227

> <Gold.Rescore>
     Score         DG    S(hbond)    S(metal)    S(lipo)     H(rot)  DE(clash)    DE(int)     intcor
      9.63     -15.34       1.35        0.00      84.61       1.77       0.07       5.64       ----

> <Gold.Chemscore.Fitness>
9.6255

> <Gold.Chemscore.DG>
-15.3382

> <Gold.Chemscore.ZeroCoef>
-5.4800

> <Gold.Chemscore.Hbond>
1.3483

> <Gold.Chemscore.Metal>
0.0000

> <Gold.Chemscore.Lipo>
84.6054

> <Gold.Chemscore.Internal_Hbond>
0.0000

> <Gold.Chemscore.DEClash>
0.0741

> <Gold.Chemscore.DEInternal>
5.6387

> <Gold.Chemscore.Rot>
1.7750

> <Gold.Chemscore.Internal.Correction>
   9.000000E+99

> <Gold.Chemscore.Hbonds>
donor molecule, donor type, donor heavy atom, donor atom, acceptor molecule, acceptor atom, score
      P1  H  7989  7998       L1     4  0.77
      P1  H  7997  8010       L1     8  0.96

> <Gold.Chemscore.Hbond.Weighted>
-4.5032

> <Gold.Chemscore.Metal.Weighted>
-0.0000

> <Gold.Chemscore.Lipo.Weighted>
-9.8988

> <Gold.Chemscore.Internal_Hbond.Weighted>
0.0000

> <Gold.Chemscore.DEClash.Weighted>
0.0741

> <Gold.Chemscore.DEInternal.Weighted>
5.6387

> <Gold.Chemscore.Rot.Weighted>
4.5439

> <Gold.Chemscore.Internal.Correction.Weighted>
   9.000000E+99

> <Gold.Protein.RotatedTorsions>
[ 6907 6896 6895 6894 ] final  -28.46 input  -60.11 | X-H torsion
[ 7974 7965 7964 7962 ] final -105.37 input  175.53 | X-H torsion
[ 8008 7997 7996 7995 ] final   98.92 input   59.86 | X-H torsion
[ 10167 10162 10161 10158 ] final   62.63 input  -65.29 | X-H torsion
[ 10718 10713 10712 10709 ] final  -91.73 input   66.30 | X-H torsion
[ 10763 10752 10751 10750 ] final  -53.25 input  -60.55 | X-H torsion
[ 11005 11000 10999 10996 ] final   66.25 input  -57.11 | X-H torsion

> <Gold.Protein.ActiveResidues>
 VAL166  LYS551  ARG553  GLY616  TRP617  ASP618  TYR619  PRO620  LYS621  CYS622 
 ASP623  PHE694  ASN695  SER759  ASP760  ASP761  ALA762  ILE779  LEU786  VAL792 
 PHE793  MET794  SER795  GLU796  ALA797  LYS798  CYS799  TRP800  GLU811  SER814 

> <Gold.Protein.RotatedAtoms>
  151.1326  135.0138  159.8589 H   0  0  0  0  0  0  0  0  0  0  0  0  # atno 6907 bound_to 6896
  152.5451  134.1592  159.8561 H   0  0  0  0  0  0  0  0  0  0  0  0  # atno 6908 bound_to 6896
  151.1660  133.4769  159.2627 H   0  0  0  0  0  0  0  0  0  0  0  0  # atno 6909 bound_to 6896
  145.2314  140.9172  143.3203 H   0  0  0  0  0  0  0  0  0  0  0  0  # atno 7974 bound_to 7965
  156.1053  140.3236  155.7997 H   0  0  0  0  0  0  0  0  0  0  0  0  # atno 8008 bound_to 7997
  155.4767  140.0551  157.2990 H   0  0  0  0  0  0  0  0  0  0  0  0  # atno 8009 bound_to 7997
  154.4723  140.2017  155.9978 H   0  0  0  0  0  0  0  0  0  0  0  0  # atno 8010 bound_to 7997
  140.1418  144.4546  150.6807 H   0  0  0  0  0  0  0  0  0  0  0  0  # atno 10167 bound_to 10162
  155.9996  130.4959  150.5519 H   0  0  0  0  0  0  0  0  0  0  0  0  # atno 10718 bound_to 10713
  154.1559  135.6482  153.4974 H   0  0  0  0  0  0  0  0  0  0  0  0  # atno 10763 bound_to 10752
  153.0124  135.5349  154.6761 H   0  0  0  0  0  0  0  0  0  0  0  0  # atno 10764 bound_to 10752
  154.6061  135.2949  155.0455 H   0  0  0  0  0  0  0  0  0  0  0  0  # atno 10765 bound_to 10752
  139.9843  134.6693  156.0204 H   0  0  0  0  0  0  0  0  0  0  0  0  # atno 11005 bound_to 11000
  144.9673  139.3916  143.6326 LP  0  0  0  0  0  0  0  0  0  0  0  0  # atno 17320 bound_to 7965
  146.3352  139.8755  142.8833 LP  0  0  0  0  0  0  0  0  0  0  0  0  # atno 17321 bound_to 7965
  140.6756  143.2303  151.5516 LP  0  0  0  0  0  0  0  0  0  0  0  0  # atno 17342 bound_to 10162
  139.5468  144.2499  152.1457 LP  0  0  0  0  0  0  0  0  0  0  0  0  # atno 17343 bound_to 10162
  157.3441  131.0722  151.1765 LP  0  0  0  0  0  0  0  0  0  0  0  0  # atno 17370 bound_to 10713
  157.2604  130.6656  149.5972 LP  0  0  0  0  0  0  0  0  0  0  0  0  # atno 17371 bound_to 10713
  141.1511  133.6548  156.4015 LP  0  0  0  0  0  0  0  0  0  0  0  0  # atno 17394 bound_to 11000
  140.5033  134.6465  157.5257 LP  0  0  0  0  0  0  0  0  0  0  0  0  # atno 17395 bound_to 11000

$$$$
