AV-unprocessed.smi:283|AV-procd|sdf|2132|dock4
  -GOLD-   2262021443D 1   1.00000     0.00000
 Structure written by MMmdl.
 48 51  0  0  0  0  0  0  0  0  1 V2000
  150.7421  142.2076  156.0636 C   0  0  0  0  0  0  0  0  0  0  0  0
  150.6591  141.8147  157.5444 C   0  0  1  0  0  0  0  0  0  0  0  0
  151.4656  140.6193  157.7856 N   0  0  0  0  0  0  0  0  0  0  0  0
  150.8837  139.4802  158.2218 C   0  0  0  0  0  0  0  0  0  0  0  0
  151.6827  138.6410  158.9225 N   0  0  0  0  0  0  0  0  0  0  0  0
  151.1853  137.5095  159.4285 C   0  0  0  0  0  0  0  0  0  0  0  0
  149.9409  137.0365  159.3468 N   0  0  0  0  0  0  0  0  0  0  0  0
  149.1326  137.8648  158.6241 C   0  0  0  0  0  0  0  0  0  0  0  0
  149.5243  139.0968  158.0258 C   0  0  0  0  0  0  0  0  0  0  0  0
  148.4357  139.6522  157.3639 N   0  0  0  0  0  0  0  0  0  0  0  0
  147.4620  138.8110  157.5771 C   0  0  0  0  0  0  0  0  0  0  0  0
  147.7912  137.7092  158.3320 N   0  0  0  0  0  0  0  0  0  0  0  0
  146.8821  136.5936  158.7457 C   0  0  1  0  0  0  0  0  0  0  0  0
  147.4215  135.9255  159.8468 O   0  0  0  0  0  0  0  0  0  0  0  0
  146.3977  135.5698  160.7798 C   0  0  1  0  0  0  0  0  0  0  0  0
  146.7041  136.2835  162.1124 C   0  0  0  0  0  0  0  0  0  0  0  0
  146.7235  137.6847  161.9359 O   0  0  0  0  0  0  0  0  0  0  0  0
  145.0769  135.9600  160.0897 C   0  0  1  0  0  0  0  0  0  0  0  0
  144.0106  136.3173  160.9493 O   0  0  0  0  0  0  0  0  0  0  0  0
  145.4797  137.0736  159.1378 C   0  0  1  0  0  0  0  0  0  0  0  0
  145.4699  138.3556  159.7453 O   0  0  0  0  0  0  0  0  0  0  0  0
  151.0097  143.0118  158.4340 C   0  0  0  0  0  0  0  0  0  0  0  0
  150.3476  144.2473  158.2430 C   0  0  0  0  0  0  0  0  0  0  0  0
  150.6648  145.3638  159.0385 C   0  0  0  0  0  0  0  0  0  0  0  0
  151.6429  145.2552  160.0430 C   0  0  0  0  0  0  0  0  0  0  0  0
  152.2954  144.0268  160.2548 C   0  0  0  0  0  0  0  0  0  0  0  0
  151.9813  142.9052  159.4613 C   0  0  0  0  0  0  0  0  0  0  0  0
  152.8054  141.4183  159.7784 Cl  0  0  0  0  0  0  0  0  0  0  0  0
  146.8661  135.9123  157.8937 H   0  0  0  0  0  0  0  0  0  0  0  0
  146.4385  134.4904  160.9330 H   0  0  0  0  0  0  0  0  0  0  0  0
  144.7465  135.1080  159.4936 H   0  0  0  0  0  0  0  0  0  0  0  0
  144.8433  137.1079  158.2531 H   0  0  0  0  0  0  0  0  0  0  0  0
  150.0783  143.0440  155.8431 H   0  0  0  0  0  0  0  0  0  0  0  0
  150.4495  141.3779  155.4194 H   0  0  0  0  0  0  0  0  0  0  0  0
  151.7543  142.5044  155.7870 H   0  0  0  0  0  0  0  0  0  0  0  0
  149.6275  141.5220  157.7308 H   0  0  0  0  0  0  0  0  0  0  0  0
  152.4463  140.8027  157.9400 H   0  0  0  0  0  0  0  0  0  0  0  0
  151.8821  136.8977  159.9822 H   0  0  0  0  0  0  0  0  0  0  0  0
  146.4670  138.9763  157.1901 H   0  0  0  0  0  0  0  0  0  0  0  0
  145.9239  136.0587  162.8402 H   0  0  0  0  0  0  0  0  0  0  0  0
  147.6467  135.9483  162.5444 H   0  0  0  0  0  0  0  0  0  0  0  0
  145.9752  138.0531  162.3809 H   0  0  0  0  0  0  0  0  0  0  0  0
  143.6284  137.1200  160.6273 H   0  0  0  0  0  0  0  0  0  0  0  0
  144.6134  138.5033  160.1169 H   0  0  0  0  0  0  0  0  0  0  0  0
  149.5927  144.3480  157.4770 H   0  0  0  0  0  0  0  0  0  0  0  0
  150.1571  146.3033  158.8771 H   0  0  0  0  0  0  0  0  0  0  0  0
  151.8886  146.1112  160.6539 H   0  0  0  0  0  0  0  0  0  0  0  0
  153.0404  143.9451  161.0324 H   0  0  0  0  0  0  0  0  0  0  0  0
  1  2  1  0  0  0  0
  1 33  1  0  0  0  0
  1 34  1  0  0  0  0
  1 35  1  0  0  0  0
  2  3  1  0  0  0  0
  2 22  1  0  0  0  0
  2 36  1  0  0  0  0
  3  4  1  0  0  0  0
  3 37  1  0  0  0  0
  4  9  1  0  0  0  0
  4  5  2  0  0  0  0
  5  6  1  0  0  0  0
  6  7  2  0  0  0  0
  6 38  1  0  0  0  0
  7  8  1  0  0  0  0
  8 12  1  0  0  0  0
  8  9  2  0  0  0  0
  9 10  1  0  0  0  0
 10 11  2  0  0  0  0
 11 12  1  0  0  0  0
 11 39  1  0  0  0  0
 12 13  1  0  0  0  0
 13 29  1  0  0  0  0
 13 20  1  0  0  0  0
 13 14  1  0  0  0  0
 14 15  1  0  0  0  0
 15 30  1  0  0  0  0
 15 16  1  0  0  0  0
 15 18  1  0  0  0  0
 16 17  1  0  0  0  0
 16 40  1  0  0  0  0
 16 41  1  0  0  0  0
 17 42  1  0  0  0  0
 18 31  1  0  0  0  0
 18 19  1  0  0  0  0
 18 20  1  0  0  0  0
 19 43  1  0  0  0  0
 20 32  1  0  0  0  0
 20 21  1  0  0  0  0
 21 44  1  0  0  0  0
 22 27  1  0  0  0  0
 22 23  2  0  0  0  0
 23 24  1  0  0  0  0
 23 45  1  0  0  0  0
 24 25  2  0  0  0  0
 24 46  1  0  0  0  0
 25 26  1  0  0  0  0
 25 47  1  0  0  0  0
 26 27  2  0  0  0  0
 26 48  1  0  0  0  0
 27 28  1  0  0  0  0
M  END
> <s_m_source_file>
AV-unprocessed.smi

> <i_m_source_file_index>
283

> <i_lp_mmshare_version>
43012

> <i_f3d_flags>
0

> <s_epik_input>
Q2xjMVtjSF1bY0hdW2NIXVtjSF1jMVtDQEhdKFtDSDNdKVtOSF1jKG5bY0hdbjIpYyhjMjMpbltjSF1uM1tDQEBIXTRPW0NASF0oW0NIMl1bT0hdKVtDQEBIXShbT0hdKVtDQEhdNFtPSF0=

> <s_epik_cmdline>
J2VwaWtfcHl0aG9uJywgJy1waCcsICc3LjAnLCAnLXRuJywgJzgnLCAnLW1hJywgJzIwMCcsICctbWV0YWxfYmluZGluZycsICctaW1hZScsICc8aW5maWxlLm1hZT4nLCAnLW9tYWUnLCAnPG91dGZpbGUubWFlPic=

> <r_lp_tautomer_probability>
1

> <r_epik_Ionization_Penalty>
0.000266407

> <r_epik_Ionization_Penalty_Charging>
0

> <r_epik_Ionization_Penalty_Neutral>
0.000266407

> <r_epik_State_Penalty>
-0

> <r_epik_Charging_Adjusted_Penalty>
0

> <i_epik_Tot_Q>
0

> <i_epik_Tot_abs_Q>
0

> <r_epik_Metal_State_Penalty>
-0

> <b_epik_Metal_Only>
0

> <s_epik_Chemistry_Notes>
This compound contains an acetal/aminal-like group ( X-CH(R)-Y where X, Y are N, S, or O) that may be acid/base labile, releasing an aldehyde.

> <s_lp_Force_Field>
OPLS_2005

> <r_lp_Energy>
55.3457

> <b_lp_Chiralities_Consistent>
1

> <s_lp_Variant>
AV-unprocessed.smi:283-8

> <Gold.Version>
5.8.1

> <Gold.Id.Protein>
6NUR|6NUR_protein|mol2

> <Gold.PLP.Fitness>
54.1645

> <Gold.PLP.PLP>
-47.5956

> <Gold.PLP.part.hbond>
-4.0000

> <Gold.PLP.part.metal>
0.0000

> <Gold.PLP.part.buried>
-9.0163

> <Gold.PLP.part.nonpolar>
-35.3262

> <Gold.PLP.part.repulsive>
0.0848

> <Gold.PLP.ligand.clash>
0.6825

> <Gold.PLP.ligand.torsion>
0.8015

> <Gold.PLP.Chemscore.Hbond>
2.9120

> <Gold.PLP.Chemscore.CHOScore>
0.0000

> <Gold.PLP.Chemscore.Metal>
0.0000

> <Gold.Chemscore.Hbonds>
donor molecule, donor type, donor heavy atom, donor atom, acceptor molecule, acceptor atom, score
      P1  H  6931  6943       L1    17  0.09
      P1  H  6934  6947       L1    17  0.73

> <Gold.PLP.Chemscore.Internal.Correction>
0.1184

> <Gold.Rescore>
     Score         DG    S(hbond)    S(metal)    S(lipo)     H(rot)  DE(clash)    DE(int)     intcor
      9.52     -15.38       2.09        0.00     114.61       4.10       0.17       5.69       ----

> <Gold.Chemscore.Fitness>
9.5176

> <Gold.Chemscore.DG>
-15.3836

> <Gold.Chemscore.ZeroCoef>
-5.4800

> <Gold.Chemscore.Hbond>
2.0904

> <Gold.Chemscore.Metal>
0.0000

> <Gold.Chemscore.Lipo>
114.6119

> <Gold.Chemscore.Internal_Hbond>
0.0000

> <Gold.Chemscore.DEClash>
0.1739

> <Gold.Chemscore.DEInternal>
5.6921

> <Gold.Chemscore.Rot>
4.0968

> <Gold.Chemscore.Internal.Correction>
   9.000000E+99

> <Gold.Chemscore.Hbonds>
donor molecule, donor type, donor heavy atom, donor atom, acceptor molecule, acceptor atom, score
      P1  H  6931  6943       L1    17  0.05
      P1  H  6934  6947       L1    21  0.39

> <Gold.Chemscore.Hbond.Weighted>
-6.9819

> <Gold.Chemscore.Metal.Weighted>
-0.0000

> <Gold.Chemscore.Lipo.Weighted>
-13.4096

> <Gold.Chemscore.Internal_Hbond.Weighted>
0.0000

> <Gold.Chemscore.DEClash.Weighted>
0.1739

> <Gold.Chemscore.DEInternal.Weighted>
5.6921

> <Gold.Chemscore.Rot.Weighted>
10.4879

> <Gold.Chemscore.Internal.Correction.Weighted>
   9.000000E+99

> <Gold.Protein.RotatedTorsions>
[ 6907 6896 6895 6894 ] final   95.18 input  -60.11 | X-H torsion
[ 7974 7965 7964 7962 ] final -162.31 input  175.53 | X-H torsion
[ 8008 7997 7996 7995 ] final   16.20 input   59.86 | X-H torsion
[ 10167 10162 10161 10158 ] final    1.76 input  -65.29 | X-H torsion
[ 10718 10713 10712 10709 ] final   27.90 input   66.30 | X-H torsion
[ 10763 10752 10751 10750 ] final -133.74 input  -60.55 | X-H torsion
[ 11005 11000 10999 10996 ] final -155.59 input  -57.11 | X-H torsion

> <Gold.Protein.ActiveResidues>
 VAL166  LYS551  ARG553  GLY616  TRP617  ASP618  TYR619  PRO620  LYS621  CYS622 
 ASP623  PHE694  ASN695  SER759  ASP760  ASP761  ALA762  ILE779  LEU786  VAL792 
 PHE793  MET794  SER795  GLU796  ALA797  LYS798  CYS799  TRP800  GLU811  SER814 

> <Gold.Protein.RotatedAtoms>
  152.5445  134.1079  159.8345 H   0  0  0  0  0  0  0  0  0  0  0  0  # atno 6907 bound_to 6896
  151.1149  133.5138  159.2611 H   0  0  0  0  0  0  0  0  0  0  0  0  # atno 6908 bound_to 6896
  151.1843  135.0384  159.8860 H   0  0  0  0  0  0  0  0  0  0  0  0  # atno 6909 bound_to 6896
  144.7361  140.3270  143.6160 H   0  0  0  0  0  0  0  0  0  0  0  0  # atno 7974 bound_to 7965
  154.8736  140.2962  155.5466 H   0  0  0  0  0  0  0  0  0  0  0  0  # atno 8008 bound_to 7997
  156.3022  140.2455  156.3662 H   0  0  0  0  0  0  0  0  0  0  0  0  # atno 8009 bound_to 7997
  154.8791  140.0398  157.1760 H   0  0  0  0  0  0  0  0  0  0  0  0  # atno 8010 bound_to 7997
  140.6667  143.7160  150.7841 H   0  0  0  0  0  0  0  0  0  0  0  0  # atno 10167 bound_to 10162
  157.2263  130.7003  149.6293 H   0  0  0  0  0  0  0  0  0  0  0  0  # atno 10718 bound_to 10713
  154.8729  135.3756  154.4622 H   0  0  0  0  0  0  0  0  0  0  0  0  # atno 10763 bound_to 10752
  153.5289  135.7028  153.5698 H   0  0  0  0  0  0  0  0  0  0  0  0  # atno 10764 bound_to 10752
  153.3911  135.3972  155.1889 H   0  0  0  0  0  0  0  0  0  0  0  0  # atno 10765 bound_to 10752
  140.6848  134.4105  157.5224 H   0  0  0  0  0  0  0  0  0  0  0  0  # atno 11005 bound_to 11000
  145.7510  139.1794  143.2321 LP  0  0  0  0  0  0  0  0  0  0  0  0  # atno 17320 bound_to 7965
  146.1061  140.7486  142.9526 LP  0  0  0  0  0  0  0  0  0  0  0  0  # atno 17321 bound_to 7965
  140.0838  143.4943  152.2516 LP  0  0  0  0  0  0  0  0  0  0  0  0  # atno 17342 bound_to 10162
  139.5919  144.7553  151.3380 LP  0  0  0  0  0  0  0  0  0  0  0  0  # atno 17343 bound_to 10162
  155.9678  130.4503  150.5692 LP  0  0  0  0  0  0  0  0  0  0  0  0  # atno 17370 bound_to 10713
  157.3524  131.0736  151.1703 LP  0  0  0  0  0  0  0  0  0  0  0  0  # atno 17371 bound_to 10713
  139.8941  134.8715  156.2194 LP  0  0  0  0  0  0  0  0  0  0  0  0  # atno 17394 bound_to 11000
  141.0288  133.7000  156.1394 LP  0  0  0  0  0  0  0  0  0  0  0  0  # atno 17395 bound_to 11000

$$$$
