AV-unprocessed.smi:1464|AV-procd|sdf|5935|dock1
  -GOLD-   22720 6 13D 1   1.00000     0.00000
 Structure written by MMmdl.
 40 41  0  0  0  0  0  0  0  0  2 V2000
  152.1576  144.0564  161.6502 C   0  0  0  0  0  0  0  0  0  0  0  0
  152.7245  142.6855  161.2400 C   0  0  2  0  0  0  0  0  0  0  0  0
  153.6816  142.1683  162.3338 C   0  0  0  0  0  0  0  0  0  0  0  0
  154.2714  140.7941  161.9884 C   0  0  0  0  0  0  0  0  0  0  0  0
  154.9733  140.8212  160.6221 C   0  0  0  0  0  0  0  0  0  0  0  0
  154.0376  141.3208  159.5059 C   0  0  1  0  0  0  0  0  0  0  0  0
  152.9974  140.3209  159.2565 N   0  0  0  0  0  0  0  0  0  0  0  0
  153.1581  139.1401  158.6394 C   0  0  0  0  0  0  0  0  0  0  0  0
  154.2429  138.7323  158.2231 O   0  0  0  0  0  0  0  0  0  0  0  0
  151.8925  138.2871  158.4801 C   0  0  0  0  0  0  0  0  0  0  0  0
  151.5852  137.9827  157.0758 N   0  0  0  0  0  0  0  0  0  0  0  0
  151.3444  139.1632  156.2510 N   0  5  0  0  0  0  0  0  0  0  0  0
  151.0293  139.0009  154.9385 C   0  0  0  0  0  0  0  0  0  0  0  0
  150.7914  139.9447  154.1885 O   0  0  0  0  0  0  0  0  0  0  0  0
  150.9791  137.6481  154.4088 C   0  0  0  0  0  0  0  0  0  0  0  0
  151.2319  136.5778  155.1874 C   0  0  0  0  0  0  0  0  0  0  0  0
  151.5643  136.7039  156.6010 C   0  0  0  0  0  0  0  0  0  0  0  0
  151.8078  135.7306  157.3152 O   0  0  0  0  0  0  0  0  0  0  0  0
  153.4389  142.7105  159.8596 C   0  0  1  0  0  0  0  0  0  0  0  0
  152.5485  143.2605  158.7270 C   0  0  0  0  0  0  0  0  0  0  0  0
  152.9343  144.8215  161.6559 H   0  0  0  0  0  0  0  0  0  0  0  0
  151.7237  144.0173  162.6496 H   0  0  0  0  0  0  0  0  0  0  0  0
  151.3661  144.3839  160.9766 H   0  0  0  0  0  0  0  0  0  0  0  0
  151.8828  141.9942  161.1780 H   0  0  0  0  0  0  0  0  0  0  0  0
  154.4937  142.8825  162.4767 H   0  0  0  0  0  0  0  0  0  0  0  0
  153.1577  142.1053  163.2882 H   0  0  0  0  0  0  0  0  0  0  0  0
  154.9786  140.4906  162.7609 H   0  0  0  0  0  0  0  0  0  0  0  0
  153.4798  140.0440  161.9865 H   0  0  0  0  0  0  0  0  0  0  0  0
  155.8436  141.4762  160.6801 H   0  0  0  0  0  0  0  0  0  0  0  0
  155.3568  139.8293  160.3792 H   0  0  0  0  0  0  0  0  0  0  0  0
  154.6456  141.4292  158.6059 H   0  0  0  0  0  0  0  0  0  0  0  0
  152.0651  140.5601  159.5613 H   0  0  0  0  0  0  0  0  0  0  0  0
  152.0329  137.3686  159.0526 H   0  0  0  0  0  0  0  0  0  0  0  0
  151.0381  138.7900  158.9374 H   0  0  0  0  0  0  0  0  0  0  0  0
  150.7371  137.4983  153.3669 H   0  0  0  0  0  0  0  0  0  0  0  0
  151.1856  135.5908  154.7515 H   0  0  0  0  0  0  0  0  0  0  0  0
  154.2818  143.3983  159.9453 H   0  0  0  0  0  0  0  0  0  0  0  0
  151.6036  142.7216  158.6586 H   0  0  0  0  0  0  0  0  0  0  0  0
  153.0490  143.1781  157.7619 H   0  0  0  0  0  0  0  0  0  0  0  0
  152.3184  144.3155  158.8730 H   0  0  0  0  0  0  0  0  0  0  0  0
  1  2  1  0  0  0  0
  1 21  1  0  0  0  0
  1 22  1  0  0  0  0
  1 23  1  0  0  0  0
  2 19  1  0  0  0  0
  2  3  1  0  0  0  0
  2 24  1  0  0  0  0
  3  4  1  0  0  0  0
  3 25  1  0  0  0  0
  3 26  1  0  0  0  0
  4  5  1  0  0  0  0
  4 27  1  0  0  0  0
  4 28  1  0  0  0  0
  5  6  1  0  0  0  0
  5 29  1  0  0  0  0
  5 30  1  0  0  0  0
  6  7  1  0  0  0  0
  6 19  1  0  0  0  0
  6 31  1  0  0  0  0
  7  8  1  0  0  0  0
  7 32  1  0  0  0  0
  8  9  2  0  0  0  0
  8 10  1  0  0  0  0
 10 33  1  0  0  0  0
 10 34  1  0  0  0  0
 10 11  1  0  0  0  0
 11 12  1  0  0  0  0
 11 17  1  0  0  0  0
 12 13  1  0  0  0  0
 13 14  2  0  0  0  0
 13 15  1  0  0  0  0
 15 35  1  0  0  0  0
 15 16  2  0  0  0  0
 16 36  1  0  0  0  0
 16 17  1  0  0  0  0
 17 18  2  0  0  0  0
 19 20  1  0  0  0  0
 19 37  1  0  0  0  0
 20 38  1  0  0  0  0
 20 39  1  0  0  0  0
 20 40  1  0  0  0  0
M  CHG  1  12  -1
M  END
> <s_m_source_file>
AV-unprocessed.smi

> <i_m_source_file_index>
1464

> <i_lp_mmshare_version>
43012

> <i_f3d_flags>
0

> <s_epik_input>
W0NIM11bQ0BASF0xW0NIMl1bQ0gyXVtDSDJdW0NASF0oW0NASF0xW0NIM10pW05IXUMoPU8pW0NIMl1uMltuSF1jKD1PKVtjSF1bY0hdYzI9Tw==

> <s_epik_cmdline>
J2VwaWtfcHl0aG9uJywgJy1waCcsICc3LjAnLCAnLXRuJywgJzgnLCAnLW1hJywgJzIwMCcsICctbWV0YWxfYmluZGluZycsICctaW1hZScsICc8aW5maWxlLm1hZT4nLCAnLW9tYWUnLCAnPG91dGZpbGUubWFlPic=

> <r_lp_tautomer_probability>
1

> <r_epik_Ionization_Penalty>
0.101366

> <r_epik_Ionization_Penalty_Charging>
0.101366

> <r_epik_Ionization_Penalty_Neutral>
1.90469e-08

> <r_epik_State_Penalty>
0.035861

> <r_epik_Charging_Adjusted_Penalty>
0.137227

> <i_epik_Tot_Q>
-1

> <i_epik_Tot_abs_Q>
1

> <r_epik_Metal_State_Penalty>
0.035861

> <b_epik_Metal_Only>
0

> <s_lp_Force_Field>
OPLS_2005

> <r_lp_Energy>
26.1624

> <b_lp_Chiralities_Consistent>
1

> <s_lp_Variant>
AV-unprocessed.smi:1464-1

> <Gold.Version>
5.8.1

> <Gold.Id.Protein>
6NUR|6NUR_protein|mol2

> <Gold.PLP.Fitness>
46.8684

> <Gold.PLP.PLP>
-41.2271

> <Gold.PLP.part.hbond>
-2.9489

> <Gold.PLP.part.metal>
0.0000

> <Gold.PLP.part.buried>
-4.7939

> <Gold.PLP.part.nonpolar>
-32.8773

> <Gold.PLP.part.repulsive>
0.2455

> <Gold.PLP.ligand.clash>
0.0000

> <Gold.PLP.ligand.torsion>
0.1845

> <Gold.PLP.Chemscore.Hbond>
2.0000

> <Gold.PLP.Chemscore.CHOScore>
0.0000

> <Gold.PLP.Chemscore.Metal>
0.0000

> <Gold.Chemscore.Hbonds>
donor molecule, donor type, donor heavy atom, donor atom, acceptor molecule, acceptor atom, score
      P1  H  7989  7998       L1    14  0.73
      P1  H  7997  8008       L1     9  1.00

> <Gold.PLP.Chemscore.Internal.Correction>
0.0104

> <Gold.Rescore>
     Score         DG    S(hbond)    S(metal)    S(lipo)     H(rot)  DE(clash)    DE(int)     intcor
     21.43     -21.96       2.66        0.00     100.85       1.64       0.09       0.44       ----

> <Gold.Chemscore.Fitness>
21.4270

> <Gold.Chemscore.DG>
-21.9578

> <Gold.Chemscore.ZeroCoef>
-5.4800

> <Gold.Chemscore.Hbond>
2.6606

> <Gold.Chemscore.Metal>
0.0000

> <Gold.Chemscore.Lipo>
100.8507

> <Gold.Chemscore.Internal_Hbond>
0.0000

> <Gold.Chemscore.DEClash>
0.0922

> <Gold.Chemscore.DEInternal>
0.4386

> <Gold.Chemscore.Rot>
1.6438

> <Gold.Chemscore.Internal.Correction>
   9.000000E+99

> <Gold.Chemscore.Hbonds>
donor molecule, donor type, donor heavy atom, donor atom, acceptor molecule, acceptor atom, score
      P1  H  7989  7998       L1    14  0.73
      P1  H  7997  8008       L1     9  0.50

> <Gold.Chemscore.Hbond.Weighted>
-8.8863

> <Gold.Chemscore.Metal.Weighted>
-0.0000

> <Gold.Chemscore.Lipo.Weighted>
-11.7995

> <Gold.Chemscore.Internal_Hbond.Weighted>
0.0000

> <Gold.Chemscore.DEClash.Weighted>
0.0922

> <Gold.Chemscore.DEInternal.Weighted>
0.4386

> <Gold.Chemscore.Rot.Weighted>
4.2080

> <Gold.Chemscore.Internal.Correction.Weighted>
   9.000000E+99

> <Gold.Protein.RotatedTorsions>
[ 6907 6896 6895 6894 ] final  163.89 input  -60.11 | X-H torsion
[ 7974 7965 7964 7962 ] final  114.68 input  175.53 | X-H torsion
[ 8008 7997 7996 7995 ] final -101.77 input   59.86 | X-H torsion
[ 10167 10162 10161 10158 ] final   15.36 input  -65.29 | X-H torsion
[ 10718 10713 10712 10709 ] final  -83.76 input   66.30 | X-H torsion
[ 10763 10752 10751 10750 ] final  169.25 input  -60.55 | X-H torsion
[ 11005 11000 10999 10996 ] final  142.91 input  -57.11 | X-H torsion

> <Gold.Protein.ActiveResidues>
 VAL166  LYS551  ARG553  GLY616  TRP617  ASP618  TYR619  PRO620  LYS621  CYS622 
 ASP623  PHE694  ASN695  SER759  ASP760  ASP761  ALA762  ILE779  LEU786  VAL792 
 PHE793  MET794  SER795  GLU796  ALA797  LYS798  CYS799  TRP800  GLU811  SER814 

> <Gold.Protein.RotatedAtoms>
  151.9183  133.3579  159.3887 H   0  0  0  0  0  0  0  0  0  0  0  0  # atno 6907 bound_to 6896
  150.7042  134.4661  159.5413 H   0  0  0  0  0  0  0  0  0  0  0  0  # atno 6908 bound_to 6896
  152.2280  134.8349  160.0528 H   0  0  0  0  0  0  0  0  0  0  0  0  # atno 6909 bound_to 6896
  145.2014  139.2951  143.4316 H   0  0  0  0  0  0  0  0  0  0  0  0  # atno 7974 bound_to 7965
  154.8472  140.0432  157.1581 H   0  0  0  0  0  0  0  0  0  0  0  0  # atno 8008 bound_to 7997
  154.8982  140.2996  155.5312 H   0  0  0  0  0  0  0  0  0  0  0  0  # atno 8009 bound_to 7997
  156.2995  140.2381  156.4006 H   0  0  0  0  0  0  0  0  0  0  0  0  # atno 8010 bound_to 7997
  140.5872  143.8865  150.6841 H   0  0  0  0  0  0  0  0  0  0  0  0  # atno 10167 bound_to 10162
  156.0014  130.4676  150.4307 H   0  0  0  0  0  0  0  0  0  0  0  0  # atno 10718 bound_to 10713
  154.3804  135.2753  155.2214 H   0  0  0  0  0  0  0  0  0  0  0  0  # atno 10763 bound_to 10752
  154.4323  135.5974  153.6080 H   0  0  0  0  0  0  0  0  0  0  0  0  # atno 10764 bound_to 10752
  152.9835  135.5998  154.4046 H   0  0  0  0  0  0  0  0  0  0  0  0  # atno 10765 bound_to 10752
  140.0513  134.9254  157.1022 H   0  0  0  0  0  0  0  0  0  0  0  0  # atno 11005 bound_to 11000
  146.3417  140.2259  142.8592 LP  0  0  0  0  0  0  0  0  0  0  0  0  # atno 17320 bound_to 7965
  144.9944  140.8576  143.5319 LP  0  0  0  0  0  0  0  0  0  0  0  0  # atno 17321 bound_to 7965
  140.2379  143.3685  152.1511 LP  0  0  0  0  0  0  0  0  0  0  0  0  # atno 17342 bound_to 10162
  139.5205  144.7034  151.5427 LP  0  0  0  0  0  0  0  0  0  0  0  0  # atno 17343 bound_to 10162
  157.2356  131.0514  151.2467 LP  0  0  0  0  0  0  0  0  0  0  0  0  # atno 17370 bound_to 10713
  157.3669  130.7161  149.6539 LP  0  0  0  0  0  0  0  0  0  0  0  0  # atno 17371 bound_to 10713
  140.3913  134.2181  155.7166 LP  0  0  0  0  0  0  0  0  0  0  0  0  # atno 17394 bound_to 11000
  141.1931  133.8157  157.0810 LP  0  0  0  0  0  0  0  0  0  0  0  0  # atno 17395 bound_to 11000

$$$$
