AV-unprocessed.smi:694|AV-procd|sdf|3380|dock6
  -GOLD-   22720 0363D 1   1.00000     0.00000
 Structure written by MMmdl.
 42 43  0  0  0  0  0  0  0  0  1 V2000
  151.0316  142.4400  156.5919 C   0  0  0  0  0  0  0  0  0  0  0  0
  151.4890  141.1368  157.0638 N   0  0  0  0  0  0  0  0  0  0  0  0
  152.3157  141.0485  158.2606 C   0  0  0  0  0  0  0  0  0  0  0  0
  151.0390  139.9601  156.4221 C   0  0  0  0  0  0  0  0  0  0  0  0
  150.9339  138.7312  157.1190 C   0  0  0  0  0  0  0  0  0  0  0  0
  150.4748  137.5900  156.4346 C   0  0  0  0  0  0  0  0  0  0  0  0
  150.1239  137.6929  155.0750 C   0  0  0  0  0  0  0  0  0  0  0  0
  149.6741  136.5169  154.4145 N   0  0  0  0  0  0  0  0  0  0  0  0
  149.6046  135.2593  154.8842 C   0  0  0  0  0  0  0  0  0  0  0  0
  149.9363  134.8975  156.0124 O   0  0  0  0  0  0  0  0  0  0  0  0
  149.1359  134.4205  153.9496 N   0  0  0  0  0  0  0  0  0  0  0  0
  148.9497  132.9843  154.1298 C   0  0  0  0  0  0  0  0  0  0  0  0
  147.5740  132.5051  153.6231 C   0  0  2  0  0  0  0  0  0  0  0  0
  147.4519  130.9788  153.4855 C   0  0  0  0  0  0  0  0  0  0  0  0
  146.4432  130.7233  152.3540 C   0  0  0  0  0  0  0  0  0  0  0  0
  146.0880  132.0967  151.7722 C   0  0  0  0  0  0  0  0  0  0  0  0
  147.2162  133.0232  152.2267 C   0  0  1  0  0  0  0  0  0  0  0  0
  146.7975  134.3722  152.2452 O   0  0  0  0  0  0  0  0  0  0  0  0
  150.2745  138.9563  154.4564 C   0  0  0  0  0  0  0  0  0  0  0  0
  150.7150  140.0523  155.1093 N   0  0  0  0  0  0  0  0  0  0  0  0
  149.9469  142.5171  156.6736 H   0  0  0  0  0  0  0  0  0  0  0  0
  151.3127  142.5915  155.5491 H   0  0  0  0  0  0  0  0  0  0  0  0
  151.4690  143.2507  157.1746 H   0  0  0  0  0  0  0  0  0  0  0  0
  153.2594  140.5501  158.0382 H   0  0  0  0  0  0  0  0  0  0  0  0
  151.8008  140.4906  159.0430 H   0  0  0  0  0  0  0  0  0  0  0  0
  152.5480  142.0372  158.6561 H   0  0  0  0  0  0  0  0  0  0  0  0
  151.1953  138.6400  158.1623 H   0  0  0  0  0  0  0  0  0  0  0  0
  150.3911  136.6465  156.9540 H   0  0  0  0  0  0  0  0  0  0  0  0
  149.4204  136.6395  153.4451 H   0  0  0  0  0  0  0  0  0  0  0  0
  148.8917  134.8013  153.0472 H   0  0  0  0  0  0  0  0  0  0  0  0
  149.7502  132.4432  153.6227 H   0  0  0  0  0  0  0  0  0  0  0  0
  149.0551  132.7622  155.1920 H   0  0  0  0  0  0  0  0  0  0  0  0
  146.7986  132.8388  154.3155 H   0  0  0  0  0  0  0  0  0  0  0  0
  148.4145  130.5434  153.2134 H   0  0  0  0  0  0  0  0  0  0  0  0
  147.1413  130.5155  154.4226 H   0  0  0  0  0  0  0  0  0  0  0  0
  146.8942  130.0901  151.5891 H   0  0  0  0  0  0  0  0  0  0  0  0
  145.5516  130.2106  152.7164 H   0  0  0  0  0  0  0  0  0  0  0  0
  145.9732  132.0775  150.6880 H   0  0  0  0  0  0  0  0  0  0  0  0
  145.1393  132.4286  152.1972 H   0  0  0  0  0  0  0  0  0  0  0  0
  148.0703  132.9172  151.5560 H   0  0  0  0  0  0  0  0  0  0  0  0
  147.5343  134.9194  152.0202 H   0  0  0  0  0  0  0  0  0  0  0  0
  150.0615  139.1155  153.4115 H   0  0  0  0  0  0  0  0  0  0  0  0
  1  2  1  0  0  0  0
  1 21  1  0  0  0  0
  1 22  1  0  0  0  0
  1 23  1  0  0  0  0
  2  3  1  0  0  0  0
  2  4  1  0  0  0  0
  3 24  1  0  0  0  0
  3 25  1  0  0  0  0
  3 26  1  0  0  0  0
  4 20  1  0  0  0  0
  4  5  2  0  0  0  0
  5  6  1  0  0  0  0
  5 27  1  0  0  0  0
  6  7  2  0  0  0  0
  6 28  1  0  0  0  0
  7  8  1  0  0  0  0
  7 19  1  0  0  0  0
  8  9  1  0  0  0  0
  8 29  1  0  0  0  0
  9 10  2  0  0  0  0
  9 11  1  0  0  0  0
 11 12  1  0  0  0  0
 11 30  1  0  0  0  0
 12 13  1  0  0  0  0
 12 31  1  0  0  0  0
 12 32  1  0  0  0  0
 13 17  1  0  0  0  0
 13 14  1  0  0  0  0
 13 33  1  0  0  0  0
 14 15  1  0  0  0  0
 14 34  1  0  0  0  0
 14 35  1  0  0  0  0
 15 16  1  0  0  0  0
 15 36  1  0  0  0  0
 15 37  1  0  0  0  0
 16 17  1  0  0  0  0
 16 38  1  0  0  0  0
 16 39  1  0  0  0  0
 17 18  1  0  0  0  0
 17 40  1  0  0  0  0
 18 41  1  0  0  0  0
 19 20  2  0  0  0  0
 19 42  1  0  0  0  0
M  END
> <s_m_source_file>
AV-unprocessed.smi

> <i_m_source_file_index>
694

> <i_lp_mmshare_version>
43012

> <i_f3d_flags>
0

> <s_epik_input>
W0NIM11OKFtDSDNdKWMxW2NIXVtjSF1jKFtjSF1uMSlbTkhdQyg9TylbTkhdW0NIMl1bQ0BASF0yW0NIMl1bQ0gyXVtDSDJdW0NASF0yW09IXQ==

> <s_epik_cmdline>
J2VwaWtfcHl0aG9uJywgJy1waCcsICc3LjAnLCAnLXRuJywgJzgnLCAnLW1hJywgJzIwMCcsICctbWV0YWxfYmluZGluZycsICctaW1hZScsICc8aW5maWxlLm1hZT4nLCAnLW9tYWUnLCAnPG91dGZpbGUubWFlPic=

> <r_lp_tautomer_probability>
1

> <r_epik_Ionization_Penalty>
0.60335

> <r_epik_Ionization_Penalty_Charging>
0

> <r_epik_Ionization_Penalty_Neutral>
0.60335

> <r_epik_State_Penalty>
0.616805

> <r_epik_Charging_Adjusted_Penalty>
0.616805

> <i_epik_Tot_Q>
0

> <i_epik_Tot_abs_Q>
0

> <r_epik_Metal_State_Penalty>
0.301709

> <b_epik_Metal_Only>
0

> <s_lp_Force_Field>
OPLS_2005

> <r_lp_Energy>
26.6001

> <b_lp_Chiralities_Consistent>
1

> <s_lp_Variant>
AV-unprocessed.smi:694-5

> <Gold.Version>
5.8.1

> <Gold.Id.Protein>
6NUR|6NUR_protein|mol2

> <Gold.PLP.Fitness>
44.1523

> <Gold.PLP.PLP>
-31.2979

> <Gold.PLP.part.hbond>
-4.1237

> <Gold.PLP.part.metal>
0.0000

> <Gold.PLP.part.buried>
-3.0991

> <Gold.PLP.part.nonpolar>
-23.9414

> <Gold.PLP.part.repulsive>
0.1241

> <Gold.PLP.ligand.clash>
0.0000

> <Gold.PLP.ligand.torsion>
0.4524

> <Gold.PLP.Chemscore.Hbond>
3.5820

> <Gold.PLP.Chemscore.CHOScore>
1.0000

> <Gold.PLP.Chemscore.Metal>
0.0000

> <Gold.Chemscore.Hbonds>
donor molecule, donor type, donor heavy atom, donor atom, acceptor molecule, acceptor atom, score
      L1  H     8    29       P1  7948  1.00
      L1  H    11    30       P1  7948  0.78
      L1  H    18    41       P1  7948  1.00
      P1  H  7989  7998       L1    20  0.75
      L1  C    19    42       P1  7957  1.00

> <Gold.PLP.Chemscore.Internal.Correction>
0.0131

> <Gold.Rescore>
     Score         DG    S(hbond)    S(metal)    S(lipo)     H(rot)  DE(clash)    DE(int)     intcor
     14.76     -17.82       2.67        0.00      66.98       1.73       0.07       2.99       ----

> <Gold.Chemscore.Fitness>
14.7627

> <Gold.Chemscore.DG>
-17.8225

> <Gold.Chemscore.ZeroCoef>
-5.4800

> <Gold.Chemscore.Hbond>
2.6720

> <Gold.Chemscore.Metal>
0.0000

> <Gold.Chemscore.Lipo>
66.9780

> <Gold.Chemscore.Internal_Hbond>
0.0000

> <Gold.Chemscore.DEClash>
0.0668

> <Gold.Chemscore.DEInternal>
2.9930

> <Gold.Chemscore.Rot>
1.7259

> <Gold.Chemscore.Internal.Correction>
   9.000000E+99

> <Gold.Chemscore.Hbonds>
donor molecule, donor type, donor heavy atom, donor atom, acceptor molecule, acceptor atom, score
      L1  H     8    29       P1  7948  0.85
      L1  H    11    30       P1  7948  0.11
      L1  H    18    41       P1  7948  0.85
      P1  H  7989  7998       L1    20  0.09

> <Gold.Chemscore.Hbond.Weighted>
-8.9244

> <Gold.Chemscore.Metal.Weighted>
-0.0000

> <Gold.Chemscore.Lipo.Weighted>
-7.8364

> <Gold.Chemscore.Internal_Hbond.Weighted>
0.0000

> <Gold.Chemscore.DEClash.Weighted>
0.0668

> <Gold.Chemscore.DEInternal.Weighted>
2.9930

> <Gold.Chemscore.Rot.Weighted>
4.4184

> <Gold.Chemscore.Internal.Correction.Weighted>
   9.000000E+99

> <Gold.Protein.RotatedTorsions>
[ 6907 6896 6895 6894 ] final  -19.03 input  -60.11 | X-H torsion
[ 7974 7965 7964 7962 ] final -150.36 input  175.53 | X-H torsion
[ 8008 7997 7996 7995 ] final  -63.71 input   59.86 | X-H torsion
[ 10167 10162 10161 10158 ] final   10.47 input  -65.29 | X-H torsion
[ 10718 10713 10712 10709 ] final   30.82 input   66.30 | X-H torsion
[ 10763 10752 10751 10750 ] final  -41.16 input  -60.55 | X-H torsion
[ 11005 11000 10999 10996 ] final   91.66 input  -57.11 | X-H torsion

> <Gold.Protein.ActiveResidues>
 VAL166  LYS551  ARG553  GLY616  TRP617  ASP618  TYR619  PRO620  LYS621  CYS622 
 ASP623  PHE694  ASN695  SER759  ASP760  ASP761  ALA762  ILE779  LEU786  VAL792 
 PHE793  MET794  SER795  GLU796  ALA797  LYS798  CYS799  TRP800  GLU811  SER814 

> <Gold.Protein.RotatedAtoms>
  151.2693  135.0679  159.9127 H   0  0  0  0  0  0  0  0  0  0  0  0  # atno 6907 bound_to 6896
  152.5353  134.0148  159.7965 H   0  0  0  0  0  0  0  0  0  0  0  0  # atno 6908 bound_to 6896
  151.0383  133.5678  159.2684 H   0  0  0  0  0  0  0  0  0  0  0  0  # atno 6909 bound_to 6896
  144.7912  140.4941  143.5771 H   0  0  0  0  0  0  0  0  0  0  0  0  # atno 7974 bound_to 7965
  154.4570  140.0969  156.6784 H   0  0  0  0  0  0  0  0  0  0  0  0  # atno 8008 bound_to 7997
  155.5109  140.3476  155.4370 H   0  0  0  0  0  0  0  0  0  0  0  0  # atno 8009 bound_to 7997
  156.0796  140.1370  156.9717 H   0  0  0  0  0  0  0  0  0  0  0  0  # atno 8010 bound_to 7997
  140.6192  143.8241  150.7155 H   0  0  0  0  0  0  0  0  0  0  0  0  # atno 10167 bound_to 10162
  157.2645  130.7177  149.6471 H   0  0  0  0  0  0  0  0  0  0  0  0  # atno 10718 bound_to 10713
  153.9579  135.6743  153.4745 H   0  0  0  0  0  0  0  0  0  0  0  0  # atno 10763 bound_to 10752
  153.0852  135.4902  154.8580 H   0  0  0  0  0  0  0  0  0  0  0  0  # atno 10764 bound_to 10752
  154.7289  135.3133  154.8884 H   0  0  0  0  0  0  0  0  0  0  0  0  # atno 10765 bound_to 10752
  139.8835  134.8687  156.3460 H   0  0  0  0  0  0  0  0  0  0  0  0  # atno 11005 bound_to 11000
  145.5790  139.1488  143.3246 LP  0  0  0  0  0  0  0  0  0  0  0  0  # atno 17320 bound_to 7965
  146.2164  140.5920  142.9036 LP  0  0  0  0  0  0  0  0  0  0  0  0  # atno 17321 bound_to 7965
  140.1827  143.4101  152.1921 LP  0  0  0  0  0  0  0  0  0  0  0  0  # atno 17342 bound_to 10162
  139.5424  144.7269  151.4690 LP  0  0  0  0  0  0  0  0  0  0  0  0  # atno 17343 bound_to 10162
  155.9663  130.4387  150.5228 LP  0  0  0  0  0  0  0  0  0  0  0  0  # atno 17370 bound_to 10713
  157.3139  131.0669  151.1981 LP  0  0  0  0  0  0  0  0  0  0  0  0  # atno 17371 bound_to 10713
  140.9626  133.7378  156.0423 LP  0  0  0  0  0  0  0  0  0  0  0  0  # atno 17394 bound_to 11000
  140.7970  134.3552  157.5449 LP  0  0  0  0  0  0  0  0  0  0  0  0  # atno 17395 bound_to 11000

$$$$
