AV-unprocessed.smi:2909|AV-procd|sdf|11171|dock1
  -GOLD-   2272016 63D 1   1.00000     0.00000
 Structure written by MMmdl.
 44 45  0  0  0  0  0  0  0  0  1 V2000
  149.3117  134.2301  157.1948 C   0  0  0  0  0  0  0  0  0  0  0  0
  150.1149  135.2702  156.4909 C   0  0  0  0  0  0  0  0  0  0  0  0
  149.7512  136.2552  155.6165 C   0  0  0  0  0  0  0  0  0  0  0  0
  150.9740  136.9214  155.3050 C   0  0  0  0  0  0  0  0  0  0  0  0
  151.1826  138.0967  154.3877 C   0  0  0  0  0  0  0  0  0  0  0  0
  151.9668  139.1923  155.1102 C   0  0  0  0  0  0  0  0  0  0  0  0
  153.1045  139.4817  154.7395 O   0  0  0  0  0  0  0  0  0  0  0  0
  151.3502  139.7885  156.1431 N   0  0  0  0  0  0  0  0  0  0  0  0
  151.9297  140.8312  156.9834 C   0  0  2  0  0  0  0  0  0  0  0  0
  152.2903  140.2700  158.3695 C   0  0  0  0  0  0  0  0  0  0  0  0
  152.8361  141.3660  159.2980 C   0  0  0  0  0  0  0  0  0  0  0  0
  151.8591  142.5577  159.4554 C   0  0  1  0  0  0  0  0  0  0  0  0
  152.4311  143.6713  160.3820 C   0  0  0  0  0  0  0  0  0  0  0  0
  152.4912  143.2413  161.8610 C   0  0  0  0  0  0  0  0  0  0  0  0
  151.6450  144.9931  160.2836 C   0  0  0  0  0  0  0  0  0  0  0  0
  151.4836  143.0923  158.0510 C   0  0  0  0  0  0  0  0  0  0  0  0
  150.9352  141.9922  157.1283 C   0  0  0  0  0  0  0  0  0  0  0  0
  152.0124  136.3864  155.9322 N   0  0  0  0  0  0  0  0  0  0  0  0
  151.4762  135.3848  156.6532 N   0  0  0  0  0  0  0  0  0  0  0  0
  152.0444  134.7944  157.2440 H   0  0  0  0  0  0  0  0  0  0  0  0
  148.3846  134.0260  156.6587 H   0  0  0  0  0  0  0  0  0  0  0  0
  149.0541  134.5578  158.2019 H   0  0  0  0  0  0  0  0  0  0  0  0
  149.8663  133.2947  157.2741 H   0  0  0  0  0  0  0  0  0  0  0  0
  148.7573  136.4726  155.2542 H   0  0  0  0  0  0  0  0  0  0  0  0
  151.7248  137.7997  153.4887 H   0  0  0  0  0  0  0  0  0  0  0  0
  150.2234  138.4925  154.0521 H   0  0  0  0  0  0  0  0  0  0  0  0
  150.4162  139.4837  156.3765 H   0  0  0  0  0  0  0  0  0  0  0  0
  152.8344  141.2143  156.5073 H   0  0  0  0  0  0  0  0  0  0  0  0
  151.4094  139.8155  158.8252 H   0  0  0  0  0  0  0  0  0  0  0  0
  153.0308  139.4750  158.2720 H   0  0  0  0  0  0  0  0  0  0  0  0
  153.0438  140.9068  160.2634 H   0  0  0  0  0  0  0  0  0  0  0  0
  153.7920  141.7230  158.9128 H   0  0  0  0  0  0  0  0  0  0  0  0
  150.9465  142.1779  159.9175 H   0  0  0  0  0  0  0  0  0  0  0  0
  153.4538  143.8818  160.0662 H   0  0  0  0  0  0  0  0  0  0  0  0
  151.5134  142.9192  162.2205 H   0  0  0  0  0  0  0  0  0  0  0  0
  152.8211  144.0638  162.4965 H   0  0  0  0  0  0  0  0  0  0  0  0
  153.1966  142.4273  162.0233 H   0  0  0  0  0  0  0  0  0  0  0  0
  150.5845  144.8403  160.4865 H   0  0  0  0  0  0  0  0  0  0  0  0
  151.7396  145.4535  159.3009 H   0  0  0  0  0  0  0  0  0  0  0  0
  152.0154  145.7253  161.0017 H   0  0  0  0  0  0  0  0  0  0  0  0
  150.7247  143.8701  158.1241 H   0  0  0  0  0  0  0  0  0  0  0  0
  152.3567  143.5533  157.5873 H   0  0  0  0  0  0  0  0  0  0  0  0
  150.7118  142.4156  156.1482 H   0  0  0  0  0  0  0  0  0  0  0  0
  149.9894  141.6239  157.5286 H   0  0  0  0  0  0  0  0  0  0  0  0
  1  2  1  0  0  0  0
  1 21  1  0  0  0  0
  1 22  1  0  0  0  0
  1 23  1  0  0  0  0
  2 19  1  0  0  0  0
  2  3  2  0  0  0  0
  3  4  1  0  0  0  0
  3 24  1  0  0  0  0
  4  5  1  0  0  0  0
  4 18  2  0  0  0  0
  5  6  1  0  0  0  0
  5 25  1  0  0  0  0
  5 26  1  0  0  0  0
  6  7  2  0  0  0  0
  6  8  1  0  0  0  0
  8  9  1  0  0  0  0
  8 27  1  0  0  0  0
  9 17  1  0  0  0  0
  9 10  1  0  0  0  0
  9 28  1  0  0  0  0
 10 11  1  0  0  0  0
 10 29  1  0  0  0  0
 10 30  1  0  0  0  0
 11 12  1  0  0  0  0
 11 31  1  0  0  0  0
 11 32  1  0  0  0  0
 12 13  1  0  0  0  0
 12 16  1  0  0  0  0
 12 33  1  0  0  0  0
 13 14  1  0  0  0  0
 13 15  1  0  0  0  0
 13 34  1  0  0  0  0
 14 35  1  0  0  0  0
 14 36  1  0  0  0  0
 14 37  1  0  0  0  0
 15 38  1  0  0  0  0
 15 39  1  0  0  0  0
 15 40  1  0  0  0  0
 16 17  1  0  0  0  0
 16 41  1  0  0  0  0
 16 42  1  0  0  0  0
 17 43  1  0  0  0  0
 17 44  1  0  0  0  0
 18 19  1  0  0  0  0
 19 20  1  0  0  0  0
M  END
> <s_m_source_file>
AV-unprocessed.smi

> <i_m_source_file_index>
2909

> <i_lp_mmshare_version>
43012

> <i_f3d_flags>
0

> <s_epik_input>
W0NIM11jMVtjSF1jKG5bbkhdMSlbQ0gyXUMoPU8pW05IXVtDQEBIXTJbQ0gyXVtDSDJdW0NAQEhdKFtDSF0oW0NIM10pW0NIM10pW0NIMl1bQ0gyXTI=

> <s_epik_cmdline>
J2VwaWtfcHl0aG9uJywgJy1waCcsICc3LjAnLCAnLXRuJywgJzgnLCAnLW1hJywgJzIwMCcsICctbWV0YWxfYmluZGluZycsICctaW1hZScsICc8aW5maWxlLm1hZT4nLCAnLW9tYWUnLCAnPG91dGZpbGUubWFlPic=

> <r_lp_tautomer_probability>
0.5

> <r_epik_Ionization_Penalty>
9.34828e-05

> <r_epik_Ionization_Penalty_Charging>
0

> <r_epik_Ionization_Penalty_Neutral>
9.34828e-05

> <r_epik_State_Penalty>
0.41068

> <r_epik_Charging_Adjusted_Penalty>
0.41068

> <i_epik_Tot_Q>
0

> <i_epik_Tot_abs_Q>
0

> <r_epik_Metal_State_Penalty>
0.4107

> <b_epik_Metal_Only>
0

> <s_lp_Force_Field>
OPLS_2005

> <r_lp_Energy>
11.82

> <b_lp_Chiralities_Consistent>
1

> <s_lp_Variant>
AV-unprocessed.smi:2909-1

> <Gold.Version>
5.8.1

> <Gold.Id.Protein>
6NUR|6NUR_protein|mol2

> <Gold.PLP.Fitness>
45.6190

> <Gold.PLP.PLP>
-40.4802

> <Gold.PLP.part.hbond>
-3.0000

> <Gold.PLP.part.metal>
0.0000

> <Gold.PLP.part.buried>
-5.9187

> <Gold.PLP.part.nonpolar>
-31.9535

> <Gold.PLP.part.repulsive>
0.3380

> <Gold.PLP.ligand.clash>
0.0000

> <Gold.PLP.ligand.torsion>
0.4415

> <Gold.PLP.Chemscore.Hbond>
2.0000

> <Gold.PLP.Chemscore.CHOScore>
0.0000

> <Gold.PLP.Chemscore.Metal>
0.0000

> <Gold.Chemscore.Hbonds>
donor molecule, donor type, donor heavy atom, donor atom, acceptor molecule, acceptor atom, score
      P1  H  7997  8008       L1     7  1.00
      P1  H 10752 10764       L1    18  1.00

> <Gold.PLP.Chemscore.Internal.Correction>
0.0218

> <Gold.Rescore>
     Score         DG    S(hbond)    S(metal)    S(lipo)     H(rot)  DE(clash)    DE(int)     intcor
     20.39     -20.72       1.96        0.00     107.12       1.50       0.01       0.31       ----

> <Gold.Chemscore.Fitness>
20.3869

> <Gold.Chemscore.DG>
-20.7165

> <Gold.Chemscore.ZeroCoef>
-5.4800

> <Gold.Chemscore.Hbond>
1.9600

> <Gold.Chemscore.Metal>
0.0000

> <Gold.Chemscore.Lipo>
107.1184

> <Gold.Chemscore.Internal_Hbond>
0.0000

> <Gold.Chemscore.DEClash>
0.0149

> <Gold.Chemscore.DEInternal>
0.3147

> <Gold.Chemscore.Rot>
1.5011

> <Gold.Chemscore.Internal.Correction>
   9.000000E+99

> <Gold.Chemscore.Hbonds>
donor molecule, donor type, donor heavy atom, donor atom, acceptor molecule, acceptor atom, score
      P1  H  7997  8008       L1     7  1.00
      P1  H 10752 10764       L1    18  0.27

> <Gold.Chemscore.Hbond.Weighted>
-6.5465

> <Gold.Chemscore.Metal.Weighted>
-0.0000

> <Gold.Chemscore.Lipo.Weighted>
-12.5329

> <Gold.Chemscore.Internal_Hbond.Weighted>
0.0000

> <Gold.Chemscore.DEClash.Weighted>
0.0149

> <Gold.Chemscore.DEInternal.Weighted>
0.3147

> <Gold.Chemscore.Rot.Weighted>
3.8429

> <Gold.Chemscore.Internal.Correction.Weighted>
   9.000000E+99

> <Gold.Protein.RotatedTorsions>
[ 6907 6896 6895 6894 ] final  141.60 input  -60.11 | X-H torsion
[ 7974 7965 7964 7962 ] final  139.09 input  175.53 | X-H torsion
[ 8008 7997 7996 7995 ] final   -6.42 input   59.86 | X-H torsion
[ 10167 10162 10161 10158 ] final -140.04 input  -65.29 | X-H torsion
[ 10718 10713 10712 10709 ] final   13.67 input   66.30 | X-H torsion
[ 10763 10752 10751 10750 ] final  -45.16 input  -60.55 | X-H torsion
[ 11005 11000 10999 10996 ] final   50.70 input  -57.11 | X-H torsion

> <Gold.Protein.ActiveResidues>
 VAL166  LYS551  ARG553  GLY616  TRP617  ASP618  TYR619  PRO620  LYS621  CYS622 
 ASP623  PHE694  ASN695  SER759  ASP760  ASP761  ALA762  ILE779  LEU786  VAL792 
 PHE793  MET794  SER795  GLU796  ALA797  LYS798  CYS799  TRP800  GLU811  SER814 

> <Gold.Protein.RotatedAtoms>
  152.2289  133.5042  159.5204 H   0  0  0  0  0  0  0  0  0  0  0  0  # atno 6907 bound_to 6896
  150.7032  134.1242  159.4055 H   0  0  0  0  0  0  0  0  0  0  0  0  # atno 6908 bound_to 6896
  151.9164  135.0317  160.0569 H   0  0  0  0  0  0  0  0  0  0  0  0  # atno 6909 bound_to 6896
  144.9311  139.5046  143.5617 H   0  0  0  0  0  0  0  0  0  0  0  0  # atno 7974 bound_to 7965
  154.5939  140.2433  155.7883 H   0  0  0  0  0  0  0  0  0  0  0  0  # atno 8008 bound_to 7997
  156.2266  140.2980  156.0036 H   0  0  0  0  0  0  0  0  0  0  0  0  # atno 8009 bound_to 7997
  155.2326  140.0404  157.2955 H   0  0  0  0  0  0  0  0  0  0  0  0  # atno 8010 bound_to 7997
  139.8320  143.7434  152.2665 H   0  0  0  0  0  0  0  0  0  0  0  0  # atno 10167 bound_to 10162
  157.0280  130.6181  149.5731 H   0  0  0  0  0  0  0  0  0  0  0  0  # atno 10718 bound_to 10713
  154.0239  135.6665  153.4775 H   0  0  0  0  0  0  0  0  0  0  0  0  # atno 10763 bound_to 10752
  153.0568  135.5051  154.7997 H   0  0  0  0  0  0  0  0  0  0  0  0  # atno 10764 bound_to 10752
  154.6920  135.3063  154.9430 H   0  0  0  0  0  0  0  0  0  0  0  0  # atno 10765 bound_to 10752
  140.0995  134.5100  155.8776 H   0  0  0  0  0  0  0  0  0  0  0  0  # atno 11005 bound_to 11000
  146.3247  139.8262  142.8917 LP  0  0  0  0  0  0  0  0  0  0  0  0  # atno 17320 bound_to 7965
  145.3140  141.0227  143.3538 LP  0  0  0  0  0  0  0  0  0  0  0  0  # atno 17321 bound_to 7965
  139.7645  144.7496  151.0315 LP  0  0  0  0  0  0  0  0  0  0  0  0  # atno 17342 bound_to 10162
  140.7806  143.4714  151.0141 LP  0  0  0  0  0  0  0  0  0  0  0  0  # atno 17343 bound_to 10162
  156.0079  130.5168  150.7892 LP  0  0  0  0  0  0  0  0  0  0  0  0  # atno 17370 bound_to 10713
  157.5199  131.0931  151.0092 LP  0  0  0  0  0  0  0  0  0  0  0  0  # atno 17371 bound_to 10713
  141.2101  133.6691  156.6489 LP  0  0  0  0  0  0  0  0  0  0  0  0  # atno 17394 bound_to 11000
  140.3240  134.7984  157.4274 LP  0  0  0  0  0  0  0  0  0  0  0  0  # atno 17395 bound_to 11000

$$$$
