AV-unprocessed.smi:2734|AV-procd|sdf|10538|dock6
  -GOLD-   2272014583D 1   1.00000     0.00000
 Structure written by MMmdl.
 40 42  0  0  0  0  0  0  0  0  1 V2000
  153.3490  143.5699  163.4060 C   0  0  0  0  0  0  0  0  0  0  0  0
  152.9234  143.1152  162.0210 C   0  0  0  0  0  0  0  0  0  0  0  0
  152.0814  143.9501  161.2523 C   0  0  0  0  0  0  0  0  0  0  0  0
  151.6591  143.5619  159.9620 C   0  0  0  0  0  0  0  0  0  0  0  0
  150.8419  144.2092  159.0511 N   0  0  0  0  0  0  0  0  0  0  0  0
  150.8219  143.3405  158.0444 C   0  0  0  0  0  0  0  0  0  0  0  0
  151.5299  142.2049  158.1953 N   0  0  0  0  0  0  0  0  0  0  0  0
  151.6483  141.1182  157.2401 C   0  0  0  0  0  0  0  0  0  0  0  0
  150.9464  141.4233  155.9018 C   0  0  1  0  0  0  0  0  0  0  0  0
  151.3252  140.4243  154.9771 O   0  0  0  0  0  0  0  0  0  0  0  0
  149.4102  141.4632  156.0052 C   0  0  0  0  0  0  0  0  0  0  0  0
  148.6148  141.7430  154.3942 S   0  0  0  0  0  0  0  0  0  0  0  0
  146.9201  141.6067  154.8748 C   0  0  0  0  0  0  0  0  0  0  0  0
  146.3943  140.6857  155.6749 N   0  0  0  0  0  0  0  0  0  0  0  0
  145.0536  141.0161  155.7296 N   0  0  0  0  0  0  0  0  0  0  0  0
  144.7973  142.0679  155.0074 N   0  0  0  0  0  0  0  0  0  0  0  0
  145.9733  142.4557  154.4566 N   0  0  0  0  0  0  0  0  0  0  0  0
  146.0472  143.6110  153.5846 C   0  0  0  0  0  0  0  0  0  0  0  0
  152.1087  142.3072  159.4563 C   0  0  0  0  0  0  0  0  0  0  0  0
  152.9485  141.4689  160.2106 C   0  0  0  0  0  0  0  0  0  0  0  0
  153.3578  141.8701  161.4993 C   0  0  0  0  0  0  0  0  0  0  0  0
  154.2576  140.9535  162.3089 C   0  0  0  0  0  0  0  0  0  0  0  0
  152.9364  144.5499  163.6479 H   0  0  0  0  0  0  0  0  0  0  0  0
  154.4351  143.6398  163.4690 H   0  0  0  0  0  0  0  0  0  0  0  0
  153.0021  142.8649  164.1618 H   0  0  0  0  0  0  0  0  0  0  0  0
  151.7485  144.8975  161.6499 H   0  0  0  0  0  0  0  0  0  0  0  0
  150.2568  143.5389  157.1452 H   0  0  0  0  0  0  0  0  0  0  0  0
  152.7092  140.9254  157.0738 H   0  0  0  0  0  0  0  0  0  0  0  0
  151.2358  140.2142  157.6903 H   0  0  0  0  0  0  0  0  0  0  0  0
  151.3048  142.3815  155.5235 H   0  0  0  0  0  0  0  0  0  0  0  0
  150.7614  139.6755  155.0993 H   0  0  0  0  0  0  0  0  0  0  0  0
  149.0384  140.5325  156.4359 H   0  0  0  0  0  0  0  0  0  0  0  0
  149.1002  142.2720  156.6665 H   0  0  0  0  0  0  0  0  0  0  0  0
  146.7294  144.3472  154.0102 H   0  0  0  0  0  0  0  0  0  0  0  0
  145.0633  144.0667  153.4673 H   0  0  0  0  0  0  0  0  0  0  0  0
  146.4157  143.3069  152.6047 H   0  0  0  0  0  0  0  0  0  0  0  0
  153.2688  140.5214  159.8032 H   0  0  0  0  0  0  0  0  0  0  0  0
  154.5001  140.0449  161.7570 H   0  0  0  0  0  0  0  0  0  0  0  0
  153.7670  140.6598  163.2370 H   0  0  0  0  0  0  0  0  0  0  0  0
  155.1938  141.4554  162.5544 H   0  0  0  0  0  0  0  0  0  0  0  0
  1  2  1  0  0  0  0
  1 23  1  0  0  0  0
  1 24  1  0  0  0  0
  1 25  1  0  0  0  0
  2 21  1  0  0  0  0
  2  3  2  0  0  0  0
  3  4  1  0  0  0  0
  3 26  1  0  0  0  0
  4 19  2  0  0  0  0
  4  5  1  0  0  0  0
  5  6  2  0  0  0  0
  6  7  1  0  0  0  0
  6 27  1  0  0  0  0
  7  8  1  0  0  0  0
  7 19  1  0  0  0  0
  8  9  1  0  0  0  0
  8 28  1  0  0  0  0
  8 29  1  0  0  0  0
  9 10  1  0  0  0  0
  9 11  1  0  0  0  0
  9 30  1  0  0  0  0
 10 31  1  0  0  0  0
 11 12  1  0  0  0  0
 11 32  1  0  0  0  0
 11 33  1  0  0  0  0
 12 13  1  0  0  0  0
 13 17  1  0  0  0  0
 13 14  2  0  0  0  0
 14 15  1  0  0  0  0
 15 16  2  0  0  0  0
 16 17  1  0  0  0  0
 17 18  1  0  0  0  0
 18 34  1  0  0  0  0
 18 35  1  0  0  0  0
 18 36  1  0  0  0  0
 19 20  1  0  0  0  0
 20 21  2  0  0  0  0
 20 37  1  0  0  0  0
 21 22  1  0  0  0  0
 22 38  1  0  0  0  0
 22 39  1  0  0  0  0
 22 40  1  0  0  0  0
M  END
> <s_m_source_file>
AV-unprocessed.smi

> <i_m_source_file_index>
2734

> <i_lp_mmshare_version>
43012

> <i_f3d_flags>
0

> <s_epik_input>
W0NIM11jKFtjSF0xKWMoW0NIM10pW2NIXWMoYzEyKW4oW2NIXW4yKVtDSDJdW0NASF0oW09IXSlbQ0gyXVNjM25ubm4zW0NIM10=

> <s_epik_cmdline>
J2VwaWtfcHl0aG9uJywgJy1waCcsICc3LjAnLCAnLXRuJywgJzgnLCAnLW1hJywgJzIwMCcsICctbWV0YWxfYmluZGluZycsICctaW1hZScsICc8aW5maWxlLm1hZT4nLCAnLW9tYWUnLCAnPG91dGZpbGUubWFlPic=

> <r_lp_tautomer_probability>
1

> <r_epik_Ionization_Penalty>
0.105517

> <r_epik_Ionization_Penalty_Charging>
0

> <r_epik_Ionization_Penalty_Neutral>
0.105517

> <r_epik_State_Penalty>
0.0953887

> <r_epik_Charging_Adjusted_Penalty>
0.0953887

> <i_epik_Tot_Q>
0

> <i_epik_Tot_abs_Q>
0

> <r_epik_Metal_State_Penalty>
0.0808533

> <b_epik_Metal_Only>
0

> <s_lp_Force_Field>
OPLS_2005

> <r_lp_Energy>
9.84292

> <b_lp_Chiralities_Consistent>
1

> <s_lp_Variant>
AV-unprocessed.smi:2734-2

> <Gold.Version>
5.8.1

> <Gold.Id.Protein>
6NUR|6NUR_protein|mol2

> <Gold.PLP.Fitness>
54.9507

> <Gold.PLP.PLP>
-49.4711

> <Gold.PLP.part.hbond>
-1.0000

> <Gold.PLP.part.metal>
0.0000

> <Gold.PLP.part.buried>
-5.2942

> <Gold.PLP.part.nonpolar>
-41.5062

> <Gold.PLP.part.repulsive>
0.4193

> <Gold.PLP.ligand.clash>
0.0000

> <Gold.PLP.ligand.torsion>
0.2826

> <Gold.PLP.Chemscore.Hbond>
1.0000

> <Gold.PLP.Chemscore.CHOScore>
1.0000

> <Gold.PLP.Chemscore.Metal>
0.0000

> <Gold.Chemscore.Hbonds>
donor molecule, donor type, donor heavy atom, donor atom, acceptor molecule, acceptor atom, score
      P1  H  7989  7998       L1    10  1.00
      L1  C     6    27       P1  8028  1.00

> <Gold.PLP.Chemscore.Internal.Correction>
0.0448

> <Gold.Rescore>
     Score         DG    S(hbond)    S(metal)    S(lipo)     H(rot)  DE(clash)    DE(int)     intcor
     14.93     -15.60       0.93        0.00     122.13       2.85       0.44       0.22       ----

> <Gold.Chemscore.Fitness>
14.9345

> <Gold.Chemscore.DG>
-15.5968

> <Gold.Chemscore.ZeroCoef>
-5.4800

> <Gold.Chemscore.Hbond>
0.9317

> <Gold.Chemscore.Metal>
0.0000

> <Gold.Chemscore.Lipo>
122.1261

> <Gold.Chemscore.Internal_Hbond>
0.0000

> <Gold.Chemscore.DEClash>
0.4379

> <Gold.Chemscore.DEInternal>
0.2245

> <Gold.Chemscore.Rot>
2.8452

> <Gold.Chemscore.Internal.Correction>
   9.000000E+99

> <Gold.Chemscore.Hbonds>
donor molecule, donor type, donor heavy atom, donor atom, acceptor molecule, acceptor atom, score
      P1  H  7989  7998       L1    10  0.83

> <Gold.Chemscore.Hbond.Weighted>
-3.1118

> <Gold.Chemscore.Metal.Weighted>
-0.0000

> <Gold.Chemscore.Lipo.Weighted>
-14.2888

> <Gold.Chemscore.Internal_Hbond.Weighted>
0.0000

> <Gold.Chemscore.DEClash.Weighted>
0.4379

> <Gold.Chemscore.DEInternal.Weighted>
0.2245

> <Gold.Chemscore.Rot.Weighted>
7.2837

> <Gold.Chemscore.Internal.Correction.Weighted>
   9.000000E+99

> <Gold.Protein.RotatedTorsions>
[ 6907 6896 6895 6894 ] final -179.27 input  -60.11 | X-H torsion
[ 7974 7965 7964 7962 ] final   40.32 input  175.53 | X-H torsion
[ 8008 7997 7996 7995 ] final  136.75 input   59.86 | X-H torsion
[ 10167 10162 10161 10158 ] final  147.32 input  -65.29 | X-H torsion
[ 10718 10713 10712 10709 ] final  160.84 input   66.30 | X-H torsion
[ 10763 10752 10751 10750 ] final  104.97 input  -60.55 | X-H torsion
[ 11005 11000 10999 10996 ] final  -65.28 input  -57.11 | X-H torsion

> <Gold.Protein.ActiveResidues>
 VAL166  LYS551  ARG553  GLY616  TRP617  ASP618  TYR619  PRO620  LYS621  CYS622 
 ASP623  PHE694  ASN695  SER759  ASP760  ASP761  ALA762  ILE779  LEU786  VAL792 
 PHE793  MET794  SER795  GLU796  ALA797  LYS798  CYS799  TRP800  GLU811  SER814 

> <Gold.Protein.RotatedAtoms>
  151.6507  133.3321  159.3151 H   0  0  0  0  0  0  0  0  0  0  0  0  # atno 6907 bound_to 6896
  150.7961  134.7026  159.6568 H   0  0  0  0  0  0  0  0  0  0  0  0  # atno 6908 bound_to 6896
  152.4048  134.6229  160.0107 H   0  0  0  0  0  0  0  0  0  0  0  0  # atno 6909 bound_to 6896
  146.0914  139.5547  142.9473 H   0  0  0  0  0  0  0  0  0  0  0  0  # atno 7974 bound_to 7965
  156.3003  140.2437  156.3796 H   0  0  0  0  0  0  0  0  0  0  0  0  # atno 8008 bound_to 7997
  154.8713  140.0416  157.1746 H   0  0  0  0  0  0  0  0  0  0  0  0  # atno 8009 bound_to 7997
  154.8792  140.2947  155.5439 H   0  0  0  0  0  0  0  0  0  0  0  0  # atno 8010 bound_to 7997
  139.4892  144.5764  151.6956 H   0  0  0  0  0  0  0  0  0  0  0  0  # atno 10167 bound_to 10162
  157.1448  131.0549  151.2309 H   0  0  0  0  0  0  0  0  0  0  0  0  # atno 10718 bound_to 10713
  153.3731  135.3925  155.1803 H   0  0  0  0  0  0  0  0  0  0  0  0  # atno 10763 bound_to 10752
  154.8697  135.3707  154.4952 H   0  0  0  0  0  0  0  0  0  0  0  0  # atno 10764 bound_to 10752
  153.5422  135.7084  153.5692 H   0  0  0  0  0  0  0  0  0  0  0  0  # atno 10765 bound_to 10752
  141.1450  133.6679  156.5962 H   0  0  0  0  0  0  0  0  0  0  0  0  # atno 11005 bound_to 11000
  145.6032  141.0352  143.2007 LP  0  0  0  0  0  0  0  0  0  0  0  0  # atno 17320 bound_to 7965
  144.7363  139.7577  143.7328 LP  0  0  0  0  0  0  0  0  0  0  0  0  # atno 17321 bound_to 7965
  140.5361  144.0653  150.6071 LP  0  0  0  0  0  0  0  0  0  0  0  0  # atno 17342 bound_to 10162
  140.3659  143.2881  152.0332 LP  0  0  0  0  0  0  0  0  0  0  0  0  # atno 17343 bound_to 10162
  157.4275  130.7472  149.6962 LP  0  0  0  0  0  0  0  0  0  0  0  0  # atno 17370 bound_to 10713
  155.9782  130.4054  150.3666 LP  0  0  0  0  0  0  0  0  0  0  0  0  # atno 17371 bound_to 10713
  140.3724  134.7594  157.4607 LP  0  0  0  0  0  0  0  0  0  0  0  0  # atno 17394 bound_to 11000
  140.0700  134.5876  155.8652 LP  0  0  0  0  0  0  0  0  0  0  0  0  # atno 17395 bound_to 11000

$$$$
