AV-unprocessed.smi:218|AV-procd|sdf|1662|dock2
  -GOLD-   2262020 63D 1   1.00000     0.00000
 Structure written by MMmdl.
 54 57  0  0  0  0  0  0  0  0  1 V2000
  152.2143  143.3553  159.0877 C   0  0  0  0  0  0  0  0  0  0  0  0
  151.3911  142.2533  158.4099 C   0  0  0  0  0  0  0  0  0  0  0  0
  152.0700  140.8807  158.5580 C   0  0  0  0  0  0  0  0  0  0  0  0
  151.2813  142.6080  157.0299 O   0  0  0  0  0  0  0  0  0  0  0  0
  150.8918  141.6648  156.0984 C   0  0  0  0  0  0  0  0  0  0  0  0
  149.6511  141.8380  155.4514 C   0  0  0  0  0  0  0  0  0  0  0  0
  149.2352  140.8833  154.5012 C   0  0  0  0  0  0  0  0  0  0  0  0
  147.8977  141.0375  153.8007 C   0  0  0  0  0  0  0  0  0  0  0  0
  147.6441  140.0318  152.7768 N   0  0  0  0  0  0  0  0  0  0  0  0
  146.6708  139.1141  152.9582 C   0  0  0  0  0  0  0  0  0  0  0  0
  145.9342  139.0901  154.1000 N   0  0  0  0  0  0  0  0  0  0  0  0
  144.9783  138.1693  154.2599 C   0  0  0  0  0  0  0  0  0  0  0  0
  144.6051  137.1991  153.4217 N   0  0  0  0  0  0  0  0  0  0  0  0
  145.3445  137.2207  152.2753 C   0  0  0  0  0  0  0  0  0  0  0  0
  146.3838  138.1407  151.9670 C   0  0  0  0  0  0  0  0  0  0  0  0
  146.9025  137.8592  150.7097 N   0  0  0  0  0  0  0  0  0  0  0  0
  146.2077  136.8297  150.3042 C   0  0  0  0  0  0  0  0  0  0  0  0
  145.2512  136.3791  151.1895 N   0  0  0  0  0  0  0  0  0  0  0  0
  144.2952  135.2391  151.0505 C   0  0  2  0  0  0  0  0  0  0  0  0
  144.3905  134.4596  152.2073 O   0  0  0  0  0  0  0  0  0  0  0  0
  144.7980  133.1281  151.8953 C   0  0  2  0  0  0  0  0  0  0  0  0
  145.6844  132.5729  153.0207 C   0  0  0  0  0  0  0  0  0  0  0  0
  146.7514  133.4600  153.2780 O   0  0  0  0  0  0  0  0  0  0  0  0
  145.5295  133.2829  150.5617 C   0  0  1  0  0  0  0  0  0  0  0  0
  145.5992  132.0835  149.8148 O   0  0  0  0  0  0  0  0  0  0  0  0
  144.7160  134.3631  149.8646 C   0  0  1  0  0  0  0  0  0  0  0  0
  143.5821  133.8545  149.1850 O   0  0  0  0  0  0  0  0  0  0  0  0
  150.0778  139.7814  154.2426 C   0  0  0  0  0  0  0  0  0  0  0  0
  151.2986  139.6931  154.9387 C   0  0  0  0  0  0  0  0  0  0  0  0
  151.7028  140.6076  155.8453 N   0  0  0  0  0  0  0  0  0  0  0  0
  143.3155  135.7082  150.9492 H   0  0  0  0  0  0  0  0  0  0  0  0
  143.9087  132.5113  151.7521 H   0  0  0  0  0  0  0  0  0  0  0  0
  146.5411  133.6517  150.7381 H   0  0  0  0  0  0  0  0  0  0  0  0
  145.3147  134.9284  149.1487 H   0  0  0  0  0  0  0  0  0  0  0  0
  152.3378  143.1559  160.1525 H   0  0  0  0  0  0  0  0  0  0  0  0
  151.7247  144.3243  158.9872 H   0  0  0  0  0  0  0  0  0  0  0  0
  153.2073  143.4365  158.6448 H   0  0  0  0  0  0  0  0  0  0  0  0
  150.4125  142.2397  158.8920 H   0  0  0  0  0  0  0  0  0  0  0  0
  152.1923  140.6178  159.6090 H   0  0  0  0  0  0  0  0  0  0  0  0
  153.0585  140.8795  158.0981 H   0  0  0  0  0  0  0  0  0  0  0  0
  151.4871  140.0875  158.0905 H   0  0  0  0  0  0  0  0  0  0  0  0
  149.0305  142.6910  155.6843 H   0  0  0  0  0  0  0  0  0  0  0  0
  147.1130  140.9901  154.5570 H   0  0  0  0  0  0  0  0  0  0  0  0
  147.8475  142.0274  153.3451 H   0  0  0  0  0  0  0  0  0  0  0  0
  148.2561  140.0471  151.9735 H   0  0  0  0  0  0  0  0  0  0  0  0
  144.4364  138.2154  155.1931 H   0  0  0  0  0  0  0  0  0  0  0  0
  146.3802  136.3698  149.3423 H   0  0  0  0  0  0  0  0  0  0  0  0
  145.1073  132.4810  153.9414 H   0  0  0  0  0  0  0  0  0  0  0  0
  146.0653  131.5809  152.7772 H   0  0  0  0  0  0  0  0  0  0  0  0
  147.3962  133.0108  153.8028 H   0  0  0  0  0  0  0  0  0  0  0  0
  145.3902  132.2834  148.9147 H   0  0  0  0  0  0  0  0  0  0  0  0
  142.8054  134.1508  149.6347 H   0  0  0  0  0  0  0  0  0  0  0  0
  149.7993  139.0155  153.5337 H   0  0  0  0  0  0  0  0  0  0  0  0
  151.9673  138.8628  154.7654 H   0  0  0  0  0  0  0  0  0  0  0  0
  1  2  1  0  0  0  0
  1 35  1  0  0  0  0
  1 36  1  0  0  0  0
  1 37  1  0  0  0  0
  2  3  1  0  0  0  0
  2  4  1  0  0  0  0
  2 38  1  0  0  0  0
  3 39  1  0  0  0  0
  3 40  1  0  0  0  0
  3 41  1  0  0  0  0
  4  5  1  0  0  0  0
  5 30  1  0  0  0  0
  5  6  2  0  0  0  0
  6  7  1  0  0  0  0
  6 42  1  0  0  0  0
  7  8  1  0  0  0  0
  7 28  2  0  0  0  0
  8  9  1  0  0  0  0
  8 43  1  0  0  0  0
  8 44  1  0  0  0  0
  9 10  1  0  0  0  0
  9 45  1  0  0  0  0
 10 15  1  0  0  0  0
 10 11  2  0  0  0  0
 11 12  1  0  0  0  0
 12 13  2  0  0  0  0
 12 46  1  0  0  0  0
 13 14  1  0  0  0  0
 14 18  1  0  0  0  0
 14 15  2  0  0  0  0
 15 16  1  0  0  0  0
 16 17  2  0  0  0  0
 17 18  1  0  0  0  0
 17 47  1  0  0  0  0
 18 19  1  0  0  0  0
 19 31  1  0  0  0  0
 19 26  1  0  0  0  0
 19 20  1  0  0  0  0
 20 21  1  0  0  0  0
 21 32  1  0  0  0  0
 21 22  1  0  0  0  0
 21 24  1  0  0  0  0
 22 23  1  0  0  0  0
 22 48  1  0  0  0  0
 22 49  1  0  0  0  0
 23 50  1  0  0  0  0
 24 33  1  0  0  0  0
 24 25  1  0  0  0  0
 24 26  1  0  0  0  0
 25 51  1  0  0  0  0
 26 34  1  0  0  0  0
 26 27  1  0  0  0  0
 27 52  1  0  0  0  0
 28 29  1  0  0  0  0
 28 53  1  0  0  0  0
 29 30  2  0  0  0  0
 29 54  1  0  0  0  0
M  END
> <s_m_source_file>
AV-unprocessed.smi

> <i_m_source_file_index>
218

> <i_lp_mmshare_version>
43012

> <i_f3d_flags>
0

> <s_epik_input>
W0NIM11bQ0hdKFtDSDNdKU9jMVtjSF1jKFtjSF1bY0hdbjEpW0NIMl1bTkhdYyhuW2NIXW4yKWMoYzIzKW5bY0hdbjNbQ0BASF00T1tDQEhdKFtDSDJdW09IXSlbQ0BASF0oW09IXSlbQ0BIXTRbT0hd

> <s_epik_cmdline>
J2VwaWtfcHl0aG9uJywgJy1waCcsICc3LjAnLCAnLXRuJywgJzgnLCAnLW1hJywgJzIwMCcsICctbWV0YWxfYmluZGluZycsICctaW1hZScsICc8aW5maWxlLm1hZT4nLCAnLW9tYWUnLCAnPG91dGZpbGUubWFlPic=

> <r_lp_tautomer_probability>
1

> <r_epik_Ionization_Penalty>
0.00457014

> <r_epik_Ionization_Penalty_Charging>
0

> <r_epik_Ionization_Penalty_Neutral>
0.00457014

> <r_epik_State_Penalty>
-0

> <r_epik_Charging_Adjusted_Penalty>
0

> <i_epik_Tot_Q>
0

> <i_epik_Tot_abs_Q>
0

> <r_epik_Metal_State_Penalty>
-0

> <b_epik_Metal_Only>
0

> <s_epik_Chemistry_Notes>
This compound contains an acetal/aminal-like group ( X-CH(R)-Y where X, Y are N, S, or O) that may be acid/base labile, releasing an aldehyde.

> <s_lp_Force_Field>
OPLS_2005

> <r_lp_Energy>
38.2737

> <b_lp_Chiralities_Consistent>
1

> <s_lp_Variant>
AV-unprocessed.smi:218-1

> <Gold.Version>
5.8.1

> <Gold.Id.Protein>
6NUR|6NUR_protein|mol2

> <Gold.PLP.Fitness>
53.7346

> <Gold.PLP.PLP>
-42.7555

> <Gold.PLP.part.hbond>
-3.4988

> <Gold.PLP.part.metal>
0.0000

> <Gold.PLP.part.buried>
1.5831

> <Gold.PLP.part.nonpolar>
-43.8981

> <Gold.PLP.part.repulsive>
2.9424

> <Gold.PLP.ligand.clash>
0.0000

> <Gold.PLP.ligand.torsion>
0.4748

> <Gold.PLP.Chemscore.Hbond>
2.9120

> <Gold.PLP.Chemscore.CHOScore>
1.0000

> <Gold.PLP.Chemscore.Metal>
0.0000

> <Gold.Chemscore.Hbonds>
donor molecule, donor type, donor heavy atom, donor atom, acceptor molecule, acceptor atom, score
      L1  H     9    45       P1  7957  1.00
      L1  H    27    52       P1 10186  0.93
      P1  H  7954  7966       L1    16  0.93
      L1  C    17    47       P1  7921  1.00

> <Gold.PLP.Chemscore.Internal.Correction>
0.1927

> <Gold.Rescore>
     Score         DG    S(hbond)    S(metal)    S(lipo)     H(rot)  DE(clash)    DE(int)     intcor
      6.62     -11.72       2.28        0.00      95.42       4.90       3.57       1.53       ----

> <Gold.Chemscore.Fitness>
6.6213

> <Gold.Chemscore.DG>
-11.7232

> <Gold.Chemscore.ZeroCoef>
-5.4800

> <Gold.Chemscore.Hbond>
2.2845

> <Gold.Chemscore.Metal>
0.0000

> <Gold.Chemscore.Lipo>
95.4234

> <Gold.Chemscore.Internal_Hbond>
0.0000

> <Gold.Chemscore.DEClash>
3.5708

> <Gold.Chemscore.DEInternal>
1.5311

> <Gold.Chemscore.Rot>
4.9029

> <Gold.Chemscore.Internal.Correction>
   9.000000E+99

> <Gold.Chemscore.Hbonds>
donor molecule, donor type, donor heavy atom, donor atom, acceptor molecule, acceptor atom, score
      L1  H     9    45       P1  7957  0.96
      L1  H    27    52       P1 10186  0.91
      P1  H  7954  7966       L1    16  0.49

> <Gold.Chemscore.Hbond.Weighted>
-7.6302

> <Gold.Chemscore.Metal.Weighted>
-0.0000

> <Gold.Chemscore.Lipo.Weighted>
-11.1645

> <Gold.Chemscore.Internal_Hbond.Weighted>
0.0000

> <Gold.Chemscore.DEClash.Weighted>
3.5708

> <Gold.Chemscore.DEInternal.Weighted>
1.5311

> <Gold.Chemscore.Rot.Weighted>
12.5515

> <Gold.Chemscore.Internal.Correction.Weighted>
   9.000000E+99

> <Gold.Protein.RotatedTorsions>
[ 6907 6896 6895 6894 ] final  110.44 input  -60.11 | X-H torsion
[ 7974 7965 7964 7962 ] final    9.74 input  175.53 | X-H torsion
[ 8008 7997 7996 7995 ] final -165.26 input   59.86 | X-H torsion
[ 10167 10162 10161 10158 ] final -146.41 input  -65.29 | X-H torsion
[ 10718 10713 10712 10709 ] final -123.29 input   66.30 | X-H torsion
[ 10763 10752 10751 10750 ] final -146.47 input  -60.55 | X-H torsion
[ 11005 11000 10999 10996 ] final  -26.79 input  -57.11 | X-H torsion

> <Gold.Protein.ActiveResidues>
 VAL166  LYS551  ARG553  GLY616  TRP617  ASP618  TYR619  PRO620  LYS621  CYS622 
 ASP623  PHE694  ASN695  SER759  ASP760  ASP761  ALA762  ILE779  LEU786  VAL792 
 PHE793  MET794  SER795  GLU796  ALA797  LYS798  CYS799  TRP800  GLU811  SER814 

> <Gold.Protein.RotatedAtoms>
  152.5019  133.8800  159.7341 H   0  0  0  0  0  0  0  0  0  0  0  0  # atno 6907 bound_to 6896
  150.9265  133.6809  159.2827 H   0  0  0  0  0  0  0  0  0  0  0  0  # atno 6908 bound_to 6896
  151.4168  135.0997  159.9654 H   0  0  0  0  0  0  0  0  0  0  0  0  # atno 6909 bound_to 6896
  146.2399  139.9739  142.8444 H   0  0  0  0  0  0  0  0  0  0  0  0  # atno 7974 bound_to 7965
  155.8472  140.0957  157.1697 H   0  0  0  0  0  0  0  0  0  0  0  0  # atno 8008 bound_to 7997
  154.3984  140.1390  156.3862 H   0  0  0  0  0  0  0  0  0  0  0  0  # atno 8009 bound_to 7997
  155.8000  140.3453  155.5400 H   0  0  0  0  0  0  0  0  0  0  0  0  # atno 8010 bound_to 7997
  139.7716  143.8229  152.2625 H   0  0  0  0  0  0  0  0  0  0  0  0  # atno 10167 bound_to 10162
  156.1490  130.6520  150.9885 H   0  0  0  0  0  0  0  0  0  0  0  0  # atno 10718 bound_to 10713
  154.8334  135.3385  154.6667 H   0  0  0  0  0  0  0  0  0  0  0  0  # atno 10763 bound_to 10752
  153.7284  135.6953  153.5000 H   0  0  0  0  0  0  0  0  0  0  0  0  # atno 10764 bound_to 10752
  153.2330  135.4410  155.0568 H   0  0  0  0  0  0  0  0  0  0  0  0  # atno 10765 bound_to 10752
  140.9061  133.7492  156.0607 H   0  0  0  0  0  0  0  0  0  0  0  0  # atno 11005 bound_to 11000
  145.1655  140.9695  143.4352 LP  0  0  0  0  0  0  0  0  0  0  0  0  # atno 17320 bound_to 7965
  145.0076  139.3540  143.6136 LP  0  0  0  0  0  0  0  0  0  0  0  0  # atno 17321 bound_to 7965
  139.8265  144.7272  150.9505 LP  0  0  0  0  0  0  0  0  0  0  0  0  # atno 17342 bound_to 10162
  140.7814  143.4109  151.0994 LP  0  0  0  0  0  0  0  0  0  0  0  0  # atno 17343 bound_to 10162
  157.6641  131.0875  150.7771 LP  0  0  0  0  0  0  0  0  0  0  0  0  # atno 17370 bound_to 10713
  156.7840  130.4868  149.5396 LP  0  0  0  0  0  0  0  0  0  0  0  0  # atno 17371 bound_to 10713
  140.8169  134.3334  157.5394 LP  0  0  0  0  0  0  0  0  0  0  0  0  # atno 17394 bound_to 11000
  139.8749  134.9287  156.3457 LP  0  0  0  0  0  0  0  0  0  0  0  0  # atno 17395 bound_to 11000

$$$$
