AV-unprocessed.smi:2184|AV-procd|sdf|8869|dock2
  -GOLD-   2272012 63D 1   1.00000     0.00000
 Structure written by MMmdl.
 47 48  0  0  0  0  0  0  0  0  1 V2000
  149.6018  133.1966  154.6457 C   0  0  0  0  0  0  0  0  0  0  0  0
  150.0678  134.9413  154.8119 S   0  0  0  0  0  0  0  0  0  0  0  0
  148.5054  135.6669  155.3943 C   0  0  2  0  0  0  0  0  0  0  0  0
  147.3359  135.1669  154.5317 C   0  0  0  0  0  0  0  0  0  0  0  0
  148.5558  137.1994  155.4138 C   0  0  0  0  0  0  0  0  0  0  0  0
  148.3920  137.8132  156.4689 O   0  0  0  0  0  0  0  0  0  0  0  0
  148.7689  137.8075  154.2362 N   0  0  0  0  0  0  0  0  0  0  0  0
  148.8153  139.2523  154.0417 C   0  0  0  0  0  0  0  0  0  0  0  0
  149.6597  139.9700  155.0814 C   0  0  0  0  0  0  0  0  0  0  0  0
  150.9865  139.5711  155.3339 C   0  0  0  0  0  0  0  0  0  0  0  0
  151.7316  140.2592  156.3105 C   0  0  0  0  0  0  0  0  0  0  0  0
  151.1302  141.3333  157.0090 C   0  0  0  0  0  0  0  0  0  0  0  0
  151.8587  142.0346  157.9938 N   0  0  0  0  0  0  0  0  0  0  0  0
  152.3257  141.2901  159.1611 C   0  0  0  0  0  0  0  0  0  0  0  0
  153.3395  142.1272  159.9626 C   0  0  2  0  0  0  0  0  0  0  0  0
  153.7649  141.4291  161.2585 C   0  0  0  0  0  0  0  0  0  0  0  0
  152.7475  143.3783  160.3012 O   0  0  0  0  0  0  0  0  0  0  0  0
  152.3955  144.1432  159.1514 C   0  0  2  0  0  0  0  0  0  0  0  0
  151.8581  145.4987  159.6220 C   0  0  0  0  0  0  0  0  0  0  0  0
  151.3558  143.3655  158.3223 C   0  0  0  0  0  0  0  0  0  0  0  0
  149.8518  141.7133  156.7620 N   0  0  0  0  0  0  0  0  0  0  0  0
  149.1436  141.0519  155.8233 C   0  0  0  0  0  0  0  0  0  0  0  0
  150.4313  132.6269  154.2273 H   0  0  0  0  0  0  0  0  0  0  0  0
  148.7415  133.0907  153.9849 H   0  0  0  0  0  0  0  0  0  0  0  0
  149.3527  132.7710  155.6170 H   0  0  0  0  0  0  0  0  0  0  0  0
  148.3432  135.3075  156.4117 H   0  0  0  0  0  0  0  0  0  0  0  0
  146.3884  135.5973  154.8581 H   0  0  0  0  0  0  0  0  0  0  0  0
  147.2415  134.0827  154.5973 H   0  0  0  0  0  0  0  0  0  0  0  0
  147.4747  135.4221  153.4802 H   0  0  0  0  0  0  0  0  0  0  0  0
  148.8950  137.2302  153.4174 H   0  0  0  0  0  0  0  0  0  0  0  0
  149.1739  139.4821  153.0366 H   0  0  0  0  0  0  0  0  0  0  0  0
  147.7972  139.6378  154.1011 H   0  0  0  0  0  0  0  0  0  0  0  0
  151.4280  138.7453  154.7956 H   0  0  0  0  0  0  0  0  0  0  0  0
  152.7428  139.9460  156.5232 H   0  0  0  0  0  0  0  0  0  0  0  0
  151.4709  141.0318  159.7881 H   0  0  0  0  0  0  0  0  0  0  0  0
  152.7948  140.3566  158.8472 H   0  0  0  0  0  0  0  0  0  0  0  0
  154.2296  142.3051  159.3563 H   0  0  0  0  0  0  0  0  0  0  0  0
  154.2345  140.4674  161.0501 H   0  0  0  0  0  0  0  0  0  0  0  0
  152.9087  141.2503  161.9095 H   0  0  0  0  0  0  0  0  0  0  0  0
  154.4822  142.0367  161.8107 H   0  0  0  0  0  0  0  0  0  0  0  0
  153.2896  144.3158  158.5494 H   0  0  0  0  0  0  0  0  0  0  0  0
  151.5840  146.1276  158.7747 H   0  0  0  0  0  0  0  0  0  0  0  0
  152.6081  146.0340  160.2046 H   0  0  0  0  0  0  0  0  0  0  0  0
  150.9740  145.3769  160.2487 H   0  0  0  0  0  0  0  0  0  0  0  0
  151.1161  143.9368  157.4267 H   0  0  0  0  0  0  0  0  0  0  0  0
  150.4287  143.2582  158.8870 H   0  0  0  0  0  0  0  0  0  0  0  0
  148.1329  141.3971  155.6628 H   0  0  0  0  0  0  0  0  0  0  0  0
  1  2  1  0  0  0  0
  1 23  1  0  0  0  0
  1 24  1  0  0  0  0
  1 25  1  0  0  0  0
  2  3  1  0  0  0  0
  3  4  1  0  0  0  0
  3  5  1  0  0  0  0
  3 26  1  0  0  0  0
  4 27  1  0  0  0  0
  4 28  1  0  0  0  0
  4 29  1  0  0  0  0
  5  6  2  0  0  0  0
  5  7  1  0  0  0  0
  7  8  1  0  0  0  0
  7 30  1  0  0  0  0
  8  9  1  0  0  0  0
  8 31  1  0  0  0  0
  8 32  1  0  0  0  0
  9 22  1  0  0  0  0
  9 10  2  0  0  0  0
 10 11  1  0  0  0  0
 10 33  1  0  0  0  0
 11 12  2  0  0  0  0
 11 34  1  0  0  0  0
 12 13  1  0  0  0  0
 12 21  1  0  0  0  0
 13 20  1  0  0  0  0
 13 14  1  0  0  0  0
 14 15  1  0  0  0  0
 14 35  1  0  0  0  0
 14 36  1  0  0  0  0
 15 16  1  0  0  0  0
 15 17  1  0  0  0  0
 15 37  1  0  0  0  0
 16 38  1  0  0  0  0
 16 39  1  0  0  0  0
 16 40  1  0  0  0  0
 17 18  1  0  0  0  0
 18 19  1  0  0  0  0
 18 20  1  0  0  0  0
 18 41  1  0  0  0  0
 19 42  1  0  0  0  0
 19 43  1  0  0  0  0
 19 44  1  0  0  0  0
 20 45  1  0  0  0  0
 20 46  1  0  0  0  0
 21 22  2  0  0  0  0
 22 47  1  0  0  0  0
M  END
> <s_m_source_file>
AV-unprocessed.smi

> <i_m_source_file_index>
2184

> <i_lp_mmshare_version>
43012

> <i_f3d_flags>
0

> <s_epik_input>
W0NIM11TW0NASF0oW0NIM10pQyg9TylbTkhdW0NIMl1jMVtjSF1bY0hdYyhuW2NIXTEpTjJbQ0gyXVtDQEBIXShbQ0gzXSlPW0NAQEhdKFtDSDNdKVtDSDJdMg==

> <s_epik_cmdline>
J2VwaWtfcHl0aG9uJywgJy1waCcsICc3LjAnLCAnLXRuJywgJzgnLCAnLW1hJywgJzIwMCcsICctbWV0YWxfYmluZGluZycsICctaW1hZScsICc8aW5maWxlLm1hZT4nLCAnLW9tYWUnLCAnPG91dGZpbGUubWFlPic=

> <r_lp_tautomer_probability>
1

> <r_epik_Ionization_Penalty>
0.00551702

> <r_epik_Ionization_Penalty_Charging>
0

> <r_epik_Ionization_Penalty_Neutral>
0.00551702

> <r_epik_State_Penalty>
0.00403758

> <r_epik_Charging_Adjusted_Penalty>
0.00403758

> <i_epik_Tot_Q>
0

> <i_epik_Tot_abs_Q>
0

> <r_epik_Metal_State_Penalty>
-0

> <b_epik_Metal_Only>
0

> <s_lp_Force_Field>
OPLS_2005

> <r_lp_Energy>
14.0724

> <b_lp_Chiralities_Consistent>
1

> <s_lp_Variant>
AV-unprocessed.smi:2184-1

> <Gold.Version>
5.8.1

> <Gold.Id.Protein>
6NUR|6NUR_protein|mol2

> <Gold.PLP.Fitness>
44.7982

> <Gold.PLP.PLP>
-42.4097

> <Gold.PLP.part.hbond>
-1.0000

> <Gold.PLP.part.metal>
0.0000

> <Gold.PLP.part.buried>
-2.2178

> <Gold.PLP.part.nonpolar>
-38.4258

> <Gold.PLP.part.repulsive>
0.1398

> <Gold.PLP.ligand.clash>
0.0000

> <Gold.PLP.ligand.torsion>
0.4919

> <Gold.PLP.Chemscore.Hbond>
1.0000

> <Gold.PLP.Chemscore.CHOScore>
0.0000

> <Gold.PLP.Chemscore.Metal>
0.0000

> <Gold.Chemscore.Hbonds>
donor molecule, donor type, donor heavy atom, donor atom, acceptor molecule, acceptor atom, score
      L1  H     7    30       P1  7948  1.00

> <Gold.PLP.Chemscore.Internal.Correction>
0.3724

> <Gold.Rescore>
     Score         DG    S(hbond)    S(metal)    S(lipo)     H(rot)  DE(clash)    DE(int)     intcor
     15.99     -17.98       1.00        0.00     113.19       1.59       0.18       1.81       ----

> <Gold.Chemscore.Fitness>
15.9919

> <Gold.Chemscore.DG>
-17.9810

> <Gold.Chemscore.ZeroCoef>
-5.4800

> <Gold.Chemscore.Hbond>
1.0000

> <Gold.Chemscore.Metal>
0.0000

> <Gold.Chemscore.Lipo>
113.1924

> <Gold.Chemscore.Internal_Hbond>
0.0000

> <Gold.Chemscore.DEClash>
0.1797

> <Gold.Chemscore.DEInternal>
1.8095

> <Gold.Chemscore.Rot>
1.5947

> <Gold.Chemscore.Internal.Correction>
   9.000000E+99

> <Gold.Chemscore.Hbonds>
donor molecule, donor type, donor heavy atom, donor atom, acceptor molecule, acceptor atom, score
      L1  H     7    30       P1  7948  1.00

> <Gold.Chemscore.Hbond.Weighted>
-3.3399

> <Gold.Chemscore.Metal.Weighted>
-0.0000

> <Gold.Chemscore.Lipo.Weighted>
-13.2435

> <Gold.Chemscore.Internal_Hbond.Weighted>
0.0000

> <Gold.Chemscore.DEClash.Weighted>
0.1797

> <Gold.Chemscore.DEInternal.Weighted>
1.8095

> <Gold.Chemscore.Rot.Weighted>
4.0824

> <Gold.Chemscore.Internal.Correction.Weighted>
   9.000000E+99

> <Gold.Protein.RotatedTorsions>
[ 6907 6896 6895 6894 ] final  -55.42 input  -60.11 | X-H torsion
[ 7974 7965 7964 7962 ] final   42.61 input  175.53 | X-H torsion
[ 8008 7997 7996 7995 ] final  -74.89 input   59.86 | X-H torsion
[ 10167 10162 10161 10158 ] final  134.56 input  -65.29 | X-H torsion
[ 10718 10713 10712 10709 ] final    7.84 input   66.30 | X-H torsion
[ 10763 10752 10751 10750 ] final   -7.66 input  -60.55 | X-H torsion
[ 11005 11000 10999 10996 ] final -174.90 input  -57.11 | X-H torsion

> <Gold.Protein.ActiveResidues>
 VAL166  LYS551  ARG553  GLY616  TRP617  ASP618  TYR619  PRO620  LYS621  CYS622 
 ASP623  PHE694  ASN695  SER759  ASP760  ASP761  ALA762  ILE779  LEU786  VAL792 
 PHE793  MET794  SER795  GLU796  ALA797  LYS798  CYS799  TRP800  GLU811  SER814 

> <Gold.Protein.RotatedAtoms>
  150.8253  134.7481  159.6807 H   0  0  0  0  0  0  0  0  0  0  0  0  # atno 6907 bound_to 6896
  152.4364  134.5674  159.9921 H   0  0  0  0  0  0  0  0  0  0  0  0  # atno 6908 bound_to 6896
  151.5848  133.3336  159.3051 H   0  0  0  0  0  0  0  0  0  0  0  0  # atno 6909 bound_to 6896
  146.0726  139.5281  142.9588 H   0  0  0  0  0  0  0  0  0  0  0  0  # atno 7974 bound_to 7965
  154.5370  140.0753  156.8444 H   0  0  0  0  0  0  0  0  0  0  0  0  # atno 8008 bound_to 7997
  155.3258  140.3399  155.4222 H   0  0  0  0  0  0  0  0  0  0  0  0  # atno 8009 bound_to 7997
  156.1837  140.1661  156.8212 H   0  0  0  0  0  0  0  0  0  0  0  0  # atno 8010 bound_to 7997
  139.5251  144.6561  151.5157 H   0  0  0  0  0  0  0  0  0  0  0  0  # atno 10167 bound_to 10162
  156.9428  130.5868  149.5653 H   0  0  0  0  0  0  0  0  0  0  0  0  # atno 10718 bound_to 10713
  153.4295  135.7011  153.6240 H   0  0  0  0  0  0  0  0  0  0  0  0  # atno 10763 bound_to 10752
  153.4661  135.3725  155.2365 H   0  0  0  0  0  0  0  0  0  0  0  0  # atno 10764 bound_to 10752
  154.8725  135.4032  154.3676 H   0  0  0  0  0  0  0  0  0  0  0  0  # atno 10765 bound_to 10752
  140.4694  134.6180  157.4875 H   0  0  0  0  0  0  0  0  0  0  0  0  # atno 11005 bound_to 11000
  145.6364  141.0293  143.1835 LP  0  0  0  0  0  0  0  0  0  0  0  0  # atno 17320 bound_to 7965
  144.7241  139.7933  143.7371 LP  0  0  0  0  0  0  0  0  0  0  0  0  # atno 17321 bound_to 7965
  140.6387  143.8932  150.6671 LP  0  0  0  0  0  0  0  0  0  0  0  0  # atno 17342 bound_to 10162
  140.2259  143.3773  152.1605 LP  0  0  0  0  0  0  0  0  0  0  0  0  # atno 17343 bound_to 10162
  156.0397  130.5480  150.8740 LP  0  0  0  0  0  0  0  0  0  0  0  0  # atno 17370 bound_to 10713
  157.5773  131.0946  150.9325 LP  0  0  0  0  0  0  0  0  0  0  0  0  # atno 17371 bound_to 10713
  139.9895  134.7008  155.9715 LP  0  0  0  0  0  0  0  0  0  0  0  0  # atno 17394 bound_to 11000
  141.1584  133.6541  156.4238 LP  0  0  0  0  0  0  0  0  0  0  0  0  # atno 17395 bound_to 11000

$$$$
