AV-unprocessed.smi:2989|AV-procd|sdf|11391|dock10
  -GOLD-   2272016313D 1   1.00000     0.00000
 Structure written by MMmdl.
 31 33  0  0  0  0  0  0  0  0  1 V2000
  150.3836  144.1034  158.0508 O   0  0  0  0  0  0  0  0  0  0  0  0
  151.1147  142.9104  158.2486 C   0  0  2  0  0  0  0  0  0  0  0  0
  150.1664  141.7165  158.0217 C   0  0  0  0  0  0  0  0  0  0  0  0
  150.0194  141.3932  156.6131 N   0  0  0  0  0  0  0  0  0  0  0  0
  151.0870  140.8982  155.9254 N   0  0  0  0  0  0  0  0  0  0  0  0
  150.7210  140.6644  154.7004 N   0  0  0  0  0  0  0  0  0  0  0  0
  149.3852  141.0094  154.5788 C   0  0  0  0  0  0  0  0  0  0  0  0
  148.4929  140.9530  153.4842 C   0  0  0  0  0  0  0  0  0  0  0  0
  147.1532  141.3703  153.6389 C   0  0  0  0  0  0  0  0  0  0  0  0
  146.6898  141.8472  154.8841 C   0  0  0  0  0  0  0  0  0  0  0  0
  147.5662  141.9114  155.9848 C   0  0  0  0  0  0  0  0  0  0  0  0
  148.8972  141.4924  155.8133 C   0  0  0  0  0  0  0  0  0  0  0  0
  151.7806  142.8641  159.6171 C   0  0  0  0  0  0  0  0  0  0  0  0
  152.6258  141.7843  159.9522 C   0  0  0  0  0  0  0  0  0  0  0  0
  153.2222  141.7183  161.2264 C   0  0  0  0  0  0  0  0  0  0  0  0
  152.9761  142.7311  162.1731 C   0  0  0  0  0  0  0  0  0  0  0  0
  152.1334  143.8102  161.8452 C   0  0  0  0  0  0  0  0  0  0  0  0
  151.5373  143.8771  160.5709 C   0  0  0  0  0  0  0  0  0  0  0  0
  150.0511  144.1065  157.1661 H   0  0  0  0  0  0  0  0  0  0  0  0
  151.8913  142.8957  157.4826 H   0  0  0  0  0  0  0  0  0  0  0  0
  150.5251  140.8314  158.5486 H   0  0  0  0  0  0  0  0  0  0  0  0
  149.1767  141.9375  158.4251 H   0  0  0  0  0  0  0  0  0  0  0  0
  148.8367  140.5876  152.5278 H   0  0  0  0  0  0  0  0  0  0  0  0
  146.4770  141.3229  152.7981 H   0  0  0  0  0  0  0  0  0  0  0  0
  145.6624  142.1619  154.9938 H   0  0  0  0  0  0  0  0  0  0  0  0
  147.2210  142.2708  156.9430 H   0  0  0  0  0  0  0  0  0  0  0  0
  152.8114  140.9969  159.2363 H   0  0  0  0  0  0  0  0  0  0  0  0
  153.8659  140.8886  161.4783 H   0  0  0  0  0  0  0  0  0  0  0  0
  153.4319  142.6793  163.1509 H   0  0  0  0  0  0  0  0  0  0  0  0
  151.9413  144.5855  162.5721 H   0  0  0  0  0  0  0  0  0  0  0  0
  150.8853  144.7042  160.3311 H   0  0  0  0  0  0  0  0  0  0  0  0
  1  2  1  0  0  0  0
  1 19  1  0  0  0  0
  2  3  1  0  0  0  0
  2 13  1  0  0  0  0
  2 20  1  0  0  0  0
  3  4  1  0  0  0  0
  3 21  1  0  0  0  0
  3 22  1  0  0  0  0
  4 12  1  0  0  0  0
  4  5  1  0  0  0  0
  5  6  2  0  0  0  0
  6  7  1  0  0  0  0
  7 12  2  0  0  0  0
  7  8  1  0  0  0  0
  8  9  2  0  0  0  0
  8 23  1  0  0  0  0
  9 10  1  0  0  0  0
  9 24  1  0  0  0  0
 10 11  2  0  0  0  0
 10 25  1  0  0  0  0
 11 12  1  0  0  0  0
 11 26  1  0  0  0  0
 13 18  1  0  0  0  0
 13 14  2  0  0  0  0
 14 15  1  0  0  0  0
 14 27  1  0  0  0  0
 15 16  2  0  0  0  0
 15 28  1  0  0  0  0
 16 17  1  0  0  0  0
 16 29  1  0  0  0  0
 17 18  2  0  0  0  0
 17 30  1  0  0  0  0
 18 31  1  0  0  0  0
M  END
> <s_m_source_file>
AV-unprocessed.smi

> <i_m_source_file_index>
2989

> <i_lp_mmshare_version>
43012

> <i_f3d_flags>
0

> <s_epik_input>
W2NIXTFbY0hdW2NIXVtjSF1bY0hdYzFbQ0BIXShbT0hdKVtDSDJdbihubjIpYyhjMjMpW2NIXVtjSF1bY0hdW2NIXTM=

> <s_epik_cmdline>
J2VwaWtfcHl0aG9uJywgJy1waCcsICc3LjAnLCAnLXRuJywgJzgnLCAnLW1hJywgJzIwMCcsICctbWV0YWxfYmluZGluZycsICctaW1hZScsICc8aW5maWxlLm1hZT4nLCAnLW9tYWUnLCAnPG91dGZpbGUubWFlPic=

> <r_lp_tautomer_probability>
1

> <r_epik_Ionization_Penalty>
4.09993e-05

> <r_epik_Ionization_Penalty_Charging>
0

> <r_epik_Ionization_Penalty_Neutral>
4.09993e-05

> <r_epik_State_Penalty>
-0

> <r_epik_Charging_Adjusted_Penalty>
0

> <i_epik_Tot_Q>
0

> <i_epik_Tot_abs_Q>
0

> <r_epik_Metal_State_Penalty>
-0

> <b_epik_Metal_Only>
0

> <s_lp_Force_Field>
OPLS_2005

> <r_lp_Energy>
11.9105

> <b_lp_Chiralities_Consistent>
1

> <s_lp_Variant>
AV-unprocessed.smi:2989-1

> <Gold.Version>
5.8.1

> <Gold.Id.Protein>
6NUR|6NUR_protein|mol2

> <Gold.PLP.Fitness>
46.6805

> <Gold.PLP.PLP>
-41.3804

> <Gold.PLP.part.hbond>
-2.4460

> <Gold.PLP.part.metal>
0.0000

> <Gold.PLP.part.buried>
-1.3569

> <Gold.PLP.part.nonpolar>
-37.3294

> <Gold.PLP.part.repulsive>
0.1137

> <Gold.PLP.ligand.clash>
0.0000

> <Gold.PLP.ligand.torsion>
0.3449

> <Gold.PLP.Chemscore.Hbond>
1.9920

> <Gold.PLP.Chemscore.CHOScore>
0.0000

> <Gold.PLP.Chemscore.Metal>
0.0000

> <Gold.Chemscore.Hbonds>
donor molecule, donor type, donor heavy atom, donor atom, acceptor molecule, acceptor atom, score
      L1  H     1    19       P1  8028  1.00
      P1  H  7989  7998       L1     6  0.92

> <Gold.PLP.Chemscore.Internal.Correction>
0.0139

> <Gold.Rescore>
     Score         DG    S(hbond)    S(metal)    S(lipo)     H(rot)  DE(clash)    DE(int)     intcor
     18.68     -20.27       1.74        0.00     115.28       1.76       1.28       0.30       ----

> <Gold.Chemscore.Fitness>
18.6848

> <Gold.Chemscore.DG>
-20.2707

> <Gold.Chemscore.ZeroCoef>
-5.4800

> <Gold.Chemscore.Hbond>
1.7361

> <Gold.Chemscore.Metal>
0.0000

> <Gold.Chemscore.Lipo>
115.2781

> <Gold.Chemscore.Internal_Hbond>
0.0000

> <Gold.Chemscore.DEClash>
1.2836

> <Gold.Chemscore.DEInternal>
0.3022

> <Gold.Chemscore.Rot>
1.7561

> <Gold.Chemscore.Internal.Correction>
   9.000000E+99

> <Gold.Chemscore.Hbonds>
donor molecule, donor type, donor heavy atom, donor atom, acceptor molecule, acceptor atom, score
      L1  H     1    19       P1  8028  0.78
      P1  H  7989  7998       L1     6  0.79

> <Gold.Chemscore.Hbond.Weighted>
-5.7986

> <Gold.Chemscore.Metal.Weighted>
-0.0000

> <Gold.Chemscore.Lipo.Weighted>
-13.4875

> <Gold.Chemscore.Internal_Hbond.Weighted>
0.0000

> <Gold.Chemscore.DEClash.Weighted>
1.2836

> <Gold.Chemscore.DEInternal.Weighted>
0.3022

> <Gold.Chemscore.Rot.Weighted>
4.4955

> <Gold.Chemscore.Internal.Correction.Weighted>
   9.000000E+99

> <Gold.Protein.RotatedTorsions>
[ 6907 6896 6895 6894 ] final  -36.57 input  -60.11 | X-H torsion
[ 7974 7965 7964 7962 ] final -164.74 input  175.53 | X-H torsion
[ 8008 7997 7996 7995 ] final  -69.58 input   59.86 | X-H torsion
[ 10167 10162 10161 10158 ] final   87.43 input  -65.29 | X-H torsion
[ 10718 10713 10712 10709 ] final  -17.61 input   66.30 | X-H torsion
[ 10763 10752 10751 10750 ] final  -69.22 input  -60.55 | X-H torsion
[ 11005 11000 10999 10996 ] final   74.50 input  -57.11 | X-H torsion

> <Gold.Protein.ActiveResidues>
 VAL166  LYS551  ARG553  GLY616  TRP617  ASP618  TYR619  PRO620  LYS621  CYS622 
 ASP623  PHE694  ASN695  SER759  ASP760  ASP761  ALA762  ILE779  LEU786  VAL792 
 PHE793  MET794  SER795  GLU796  ALA797  LYS798  CYS799  TRP800  GLU811  SER814 

> <Gold.Protein.RotatedAtoms>
  151.0255  134.9501  159.8082 H   0  0  0  0  0  0  0  0  0  0  0  0  # atno 6907 bound_to 6896
  152.5334  134.2848  159.9031 H   0  0  0  0  0  0  0  0  0  0  0  0  # atno 6908 bound_to 6896
  151.2856  133.4147  159.2664 H   0  0  0  0  0  0  0  0  0  0  0  0  # atno 6909 bound_to 6896
  144.7288  140.2917  143.6219 H   0  0  0  0  0  0  0  0  0  0  0  0  # atno 7974 bound_to 7965
  154.4949  140.0850  156.7675 H   0  0  0  0  0  0  0  0  0  0  0  0  # atno 8008 bound_to 7997
  155.4140  140.3443  155.4248 H   0  0  0  0  0  0  0  0  0  0  0  0  # atno 8009 bound_to 7997
  156.1380  140.1521  156.8952 H   0  0  0  0  0  0  0  0  0  0  0  0  # atno 8010 bound_to 7997
  139.8774  144.6459  150.8881 H   0  0  0  0  0  0  0  0  0  0  0  0  # atno 10167 bound_to 10162
  156.5711  130.4750  149.6362 H   0  0  0  0  0  0  0  0  0  0  0  0  # atno 10718 bound_to 10713
  154.4003  135.6032  153.5893 H   0  0  0  0  0  0  0  0  0  0  0  0  # atno 10763 bound_to 10752
  152.9788  135.5905  154.4192 H   0  0  0  0  0  0  0  0  0  0  0  0  # atno 10764 bound_to 10752
  154.3989  135.2842  155.2087 H   0  0  0  0  0  0  0  0  0  0  0  0  # atno 10765 bound_to 10752
  139.9388  134.7438  156.1156 H   0  0  0  0  0  0  0  0  0  0  0  0  # atno 11005 bound_to 11000
  145.7849  139.1905  143.2136 LP  0  0  0  0  0  0  0  0  0  0  0  0  # atno 17320 bound_to 7965
  146.0804  140.7770  142.9644 LP  0  0  0  0  0  0  0  0  0  0  0  0  # atno 17321 bound_to 7965
  140.7750  143.3614  151.1822 LP  0  0  0  0  0  0  0  0  0  0  0  0  # atno 17342 bound_to 10162
  139.7227  143.9197  152.2991 LP  0  0  0  0  0  0  0  0  0  0  0  0  # atno 17343 bound_to 10162
  156.2714  130.7019  151.1817 LP  0  0  0  0  0  0  0  0  0  0  0  0  # atno 17370 bound_to 10713
  157.7348  131.0578  150.5505 LP  0  0  0  0  0  0  0  0  0  0  0  0  # atno 17371 bound_to 10713
  141.1013  133.6676  156.2762 LP  0  0  0  0  0  0  0  0  0  0  0  0  # atno 17394 bound_to 11000
  140.6006  134.5558  157.5517 LP  0  0  0  0  0  0  0  0  0  0  0  0  # atno 17395 bound_to 11000

$$$$
