AV-unprocessed.smi:2743|AV-procd|sdf|10566|dock3
  -GOLD-   2272015 23D 1   1.00000     0.00000
 Structure written by MMmdl.
 38 39  0  0  0  0  0  0  0  0  1 V2000
  146.2148  142.0413  154.5895 N   0  0  0  0  0  0  0  0  0  0  0  0
  146.1577  142.4795  155.6593 C   0  0  0  0  0  0  0  0  0  0  0  0
  146.0877  143.0389  157.0197 C   0  0  0  0  0  0  0  0  0  0  0  0
  147.1198  142.4435  157.9777 C   0  0  0  0  0  0  0  0  0  0  0  0
  146.7636  141.8751  159.0098 O   0  0  0  0  0  0  0  0  0  0  0  0
  148.4050  142.5945  157.6230 N   0  0  0  0  0  0  0  0  0  0  0  0
  149.5627  142.1306  158.3875 C   0  0  0  0  0  0  0  0  0  0  0  0
  150.8919  142.1716  157.5748 C   0  0  0  0  0  0  0  0  0  0  0  0
  150.8125  141.1163  156.4485 C   0  0  0  0  0  0  0  0  0  0  0  0
  151.7102  140.0215  156.4390 C   0  0  0  0  0  0  0  0  0  0  0  0
  151.6182  139.0602  155.4136 C   0  0  0  0  0  0  0  0  0  0  0  0
  150.7036  139.1167  154.4247 N   0  0  0  0  0  0  0  0  0  0  0  0
  149.8387  140.1511  154.4321 C   0  0  0  0  0  0  0  0  0  0  0  0
  149.8478  141.1651  155.4105 C   0  0  0  0  0  0  0  0  0  0  0  0
  151.1474  143.6025  157.0043 C   0  0  0  0  0  0  0  0  0  0  0  0
  151.4376  144.6711  158.0737 C   0  0  0  0  0  0  0  0  0  0  0  0
  152.6272  144.2661  158.9500 C   0  0  0  0  0  0  0  0  0  0  0  0
  152.3951  142.8870  159.5766 C   0  0  0  0  0  0  0  0  0  0  0  0
  152.0918  141.8236  158.5046 C   0  0  0  0  0  0  0  0  0  0  0  0
  146.2252  144.1182  156.9478 H   0  0  0  0  0  0  0  0  0  0  0  0
  145.0858  142.8579  157.4097 H   0  0  0  0  0  0  0  0  0  0  0  0
  148.6015  143.0792  156.7592 H   0  0  0  0  0  0  0  0  0  0  0  0
  149.6444  142.6763  159.3270 H   0  0  0  0  0  0  0  0  0  0  0  0
  149.3461  141.1029  158.6801 H   0  0  0  0  0  0  0  0  0  0  0  0
  152.4608  139.9051  157.2059 H   0  0  0  0  0  0  0  0  0  0  0  0
  152.2963  138.2201  155.3916 H   0  0  0  0  0  0  0  0  0  0  0  0
  149.1113  140.1708  153.6341 H   0  0  0  0  0  0  0  0  0  0  0  0
  149.1114  141.9501  155.3404 H   0  0  0  0  0  0  0  0  0  0  0  0
  152.0135  143.5742  156.3414 H   0  0  0  0  0  0  0  0  0  0  0  0
  150.3090  143.9349  156.3922 H   0  0  0  0  0  0  0  0  0  0  0  0
  151.6491  145.6246  157.5890 H   0  0  0  0  0  0  0  0  0  0  0  0
  150.5583  144.8401  158.6947 H   0  0  0  0  0  0  0  0  0  0  0  0
  153.5363  144.2461  158.3474 H   0  0  0  0  0  0  0  0  0  0  0  0
  152.7883  145.0103  159.7302 H   0  0  0  0  0  0  0  0  0  0  0  0
  153.2775  142.5918  160.1448 H   0  0  0  0  0  0  0  0  0  0  0  0
  151.5786  142.9406  160.2966 H   0  0  0  0  0  0  0  0  0  0  0  0
  151.9327  140.8693  159.0061 H   0  0  0  0  0  0  0  0  0  0  0  0
  152.9868  141.6932  157.8940 H   0  0  0  0  0  0  0  0  0  0  0  0
  1  2  3  0  0  0  0
  2  3  1  0  0  0  0
  3  4  1  0  0  0  0
  3 20  1  0  0  0  0
  3 21  1  0  0  0  0
  4  5  2  0  0  0  0
  4  6  1  0  0  0  0
  6  7  1  0  0  0  0
  6 22  1  0  0  0  0
  7  8  1  0  0  0  0
  7 23  1  0  0  0  0
  7 24  1  0  0  0  0
  8 19  1  0  0  0  0
  8  9  1  0  0  0  0
  8 15  1  0  0  0  0
  9 14  1  0  0  0  0
  9 10  2  0  0  0  0
 10 11  1  0  0  0  0
 10 25  1  0  0  0  0
 11 12  2  0  0  0  0
 11 26  1  0  0  0  0
 12 13  1  0  0  0  0
 13 14  2  0  0  0  0
 13 27  1  0  0  0  0
 14 28  1  0  0  0  0
 15 16  1  0  0  0  0
 15 29  1  0  0  0  0
 15 30  1  0  0  0  0
 16 17  1  0  0  0  0
 16 31  1  0  0  0  0
 16 32  1  0  0  0  0
 17 18  1  0  0  0  0
 17 33  1  0  0  0  0
 17 34  1  0  0  0  0
 18 19  1  0  0  0  0
 18 35  1  0  0  0  0
 18 36  1  0  0  0  0
 19 37  1  0  0  0  0
 19 38  1  0  0  0  0
M  END
> <s_m_source_file>
AV-unprocessed.smi

> <i_m_source_file_index>
2743

> <i_lp_mmshare_version>
43012

> <i_f3d_flags>
0

> <s_epik_input>
TiNDW0NIMl1DKD1PKVtOSF1bQ0gyXUMxKFtDSDJdW0NIMl1bQ0gyXVtDSDJdW0NIMl0xKWMyW2NIXVtjSF1uW2NIXVtjSF0y

> <s_epik_cmdline>
J2VwaWtfcHl0aG9uJywgJy1waCcsICc3LjAnLCAnLXRuJywgJzgnLCAnLW1hJywgJzIwMCcsICctbWV0YWxfYmluZGluZycsICctaW1hZScsICc8aW5maWxlLm1hZT4nLCAnLW9tYWUnLCAnPG91dGZpbGUubWFlPic=

> <r_epik_Ionization_Penalty>
0.0541122

> <r_epik_Ionization_Penalty_Charging>
0

> <r_epik_Ionization_Penalty_Neutral>
0.0541122

> <r_epik_State_Penalty>
0.0465294

> <r_epik_Charging_Adjusted_Penalty>
0.0465294

> <i_epik_Tot_Q>
0

> <i_epik_Tot_abs_Q>
0

> <r_epik_Metal_State_Penalty>
0.042555

> <b_epik_Metal_Only>
0

> <s_lp_Force_Field>
OPLS_2005

> <r_lp_Energy>
19.5313

> <b_lp_Chiralities_Consistent>
1

> <s_lp_Variant>
AV-unprocessed.smi:2743-1

> <Gold.Version>
5.8.1

> <Gold.Id.Protein>
6NUR|6NUR_protein|mol2

> <Gold.PLP.Fitness>
45.2589

> <Gold.PLP.PLP>
-37.5823

> <Gold.PLP.part.hbond>
-3.0466

> <Gold.PLP.part.metal>
0.0000

> <Gold.PLP.part.buried>
0.5424

> <Gold.PLP.part.nonpolar>
-35.5963

> <Gold.PLP.part.repulsive>
0.4329

> <Gold.PLP.ligand.clash>
0.0000

> <Gold.PLP.ligand.torsion>
0.1203

> <Gold.PLP.Chemscore.Hbond>
1.7200

> <Gold.PLP.Chemscore.CHOScore>
0.9122

> <Gold.PLP.Chemscore.Metal>
0.0000

> <Gold.Chemscore.Hbonds>
donor molecule, donor type, donor heavy atom, donor atom, acceptor molecule, acceptor atom, score
      L1  H     6    22       P1  8028  1.00
      P1  H  6934  6946       L1     5  0.72
      L1  C    13    27       P1  7957  0.92

> <Gold.PLP.Chemscore.Internal.Correction>
0.0207

> <Gold.Rescore>
     Score         DG    S(hbond)    S(metal)    S(lipo)     H(rot)  DE(clash)    DE(int)     intcor
     16.83     -18.13       1.44        0.00     106.11       1.79       0.14       1.15       ----

> <Gold.Chemscore.Fitness>
16.8290

> <Gold.Chemscore.DG>
-18.1267

> <Gold.Chemscore.ZeroCoef>
-5.4800

> <Gold.Chemscore.Hbond>
1.4410

> <Gold.Chemscore.Metal>
0.0000

> <Gold.Chemscore.Lipo>
106.1107

> <Gold.Chemscore.Internal_Hbond>
0.0000

> <Gold.Chemscore.DEClash>
0.1442

> <Gold.Chemscore.DEInternal>
1.1535

> <Gold.Chemscore.Rot>
1.7895

> <Gold.Chemscore.Internal.Correction>
   9.000000E+99

> <Gold.Chemscore.Hbonds>
donor molecule, donor type, donor heavy atom, donor atom, acceptor molecule, acceptor atom, score
      L1  H     6    22       P1  8028  0.66
      P1  H  6934  6946       L1     5  0.70

> <Gold.Chemscore.Hbond.Weighted>
-4.8130

> <Gold.Chemscore.Metal.Weighted>
-0.0000

> <Gold.Chemscore.Lipo.Weighted>
-12.4149

> <Gold.Chemscore.Internal_Hbond.Weighted>
0.0000

> <Gold.Chemscore.DEClash.Weighted>
0.1442

> <Gold.Chemscore.DEInternal.Weighted>
1.1535

> <Gold.Chemscore.Rot.Weighted>
4.5812

> <Gold.Chemscore.Internal.Correction.Weighted>
   9.000000E+99

> <Gold.Protein.RotatedTorsions>
[ 6907 6896 6895 6894 ] final  -22.68 input  -60.11 | X-H torsion
[ 7974 7965 7964 7962 ] final   60.20 input  175.53 | X-H torsion
[ 8008 7997 7996 7995 ] final -173.71 input   59.86 | X-H torsion
[ 10167 10162 10161 10158 ] final  145.01 input  -65.29 | X-H torsion
[ 10718 10713 10712 10709 ] final  -38.69 input   66.30 | X-H torsion
[ 10763 10752 10751 10750 ] final   -4.25 input  -60.55 | X-H torsion
[ 11005 11000 10999 10996 ] final -175.69 input  -57.11 | X-H torsion

> <Gold.Protein.ActiveResidues>
 VAL166  LYS551  ARG553  GLY616  TRP617  ASP618  TYR619  PRO620  LYS621  CYS622 
 ASP623  PHE694  ASN695  SER759  ASP760  ASP761  ALA762  ILE779  LEU786  VAL792 
 PHE793  MET794  SER795  GLU796  ALA797  LYS798  CYS799  TRP800  GLU811  SER814 

> <Gold.Protein.RotatedAtoms>
  151.2151  135.0496  159.8926 H   0  0  0  0  0  0  0  0  0  0  0  0  # atno 6907 bound_to 6896
  152.5421  134.0702  159.8201 H   0  0  0  0  0  0  0  0  0  0  0  0  # atno 6908 bound_to 6896
  151.0861  133.5304  159.2649 H   0  0  0  0  0  0  0  0  0  0  0  0  # atno 6909 bound_to 6896
  145.8987  139.3565  143.0606 H   0  0  0  0  0  0  0  0  0  0  0  0  # atno 7974 bound_to 7965
  155.9609  140.1144  157.0897 H   0  0  0  0  0  0  0  0  0  0  0  0  # atno 8008 bound_to 7997
  154.4132  140.1182  156.5244 H   0  0  0  0  0  0  0  0  0  0  0  0  # atno 8009 bound_to 7997
  155.6722  140.3473  155.4825 H   0  0  0  0  0  0  0  0  0  0  0  0  # atno 8010 bound_to 7997
  139.4935  144.5932  151.6637 H   0  0  0  0  0  0  0  0  0  0  0  0  # atno 10167 bound_to 10162
  156.3009  130.4240  149.8144 H   0  0  0  0  0  0  0  0  0  0  0  0  # atno 10718 bound_to 10713
  153.3823  135.6999  153.6556 H   0  0  0  0  0  0  0  0  0  0  0  0  # atno 10763 bound_to 10752
  153.5162  135.3621  155.2611 H   0  0  0  0  0  0  0  0  0  0  0  0  # atno 10764 bound_to 10752
  154.8694  135.4147  154.3124 H   0  0  0  0  0  0  0  0  0  0  0  0  # atno 10765 bound_to 10752
  140.4605  134.6259  157.4840 H   0  0  0  0  0  0  0  0  0  0  0  0  # atno 11005 bound_to 11000
  145.8818  140.9358  143.0597 LP  0  0  0  0  0  0  0  0  0  0  0  0  # atno 17320 bound_to 7965
  144.6734  140.0790  143.7470 LP  0  0  0  0  0  0  0  0  0  0  0  0  # atno 17321 bound_to 7965
  140.5564  144.0341  150.6149 LP  0  0  0  0  0  0  0  0  0  0  0  0  # atno 17342 bound_to 10162
  140.3412  143.3018  152.0586 LP  0  0  0  0  0  0  0  0  0  0  0  0  # atno 17343 bound_to 10162
  156.5522  130.8347  151.3303 LP  0  0  0  0  0  0  0  0  0  0  0  0  # atno 17370 bound_to 10713
  157.7367  130.9784  150.2155 LP  0  0  0  0  0  0  0  0  0  0  0  0  # atno 17371 bound_to 10713
  139.9948  134.6928  155.9627 LP  0  0  0  0  0  0  0  0  0  0  0  0  # atno 17394 bound_to 11000
  141.1623  133.6538  156.4362 LP  0  0  0  0  0  0  0  0  0  0  0  0  # atno 17395 bound_to 11000

$$$$
