AV-unprocessed.smi:2057|AV-procd|sdf|8342|dock3
  -GOLD-   2272011 13D 1   1.00000     0.00000
 Structure written by MMmdl.
 45 47  0  0  0  0  0  0  0  0  2 V2000
  151.9675  145.4122  159.7042 C   0  0  0  0  0  0  0  0  0  0  0  0
  152.6864  144.4182  160.4201 O   0  0  0  0  0  0  0  0  0  0  0  0
  152.5327  143.1026  160.0382 C   0  0  0  0  0  0  0  0  0  0  0  0
  153.2553  142.1371  160.7627 C   0  0  0  0  0  0  0  0  0  0  0  0
  153.1494  140.7703  160.4484 C   0  0  0  0  0  0  0  0  0  0  0  0
  152.3160  140.3351  159.3886 C   0  0  0  0  0  0  0  0  0  0  0  0
  152.1562  139.0073  159.0452 O   0  0  0  0  0  0  0  0  0  0  0  0
  152.6360  138.0142  159.9398 C   0  0  0  0  0  0  0  0  0  0  0  0
  151.5990  141.3022  158.6426 C   0  0  0  0  0  0  0  0  0  0  0  0
  150.6909  140.8622  157.4980 C   0  0  2  0  0  0  0  0  0  0  0  0
  149.7724  139.8537  157.8760 O   0  0  0  0  0  0  0  0  0  0  0  0
  151.5202  140.3949  156.2859 C   0  0  0  0  0  0  0  0  0  0  0  0
  150.7137  139.6844  155.2822 N   0  0  0  0  0  0  0  0  0  0  0  0
  150.8120  138.3994  154.8368 C   0  0  0  0  0  0  0  0  0  0  0  0
  151.8059  137.3775  155.2914 C   0  0  0  0  0  0  0  0  0  0  0  0
  151.3717  136.0483  155.0930 O   0  0  0  0  0  0  0  0  0  0  0  0
  149.8317  138.2213  153.9056 N   0  3  0  0  0  0  0  0  0  0  0  0
  149.1033  139.4016  153.7523 C   0  0  0  0  0  0  0  0  0  0  0  0
  148.0233  139.7055  152.9294 C   0  0  0  0  0  0  0  0  0  0  0  0
  147.5117  141.0171  153.0150 C   0  0  0  0  0  0  0  0  0  0  0  0
  148.0727  141.9680  153.8920 C   0  0  0  0  0  0  0  0  0  0  0  0
  149.1669  141.6477  154.7222 C   0  0  0  0  0  0  0  0  0  0  0  0
  149.6657  140.3481  154.6332 C   0  0  0  0  0  0  0  0  0  0  0  0
  151.7012  142.6722  158.9766 C   0  0  0  0  0  0  0  0  0  0  0  0
  152.1928  146.3922  160.1248 H   0  0  0  0  0  0  0  0  0  0  0  0
  150.8903  145.2593  159.7836 H   0  0  0  0  0  0  0  0  0  0  0  0
  152.2535  145.4322  158.6517 H   0  0  0  0  0  0  0  0  0  0  0  0
  153.8957  142.4471  161.5755 H   0  0  0  0  0  0  0  0  0  0  0  0
  153.7196  140.0731  161.0429 H   0  0  0  0  0  0  0  0  0  0  0  0
  152.4155  137.0278  159.5320 H   0  0  0  0  0  0  0  0  0  0  0  0
  152.1484  138.0842  160.9130 H   0  0  0  0  0  0  0  0  0  0  0  0
  153.7169  138.0836  160.0697 H   0  0  0  0  0  0  0  0  0  0  0  0
  150.0761  141.7113  157.1990 H   0  0  0  0  0  0  0  0  0  0  0  0
  150.2162  139.2459  158.4479 H   0  0  0  0  0  0  0  0  0  0  0  0
  151.9604  141.2578  155.7845 H   0  0  0  0  0  0  0  0  0  0  0  0
  152.3568  139.7675  156.5939 H   0  0  0  0  0  0  0  0  0  0  0  0
  152.7441  137.5241  154.7555 H   0  0  0  0  0  0  0  0  0  0  0  0
  152.0117  137.5284  156.3514 H   0  0  0  0  0  0  0  0  0  0  0  0
  151.1808  135.9295  154.1747 H   0  0  0  0  0  0  0  0  0  0  0  0
  147.5933  138.9791  152.2554 H   0  0  0  0  0  0  0  0  0  0  0  0
  146.6737  141.2999  152.3943 H   0  0  0  0  0  0  0  0  0  0  0  0
  147.6565  142.9643  153.9283 H   0  0  0  0  0  0  0  0  0  0  0  0
  149.5925  142.3861  155.3852 H   0  0  0  0  0  0  0  0  0  0  0  0
  151.1270  143.3862  158.4067 H   0  0  0  0  0  0  0  0  0  0  0  0
  149.6791  137.3510  153.4123 H   0  0  0  0  0  0  0  0  0  0  0  0
  1  2  1  0  0  0  0
  1 25  1  0  0  0  0
  1 26  1  0  0  0  0
  1 27  1  0  0  0  0
  2  3  1  0  0  0  0
  3 24  1  0  0  0  0
  3  4  2  0  0  0  0
  4  5  1  0  0  0  0
  4 28  1  0  0  0  0
  5  6  2  0  0  0  0
  5 29  1  0  0  0  0
  6  7  1  0  0  0  0
  6  9  1  0  0  0  0
  7  8  1  0  0  0  0
  8 30  1  0  0  0  0
  8 31  1  0  0  0  0
  8 32  1  0  0  0  0
  9 10  1  0  0  0  0
  9 24  2  0  0  0  0
 10 11  1  0  0  0  0
 10 12  1  0  0  0  0
 10 33  1  0  0  0  0
 11 34  1  0  0  0  0
 12 13  1  0  0  0  0
 12 35  1  0  0  0  0
 12 36  1  0  0  0  0
 13 23  1  0  0  0  0
 13 14  1  0  0  0  0
 14 15  1  0  0  0  0
 14 17  2  0  0  0  0
 15 16  1  0  0  0  0
 15 37  1  0  0  0  0
 15 38  1  0  0  0  0
 16 39  1  0  0  0  0
 17 18  1  0  0  0  0
 17 45  1  0  0  0  0
 18 23  2  0  0  0  0
 18 19  1  0  0  0  0
 19 20  2  0  0  0  0
 19 40  1  0  0  0  0
 20 21  1  0  0  0  0
 20 41  1  0  0  0  0
 21 22  2  0  0  0  0
 21 42  1  0  0  0  0
 22 23  1  0  0  0  0
 22 43  1  0  0  0  0
 24 44  1  0  0  0  0
M  CHG  1  17   1
M  END
> <s_m_source_file>
AV-unprocessed.smi

> <i_m_source_file_index>
2057

> <i_lp_mmshare_version>
43012

> <i_f3d_flags>
0

> <s_epik_input>
W0NIM11PYzFbY0hdW2NIXWMoT1tDSDNdKWMoW2NIXTEpW0NASF0oW09IXSlbQ0gyXW4oYyhuMilbQ0gyXVtPSF0pYyhjMjMpW2NIXVtjSF1bY0hdW2NIXTM=

> <s_epik_cmdline>
J2VwaWtfcHl0aG9uJywgJy1waCcsICc3LjAnLCAnLXRuJywgJzgnLCAnLW1hJywgJzIwMCcsICctbWV0YWxfYmluZGluZycsICctaW1hZScsICc8aW5maWxlLm1hZT4nLCAnLW9tYWUnLCAnPG91dGZpbGUubWFlPic=

> <r_lp_tautomer_probability>
1

> <r_epik_Ionization_Penalty>
1.35643

> <r_epik_Ionization_Penalty_Charging>
1.35557

> <r_epik_Ionization_Penalty_Neutral>
0.000857128

> <r_epik_State_Penalty>
1.43401

> <r_epik_Charging_Adjusted_Penalty>
2.78958

> <i_epik_Tot_Q>
1

> <i_epik_Tot_abs_Q>
1

> <r_epik_Metal_State_Penalty>
5.47166

> <b_epik_Metal_Only>
0

> <s_lp_Force_Field>
OPLS_2005

> <r_lp_Energy>
20.8096

> <b_lp_Chiralities_Consistent>
1

> <s_lp_Variant>
AV-unprocessed.smi:2057-3

> <Gold.Version>
5.8.1

> <Gold.Id.Protein>
6NUR|6NUR_protein|mol2

> <Gold.PLP.Fitness>
62.8551

> <Gold.PLP.PLP>
-52.3377

> <Gold.PLP.part.hbond>
-4.0000

> <Gold.PLP.part.metal>
0.0000

> <Gold.PLP.part.buried>
0.2980

> <Gold.PLP.part.nonpolar>
-48.9035

> <Gold.PLP.part.repulsive>
0.1384

> <Gold.PLP.ligand.clash>
0.0000

> <Gold.PLP.ligand.torsion>
0.7881

> <Gold.PLP.Chemscore.Hbond>
4.0000

> <Gold.PLP.Chemscore.CHOScore>
0.0000

> <Gold.PLP.Chemscore.Metal>
0.0000

> <Gold.Chemscore.Hbonds>
donor molecule, donor type, donor heavy atom, donor atom, acceptor molecule, acceptor atom, score
      L1  H    17    45       P1  7948  2.00
      P1  H 10752 10763       L1    16  0.05

> <Gold.PLP.Chemscore.Internal.Correction>
0.0936

> <Gold.Rescore>
     Score         DG    S(hbond)    S(metal)    S(lipo)     H(rot)  DE(clash)    DE(int)     intcor
     16.79     -17.56       1.92        0.00     119.69       3.25       0.32       0.45       ----

> <Gold.Chemscore.Fitness>
16.7883

> <Gold.Chemscore.DG>
-17.5550

> <Gold.Chemscore.ZeroCoef>
-5.4800

> <Gold.Chemscore.Hbond>
1.9166

> <Gold.Chemscore.Metal>
0.0000

> <Gold.Chemscore.Lipo>
119.6853

> <Gold.Chemscore.Internal_Hbond>
0.0000

> <Gold.Chemscore.DEClash>
0.3199

> <Gold.Chemscore.DEInternal>
0.4468

> <Gold.Chemscore.Rot>
3.2537

> <Gold.Chemscore.Internal.Correction>
   9.000000E+99

> <Gold.Chemscore.Hbonds>
donor molecule, donor type, donor heavy atom, donor atom, acceptor molecule, acceptor atom, score
      L1  H    17    45       P1  7948  0.69

> <Gold.Chemscore.Hbond.Weighted>
-6.4013

> <Gold.Chemscore.Metal.Weighted>
-0.0000

> <Gold.Chemscore.Lipo.Weighted>
-14.0032

> <Gold.Chemscore.Internal_Hbond.Weighted>
0.0000

> <Gold.Chemscore.DEClash.Weighted>
0.3199

> <Gold.Chemscore.DEInternal.Weighted>
0.4468

> <Gold.Chemscore.Rot.Weighted>
8.3295

> <Gold.Chemscore.Internal.Correction.Weighted>
   9.000000E+99

> <Gold.Protein.RotatedTorsions>
[ 6907 6896 6895 6894 ] final  -12.29 input  -60.11 | X-H torsion
[ 7974 7965 7964 7962 ] final  -72.99 input  175.53 | X-H torsion
[ 8008 7997 7996 7995 ] final   95.55 input   59.86 | X-H torsion
[ 10167 10162 10161 10158 ] final -138.70 input  -65.29 | X-H torsion
[ 10718 10713 10712 10709 ] final -145.87 input   66.30 | X-H torsion
[ 10763 10752 10751 10750 ] final   58.21 input  -60.55 | X-H torsion
[ 11005 11000 10999 10996 ] final   35.00 input  -57.11 | X-H torsion

> <Gold.Protein.ActiveResidues>
 VAL166  LYS551  ARG553  GLY616  TRP617  ASP618  TYR619  PRO620  LYS621  CYS622 
 ASP623  PHE694  ASN695  SER759  ASP760  ASP761  ALA762  ILE779  LEU786  VAL792 
 PHE793  MET794  SER795  GLU796  ALA797  LYS798  CYS799  TRP800  GLU811  SER814 

> <Gold.Protein.RotatedAtoms>
  151.3729  135.0926  159.9470 H   0  0  0  0  0  0  0  0  0  0  0  0  # atno 6907 bound_to 6896
  152.5130  133.9147  159.7515 H   0  0  0  0  0  0  0  0  0  0  0  0  # atno 6908 bound_to 6896
  150.9565  133.6437  159.2791 H   0  0  0  0  0  0  0  0  0  0  0  0  # atno 6909 bound_to 6896
  145.6579  140.9262  143.0949 H   0  0  0  0  0  0  0  0  0  0  0  0  # atno 7974 bound_to 7965
  156.0700  140.3285  155.7565 H   0  0  0  0  0  0  0  0  0  0  0  0  # atno 8008 bound_to 7997
  155.5320  140.0594  157.2904 H   0  0  0  0  0  0  0  0  0  0  0  0  # atno 8009 bound_to 7997
  154.4525  140.1926  156.0493 H   0  0  0  0  0  0  0  0  0  0  0  0  # atno 8010 bound_to 7997
  139.8452  143.7270  152.2661 H   0  0  0  0  0  0  0  0  0  0  0  0  # atno 10167 bound_to 10162
  156.3878  130.7870  151.2069 H   0  0  0  0  0  0  0  0  0  0  0  0  # atno 10718 bound_to 10713
  152.9866  135.5615  154.5515 H   0  0  0  0  0  0  0  0  0  0  0  0  # atno 10763 bound_to 10752
  154.4951  135.2794  155.1467 H   0  0  0  0  0  0  0  0  0  0  0  0  # atno 10764 bound_to 10752
  154.2921  135.6324  153.5442 H   0  0  0  0  0  0  0  0  0  0  0  0  # atno 10765 bound_to 10752
  140.2471  134.3346  155.7904 H   0  0  0  0  0  0  0  0  0  0  0  0  # atno 11005 bound_to 11000
  144.7099  139.8411  143.7418 LP  0  0  0  0  0  0  0  0  0  0  0  0  # atno 17320 bound_to 7965
  146.1149  139.4159  143.0264 LP  0  0  0  0  0  0  0  0  0  0  0  0  # atno 17321 bound_to 7965
  139.7519  144.7531  151.0493 LP  0  0  0  0  0  0  0  0  0  0  0  0  # atno 17342 bound_to 10162
  140.7794  143.4850  150.9968 LP  0  0  0  0  0  0  0  0  0  0  0  0  # atno 17343 bound_to 10162
  157.7497  131.0325  150.4228 LP  0  0  0  0  0  0  0  0  0  0  0  0  # atno 17370 bound_to 10713
  156.4484  130.4006  149.6652 LP  0  0  0  0  0  0  0  0  0  0  0  0  # atno 17371 bound_to 10713
  141.2205  133.7332  156.8978 LP  0  0  0  0  0  0  0  0  0  0  0  0  # atno 17394 bound_to 11000
  140.1595  134.9175  157.2696 LP  0  0  0  0  0  0  0  0  0  0  0  0  # atno 17395 bound_to 11000

$$$$
