AV-unprocessed.smi:1554|AV-procd|sdf|6246|dock4
  -GOLD-   22720 6433D 1   1.00000     0.00000
 Structure written by MMmdl.
 48 50  0  0  0  0  0  0  0  0  2 V2000
  153.2472  142.9423  160.8525 C   0  0  0  0  0  0  0  0  0  0  0  0
  152.5462  142.5996  159.5496 C   0  0  0  0  0  0  0  0  0  0  0  0
  152.7529  141.3261  158.9729 C   0  0  0  0  0  0  0  0  0  0  0  0
  152.1174  140.9666  157.7644 C   0  0  0  0  0  0  0  0  0  0  0  0
  152.1749  139.7931  157.0322 N   0  0  0  0  0  0  0  0  0  0  0  0
  151.3657  140.0718  156.0145 C   0  0  0  0  0  0  0  0  0  0  0  0
  150.7873  141.2883  156.0023 N   0  0  0  0  0  0  0  0  0  0  0  0
  149.8691  141.8158  155.0091 C   0  0  0  0  0  0  0  0  0  0  0  0
  148.6935  140.8589  154.7336 C   0  0  2  0  0  0  0  0  0  0  0  0
  148.2281  141.0573  153.4119 O   0  0  0  0  0  0  0  0  0  0  0  0
  147.5252  141.0863  155.7126 C   0  0  0  0  0  0  0  0  0  0  0  0
  147.2617  142.5311  155.9521 N   0  3  2  0  0  0  0  0  0  0  0  0
  147.2001  142.8966  157.3882 C   0  0  0  0  0  0  0  0  0  0  0  0
  145.8460  142.5038  158.0048 C   0  0  0  0  0  0  0  0  0  0  0  0
  144.7962  143.1236  157.2726 O   0  0  0  0  0  0  0  0  0  0  0  0
  144.7579  142.7044  155.9129 C   0  0  1  0  0  0  0  0  0  0  0  0
  143.5550  143.3765  155.2422 C   0  0  0  0  0  0  0  0  0  0  0  0
  146.0886  143.0808  155.2240 C   0  0  0  0  0  0  0  0  0  0  0  0
  151.2610  141.9231  157.1449 C   0  0  0  0  0  0  0  0  0  0  0  0
  151.0486  143.1940  157.7075 C   0  0  0  0  0  0  0  0  0  0  0  0
  151.6928  143.5374  158.9145 C   0  0  0  0  0  0  0  0  0  0  0  0
  151.4579  144.9121  159.5152 C   0  0  0  0  0  0  0  0  0  0  0  0
  153.8657  142.1149  161.2017 H   0  0  0  0  0  0  0  0  0  0  0  0
  152.5175  143.1656  161.6309 H   0  0  0  0  0  0  0  0  0  0  0  0
  153.8935  143.8106  160.7232 H   0  0  0  0  0  0  0  0  0  0  0  0
  153.4029  140.6118  159.4562 H   0  0  0  0  0  0  0  0  0  0  0  0
  151.1786  139.3477  155.2352 H   0  0  0  0  0  0  0  0  0  0  0  0
  149.4975  142.7755  155.3704 H   0  0  0  0  0  0  0  0  0  0  0  0
  150.4229  142.0207  154.0916 H   0  0  0  0  0  0  0  0  0  0  0  0
  149.0570  139.8350  154.8122 H   0  0  0  0  0  0  0  0  0  0  0  0
  148.8948  140.7677  152.8077 H   0  0  0  0  0  0  0  0  0  0  0  0
  146.6224  140.5993  155.3441 H   0  0  0  0  0  0  0  0  0  0  0  0
  147.7665  140.5924  156.6551 H   0  0  0  0  0  0  0  0  0  0  0  0
  148.0251  142.4434  157.9389 H   0  0  0  0  0  0  0  0  0  0  0  0
  147.3338  143.9757  157.4728 H   0  0  0  0  0  0  0  0  0  0  0  0
  145.7135  141.4209  158.0158 H   0  0  0  0  0  0  0  0  0  0  0  0
  145.7957  142.8395  159.0407 H   0  0  0  0  0  0  0  0  0  0  0  0
  144.6052  141.6250  155.8773 H   0  0  0  0  0  0  0  0  0  0  0  0
  143.4714  143.0784  154.1970 H   0  0  0  0  0  0  0  0  0  0  0  0
  143.6399  144.4631  155.2746 H   0  0  0  0  0  0  0  0  0  0  0  0
  142.6257  143.1008  155.7411 H   0  0  0  0  0  0  0  0  0  0  0  0
  146.1885  144.1668  155.2038 H   0  0  0  0  0  0  0  0  0  0  0  0
  146.0855  142.7590  154.1833 H   0  0  0  0  0  0  0  0  0  0  0  0
  150.3950  143.8980  157.2140 H   0  0  0  0  0  0  0  0  0  0  0  0
  150.8024  145.5145  158.8858 H   0  0  0  0  0  0  0  0  0  0  0  0
  152.4005  145.4488  159.6248 H   0  0  0  0  0  0  0  0  0  0  0  0
  150.9926  144.8240  160.4971 H   0  0  0  0  0  0  0  0  0  0  0  0
  148.0759  143.0032  155.5842 H   0  0  0  0  0  0  0  0  0  0  0  0
  1  2  1  0  0  0  0
  1 23  1  0  0  0  0
  1 24  1  0  0  0  0
  1 25  1  0  0  0  0
  2 21  1  0  0  0  0
  2  3  2  0  0  0  0
  3  4  1  0  0  0  0
  3 26  1  0  0  0  0
  4 19  2  0  0  0  0
  4  5  1  0  0  0  0
  5  6  2  0  0  0  0
  6  7  1  0  0  0  0
  6 27  1  0  0  0  0
  7  8  1  0  0  0  0
  7 19  1  0  0  0  0
  8  9  1  0  0  0  0
  8 28  1  0  0  0  0
  8 29  1  0  0  0  0
  9 10  1  0  0  0  0
  9 11  1  0  0  0  0
  9 30  1  0  0  0  0
 10 31  1  0  0  0  0
 11 12  1  0  0  0  0
 11 32  1  0  0  0  0
 11 33  1  0  0  0  0
 12 18  1  0  0  0  0
 12 13  1  0  0  0  0
 12 48  1  0  0  0  0
 13 14  1  0  0  0  0
 13 34  1  0  0  0  0
 13 35  1  0  0  0  0
 14 15  1  0  0  0  0
 14 36  1  0  0  0  0
 14 37  1  0  0  0  0
 15 16  1  0  0  0  0
 16 17  1  0  0  0  0
 16 18  1  0  0  0  0
 16 38  1  0  0  0  0
 17 39  1  0  0  0  0
 17 40  1  0  0  0  0
 17 41  1  0  0  0  0
 18 42  1  0  0  0  0
 18 43  1  0  0  0  0
 19 20  1  0  0  0  0
 20 21  2  0  0  0  0
 20 44  1  0  0  0  0
 21 22  1  0  0  0  0
 22 45  1  0  0  0  0
 22 46  1  0  0  0  0
 22 47  1  0  0  0  0
M  CHG  1  12   1
M  END
> <s_m_source_file>
AV-unprocessed.smi

> <i_m_source_file_index>
1554

> <i_lp_mmshare_version>
43012

> <i_f3d_flags>
0

> <s_epik_input>
W0NIM11jKFtjSF0xKWMoW0NIM10pW2NIXWMoYzEyKW4oW2NIXW4yKVtDSDJdW0NASF0oW09IXSlbQ0gyXU4zW0NIMl1bQ0gyXU9bQ0BASF0oW0NIM10pW0NIMl0z

> <s_epik_cmdline>
J2VwaWtfcHl0aG9uJywgJy1waCcsICc3LjAnLCAnLXRuJywgJzgnLCAnLW1hJywgJzIwMCcsICctbWV0YWxfYmluZGluZycsICctaW1hZScsICc8aW5maWxlLm1hZT4nLCAnLW9tYWUnLCAnPG91dGZpbGUubWFlPic=

> <r_epik_Ionization_Penalty>
0.695251

> <r_epik_Ionization_Penalty_Charging>
0.608065

> <r_epik_Ionization_Penalty_Neutral>
0.0871863

> <r_epik_State_Penalty>
0.731955

> <r_epik_Charging_Adjusted_Penalty>
1.34002

> <i_epik_Tot_Q>
1

> <i_epik_Tot_abs_Q>
1

> <r_epik_Metal_State_Penalty>
0.652186

> <b_epik_Metal_Only>
0

> <s_lp_Force_Field>
OPLS_2005

> <r_lp_Energy>
22.7175

> <b_lp_Chiralities_Consistent>
1

> <s_lp_Variant>
AV-unprocessed.smi:1554-7

> <Gold.Version>
5.8.1

> <Gold.Id.Protein>
6NUR|6NUR_protein|mol2

> <Gold.PLP.Fitness>
47.8890

> <Gold.PLP.PLP>
-40.3509

> <Gold.PLP.part.hbond>
-3.3398

> <Gold.PLP.part.metal>
0.0000

> <Gold.PLP.part.buried>
-2.9260

> <Gold.PLP.part.nonpolar>
-33.0369

> <Gold.PLP.part.repulsive>
0.0529

> <Gold.PLP.ligand.clash>
0.0000

> <Gold.PLP.ligand.torsion>
1.2203

> <Gold.PLP.Chemscore.Hbond>
3.3084

> <Gold.PLP.Chemscore.CHOScore>
0.0000

> <Gold.PLP.Chemscore.Metal>
0.0000

> <Gold.Chemscore.Hbonds>
donor molecule, donor type, donor heavy atom, donor atom, acceptor molecule, acceptor atom, score
      L1  H    10    31       P1  7957  1.00
      L1  H    12    48       P1  8028  1.50
      P1  H  7997  8009       L1     5  0.27

> <Gold.PLP.Chemscore.Internal.Correction>
0.0533

> <Gold.Rescore>
     Score         DG    S(hbond)    S(metal)    S(lipo)     H(rot)  DE(clash)    DE(int)     intcor
     17.40     -18.97       1.64        0.00     113.29       2.05       0.33       1.23       ----

> <Gold.Chemscore.Fitness>
17.4042

> <Gold.Chemscore.DG>
-18.9659

> <Gold.Chemscore.ZeroCoef>
-5.4800

> <Gold.Chemscore.Hbond>
1.6440

> <Gold.Chemscore.Metal>
0.0000

> <Gold.Chemscore.Lipo>
113.2860

> <Gold.Chemscore.Internal_Hbond>
0.0000

> <Gold.Chemscore.DEClash>
0.3307

> <Gold.Chemscore.DEInternal>
1.2310

> <Gold.Chemscore.Rot>
2.0546

> <Gold.Chemscore.Internal.Correction>
   9.000000E+99

> <Gold.Chemscore.Hbonds>
donor molecule, donor type, donor heavy atom, donor atom, acceptor molecule, acceptor atom, score
      L1  H    10    31       P1  7957  0.98
      L1  H    12    48       P1  8028  0.65
      P1  H  7997  8009       L1     5  0.02

> <Gold.Chemscore.Hbond.Weighted>
-5.4911

> <Gold.Chemscore.Metal.Weighted>
-0.0000

> <Gold.Chemscore.Lipo.Weighted>
-13.2545

> <Gold.Chemscore.Internal_Hbond.Weighted>
0.0000

> <Gold.Chemscore.DEClash.Weighted>
0.3307

> <Gold.Chemscore.DEInternal.Weighted>
1.2310

> <Gold.Chemscore.Rot.Weighted>
5.2597

> <Gold.Chemscore.Internal.Correction.Weighted>
   9.000000E+99

> <Gold.Protein.RotatedTorsions>
[ 6907 6896 6895 6894 ] final  -31.73 input  -60.11 | X-H torsion
[ 7974 7965 7964 7962 ] final  144.86 input  175.53 | X-H torsion
[ 8008 7997 7996 7995 ] final -167.88 input   59.86 | X-H torsion
[ 10167 10162 10161 10158 ] final  -50.79 input  -65.29 | X-H torsion
[ 10718 10713 10712 10709 ] final  128.02 input   66.30 | X-H torsion
[ 10763 10752 10751 10750 ] final   88.21 input  -60.55 | X-H torsion
[ 11005 11000 10999 10996 ] final -136.62 input  -57.11 | X-H torsion

> <Gold.Protein.ActiveResidues>
 VAL166  LYS551  ARG553  GLY616  TRP617  ASP618  TYR619  PRO620  LYS621  CYS622 
 ASP623  PHE694  ASN695  SER759  ASP760  ASP761  ALA762  ILE779  LEU786  VAL792 
 PHE793  MET794  SER795  GLU796  ALA797  LYS798  CYS799  TRP800  GLU811  SER814 

> <Gold.Protein.RotatedAtoms>
  151.0881  134.9900  159.8389 H   0  0  0  0  0  0  0  0  0  0  0  0  # atno 6907 bound_to 6896
  152.5426  134.2098  159.8755 H   0  0  0  0  0  0  0  0  0  0  0  0  # atno 6908 bound_to 6896
  151.2133  133.4500  159.2632 H   0  0  0  0  0  0  0  0  0  0  0  0  # atno 6909 bound_to 6896
  144.8800  139.5713  143.5847 H   0  0  0  0  0  0  0  0  0  0  0  0  # atno 7974 bound_to 7965
  155.8837  140.1013  157.1467 H   0  0  0  0  0  0  0  0  0  0  0  0  # atno 8008 bound_to 7997
  154.4008  140.1324  156.4292 H   0  0  0  0  0  0  0  0  0  0  0  0  # atno 8009 bound_to 7997
  155.7613  140.3463  155.5202 H   0  0  0  0  0  0  0  0  0  0  0  0  # atno 8010 bound_to 7997
  140.6620  143.2644  151.4410 H   0  0  0  0  0  0  0  0  0  0  0  0  # atno 10167 bound_to 10162
  157.5281  131.1098  150.9051 H   0  0  0  0  0  0  0  0  0  0  0  0  # atno 10718 bound_to 10713
  153.1745  135.4515  154.9947 H   0  0  0  0  0  0  0  0  0  0  0  0  # atno 10763 bound_to 10752
  154.7989  135.3248  154.7602 H   0  0  0  0  0  0  0  0  0  0  0  0  # atno 10764 bound_to 10752
  153.8074  135.6957  153.4901 H   0  0  0  0  0  0  0  0  0  0  0  0  # atno 10765 bound_to 10752
  140.8788  134.1958  157.4604 H   0  0  0  0  0  0  0  0  0  0  0  0  # atno 11005 bound_to 11000
  146.2988  139.7362  142.9106 LP  0  0  0  0  0  0  0  0  0  0  0  0  # atno 17320 bound_to 7965
  145.3971  141.0380  143.3091 LP  0  0  0  0  0  0  0  0  0  0  0  0  # atno 17321 bound_to 7965
  139.5857  144.1610  152.2025 LP  0  0  0  0  0  0  0  0  0  0  0  0  # atno 17342 bound_to 10162
  140.0949  144.5589  150.7029 LP  0  0  0  0  0  0  0  0  0  0  0  0  # atno 17343 bound_to 10162
  156.9640  130.5466  149.5287 LP  0  0  0  0  0  0  0  0  0  0  0  0  # atno 17370 bound_to 10713
  156.0402  130.5485  150.8752 LP  0  0  0  0  0  0  0  0  0  0  0  0  # atno 17371 bound_to 10713
  139.8718  134.9808  156.5090 LP  0  0  0  0  0  0  0  0  0  0  0  0  # atno 17394 bound_to 11000
  140.8486  133.8150  155.9146 LP  0  0  0  0  0  0  0  0  0  0  0  0  # atno 17395 bound_to 11000

$$$$
