AV-unprocessed.smi:212|AV-procd|sdf|1625|dock5
  -GOLD-   2262019563D 1   1.00000     0.00000
 Structure written by MMmdl.
 65 68  0  0  0  0  0  0  0  0  2 V2000
  147.4627  139.7406  154.2849 C   0  0  0  0  0  0  0  0  0  0  0  0
  148.5313  138.6491  154.0768 C   0  0  2  0  0  0  0  0  0  0  0  0
  148.2113  137.3567  154.8552 C   0  0  0  0  0  0  0  0  0  0  0  0
  149.2276  136.3082  154.5825 N   0  3  2  0  0  0  0  0  0  0  0  0
  148.9045  134.9987  155.2077 C   0  0  0  0  0  0  0  0  0  0  0  0
  147.6485  134.3462  154.5870 C   0  0  0  0  0  0  0  0  0  0  0  0
  147.8221  132.8195  154.5223 C   0  0  0  0  0  0  0  0  0  0  0  0
  146.3571  134.7029  155.3463 C   0  0  0  0  0  0  0  0  0  0  0  0
  147.5208  134.7996  153.2531 O   0  0  0  0  0  0  0  0  0  0  0  0
  150.6099  136.7681  154.8689 C   0  0  0  0  0  0  0  0  0  0  0  0
  150.9297  138.0845  154.1315 C   0  0  0  0  0  0  0  0  0  0  0  0
  149.9013  139.0998  154.3447 N   0  0  0  0  0  0  0  0  0  0  0  0
  150.1029  139.9035  155.4155 C   0  0  0  0  0  0  0  0  0  0  0  0
  149.5162  141.1269  155.4757 N   0  0  0  0  0  0  0  0  0  0  0  0
  149.7361  141.9208  156.5282 C   0  0  0  0  0  0  0  0  0  0  0  0
  150.4952  141.6919  157.6020 N   0  0  0  0  0  0  0  0  0  0  0  0
  151.0866  140.4645  157.5403 C   0  0  0  0  0  0  0  0  0  0  0  0
  150.9400  139.5135  156.4929 C   0  0  0  0  0  0  0  0  0  0  0  0
  151.6848  138.3750  156.7704 N   0  0  0  0  0  0  0  0  0  0  0  0
  152.2447  138.6379  157.9200 C   0  0  0  0  0  0  0  0  0  0  0  0
  151.9578  139.8794  158.4431 N   0  0  0  0  0  0  0  0  0  0  0  0
  152.4504  140.4233  159.6949 C   0  0  0  0  0  0  0  0  0  0  0  0
  153.5426  141.5184  159.5348 C   0  0  2  0  0  0  0  0  0  0  0  0
  154.8962  140.9927  160.0621 C   0  0  0  0  0  0  0  0  0  0  0  0
  155.2017  139.7267  159.5135 O   0  0  0  0  0  0  0  0  0  0  0  0
  153.2354  142.9072  160.1709 C   0  0  1  0  0  0  0  0  0  0  0  0
  152.2119  143.7979  159.4887 C   0  0  0  0  0  0  0  0  0  0  0  0
  151.9822  144.8644  160.5552 C   0  0  0  0  0  0  0  0  0  0  0  0
  152.1588  144.2089  161.8092 O   0  0  0  0  0  0  0  0  0  0  0  0
  152.7398  142.9214  161.6187 C   0  0  0  0  0  0  0  0  0  0  0  0
  146.4817  139.3881  153.9658 H   0  0  0  0  0  0  0  0  0  0  0  0
  147.6937  140.6333  153.7028 H   0  0  0  0  0  0  0  0  0  0  0  0
  147.3770  140.0349  155.3317 H   0  0  0  0  0  0  0  0  0  0  0  0
  148.5106  138.3992  153.0151 H   0  0  0  0  0  0  0  0  0  0  0  0
  148.1664  137.5532  155.9273 H   0  0  0  0  0  0  0  0  0  0  0  0
  147.2275  136.9884  154.5617 H   0  0  0  0  0  0  0  0  0  0  0  0
  149.7525  134.3180  155.1106 H   0  0  0  0  0  0  0  0  0  0  0  0
  148.7591  135.1220  156.2823 H   0  0  0  0  0  0  0  0  0  0  0  0
  147.9270  132.3925  155.5203 H   0  0  0  0  0  0  0  0  0  0  0  0
  148.7096  132.5423  153.9517 H   0  0  0  0  0  0  0  0  0  0  0  0
  146.9648  132.3393  154.0488 H   0  0  0  0  0  0  0  0  0  0  0  0
  146.4163  134.3919  156.3898 H   0  0  0  0  0  0  0  0  0  0  0  0
  145.4902  134.2087  154.9058 H   0  0  0  0  0  0  0  0  0  0  0  0
  146.1582  135.7749  155.3321 H   0  0  0  0  0  0  0  0  0  0  0  0
  148.3145  135.2529  153.0108 H   0  0  0  0  0  0  0  0  0  0  0  0
  150.7324  136.8937  155.9451 H   0  0  0  0  0  0  0  0  0  0  0  0
  151.3205  135.9999  154.5623 H   0  0  0  0  0  0  0  0  0  0  0  0
  151.9064  138.4619  154.4386 H   0  0  0  0  0  0  0  0  0  0  0  0
  150.9974  137.8957  153.0595 H   0  0  0  0  0  0  0  0  0  0  0  0
  149.2354  142.8777  156.5067 H   0  0  0  0  0  0  0  0  0  0  0  0
  152.8976  137.9344  158.4161 H   0  0  0  0  0  0  0  0  0  0  0  0
  151.6100  140.7976  160.2791 H   0  0  0  0  0  0  0  0  0  0  0  0
  152.8470  139.5814  160.2631 H   0  0  0  0  0  0  0  0  0  0  0  0
  153.6775  141.6974  158.4672 H   0  0  0  0  0  0  0  0  0  0  0  0
  155.7089  141.6670  159.7903 H   0  0  0  0  0  0  0  0  0  0  0  0
  154.8892  140.9237  161.1502 H   0  0  0  0  0  0  0  0  0  0  0  0
  154.4464  139.1664  159.6096 H   0  0  0  0  0  0  0  0  0  0  0  0
  154.1636  143.4811  160.1506 H   0  0  0  0  0  0  0  0  0  0  0  0
  152.5671  144.2132  158.5452 H   0  0  0  0  0  0  0  0  0  0  0  0
  151.2727  143.2866  159.2999 H   0  0  0  0  0  0  0  0  0  0  0  0
  152.7291  145.6545  160.4694 H   0  0  0  0  0  0  0  0  0  0  0  0
  150.9956  145.3223  160.4797 H   0  0  0  0  0  0  0  0  0  0  0  0
  151.9606  142.1810  161.7891 H   0  0  0  0  0  0  0  0  0  0  0  0
  153.5408  142.7383  162.3351 H   0  0  0  0  0  0  0  0  0  0  0  0
  149.1983  136.1452  153.5859 H   0  0  0  0  0  0  0  0  0  0  0  0
  1  2  1  0  0  0  0
  1 31  1  0  0  0  0
  1 32  1  0  0  0  0
  1 33  1  0  0  0  0
  2 12  1  0  0  0  0
  2  3  1  0  0  0  0
  2 34  1  0  0  0  0
  3  4  1  0  0  0  0
  3 35  1  0  0  0  0
  3 36  1  0  0  0  0
  4  5  1  0  0  0  0
  4 10  1  0  0  0  0
  4 65  1  0  0  0  0
  5  6  1  0  0  0  0
  5 37  1  0  0  0  0
  5 38  1  0  0  0  0
  6  7  1  0  0  0  0
  6  8  1  0  0  0  0
  6  9  1  0  0  0  0
  7 39  1  0  0  0  0
  7 40  1  0  0  0  0
  7 41  1  0  0  0  0
  8 42  1  0  0  0  0
  8 43  1  0  0  0  0
  8 44  1  0  0  0  0
  9 45  1  0  0  0  0
 10 11  1  0  0  0  0
 10 46  1  0  0  0  0
 10 47  1  0  0  0  0
 11 12  1  0  0  0  0
 11 48  1  0  0  0  0
 11 49  1  0  0  0  0
 12 13  1  0  0  0  0
 13 18  1  0  0  0  0
 13 14  2  0  0  0  0
 14 15  1  0  0  0  0
 15 16  2  0  0  0  0
 15 50  1  0  0  0  0
 16 17  1  0  0  0  0
 17 21  1  0  0  0  0
 17 18  2  0  0  0  0
 18 19  1  0  0  0  0
 19 20  2  0  0  0  0
 20 21  1  0  0  0  0
 20 51  1  0  0  0  0
 21 22  1  0  0  0  0
 22 23  1  0  0  0  0
 22 52  1  0  0  0  0
 22 53  1  0  0  0  0
 23 24  1  0  0  0  0
 23 26  1  0  0  0  0
 23 54  1  0  0  0  0
 24 25  1  0  0  0  0
 24 55  1  0  0  0  0
 24 56  1  0  0  0  0
 25 57  1  0  0  0  0
 26 30  1  0  0  0  0
 26 27  1  0  0  0  0
 26 58  1  0  0  0  0
 27 28  1  0  0  0  0
 27 59  1  0  0  0  0
 27 60  1  0  0  0  0
 28 29  1  0  0  0  0
 28 61  1  0  0  0  0
 28 62  1  0  0  0  0
 29 30  1  0  0  0  0
 30 63  1  0  0  0  0
 30 64  1  0  0  0  0
M  CHG  1   4   1
M  END
> <s_m_source_file>
AV-unprocessed.smi

> <i_m_source_file_index>
212

> <i_lp_mmshare_version>
43012

> <i_f3d_flags>
0

> <s_epik_input>
W0NIM11bQ0BASF0xW0NIMl1OKFtDSDJdQyhbQ0gzXSkoW0NIM10pW09IXSlbQ0gyXVtDSDJdTjFjKG5bY0hdbjIpYyhjMjMpbltjSF1uM1tDSDJdW0NASF0oW0NIMl1bT0hdKVtDQEBIXTRbQ0gyXVtDSDJdT1tDSDJdNA==

> <s_epik_cmdline>
J2VwaWtfcHl0aG9uJywgJy1waCcsICc3LjAnLCAnLXRuJywgJzgnLCAnLW1hJywgJzIwMCcsICctbWV0YWxfYmluZGluZycsICctaW1hZScsICc8aW5maWxlLm1hZT4nLCAnLW9tYWUnLCAnPG91dGZpbGUubWFlPic=

> <r_lp_tautomer_probability>
1

> <r_epik_Ionization_Penalty>
0.00182193

> <r_epik_Ionization_Penalty_Charging>
0.00173996

> <r_epik_Ionization_Penalty_Neutral>
8.19718e-05

> <r_epik_State_Penalty>
-0

> <r_epik_Charging_Adjusted_Penalty>
0.00173996

> <i_epik_Tot_Q>
1

> <i_epik_Tot_abs_Q>
1

> <r_epik_Metal_State_Penalty>
-0

> <b_epik_Metal_Only>
0

> <s_lp_Force_Field>
OPLS_2005

> <r_lp_Energy>
61.8926

> <b_lp_Chiralities_Consistent>
1

> <s_lp_Variant>
AV-unprocessed.smi:212-9

> <Gold.Version>
5.8.1

> <Gold.Id.Protein>
6NUR|6NUR_protein|mol2

> <Gold.PLP.Fitness>
56.5294

> <Gold.PLP.PLP>
-46.8322

> <Gold.PLP.part.hbond>
-2.6517

> <Gold.PLP.part.metal>
0.0000

> <Gold.PLP.part.buried>
-7.2100

> <Gold.PLP.part.nonpolar>
-37.8518

> <Gold.PLP.part.repulsive>
0.5142

> <Gold.PLP.ligand.clash>
1.4237

> <Gold.PLP.ligand.torsion>
2.2398

> <Gold.PLP.Chemscore.Hbond>
3.8480

> <Gold.PLP.Chemscore.CHOScore>
1.0000

> <Gold.PLP.Chemscore.Metal>
0.0000

> <Gold.Chemscore.Hbonds>
donor molecule, donor type, donor heavy atom, donor atom, acceptor molecule, acceptor atom, score
      L1  H     4    65       P1  7948  2.00
      L1  H     9    45       P1  7948  0.86
      P1  H  7997  8010       L1    25  0.65
      L1  C    15    50       P1  8028  1.00

> <Gold.PLP.Chemscore.Internal.Correction>
1.0565

> <Gold.Rescore>
     Score         DG    S(hbond)    S(metal)    S(lipo)     H(rot)  DE(clash)    DE(int)     intcor
     10.65     -17.60       2.41        0.00     115.32       3.68       0.16       6.80       ----

> <Gold.Chemscore.Fitness>
10.6493

> <Gold.Chemscore.DG>
-17.6050

> <Gold.Chemscore.ZeroCoef>
-5.4800

> <Gold.Chemscore.Hbond>
2.4120

> <Gold.Chemscore.Metal>
0.0000

> <Gold.Chemscore.Lipo>
115.3226

> <Gold.Chemscore.Internal_Hbond>
0.0000

> <Gold.Chemscore.DEClash>
0.1576

> <Gold.Chemscore.DEInternal>
6.7981

> <Gold.Chemscore.Rot>
3.6812

> <Gold.Chemscore.Internal.Correction>
   9.000000E+99

> <Gold.Chemscore.Hbonds>
donor molecule, donor type, donor heavy atom, donor atom, acceptor molecule, acceptor atom, score
      L1  H     4    65       P1  7948  0.88
      L1  H     9    45       P1  7948  0.80
      P1  H  7997  8010       L1    25  0.16

> <Gold.Chemscore.Hbond.Weighted>
-8.0562

> <Gold.Chemscore.Metal.Weighted>
-0.0000

> <Gold.Chemscore.Lipo.Weighted>
-13.4927

> <Gold.Chemscore.Internal_Hbond.Weighted>
0.0000

> <Gold.Chemscore.DEClash.Weighted>
0.1576

> <Gold.Chemscore.DEInternal.Weighted>
6.7981

> <Gold.Chemscore.Rot.Weighted>
9.4239

> <Gold.Chemscore.Internal.Correction.Weighted>
   9.000000E+99

> <Gold.Protein.RotatedTorsions>
[ 6907 6896 6895 6894 ] final   17.64 input  -60.11 | X-H torsion
[ 7974 7965 7964 7962 ] final  141.23 input  175.53 | X-H torsion
[ 8008 7997 7996 7995 ] final  -14.82 input   59.86 | X-H torsion
[ 10167 10162 10161 10158 ] final  129.09 input  -65.29 | X-H torsion
[ 10718 10713 10712 10709 ] final -125.52 input   66.30 | X-H torsion
[ 10763 10752 10751 10750 ] final  -11.29 input  -60.55 | X-H torsion
[ 11005 11000 10999 10996 ] final   14.81 input  -57.11 | X-H torsion

> <Gold.Protein.ActiveResidues>
 VAL166  LYS551  ARG553  GLY616  TRP617  ASP618  TYR619  PRO620  LYS621  CYS622 
 ASP623  PHE694  ASN695  SER759  ASP760  ASP761  ALA762  ILE779  LEU786  VAL792 
 PHE793  MET794  SER795  GLU796  ALA797  LYS798  CYS799  TRP800  GLU811  SER814 

> <Gold.Protein.RotatedAtoms>
  151.8527  135.0552  160.0460 H   0  0  0  0  0  0  0  0  0  0  0  0  # atno 6907 bound_to 6896
  152.2724  133.5390  159.5455 H   0  0  0  0  0  0  0  0  0  0  0  0  # atno 6908 bound_to 6896
  150.7156  134.0596  159.3869 H   0  0  0  0  0  0  0  0  0  0  0  0  # atno 6909 bound_to 6896
  144.9115  139.5287  143.5706 H   0  0  0  0  0  0  0  0  0  0  0  0  # atno 7974 bound_to 7965
  154.5179  140.2212  155.9031 H   0  0  0  0  0  0  0  0  0  0  0  0  # atno 8008 bound_to 7997
  156.1628  140.3138  155.8803 H   0  0  0  0  0  0  0  0  0  0  0  0  # atno 8009 bound_to 7997
  155.3716  140.0467  157.3036 H   0  0  0  0  0  0  0  0  0  0  0  0  # atno 8010 bound_to 7997
  139.5494  144.6801  151.4369 H   0  0  0  0  0  0  0  0  0  0  0  0  # atno 10167 bound_to 10162
  156.1683  130.6649  151.0144 H   0  0  0  0  0  0  0  0  0  0  0  0  # atno 10718 bound_to 10713
  153.4816  135.7017  153.5935 H   0  0  0  0  0  0  0  0  0  0  0  0  # atno 10763 bound_to 10752
  153.4146  135.3840  155.2072 H   0  0  0  0  0  0  0  0  0  0  0  0  # atno 10764 bound_to 10752
  154.8721  135.3913  154.4266 H   0  0  0  0  0  0  0  0  0  0  0  0  # atno 10765 bound_to 10752
  140.4653  134.1086  155.7723 H   0  0  0  0  0  0  0  0  0  0  0  0  # atno 11005 bound_to 11000
  146.3161  139.7925  142.8982 LP  0  0  0  0  0  0  0  0  0  0  0  0  # atno 17320 bound_to 7965
  145.3446  141.0295  143.3373 LP  0  0  0  0  0  0  0  0  0  0  0  0  # atno 17321 bound_to 7965
  140.6753  143.8204  150.7050 LP  0  0  0  0  0  0  0  0  0  0  0  0  # atno 17342 bound_to 10162
  140.1640  143.4251  152.2047 LP  0  0  0  0  0  0  0  0  0  0  0  0  # atno 17343 bound_to 10162
  157.6784  131.0844  150.7435 LP  0  0  0  0  0  0  0  0  0  0  0  0  # atno 17370 bound_to 10713
  156.7495  130.4764  149.5460 LP  0  0  0  0  0  0  0  0  0  0  0  0  # atno 17371 bound_to 10713
  141.1602  133.8807  157.1868 LP  0  0  0  0  0  0  0  0  0  0  0  0  # atno 17394 bound_to 11000
  139.9919  135.0061  156.9995 LP  0  0  0  0  0  0  0  0  0  0  0  0  # atno 17395 bound_to 11000

$$$$
