AV-unprocessed.smi:1813|AV-procd|sdf|7347|dock8
  -GOLD-   22720 9 13D 1   1.00000     0.00000
 Structure written by MMmdl.
 39 40  0  0  0  0  0  0  0  0  3 V2000
  145.5902  136.0754  152.2734 C   0  0  0  0  0  0  0  0  0  0  0  0
  146.7955  136.0533  153.0880 N   0  0  0  0  0  0  0  0  0  0  0  0
  146.8132  136.2456  154.4144 C   0  0  0  0  0  0  0  0  0  0  0  0
  145.7986  136.4539  155.0806 O   0  0  0  0  0  0  0  0  0  0  0  0
  148.1856  136.1721  155.0912 C   0  0  0  0  0  0  0  0  0  0  0  0
  149.1381  137.1970  154.5918 N   0  3  2  0  0  0  0  0  0  0  0  0
  150.5255  136.9917  155.0888 C   0  0  0  0  0  0  0  0  0  0  0  0
  151.4978  138.0024  154.4564 C   0  0  0  0  0  0  0  0  0  0  0  0
  151.0487  139.4562  154.7038 C   0  0  2  0  0  0  0  0  0  0  0  0
  151.1523  139.8213  156.1164 N   0  0  0  0  0  0  0  0  0  0  0  0
  150.8545  141.0116  156.6552 C   0  0  0  0  0  0  0  0  0  0  0  0
  150.4224  141.9206  155.9432 O   0  0  0  0  0  0  0  0  0  0  0  0
  151.0877  141.0727  157.9853 N   0  5  0  0  0  0  0  0  0  0  0  0
  151.3478  142.2541  158.5688 C   0  0  0  0  0  0  0  0  0  0  0  0
  151.5604  142.3869  159.8827 N   0  0  0  0  0  0  0  0  0  0  0  0
  151.8222  143.7017  160.2724 C   0  0  0  0  0  0  0  0  0  0  0  0
  151.8168  144.5894  159.2292 C   0  0  0  0  0  0  0  0  0  0  0  0
  151.4809  143.7956  157.7173 S   0  0  0  0  0  0  0  0  0  0  0  0
  149.5989  139.6267  154.2203 C   0  0  0  0  0  0  0  0  0  0  0  0
  148.6591  138.5799  154.8477 C   0  0  0  0  0  0  0  0  0  0  0  0
  145.8503  135.9573  151.2215 H   0  0  0  0  0  0  0  0  0  0  0  0
  145.0580  137.0208  152.3879 H   0  0  0  0  0  0  0  0  0  0  0  0
  144.9198  135.2616  152.5527 H   0  0  0  0  0  0  0  0  0  0  0  0
  147.6699  135.8808  152.6126 H   0  0  0  0  0  0  0  0  0  0  0  0
  148.0131  136.3205  156.1580 H   0  0  0  0  0  0  0  0  0  0  0  0
  148.6177  135.1760  154.9794 H   0  0  0  0  0  0  0  0  0  0  0  0
  150.5426  137.0811  156.1762 H   0  0  0  0  0  0  0  0  0  0  0  0
  150.8631  135.9820  154.8539 H   0  0  0  0  0  0  0  0  0  0  0  0
  152.5058  137.8392  154.8387 H   0  0  0  0  0  0  0  0  0  0  0  0
  151.5524  137.8218  153.3821 H   0  0  0  0  0  0  0  0  0  0  0  0
  151.6859  140.1316  154.1302 H   0  0  0  0  0  0  0  0  0  0  0  0
  151.4876  139.1087  156.7478 H   0  0  0  0  0  0  0  0  0  0  0  0
  152.0024  143.9155  161.3153 H   0  0  0  0  0  0  0  0  0  0  0  0
  151.9891  145.6546  159.2565 H   0  0  0  0  0  0  0  0  0  0  0  0
  149.2417  140.6325  154.4448 H   0  0  0  0  0  0  0  0  0  0  0  0
  149.5686  139.5298  153.1341 H   0  0  0  0  0  0  0  0  0  0  0  0
  147.6599  138.7045  154.4293 H   0  0  0  0  0  0  0  0  0  0  0  0
  148.5720  138.7420  155.9233 H   0  0  0  0  0  0  0  0  0  0  0  0
  149.1678  137.0883  153.5879 H   0  0  0  0  0  0  0  0  0  0  0  0
  1  2  1  0  0  0  0
  1 21  1  0  0  0  0
  1 22  1  0  0  0  0
  1 23  1  0  0  0  0
  2  3  1  0  0  0  0
  2 24  1  0  0  0  0
  3  4  2  0  0  0  0
  3  5  1  0  0  0  0
  5  6  1  0  0  0  0
  5 25  1  0  0  0  0
  5 26  1  0  0  0  0
  6 20  1  0  0  0  0
  6  7  1  0  0  0  0
  6 39  1  0  0  0  0
  7  8  1  0  0  0  0
  7 27  1  0  0  0  0
  7 28  1  0  0  0  0
  8  9  1  0  0  0  0
  8 29  1  0  0  0  0
  8 30  1  0  0  0  0
  9 10  1  0  0  0  0
  9 19  1  0  0  0  0
  9 31  1  0  0  0  0
 10 11  1  0  0  0  0
 10 32  1  0  0  0  0
 11 12  2  0  0  0  0
 11 13  1  0  0  0  0
 13 14  1  0  0  0  0
 14 18  1  0  0  0  0
 14 15  2  0  0  0  0
 15 16  1  0  0  0  0
 16 17  2  0  0  0  0
 16 33  1  0  0  0  0
 17 18  1  0  0  0  0
 17 34  1  0  0  0  0
 19 20  1  0  0  0  0
 19 35  1  0  0  0  0
 19 36  1  0  0  0  0
 20 37  1  0  0  0  0
 20 38  1  0  0  0  0
M  CHG  1   6   1
M  CHG  1  13  -1
M  END
> <s_m_source_file>
AV-unprocessed.smi

> <i_m_source_file_index>
1813

> <i_lp_mmshare_version>
43012

> <i_f3d_flags>
0

> <s_epik_input>
W0NIM11bTkhdQyg9TylbQ0gyXU4xW0NIMl1bQ0gyXVtDSF0oW0NIMl1bQ0gyXTEpW05IXUMoPU8pW05IXWMybltjSF1bY0hdczI=

> <s_epik_cmdline>
J2VwaWtfcHl0aG9uJywgJy1waCcsICc3LjAnLCAnLXRuJywgJzgnLCAnLW1hJywgJzIwMCcsICctbWV0YWxfYmluZGluZycsICctaW1hZScsICc8aW5maWxlLm1hZT4nLCAnLW9tYWUnLCAnPG91dGZpbGUubWFlPic=

> <r_lp_tautomer_probability>
0.999

> <r_epik_Ionization_Penalty>
7.12128

> <r_epik_Ionization_Penalty_Charging>
6.25357

> <r_epik_Ionization_Penalty_Neutral>
0.867707

> <r_epik_State_Penalty>
6.33838

> <r_epik_Charging_Adjusted_Penalty>
12.592

> <i_epik_Tot_Q>
0

> <i_epik_Tot_abs_Q>
2

> <r_epik_Metal_State_Penalty>
2.34161

> <b_epik_Metal_Only>
1

> <s_lp_Force_Field>
OPLS_2005

> <r_lp_Energy>
4.26142

> <b_lp_Chiralities_Consistent>
1

> <s_lp_Variant>
AV-unprocessed.smi:1813-8

> <Gold.Version>
5.8.1

> <Gold.Id.Protein>
6NUR|6NUR_protein|mol2

> <Gold.PLP.Fitness>
41.4886

> <Gold.PLP.PLP>
-32.7949

> <Gold.PLP.part.hbond>
-2.3089

> <Gold.PLP.part.metal>
0.0000

> <Gold.PLP.part.buried>
-2.5522

> <Gold.PLP.part.nonpolar>
-27.9509

> <Gold.PLP.part.repulsive>
0.2364

> <Gold.PLP.ligand.clash>
0.0000

> <Gold.PLP.ligand.torsion>
0.1656

> <Gold.PLP.Chemscore.Hbond>
3.0000

> <Gold.PLP.Chemscore.CHOScore>
0.0000

> <Gold.PLP.Chemscore.Metal>
0.0000

> <Gold.Chemscore.Hbonds>
donor molecule, donor type, donor heavy atom, donor atom, acceptor molecule, acceptor atom, score
      L1  H     2    24       P1  7948  0.96
      L1  H     6    39       P1  7948  2.00

> <Gold.PLP.Chemscore.Internal.Correction>
0.0248

> <Gold.Rescore>
     Score         DG    S(hbond)    S(metal)    S(lipo)     H(rot)  DE(clash)    DE(int)     intcor
     13.62     -16.60       1.99        0.00      76.59       1.76       0.46       2.52       ----

> <Gold.Chemscore.Fitness>
13.6182

> <Gold.Chemscore.DG>
-16.5950

> <Gold.Chemscore.ZeroCoef>
-5.4800

> <Gold.Chemscore.Hbond>
1.9940

> <Gold.Chemscore.Metal>
0.0000

> <Gold.Chemscore.Lipo>
76.5931

> <Gold.Chemscore.Internal_Hbond>
0.0000

> <Gold.Chemscore.DEClash>
0.4559

> <Gold.Chemscore.DEInternal>
2.5209

> <Gold.Chemscore.Rot>
1.7603

> <Gold.Chemscore.Internal.Correction>
   9.000000E+99

> <Gold.Chemscore.Hbonds>
donor molecule, donor type, donor heavy atom, donor atom, acceptor molecule, acceptor atom, score
      L1  H     2    24       P1  7948  0.90
      L1  H     6    39       P1  7948  0.99

> <Gold.Chemscore.Hbond.Weighted>
-6.6600

> <Gold.Chemscore.Metal.Weighted>
-0.0000

> <Gold.Chemscore.Lipo.Weighted>
-8.9614

> <Gold.Chemscore.Internal_Hbond.Weighted>
0.0000

> <Gold.Chemscore.DEClash.Weighted>
0.4559

> <Gold.Chemscore.DEInternal.Weighted>
2.5209

> <Gold.Chemscore.Rot.Weighted>
4.5064

> <Gold.Chemscore.Internal.Correction.Weighted>
   9.000000E+99

> <Gold.Protein.RotatedTorsions>
[ 6907 6896 6895 6894 ] final  -19.74 input  -60.11 | X-H torsion
[ 7974 7965 7964 7962 ] final  -47.20 input  175.53 | X-H torsion
[ 8008 7997 7996 7995 ] final  -40.67 input   59.86 | X-H torsion
[ 10167 10162 10161 10158 ] final   20.31 input  -65.29 | X-H torsion
[ 10718 10713 10712 10709 ] final -110.43 input   66.30 | X-H torsion
[ 10763 10752 10751 10750 ] final -153.01 input  -60.55 | X-H torsion
[ 11005 11000 10999 10996 ] final  115.06 input  -57.11 | X-H torsion

> <Gold.Protein.ActiveResidues>
 VAL166  LYS551  ARG553  GLY616  TRP617  ASP618  TYR619  PRO620  LYS621  CYS622 
 ASP623  PHE694  ASN695  SER759  ASP760  ASP761  ALA762  ILE779  LEU786  VAL792 
 PHE793  MET794  SER795  GLU796  ALA797  LYS798  CYS799  TRP800  GLU811  SER814 

> <Gold.Protein.RotatedAtoms>
  151.2585  135.0646  159.9089 H   0  0  0  0  0  0  0  0  0  0  0  0  # atno 6907 bound_to 6896
  152.5369  134.0256  159.8011 H   0  0  0  0  0  0  0  0  0  0  0  0  # atno 6908 bound_to 6896
  151.0475  133.5603  159.2676 H   0  0  0  0  0  0  0  0  0  0  0  0  # atno 6909 bound_to 6896
  145.9641  140.7450  142.9443 H   0  0  0  0  0  0  0  0  0  0  0  0  # atno 7974 bound_to 7965
  154.4010  140.1519  156.3066 H   0  0  0  0  0  0  0  0  0  0  0  0  # atno 8008 bound_to 7997
  155.8653  140.3451  155.5762 H   0  0  0  0  0  0  0  0  0  0  0  0  # atno 8009 bound_to 7997
  155.7834  140.0846  157.2037 H   0  0  0  0  0  0  0  0  0  0  0  0  # atno 8010 bound_to 7997
  140.5513  143.9503  150.6580 H   0  0  0  0  0  0  0  0  0  0  0  0  # atno 10167 bound_to 10162
  156.0590  130.5815  150.8236 H   0  0  0  0  0  0  0  0  0  0  0  0  # atno 10718 bound_to 10713
  154.7956  135.3223  154.7673 H   0  0  0  0  0  0  0  0  0  0  0  0  # atno 10763 bound_to 10752
  153.8352  135.6876  153.4814 H   0  0  0  0  0  0  0  0  0  0  0  0  # atno 10764 bound_to 10752
  153.1647  135.4647  154.9762 H   0  0  0  0  0  0  0  0  0  0  0  0  # atno 10765 bound_to 10752
  139.8998  134.9578  156.6987 H   0  0  0  0  0  0  0  0  0  0  0  0  # atno 11005 bound_to 11000
  144.6821  140.2639  143.7315 LP  0  0  0  0  0  0  0  0  0  0  0  0  # atno 17320 bound_to 7965
  145.7999  139.1960  143.2054 LP  0  0  0  0  0  0  0  0  0  0  0  0  # atno 17321 bound_to 7965
  140.2930  143.3311  152.1044 LP  0  0  0  0  0  0  0  0  0  0  0  0  # atno 17342 bound_to 10162
  139.5029  144.6744  151.6165 LP  0  0  0  0  0  0  0  0  0  0  0  0  # atno 17343 bound_to 10162
  157.5584  131.0945  150.9594 LP  0  0  0  0  0  0  0  0  0  0  0  0  # atno 17370 bound_to 10713
  156.9838  130.5537  149.5298 LP  0  0  0  0  0  0  0  0  0  0  0  0  # atno 17371 bound_to 10713
  140.7167  133.9176  155.8120 LP  0  0  0  0  0  0  0  0  0  0  0  0  # atno 17394 bound_to 11000
  141.0259  134.0825  157.4069 LP  0  0  0  0  0  0  0  0  0  0  0  0  # atno 17395 bound_to 11000

$$$$
