AV-unprocessed.smi:109|AV-procd|sdf|1058|dock4
  -GOLD-   2262018123D 1   1.00000     0.00000
 Structure written by MMmdl.
 58 61  0  0  0  0  0  0  0  0  1 V2000
  141.5152  136.4153  157.9111 O   0  0  0  0  0  0  0  0  0  0  0  0
  142.3968  136.8146  156.8839 C   0  0  0  0  0  0  0  0  0  0  0  0
  142.4568  138.3489  156.8142 C   0  0  0  0  0  0  0  0  0  0  0  0
  143.5487  138.8667  155.8516 C   0  0  1  0  0  0  0  0  0  0  0  0
  143.1310  138.6480  154.4669 N   0  0  0  0  0  0  0  0  0  0  0  0
  142.9419  137.4057  153.9690 C   0  0  0  0  0  0  0  0  0  0  0  0
  141.6948  136.9047  153.7671 N   0  0  0  0  0  0  0  0  0  0  0  0
  141.5396  135.6748  153.2674 C   0  0  0  0  0  0  0  0  0  0  0  0
  142.4777  134.7960  152.9062 N   0  0  0  0  0  0  0  0  0  0  0  0
  143.7311  135.2963  153.1072 C   0  0  0  0  0  0  0  0  0  0  0  0
  144.0450  136.5804  153.6309 C   0  0  0  0  0  0  0  0  0  0  0  0
  145.4236  136.7395  153.6878 N   0  0  0  0  0  0  0  0  0  0  0  0
  145.8918  135.6133  153.2196 C   0  0  0  0  0  0  0  0  0  0  0  0
  144.9388  134.6841  152.8556 N   0  0  0  0  0  0  0  0  0  0  0  0
  145.1119  133.3121  152.2816 C   0  0  1  0  0  0  0  0  0  0  0  0
  144.1226  133.1218  151.3116 O   0  0  0  0  0  0  0  0  0  0  0  0
  144.6936  133.3318  150.0282 C   0  0  2  0  0  0  0  0  0  0  0  0
  143.7719  132.8926  148.8705 C   0  0  0  0  0  0  0  0  0  0  0  0
  143.3963  133.9480  148.0107 O   0  0  0  0  0  0  0  0  0  0  0  0
  146.1135  132.7642  150.1557 C   0  0  2  0  0  0  0  0  0  0  0  0
  146.1363  131.3539  150.0181 O   0  0  0  0  0  0  0  0  0  0  0  0
  146.4816  133.2126  151.5725 C   0  0  2  0  0  0  0  0  0  0  0  0
  147.3814  132.3301  152.2165 O   0  0  0  0  0  0  0  0  0  0  0  0
  143.9456  140.3513  156.0835 C   0  0  0  0  0  0  0  0  0  0  0  0
  145.2601  140.7362  155.3699 C   0  0  0  0  0  0  0  0  0  0  0  0
  145.5726  142.2326  155.5353 C   0  0  0  0  0  0  0  0  0  0  0  0
  145.6257  142.6293  157.0188 C   0  0  0  0  0  0  0  0  0  0  0  0
  144.3230  142.2505  157.7402 C   0  0  0  0  0  0  0  0  0  0  0  0
  144.0085  140.7546  157.5745 C   0  0  0  0  0  0  0  0  0  0  0  0
  144.9770  132.6327  153.1243 H   0  0  0  0  0  0  0  0  0  0  0  0
  144.7993  134.4135  149.9248 H   0  0  0  0  0  0  0  0  0  0  0  0
  146.7844  133.1902  149.4090 H   0  0  0  0  0  0  0  0  0  0  0  0
  146.9367  134.2034  151.5252 H   0  0  0  0  0  0  0  0  0  0  0  0
  140.8780  135.8210  157.5454 H   0  0  0  0  0  0  0  0  0  0  0  0
  143.3852  136.3999  157.0833 H   0  0  0  0  0  0  0  0  0  0  0  0
  142.0496  136.3919  155.9407 H   0  0  0  0  0  0  0  0  0  0  0  0
  141.4811  138.7367  156.5186 H   0  0  0  0  0  0  0  0  0  0  0  0
  142.6406  138.7232  157.8203 H   0  0  0  0  0  0  0  0  0  0  0  0
  144.4349  138.2590  156.0389 H   0  0  0  0  0  0  0  0  0  0  0  0
  142.9801  139.4834  153.9200 H   0  0  0  0  0  0  0  0  0  0  0  0
  140.5180  135.3491  153.1378 H   0  0  0  0  0  0  0  0  0  0  0  0
  146.9533  135.4358  153.1285 H   0  0  0  0  0  0  0  0  0  0  0  0
  144.2608  132.1170  148.2806 H   0  0  0  0  0  0  0  0  0  0  0  0
  142.8606  132.4521  149.2759 H   0  0  0  0  0  0  0  0  0  0  0  0
  144.1706  134.2742  147.5779 H   0  0  0  0  0  0  0  0  0  0  0  0
  147.0000  131.0446  150.2454 H   0  0  0  0  0  0  0  0  0  0  0  0
  147.8589  131.8549  151.5536 H   0  0  0  0  0  0  0  0  0  0  0  0
  143.1684  140.9637  155.6239 H   0  0  0  0  0  0  0  0  0  0  0  0
  146.0947  140.1577  155.7651 H   0  0  0  0  0  0  0  0  0  0  0  0
  145.1921  140.4952  154.3085 H   0  0  0  0  0  0  0  0  0  0  0  0
  146.5215  142.4694  155.0532 H   0  0  0  0  0  0  0  0  0  0  0  0
  144.8109  142.8240  155.0258 H   0  0  0  0  0  0  0  0  0  0  0  0
  146.4686  142.1321  157.5006 H   0  0  0  0  0  0  0  0  0  0  0  0
  145.8047  143.7009  157.1116 H   0  0  0  0  0  0  0  0  0  0  0  0
  144.3992  142.4983  158.7993 H   0  0  0  0  0  0  0  0  0  0  0  0
  143.4988  142.8441  157.3429 H   0  0  0  0  0  0  0  0  0  0  0  0
  143.0633  140.5277  158.0685 H   0  0  0  0  0  0  0  0  0  0  0  0
  144.7747  140.1750  158.0899 H   0  0  0  0  0  0  0  0  0  0  0  0
  1  2  1  0  0  0  0
  1 34  1  0  0  0  0
  2  3  1  0  0  0  0
  2 35  1  0  0  0  0
  2 36  1  0  0  0  0
  3  4  1  0  0  0  0
  3 37  1  0  0  0  0
  3 38  1  0  0  0  0
  4  5  1  0  0  0  0
  4 24  1  0  0  0  0
  4 39  1  0  0  0  0
  5  6  1  0  0  0  0
  5 40  1  0  0  0  0
  6 11  1  0  0  0  0
  6  7  2  0  0  0  0
  7  8  1  0  0  0  0
  8  9  2  0  0  0  0
  8 41  1  0  0  0  0
  9 10  1  0  0  0  0
 10 14  1  0  0  0  0
 10 11  2  0  0  0  0
 11 12  1  0  0  0  0
 12 13  2  0  0  0  0
 13 14  1  0  0  0  0
 13 42  1  0  0  0  0
 14 15  1  0  0  0  0
 15 30  1  0  0  0  0
 15 22  1  0  0  0  0
 15 16  1  0  0  0  0
 16 17  1  0  0  0  0
 17 31  1  0  0  0  0
 17 18  1  0  0  0  0
 17 20  1  0  0  0  0
 18 19  1  0  0  0  0
 18 43  1  0  0  0  0
 18 44  1  0  0  0  0
 19 45  1  0  0  0  0
 20 32  1  0  0  0  0
 20 21  1  0  0  0  0
 20 22  1  0  0  0  0
 21 46  1  0  0  0  0
 22 33  1  0  0  0  0
 22 23  1  0  0  0  0
 23 47  1  0  0  0  0
 24 29  1  0  0  0  0
 24 25  1  0  0  0  0
 24 48  1  0  0  0  0
 25 26  1  0  0  0  0
 25 49  1  0  0  0  0
 25 50  1  0  0  0  0
 26 27  1  0  0  0  0
 26 51  1  0  0  0  0
 26 52  1  0  0  0  0
 27 28  1  0  0  0  0
 27 53  1  0  0  0  0
 27 54  1  0  0  0  0
 28 29  1  0  0  0  0
 28 55  1  0  0  0  0
 28 56  1  0  0  0  0
 29 57  1  0  0  0  0
 29 58  1  0  0  0  0
M  END
> <s_m_source_file>
AV-unprocessed.smi

> <i_m_source_file_index>
109

> <i_lp_mmshare_version>
43012

> <i_f3d_flags>
0

> <s_epik_input>
W0NIMl0xW0NIMl1bQ0gyXVtDSDJdW0NIMl1bQ0hdMVtDQEhdKFtDSDJdW0NIMl1bT0hdKVtOSF1jKG5bY0hdbjIpYyhjMjMpbltjSF1uM1tDQEBIXTRPW0NASF0oW0NIMl1bT0hdKVtDQEBIXShbT0hdKVtDQEhdNFtPSF0=

> <s_epik_cmdline>
J2VwaWtfcHl0aG9uJywgJy1waCcsICc3LjAnLCAnLXRuJywgJzgnLCAnLW1hJywgJzIwMCcsICctbWV0YWxfYmluZGluZycsICctaW1hZScsICc8aW5maWxlLm1hZT4nLCAnLW9tYWUnLCAnPG91dGZpbGUubWFlPic=

> <r_lp_tautomer_probability>
1

> <r_epik_Ionization_Penalty>
0.000793976

> <r_epik_Ionization_Penalty_Charging>
0

> <r_epik_Ionization_Penalty_Neutral>
0.000793976

> <r_epik_State_Penalty>
-0

> <r_epik_Charging_Adjusted_Penalty>
0

> <i_epik_Tot_Q>
0

> <i_epik_Tot_abs_Q>
0

> <r_epik_Metal_State_Penalty>
-0

> <b_epik_Metal_Only>
0

> <s_epik_Chemistry_Notes>
This compound contains an acetal/aminal-like group ( X-CH(R)-Y where X, Y are N, S, or O) that may be acid/base labile, releasing an aldehyde.

> <s_lp_Force_Field>
OPLS_2005

> <r_lp_Energy>
57.9674

> <b_lp_Chiralities_Consistent>
1

> <s_lp_Variant>
AV-unprocessed.smi:109-28

> <Gold.Version>
5.8.1

> <Gold.Id.Protein>
6NUR|6NUR_protein|mol2

> <Gold.PLP.Fitness>
49.9524

> <Gold.PLP.PLP>
-33.3771

> <Gold.PLP.part.hbond>
-7.9324

> <Gold.PLP.part.metal>
0.0000

> <Gold.PLP.part.buried>
-6.3627

> <Gold.PLP.part.nonpolar>
-20.3273

> <Gold.PLP.part.repulsive>
0.5771

> <Gold.PLP.ligand.clash>
0.0000

> <Gold.PLP.ligand.torsion>
2.5438

> <Gold.PLP.Chemscore.Hbond>
5.8872

> <Gold.PLP.Chemscore.CHOScore>
1.2625

> <Gold.PLP.Chemscore.Metal>
0.0000

> <Gold.Chemscore.Hbonds>
donor molecule, donor type, donor heavy atom, donor atom, acceptor molecule, acceptor atom, score
      L1  H     1    34       P1 11000  1.00
      L1  H     5    40       P1 10175  0.88
      L1  H    19    45       P1  7921  1.00
      L1  H    21    46       P1 10747  1.00
      L1  H    23    47       P1 10747  1.00
      P1  H 10192 10197       L1    19  0.95
      L1  C     8    41       P1 10187  0.26
      L1  C    13    42       P1  7948  1.00

> <Gold.PLP.Chemscore.Internal.Correction>
0.2136

> <Gold.Rescore>
     Score         DG    S(hbond)    S(metal)    S(lipo)     H(rot)  DE(clash)    DE(int)     intcor
     11.43     -15.29       5.35        0.00      50.62       5.47       0.13       3.73       ----

> <Gold.Chemscore.Fitness>
11.4301

> <Gold.Chemscore.DG>
-15.2903

> <Gold.Chemscore.ZeroCoef>
-5.4800

> <Gold.Chemscore.Hbond>
5.3538

> <Gold.Chemscore.Metal>
0.0000

> <Gold.Chemscore.Lipo>
50.6173

> <Gold.Chemscore.Internal_Hbond>
0.0000

> <Gold.Chemscore.DEClash>
0.1303

> <Gold.Chemscore.DEInternal>
3.7299

> <Gold.Chemscore.Rot>
5.4662

> <Gold.Chemscore.Internal.Correction>
   9.000000E+99

> <Gold.Chemscore.Hbonds>
donor molecule, donor type, donor heavy atom, donor atom, acceptor molecule, acceptor atom, score
      L1  H     1    34       P1 11000  0.92
      L1  H     5    40       P1 10175  0.87
      L1  H    19    45       P1  7921  0.92
      L1  H    21    46       P1 10747  0.97
      L1  H    23    47       P1 10747  0.98
      P1  H 10192 10197       L1    19  0.20

> <Gold.Chemscore.Hbond.Weighted>
-17.8816

> <Gold.Chemscore.Metal.Weighted>
-0.0000

> <Gold.Chemscore.Lipo.Weighted>
-5.9222

> <Gold.Chemscore.Internal_Hbond.Weighted>
0.0000

> <Gold.Chemscore.DEClash.Weighted>
0.1303

> <Gold.Chemscore.DEInternal.Weighted>
3.7299

> <Gold.Chemscore.Rot.Weighted>
13.9935

> <Gold.Chemscore.Internal.Correction.Weighted>
   9.000000E+99

> <Gold.Protein.RotatedTorsions>
[ 6907 6896 6895 6894 ] final -121.15 input  -60.11 | X-H torsion
[ 7974 7965 7964 7962 ] final   55.82 input  175.53 | X-H torsion
[ 8008 7997 7996 7995 ] final   22.43 input   59.86 | X-H torsion
[ 10167 10162 10161 10158 ] final   46.25 input  -65.29 | X-H torsion
[ 10718 10713 10712 10709 ] final   35.30 input   66.30 | X-H torsion
[ 10763 10752 10751 10750 ] final -137.13 input  -60.55 | X-H torsion
[ 11005 11000 10999 10996 ] final  -18.54 input  -57.11 | X-H torsion

> <Gold.Protein.ActiveResidues>
 VAL166  LYS551  ARG553  GLY616  TRP617  ASP618  TYR619  PRO620  LYS621  CYS622 
 ASP623  PHE694  ASN695  SER759  ASP760  ASP761  ALA762  ILE779  LEU786  VAL792 
 PHE793  MET794  SER795  GLU796  ALA797  LYS798  CYS799  TRP800  GLU811  SER814 

> <Gold.Protein.RotatedAtoms>
  150.8457  133.7865  159.3043 H   0  0  0  0  0  0  0  0  0  0  0  0  # atno 6907 bound_to 6896
  151.5552  135.1065  159.9969 H   0  0  0  0  0  0  0  0  0  0  0  0  # atno 6908 bound_to 6896
  152.4511  133.7589  159.6792 H   0  0  0  0  0  0  0  0  0  0  0  0  # atno 6909 bound_to 6896
  145.9463  139.3933  143.0333 H   0  0  0  0  0  0  0  0  0  0  0  0  # atno 7974 bound_to 7965
  154.9655  140.3083  155.5011 H   0  0  0  0  0  0  0  0  0  0  0  0  # atno 8008 bound_to 7997
  156.2972  140.2293  156.4683 H   0  0  0  0  0  0  0  0  0  0  0  0  # atno 8009 bound_to 7997
  154.7925  140.0439  157.1200 H   0  0  0  0  0  0  0  0  0  0  0  0  # atno 8010 bound_to 7997
  140.3158  144.2765  150.6191 H   0  0  0  0  0  0  0  0  0  0  0  0  # atno 10167 bound_to 10162
  157.3210  130.7448  149.6785 H   0  0  0  0  0  0  0  0  0  0  0  0  # atno 10718 bound_to 10713
  154.8669  135.3651  154.5173 H   0  0  0  0  0  0  0  0  0  0  0  0  # atno 10763 bound_to 10752
  153.5805  135.7018  153.5470 H   0  0  0  0  0  0  0  0  0  0  0  0  # atno 10764 bound_to 10752
  153.3461  135.4084  155.1572 H   0  0  0  0  0  0  0  0  0  0  0  0  # atno 10765 bound_to 10752
  140.8278  133.8020  155.9726 H   0  0  0  0  0  0  0  0  0  0  0  0  # atno 11005 bound_to 11000
  145.8231  140.9669  143.0888 LP  0  0  0  0  0  0  0  0  0  0  0  0  # atno 17320 bound_to 7965
  144.6788  140.0067  143.7484 LP  0  0  0  0  0  0  0  0  0  0  0  0  # atno 17321 bound_to 7965
  140.5527  143.2204  151.7899 LP  0  0  0  0  0  0  0  0  0  0  0  0  # atno 17342 bound_to 10162
  139.4884  144.4454  151.9716 LP  0  0  0  0  0  0  0  0  0  0  0  0  # atno 17343 bound_to 10162
  155.9686  130.4223  150.4510 LP  0  0  0  0  0  0  0  0  0  0  0  0  # atno 17370 bound_to 10713
  157.2525  131.0549  151.2370 LP  0  0  0  0  0  0  0  0  0  0  0  0  # atno 17371 bound_to 10713
  140.9031  134.2354  157.5030 LP  0  0  0  0  0  0  0  0  0  0  0  0  # atno 17394 bound_to 11000
  139.8706  134.9715  156.4741 LP  0  0  0  0  0  0  0  0  0  0  0  0  # atno 17395 bound_to 11000

$$$$
