AV-unprocessed.smi:2901|AV-procd|sdf|11149|dock9
  -GOLD-   2272016 23D 1   1.00000     0.00000
 Structure written by MMmdl.
 40 41  0  0  0  0  0  0  0  0  1 V2000
  152.0784  141.4369  158.1570 C   0  0  0  0  0  0  0  0  0  0  0  0
  151.6410  140.7006  156.9383 C   0  0  0  0  0  0  0  0  0  0  0  0
  150.4454  140.7417  156.3542 N   0  0  0  0  0  0  0  0  0  0  0  0
  150.5514  139.8830  155.2688 C   0  0  0  0  0  0  0  0  0  0  0  0
  149.4088  139.6431  154.3301 C   0  0  0  0  0  0  0  0  0  0  0  0
  148.3720  138.6719  154.9179 C   0  0  0  0  0  0  0  0  0  0  0  0
  147.8999  137.7196  153.9195 N   0  0  0  0  0  0  0  0  0  0  0  0
  146.6120  137.4847  153.6334 C   0  0  0  0  0  0  0  0  0  0  0  0
  145.6681  138.0560  154.1796 O   0  0  0  0  0  0  0  0  0  0  0  0
  146.4759  136.5474  152.6860 N   0  0  0  0  0  0  0  0  0  0  0  0
  145.2009  136.0590  152.1720 C   0  0  0  0  0  0  0  0  0  0  0  0
  145.3873  135.0071  151.0643 C   0  0  2  0  0  0  0  0  0  0  0  0
  144.1159  134.2524  150.6745 C   0  0  0  0  0  0  0  0  0  0  0  0
  144.6351  132.9219  150.1501 C   0  0  0  0  0  0  0  0  0  0  0  0
  146.1029  132.8914  150.5864 C   0  0  0  0  0  0  0  0  0  0  0  0
  146.2381  133.9636  151.5082 O   0  0  0  0  0  0  0  0  0  0  0  0
  151.8225  139.3677  155.2545 C   0  0  0  0  0  0  0  0  0  0  0  0
  152.5245  138.4140  154.3484 C   0  0  0  0  0  0  0  0  0  0  0  0
  152.5254  139.8779  156.3128 O   0  0  0  0  0  0  0  0  0  0  0  0
  151.3281  142.1737  158.4449 H   0  0  0  0  0  0  0  0  0  0  0  0
  153.0195  141.9522  157.9640 H   0  0  0  0  0  0  0  0  0  0  0  0
  152.2211  140.7390  158.9821 H   0  0  0  0  0  0  0  0  0  0  0  0
  148.9239  140.5889  154.0857 H   0  0  0  0  0  0  0  0  0  0  0  0
  149.7884  139.2500  153.3861 H   0  0  0  0  0  0  0  0  0  0  0  0
  148.7877  138.1395  155.7756 H   0  0  0  0  0  0  0  0  0  0  0  0
  147.5101  139.2287  155.2868 H   0  0  0  0  0  0  0  0  0  0  0  0
  148.6036  137.2004  153.4151 H   0  0  0  0  0  0  0  0  0  0  0  0
  147.3114  136.1357  152.2973 H   0  0  0  0  0  0  0  0  0  0  0  0
  144.6035  135.6472  152.9870 H   0  0  0  0  0  0  0  0  0  0  0  0
  144.6451  136.9130  151.7841 H   0  0  0  0  0  0  0  0  0  0  0  0
  145.8341  135.4625  150.1783 H   0  0  0  0  0  0  0  0  0  0  0  0
  143.4942  134.0793  151.5540 H   0  0  0  0  0  0  0  0  0  0  0  0
  143.5173  134.7934  149.9411 H   0  0  0  0  0  0  0  0  0  0  0  0
  144.0720  132.0923  150.5789 H   0  0  0  0  0  0  0  0  0  0  0  0
  144.5538  132.8571  149.0642 H   0  0  0  0  0  0  0  0  0  0  0  0
  146.3862  131.9419  151.0411 H   0  0  0  0  0  0  0  0  0  0  0  0
  146.7594  133.0693  149.7334 H   0  0  0  0  0  0  0  0  0  0  0  0
  152.2312  138.5773  153.3112 H   0  0  0  0  0  0  0  0  0  0  0  0
  152.2820  137.3841  154.6107 H   0  0  0  0  0  0  0  0  0  0  0  0
  153.6060  138.5351  154.4151 H   0  0  0  0  0  0  0  0  0  0  0  0
  1  2  1  0  0  0  0
  1 20  1  0  0  0  0
  1 21  1  0  0  0  0
  1 22  1  0  0  0  0
  2 19  1  0  0  0  0
  2  3  2  0  0  0  0
  3  4  1  0  0  0  0
  4  5  1  0  0  0  0
  4 17  2  0  0  0  0
  5  6  1  0  0  0  0
  5 23  1  0  0  0  0
  5 24  1  0  0  0  0
  6  7  1  0  0  0  0
  6 25  1  0  0  0  0
  6 26  1  0  0  0  0
  7  8  1  0  0  0  0
  7 27  1  0  0  0  0
  8  9  2  0  0  0  0
  8 10  1  0  0  0  0
 10 11  1  0  0  0  0
 10 28  1  0  0  0  0
 11 12  1  0  0  0  0
 11 29  1  0  0  0  0
 11 30  1  0  0  0  0
 12 16  1  0  0  0  0
 12 13  1  0  0  0  0
 12 31  1  0  0  0  0
 13 14  1  0  0  0  0
 13 32  1  0  0  0  0
 13 33  1  0  0  0  0
 14 15  1  0  0  0  0
 14 34  1  0  0  0  0
 14 35  1  0  0  0  0
 15 16  1  0  0  0  0
 15 36  1  0  0  0  0
 15 37  1  0  0  0  0
 17 18  1  0  0  0  0
 17 19  1  0  0  0  0
 18 38  1  0  0  0  0
 18 39  1  0  0  0  0
 18 40  1  0  0  0  0
M  END
> <s_m_source_file>
AV-unprocessed.smi

> <i_m_source_file_index>
2901

> <i_lp_mmshare_version>
43012

> <i_f3d_flags>
0

> <s_epik_input>
W0NIM11jMW5jKGMobzEpW0NIM10pW0NIMl1bQ0gyXVtOSF1DKD1PKVtOSF1bQ0gyXVtDQEBIXTJbQ0gyXVtDSDJdW0NIMl1PMg==

> <s_epik_cmdline>
J2VwaWtfcHl0aG9uJywgJy1waCcsICc3LjAnLCAnLXRuJywgJzgnLCAnLW1hJywgJzIwMCcsICctbWV0YWxfYmluZGluZycsICctaW1hZScsICc8aW5maWxlLm1hZT4nLCAnLW9tYWUnLCAnPG91dGZpbGUubWFlPic=

> <r_lp_tautomer_probability>
1

> <r_epik_Ionization_Penalty>
9.58254e-05

> <r_epik_Ionization_Penalty_Charging>
0

> <r_epik_Ionization_Penalty_Neutral>
9.58254e-05

> <r_epik_State_Penalty>
-0

> <r_epik_Charging_Adjusted_Penalty>
0

> <i_epik_Tot_Q>
0

> <i_epik_Tot_abs_Q>
0

> <r_epik_Metal_State_Penalty>
-0

> <b_epik_Metal_Only>
0

> <s_lp_Force_Field>
OPLS_2005

> <r_lp_Energy>
8.98545

> <b_lp_Chiralities_Consistent>
1

> <s_lp_Variant>
AV-unprocessed.smi:2901-1

> <Gold.Version>
5.8.1

> <Gold.Id.Protein>
6NUR|6NUR_protein|mol2

> <Gold.PLP.Fitness>
39.7172

> <Gold.PLP.PLP>
-32.2017

> <Gold.PLP.part.hbond>
-3.0000

> <Gold.PLP.part.metal>
0.0000

> <Gold.PLP.part.buried>
-4.0331

> <Gold.PLP.part.nonpolar>
-25.2474

> <Gold.PLP.part.repulsive>
0.3666

> <Gold.PLP.ligand.clash>
0.0000

> <Gold.PLP.ligand.torsion>
0.6170

> <Gold.PLP.Chemscore.Hbond>
2.9120

> <Gold.PLP.Chemscore.CHOScore>
0.0000

> <Gold.PLP.Chemscore.Metal>
0.0000

> <Gold.Chemscore.Hbonds>
donor molecule, donor type, donor heavy atom, donor atom, acceptor molecule, acceptor atom, score
      L1  H     7    27       P1  7948  0.91
      L1  H    10    28       P1  7948  1.00
      P1  H  7997  8010       L1    19  1.00

> <Gold.PLP.Chemscore.Internal.Correction>
0.0135

> <Gold.Rescore>
     Score         DG    S(hbond)    S(metal)    S(lipo)     H(rot)  DE(clash)    DE(int)     intcor
     18.40     -19.07       2.89        0.00      75.61       1.92       0.10       0.57       ----

> <Gold.Chemscore.Fitness>
18.3961

> <Gold.Chemscore.DG>
-19.0660

> <Gold.Chemscore.ZeroCoef>
-5.4800

> <Gold.Chemscore.Hbond>
2.8883

> <Gold.Chemscore.Metal>
0.0000

> <Gold.Chemscore.Lipo>
75.6052

> <Gold.Chemscore.Internal_Hbond>
0.0000

> <Gold.Chemscore.DEClash>
0.0986

> <Gold.Chemscore.DEInternal>
0.5713

> <Gold.Chemscore.Rot>
1.9167

> <Gold.Chemscore.Internal.Correction>
   9.000000E+99

> <Gold.Chemscore.Hbonds>
donor molecule, donor type, donor heavy atom, donor atom, acceptor molecule, acceptor atom, score
      L1  H     7    27       P1  7948  0.88
      L1  H    10    28       P1  7948  0.96
      P1  H  7997  8010       L1    19  0.99

> <Gold.Chemscore.Hbond.Weighted>
-9.6470

> <Gold.Chemscore.Metal.Weighted>
-0.0000

> <Gold.Chemscore.Lipo.Weighted>
-8.8458

> <Gold.Chemscore.Internal_Hbond.Weighted>
0.0000

> <Gold.Chemscore.DEClash.Weighted>
0.0986

> <Gold.Chemscore.DEInternal.Weighted>
0.5713

> <Gold.Chemscore.Rot.Weighted>
4.9069

> <Gold.Chemscore.Internal.Correction.Weighted>
   9.000000E+99

> <Gold.Protein.RotatedTorsions>
[ 6907 6896 6895 6894 ] final  -58.11 input  -60.11 | X-H torsion
[ 7974 7965 7964 7962 ] final   45.37 input  175.53 | X-H torsion
[ 8008 7997 7996 7995 ] final   68.93 input   59.86 | X-H torsion
[ 10167 10162 10161 10158 ] final -173.00 input  -65.29 | X-H torsion
[ 10718 10713 10712 10709 ] final  -69.74 input   66.30 | X-H torsion
[ 10763 10752 10751 10750 ] final   31.44 input  -60.55 | X-H torsion
[ 11005 11000 10999 10996 ] final  115.89 input  -57.11 | X-H torsion

> <Gold.Protein.ActiveResidues>
 VAL166  LYS551  ARG553  GLY616  TRP617  ASP618  TYR619  PRO620  LYS621  CYS622 
 ASP623  PHE694  ASN695  SER759  ASP760  ASP761  ALA762  ILE779  LEU786  VAL792 
 PHE793  MET794  SER795  GLU796  ALA797  LYS798  CYS799  TRP800  GLU811  SER814 

> <Gold.Protein.RotatedAtoms>
  150.8033  134.7141  159.6620 H   0  0  0  0  0  0  0  0  0  0  0  0  # atno 6907 bound_to 6896
  152.4151  134.6053  160.0021 H   0  0  0  0  0  0  0  0  0  0  0  0  # atno 6908 bound_to 6896
  151.6284  133.3297  159.3139 H   0  0  0  0  0  0  0  0  0  0  0  0  # atno 6909 bound_to 6896
  146.0486  139.4971  142.9733 H   0  0  0  0  0  0  0  0  0  0  0  0  # atno 7974 bound_to 7965
  155.7159  140.3494  155.4994 H   0  0  0  0  0  0  0  0  0  0  0  0  # atno 8008 bound_to 7997
  155.9314  140.1085  157.1151 H   0  0  0  0  0  0  0  0  0  0  0  0  # atno 8009 bound_to 7997
  154.4086  140.1230  156.4794 H   0  0  0  0  0  0  0  0  0  0  0  0  # atno 8010 bound_to 7997
  139.5713  144.1636  152.1387 H   0  0  0  0  0  0  0  0  0  0  0  0  # atno 10167 bound_to 10162
  156.0440  130.4318  150.2193 H   0  0  0  0  0  0  0  0  0  0  0  0  # atno 10718 bound_to 10713
  153.0315  135.6439  154.1200 H   0  0  0  0  0  0  0  0  0  0  0  0  # atno 10763 bound_to 10752
  154.0922  135.2865  155.3271 H   0  0  0  0  0  0  0  0  0  0  0  0  # atno 10764 bound_to 10752
  154.6457  135.5444  153.7905 H   0  0  0  0  0  0  0  0  0  0  0  0  # atno 10765 bound_to 10752
  139.9024  134.9590  156.7114 H   0  0  0  0  0  0  0  0  0  0  0  0  # atno 11005 bound_to 11000
  145.6764  141.0203  143.1630 LP  0  0  0  0  0  0  0  0  0  0  0  0  # atno 17320 bound_to 7965
  144.7110  139.8370  143.7414 LP  0  0  0  0  0  0  0  0  0  0  0  0  # atno 17321 bound_to 7965
  140.1169  144.5408  150.6888 LP  0  0  0  0  0  0  0  0  0  0  0  0  # atno 17342 bound_to 10162
  140.6997  143.2426  151.4900 LP  0  0  0  0  0  0  0  0  0  0  0  0  # atno 17343 bound_to 10162
  157.0285  131.0000  151.3319 LP  0  0  0  0  0  0  0  0  0  0  0  0  # atno 17370 bound_to 10713
  157.5294  130.8049  149.7900 LP  0  0  0  0  0  0  0  0  0  0  0  0  # atno 17371 bound_to 10713
  140.7072  133.9254  155.8061 LP  0  0  0  0  0  0  0  0  0  0  0  0  # atno 17394 bound_to 11000
  141.0327  134.0733  157.3995 LP  0  0  0  0  0  0  0  0  0  0  0  0  # atno 17395 bound_to 11000

$$$$
