AV-unprocessed.smi:1602|AV-procd|sdf|6440|dock2
  -GOLD-   22720 7 83D 1   1.00000     0.00000
 Structure written by MMmdl.
 36 37  0  0  0  0  0  0  0  0  1 V2000
  150.2028  142.0256  156.9991 C   0  0  0  0  0  0  0  0  0  0  0  0
  151.5882  141.5284  157.4304 C   0  0  1  0  0  0  0  0  0  0  0  0
  151.8538  141.7735  158.9285 C   0  0  0  0  0  0  0  0  0  0  0  0
  151.8698  143.1850  159.2682 N   0  0  0  0  0  0  0  0  0  0  0  0
  151.8756  143.7661  160.5190 C   0  0  0  0  0  0  0  0  0  0  0  0
  151.9027  145.1192  160.3377 C   0  0  0  0  0  0  0  0  0  0  0  0
  151.9099  145.2701  158.9226 C   0  0  0  0  0  0  0  0  0  0  0  0
  151.8866  144.1106  158.2851 N   0  0  0  0  0  0  0  0  0  0  0  0
  151.7006  140.1004  157.1230 N   0  0  0  0  0  0  0  0  0  0  0  0
  151.7838  139.5839  155.4800 S   0  0  0  0  0  0  0  0  0  0  0  0
  150.7531  140.2993  154.7123 O   0  0  0  0  0  0  0  0  0  0  0  0
  153.1932  139.6133  155.0604 O   0  0  0  0  0  0  0  0  0  0  0  0
  151.2913  137.9363  155.6745 N   0  0  0  0  0  0  0  0  0  0  0  0
  150.9189  137.1889  154.4598 C   0  0  0  0  0  0  0  0  0  0  0  0
  150.2818  135.8362  154.8162 C   0  0  0  0  0  0  0  0  0  0  0  0
  151.1432  135.1012  155.6716 O   0  0  0  0  0  0  0  0  0  0  0  0
  151.3542  135.7789  156.9005 C   0  0  0  0  0  0  0  0  0  0  0  0
  152.0435  137.1298  156.6491 C   0  0  0  0  0  0  0  0  0  0  0  0
  150.0966  143.0952  157.1817 H   0  0  0  0  0  0  0  0  0  0  0  0
  149.4089  141.5140  157.5444 H   0  0  0  0  0  0  0  0  0  0  0  0
  150.0395  141.8561  155.9342 H   0  0  0  0  0  0  0  0  0  0  0  0
  152.3327  142.0717  156.8460 H   0  0  0  0  0  0  0  0  0  0  0  0
  151.0835  141.2892  159.5304 H   0  0  0  0  0  0  0  0  0  0  0  0
  152.8049  141.3305  159.2277 H   0  0  0  0  0  0  0  0  0  0  0  0
  151.8659  143.1752  161.4230 H   0  0  0  0  0  0  0  0  0  0  0  0
  151.9177  145.8847  161.0990 H   0  0  0  0  0  0  0  0  0  0  0  0
  151.9306  146.1815  158.3437 H   0  0  0  0  0  0  0  0  0  0  0  0
  152.3411  139.5946  157.7339 H   0  0  0  0  0  0  0  0  0  0  0  0
  150.2258  137.7737  153.8555 H   0  0  0  0  0  0  0  0  0  0  0  0
  151.8132  137.0315  153.8558 H   0  0  0  0  0  0  0  0  0  0  0  0
  149.3105  135.9788  155.2928 H   0  0  0  0  0  0  0  0  0  0  0  0
  150.1065  135.2563  153.9098 H   0  0  0  0  0  0  0  0  0  0  0  0
  150.4047  135.9193  157.4195 H   0  0  0  0  0  0  0  0  0  0  0  0
  151.9764  135.1568  157.5441 H   0  0  0  0  0  0  0  0  0  0  0  0
  153.0538  136.9717  156.2698 H   0  0  0  0  0  0  0  0  0  0  0  0
  152.1353  137.6762  157.5878 H   0  0  0  0  0  0  0  0  0  0  0  0
  1  2  1  0  0  0  0
  1 19  1  0  0  0  0
  1 20  1  0  0  0  0
  1 21  1  0  0  0  0
  2  3  1  0  0  0  0
  2  9  1  0  0  0  0
  2 22  1  0  0  0  0
  3  4  1  0  0  0  0
  3 23  1  0  0  0  0
  3 24  1  0  0  0  0
  4  8  1  0  0  0  0
  4  5  1  0  0  0  0
  5  6  2  0  0  0  0
  5 25  1  0  0  0  0
  6  7  1  0  0  0  0
  6 26  1  0  0  0  0
  7  8  2  0  0  0  0
  7 27  1  0  0  0  0
  9 10  1  0  0  0  0
  9 28  1  0  0  0  0
 10 11  2  0  0  0  0
 10 12  2  0  0  0  0
 10 13  1  0  0  0  0
 13 18  1  0  0  0  0
 13 14  1  0  0  0  0
 14 15  1  0  0  0  0
 14 29  1  0  0  0  0
 14 30  1  0  0  0  0
 15 16  1  0  0  0  0
 15 31  1  0  0  0  0
 15 32  1  0  0  0  0
 16 17  1  0  0  0  0
 17 18  1  0  0  0  0
 17 33  1  0  0  0  0
 17 34  1  0  0  0  0
 18 35  1  0  0  0  0
 18 36  1  0  0  0  0
M  END
> <s_m_source_file>
AV-unprocessed.smi

> <i_m_source_file_index>
1602

> <i_lp_mmshare_version>
43012

> <i_f3d_flags>
0

> <s_epik_input>
bjFbY0hdW2NIXVtjSF1uMVtDSDJdW0NAQEhdKFtDSDNdKVtOSF1TKD1PKSg9TylOMltDSDJdW0NIMl1PW0NIMl1bQ0gyXTI=

> <s_epik_cmdline>
J2VwaWtfcHl0aG9uJywgJy1waCcsICc3LjAnLCAnLXRuJywgJzgnLCAnLW1hJywgJzIwMCcsICctbWV0YWxfYmluZGluZycsICctaW1hZScsICc8aW5maWxlLm1hZT4nLCAnLW9tYWUnLCAnPG91dGZpbGUubWFlPic=

> <r_lp_tautomer_probability>
1

> <r_epik_Ionization_Penalty>
0.114248

> <r_epik_Ionization_Penalty_Charging>
0

> <r_epik_Ionization_Penalty_Neutral>
0.114248

> <r_epik_State_Penalty>
0.103909

> <r_epik_Charging_Adjusted_Penalty>
0.103909

> <i_epik_Tot_Q>
0

> <i_epik_Tot_abs_Q>
0

> <r_epik_Metal_State_Penalty>
0.436178

> <b_epik_Metal_Only>
0

> <s_lp_Force_Field>
OPLS_2005

> <r_lp_Energy>
8.02202

> <b_lp_Chiralities_Consistent>
1

> <s_lp_Variant>
AV-unprocessed.smi:1602-2

> <Gold.Version>
5.8.1

> <Gold.Id.Protein>
6NUR|6NUR_protein|mol2

> <Gold.PLP.Fitness>
42.1805

> <Gold.PLP.PLP>
-34.6600

> <Gold.PLP.part.hbond>
-3.8153

> <Gold.PLP.part.metal>
0.0000

> <Gold.PLP.part.buried>
-3.5484

> <Gold.PLP.part.nonpolar>
-27.2937

> <Gold.PLP.part.repulsive>
0.2520

> <Gold.PLP.ligand.clash>
0.0000

> <Gold.PLP.ligand.torsion>
0.9453

> <Gold.PLP.Chemscore.Hbond>
2.8664

> <Gold.PLP.Chemscore.CHOScore>
0.0000

> <Gold.PLP.Chemscore.Metal>
0.0000

> <Gold.Chemscore.Hbonds>
donor molecule, donor type, donor heavy atom, donor atom, acceptor molecule, acceptor atom, score
      P1  H  7989  7998       L1    11  1.00
      P1  H  7997  8010       L1    12  1.00
      P1  H 10752 10765       L1    16  0.74

> <Gold.PLP.Chemscore.Internal.Correction>
0.8119

> <Gold.Rescore>
     Score         DG    S(hbond)    S(metal)    S(lipo)     H(rot)  DE(clash)    DE(int)     intcor
     13.87     -16.29       1.96        0.00      79.37       1.97       0.03       2.40       ----

> <Gold.Chemscore.Fitness>
13.8699

> <Gold.Chemscore.DG>
-16.2946

> <Gold.Chemscore.ZeroCoef>
-5.4800

> <Gold.Chemscore.Hbond>
1.9641

> <Gold.Chemscore.Metal>
0.0000

> <Gold.Chemscore.Lipo>
79.3670

> <Gold.Chemscore.Internal_Hbond>
0.0000

> <Gold.Chemscore.DEClash>
0.0272

> <Gold.Chemscore.DEInternal>
2.3974

> <Gold.Chemscore.Rot>
1.9654

> <Gold.Chemscore.Internal.Correction>
   9.000000E+99

> <Gold.Chemscore.Hbonds>
donor molecule, donor type, donor heavy atom, donor atom, acceptor molecule, acceptor atom, score
      P1  H  7989  7998       L1    11  0.29
      P1  H  7997  8010       L1    12  0.99
      P1  H 10752 10765       L1    16  0.04

> <Gold.Chemscore.Hbond.Weighted>
-6.5601

> <Gold.Chemscore.Metal.Weighted>
-0.0000

> <Gold.Chemscore.Lipo.Weighted>
-9.2859

> <Gold.Chemscore.Internal_Hbond.Weighted>
0.0000

> <Gold.Chemscore.DEClash.Weighted>
0.0272

> <Gold.Chemscore.DEInternal.Weighted>
2.3974

> <Gold.Chemscore.Rot.Weighted>
5.0315

> <Gold.Chemscore.Internal.Correction.Weighted>
   9.000000E+99

> <Gold.Protein.RotatedTorsions>
[ 6907 6896 6895 6894 ] final   60.82 input  -60.11 | X-H torsion
[ 7974 7965 7964 7962 ] final   67.88 input  175.53 | X-H torsion
[ 8008 7997 7996 7995 ] final  103.13 input   59.86 | X-H torsion
[ 10167 10162 10161 10158 ] final  -27.44 input  -65.29 | X-H torsion
[ 10718 10713 10712 10709 ] final   46.52 input   66.30 | X-H torsion
[ 10763 10752 10751 10750 ] final -172.56 input  -60.55 | X-H torsion
[ 11005 11000 10999 10996 ] final -146.44 input  -57.11 | X-H torsion

> <Gold.Protein.ActiveResidues>
 VAL166  LYS551  ARG553  GLY616  TRP617  ASP618  TYR619  PRO620  LYS621  CYS622 
 ASP623  PHE694  ASN695  SER759  ASP760  ASP761  ALA762  ILE779  LEU786  VAL792 
 PHE793  MET794  SER795  GLU796  ALA797  LYS798  CYS799  TRP800  GLU811  SER814 

> <Gold.Protein.RotatedAtoms>
  152.4036  134.6245  160.0059 H   0  0  0  0  0  0  0  0  0  0  0  0  # atno 6907 bound_to 6896
  151.6443  133.3318  159.3145 H   0  0  0  0  0  0  0  0  0  0  0  0  # atno 6908 bound_to 6896
  150.7933  134.7016  159.6598 H   0  0  0  0  0  0  0  0  0  0  0  0  # atno 6909 bound_to 6896
  145.8093  139.3024  143.1108 H   0  0  0  0  0  0  0  0  0  0  0  0  # atno 7974 bound_to 7965
  156.1456  140.3170  155.8564 H   0  0  0  0  0  0  0  0  0  0  0  0  # atno 8008 bound_to 7997
  155.4071  140.0503  157.3051 H   0  0  0  0  0  0  0  0  0  0  0  0  # atno 8009 bound_to 7997
  154.5013  140.2130  155.9353 H   0  0  0  0  0  0  0  0  0  0  0  0  # atno 8010 bound_to 7997
  140.7277  143.4093  151.1133 H   0  0  0  0  0  0  0  0  0  0  0  0  # atno 10167 bound_to 10162
  157.4489  130.8126  149.7768 H   0  0  0  0  0  0  0  0  0  0  0  0  # atno 10718 bound_to 10713
  154.6178  135.2872  155.0360 H   0  0  0  0  0  0  0  0  0  0  0  0  # atno 10763 bound_to 10752
  154.1566  135.6495  153.4979 H   0  0  0  0  0  0  0  0  0  0  0  0  # atno 10764 bound_to 10752
  153.0223  135.5368  154.6957 H   0  0  0  0  0  0  0  0  0  0  0  0  # atno 10765 bound_to 10752
  140.7820  134.3068  157.5042 H   0  0  0  0  0  0  0  0  0  0  0  0  # atno 11005 bound_to 11000
  145.9794  140.8695  143.0122 LP  0  0  0  0  0  0  0  0  0  0  0  0  # atno 17320 bound_to 7965
  144.6759  140.2059  143.7382 LP  0  0  0  0  0  0  0  0  0  0  0  0  # atno 17321 bound_to 7965
  139.7724  143.8475  152.3123 LP  0  0  0  0  0  0  0  0  0  0  0  0  # atno 17342 bound_to 10162
  139.8398  144.7215  150.9345 LP  0  0  0  0  0  0  0  0  0  0  0  0  # atno 17343 bound_to 10162
  155.9979  130.3897  150.2723 LP  0  0  0  0  0  0  0  0  0  0  0  0  # atno 17370 bound_to 10713
  157.0893  131.0165  151.3127 LP  0  0  0  0  0  0  0  0  0  0  0  0  # atno 17371 bound_to 10713
  139.8741  134.9324  156.3553 LP  0  0  0  0  0  0  0  0  0  0  0  0  # atno 17394 bound_to 11000
  140.9473  133.7474  156.0225 LP  0  0  0  0  0  0  0  0  0  0  0  0  # atno 17395 bound_to 11000

$$$$
