AV-unprocessed.smi:3009|AV-procd|sdf|11454|dock2
  -GOLD-   2272016383D 1   1.00000     0.00000
 Structure written by MMmdl.
 43 44  0  0  0  0  0  0  0  0  1 V2000
  151.6731  139.3564  157.5699 C   0  0  0  0  0  0  0  0  0  0  0  0
  151.4085  138.2901  156.4944 C   0  0  0  0  0  0  0  0  0  0  0  0
  152.2938  137.0577  156.7288 C   0  0  0  0  0  0  0  0  0  0  0  0
  151.6266  138.8457  155.0704 C   0  0  0  0  0  0  0  0  0  0  0  0
  150.5537  139.6905  154.5433 N   0  0  0  0  0  0  0  0  0  0  0  0
  150.3221  140.8839  155.3545 C   0  0  0  0  0  0  0  0  0  0  0  0
  149.1768  141.7444  154.7941 C   0  0  0  0  0  0  0  0  0  0  0  0
  147.9924  140.9623  154.6866 O   0  0  0  0  0  0  0  0  0  0  0  0
  148.1593  139.8060  153.8702 C   0  0  2  0  0  0  0  0  0  0  0  0
  146.8157  139.0598  153.7607 C   0  0  0  0  0  0  0  0  0  0  0  0
  146.8996  137.8613  152.9303 N   0  0  0  0  0  0  0  0  0  0  0  0
  145.8505  137.1809  152.4481 C   0  0  0  0  0  0  0  0  0  0  0  0
  144.6788  137.5054  152.6419 O   0  0  0  0  0  0  0  0  0  0  0  0
  146.2478  136.1135  151.7363 N   0  0  0  0  0  0  0  0  0  0  0  0
  145.4265  135.1664  151.0737 C   0  0  0  0  0  0  0  0  0  0  0  0
  145.7842  133.8117  150.8345 C   0  0  0  0  0  0  0  0  0  0  0  0
  144.8219  133.1632  150.1941 N   0  0  0  0  0  0  0  0  0  0  0  0
  143.8532  134.0909  150.0225 N   0  0  0  0  0  0  0  0  0  0  0  0
  144.1771  135.3246  150.5426 C   0  0  0  0  0  0  0  0  0  0  0  0
  149.3055  138.9428  154.4401 C   0  0  0  0  0  0  0  0  0  0  0  0
  142.9865  133.8697  149.5531 H   0  0  0  0  0  0  0  0  0  0  0  0
  152.6968  139.7281  157.5171 H   0  0  0  0  0  0  0  0  0  0  0  0
  151.5165  138.9517  158.5701 H   0  0  0  0  0  0  0  0  0  0  0  0
  151.0031  140.2091  157.4565 H   0  0  0  0  0  0  0  0  0  0  0  0
  150.3769  137.9554  156.5977 H   0  0  0  0  0  0  0  0  0  0  0  0
  153.3524  137.3083  156.6520 H   0  0  0  0  0  0  0  0  0  0  0  0
  152.0825  136.2778  155.9968 H   0  0  0  0  0  0  0  0  0  0  0  0
  152.1232  136.6327  157.7184 H   0  0  0  0  0  0  0  0  0  0  0  0
  152.5554  139.4179  155.0774 H   0  0  0  0  0  0  0  0  0  0  0  0
  151.7983  138.0159  154.3828 H   0  0  0  0  0  0  0  0  0  0  0  0
  150.0886  140.5957  156.3805 H   0  0  0  0  0  0  0  0  0  0  0  0
  151.2220  141.4959  155.3973 H   0  0  0  0  0  0  0  0  0  0  0  0
  148.9840  142.5933  155.4502 H   0  0  0  0  0  0  0  0  0  0  0  0
  149.4423  142.1490  153.8163 H   0  0  0  0  0  0  0  0  0  0  0  0
  148.4349  140.1395  152.8682 H   0  0  0  0  0  0  0  0  0  0  0  0
  146.4376  138.8152  154.7546 H   0  0  0  0  0  0  0  0  0  0  0  0
  146.0735  139.7191  153.3102 H   0  0  0  0  0  0  0  0  0  0  0  0
  147.8256  137.5206  152.7172 H   0  0  0  0  0  0  0  0  0  0  0  0
  147.2429  135.9642  151.6573 H   0  0  0  0  0  0  0  0  0  0  0  0
  146.6919  133.2886  151.0976 H   0  0  0  0  0  0  0  0  0  0  0  0
  143.5080  136.1703  150.4851 H   0  0  0  0  0  0  0  0  0  0  0  0
  149.4504  138.0719  153.7996 H   0  0  0  0  0  0  0  0  0  0  0  0
  149.0283  138.5621  155.4243 H   0  0  0  0  0  0  0  0  0  0  0  0
  1  2  1  0  0  0  0
  1 22  1  0  0  0  0
  1 23  1  0  0  0  0
  1 24  1  0  0  0  0
  2  3  1  0  0  0  0
  2  4  1  0  0  0  0
  2 25  1  0  0  0  0
  3 26  1  0  0  0  0
  3 27  1  0  0  0  0
  3 28  1  0  0  0  0
  4  5  1  0  0  0  0
  4 29  1  0  0  0  0
  4 30  1  0  0  0  0
  5 20  1  0  0  0  0
  5  6  1  0  0  0  0
  6  7  1  0  0  0  0
  6 31  1  0  0  0  0
  6 32  1  0  0  0  0
  7  8  1  0  0  0  0
  7 33  1  0  0  0  0
  7 34  1  0  0  0  0
  8  9  1  0  0  0  0
  9 10  1  0  0  0  0
  9 20  1  0  0  0  0
  9 35  1  0  0  0  0
 10 11  1  0  0  0  0
 10 36  1  0  0  0  0
 10 37  1  0  0  0  0
 11 12  1  0  0  0  0
 11 38  1  0  0  0  0
 12 13  2  0  0  0  0
 12 14  1  0  0  0  0
 14 15  1  0  0  0  0
 14 39  1  0  0  0  0
 15 19  2  0  0  0  0
 15 16  1  0  0  0  0
 16 17  2  0  0  0  0
 16 40  1  0  0  0  0
 17 18  1  0  0  0  0
 18 21  1  0  0  0  0
 18 19  1  0  0  0  0
 19 41  1  0  0  0  0
 20 42  1  0  0  0  0
 20 43  1  0  0  0  0
M  END
> <s_m_source_file>
AV-unprocessed.smi

> <i_m_source_file_index>
3009

> <i_lp_mmshare_version>
43012

> <i_f3d_flags>
0

> <s_epik_input>
W0NIM11bQ0hdKFtDSDNdKVtDSDJdTjFbQ0gyXVtDSDJdT1tDQEhdKFtDSDJdMSlbQ0gyXVtOSF1DKD1PKVtOSF1jMltjSF1uW25IXVtjSF0y

> <s_epik_cmdline>
J2VwaWtfcHl0aG9uJywgJy1waCcsICc3LjAnLCAnLXRuJywgJzgnLCAnLW1hJywgJzIwMCcsICctbWV0YWxfYmluZGluZycsICctaW1hZScsICc8aW5maWxlLm1hZT4nLCAnLW9tYWUnLCAnPG91dGZpbGUubWFlPic=

> <r_lp_tautomer_probability>
0.5

> <r_epik_Ionization_Penalty>
1.11801

> <r_epik_Ionization_Penalty_Charging>
0

> <r_epik_Ionization_Penalty_Neutral>
1.11801

> <r_epik_State_Penalty>
1.17654

> <r_epik_Charging_Adjusted_Penalty>
1.17654

> <i_epik_Tot_Q>
0

> <i_epik_Tot_abs_Q>
0

> <r_epik_Metal_State_Penalty>
1.17654

> <b_epik_Metal_Only>
0

> <s_lp_Force_Field>
OPLS_2005

> <r_lp_Energy>
28.7191

> <b_lp_Chiralities_Consistent>
1

> <s_lp_Variant>
AV-unprocessed.smi:3009-6

> <Gold.Version>
5.8.1

> <Gold.Id.Protein>
6NUR|6NUR_protein|mol2

> <Gold.PLP.Fitness>
41.0821

> <Gold.PLP.PLP>
-29.7334

> <Gold.PLP.part.hbond>
-4.0000

> <Gold.PLP.part.metal>
0.0000

> <Gold.PLP.part.buried>
-3.6108

> <Gold.PLP.part.nonpolar>
-24.0535

> <Gold.PLP.part.repulsive>
0.8109

> <Gold.PLP.ligand.clash>
0.0000

> <Gold.PLP.ligand.torsion>
0.4243

> <Gold.PLP.Chemscore.Hbond>
3.0410

> <Gold.PLP.Chemscore.CHOScore>
1.0000

> <Gold.PLP.Chemscore.Metal>
0.0000

> <Gold.Chemscore.Hbonds>
donor molecule, donor type, donor heavy atom, donor atom, acceptor molecule, acceptor atom, score
      L1  H    11    38       P1  7948  0.99
      L1  H    14    39       P1  7948  1.00
      L1  H    18    21       P1 10186  0.75
      P1  H  7989  7998       L1     5  0.18
      L1  C    19    41       P1 10171  1.00

> <Gold.PLP.Chemscore.Internal.Correction>
0.0742

> <Gold.Rescore>
     Score         DG    S(hbond)    S(metal)    S(lipo)     H(rot)  DE(clash)    DE(int)     intcor
     18.14     -18.81       2.86        0.00      70.61       1.76       0.05       0.61       ----

> <Gold.Chemscore.Fitness>
18.1437

> <Gold.Chemscore.DG>
-18.8084

> <Gold.Chemscore.ZeroCoef>
-5.4800

> <Gold.Chemscore.Hbond>
2.8635

> <Gold.Chemscore.Metal>
0.0000

> <Gold.Chemscore.Lipo>
70.6120

> <Gold.Chemscore.Internal_Hbond>
0.0000

> <Gold.Chemscore.DEClash>
0.0520

> <Gold.Chemscore.DEInternal>
0.6127

> <Gold.Chemscore.Rot>
1.7568

> <Gold.Chemscore.Internal.Correction>
   9.000000E+99

> <Gold.Chemscore.Hbonds>
donor molecule, donor type, donor heavy atom, donor atom, acceptor molecule, acceptor atom, score
      L1  H    11    38       P1  7948  0.94
      L1  H    14    39       P1  7948  1.00
      L1  H    18    21       P1 10186  0.72

> <Gold.Chemscore.Hbond.Weighted>
-9.5642

> <Gold.Chemscore.Metal.Weighted>
-0.0000

> <Gold.Chemscore.Lipo.Weighted>
-8.2616

> <Gold.Chemscore.Internal_Hbond.Weighted>
0.0000

> <Gold.Chemscore.DEClash.Weighted>
0.0520

> <Gold.Chemscore.DEInternal.Weighted>
0.6127

> <Gold.Chemscore.Rot.Weighted>
4.4974

> <Gold.Chemscore.Internal.Correction.Weighted>
   9.000000E+99

> <Gold.Protein.RotatedTorsions>
[ 6907 6896 6895 6894 ] final  -51.31 input  -60.11 | X-H torsion
[ 7974 7965 7964 7962 ] final  101.95 input  175.53 | X-H torsion
[ 8008 7997 7996 7995 ] final -117.12 input   59.86 | X-H torsion
[ 10167 10162 10161 10158 ] final  -40.63 input  -65.29 | X-H torsion
[ 10718 10713 10712 10709 ] final -148.80 input   66.30 | X-H torsion
[ 10763 10752 10751 10750 ] final   25.56 input  -60.55 | X-H torsion
[ 11005 11000 10999 10996 ] final  -45.44 input  -57.11 | X-H torsion

> <Gold.Protein.ActiveResidues>
 VAL166  LYS551  ARG553  GLY616  TRP617  ASP618  TYR619  PRO620  LYS621  CYS622 
 ASP623  PHE694  ASN695  SER759  ASP760  ASP761  ALA762  ILE779  LEU786  VAL792 
 PHE793  MET794  SER795  GLU796  ALA797  LYS798  CYS799  TRP800  GLU811  SER814 

> <Gold.Protein.RotatedAtoms>
  150.8623  134.7978  159.7092 H   0  0  0  0  0  0  0  0  0  0  0  0  # atno 6907 bound_to 6896
  152.4656  134.5080  159.9755 H   0  0  0  0  0  0  0  0  0  0  0  0  # atno 6908 bound_to 6896
  151.5181  133.3433  159.2932 H   0  0  0  0  0  0  0  0  0  0  0  0  # atno 6909 bound_to 6896
  145.3655  139.2409  143.3483 H   0  0  0  0  0  0  0  0  0  0  0  0  # atno 7974 bound_to 7965
  155.0786  140.0394  157.2632 H   0  0  0  0  0  0  0  0  0  0  0  0  # atno 8008 bound_to 7997
  154.6925  140.2656  155.6774 H   0  0  0  0  0  0  0  0  0  0  0  0  # atno 8009 bound_to 7997
  156.2733  140.2756  156.1508 H   0  0  0  0  0  0  0  0  0  0  0  0  # atno 8010 bound_to 7997
  140.7028  143.3142  151.2951 H   0  0  0  0  0  0  0  0  0  0  0  0  # atno 10167 bound_to 10162
  156.4249  130.8047  151.2272 H   0  0  0  0  0  0  0  0  0  0  0  0  # atno 10718 bound_to 10713
  153.0683  135.6580  154.0305 H   0  0  0  0  0  0  0  0  0  0  0  0  # atno 10763 bound_to 10752
  153.9956  135.2942  155.3409 H   0  0  0  0  0  0  0  0  0  0  0  0  # atno 10764 bound_to 10752
  154.7049  135.5229  153.8649 H   0  0  0  0  0  0  0  0  0  0  0  0  # atno 10765 bound_to 10752
  141.0515  133.6741  156.3013 H   0  0  0  0  0  0  0  0  0  0  0  0  # atno 11005 bound_to 11000
  146.2908  140.4297  142.8740 LP  0  0  0  0  0  0  0  0  0  0  0  0  # atno 17320 bound_to 7965
  144.8615  140.7145  143.6104 LP  0  0  0  0  0  0  0  0  0  0  0  0  # atno 17321 bound_to 7965
  139.6575  144.0249  152.2670 LP  0  0  0  0  0  0  0  0  0  0  0  0  # atno 17342 bound_to 10162
  139.9806  144.6431  150.7904 LP  0  0  0  0  0  0  0  0  0  0  0  0  # atno 17343 bound_to 10162
  157.7508  131.0216  150.3758 LP  0  0  0  0  0  0  0  0  0  0  0  0  # atno 17370 bound_to 10713
  156.4083  130.3929  149.6909 LP  0  0  0  0  0  0  0  0  0  0  0  0  # atno 17371 bound_to 10713
  140.6045  134.5521  157.5523 LP  0  0  0  0  0  0  0  0  0  0  0  0  # atno 17394 bound_to 11000
  139.9355  134.7884  156.0816 LP  0  0  0  0  0  0  0  0  0  0  0  0  # atno 17395 bound_to 11000

$$$$
