AV-unprocessed.smi:609|AV-procd|sdf|3052|dock2
  -GOLD-   2262023573D 1   1.00000     0.00000
 Structure written by MMmdl.
 43 45  0  0  0  0  0  0  0  0  2 V2000
  152.6211  145.3648  160.0378 C   0  0  0  0  0  0  0  0  0  0  0  0
  152.2429  144.0378  159.4020 C   0  0  0  0  0  0  0  0  0  0  0  0
  151.3943  144.0483  158.2722 C   0  0  0  0  0  0  0  0  0  0  0  0
  151.0672  142.8187  157.7128 C   0  0  0  0  0  0  0  0  0  0  0  0
  150.2696  142.4986  156.6120 N   0  3  0  0  0  0  0  0  0  0  0  0
  150.2477  141.1473  156.4446 C   0  0  0  0  0  0  0  0  0  0  0  0
  151.0183  140.5997  157.4228 N   0  0  0  0  0  0  0  0  0  0  0  0
  151.3280  139.1879  157.6898 C   0  0  0  0  0  0  0  0  0  0  0  0
  150.0690  138.3016  157.7441 C   0  0  1  0  0  0  0  0  0  0  0  0
  150.2399  137.1651  156.9194 O   0  0  0  0  0  0  0  0  0  0  0  0
  149.7551  137.8383  159.1790 C   0  0  0  0  0  0  0  0  0  0  0  0
  148.4749  136.5439  159.2405 S   0  0  0  0  0  0  0  0  0  0  0  0
  148.2629  136.3922  160.9894 C   0  0  0  0  0  0  0  0  0  0  0  0
  148.2582  137.4080  161.8492 N   0  0  0  0  0  0  0  0  0  0  0  0
  148.0676  136.8253  163.0968 C   0  0  0  0  0  0  0  0  0  0  0  0
  147.9654  135.4636  162.9502 C   0  0  0  0  0  0  0  0  0  0  0  0
  148.0953  135.2008  161.5931 N   0  0  0  0  0  0  0  0  0  0  0  0
  148.0521  133.8928  160.9692 C   0  0  0  0  0  0  0  0  0  0  0  0
  151.5510  141.6050  158.2388 C   0  0  0  0  0  0  0  0  0  0  0  0
  152.3880  141.5774  159.3518 C   0  0  0  0  0  0  0  0  0  0  0  0
  152.7333  142.8174  159.9350 C   0  0  0  0  0  0  0  0  0  0  0  0
  153.6466  142.8170  161.1489 C   0  0  0  0  0  0  0  0  0  0  0  0
  152.2109  146.2065  159.4786 H   0  0  0  0  0  0  0  0  0  0  0  0
  153.7044  145.4828  160.0668 H   0  0  0  0  0  0  0  0  0  0  0  0
  152.2383  145.4220  161.0570 H   0  0  0  0  0  0  0  0  0  0  0  0
  151.0173  144.9733  157.8608 H   0  0  0  0  0  0  0  0  0  0  0  0
  149.7163  140.6075  155.6740 H   0  0  0  0  0  0  0  0  0  0  0  0
  152.0411  138.8259  156.9487 H   0  0  0  0  0  0  0  0  0  0  0  0
  151.8430  139.1536  158.6506 H   0  0  0  0  0  0  0  0  0  0  0  0
  149.2289  138.8725  157.3486 H   0  0  0  0  0  0  0  0  0  0  0  0
  149.4583  136.6360  156.9744 H   0  0  0  0  0  0  0  0  0  0  0  0
  150.6585  137.4471  159.6484 H   0  0  0  0  0  0  0  0  0  0  0  0
  149.4358  138.6799  159.7940 H   0  0  0  0  0  0  0  0  0  0  0  0
  148.0196  137.4248  163.9939 H   0  0  0  0  0  0  0  0  0  0  0  0
  147.8163  134.6812  163.6798 H   0  0  0  0  0  0  0  0  0  0  0  0
  147.8943  133.1208  161.7230 H   0  0  0  0  0  0  0  0  0  0  0  0
  148.9938  133.6975  160.4556 H   0  0  0  0  0  0  0  0  0  0  0  0
  147.2348  133.8546  160.2486 H   0  0  0  0  0  0  0  0  0  0  0  0
  152.7674  140.6495  159.7536 H   0  0  0  0  0  0  0  0  0  0  0  0
  153.9017  141.8024  161.4562 H   0  0  0  0  0  0  0  0  0  0  0  0
  153.1627  143.3085  161.9933 H   0  0  0  0  0  0  0  0  0  0  0  0
  154.5763  143.3417  160.9277 H   0  0  0  0  0  0  0  0  0  0  0  0
  149.7770  143.1518  156.0166 H   0  0  0  0  0  0  0  0  0  0  0  0
  1  2  1  0  0  0  0
  1 23  1  0  0  0  0
  1 24  1  0  0  0  0
  1 25  1  0  0  0  0
  2 21  1  0  0  0  0
  2  3  2  0  0  0  0
  3  4  1  0  0  0  0
  3 26  1  0  0  0  0
  4 19  2  0  0  0  0
  4  5  1  0  0  0  0
  5  6  2  0  0  0  0
  5 43  1  0  0  0  0
  6  7  1  0  0  0  0
  6 27  1  0  0  0  0
  7  8  1  0  0  0  0
  7 19  1  0  0  0  0
  8  9  1  0  0  0  0
  8 28  1  0  0  0  0
  8 29  1  0  0  0  0
  9 10  1  0  0  0  0
  9 11  1  0  0  0  0
  9 30  1  0  0  0  0
 10 31  1  0  0  0  0
 11 12  1  0  0  0  0
 11 32  1  0  0  0  0
 11 33  1  0  0  0  0
 12 13  1  0  0  0  0
 13 17  1  0  0  0  0
 13 14  2  0  0  0  0
 14 15  1  0  0  0  0
 15 16  2  0  0  0  0
 15 34  1  0  0  0  0
 16 17  1  0  0  0  0
 16 35  1  0  0  0  0
 17 18  1  0  0  0  0
 18 36  1  0  0  0  0
 18 37  1  0  0  0  0
 18 38  1  0  0  0  0
 19 20  1  0  0  0  0
 20 21  2  0  0  0  0
 20 39  1  0  0  0  0
 21 22  1  0  0  0  0
 22 40  1  0  0  0  0
 22 41  1  0  0  0  0
 22 42  1  0  0  0  0
M  CHG  1   5   1
M  END
> <s_m_source_file>
AV-unprocessed.smi

> <i_m_source_file_index>
609

> <i_lp_mmshare_version>
43012

> <i_f3d_flags>
0

> <s_epik_input>
W0NIM11jKFtjSF0xKWMoW0NIM10pW2NIXWMoYzEyKW4oW2NIXW4yKVtDSDJdW0NASF0oW09IXSlbQ0gyXVNjM25bY0hdW2NIXW4zW0NIM10=

> <s_epik_cmdline>
J2VwaWtfcHl0aG9uJywgJy1waCcsICc3LjAnLCAnLXRuJywgJzgnLCAnLW1hJywgJzIwMCcsICctbWV0YWxfYmluZGluZycsICctaW1hZScsICc8aW5maWxlLm1hZT4nLCAnLW9tYWUnLCAnPG91dGZpbGUubWFlPic=

> <r_epik_Ionization_Penalty>
2.09683

> <r_epik_Ionization_Penalty_Charging>
2.09682

> <r_epik_Ionization_Penalty_Neutral>
2.49751e-06

> <r_epik_State_Penalty>
2.21514

> <r_epik_Charging_Adjusted_Penalty>
4.31197

> <i_epik_Tot_Q>
1

> <i_epik_Tot_abs_Q>
1

> <r_epik_Metal_State_Penalty>
1.52634

> <b_epik_Metal_Only>
0

> <s_lp_Force_Field>
OPLS_2005

> <r_lp_Energy>
12.6573

> <b_lp_Chiralities_Consistent>
1

> <s_lp_Variant>
AV-unprocessed.smi:609-8

> <Gold.Version>
5.8.1

> <Gold.Id.Protein>
6NUR|6NUR_protein|mol2

> <Gold.PLP.Fitness>
59.3636

> <Gold.PLP.PLP>
-50.2717

> <Gold.PLP.part.hbond>
-3.0000

> <Gold.PLP.part.metal>
0.0000

> <Gold.PLP.part.buried>
-6.5682

> <Gold.PLP.part.nonpolar>
-40.3171

> <Gold.PLP.part.repulsive>
0.0632

> <Gold.PLP.ligand.clash>
0.0000

> <Gold.PLP.ligand.torsion>
1.1433

> <Gold.PLP.Chemscore.Hbond>
3.7680

> <Gold.PLP.Chemscore.CHOScore>
0.0000

> <Gold.PLP.Chemscore.Metal>
0.0000

> <Gold.Chemscore.Hbonds>
donor molecule, donor type, donor heavy atom, donor atom, acceptor molecule, acceptor atom, score
      L1  H     5    43       P1  8028  2.00
      P1  H  6931  6943       L1    14  0.03
      P1  H  6934  6947       L1    14  0.30

> <Gold.PLP.Chemscore.Internal.Correction>
0.0744

> <Gold.Rescore>
     Score         DG    S(hbond)    S(metal)    S(lipo)     H(rot)  DE(clash)    DE(int)     intcor
     19.27     -20.65       2.40        0.00     115.24       2.48       0.05       1.33       ----

> <Gold.Chemscore.Fitness>
19.2716

> <Gold.Chemscore.DG>
-20.6464

> <Gold.Chemscore.ZeroCoef>
-5.4800

> <Gold.Chemscore.Hbond>
2.4039

> <Gold.Chemscore.Metal>
0.0000

> <Gold.Chemscore.Lipo>
115.2407

> <Gold.Chemscore.Internal_Hbond>
0.0000

> <Gold.Chemscore.DEClash>
0.0456

> <Gold.Chemscore.DEInternal>
1.3292

> <Gold.Chemscore.Rot>
2.4789

> <Gold.Chemscore.Internal.Correction>
   9.000000E+99

> <Gold.Chemscore.Hbonds>
donor molecule, donor type, donor heavy atom, donor atom, acceptor molecule, acceptor atom, score
      L1  H     5    43       P1  8028  0.98
      P1  H  6931  6943       L1    14  0.06
      P1  H  6934  6947       L1    14  0.20

> <Gold.Chemscore.Hbond.Weighted>
-8.0291

> <Gold.Chemscore.Metal.Weighted>
-0.0000

> <Gold.Chemscore.Lipo.Weighted>
-13.4832

> <Gold.Chemscore.Internal_Hbond.Weighted>
0.0000

> <Gold.Chemscore.DEClash.Weighted>
0.0456

> <Gold.Chemscore.DEInternal.Weighted>
1.3292

> <Gold.Chemscore.Rot.Weighted>
6.3459

> <Gold.Chemscore.Internal.Correction.Weighted>
   9.000000E+99

> <Gold.Protein.RotatedTorsions>
[ 6907 6896 6895 6894 ] final   85.61 input  -60.11 | X-H torsion
[ 7974 7965 7964 7962 ] final -114.95 input  175.53 | X-H torsion
[ 8008 7997 7996 7995 ] final  -18.88 input   59.86 | X-H torsion
[ 10167 10162 10161 10158 ] final  157.86 input  -65.29 | X-H torsion
[ 10718 10713 10712 10709 ] final   47.56 input   66.30 | X-H torsion
[ 10763 10752 10751 10750 ] final  -74.72 input  -60.55 | X-H torsion
[ 11005 11000 10999 10996 ] final   39.01 input  -57.11 | X-H torsion

> <Gold.Protein.ActiveResidues>
 VAL166  LYS551  ARG553  GLY616  TRP617  ASP618  TYR619  PRO620  LYS621  CYS622 
 ASP623  PHE694  ASN695  SER759  ASP760  ASP761  ALA762  ILE779  LEU786  VAL792 
 PHE793  MET794  SER795  GLU796  ALA797  LYS798  CYS799  TRP800  GLU811  SER814 

> <Gold.Protein.RotatedAtoms>
  152.5378  134.2559  159.8916 H   0  0  0  0  0  0  0  0  0  0  0  0  # atno 6907 bound_to 6896
  151.2521  133.4338  159.2619 H   0  0  0  0  0  0  0  0  0  0  0  0  # atno 6908 bound_to 6896
  151.0530  134.9700  159.8277 H   0  0  0  0  0  0  0  0  0  0  0  0  # atno 6909 bound_to 6896
  145.1142  140.8630  143.3852 H   0  0  0  0  0  0  0  0  0  0  0  0  # atno 7974 bound_to 7965
  154.4875  140.2104  155.9622 H   0  0  0  0  0  0  0  0  0  0  0  0  # atno 8008 bound_to 7997
  156.1258  140.3205  155.8243 H   0  0  0  0  0  0  0  0  0  0  0  0  # atno 8009 bound_to 7997
  155.4387  140.0508  157.3003 H   0  0  0  0  0  0  0  0  0  0  0  0  # atno 8010 bound_to 7997
  139.4824  144.4878  151.8352 H   0  0  0  0  0  0  0  0  0  0  0  0  # atno 10167 bound_to 10162
  157.4597  130.8189  149.7874 H   0  0  0  0  0  0  0  0  0  0  0  0  # atno 10718 bound_to 10713
  154.4769  135.5855  153.6361 H   0  0  0  0  0  0  0  0  0  0  0  0  # atno 10763 bound_to 10752
  152.9842  135.6080  154.3296 H   0  0  0  0  0  0  0  0  0  0  0  0  # atno 10764 bound_to 10752
  154.3183  135.2844  155.2511 H   0  0  0  0  0  0  0  0  0  0  0  0  # atno 10765 bound_to 10752
  140.2070  134.3801  155.8067 H   0  0  0  0  0  0  0  0  0  0  0  0  # atno 11005 bound_to 11000
  145.0813  139.2958  143.5782 LP  0  0  0  0  0  0  0  0  0  0  0  0  # atno 17320 bound_to 7965
  146.3525  140.0320  142.8649 LP  0  0  0  0  0  0  0  0  0  0  0  0  # atno 17321 bound_to 7965
  140.4359  144.2052  150.5889 LP  0  0  0  0  0  0  0  0  0  0  0  0  # atno 17342 bound_to 10162
  140.4732  143.2405  151.9060 LP  0  0  0  0  0  0  0  0  0  0  0  0  # atno 17343 bound_to 10162
  156.0023  130.3873  150.2559 LP  0  0  0  0  0  0  0  0  0  0  0  0  # atno 17370 bound_to 10713
  157.0736  131.0123  151.3181 LP  0  0  0  0  0  0  0  0  0  0  0  0  # atno 17371 bound_to 10713
  141.2227  133.7123  156.8354 LP  0  0  0  0  0  0  0  0  0  0  0  0  # atno 17394 bound_to 11000
  140.1992  134.8909  157.3149 LP  0  0  0  0  0  0  0  0  0  0  0  0  # atno 17395 bound_to 11000

$$$$
