AV-unprocessed.smi:273|AV-procd|sdf|2055|dock1
  -GOLD-   2262021293D 1   1.00000     0.00000
 Structure written by MMmdl.
 59 62  0  0  0  0  0  0  0  0  1 V2000
  147.8319  130.1617  153.1428 C   0  0  0  0  0  0  0  0  0  0  0  0
  147.3675  131.6194  153.0260 C   0  0  0  0  0  0  0  0  0  0  0  0
  148.3885  132.5442  153.5029 N   0  0  0  0  0  0  0  0  0  0  0  0
  148.1476  133.7383  154.0660 C   0  0  0  0  0  0  0  0  0  0  0  0
  147.0141  134.1910  154.2296 O   0  0  0  0  0  0  0  0  0  0  0  0
  149.3750  134.5394  154.5185 C   0  0  0  0  0  0  0  0  0  0  0  0
  150.1491  133.7954  155.6269 C   0  0  0  0  0  0  0  0  0  0  0  0
  151.3557  134.6198  156.1042 C   0  0  0  0  0  0  0  0  0  0  0  0
  150.9382  135.9564  156.5159 N   0  0  0  0  0  0  0  0  0  0  0  0
  151.9107  136.6288  157.1678 C   0  0  0  0  0  0  0  0  0  0  0  0
  153.1507  136.0810  157.1563 N   0  0  0  0  0  0  0  0  0  0  0  0
  154.1621  136.7025  157.7702 C   0  0  0  0  0  0  0  0  0  0  0  0
  154.1517  137.8609  158.4334 N   0  0  0  0  0  0  0  0  0  0  0  0
  152.9075  138.4202  158.4346 C   0  0  0  0  0  0  0  0  0  0  0  0
  151.7379  137.8767  157.8318 C   0  0  0  0  0  0  0  0  0  0  0  0
  150.6619  138.7337  158.0318 N   0  0  0  0  0  0  0  0  0  0  0  0
  151.1633  139.7209  158.7223 C   0  0  0  0  0  0  0  0  0  0  0  0
  152.5047  139.6125  159.0105 N   0  0  0  0  0  0  0  0  0  0  0  0
  153.3101  140.5694  159.7505 C   0  0  0  0  0  0  0  0  0  0  0  0
  152.5266  141.8398  160.1667 C   0  0  1  0  0  0  0  0  0  0  0  0
  152.9269  142.2966  161.5929 C   0  0  0  0  0  0  0  0  0  0  0  0
  151.7983  142.6126  162.3803 O   0  0  0  0  0  0  0  0  0  0  0  0
  152.7220  142.9629  159.1107 C   0  0  2  0  0  0  0  0  0  0  0  0
  152.3654  144.3681  159.5661 C   0  0  0  0  0  0  0  0  0  0  0  0
  152.2105  145.1118  158.2451 C   0  0  0  0  0  0  0  0  0  0  0  0
  151.7057  144.1524  157.3249 O   0  0  0  0  0  0  0  0  0  0  0  0
  151.8195  142.8443  157.8758 C   0  0  0  0  0  0  0  0  0  0  0  0
  150.2101  136.7197  155.5051 C   0  0  0  0  0  0  0  0  0  0  0  0
  148.9743  135.9406  155.0260 C   0  0  0  0  0  0  0  0  0  0  0  0
  147.0767  129.4823  152.7477 H   0  0  0  0  0  0  0  0  0  0  0  0
  148.0148  129.8848  154.1817 H   0  0  0  0  0  0  0  0  0  0  0  0
  148.7535  129.9953  152.5843 H   0  0  0  0  0  0  0  0  0  0  0  0
  147.1557  131.8555  151.9829 H   0  0  0  0  0  0  0  0  0  0  0  0
  146.4351  131.7674  153.5733 H   0  0  0  0  0  0  0  0  0  0  0  0
  149.3499  132.2504  153.4079 H   0  0  0  0  0  0  0  0  0  0  0  0
  150.0415  134.6651  153.6629 H   0  0  0  0  0  0  0  0  0  0  0  0
  149.4942  133.5969  156.4770 H   0  0  0  0  0  0  0  0  0  0  0  0
  150.4900  132.8242  155.2656 H   0  0  0  0  0  0  0  0  0  0  0  0
  151.8453  134.1084  156.9344 H   0  0  0  0  0  0  0  0  0  0  0  0
  152.0910  134.7042  155.3026 H   0  0  0  0  0  0  0  0  0  0  0  0
  155.1167  136.1998  157.7211 H   0  0  0  0  0  0  0  0  0  0  0  0
  150.5652  140.5617  159.0426 H   0  0  0  0  0  0  0  0  0  0  0  0
  153.7237  140.0765  160.6311 H   0  0  0  0  0  0  0  0  0  0  0  0
  154.1583  140.8256  159.1163 H   0  0  0  0  0  0  0  0  0  0  0  0
  151.4689  141.5718  160.1854 H   0  0  0  0  0  0  0  0  0  0  0  0
  153.4580  141.5130  162.1312 H   0  0  0  0  0  0  0  0  0  0  0  0
  153.5974  143.1554  161.5510 H   0  0  0  0  0  0  0  0  0  0  0  0
  151.9294  143.4668  162.7631 H   0  0  0  0  0  0  0  0  0  0  0  0
  153.7614  142.9661  158.7777 H   0  0  0  0  0  0  0  0  0  0  0  0
  151.4179  144.3651  160.1070 H   0  0  0  0  0  0  0  0  0  0  0  0
  153.1243  144.8212  160.2042 H   0  0  0  0  0  0  0  0  0  0  0  0
  151.5495  145.9747  158.3263 H   0  0  0  0  0  0  0  0  0  0  0  0
  153.1810  145.4587  157.8879 H   0  0  0  0  0  0  0  0  0  0  0  0
  152.2146  142.1486  157.1350 H   0  0  0  0  0  0  0  0  0  0  0  0
  150.8212  142.5059  158.1570 H   0  0  0  0  0  0  0  0  0  0  0  0
  149.9072  137.6836  155.9163 H   0  0  0  0  0  0  0  0  0  0  0  0
  150.8581  136.9219  154.6524 H   0  0  0  0  0  0  0  0  0  0  0  0
  148.4730  136.5008  154.2358 H   0  0  0  0  0  0  0  0  0  0  0  0
  148.2610  135.8569  155.8478 H   0  0  0  0  0  0  0  0  0  0  0  0
  1  2  1  0  0  0  0
  1 30  1  0  0  0  0
  1 31  1  0  0  0  0
  1 32  1  0  0  0  0
  2  3  1  0  0  0  0
  2 33  1  0  0  0  0
  2 34  1  0  0  0  0
  3  4  1  0  0  0  0
  3 35  1  0  0  0  0
  4  5  2  0  0  0  0
  4  6  1  0  0  0  0
  6 29  1  0  0  0  0
  6  7  1  0  0  0  0
  6 36  1  0  0  0  0
  7  8  1  0  0  0  0
  7 37  1  0  0  0  0
  7 38  1  0  0  0  0
  8  9  1  0  0  0  0
  8 39  1  0  0  0  0
  8 40  1  0  0  0  0
  9 10  1  0  0  0  0
  9 28  1  0  0  0  0
 10 15  1  0  0  0  0
 10 11  2  0  0  0  0
 11 12  1  0  0  0  0
 12 13  2  0  0  0  0
 12 41  1  0  0  0  0
 13 14  1  0  0  0  0
 14 18  1  0  0  0  0
 14 15  2  0  0  0  0
 15 16  1  0  0  0  0
 16 17  2  0  0  0  0
 17 18  1  0  0  0  0
 17 42  1  0  0  0  0
 18 19  1  0  0  0  0
 19 20  1  0  0  0  0
 19 43  1  0  0  0  0
 19 44  1  0  0  0  0
 20 21  1  0  0  0  0
 20 23  1  0  0  0  0
 20 45  1  0  0  0  0
 21 22  1  0  0  0  0
 21 46  1  0  0  0  0
 21 47  1  0  0  0  0
 22 48  1  0  0  0  0
 23 27  1  0  0  0  0
 23 24  1  0  0  0  0
 23 49  1  0  0  0  0
 24 25  1  0  0  0  0
 24 50  1  0  0  0  0
 24 51  1  0  0  0  0
 25 26  1  0  0  0  0
 25 52  1  0  0  0  0
 25 53  1  0  0  0  0
 26 27  1  0  0  0  0
 27 54  1  0  0  0  0
 27 55  1  0  0  0  0
 28 29  1  0  0  0  0
 28 56  1  0  0  0  0
 28 57  1  0  0  0  0
 29 58  1  0  0  0  0
 29 59  1  0  0  0  0
M  END
> <s_m_source_file>
AV-unprocessed.smi

> <i_m_source_file_index>
273

> <i_lp_mmshare_version>
43012

> <i_f3d_flags>
0

> <s_epik_input>
W0NIM11bQ0gyXVtOSF1DKD1PKVtDSF0xW0NIMl1bQ0gyXU4oW0NIMl1bQ0gyXTEpYyhuW2NIXW4yKWMoYzIzKW5bY0hdbjNbQ0gyXVtDQEhdKFtDSDJdW09IXSlbQ0BASF00W0NIMl1bQ0gyXU9bQ0gyXTQ=

> <s_epik_cmdline>
J2VwaWtfcHl0aG9uJywgJy1waCcsICc3LjAnLCAnLXRuJywgJzgnLCAnLW1hJywgJzIwMCcsICctbWV0YWxfYmluZGluZycsICctaW1hZScsICc8aW5maWxlLm1hZT4nLCAnLW9tYWUnLCAnPG91dGZpbGUubWFlPic=

> <r_lp_tautomer_probability>
1

> <r_epik_Ionization_Penalty>
0.00226556

> <r_epik_Ionization_Penalty_Charging>
0

> <r_epik_Ionization_Penalty_Neutral>
0.00226556

> <r_epik_State_Penalty>
0.00139883

> <r_epik_Charging_Adjusted_Penalty>
0.00139883

> <i_epik_Tot_Q>
0

> <i_epik_Tot_abs_Q>
0

> <r_epik_Metal_State_Penalty>
-0

> <b_epik_Metal_Only>
0

> <s_lp_Force_Field>
OPLS_2005

> <r_lp_Energy>
43.4567

> <b_lp_Chiralities_Consistent>
1

> <s_lp_Variant>
AV-unprocessed.smi:273-2

> <Gold.Version>
5.8.1

> <Gold.Id.Protein>
6NUR|6NUR_protein|mol2

> <Gold.PLP.Fitness>
48.4957

> <Gold.PLP.PLP>
-45.9128

> <Gold.PLP.part.hbond>
-3.0000

> <Gold.PLP.part.metal>
0.0000

> <Gold.PLP.part.buried>
-8.1751

> <Gold.PLP.part.nonpolar>
-35.2716

> <Gold.PLP.part.repulsive>
0.2001

> <Gold.PLP.ligand.clash>
0.0000

> <Gold.PLP.ligand.torsion>
1.9159

> <Gold.PLP.Chemscore.Hbond>
1.9750

> <Gold.PLP.Chemscore.CHOScore>
0.0000

> <Gold.PLP.Chemscore.Metal>
0.0000

> <Gold.Chemscore.Hbonds>
donor molecule, donor type, donor heavy atom, donor atom, acceptor molecule, acceptor atom, score
      P1  H  6933  6945       L1    22  1.00
      P1  H 10752 10763       L1    11  1.00

> <Gold.PLP.Chemscore.Internal.Correction>
0.4897

> <Gold.Rescore>
     Score         DG    S(hbond)    S(metal)    S(lipo)     H(rot)  DE(clash)    DE(int)     intcor
     11.24     -15.65       1.55        0.00     113.20       3.22       2.25       2.16       ----

> <Gold.Chemscore.Fitness>
11.2353

> <Gold.Chemscore.DG>
-15.6490

> <Gold.Chemscore.ZeroCoef>
-5.4800

> <Gold.Chemscore.Hbond>
1.5506

> <Gold.Chemscore.Metal>
0.0000

> <Gold.Chemscore.Lipo>
113.2014

> <Gold.Chemscore.Internal_Hbond>
0.0000

> <Gold.Chemscore.DEClash>
2.2517

> <Gold.Chemscore.DEInternal>
2.1620

> <Gold.Chemscore.Rot>
3.2244

> <Gold.Chemscore.Internal.Correction>
   9.000000E+99

> <Gold.Chemscore.Hbonds>
donor molecule, donor type, donor heavy atom, donor atom, acceptor molecule, acceptor atom, score
      P1  H  6933  6945       L1    22  0.96
      P1  H 10752 10763       L1    11  0.51

> <Gold.Chemscore.Hbond.Weighted>
-5.1790

> <Gold.Chemscore.Metal.Weighted>
-0.0000

> <Gold.Chemscore.Lipo.Weighted>
-13.2446

> <Gold.Chemscore.Internal_Hbond.Weighted>
0.0000

> <Gold.Chemscore.DEClash.Weighted>
2.2517

> <Gold.Chemscore.DEInternal.Weighted>
2.1620

> <Gold.Chemscore.Rot.Weighted>
8.2545

> <Gold.Chemscore.Internal.Correction.Weighted>
   9.000000E+99

> <Gold.Protein.RotatedTorsions>
[ 6907 6896 6895 6894 ] final -165.21 input  -60.11 | X-H torsion
[ 7974 7965 7964 7962 ] final -117.26 input  175.53 | X-H torsion
[ 8008 7997 7996 7995 ] final  153.21 input   59.86 | X-H torsion
[ 10167 10162 10161 10158 ] final -167.28 input  -65.29 | X-H torsion
[ 10718 10713 10712 10709 ] final   55.15 input   66.30 | X-H torsion
[ 10763 10752 10751 10750 ] final  110.15 input  -60.55 | X-H torsion
[ 11005 11000 10999 10996 ] final  126.99 input  -57.11 | X-H torsion

> <Gold.Protein.ActiveResidues>
 VAL166  LYS551  ARG553  GLY616  TRP617  ASP618  TYR619  PRO620  LYS621  CYS622 
 ASP623  PHE694  ASN695  SER759  ASP760  ASP761  ALA762  ILE779  LEU786  VAL792 
 PHE793  MET794  SER795  GLU796  ALA797  LYS798  CYS799  TRP800  GLU811  SER814 

> <Gold.Protein.RotatedAtoms>
  151.4241  133.3689  159.2759 H   0  0  0  0  0  0  0  0  0  0  0  0  # atno 6907 bound_to 6896
  150.9272  134.8690  159.7538 H   0  0  0  0  0  0  0  0  0  0  0  0  # atno 6908 bound_to 6896
  152.5011  134.4183  159.9524 H   0  0  0  0  0  0  0  0  0  0  0  0  # atno 6909 bound_to 6896
  145.0873  140.8466  143.4003 H   0  0  0  0  0  0  0  0  0  0  0  0  # atno 7974 bound_to 7965
  156.2592  140.2000  156.6454 H   0  0  0  0  0  0  0  0  0  0  0  0  # atno 8008 bound_to 7997
  154.6577  140.0564  157.0052 H   0  0  0  0  0  0  0  0  0  0  0  0  # atno 8009 bound_to 7997
  155.1323  140.3235  155.4474 H   0  0  0  0  0  0  0  0  0  0  0  0  # atno 8010 bound_to 7997
  139.6060  144.0912  152.1793 H   0  0  0  0  0  0  0  0  0  0  0  0  # atno 10167 bound_to 10162
  157.5319  130.8637  149.8700 H   0  0  0  0  0  0  0  0  0  0  0  0  # atno 10718 bound_to 10713
  153.4448  135.3757  155.2249 H   0  0  0  0  0  0  0  0  0  0  0  0  # atno 10763 bound_to 10752
  154.8755  135.3871  154.4109 H   0  0  0  0  0  0  0  0  0  0  0  0  # atno 10764 bound_to 10752
  153.4659  135.7087  153.6086 H   0  0  0  0  0  0  0  0  0  0  0  0  # atno 10765 bound_to 10752
  139.9484  134.9626  156.8789 H   0  0  0  0  0  0  0  0  0  0  0  0  # atno 11005 bound_to 11000
  145.1107  139.2759  143.5639 LP  0  0  0  0  0  0  0  0  0  0  0  0  # atno 17320 bound_to 7965
  146.3531  140.0702  142.8624 LP  0  0  0  0  0  0  0  0  0  0  0  0  # atno 17321 bound_to 7965
  140.0520  144.5925  150.7329 LP  0  0  0  0  0  0  0  0  0  0  0  0  # atno 17342 bound_to 10162
  140.7285  143.2662  151.4036 LP  0  0  0  0  0  0  0  0  0  0  0  0  # atno 17343 bound_to 10162
  156.0429  130.3734  150.1389 LP  0  0  0  0  0  0  0  0  0  0  0  0  # atno 17370 bound_to 10713
  156.9573  130.9794  151.3486 LP  0  0  0  0  0  0  0  0  0  0  0  0  # atno 17371 bound_to 10713
  140.5777  134.0382  155.7453 LP  0  0  0  0  0  0  0  0  0  0  0  0  # atno 17394 bound_to 11000
  141.1141  133.9568  157.2855 LP  0  0  0  0  0  0  0  0  0  0  0  0  # atno 17395 bound_to 11000

$$$$
