AV-unprocessed.smi:3293|AV-procd|sdf|12630|dock6
  -GOLD-   2272018563D 1   1.00000     0.00000
 Structure written by MMmdl.
 44 45  0  0  0  0  0  0  0  0  2 V2000
  151.5234  144.6250  157.8421 C   0  0  0  0  0  0  0  0  0  0  0  0
  151.9766  143.5184  158.7802 C   0  0  0  0  0  0  0  0  0  0  0  0
  152.5326  143.8341  159.9657 C   0  0  0  0  0  0  0  0  0  0  0  0
  153.0867  142.8239  160.9436 C   0  0  0  0  0  0  0  0  0  0  0  0
  153.4010  141.4991  160.2454 C   0  0  0  0  0  0  0  0  0  0  0  0
  152.2141  141.0171  159.3952 C   0  0  2  0  0  0  0  0  0  0  0  0
  152.5446  139.6380  158.7919 C   0  0  0  0  0  0  0  0  0  0  0  0
  151.7978  142.0595  158.3114 C   0  0  1  0  0  0  0  0  0  0  0  0
  150.3597  141.7608  157.8104 C   0  0  0  0  0  0  0  0  0  0  0  0
  150.0883  142.3199  156.4699 N   0  3  0  0  0  0  0  0  0  0  0  0
  149.1462  141.5208  155.6633 C   0  0  0  0  0  0  0  0  0  0  0  0
  149.8502  140.8955  154.4521 C   0  0  0  0  0  0  0  0  0  0  0  0
  150.4244  139.5474  154.7860 C   0  0  0  0  0  0  0  0  0  0  0  0
  150.3927  138.3635  153.9948 C   0  0  0  0  0  0  0  0  0  0  0  0
  150.9872  137.3375  154.5806 N   0  0  0  0  0  0  0  0  0  0  0  0
  151.4208  137.8278  155.7598 N   0  0  0  0  0  0  0  0  0  0  0  0
  152.1319  136.9608  156.6748 C   0  0  0  0  0  0  0  0  0  0  0  0
  151.0960  139.1588  155.9113 C   0  0  0  0  0  0  0  0  0  0  0  0
  151.9388  144.4757  156.8452 H   0  0  0  0  0  0  0  0  0  0  0  0
  151.8556  145.6026  158.1935 H   0  0  0  0  0  0  0  0  0  0  0  0
  150.4361  144.6580  157.7745 H   0  0  0  0  0  0  0  0  0  0  0  0
  152.6174  144.8694  160.2630 H   0  0  0  0  0  0  0  0  0  0  0  0
  153.9933  143.2253  161.3975 H   0  0  0  0  0  0  0  0  0  0  0  0
  152.3625  142.6792  161.7459 H   0  0  0  0  0  0  0  0  0  0  0  0
  154.2791  141.6219  159.6096 H   0  0  0  0  0  0  0  0  0  0  0  0
  153.6648  140.7507  160.9937 H   0  0  0  0  0  0  0  0  0  0  0  0
  151.3727  140.8855  160.0775 H   0  0  0  0  0  0  0  0  0  0  0  0
  153.3748  139.7034  158.0879 H   0  0  0  0  0  0  0  0  0  0  0  0
  151.6990  139.1984  158.2656 H   0  0  0  0  0  0  0  0  0  0  0  0
  152.8319  138.9314  159.5712 H   0  0  0  0  0  0  0  0  0  0  0  0
  152.4837  141.9401  157.4710 H   0  0  0  0  0  0  0  0  0  0  0  0
  150.1820  140.6885  157.7471 H   0  0  0  0  0  0  0  0  0  0  0  0
  149.6317  142.1490  158.5246 H   0  0  0  0  0  0  0  0  0  0  0  0
  149.7054  143.2478  156.5840 H   0  0  0  0  0  0  0  0  0  0  0  0
  148.7130  140.7386  156.2883 H   0  0  0  0  0  0  0  0  0  0  0  0
  148.3276  142.1605  155.3307 H   0  0  0  0  0  0  0  0  0  0  0  0
  149.1426  140.8130  153.6262 H   0  0  0  0  0  0  0  0  0  0  0  0
  150.6354  141.5677  154.1041 H   0  0  0  0  0  0  0  0  0  0  0  0
  149.9551  138.2198  153.0177 H   0  0  0  0  0  0  0  0  0  0  0  0
  152.3800  137.5025  157.5879 H   0  0  0  0  0  0  0  0  0  0  0  0
  153.0536  136.6100  156.2094 H   0  0  0  0  0  0  0  0  0  0  0  0
  151.5101  136.1025  156.9302 H   0  0  0  0  0  0  0  0  0  0  0  0
  151.3661  139.7134  156.7981 H   0  0  0  0  0  0  0  0  0  0  0  0
  150.9623  142.3907  155.9685 H   0  0  0  0  0  0  0  0  0  0  0  0
  1  2  1  0  0  0  0
  1 19  1  0  0  0  0
  1 20  1  0  0  0  0
  1 21  1  0  0  0  0
  2  8  1  0  0  0  0
  2  3  2  0  0  0  0
  3  4  1  0  0  0  0
  3 22  1  0  0  0  0
  4  5  1  0  0  0  0
  4 23  1  0  0  0  0
  4 24  1  0  0  0  0
  5  6  1  0  0  0  0
  5 25  1  0  0  0  0
  5 26  1  0  0  0  0
  6  7  1  0  0  0  0
  6  8  1  0  0  0  0
  6 27  1  0  0  0  0
  7 28  1  0  0  0  0
  7 29  1  0  0  0  0
  7 30  1  0  0  0  0
  8  9  1  0  0  0  0
  8 31  1  0  0  0  0
  9 10  1  0  0  0  0
  9 32  1  0  0  0  0
  9 33  1  0  0  0  0
 10 11  1  0  0  0  0
 10 34  1  0  0  0  0
 10 44  1  0  0  0  0
 11 12  1  0  0  0  0
 11 35  1  0  0  0  0
 11 36  1  0  0  0  0
 12 13  1  0  0  0  0
 12 37  1  0  0  0  0
 12 38  1  0  0  0  0
 13 18  2  0  0  0  0
 13 14  1  0  0  0  0
 14 15  2  0  0  0  0
 14 39  1  0  0  0  0
 15 16  1  0  0  0  0
 16 17  1  0  0  0  0
 16 18  1  0  0  0  0
 17 40  1  0  0  0  0
 17 41  1  0  0  0  0
 17 42  1  0  0  0  0
 18 43  1  0  0  0  0
M  CHG  1  10   1
M  END
> <s_m_source_file>
AV-unprocessed.smi

> <i_m_source_file_index>
3293

> <i_lp_mmshare_version>
43012

> <i_f3d_flags>
0

> <s_epik_input>
W0NIM11DMT1bQ0hdW0NIMl1bQ0gyXVtDQEBIXShbQ0gzXSlbQ0BIXTFbQ0gyXVtOSF1bQ0gyXVtDSDJdYzJbY0hdbm4oW0NIM10pW2NIXTI=

> <s_epik_cmdline>
J2VwaWtfcHl0aG9uJywgJy1waCcsICc3LjAnLCAnLXRuJywgJzgnLCAnLW1hJywgJzIwMCcsICctbWV0YWxfYmluZGluZycsICctaW1hZScsICc8aW5maWxlLm1hZT4nLCAnLW9tYWUnLCAnPG91dGZpbGUubWFlPic=

> <r_lp_tautomer_probability>
1

> <r_epik_Ionization_Penalty>
0.000598621

> <r_epik_Ionization_Penalty_Charging>
0.000582095

> <r_epik_Ionization_Penalty_Neutral>
1.65262e-05

> <r_epik_State_Penalty>
-0

> <r_epik_Charging_Adjusted_Penalty>
0.000582095

> <i_epik_Tot_Q>
1

> <i_epik_Tot_abs_Q>
1

> <r_epik_Metal_State_Penalty>
-0

> <b_epik_Metal_Only>
0

> <s_lp_Force_Field>
OPLS_2005

> <r_lp_Energy>
11.6167

> <b_lp_Chiralities_Consistent>
1

> <s_lp_Variant>
AV-unprocessed.smi:3293-2

> <Gold.Version>
5.8.1

> <Gold.Id.Protein>
6NUR|6NUR_protein|mol2

> <Gold.PLP.Fitness>
47.5290

> <Gold.PLP.PLP>
-38.5694

> <Gold.PLP.part.hbond>
-1.0000

> <Gold.PLP.part.metal>
0.0000

> <Gold.PLP.part.buried>
-0.7561

> <Gold.PLP.part.nonpolar>
-36.0491

> <Gold.PLP.part.repulsive>
0.2600

> <Gold.PLP.ligand.clash>
0.0000

> <Gold.PLP.ligand.torsion>
1.1650

> <Gold.PLP.Chemscore.Hbond>
1.7600

> <Gold.PLP.Chemscore.CHOScore>
1.9741

> <Gold.PLP.Chemscore.Metal>
0.0000

> <Gold.Chemscore.Hbonds>
donor molecule, donor type, donor heavy atom, donor atom, acceptor molecule, acceptor atom, score
      L1  H    10    34       P1  8028  1.79
      L1  C    14    39       P1  7948  1.00
      L1  C    14    39       P1  7957  0.78

> <Gold.PLP.Chemscore.Internal.Correction>
0.0873

> <Gold.Rescore>
     Score         DG    S(hbond)    S(metal)    S(lipo)     H(rot)  DE(clash)    DE(int)     intcor
     17.16     -19.41       0.96        0.00     124.22       1.48       0.26       1.99       ----

> <Gold.Chemscore.Fitness>
17.1567

> <Gold.Chemscore.DG>
-19.4111

> <Gold.Chemscore.ZeroCoef>
-5.4800

> <Gold.Chemscore.Hbond>
0.9576

> <Gold.Chemscore.Metal>
0.0000

> <Gold.Chemscore.Lipo>
124.2196

> <Gold.Chemscore.Internal_Hbond>
0.0000

> <Gold.Chemscore.DEClash>
0.2636

> <Gold.Chemscore.DEInternal>
1.9909

> <Gold.Chemscore.Rot>
1.4847

> <Gold.Chemscore.Internal.Correction>
   9.000000E+99

> <Gold.Chemscore.Hbonds>
donor molecule, donor type, donor heavy atom, donor atom, acceptor molecule, acceptor atom, score
      L1  H    10    34       P1  8028  0.88

> <Gold.Chemscore.Hbond.Weighted>
-3.1983

> <Gold.Chemscore.Metal.Weighted>
-0.0000

> <Gold.Chemscore.Lipo.Weighted>
-14.5337

> <Gold.Chemscore.Internal_Hbond.Weighted>
0.0000

> <Gold.Chemscore.DEClash.Weighted>
0.2636

> <Gold.Chemscore.DEInternal.Weighted>
1.9909

> <Gold.Chemscore.Rot.Weighted>
3.8008

> <Gold.Chemscore.Internal.Correction.Weighted>
   9.000000E+99

> <Gold.Protein.RotatedTorsions>
[ 6907 6896 6895 6894 ] final  136.28 input  -60.11 | X-H torsion
[ 7974 7965 7964 7962 ] final   28.39 input  175.53 | X-H torsion
[ 8008 7997 7996 7995 ] final  103.95 input   59.86 | X-H torsion
[ 10167 10162 10161 10158 ] final   31.17 input  -65.29 | X-H torsion
[ 10718 10713 10712 10709 ] final  163.40 input   66.30 | X-H torsion
[ 10763 10752 10751 10750 ] final   -6.19 input  -60.55 | X-H torsion
[ 11005 11000 10999 10996 ] final   68.93 input  -57.11 | X-H torsion

> <Gold.Protein.ActiveResidues>
 VAL166  LYS551  ARG553  GLY616  TRP617  ASP618  TYR619  PRO620  LYS621  CYS622 
 ASP623  PHE694  ASN695  SER759  ASP760  ASP761  ALA762  ILE779  LEU786  VAL792 
 PHE793  MET794  SER795  GLU796  ALA797  LYS798  CYS799  TRP800  GLU811  SER814 

> <Gold.Protein.RotatedAtoms>
  152.2911  133.5562  159.5558 H   0  0  0  0  0  0  0  0  0  0  0  0  # atno 6907 bound_to 6896
  150.7236  134.0427  159.3780 H   0  0  0  0  0  0  0  0  0  0  0  0  # atno 6908 bound_to 6896
  151.8332  135.0615  160.0490 H   0  0  0  0  0  0  0  0  0  0  0  0  # atno 6909 bound_to 6896
  146.1732  139.7063  142.8953 H   0  0  0  0  0  0  0  0  0  0  0  0  # atno 7974 bound_to 7965
  156.1530  140.3156  155.8679 H   0  0  0  0  0  0  0  0  0  0  0  0  # atno 8008 bound_to 7997
  155.3934  140.0495  157.3057 H   0  0  0  0  0  0  0  0  0  0  0  0  # atno 8009 bound_to 7997
  154.5075  140.2152  155.9233 H   0  0  0  0  0  0  0  0  0  0  0  0  # atno 8010 bound_to 7997
  140.4613  144.0902  150.6213 H   0  0  0  0  0  0  0  0  0  0  0  0  # atno 10167 bound_to 10162
  157.1090  131.0463  151.2465 H   0  0  0  0  0  0  0  0  0  0  0  0  # atno 10718 bound_to 10713
  153.4090  135.7007  153.6373 H   0  0  0  0  0  0  0  0  0  0  0  0  # atno 10763 bound_to 10752
  153.4875  135.3680  155.2475 H   0  0  0  0  0  0  0  0  0  0  0  0  # atno 10764 bound_to 10752
  154.8716  135.4081  154.3438 H   0  0  0  0  0  0  0  0  0  0  0  0  # atno 10765 bound_to 10752
  139.9683  134.6943  156.0499 H   0  0  0  0  0  0  0  0  0  0  0  0  # atno 11005 bound_to 11000
  145.4284  141.0413  143.2924 LP  0  0  0  0  0  0  0  0  0  0  0  0  # atno 17320 bound_to 7965
  144.8194  139.5818  143.6993 LP  0  0  0  0  0  0  0  0  0  0  0  0  # atno 17321 bound_to 7965
  140.4090  143.2666  151.9856 LP  0  0  0  0  0  0  0  0  0  0  0  0  # atno 17342 bound_to 10162
  139.4806  144.5932  151.7736 LP  0  0  0  0  0  0  0  0  0  0  0  0  # atno 17343 bound_to 10162
  157.4576  130.7634  149.7206 LP  0  0  0  0  0  0  0  0  0  0  0  0  # atno 17370 bound_to 10713
  155.9855  130.3982  150.3258 LP  0  0  0  0  0  0  0  0  0  0  0  0  # atno 17371 bound_to 10713
  141.1363  133.6574  156.3602 LP  0  0  0  0  0  0  0  0  0  0  0  0  # atno 17394 bound_to 11000
  140.5348  134.6177  157.5361 LP  0  0  0  0  0  0  0  0  0  0  0  0  # atno 17395 bound_to 11000

$$$$
