AV-unprocessed.smi:85|AV-procd|sdf|810|dock2
  -GOLD-   2262017203D 1   1.00000     0.00000
 Structure written by MMmdl.
 62 65  0  0  0  0  0  0  0  0  1 V2000
  152.9421  129.4527  156.4465 C   0  0  0  0  0  0  0  0  0  0  0  0
  151.9322  130.3845  155.7558 C   0  0  0  0  0  0  0  0  0  0  0  0
  152.1435  131.8024  156.0547 N   0  0  0  0  0  0  0  0  0  0  0  0
  151.1276  132.6293  155.7027 C   0  0  0  0  0  0  0  0  0  0  0  0
  150.5789  133.3878  156.6846 N   0  0  0  0  0  0  0  0  0  0  0  0
  149.5741  134.2224  156.4052 C   0  0  0  0  0  0  0  0  0  0  0  0
  148.9798  134.4496  155.2324 N   0  0  0  0  0  0  0  0  0  0  0  0
  149.5259  133.6870  154.2422 C   0  0  0  0  0  0  0  0  0  0  0  0
  150.5854  132.7480  154.3903 C   0  0  0  0  0  0  0  0  0  0  0  0
  150.8583  132.1484  153.1664 N   0  0  0  0  0  0  0  0  0  0  0  0
  150.0173  132.7086  152.3417 C   0  0  0  0  0  0  0  0  0  0  0  0
  149.1938  133.6611  152.8983 N   0  0  0  0  0  0  0  0  0  0  0  0
  148.1799  134.4436  152.2057 C   0  0  0  0  0  0  0  0  0  0  0  0
  146.8363  133.6960  151.9513 C   0  0  0  0  0  0  0  0  0  0  0  0
  147.0776  132.3553  151.1996 C   0  0  0  0  0  0  0  0  0  0  0  0
  147.8211  132.5348  150.0107 O   0  0  0  0  0  0  0  0  0  0  0  0
  146.1454  133.4595  153.3177 C   0  0  0  0  0  0  0  0  0  0  0  0
  144.6850  132.9939  153.1802 C   0  0  0  0  0  0  0  0  0  0  0  0
  143.9461  133.9399  152.4190 O   0  0  0  0  0  0  0  0  0  0  0  0
  144.4355  134.0822  151.0921 C   0  0  0  0  0  0  0  0  0  0  0  0
  145.8883  134.5921  151.1143 C   0  0  0  0  0  0  0  0  0  0  0  0
  153.5062  132.3204  155.8561 C   0  0  2  0  0  0  0  0  0  0  0  0
  153.8328  133.5705  156.6924 C   0  0  0  0  0  0  0  0  0  0  0  0
  155.2936  133.9853  156.4732 C   0  0  0  0  0  0  0  0  0  0  0  0
  155.5406  134.2208  155.0876 O   0  0  0  0  0  0  0  0  0  0  0  0
  155.3014  133.1208  154.2028 C   0  0  0  0  0  0  0  0  0  0  0  0
  155.4758  133.6981  152.7882 C   0  0  0  0  0  0  0  0  0  0  0  0
  156.3459  132.0048  154.4200 C   0  0  0  0  0  0  0  0  0  0  0  0
  153.8497  132.6159  154.3817 C   0  0  0  0  0  0  0  0  0  0  0  0
  152.7860  128.4200  156.1345 H   0  0  0  0  0  0  0  0  0  0  0  0
  152.8484  129.4815  157.5323 H   0  0  0  0  0  0  0  0  0  0  0  0
  153.9657  129.7255  156.1888 H   0  0  0  0  0  0  0  0  0  0  0  0
  152.0145  130.2457  154.6774 H   0  0  0  0  0  0  0  0  0  0  0  0
  150.9171  130.0902  156.0195 H   0  0  0  0  0  0  0  0  0  0  0  0
  149.1939  134.7921  157.2402 H   0  0  0  0  0  0  0  0  0  0  0  0
  149.9823  132.4482  151.2938 H   0  0  0  0  0  0  0  0  0  0  0  0
  148.0017  135.3471  152.7902 H   0  0  0  0  0  0  0  0  0  0  0  0
  148.6076  134.7861  151.2624 H   0  0  0  0  0  0  0  0  0  0  0  0
  147.6167  131.6386  151.8164 H   0  0  0  0  0  0  0  0  0  0  0  0
  146.1325  131.8749  150.9466 H   0  0  0  0  0  0  0  0  0  0  0  0
  148.4876  133.1856  150.1696 H   0  0  0  0  0  0  0  0  0  0  0  0
  146.7073  132.7424  153.9170 H   0  0  0  0  0  0  0  0  0  0  0  0
  146.1480  134.3886  153.8892 H   0  0  0  0  0  0  0  0  0  0  0  0
  144.6184  132.0054  152.7250 H   0  0  0  0  0  0  0  0  0  0  0  0
  144.2294  132.9119  154.1670 H   0  0  0  0  0  0  0  0  0  0  0  0
  144.3480  133.1380  150.5540 H   0  0  0  0  0  0  0  0  0  0  0  0
  143.8030  134.7972  150.5654 H   0  0  0  0  0  0  0  0  0  0  0  0
  145.8823  135.6006  151.5300 H   0  0  0  0  0  0  0  0  0  0  0  0
  146.2524  134.6871  150.0911 H   0  0  0  0  0  0  0  0  0  0  0  0
  154.1686  131.5272  156.2030 H   0  0  0  0  0  0  0  0  0  0  0  0
  153.1889  134.4042  156.4099 H   0  0  0  0  0  0  0  0  0  0  0  0
  153.6566  133.3768  157.7511 H   0  0  0  0  0  0  0  0  0  0  0  0
  155.5018  134.9050  157.0199 H   0  0  0  0  0  0  0  0  0  0  0  0
  155.9766  133.2336  156.8684 H   0  0  0  0  0  0  0  0  0  0  0  0
  155.2960  132.9402  152.0250 H   0  0  0  0  0  0  0  0  0  0  0  0
  156.4849  134.0840  152.6405 H   0  0  0  0  0  0  0  0  0  0  0  0
  154.7826  134.5206  152.6072 H   0  0  0  0  0  0  0  0  0  0  0  0
  156.2226  131.2085  153.6853 H   0  0  0  0  0  0  0  0  0  0  0  0
  156.2742  131.5434  155.4036 H   0  0  0  0  0  0  0  0  0  0  0  0
  157.3598  132.3922  154.3157 H   0  0  0  0  0  0  0  0  0  0  0  0
  153.6866  131.7335  153.7622 H   0  0  0  0  0  0  0  0  0  0  0  0
  153.1718  133.3832  154.0082 H   0  0  0  0  0  0  0  0  0  0  0  0
  1  2  1  0  0  0  0
  1 30  1  0  0  0  0
  1 31  1  0  0  0  0
  1 32  1  0  0  0  0
  2  3  1  0  0  0  0
  2 33  1  0  0  0  0
  2 34  1  0  0  0  0
  3  4  1  0  0  0  0
  3 22  1  0  0  0  0
  4  9  1  0  0  0  0
  4  5  2  0  0  0  0
  5  6  1  0  0  0  0
  6  7  2  0  0  0  0
  6 35  1  0  0  0  0
  7  8  1  0  0  0  0
  8 12  1  0  0  0  0
  8  9  2  0  0  0  0
  9 10  1  0  0  0  0
 10 11  2  0  0  0  0
 11 12  1  0  0  0  0
 11 36  1  0  0  0  0
 12 13  1  0  0  0  0
 13 14  1  0  0  0  0
 13 37  1  0  0  0  0
 13 38  1  0  0  0  0
 14 21  1  0  0  0  0
 14 15  1  0  0  0  0
 14 17  1  0  0  0  0
 15 16  1  0  0  0  0
 15 39  1  0  0  0  0
 15 40  1  0  0  0  0
 16 41  1  0  0  0  0
 17 18  1  0  0  0  0
 17 42  1  0  0  0  0
 17 43  1  0  0  0  0
 18 19  1  0  0  0  0
 18 44  1  0  0  0  0
 18 45  1  0  0  0  0
 19 20  1  0  0  0  0
 20 21  1  0  0  0  0
 20 46  1  0  0  0  0
 20 47  1  0  0  0  0
 21 48  1  0  0  0  0
 21 49  1  0  0  0  0
 22 29  1  0  0  0  0
 22 23  1  0  0  0  0
 22 50  1  0  0  0  0
 23 24  1  0  0  0  0
 23 51  1  0  0  0  0
 23 52  1  0  0  0  0
 24 25  1  0  0  0  0
 24 53  1  0  0  0  0
 24 54  1  0  0  0  0
 25 26  1  0  0  0  0
 26 27  1  0  0  0  0
 26 28  1  0  0  0  0
 26 29  1  0  0  0  0
 27 55  1  0  0  0  0
 27 56  1  0  0  0  0
 27 57  1  0  0  0  0
 28 58  1  0  0  0  0
 28 59  1  0  0  0  0
 28 60  1  0  0  0  0
 29 61  1  0  0  0  0
 29 62  1  0  0  0  0
M  END
> <s_m_source_file>
AV-unprocessed.smi

> <i_m_source_file_index>
85

> <i_lp_mmshare_version>
43012

> <i_f3d_flags>
0

> <s_epik_input>
W0NIM11DMShbQ0gzXSlPW0NIMl1bQ0gyXVtDQEhdKFtDSDJdMSlOKFtDSDJdW0NIM10pYyhuW2NIXW4yKWMoYzIzKW5bY0hdbjNbQ0gyXUM0KFtDSDJdW09IXSlbQ0gyXVtDSDJdT1tDSDJdW0NIMl00

> <s_epik_cmdline>
J2VwaWtfcHl0aG9uJywgJy1waCcsICc3LjAnLCAnLXRuJywgJzgnLCAnLW1hJywgJzIwMCcsICctbWV0YWxfYmluZGluZycsICctaW1hZScsICc8aW5maWxlLm1hZT4nLCAnLW9tYWUnLCAnPG91dGZpbGUubWFlPic=

> <r_lp_tautomer_probability>
1

> <r_epik_Ionization_Penalty>
0.00336056

> <r_epik_Ionization_Penalty_Charging>
0

> <r_epik_Ionization_Penalty_Neutral>
0.00336056

> <r_epik_State_Penalty>
0.00222191

> <r_epik_Charging_Adjusted_Penalty>
0.00222191

> <i_epik_Tot_Q>
0

> <i_epik_Tot_abs_Q>
0

> <r_epik_Metal_State_Penalty>
-0

> <b_epik_Metal_Only>
0

> <s_lp_Force_Field>
OPLS_2005

> <r_lp_Energy>
35.7443

> <b_lp_Chiralities_Consistent>
1

> <s_lp_Variant>
AV-unprocessed.smi:85-1

> <Gold.Version>
5.8.1

> <Gold.Id.Protein>
6NUR|6NUR_protein|mol2

> <Gold.PLP.Fitness>
41.2097

> <Gold.PLP.PLP>
-37.2062

> <Gold.PLP.part.hbond>
-1.0000

> <Gold.PLP.part.metal>
0.0000

> <Gold.PLP.part.buried>
-3.9602

> <Gold.PLP.part.nonpolar>
-30.7890

> <Gold.PLP.part.repulsive>
0.2989

> <Gold.PLP.ligand.clash>
0.0000

> <Gold.PLP.ligand.torsion>
0.9854

> <Gold.PLP.Chemscore.Hbond>
1.0000

> <Gold.PLP.Chemscore.CHOScore>
0.7035

> <Gold.PLP.Chemscore.Metal>
0.0000

> <Gold.Chemscore.Hbonds>
donor molecule, donor type, donor heavy atom, donor atom, acceptor molecule, acceptor atom, score
      P1  H 10752 10763       L1    25  0.14
      L1  C    11    36       P1 10747  0.44

> <Gold.PLP.Chemscore.Internal.Correction>
0.8637

> <Gold.Rescore>
     Score         DG    S(hbond)    S(metal)    S(lipo)     H(rot)  DE(clash)    DE(int)     intcor
      8.64     -10.63       0.99        0.00      73.59       2.65       0.36       1.63       ----

> <Gold.Chemscore.Fitness>
8.6396

> <Gold.Chemscore.DG>
-10.6272

> <Gold.Chemscore.ZeroCoef>
-5.4800

> <Gold.Chemscore.Hbond>
0.9919

> <Gold.Chemscore.Metal>
0.0000

> <Gold.Chemscore.Lipo>
73.5922

> <Gold.Chemscore.Internal_Hbond>
0.0000

> <Gold.Chemscore.DEClash>
0.3559

> <Gold.Chemscore.DEInternal>
1.6317

> <Gold.Chemscore.Rot>
2.6469

> <Gold.Chemscore.Internal.Correction>
   9.000000E+99

> <Gold.Chemscore.Hbonds>
donor molecule, donor type, donor heavy atom, donor atom, acceptor molecule, acceptor atom, score
      P1  H 10752 10763       L1    25  0.07

> <Gold.Chemscore.Hbond.Weighted>
-3.3130

> <Gold.Chemscore.Metal.Weighted>
-0.0000

> <Gold.Chemscore.Lipo.Weighted>
-8.6103

> <Gold.Chemscore.Internal_Hbond.Weighted>
0.0000

> <Gold.Chemscore.DEClash.Weighted>
0.3559

> <Gold.Chemscore.DEInternal.Weighted>
1.6317

> <Gold.Chemscore.Rot.Weighted>
6.7761

> <Gold.Chemscore.Internal.Correction.Weighted>
   9.000000E+99

> <Gold.Protein.RotatedTorsions>
[ 6907 6896 6895 6894 ] final   17.69 input  -60.11 | X-H torsion
[ 7974 7965 7964 7962 ] final  -42.93 input  175.53 | X-H torsion
[ 8008 7997 7996 7995 ] final   94.99 input   59.86 | X-H torsion
[ 10167 10162 10161 10158 ] final -175.09 input  -65.29 | X-H torsion
[ 10718 10713 10712 10709 ] final  -40.63 input   66.30 | X-H torsion
[ 10763 10752 10751 10750 ] final -151.04 input  -60.55 | X-H torsion
[ 11005 11000 10999 10996 ] final   78.92 input  -57.11 | X-H torsion

> <Gold.Protein.ActiveResidues>
 VAL166  LYS551  ARG553  GLY616  TRP617  ASP618  TYR619  PRO620  LYS621  CYS622 
 ASP623  PHE694  ASN695  SER759  ASP760  ASP761  ALA762  ILE779  LEU786  VAL792 
 PHE793  MET794  SER795  GLU796  ALA797  LYS798  CYS799  TRP800  GLU811  SER814 

> <Gold.Protein.RotatedAtoms>
  151.8536  135.0549  160.0461 H   0  0  0  0  0  0  0  0  0  0  0  0  # atno 6907 bound_to 6896
  152.2718  133.5384  159.5452 H   0  0  0  0  0  0  0  0  0  0  0  0  # atno 6908 bound_to 6896
  150.7154  134.0604  159.3871 H   0  0  0  0  0  0  0  0  0  0  0  0  # atno 6909 bound_to 6896
  146.0068  140.7010  142.9243 H   0  0  0  0  0  0  0  0  0  0  0  0  # atno 7974 bound_to 7965
  156.0639  140.3292  155.7495 H   0  0  0  0  0  0  0  0  0  0  0  0  # atno 8008 bound_to 7997
  155.5411  140.0602  157.2887 H   0  0  0  0  0  0  0  0  0  0  0  0  # atno 8009 bound_to 7997
  154.4495  140.1910  156.0580 H   0  0  0  0  0  0  0  0  0  0  0  0  # atno 8010 bound_to 7997
  139.5599  144.1895  152.1222 H   0  0  0  0  0  0  0  0  0  0  0  0  # atno 10167 bound_to 10162
  156.2792  130.4215  149.8355 H   0  0  0  0  0  0  0  0  0  0  0  0  # atno 10718 bound_to 10713
  154.8082  135.3269  154.7375 H   0  0  0  0  0  0  0  0  0  0  0  0  # atno 10763 bound_to 10752
  153.8029  135.6902  153.4857 H   0  0  0  0  0  0  0  0  0  0  0  0  # atno 10764 bound_to 10752
  153.1842  135.4575  155.0013 H   0  0  0  0  0  0  0  0  0  0  0  0  # atno 10765 bound_to 10752
  139.9193  134.7801  156.1711 H   0  0  0  0  0  0  0  0  0  0  0  0  # atno 11005 bound_to 11000
  144.6938  140.3329  143.7213 LP  0  0  0  0  0  0  0  0  0  0  0  0  # atno 17320 bound_to 7965
  145.7403  139.1762  143.2380 LP  0  0  0  0  0  0  0  0  0  0  0  0  # atno 17321 bound_to 7965
  140.1407  144.5205  150.6746 LP  0  0  0  0  0  0  0  0  0  0  0  0  # atno 17342 bound_to 10162
  140.6877  143.2359  151.5214 LP  0  0  0  0  0  0  0  0  0  0  0  0  # atno 17343 bound_to 10162
  156.5808  130.8465  151.3382 LP  0  0  0  0  0  0  0  0  0  0  0  0  # atno 17370 bound_to 10713
  157.7309  130.9692  150.1854 LP  0  0  0  0  0  0  0  0  0  0  0  0  # atno 17371 bound_to 10713
  141.0699  133.6801  156.2120 LP  0  0  0  0  0  0  0  0  0  0  0  0  # atno 17394 bound_to 11000
  140.6523  134.5054  157.5578 LP  0  0  0  0  0  0  0  0  0  0  0  0  # atno 17395 bound_to 11000

$$$$
