AV-unprocessed.smi:1686|AV-procd|sdf|6759|dock2
  -GOLD-   22720 7523D 1   1.00000     0.00000
 Structure written by MMmdl.
 41 43  0  0  0  0  0  0  0  0  1 V2000
  147.3571  142.0067  154.2568 C   0  0  0  0  0  0  0  0  0  0  0  0
  146.3979  141.2052  155.0896 C   0  0  0  0  0  0  0  0  0  0  0  0
  145.9844  140.0214  154.6559 N   0  0  0  0  0  0  0  0  0  0  0  0
  145.1023  139.5326  155.6266 O   0  0  0  0  0  0  0  0  0  0  0  0
  145.0333  140.4644  156.6050 C   0  0  0  0  0  0  0  0  0  0  0  0
  144.0393  140.2696  157.9942 Cl  0  0  0  0  0  0  0  0  0  0  0  0
  145.8208  141.5492  156.3469 C   0  0  0  0  0  0  0  0  0  0  0  0
  146.0286  142.8009  157.1598 C   0  0  0  0  0  0  0  0  0  0  0  0
  147.1202  142.5534  158.1990 C   0  0  0  0  0  0  0  0  0  0  0  0
  146.8289  142.0752  159.2948 O   0  0  0  0  0  0  0  0  0  0  0  0
  148.3714  142.8736  157.8339 N   0  0  0  0  0  0  0  0  0  0  0  0
  149.5694  142.6968  158.6500 C   0  0  1  0  0  0  0  0  0  0  0  0
  150.5021  141.6866  157.9617 C   0  0  0  0  0  0  0  0  0  0  0  0
  150.2557  144.0639  158.8764 C   0  0  2  0  0  0  0  0  0  0  0  0
  151.1950  144.5137  157.7345 C   0  0  0  0  0  0  0  0  0  0  0  0
  152.4885  144.8950  158.4789 C   0  0  2  0  0  0  0  0  0  0  0  0
  153.1982  143.6102  158.9445 C   0  0  0  0  0  0  0  0  0  0  0  0
  152.3022  143.1300  160.1004 C   0  0  0  0  0  0  0  0  0  0  0  0
  151.1745  144.1827  160.1195 C   0  0  1  0  0  0  0  0  0  0  0  0
  151.9525  145.4532  159.7922 C   0  0  0  0  0  0  0  0  0  0  0  0
  146.8535  142.8562  153.7954 H   0  0  0  0  0  0  0  0  0  0  0  0
  147.7982  141.4084  153.4590 H   0  0  0  0  0  0  0  0  0  0  0  0
  148.1730  142.3964  154.8658 H   0  0  0  0  0  0  0  0  0  0  0  0
  146.3124  143.6467  156.5322 H   0  0  0  0  0  0  0  0  0  0  0  0
  145.1124  143.0996  157.6705 H   0  0  0  0  0  0  0  0  0  0  0  0
  148.5070  143.2598  156.9108 H   0  0  0  0  0  0  0  0  0  0  0  0
  149.2940  142.2821  159.6207 H   0  0  0  0  0  0  0  0  0  0  0  0
  151.3992  141.5054  158.5537 H   0  0  0  0  0  0  0  0  0  0  0  0
  150.8179  142.0416  156.9803 H   0  0  0  0  0  0  0  0  0  0  0  0
  150.0051  140.7259  157.8231 H   0  0  0  0  0  0  0  0  0  0  0  0
  149.4707  144.8149  158.9840 H   0  0  0  0  0  0  0  0  0  0  0  0
  151.3735  143.7337  156.9932 H   0  0  0  0  0  0  0  0  0  0  0  0
  150.7750  145.3742  157.2122 H   0  0  0  0  0  0  0  0  0  0  0  0
  153.1337  145.5713  157.9172 H   0  0  0  0  0  0  0  0  0  0  0  0
  153.2809  142.8703  158.1475 H   0  0  0  0  0  0  0  0  0  0  0  0
  154.2045  143.8273  159.3046 H   0  0  0  0  0  0  0  0  0  0  0  0
  151.9431  142.1107  159.9635 H   0  0  0  0  0  0  0  0  0  0  0  0
  152.8566  143.1518  161.0395 H   0  0  0  0  0  0  0  0  0  0  0  0
  150.6302  144.2195  161.0637 H   0  0  0  0  0  0  0  0  0  0  0  0
  152.7362  145.6818  160.5168 H   0  0  0  0  0  0  0  0  0  0  0  0
  151.3181  146.3320  159.6629 H   0  0  0  0  0  0  0  0  0  0  0  0
  1  2  1  0  0  0  0
  1 21  1  0  0  0  0
  1 22  1  0  0  0  0
  1 23  1  0  0  0  0
  2  7  1  0  0  0  0
  2  3  2  0  0  0  0
  3  4  1  0  0  0  0
  4  5  1  0  0  0  0
  5  6  1  0  0  0  0
  5  7  2  0  0  0  0
  7  8  1  0  0  0  0
  8  9  1  0  0  0  0
  8 24  1  0  0  0  0
  8 25  1  0  0  0  0
  9 10  2  0  0  0  0
  9 11  1  0  0  0  0
 11 12  1  0  0  0  0
 11 26  1  0  0  0  0
 12 13  1  0  0  0  0
 12 14  1  0  0  0  0
 12 27  1  0  0  0  0
 13 28  1  0  0  0  0
 13 29  1  0  0  0  0
 13 30  1  0  0  0  0
 14 19  1  0  0  0  0
 14 15  1  0  0  0  0
 14 31  1  0  0  0  0
 15 16  1  0  0  0  0
 15 32  1  0  0  0  0
 15 33  1  0  0  0  0
 16 20  1  0  0  0  0
 16 17  1  0  0  0  0
 16 34  1  0  0  0  0
 17 18  1  0  0  0  0
 17 35  1  0  0  0  0
 17 36  1  0  0  0  0
 18 19  1  0  0  0  0
 18 37  1  0  0  0  0
 18 38  1  0  0  0  0
 19 20  1  0  0  0  0
 19 39  1  0  0  0  0
 20 40  1  0  0  0  0
 20 41  1  0  0  0  0
M  END
> <s_m_source_file>
AV-unprocessed.smi

> <i_m_source_file_index>
1686

> <i_lp_mmshare_version>
43012

> <i_f3d_flags>
0

> <s_epik_input>
W0NIM11jMW5vYyhDbCljMVtDSDJdQyg9TylbTkhdW0NASF0oW0NIM10pW0NASF0oW0NIMl1bQ0BIXTIzKVtDQEhdKFtDSDJdMylbQ0gyXVtDSDJdMg==

> <s_epik_cmdline>
J2VwaWtfcHl0aG9uJywgJy1waCcsICc3LjAnLCAnLXRuJywgJzgnLCAnLW1hJywgJzIwMCcsICctbWV0YWxfYmluZGluZycsICctaW1hZScsICc8aW5maWxlLm1hZT4nLCAnLW9tYWUnLCAnPG91dGZpbGUubWFlPic=

> <r_lp_tautomer_probability>
1

> <r_epik_Ionization_Penalty>
2.01576e-08

> <r_epik_Ionization_Penalty_Charging>
0

> <r_epik_Ionization_Penalty_Neutral>
2.01576e-08

> <r_epik_State_Penalty>
-0

> <r_epik_Charging_Adjusted_Penalty>
0

> <i_epik_Tot_Q>
0

> <i_epik_Tot_abs_Q>
0

> <r_epik_Metal_State_Penalty>
-0

> <b_epik_Metal_Only>
0

> <s_lp_Force_Field>
OPLS_2005

> <r_lp_Energy>
45.5395

> <b_lp_Chiralities_Consistent>
1

> <s_lp_Variant>
AV-unprocessed.smi:1686-2

> <Gold.Version>
5.8.1

> <Gold.Id.Protein>
6NUR|6NUR_protein|mol2

> <Gold.PLP.Fitness>
41.0002

> <Gold.PLP.PLP>
-38.0103

> <Gold.PLP.part.hbond>
-2.6904

> <Gold.PLP.part.metal>
0.0000

> <Gold.PLP.part.buried>
-4.7698

> <Gold.PLP.part.nonpolar>
-32.2130

> <Gold.PLP.part.repulsive>
0.3032

> <Gold.PLP.ligand.clash>
0.0000

> <Gold.PLP.ligand.torsion>
1.2015

> <Gold.PLP.Chemscore.Hbond>
1.7930

> <Gold.PLP.Chemscore.CHOScore>
0.0000

> <Gold.PLP.Chemscore.Metal>
0.0000

> <Gold.Chemscore.Hbonds>
donor molecule, donor type, donor heavy atom, donor atom, acceptor molecule, acceptor atom, score
      L1  H    11    26       P1  8028  1.00
      P1  H  6934  6946       L1    10  0.82

> <Gold.PLP.Chemscore.Internal.Correction>
0.0140

> <Gold.Rescore>
     Score         DG    S(hbond)    S(metal)    S(lipo)     H(rot)  DE(clash)    DE(int)     intcor
     18.30     -19.36       1.43        0.00     109.79       1.46       0.07       0.99       ----

> <Gold.Chemscore.Fitness>
18.2972

> <Gold.Chemscore.DG>
-19.3560

> <Gold.Chemscore.ZeroCoef>
-5.4800

> <Gold.Chemscore.Hbond>
1.4314

> <Gold.Chemscore.Metal>
0.0000

> <Gold.Chemscore.Lipo>
109.7888

> <Gold.Chemscore.Internal_Hbond>
0.0000

> <Gold.Chemscore.DEClash>
0.0652

> <Gold.Chemscore.DEInternal>
0.9937

> <Gold.Chemscore.Rot>
1.4648

> <Gold.Chemscore.Internal.Correction>
   9.000000E+99

> <Gold.Chemscore.Hbonds>
donor molecule, donor type, donor heavy atom, donor atom, acceptor molecule, acceptor atom, score
      L1  H    11    26       P1  8028  0.38
      P1  H  6934  6946       L1    10  0.81

> <Gold.Chemscore.Hbond.Weighted>
-4.7807

> <Gold.Chemscore.Metal.Weighted>
-0.0000

> <Gold.Chemscore.Lipo.Weighted>
-12.8453

> <Gold.Chemscore.Internal_Hbond.Weighted>
0.0000

> <Gold.Chemscore.DEClash.Weighted>
0.0652

> <Gold.Chemscore.DEInternal.Weighted>
0.9937

> <Gold.Chemscore.Rot.Weighted>
3.7500

> <Gold.Chemscore.Internal.Correction.Weighted>
   9.000000E+99

> <Gold.Protein.RotatedTorsions>
[ 6907 6896 6895 6894 ] final  -73.74 input  -60.11 | X-H torsion
[ 7974 7965 7964 7962 ] final  -69.28 input  175.53 | X-H torsion
[ 8008 7997 7996 7995 ] final  119.18 input   59.86 | X-H torsion
[ 10167 10162 10161 10158 ] final -107.06 input  -65.29 | X-H torsion
[ 10718 10713 10712 10709 ] final   11.35 input   66.30 | X-H torsion
[ 10763 10752 10751 10750 ] final  102.47 input  -60.55 | X-H torsion
[ 11005 11000 10999 10996 ] final    9.39 input  -57.11 | X-H torsion

> <Gold.Protein.ActiveResidues>
 VAL166  LYS551  ARG553  GLY616  TRP617  ASP618  TYR619  PRO620  LYS621  CYS622 
 ASP623  PHE694  ASN695  SER759  ASP760  ASP761  ALA762  ILE779  LEU786  VAL792 
 PHE793  MET794  SER795  GLU796  ALA797  LYS798  CYS799  TRP800  GLU811  SER814 

> <Gold.Protein.RotatedAtoms>
  150.7119  134.4972  159.5543 H   0  0  0  0  0  0  0  0  0  0  0  0  # atno 6907 bound_to 6896
  152.2577  134.8064  160.0445 H   0  0  0  0  0  0  0  0  0  0  0  0  # atno 6908 bound_to 6896
  151.8789  133.3456  159.3796 H   0  0  0  0  0  0  0  0  0  0  0  0  # atno 6909 bound_to 6896
  145.7058  140.9098  143.0707 H   0  0  0  0  0  0  0  0  0  0  0  0  # atno 7974 bound_to 7965
  156.2583  140.2858  156.0952 H   0  0  0  0  0  0  0  0  0  0  0  0  # atno 8008 bound_to 7997
  155.1420  140.0395  157.2818 H   0  0  0  0  0  0  0  0  0  0  0  0  # atno 8009 bound_to 7997
  154.6523  140.2547  155.7206 H   0  0  0  0  0  0  0  0  0  0  0  0  # atno 8010 bound_to 7997
  140.1810  143.3967  152.1281 H   0  0  0  0  0  0  0  0  0  0  0  0  # atno 10167 bound_to 10162
  156.9942  130.6054  149.5689 H   0  0  0  0  0  0  0  0  0  0  0  0  # atno 10718 bound_to 10713
  153.3400  135.4009  155.1564 H   0  0  0  0  0  0  0  0  0  0  0  0  # atno 10763 bound_to 10752
  154.8641  135.3631  154.5358 H   0  0  0  0  0  0  0  0  0  0  0  0  # atno 10764 bound_to 10752
  153.5803  135.7076  153.5526 H   0  0  0  0  0  0  0  0  0  0  0  0  # atno 10765 bound_to 10752
  140.5263  134.0510  155.7860 H   0  0  0  0  0  0  0  0  0  0  0  0  # atno 11005 bound_to 11000
  144.6955  139.9008  143.7458 LP  0  0  0  0  0  0  0  0  0  0  0  0  # atno 17320 bound_to 7965
  146.0757  139.3745  143.0495 LP  0  0  0  0  0  0  0  0  0  0  0  0  # atno 17321 bound_to 7965
  139.5296  144.7144  151.5103 LP  0  0  0  0  0  0  0  0  0  0  0  0  # atno 17342 bound_to 10162
  140.6520  143.8678  150.6795 LP  0  0  0  0  0  0  0  0  0  0  0  0  # atno 17343 bound_to 10162
  156.0195  130.5290  150.8235 LP  0  0  0  0  0  0  0  0  0  0  0  0  # atno 17370 bound_to 10713
  157.5437  131.0941  150.9793 LP  0  0  0  0  0  0  0  0  0  0  0  0  # atno 17371 bound_to 10713
  141.1306  133.9308  157.2543 LP  0  0  0  0  0  0  0  0  0  0  0  0  # atno 17394 bound_to 11000
  139.9578  135.0161  156.9177 LP  0  0  0  0  0  0  0  0  0  0  0  0  # atno 17395 bound_to 11000

$$$$
