AV-unprocessed.smi:2850|AV-procd|sdf|10965|dock6
  -GOLD-   2272015413D 1   1.00000     0.00000
 Structure written by MMmdl.
 45 46  0  0  0  0  0  0  0  0  2 V2000
  148.8741  133.0564  154.2404 C   0  0  0  0  0  0  0  0  0  0  0  0
  149.8143  134.0902  155.3975 S   0  0  0  0  0  0  0  0  0  0  0  0
  149.3426  135.7676  155.1030 C   0  0  0  0  0  0  0  0  0  0  0  0
  150.3048  136.7309  154.7511 C   0  0  0  0  0  0  0  0  0  0  0  0
  149.8456  138.0409  154.5305 C   0  0  0  0  0  0  0  0  0  0  0  0
  148.4652  138.2858  154.6769 C   0  0  0  0  0  0  0  0  0  0  0  0
  147.9832  139.5834  154.4537 N   0  0  0  0  0  0  0  0  0  0  0  0
  148.8795  140.7066  154.2025 C   0  0  0  0  0  0  0  0  0  0  0  0
  148.9581  141.6953  155.3809 C   0  0  2  0  0  0  0  0  0  0  0  0
  150.3062  141.6349  156.1288 C   0  0  0  0  0  0  0  0  0  0  0  0
  150.2942  142.5495  157.2947 N   0  3  2  0  0  0  0  0  0  0  0  0
  151.6016  142.5911  157.9989 C   0  0  0  0  0  0  0  0  0  0  0  0
  151.5698  143.4416  159.2874 C   0  0  0  0  0  0  0  0  0  0  0  0
  151.9719  144.9027  159.0232 C   0  0  0  0  0  0  0  0  0  0  0  0
  152.4747  142.8239  160.3638 C   0  0  0  0  0  0  0  0  0  0  0  0
  149.1460  142.2382  158.1808 C   0  0  0  0  0  0  0  0  0  0  0  0
  147.8332  142.2644  157.3815 C   0  0  0  0  0  0  0  0  0  0  0  0
  147.9188  141.3547  156.2920 O   0  0  0  0  0  0  0  0  0  0  0  0
  147.5954  137.3025  155.0216 N   0  0  0  0  0  0  0  0  0  0  0  0
  148.0270  136.0540  155.2314 N   0  0  0  0  0  0  0  0  0  0  0  0
  149.1292  132.0067  154.3844 H   0  0  0  0  0  0  0  0  0  0  0  0
  149.1040  133.3284  153.2101 H   0  0  0  0  0  0  0  0  0  0  0  0
  147.8030  133.1767  154.4046 H   0  0  0  0  0  0  0  0  0  0  0  0
  151.3501  136.4773  154.6538 H   0  0  0  0  0  0  0  0  0  0  0  0
  150.5320  138.8286  154.2562 H   0  0  0  0  0  0  0  0  0  0  0  0
  146.9874  139.7517  154.4632 H   0  0  0  0  0  0  0  0  0  0  0  0
  149.8740  140.3281  153.9628 H   0  0  0  0  0  0  0  0  0  0  0  0
  148.5309  141.2263  153.3096 H   0  0  0  0  0  0  0  0  0  0  0  0
  148.7850  142.7097  155.0178 H   0  0  0  0  0  0  0  0  0  0  0  0
  150.5105  140.6164  156.4635 H   0  0  0  0  0  0  0  0  0  0  0  0
  151.1146  141.9204  155.4547 H   0  0  0  0  0  0  0  0  0  0  0  0
  151.9233  141.5717  158.2178 H   0  0  0  0  0  0  0  0  0  0  0  0
  152.3573  143.0104  157.3327 H   0  0  0  0  0  0  0  0  0  0  0  0
  150.5581  143.4401  159.6921 H   0  0  0  0  0  0  0  0  0  0  0  0
  152.9811  144.9696  158.6151 H   0  0  0  0  0  0  0  0  0  0  0  0
  151.9475  145.4877  159.9431 H   0  0  0  0  0  0  0  0  0  0  0  0
  151.2944  145.3835  158.3173 H   0  0  0  0  0  0  0  0  0  0  0  0
  153.5159  142.7983  160.0405 H   0  0  0  0  0  0  0  0  0  0  0  0
  152.1726  141.8019  160.5945 H   0  0  0  0  0  0  0  0  0  0  0  0
  152.4293  143.3954  161.2914 H   0  0  0  0  0  0  0  0  0  0  0  0
  149.2874  141.2549  158.6319 H   0  0  0  0  0  0  0  0  0  0  0  0
  149.0823  142.9578  158.9961 H   0  0  0  0  0  0  0  0  0  0  0  0
  146.9990  141.9731  158.0199 H   0  0  0  0  0  0  0  0  0  0  0  0
  147.6184  143.2702  157.0166 H   0  0  0  0  0  0  0  0  0  0  0  0
  150.1397  143.4760  156.9229 H   0  0  0  0  0  0  0  0  0  0  0  0
  1  2  1  0  0  0  0
  1 21  1  0  0  0  0
  1 22  1  0  0  0  0
  1 23  1  0  0  0  0
  2  3  1  0  0  0  0
  3 20  1  0  0  0  0
  3  4  2  0  0  0  0
  4  5  1  0  0  0  0
  4 24  1  0  0  0  0
  5  6  2  0  0  0  0
  5 25  1  0  0  0  0
  6  7  1  0  0  0  0
  6 19  1  0  0  0  0
  7  8  1  0  0  0  0
  7 26  1  0  0  0  0
  8  9  1  0  0  0  0
  8 27  1  0  0  0  0
  8 28  1  0  0  0  0
  9 18  1  0  0  0  0
  9 10  1  0  0  0  0
  9 29  1  0  0  0  0
 10 11  1  0  0  0  0
 10 30  1  0  0  0  0
 10 31  1  0  0  0  0
 11 12  1  0  0  0  0
 11 16  1  0  0  0  0
 11 45  1  0  0  0  0
 12 13  1  0  0  0  0
 12 32  1  0  0  0  0
 12 33  1  0  0  0  0
 13 14  1  0  0  0  0
 13 15  1  0  0  0  0
 13 34  1  0  0  0  0
 14 35  1  0  0  0  0
 14 36  1  0  0  0  0
 14 37  1  0  0  0  0
 15 38  1  0  0  0  0
 15 39  1  0  0  0  0
 15 40  1  0  0  0  0
 16 17  1  0  0  0  0
 16 41  1  0  0  0  0
 16 42  1  0  0  0  0
 17 18  1  0  0  0  0
 17 43  1  0  0  0  0
 17 44  1  0  0  0  0
 19 20  2  0  0  0  0
M  CHG  1  11   1
M  END
> <s_m_source_file>
AV-unprocessed.smi

> <i_m_source_file_index>
2850

> <i_lp_mmshare_version>
43012

> <i_f3d_flags>
0

> <s_epik_input>
W0NIM11TYzFbY0hdW2NIXWMobm4xKVtOSF1bQ0gyXVtDQEBIXTJbQ0gyXU4oW0NIMl1bQ0gyXU8yKVtDSDJdW0NIXShbQ0gzXSlbQ0gzXQ==

> <s_epik_cmdline>
J2VwaWtfcHl0aG9uJywgJy1waCcsICc3LjAnLCAnLXRuJywgJzgnLCAnLW1hJywgJzIwMCcsICctbWV0YWxfYmluZGluZycsICctaW1hZScsICc8aW5maWxlLm1hZT4nLCAnLW9tYWUnLCAnPG91dGZpbGUubWFlPic=

> <r_lp_tautomer_probability>
0.999978

> <r_epik_Ionization_Penalty>
0.0874875

> <r_epik_Ionization_Penalty_Charging>
0.0831532

> <r_epik_Ionization_Penalty_Neutral>
0.00433433

> <r_epik_State_Penalty>
0.0738301

> <r_epik_Charging_Adjusted_Penalty>
0.156983

> <i_epik_Tot_Q>
1

> <i_epik_Tot_abs_Q>
1

> <r_epik_Metal_State_Penalty>
0.073888

> <b_epik_Metal_Only>
0

> <s_lp_Force_Field>
OPLS_2005

> <r_lp_Energy>
24.5925

> <b_lp_Chiralities_Consistent>
1

> <s_lp_Variant>
AV-unprocessed.smi:2850-1

> <Gold.Version>
5.8.1

> <Gold.Id.Protein>
6NUR|6NUR_protein|mol2

> <Gold.PLP.Fitness>
39.3912

> <Gold.PLP.PLP>
-35.7376

> <Gold.PLP.part.hbond>
-1.0000

> <Gold.PLP.part.metal>
0.0000

> <Gold.PLP.part.buried>
-2.8800

> <Gold.PLP.part.nonpolar>
-32.7517

> <Gold.PLP.part.repulsive>
0.2965

> <Gold.PLP.ligand.clash>
0.0000

> <Gold.PLP.ligand.torsion>
1.2469

> <Gold.PLP.Chemscore.Hbond>
2.0000

> <Gold.PLP.Chemscore.CHOScore>
0.0000

> <Gold.PLP.Chemscore.Metal>
0.0000

> <Gold.Chemscore.Hbonds>
donor molecule, donor type, donor heavy atom, donor atom, acceptor molecule, acceptor atom, score
      L1  H    11    45       P1  8028  1.24

> <Gold.PLP.Chemscore.Internal.Correction>
0.1475

> <Gold.Rescore>
     Score         DG    S(hbond)    S(metal)    S(lipo)     H(rot)  DE(clash)    DE(int)     intcor
     15.26     -17.04       0.99        0.00     105.49       1.60       0.17       1.61       ----

> <Gold.Chemscore.Fitness>
15.2647

> <Gold.Chemscore.DG>
-17.0432

> <Gold.Chemscore.ZeroCoef>
-5.4800

> <Gold.Chemscore.Hbond>
0.9934

> <Gold.Chemscore.Metal>
0.0000

> <Gold.Chemscore.Lipo>
105.4866

> <Gold.Chemscore.Internal_Hbond>
0.0000

> <Gold.Chemscore.DEClash>
0.1711

> <Gold.Chemscore.DEInternal>
1.6075

> <Gold.Chemscore.Rot>
1.6003

> <Gold.Chemscore.Internal.Correction>
   9.000000E+99

> <Gold.Chemscore.Hbonds>
donor molecule, donor type, donor heavy atom, donor atom, acceptor molecule, acceptor atom, score
      L1  H    11    45       P1  8028  0.61

> <Gold.Chemscore.Hbond.Weighted>
-3.3181

> <Gold.Chemscore.Metal.Weighted>
-0.0000

> <Gold.Chemscore.Lipo.Weighted>
-12.3419

> <Gold.Chemscore.Internal_Hbond.Weighted>
0.0000

> <Gold.Chemscore.DEClash.Weighted>
0.1711

> <Gold.Chemscore.DEInternal.Weighted>
1.6075

> <Gold.Chemscore.Rot.Weighted>
4.0968

> <Gold.Chemscore.Internal.Correction.Weighted>
   9.000000E+99

> <Gold.Protein.RotatedTorsions>
[ 6907 6896 6895 6894 ] final  -60.60 input  -60.11 | X-H torsion
[ 7974 7965 7964 7962 ] final   -3.09 input  175.53 | X-H torsion
[ 8008 7997 7996 7995 ] final  173.94 input   59.86 | X-H torsion
[ 10167 10162 10161 10158 ] final   82.34 input  -65.29 | X-H torsion
[ 10718 10713 10712 10709 ] final  -31.49 input   66.30 | X-H torsion
[ 10763 10752 10751 10750 ] final -157.86 input  -60.55 | X-H torsion
[ 11005 11000 10999 10996 ] final  -53.30 input  -57.11 | X-H torsion

> <Gold.Protein.ActiveResidues>
 VAL166  LYS551  ARG553  GLY616  TRP617  ASP618  TYR619  PRO620  LYS621  CYS622 
 ASP623  PHE694  ASN695  SER759  ASP760  ASP761  ALA762  ILE779  LEU786  VAL792 
 PHE793  MET794  SER795  GLU796  ALA797  LYS798  CYS799  TRP800  GLU811  SER814 

> <Gold.Protein.RotatedAtoms>
  150.7844  134.6815  159.6446 H   0  0  0  0  0  0  0  0  0  0  0  0  # atno 6907 bound_to 6896
  152.3937  134.6397  160.0106 H   0  0  0  0  0  0  0  0  0  0  0  0  # atno 6908 bound_to 6896
  151.6690  133.3278  159.3228 H   0  0  0  0  0  0  0  0  0  0  0  0  # atno 6909 bound_to 6896
  146.2395  140.1668  142.8332 H   0  0  0  0  0  0  0  0  0  0  0  0  # atno 7974 bound_to 7965
  156.1025  140.1447  156.9449 H   0  0  0  0  0  0  0  0  0  0  0  0  # atno 8008 bound_to 7997
  154.4711  140.0909  156.7193 H   0  0  0  0  0  0  0  0  0  0  0  0  # atno 8009 bound_to 7997
  155.4736  140.3442  155.4331 H   0  0  0  0  0  0  0  0  0  0  0  0  # atno 8010 bound_to 7997
  139.9298  144.6159  150.8356 H   0  0  0  0  0  0  0  0  0  0  0  0  # atno 10167 bound_to 10162
  156.3867  130.4365  149.7426 H   0  0  0  0  0  0  0  0  0  0  0  0  # atno 10718 bound_to 10713
  154.7603  135.3116  154.8391 H   0  0  0  0  0  0  0  0  0  0  0  0  # atno 10763 bound_to 10752
  153.9154  135.6801  153.4753 H   0  0  0  0  0  0  0  0  0  0  0  0  # atno 10764 bound_to 10752
  153.1203  135.4825  154.9116 H   0  0  0  0  0  0  0  0  0  0  0  0  # atno 10765 bound_to 10752
  141.0969  133.6623  156.4152 H   0  0  0  0  0  0  0  0  0  0  0  0  # atno 11005 bound_to 11000
  145.0044  140.8660  143.5262 LP  0  0  0  0  0  0  0  0  0  0  0  0  # atno 17320 bound_to 7965
  145.1692  139.2414  143.5351 LP  0  0  0  0  0  0  0  0  0  0  0  0  # atno 17321 bound_to 7965
  140.7640  143.3238  151.2561 LP  0  0  0  0  0  0  0  0  0  0  0  0  # atno 17342 bound_to 10162
  139.6792  143.9885  152.2798 LP  0  0  0  0  0  0  0  0  0  0  0  0  # atno 17343 bound_to 10162
  156.4496  130.7900  151.2921 LP  0  0  0  0  0  0  0  0  0  0  0  0  # atno 17370 bound_to 10713
  157.7496  131.0099  150.3287 LP  0  0  0  0  0  0  0  0  0  0  0  0  # atno 17371 bound_to 10713
  140.5118  134.6387  157.5287 LP  0  0  0  0  0  0  0  0  0  0  0  0  # atno 17394 bound_to 11000
  139.9808  134.7140  155.9863 LP  0  0  0  0  0  0  0  0  0  0  0  0  # atno 17395 bound_to 11000

$$$$
