AV-unprocessed.smi:1329|AV-procd|sdf|5484|dock1
  -GOLD-   22720 5 53D 1   1.00000     0.00000
 Structure written by MMmdl.
 42 43  0  0  0  0  0  0  0  0  1 V2000
  153.1725  136.9942  165.2384 C   0  0  0  0  0  0  0  0  0  0  0  0
  153.5500  136.4907  163.8715 C   0  0  0  0  0  0  0  0  0  0  0  0
  153.3133  137.2801  162.8757 N   0  0  0  0  0  0  0  0  0  0  0  0
  153.6173  136.9140  161.5796 N   0  0  0  0  0  0  0  0  0  0  0  0
  153.2600  137.9242  160.5757 C   0  0  0  0  0  0  0  0  0  0  0  0
  153.9581  139.2762  160.8440 C   0  0  1  0  0  0  0  0  0  0  0  0
  155.3184  139.1388  160.4824 O   0  0  0  0  0  0  0  0  0  0  0  0
  153.3716  140.4091  159.9853 C   0  0  0  0  0  0  0  0  0  0  0  0
  153.7879  141.6542  160.5221 O   0  0  0  0  0  0  0  0  0  0  0  0
  152.7426  142.3504  161.1782 C   0  0  0  0  0  0  0  0  0  0  0  0
  152.1505  143.4187  160.2821 C   0  0  0  0  0  0  0  0  0  0  0  0
  151.2213  144.3455  160.7995 C   0  0  0  0  0  0  0  0  0  0  0  0
  150.6775  145.3419  159.9652 C   0  0  0  0  0  0  0  0  0  0  0  0
  151.0614  145.4148  158.6120 C   0  0  0  0  0  0  0  0  0  0  0  0
  151.9902  144.4921  158.0932 C   0  0  0  0  0  0  0  0  0  0  0  0
  152.5349  143.4960  158.9272 C   0  0  0  0  0  0  0  0  0  0  0  0
  154.1831  135.7261  161.2203 C   0  0  0  0  0  0  0  0  0  0  0  0
  154.4340  135.4389  160.0489 O   0  0  0  0  0  0  0  0  0  0  0  0
  154.4506  134.8372  162.3532 C   0  0  0  0  0  0  0  0  0  0  0  0
  155.0394  133.5800  162.0210 C   0  0  0  0  0  0  0  0  0  0  0  0
  155.4980  132.5538  161.7445 N   0  0  0  0  0  0  0  0  0  0  0  0
  154.1542  135.1842  163.6305 C   0  0  0  0  0  0  0  0  0  0  0  0
  154.4074  134.2960  164.8410 C   0  0  0  0  0  0  0  0  0  0  0  0
  154.0506  137.0666  165.8804 H   0  0  0  0  0  0  0  0  0  0  0  0
  152.4590  136.3219  165.7152 H   0  0  0  0  0  0  0  0  0  0  0  0
  152.7136  137.9831  165.1957 H   0  0  0  0  0  0  0  0  0  0  0  0
  153.4834  137.5704  159.5668 H   0  0  0  0  0  0  0  0  0  0  0  0
  152.1765  138.0549  160.5883 H   0  0  0  0  0  0  0  0  0  0  0  0
  153.8786  139.5445  161.8983 H   0  0  0  0  0  0  0  0  0  0  0  0
  155.5167  139.7788  159.8161 H   0  0  0  0  0  0  0  0  0  0  0  0
  153.6629  140.3066  158.9382 H   0  0  0  0  0  0  0  0  0  0  0  0
  152.2816  140.3754  160.0219 H   0  0  0  0  0  0  0  0  0  0  0  0
  151.9549  141.6533  161.4688 H   0  0  0  0  0  0  0  0  0  0  0  0
  153.1160  142.8116  162.0942 H   0  0  0  0  0  0  0  0  0  0  0  0
  150.9252  144.2971  161.8373 H   0  0  0  0  0  0  0  0  0  0  0  0
  149.9668  146.0508  160.3636 H   0  0  0  0  0  0  0  0  0  0  0  0
  150.6449  146.1790  157.9725 H   0  0  0  0  0  0  0  0  0  0  0  0
  152.2864  144.5488  157.0559 H   0  0  0  0  0  0  0  0  0  0  0  0
  153.2500  142.7930  158.5255 H   0  0  0  0  0  0  0  0  0  0  0  0
  154.8925  133.3584  164.5713 H   0  0  0  0  0  0  0  0  0  0  0  0
  153.4675  134.0490  165.3354 H   0  0  0  0  0  0  0  0  0  0  0  0
  155.0524  134.8011  165.5604 H   0  0  0  0  0  0  0  0  0  0  0  0
  1  2  1  0  0  0  0
  1 24  1  0  0  0  0
  1 25  1  0  0  0  0
  1 26  1  0  0  0  0
  2 22  1  0  0  0  0
  2  3  2  0  0  0  0
  3  4  1  0  0  0  0
  4  5  1  0  0  0  0
  4 17  1  0  0  0  0
  5  6  1  0  0  0  0
  5 27  1  0  0  0  0
  5 28  1  0  0  0  0
  6  7  1  0  0  0  0
  6  8  1  0  0  0  0
  6 29  1  0  0  0  0
  7 30  1  0  0  0  0
  8  9  1  0  0  0  0
  8 31  1  0  0  0  0
  8 32  1  0  0  0  0
  9 10  1  0  0  0  0
 10 11  1  0  0  0  0
 10 33  1  0  0  0  0
 10 34  1  0  0  0  0
 11 16  1  0  0  0  0
 11 12  2  0  0  0  0
 12 13  1  0  0  0  0
 12 35  1  0  0  0  0
 13 14  2  0  0  0  0
 13 36  1  0  0  0  0
 14 15  1  0  0  0  0
 14 37  1  0  0  0  0
 15 16  2  0  0  0  0
 15 38  1  0  0  0  0
 16 39  1  0  0  0  0
 17 18  2  0  0  0  0
 17 19  1  0  0  0  0
 19 20  1  0  0  0  0
 19 22  2  0  0  0  0
 20 21  3  0  0  0  0
 22 23  1  0  0  0  0
 23 40  1  0  0  0  0
 23 41  1  0  0  0  0
 23 42  1  0  0  0  0
M  END
> <s_m_source_file>
AV-unprocessed.smi

> <i_m_source_file_index>
1329

> <i_lp_mmshare_version>
43012

> <i_f3d_flags>
0

> <s_epik_input>
TiNDYyhjMVtDSDNdKWMoPU8pbihuYzFbQ0gzXSlbQ0gyXVtDQEhdKFtPSF0pW0NIMl1PW0NIMl1jMltjSF1bY0hdW2NIXVtjSF1bY0hdMg==

> <s_epik_cmdline>
J2VwaWtfcHl0aG9uJywgJy1waCcsICc3LjAnLCAnLXRuJywgJzgnLCAnLW1hJywgJzIwMCcsICctbWV0YWxfYmluZGluZycsICctaW1hZScsICc8aW5maWxlLm1hZT4nLCAnLW9tYWUnLCAnPG91dGZpbGUubWFlPic=

> <r_lp_tautomer_probability>
1

> <r_epik_Ionization_Penalty>
6.13319e-08

> <r_epik_Ionization_Penalty_Charging>
2.19172e-10

> <r_epik_Ionization_Penalty_Neutral>
6.11128e-08

> <r_epik_State_Penalty>
-0

> <r_epik_Charging_Adjusted_Penalty>
2.19172e-10

> <i_epik_Tot_Q>
0

> <i_epik_Tot_abs_Q>
0

> <r_epik_Metal_State_Penalty>
-0

> <b_epik_Metal_Only>
0

> <s_lp_Force_Field>
OPLS_2005

> <r_lp_Energy>
31.6334

> <b_lp_Chiralities_Consistent>
1

> <s_lp_Variant>
AV-unprocessed.smi:1329-2

> <Gold.Version>
5.8.1

> <Gold.Id.Protein>
6NUR|6NUR_protein|mol2

> <Gold.PLP.Fitness>
51.4150

> <Gold.PLP.PLP>
-50.0195

> <Gold.PLP.part.hbond>
-1.0000

> <Gold.PLP.part.metal>
0.0000

> <Gold.PLP.part.buried>
-2.7593

> <Gold.PLP.part.nonpolar>
-47.4024

> <Gold.PLP.part.repulsive>
0.0000

> <Gold.PLP.ligand.clash>
0.0000

> <Gold.PLP.ligand.torsion>
0.9009

> <Gold.PLP.Chemscore.Hbond>
1.0000

> <Gold.PLP.Chemscore.CHOScore>
0.0000

> <Gold.PLP.Chemscore.Metal>
0.0000

> <Gold.Chemscore.Hbonds>
donor molecule, donor type, donor heavy atom, donor atom, acceptor molecule, acceptor atom, score
      P1  H  6896  6907       L1    18  0.29

> <Gold.PLP.Chemscore.Internal.Correction>
0.1972

> <Gold.Rescore>
     Score         DG    S(hbond)    S(metal)    S(lipo)     H(rot)  DE(clash)    DE(int)     intcor
     16.72     -18.98       0.88        0.00     144.55       2.48       1.18       1.08       ----

> <Gold.Chemscore.Fitness>
16.7153

> <Gold.Chemscore.DG>
-18.9790

> <Gold.Chemscore.ZeroCoef>
-5.4800

> <Gold.Chemscore.Hbond>
0.8770

> <Gold.Chemscore.Metal>
0.0000

> <Gold.Chemscore.Lipo>
144.5527

> <Gold.Chemscore.Internal_Hbond>
0.0000

> <Gold.Chemscore.DEClash>
1.1807

> <Gold.Chemscore.DEInternal>
1.0829

> <Gold.Chemscore.Rot>
2.4777

> <Gold.Chemscore.Internal.Correction>
   9.000000E+99

> <Gold.Chemscore.Hbonds>
donor molecule, donor type, donor heavy atom, donor atom, acceptor molecule, acceptor atom, score
      P1  H  6896  6907       L1    18  0.02

> <Gold.Chemscore.Hbond.Weighted>
-2.9291

> <Gold.Chemscore.Metal.Weighted>
-0.0000

> <Gold.Chemscore.Lipo.Weighted>
-16.9127

> <Gold.Chemscore.Internal_Hbond.Weighted>
0.0000

> <Gold.Chemscore.DEClash.Weighted>
1.1807

> <Gold.Chemscore.DEInternal.Weighted>
1.0829

> <Gold.Chemscore.Rot.Weighted>
6.3428

> <Gold.Chemscore.Internal.Correction.Weighted>
   9.000000E+99

> <Gold.Protein.RotatedTorsions>
[ 6907 6896 6895 6894 ] final   91.89 input  -60.11 | X-H torsion
[ 7974 7965 7964 7962 ] final  135.74 input  175.53 | X-H torsion
[ 8008 7997 7996 7995 ] final  151.44 input   59.86 | X-H torsion
[ 10167 10162 10161 10158 ] final  129.34 input  -65.29 | X-H torsion
[ 10718 10713 10712 10709 ] final  150.78 input   66.30 | X-H torsion
[ 10763 10752 10751 10750 ] final -150.04 input  -60.55 | X-H torsion
[ 11005 11000 10999 10996 ] final -171.54 input  -57.11 | X-H torsion

> <Gold.Protein.ActiveResidues>
 VAL166  LYS551  ARG553  GLY616  TRP617  ASP618  TYR619  PRO620  LYS621  CYS622 
 ASP623  PHE694  ASN695  SER759  ASP760  ASP761  ALA762  ILE779  LEU786  VAL792 
 PHE793  MET794  SER795  GLU796  ALA797  LYS798  CYS799  TRP800  GLU811  SER814 

> <Gold.Protein.RotatedAtoms>
  152.5451  134.1586  159.8548 H   0  0  0  0  0  0  0  0  0  0  0  0  # atno 6907 bound_to 6896
  151.1606  133.4840  159.2602 H   0  0  0  0  0  0  0  0  0  0  0  0  # atno 6908 bound_to 6896
  151.1376  135.0174  159.8666 H   0  0  0  0  0  0  0  0  0  0  0  0  # atno 6909 bound_to 6896
  144.9633  139.4686  143.5468 H   0  0  0  0  0  0  0  0  0  0  0  0  # atno 7974 bound_to 7965
  156.2674  140.2048  156.6176 H   0  0  0  0  0  0  0  0  0  0  0  0  # atno 8008 bound_to 7997
  154.6782  140.0543  157.0262 H   0  0  0  0  0  0  0  0  0  0  0  0  # atno 8009 bound_to 7997
  155.1038  140.3208  155.4543 H   0  0  0  0  0  0  0  0  0  0  0  0  # atno 8010 bound_to 7997
  139.5482  144.6791  151.4405 H   0  0  0  0  0  0  0  0  0  0  0  0  # atno 10167 bound_to 10162
  157.2791  131.0832  151.1544 H   0  0  0  0  0  0  0  0  0  0  0  0  # atno 10718 bound_to 10713
  154.8142  135.3294  154.7222 H   0  0  0  0  0  0  0  0  0  0  0  0  # atno 10763 bound_to 10752
  153.7866  135.6914  153.4883 H   0  0  0  0  0  0  0  0  0  0  0  0  # atno 10764 bound_to 10752
  153.1944  135.4539  155.0137 H   0  0  0  0  0  0  0  0  0  0  0  0  # atno 10765 bound_to 10752
  140.5071  134.5838  157.5007 H   0  0  0  0  0  0  0  0  0  0  0  0  # atno 11005 bound_to 11000
  146.3360  139.8798  142.8826 LP  0  0  0  0  0  0  0  0  0  0  0  0  # atno 17320 bound_to 7965
  145.2667  141.0095  143.3795 LP  0  0  0  0  0  0  0  0  0  0  0  0  # atno 17321 bound_to 7965
  140.6737  143.8237  150.7031 LP  0  0  0  0  0  0  0  0  0  0  0  0  # atno 17342 bound_to 10162
  140.1669  143.4228  152.2028 LP  0  0  0  0  0  0  0  0  0  0  0  0  # atno 17343 bound_to 10162
  157.2985  130.6831  149.6151 LP  0  0  0  0  0  0  0  0  0  0  0  0  # atno 17370 bound_to 10713
  155.9664  130.4399  150.5278 LP  0  0  0  0  0  0  0  0  0  0  0  0  # atno 17371 bound_to 10713
  139.9680  134.7340  156.0099 LP  0  0  0  0  0  0  0  0  0  0  0  0  # atno 17394 bound_to 11000
  141.1405  133.6566  156.3716 LP  0  0  0  0  0  0  0  0  0  0  0  0  # atno 17395 bound_to 11000

$$$$
