AV-unprocessed.smi:2063|AV-procd|sdf|8409|dock9
  -GOLD-   2272011103D 1   1.00000     0.00000
 Structure written by MMmdl.
 39 40  0  0  0  0  0  0  0  0  1 V2000
  151.6115  141.3047  157.4296 C   0  0  0  0  0  0  0  0  0  0  0  0
  150.3310  141.6054  156.6372 C   0  0  0  0  0  0  0  0  0  0  0  0
  149.1512  141.9748  157.5476 C   0  0  0  0  0  0  0  0  0  0  0  0
  149.9820  140.4942  155.6953 C   0  0  0  0  0  0  0  0  0  0  0  0
  150.8503  140.0130  154.7964 N   0  0  0  0  0  0  0  0  0  0  0  0
  150.3072  138.9914  154.0300 N   0  0  0  0  0  0  0  0  0  0  0  0
  149.0388  138.7289  154.3729 C   0  0  0  0  0  0  0  0  0  0  0  0
  148.2434  137.7300  153.7517 N   0  0  0  0  0  0  0  0  0  0  0  0
  146.9273  137.4988  153.9017 C   0  0  0  0  0  0  0  0  0  0  0  0
  146.1728  138.1343  154.6383 O   0  0  0  0  0  0  0  0  0  0  0  0
  146.5283  136.4699  153.1393 N   0  0  0  0  0  0  0  0  0  0  0  0
  145.1690  135.9381  153.0683 C   0  0  1  0  0  0  0  0  0  0  0  0
  144.1904  137.1164  152.9471 C   0  0  0  0  0  0  0  0  0  0  0  0
  145.0527  134.9566  151.8839 C   0  0  2  0  0  0  0  0  0  0  0  0
  143.7198  134.2132  151.7960 C   0  0  0  0  0  0  0  0  0  0  0  0
  144.0630  132.9645  151.0006 C   0  0  0  0  0  0  0  0  0  0  0  0
  145.5871  132.8626  151.1084 C   0  0  0  0  0  0  0  0  0  0  0  0
  145.9691  133.8813  152.0226 O   0  0  0  0  0  0  0  0  0  0  0  0
  148.3999  139.7170  155.6748 S   0  0  0  0  0  0  0  0  0  0  0  0
  152.4505  141.1131  156.7601 H   0  0  0  0  0  0  0  0  0  0  0  0
  151.4892  140.4304  158.0695 H   0  0  0  0  0  0  0  0  0  0  0  0
  151.8845  142.1458  158.0671 H   0  0  0  0  0  0  0  0  0  0  0  0
  150.5413  142.4853  156.0271 H   0  0  0  0  0  0  0  0  0  0  0  0
  148.2741  142.2488  156.9604 H   0  0  0  0  0  0  0  0  0  0  0  0
  149.3987  142.8238  158.1855 H   0  0  0  0  0  0  0  0  0  0  0  0
  148.8717  141.1439  158.1961 H   0  0  0  0  0  0  0  0  0  0  0  0
  148.7354  137.1180  153.1178 H   0  0  0  0  0  0  0  0  0  0  0  0
  147.2217  136.0079  152.5698 H   0  0  0  0  0  0  0  0  0  0  0  0
  144.9315  135.4055  153.9909 H   0  0  0  0  0  0  0  0  0  0  0  0
  143.1549  136.7759  152.9515 H   0  0  0  0  0  0  0  0  0  0  0  0
  144.3532  137.6752  152.0249 H   0  0  0  0  0  0  0  0  0  0  0  0
  144.3061  137.8089  153.7816 H   0  0  0  0  0  0  0  0  0  0  0  0
  145.2531  135.4701  150.9412 H   0  0  0  0  0  0  0  0  0  0  0  0
  143.3813  133.9285  152.7932 H   0  0  0  0  0  0  0  0  0  0  0  0
  142.9335  134.8068  151.3292 H   0  0  0  0  0  0  0  0  0  0  0  0
  143.5639  132.0860  151.4109 H   0  0  0  0  0  0  0  0  0  0  0  0
  143.7621  133.0658  149.9574 H   0  0  0  0  0  0  0  0  0  0  0  0
  145.9169  131.8841  151.4578 H   0  0  0  0  0  0  0  0  0  0  0  0
  146.0533  133.0538  150.1409 H   0  0  0  0  0  0  0  0  0  0  0  0
  1  2  1  0  0  0  0
  1 20  1  0  0  0  0
  1 21  1  0  0  0  0
  1 22  1  0  0  0  0
  2  3  1  0  0  0  0
  2  4  1  0  0  0  0
  2 23  1  0  0  0  0
  3 24  1  0  0  0  0
  3 25  1  0  0  0  0
  3 26  1  0  0  0  0
  4 19  1  0  0  0  0
  4  5  2  0  0  0  0
  5  6  1  0  0  0  0
  6  7  2  0  0  0  0
  7  8  1  0  0  0  0
  7 19  1  0  0  0  0
  8  9  1  0  0  0  0
  8 27  1  0  0  0  0
  9 10  2  0  0  0  0
  9 11  1  0  0  0  0
 11 12  1  0  0  0  0
 11 28  1  0  0  0  0
 12 13  1  0  0  0  0
 12 14  1  0  0  0  0
 12 29  1  0  0  0  0
 13 30  1  0  0  0  0
 13 31  1  0  0  0  0
 13 32  1  0  0  0  0
 14 18  1  0  0  0  0
 14 15  1  0  0  0  0
 14 33  1  0  0  0  0
 15 16  1  0  0  0  0
 15 34  1  0  0  0  0
 15 35  1  0  0  0  0
 16 17  1  0  0  0  0
 16 36  1  0  0  0  0
 16 37  1  0  0  0  0
 17 18  1  0  0  0  0
 17 38  1  0  0  0  0
 17 39  1  0  0  0  0
M  END
> <s_m_source_file>
AV-unprocessed.smi

> <i_m_source_file_index>
2063

> <i_lp_mmshare_version>
43012

> <i_f3d_flags>
0

> <s_epik_input>
W0NIM11bQ0hdKFtDSDNdKWMxbm5jKHMxKVtOSF1DKD1PKVtOSF1bQ0BIXShbQ0gzXSlbQ0BASF0yW0NIMl1bQ0gyXVtDSDJdTzI=

> <s_epik_cmdline>
J2VwaWtfcHl0aG9uJywgJy1waCcsICc3LjAnLCAnLXRuJywgJzgnLCAnLW1hJywgJzIwMCcsICctbWV0YWxfYmluZGluZycsICctaW1hZScsICc8aW5maWxlLm1hZT4nLCAnLW9tYWUnLCAnPG91dGZpbGUubWFlPic=

> <r_lp_tautomer_probability>
1

> <r_epik_Ionization_Penalty>
0.00050567

> <r_epik_Ionization_Penalty_Charging>
0

> <r_epik_Ionization_Penalty_Neutral>
0.00050567

> <r_epik_State_Penalty>
-0

> <r_epik_Charging_Adjusted_Penalty>
0

> <i_epik_Tot_Q>
0

> <i_epik_Tot_abs_Q>
0

> <r_epik_Metal_State_Penalty>
0.219912

> <b_epik_Metal_Only>
0

> <s_lp_Force_Field>
OPLS_2005

> <r_lp_Energy>
10.6095

> <b_lp_Chiralities_Consistent>
1

> <s_lp_Variant>
AV-unprocessed.smi:2063-2

> <Gold.Version>
5.8.1

> <Gold.Id.Protein>
6NUR|6NUR_protein|mol2

> <Gold.PLP.Fitness>
32.8530

> <Gold.PLP.PLP>
-24.9401

> <Gold.PLP.part.hbond>
-3.0148

> <Gold.PLP.part.metal>
0.0000

> <Gold.PLP.part.buried>
-5.5814

> <Gold.PLP.part.nonpolar>
-17.8665

> <Gold.PLP.part.repulsive>
0.5034

> <Gold.PLP.ligand.clash>
0.0000

> <Gold.PLP.ligand.torsion>
0.2297

> <Gold.PLP.Chemscore.Hbond>
2.7640

> <Gold.PLP.Chemscore.CHOScore>
0.0000

> <Gold.PLP.Chemscore.Metal>
0.0000

> <Gold.Chemscore.Hbonds>
donor molecule, donor type, donor heavy atom, donor atom, acceptor molecule, acceptor atom, score
      L1  H     8    27       P1  7948  1.00
      L1  H    11    28       P1  7948  0.86
      P1  H  7989  7998       L1     5  0.85

> <Gold.PLP.Chemscore.Internal.Correction>
0.0803

> <Gold.Rescore>
     Score         DG    S(hbond)    S(metal)    S(lipo)     H(rot)  DE(clash)    DE(int)     intcor
     12.72     -15.52       2.20        0.00      54.02       1.42       0.15       2.65       ----

> <Gold.Chemscore.Fitness>
12.7224

> <Gold.Chemscore.DG>
-15.5237

> <Gold.Chemscore.ZeroCoef>
-5.4800

> <Gold.Chemscore.Hbond>
2.1994

> <Gold.Chemscore.Metal>
0.0000

> <Gold.Chemscore.Lipo>
54.0220

> <Gold.Chemscore.Internal_Hbond>
0.0000

> <Gold.Chemscore.DEClash>
0.1497

> <Gold.Chemscore.DEInternal>
2.6515

> <Gold.Chemscore.Rot>
1.4152

> <Gold.Chemscore.Internal.Correction>
   9.000000E+99

> <Gold.Chemscore.Hbonds>
donor molecule, donor type, donor heavy atom, donor atom, acceptor molecule, acceptor atom, score
      L1  H     8    27       P1  7948  0.94
      L1  H    11    28       P1  7948  0.85
      P1  H  7989  7998       L1     5  0.15

> <Gold.Chemscore.Hbond.Weighted>
-7.3460

> <Gold.Chemscore.Metal.Weighted>
-0.0000

> <Gold.Chemscore.Lipo.Weighted>
-6.3206

> <Gold.Chemscore.Internal_Hbond.Weighted>
0.0000

> <Gold.Chemscore.DEClash.Weighted>
0.1497

> <Gold.Chemscore.DEInternal.Weighted>
2.6515

> <Gold.Chemscore.Rot.Weighted>
3.6229

> <Gold.Chemscore.Internal.Correction.Weighted>
   9.000000E+99

> <Gold.Protein.RotatedTorsions>
[ 6907 6896 6895 6894 ] final -115.96 input  -60.11 | X-H torsion
[ 7974 7965 7964 7962 ] final -156.54 input  175.53 | X-H torsion
[ 8008 7997 7996 7995 ] final  147.70 input   59.86 | X-H torsion
[ 10167 10162 10161 10158 ] final -169.00 input  -65.29 | X-H torsion
[ 10718 10713 10712 10709 ] final  148.19 input   66.30 | X-H torsion
[ 10763 10752 10751 10750 ] final -133.57 input  -60.55 | X-H torsion
[ 11005 11000 10999 10996 ] final  -91.74 input  -57.11 | X-H torsion

> <Gold.Protein.ActiveResidues>
 VAL166  LYS551  ARG553  GLY616  TRP617  ASP618  TYR619  PRO620  LYS621  CYS622 
 ASP623  PHE694  ASN695  SER759  ASP760  ASP761  ALA762  ILE779  LEU786  VAL792 
 PHE793  MET794  SER795  GLU796  ALA797  LYS798  CYS799  TRP800  GLU811  SER814 

> <Gold.Protein.RotatedAtoms>
  150.8018  133.8584  159.3224 H   0  0  0  0  0  0  0  0  0  0  0  0  # atno 6907 bound_to 6896
  151.6394  135.1012  160.0148 H   0  0  0  0  0  0  0  0  0  0  0  0  # atno 6908 bound_to 6896
  152.4106  133.6918  159.6429 H   0  0  0  0  0  0  0  0  0  0  0  0  # atno 6909 bound_to 6896
  144.7588  140.4095  143.5992 H   0  0  0  0  0  0  0  0  0  0  0  0  # atno 7974 bound_to 7965
  156.2816  140.2148  156.5580 H   0  0  0  0  0  0  0  0  0  0  0  0  # atno 8008 bound_to 7997
  154.7236  140.0501  157.0685 H   0  0  0  0  0  0  0  0  0  0  0  0  # atno 8009 bound_to 7997
  155.0446  140.3149  155.4716 H   0  0  0  0  0  0  0  0  0  0  0  0  # atno 8010 bound_to 7997
  139.5950  144.1132  152.1678 H   0  0  0  0  0  0  0  0  0  0  0  0  # atno 10167 bound_to 10162
  157.3116  131.0889  151.1312 H   0  0  0  0  0  0  0  0  0  0  0  0  # atno 10718 bound_to 10713
  154.8731  135.3762  154.4593 H   0  0  0  0  0  0  0  0  0  0  0  0  # atno 10763 bound_to 10752
  153.5263  135.7028  153.5711 H   0  0  0  0  0  0  0  0  0  0  0  0  # atno 10764 bound_to 10752
  153.3935  135.3966  155.1905 H   0  0  0  0  0  0  0  0  0  0  0  0  # atno 10765 bound_to 10752
  141.1538  133.7775  156.9922 H   0  0  0  0  0  0  0  0  0  0  0  0  # atno 11005 bound_to 11000
  145.6688  139.1595  143.2766 LP  0  0  0  0  0  0  0  0  0  0  0  0  # atno 17320 bound_to 7965
  146.1629  140.6761  142.9269 LP  0  0  0  0  0  0  0  0  0  0  0  0  # atno 17321 bound_to 7965
  140.0715  144.5775  150.7188 LP  0  0  0  0  0  0  0  0  0  0  0  0  # atno 17342 bound_to 10162
  140.7204  143.2583  151.4296 LP  0  0  0  0  0  0  0  0  0  0  0  0  # atno 17343 bound_to 10162
  157.2631  130.6668  149.5984 LP  0  0  0  0  0  0  0  0  0  0  0  0  # atno 17370 bound_to 10713
  155.9678  130.4502  150.5689 LP  0  0  0  0  0  0  0  0  0  0  0  0  # atno 17371 bound_to 10713
  140.0995  134.9544  157.1901 LP  0  0  0  0  0  0  0  0  0  0  0  0  # atno 17394 bound_to 11000
  140.3337  134.2781  155.7223 LP  0  0  0  0  0  0  0  0  0  0  0  0  # atno 17395 bound_to 11000

$$$$
