AV-unprocessed.smi:474|AV-procd|sdf|2665|dock5
  -GOLD-   2262023 83D 1   1.00000     0.00000
 Structure written by MMmdl.
 37 38  0  0  0  0  0  0  0  0  1 V2000
  137.7576  137.1298  154.3345 C   0  0  0  0  0  0  0  0  0  0  0  0
  139.2273  137.0856  154.0924 C   0  0  0  0  0  0  0  0  0  0  0  0
  140.0755  137.8791  153.3729 C   0  0  0  0  0  0  0  0  0  0  0  0
  141.3431  137.2601  153.5780 C   0  0  0  0  0  0  0  0  0  0  0  0
  142.5862  137.6922  153.0481 N   0  0  0  0  0  0  0  0  0  0  0  0
  143.6873  136.9637  152.7987 C   0  0  0  0  0  0  0  0  0  0  0  0
  143.8107  135.7586  153.0178 O   0  0  0  0  0  0  0  0  0  0  0  0
  144.6590  137.7208  152.2691 N   0  0  0  0  0  0  0  0  0  0  0  0
  145.9768  137.2384  151.8725 C   0  0  0  0  0  0  0  0  0  0  0  0
  145.9090  136.4136  150.5753 C   0  0  0  0  0  0  0  0  0  0  0  0
  145.6365  134.9403  150.8287 C   0  0  0  0  0  0  0  0  0  0  0  0
  144.5684  134.3117  150.3003 C   0  0  0  0  0  0  0  0  0  0  0  0
  144.2389  132.8474  150.5316 C   0  0  0  0  0  0  0  0  0  0  0  0
  145.0462  132.2401  151.6912 C   0  0  0  0  0  0  0  0  0  0  0  0
  146.5138  132.6816  151.6353 C   0  0  0  0  0  0  0  0  0  0  0  0
  146.6411  134.2135  151.7160 C   0  0  0  0  0  0  0  0  0  0  0  0
  141.2677  136.1901  154.3479 N   0  0  0  0  0  0  0  0  0  0  0  0
  139.9138  136.0702  154.6822 O   0  0  0  0  0  0  0  0  0  0  0  0
  137.3459  138.0993  154.0533 H   0  0  0  0  0  0  0  0  0  0  0  0
  137.5325  136.9610  155.3877 H   0  0  0  0  0  0  0  0  0  0  0  0
  137.2474  136.3632  153.7514 H   0  0  0  0  0  0  0  0  0  0  0  0
  139.8142  138.7565  152.8011 H   0  0  0  0  0  0  0  0  0  0  0  0
  142.6378  138.6740  152.8197 H   0  0  0  0  0  0  0  0  0  0  0  0
  144.4727  138.7025  152.1244 H   0  0  0  0  0  0  0  0  0  0  0  0
  146.6184  138.1086  151.7352 H   0  0  0  0  0  0  0  0  0  0  0  0
  146.4193  136.6494  152.6778 H   0  0  0  0  0  0  0  0  0  0  0  0
  145.1292  136.8143  149.9260 H   0  0  0  0  0  0  0  0  0  0  0  0
  146.8441  136.5048  150.0214 H   0  0  0  0  0  0  0  0  0  0  0  0
  143.8876  134.8545  149.6606 H   0  0  0  0  0  0  0  0  0  0  0  0
  143.1716  132.7456  150.7303 H   0  0  0  0  0  0  0  0  0  0  0  0
  144.4432  132.3071  149.6071 H   0  0  0  0  0  0  0  0  0  0  0  0
  144.6144  132.5572  152.6414 H   0  0  0  0  0  0  0  0  0  0  0  0
  144.9740  131.1524  151.6667 H   0  0  0  0  0  0  0  0  0  0  0  0
  147.0810  132.2184  152.4430 H   0  0  0  0  0  0  0  0  0  0  0  0
  146.9583  132.3276  150.7040 H   0  0  0  0  0  0  0  0  0  0  0  0
  147.6538  134.5086  151.4392 H   0  0  0  0  0  0  0  0  0  0  0  0
  146.4861  134.5402  152.7445 H   0  0  0  0  0  0  0  0  0  0  0  0
  1  2  1  0  0  0  0
  1 19  1  0  0  0  0
  1 20  1  0  0  0  0
  1 21  1  0  0  0  0
  2 18  1  0  0  0  0
  2  3  2  0  0  0  0
  3  4  1  0  0  0  0
  3 22  1  0  0  0  0
  4  5  1  0  0  0  0
  4 17  2  0  0  0  0
  5  6  1  0  0  0  0
  5 23  1  0  0  0  0
  6  7  2  0  0  0  0
  6  8  1  0  0  0  0
  8  9  1  0  0  0  0
  8 24  1  0  0  0  0
  9 10  1  0  0  0  0
  9 25  1  0  0  0  0
  9 26  1  0  0  0  0
 10 11  1  0  0  0  0
 10 27  1  0  0  0  0
 10 28  1  0  0  0  0
 11 16  1  0  0  0  0
 11 12  2  0  0  0  0
 12 13  1  0  0  0  0
 12 29  1  0  0  0  0
 13 14  1  0  0  0  0
 13 30  1  0  0  0  0
 13 31  1  0  0  0  0
 14 15  1  0  0  0  0
 14 32  1  0  0  0  0
 14 33  1  0  0  0  0
 15 16  1  0  0  0  0
 15 34  1  0  0  0  0
 15 35  1  0  0  0  0
 16 36  1  0  0  0  0
 16 37  1  0  0  0  0
 17 18  1  0  0  0  0
M  END
> <s_m_source_file>
AV-unprocessed.smi

> <i_m_source_file_index>
474

> <i_lp_mmshare_version>
43012

> <i_f3d_flags>
0

> <s_epik_input>
W0NIM11jMVtjSF1jKG5vMSlbTkhdQyg9TylbTkhdW0NIMl1bQ0gyXUMyPVtDSF1bQ0gyXVtDSDJdW0NIMl1bQ0gyXTI=

> <s_epik_cmdline>
J2VwaWtfcHl0aG9uJywgJy1waCcsICc3LjAnLCAnLXRuJywgJzgnLCAnLW1hJywgJzIwMCcsICctbWV0YWxfYmluZGluZycsICctaW1hZScsICc8aW5maWxlLm1hZT4nLCAnLW9tYWUnLCAnPG91dGZpbGUubWFlPic=

> <r_lp_tautomer_probability>
1

> <r_epik_Ionization_Penalty>
2.87157e-05

> <r_epik_Ionization_Penalty_Charging>
0

> <r_epik_Ionization_Penalty_Neutral>
2.87157e-05

> <r_epik_State_Penalty>
-0

> <r_epik_Charging_Adjusted_Penalty>
0

> <i_epik_Tot_Q>
0

> <i_epik_Tot_abs_Q>
0

> <r_epik_Metal_State_Penalty>
0.00793999

> <b_epik_Metal_Only>
0

> <s_lp_Force_Field>
OPLS_2005

> <r_lp_Energy>
6.67712

> <b_lp_Chiralities_Consistent>
1

> <s_lp_Variant>
AV-unprocessed.smi:474-1

> <Gold.Version>
5.8.1

> <Gold.Id.Protein>
6NUR|6NUR_protein|mol2

> <Gold.PLP.Fitness>
45.1845

> <Gold.PLP.PLP>
-36.9573

> <Gold.PLP.part.hbond>
-4.2835

> <Gold.PLP.part.metal>
0.0000

> <Gold.PLP.part.buried>
-2.6516

> <Gold.PLP.part.nonpolar>
-29.2113

> <Gold.PLP.part.repulsive>
0.2859

> <Gold.PLP.ligand.clash>
0.0000

> <Gold.PLP.ligand.torsion>
0.3938

> <Gold.PLP.Chemscore.Hbond>
3.0000

> <Gold.PLP.Chemscore.CHOScore>
0.0000

> <Gold.PLP.Chemscore.Metal>
0.0000

> <Gold.Chemscore.Hbonds>
donor molecule, donor type, donor heavy atom, donor atom, acceptor molecule, acceptor atom, score
      L1  H     5    23       P1 10175  0.98
      L1  H     8    24       P1 10175  1.00
      P1  H 11000 11005       L1    18  0.98

> <Gold.PLP.Chemscore.Internal.Correction>
0.0150

> <Gold.Rescore>
     Score         DG    S(hbond)    S(metal)    S(lipo)     H(rot)  DE(clash)    DE(int)     intcor
     16.67     -18.48       2.36        0.00      76.13       1.48       0.07       1.74       ----

> <Gold.Chemscore.Fitness>
16.6695

> <Gold.Chemscore.DG>
-18.4818

> <Gold.Chemscore.ZeroCoef>
-5.4800

> <Gold.Chemscore.Hbond>
2.3617

> <Gold.Chemscore.Metal>
0.0000

> <Gold.Chemscore.Lipo>
76.1288

> <Gold.Chemscore.Internal_Hbond>
0.0000

> <Gold.Chemscore.DEClash>
0.0750

> <Gold.Chemscore.DEInternal>
1.7373

> <Gold.Chemscore.Rot>
1.4818

> <Gold.Chemscore.Internal.Correction>
   9.000000E+99

> <Gold.Chemscore.Hbonds>
donor molecule, donor type, donor heavy atom, donor atom, acceptor molecule, acceptor atom, score
      L1  H     5    23       P1 10175  0.89
      L1  H     8    24       P1 10175  0.98
      P1  H 11000 11005       L1    18  0.42

> <Gold.Chemscore.Hbond.Weighted>
-7.8880

> <Gold.Chemscore.Metal.Weighted>
-0.0000

> <Gold.Chemscore.Lipo.Weighted>
-8.9071

> <Gold.Chemscore.Internal_Hbond.Weighted>
0.0000

> <Gold.Chemscore.DEClash.Weighted>
0.0750

> <Gold.Chemscore.DEInternal.Weighted>
1.7373

> <Gold.Chemscore.Rot.Weighted>
3.7933

> <Gold.Chemscore.Internal.Correction.Weighted>
   9.000000E+99

> <Gold.Protein.RotatedTorsions>
[ 6907 6896 6895 6894 ] final  -59.23 input  -60.11 | X-H torsion
[ 7974 7965 7964 7962 ] final  162.11 input  175.53 | X-H torsion
[ 8008 7997 7996 7995 ] final   96.12 input   59.86 | X-H torsion
[ 10167 10162 10161 10158 ] final   68.58 input  -65.29 | X-H torsion
[ 10718 10713 10712 10709 ] final  122.24 input   66.30 | X-H torsion
[ 10763 10752 10751 10750 ] final    9.02 input  -60.55 | X-H torsion
[ 11005 11000 10999 10996 ] final   83.83 input  -57.11 | X-H torsion

> <Gold.Protein.ActiveResidues>
 VAL166  LYS551  ARG553  GLY616  TRP617  ASP618  TYR619  PRO620  LYS621  CYS622 
 ASP623  PHE694  ASN695  SER759  ASP760  ASP761  ALA762  ILE779  LEU786  VAL792 
 PHE793  MET794  SER795  GLU796  ALA797  LYS798  CYS799  TRP800  GLU811  SER814 

> <Gold.Protein.RotatedAtoms>
  150.7946  134.6995  159.6541 H   0  0  0  0  0  0  0  0  0  0  0  0  # atno 6907 bound_to 6896
  152.4056  134.6209  160.0060 H   0  0  0  0  0  0  0  0  0  0  0  0  # atno 6908 bound_to 6896
  151.6467  133.3286  159.3178 H   0  0  0  0  0  0  0  0  0  0  0  0  # atno 6909 bound_to 6896
  144.7653  139.7993  143.6317 H   0  0  0  0  0  0  0  0  0  0  0  0  # atno 7974 bound_to 7965
  156.0762  140.3277  155.7637 H   0  0  0  0  0  0  0  0  0  0  0  0  # atno 8008 bound_to 7997
  155.5226  140.0586  157.2921 H   0  0  0  0  0  0  0  0  0  0  0  0  # atno 8009 bound_to 7997
  154.4557  140.1941  156.0404 H   0  0  0  0  0  0  0  0  0  0  0  0  # atno 8010 bound_to 7997
  140.0771  144.5103  150.7187 H   0  0  0  0  0  0  0  0  0  0  0  0  # atno 10167 bound_to 10162
  157.5757  131.1079  150.8283 H   0  0  0  0  0  0  0  0  0  0  0  0  # atno 10718 bound_to 10713
  153.2185  135.6878  153.8028 H   0  0  0  0  0  0  0  0  0  0  0  0  # atno 10763 bound_to 10752
  153.7235  135.3263  155.3272 H   0  0  0  0  0  0  0  0  0  0  0  0  # atno 10764 bound_to 10752
  154.8258  135.4618  154.1023 H   0  0  0  0  0  0  0  0  0  0  0  0  # atno 10765 bound_to 10752
  139.9019  134.8173  156.2363 H   0  0  0  0  0  0  0  0  0  0  0  0  # atno 11005 bound_to 11000
  146.1754  139.4922  142.9901 LP  0  0  0  0  0  0  0  0  0  0  0  0  # atno 17320 bound_to 7965
  145.6491  141.0267  143.1770 LP  0  0  0  0  0  0  0  0  0  0  0  0  # atno 17321 bound_to 7965
  140.7097  143.2495  151.4620 LP  0  0  0  0  0  0  0  0  0  0  0  0  # atno 17342 bound_to 10162
  139.5801  144.1728  152.1957 LP  0  0  0  0  0  0  0  0  0  0  0  0  # atno 17343 bound_to 10162
  156.8743  130.5157  149.5295 LP  0  0  0  0  0  0  0  0  0  0  0  0  # atno 17370 bound_to 10713
  156.0802  130.5814  150.9548 LP  0  0  0  0  0  0  0  0  0  0  0  0  # atno 17371 bound_to 10713
  141.0313  133.6987  156.1436 LP  0  0  0  0  0  0  0  0  0  0  0  0  # atno 17394 bound_to 11000
  140.7092  134.4480  157.5582 LP  0  0  0  0  0  0  0  0  0  0  0  0  # atno 17395 bound_to 11000

$$$$
