AV-unprocessed.smi:3156|AV-procd|sdf|12033|dock7
  -GOLD-   2272017453D 1   1.00000     0.00000
 Structure written by MMmdl.
 41 42  0  0  0  0  0  0  0  0  2 V2000
  149.5565  139.1059  157.1171 C   0  0  0  0  0  0  0  0  0  0  0  0
  150.4764  139.9898  156.2479 C   0  0  2  0  0  0  0  0  0  0  0  0
  150.3870  141.4020  156.6854 N   0  3  0  0  0  0  0  0  0  0  0  0
  150.5966  141.6334  158.1303 C   0  0  0  0  0  0  0  0  0  0  0  0
  150.6685  143.1351  158.4405 C   0  0  2  0  0  0  0  0  0  0  0  0
  152.0952  143.6900  158.2602 C   0  0  0  0  0  0  0  0  0  0  0  0
  152.1577  145.1643  158.6756 C   0  0  0  0  0  0  0  0  0  0  0  0
  151.5970  145.3258  160.0921 C   0  0  0  0  0  0  0  0  0  0  0  0
  150.2022  144.6887  160.1891 C   0  0  0  0  0  0  0  0  0  0  0  0
  150.2657  143.3208  159.7964 O   0  0  0  0  0  0  0  0  0  0  0  0
  150.1534  139.8907  154.7322 C   0  0  1  0  0  0  0  0  0  0  0  0
  150.3592  138.4678  154.1765 C   0  0  0  0  0  0  0  0  0  0  0  0
  148.8080  140.3578  154.4203 N   0  0  0  0  0  0  0  0  0  0  0  0
  148.2964  141.6332  154.5457 C   0  0  0  0  0  0  0  0  0  0  0  0
  146.9935  141.5929  154.1395 C   0  0  0  0  0  0  0  0  0  0  0  0
  146.7952  140.2327  153.7731 C   0  0  0  0  0  0  0  0  0  0  0  0
  147.8815  139.4963  153.9418 N   0  0  0  0  0  0  0  0  0  0  0  0
  149.6507  138.0499  156.8641 H   0  0  0  0  0  0  0  0  0  0  0  0
  148.5093  139.3833  156.9920 H   0  0  0  0  0  0  0  0  0  0  0  0
  149.7954  139.1899  158.1767 H   0  0  0  0  0  0  0  0  0  0  0  0
  151.5048  139.6543  156.3925 H   0  0  0  0  0  0  0  0  0  0  0  0
  151.1016  141.9198  156.1944 H   0  0  0  0  0  0  0  0  0  0  0  0
  149.7979  141.1740  158.7125 H   0  0  0  0  0  0  0  0  0  0  0  0
  151.5288  141.1511  158.4269 H   0  0  0  0  0  0  0  0  0  0  0  0
  149.9850  143.6715  157.7793 H   0  0  0  0  0  0  0  0  0  0  0  0
  152.7948  143.1119  158.8656 H   0  0  0  0  0  0  0  0  0  0  0  0
  152.4160  143.5820  157.2235 H   0  0  0  0  0  0  0  0  0  0  0  0
  153.1834  145.5309  158.6276 H   0  0  0  0  0  0  0  0  0  0  0  0
  151.5752  145.7685  157.9787 H   0  0  0  0  0  0  0  0  0  0  0  0
  152.2660  144.8473  160.8086 H   0  0  0  0  0  0  0  0  0  0  0  0
  151.5513  146.3811  160.3631 H   0  0  0  0  0  0  0  0  0  0  0  0
  149.8359  144.7439  161.2144 H   0  0  0  0  0  0  0  0  0  0  0  0
  149.4844  145.2241  159.5662 H   0  0  0  0  0  0  0  0  0  0  0  0
  150.8400  140.5520  154.2005 H   0  0  0  0  0  0  0  0  0  0  0  0
  151.3947  138.1427  154.2775 H   0  0  0  0  0  0  0  0  0  0  0  0
  150.1096  138.4230  153.1159 H   0  0  0  0  0  0  0  0  0  0  0  0
  149.7325  137.7409  154.6944 H   0  0  0  0  0  0  0  0  0  0  0  0
  148.8940  142.4550  154.9123 H   0  0  0  0  0  0  0  0  0  0  0  0
  146.2893  142.4109  154.1076 H   0  0  0  0  0  0  0  0  0  0  0  0
  145.9001  139.7618  153.3934 H   0  0  0  0  0  0  0  0  0  0  0  0
  149.4853  141.7707  156.4178 H   0  0  0  0  0  0  0  0  0  0  0  0
  1  2  1  0  0  0  0
  1 18  1  0  0  0  0
  1 19  1  0  0  0  0
  1 20  1  0  0  0  0
  2  3  1  0  0  0  0
  2 11  1  0  0  0  0
  2 21  1  0  0  0  0
  3  4  1  0  0  0  0
  3 22  1  0  0  0  0
  3 41  1  0  0  0  0
  4  5  1  0  0  0  0
  4 23  1  0  0  0  0
  4 24  1  0  0  0  0
  5 10  1  0  0  0  0
  5  6  1  0  0  0  0
  5 25  1  0  0  0  0
  6  7  1  0  0  0  0
  6 26  1  0  0  0  0
  6 27  1  0  0  0  0
  7  8  1  0  0  0  0
  7 28  1  0  0  0  0
  7 29  1  0  0  0  0
  8  9  1  0  0  0  0
  8 30  1  0  0  0  0
  8 31  1  0  0  0  0
  9 10  1  0  0  0  0
  9 32  1  0  0  0  0
  9 33  1  0  0  0  0
 11 12  1  0  0  0  0
 11 13  1  0  0  0  0
 11 34  1  0  0  0  0
 12 35  1  0  0  0  0
 12 36  1  0  0  0  0
 12 37  1  0  0  0  0
 13 17  1  0  0  0  0
 13 14  1  0  0  0  0
 14 15  2  0  0  0  0
 14 38  1  0  0  0  0
 15 16  1  0  0  0  0
 15 39  1  0  0  0  0
 16 17  2  0  0  0  0
 16 40  1  0  0  0  0
M  CHG  1   3   1
M  END
> <s_m_source_file>
AV-unprocessed.smi

> <i_m_source_file_index>
3156

> <i_lp_mmshare_version>
43012

> <i_f3d_flags>
0

> <s_epik_input>
bjFbY0hdW2NIXVtjSF1uMVtDQEBIXShbQ0gzXSlbQ0BIXShbQ0gzXSlbTkhdW0NIMl1bQ0BASF0yW0NIMl1bQ0gyXVtDSDJdW0NIMl1PMg==

> <s_epik_cmdline>
J2VwaWtfcHl0aG9uJywgJy1waCcsICc3LjAnLCAnLXRuJywgJzgnLCAnLW1hJywgJzIwMCcsICctbWV0YWxfYmluZGluZycsICctaW1hZScsICc8aW5maWxlLm1hZT4nLCAnLW9tYWUnLCAnPG91dGZpbGUubWFlPic=

> <r_lp_tautomer_probability>
1

> <r_epik_Ionization_Penalty>
0.00658015

> <r_epik_Ionization_Penalty_Charging>
0.00656881

> <r_epik_Ionization_Penalty_Neutral>
1.13431e-05

> <r_epik_State_Penalty>
0.0048654

> <r_epik_Charging_Adjusted_Penalty>
0.0114342

> <i_epik_Tot_Q>
1

> <i_epik_Tot_abs_Q>
1

> <r_epik_Metal_State_Penalty>
-0

> <b_epik_Metal_Only>
0

> <s_lp_Force_Field>
OPLS_2005

> <r_lp_Energy>
17.6132

> <b_lp_Chiralities_Consistent>
1

> <s_lp_Variant>
AV-unprocessed.smi:3156-5

> <Gold.Version>
5.8.1

> <Gold.Id.Protein>
6NUR|6NUR_protein|mol2

> <Gold.PLP.Fitness>
44.1236

> <Gold.PLP.PLP>
-39.0179

> <Gold.PLP.part.hbond>
-1.0000

> <Gold.PLP.part.metal>
0.0000

> <Gold.PLP.part.buried>
-4.5095

> <Gold.PLP.part.nonpolar>
-34.8221

> <Gold.PLP.part.repulsive>
0.3165

> <Gold.PLP.ligand.clash>
0.0000

> <Gold.PLP.ligand.torsion>
0.4823

> <Gold.PLP.Chemscore.Hbond>
0.0000

> <Gold.PLP.Chemscore.CHOScore>
1.9983

> <Gold.PLP.Chemscore.Metal>
0.0000

> <Gold.Chemscore.Hbonds>
donor molecule, donor type, donor heavy atom, donor atom, acceptor molecule, acceptor atom, score
      L1  C    14    38       P1  8028  1.00
      L1  C    16    40       P1 10175  1.00

> <Gold.PLP.Chemscore.Internal.Correction>
0.0756

> <Gold.Rescore>
     Score         DG    S(hbond)    S(metal)    S(lipo)     H(rot)  DE(clash)    DE(int)     intcor
     13.14     -13.78       0.00        0.00     105.78       1.59       0.03       0.60       ----

> <Gold.Chemscore.Fitness>
13.1385

> <Gold.Chemscore.DG>
-13.7754

> <Gold.Chemscore.ZeroCoef>
-5.4800

> <Gold.Chemscore.Hbond>
0.0000

> <Gold.Chemscore.Metal>
0.0000

> <Gold.Chemscore.Lipo>
105.7751

> <Gold.Chemscore.Internal_Hbond>
0.0000

> <Gold.Chemscore.DEClash>
0.0341

> <Gold.Chemscore.DEInternal>
0.6028

> <Gold.Chemscore.Rot>
1.5938

> <Gold.Chemscore.Internal.Correction>
   9.000000E+99

> <Gold.Chemscore.Hbond.Weighted>
-0.0000

> <Gold.Chemscore.Metal.Weighted>
-0.0000

> <Gold.Chemscore.Lipo.Weighted>
-12.3757

> <Gold.Chemscore.Internal_Hbond.Weighted>
0.0000

> <Gold.Chemscore.DEClash.Weighted>
0.0341

> <Gold.Chemscore.DEInternal.Weighted>
0.6028

> <Gold.Chemscore.Rot.Weighted>
4.0802

> <Gold.Chemscore.Internal.Correction.Weighted>
   9.000000E+99

> <Gold.Protein.RotatedTorsions>
[ 6907 6896 6895 6894 ] final -161.03 input  -60.11 | X-H torsion
[ 7974 7965 7964 7962 ] final  152.54 input  175.53 | X-H torsion
[ 8008 7997 7996 7995 ] final  167.49 input   59.86 | X-H torsion
[ 10167 10162 10161 10158 ] final   -4.41 input  -65.29 | X-H torsion
[ 10718 10713 10712 10709 ] final  -41.06 input   66.30 | X-H torsion
[ 10763 10752 10751 10750 ] final    8.95 input  -60.55 | X-H torsion
[ 11005 11000 10999 10996 ] final  170.69 input  -57.11 | X-H torsion

> <Gold.Protein.ActiveResidues>
 VAL166  LYS551  ARG553  GLY616  TRP617  ASP618  TYR619  PRO620  LYS621  CYS622 
 ASP623  PHE694  ASN695  SER759  ASP760  ASP761  ALA762  ILE779  LEU786  VAL792 
 PHE793  MET794  SER795  GLU796  ALA797  LYS798  CYS799  TRP800  GLU811  SER814 

> <Gold.Protein.RotatedAtoms>
  151.3583  133.3899  159.2686 H   0  0  0  0  0  0  0  0  0  0  0  0  # atno 6907 bound_to 6896
  150.9746  134.9113  159.7818 H   0  0  0  0  0  0  0  0  0  0  0  0  # atno 6908 bound_to 6896
  152.5196  134.3546  159.9315 H   0  0  0  0  0  0  0  0  0  0  0  0  # atno 6909 bound_to 6896
  144.8215  139.6682  143.6098 H   0  0  0  0  0  0  0  0  0  0  0  0  # atno 7974 bound_to 7965
  156.1629  140.1615  156.8581 H   0  0  0  0  0  0  0  0  0  0  0  0  # atno 8008 bound_to 7997
  154.5178  140.0785  156.8151 H   0  0  0  0  0  0  0  0  0  0  0  0  # atno 8009 bound_to 7997
  155.3671  140.3398  155.4244 H   0  0  0  0  0  0  0  0  0  0  0  0  # atno 8010 bound_to 7997
  140.6926  143.6427  150.8421 H   0  0  0  0  0  0  0  0  0  0  0  0  # atno 10167 bound_to 10162
  156.2745  130.4210  149.8402 H   0  0  0  0  0  0  0  0  0  0  0  0  # atno 10718 bound_to 10713
  153.2194  135.6879  153.8018 H   0  0  0  0  0  0  0  0  0  0  0  0  # atno 10763 bound_to 10752
  153.7222  135.3265  155.3270 H   0  0  0  0  0  0  0  0  0  0  0  0  # atno 10764 bound_to 10752
  154.8262  135.4616  154.1035 H   0  0  0  0  0  0  0  0  0  0  0  0  # atno 10765 bound_to 10752
  140.3111  134.7516  157.3992 H   0  0  0  0  0  0  0  0  0  0  0  0  # atno 11005 bound_to 11000
  146.2520  139.6221  142.9420 LP  0  0  0  0  0  0  0  0  0  0  0  0  # atno 17320 bound_to 7965
  145.5094  141.0436  143.2496 LP  0  0  0  0  0  0  0  0  0  0  0  0  # atno 17321 bound_to 7965
  140.0142  143.5611  152.2827 LP  0  0  0  0  0  0  0  0  0  0  0  0  # atno 17342 bound_to 10162
  139.6345  144.7648  151.2466 LP  0  0  0  0  0  0  0  0  0  0  0  0  # atno 17343 bound_to 10162
  156.5872  130.8491  151.3398 LP  0  0  0  0  0  0  0  0  0  0  0  0  # atno 17370 bound_to 10713
  157.7295  130.9671  150.1789 LP  0  0  0  0  0  0  0  0  0  0  0  0  # atno 17371 bound_to 10713
  140.1024  134.5455  155.8340 LP  0  0  0  0  0  0  0  0  0  0  0  0  # atno 17394 bound_to 11000
  141.2108  133.6699  156.6535 LP  0  0  0  0  0  0  0  0  0  0  0  0  # atno 17395 bound_to 11000

$$$$
