AV-unprocessed.smi:1593|AV-procd|sdf|6412|dock1
  -GOLD-   22720 7 43D 1   1.00000     0.00000
 Structure written by MMmdl.
 36 37  0  0  0  0  0  0  0  0  3 V2000
  152.3821  140.5784  159.0781 C   0  0  0  0  0  0  0  0  0  0  0  0
  152.0144  140.2867  157.6638 C   0  0  0  0  0  0  0  0  0  0  0  0
  150.9336  140.6165  156.8960 C   0  0  0  0  0  0  0  0  0  0  0  0
  151.2335  140.0209  155.6405 C   0  0  0  0  0  0  0  0  0  0  0  0
  150.4582  140.0572  154.5456 N   0  5  0  0  0  0  0  0  0  0  0  0
  149.1310  139.8173  154.6434 C   0  0  0  0  0  0  0  0  0  0  0  0
  148.4594  139.8225  155.6778 O   0  0  0  0  0  0  0  0  0  0  0  0
  148.5439  139.5491  153.4682 N   0  0  0  0  0  0  0  0  0  0  0  0
  147.1309  139.2469  153.2738 C   0  0  0  0  0  0  0  0  0  0  0  0
  146.7320  137.9446  153.9931 C   0  0  0  0  0  0  0  0  0  0  0  0
  146.4092  136.8515  153.0435 N   0  3  0  0  0  0  0  0  0  0  0  0
  146.1350  135.5677  153.7323 C   0  0  0  0  0  0  0  0  0  0  0  0
  145.8569  134.4549  152.7077 C   0  0  0  0  0  0  0  0  0  0  0  0
  144.7683  134.8335  151.8748 O   0  0  0  0  0  0  0  0  0  0  0  0
  145.0490  136.0186  151.1401 C   0  0  0  0  0  0  0  0  0  0  0  0
  145.3029  137.1840  152.1114 C   0  0  0  0  0  0  0  0  0  0  0  0
  152.3858  139.3721  155.6508 N   0  0  0  0  0  0  0  0  0  0  0  0
  152.8966  139.5443  156.9428 O   0  0  0  0  0  0  0  0  0  0  0  0
  151.5247  140.9603  159.6324 H   0  0  0  0  0  0  0  0  0  0  0  0
  153.1750  141.3251  159.1235 H   0  0  0  0  0  0  0  0  0  0  0  0
  152.7346  139.6776  159.5805 H   0  0  0  0  0  0  0  0  0  0  0  0
  150.0686  141.1948  157.1839 H   0  0  0  0  0  0  0  0  0  0  0  0
  149.1293  139.5598  152.6455 H   0  0  0  0  0  0  0  0  0  0  0  0
  146.5347  140.0941  153.6137 H   0  0  0  0  0  0  0  0  0  0  0  0
  146.9510  139.1503  152.2028 H   0  0  0  0  0  0  0  0  0  0  0  0
  147.5687  137.6364  154.6221 H   0  0  0  0  0  0  0  0  0  0  0  0
  145.8867  138.1063  154.6639 H   0  0  0  0  0  0  0  0  0  0  0  0
  146.9884  135.2885  154.3516 H   0  0  0  0  0  0  0  0  0  0  0  0
  145.2792  135.6854  154.3993 H   0  0  0  0  0  0  0  0  0  0  0  0
  146.7417  134.2532  152.1013 H   0  0  0  0  0  0  0  0  0  0  0  0
  145.6039  133.5266  153.2200 H   0  0  0  0  0  0  0  0  0  0  0  0
  145.9086  135.8615  150.4865 H   0  0  0  0  0  0  0  0  0  0  0  0
  144.1980  136.2449  150.4973 H   0  0  0  0  0  0  0  0  0  0  0  0
  144.3961  137.3979  152.6795 H   0  0  0  0  0  0  0  0  0  0  0  0
  145.5391  138.0808  151.5400 H   0  0  0  0  0  0  0  0  0  0  0  0
  147.2367  136.7026  152.4837 H   0  0  0  0  0  0  0  0  0  0  0  0
  1  2  1  0  0  0  0
  1 19  1  0  0  0  0
  1 20  1  0  0  0  0
  1 21  1  0  0  0  0
  2 18  1  0  0  0  0
  2  3  2  0  0  0  0
  3  4  1  0  0  0  0
  3 22  1  0  0  0  0
  4  5  1  0  0  0  0
  4 17  2  0  0  0  0
  5  6  1  0  0  0  0
  6  7  2  0  0  0  0
  6  8  1  0  0  0  0
  8  9  1  0  0  0  0
  8 23  1  0  0  0  0
  9 10  1  0  0  0  0
  9 24  1  0  0  0  0
  9 25  1  0  0  0  0
 10 11  1  0  0  0  0
 10 26  1  0  0  0  0
 10 27  1  0  0  0  0
 11 16  1  0  0  0  0
 11 12  1  0  0  0  0
 11 36  1  0  0  0  0
 12 13  1  0  0  0  0
 12 28  1  0  0  0  0
 12 29  1  0  0  0  0
 13 14  1  0  0  0  0
 13 30  1  0  0  0  0
 13 31  1  0  0  0  0
 14 15  1  0  0  0  0
 15 16  1  0  0  0  0
 15 32  1  0  0  0  0
 15 33  1  0  0  0  0
 16 34  1  0  0  0  0
 16 35  1  0  0  0  0
 17 18  1  0  0  0  0
M  CHG  1   5  -1
M  CHG  1  11   1
M  END
> <s_m_source_file>
AV-unprocessed.smi

> <i_m_source_file_index>
1593

> <i_lp_mmshare_version>
43012

> <i_f3d_flags>
0

> <s_epik_input>
W0NIM11jMVtjSF1jKG5vMSlbTkhdQyg9TylbTkhdW0NIMl1bQ0gyXU4yW0NIMl1bQ0gyXU9bQ0gyXVtDSDJdMg==

> <s_epik_cmdline>
J2VwaWtfcHl0aG9uJywgJy1waCcsICc3LjAnLCAnLXRuJywgJzgnLCAnLW1hJywgJzIwMCcsICctbWV0YWxfYmluZGluZycsICctaW1hZScsICc8aW5maWxlLm1hZT4nLCAnLW9tYWUnLCAnPG91dGZpbGUubWFlPic=

> <r_epik_Ionization_Penalty>
6.73013

> <r_epik_Ionization_Penalty_Charging>
6.73004

> <r_epik_Ionization_Penalty_Neutral>
9.27027e-05

> <r_epik_State_Penalty>
6.93052

> <r_epik_Charging_Adjusted_Penalty>
13.6606

> <i_epik_Tot_Q>
0

> <i_epik_Tot_abs_Q>
2

> <r_epik_Metal_State_Penalty>
2.86736

> <b_epik_Metal_Only>
1

> <s_lp_Force_Field>
OPLS_2005

> <r_lp_Energy>
3.0075

> <b_lp_Chiralities_Consistent>
1

> <s_lp_Variant>
AV-unprocessed.smi:1593-4

> <Gold.Version>
5.8.1

> <Gold.Id.Protein>
6NUR|6NUR_protein|mol2

> <Gold.PLP.Fitness>
40.7271

> <Gold.PLP.PLP>
-27.2594

> <Gold.PLP.part.hbond>
-4.8296

> <Gold.PLP.part.metal>
0.0000

> <Gold.PLP.part.buried>
-3.4050

> <Gold.PLP.part.nonpolar>
-19.2277

> <Gold.PLP.part.repulsive>
0.3432

> <Gold.PLP.ligand.clash>
0.0000

> <Gold.PLP.ligand.torsion>
0.8120

> <Gold.PLP.Chemscore.Hbond>
5.0000

> <Gold.PLP.Chemscore.CHOScore>
0.0000

> <Gold.PLP.Chemscore.Metal>
0.0000

> <Gold.Chemscore.Hbonds>
donor molecule, donor type, donor heavy atom, donor atom, acceptor molecule, acceptor atom, score
      L1  H     8    23       P1  7957  1.00
      L1  H    11    36       P1  7948  2.00
      P1  H  7989  7998       L1     5  0.85
      P1  H  7997  8009       L1    18  1.00

> <Gold.PLP.Chemscore.Internal.Correction>
0.0918

> <Gold.Rescore>
     Score         DG    S(hbond)    S(metal)    S(lipo)     H(rot)  DE(clash)    DE(int)     intcor
     14.35     -16.55       2.96        0.00      45.61       1.62       0.04       2.16       ----

> <Gold.Chemscore.Fitness>
14.3518

> <Gold.Chemscore.DG>
-16.5504

> <Gold.Chemscore.ZeroCoef>
-5.4800

> <Gold.Chemscore.Hbond>
2.9606

> <Gold.Chemscore.Metal>
0.0000

> <Gold.Chemscore.Lipo>
45.6097

> <Gold.Chemscore.Internal_Hbond>
0.0000

> <Gold.Chemscore.DEClash>
0.0388

> <Gold.Chemscore.DEInternal>
2.1598

> <Gold.Chemscore.Rot>
1.6228

> <Gold.Chemscore.Internal.Correction>
   9.000000E+99

> <Gold.Chemscore.Hbonds>
donor molecule, donor type, donor heavy atom, donor atom, acceptor molecule, acceptor atom, score
      L1  H     8    23       P1  7957  0.98
      L1  H    11    36       P1  7948  1.00
      P1  H  7989  7998       L1     5  0.15
      P1  H  7997  8009       L1    18  0.68

> <Gold.Chemscore.Hbond.Weighted>
-9.8883

> <Gold.Chemscore.Metal.Weighted>
-0.0000

> <Gold.Chemscore.Lipo.Weighted>
-5.3363

> <Gold.Chemscore.Internal_Hbond.Weighted>
0.0000

> <Gold.Chemscore.DEClash.Weighted>
0.0388

> <Gold.Chemscore.DEInternal.Weighted>
2.1598

> <Gold.Chemscore.Rot.Weighted>
4.1542

> <Gold.Chemscore.Internal.Correction.Weighted>
   9.000000E+99

> <Gold.Protein.RotatedTorsions>
[ 6907 6896 6895 6894 ] final  -52.56 input  -60.11 | X-H torsion
[ 7974 7965 7964 7962 ] final  -88.60 input  175.53 | X-H torsion
[ 8008 7997 7996 7995 ] final  163.17 input   59.86 | X-H torsion
[ 10167 10162 10161 10158 ] final  -76.72 input  -65.29 | X-H torsion
[ 10718 10713 10712 10709 ] final -125.48 input   66.30 | X-H torsion
[ 10763 10752 10751 10750 ] final   79.66 input  -60.55 | X-H torsion
[ 11005 11000 10999 10996 ] final  -50.63 input  -57.11 | X-H torsion

> <Gold.Protein.ActiveResidues>
 VAL166  LYS551  ARG553  GLY616  TRP617  ASP618  TYR619  PRO620  LYS621  CYS622 
 ASP623  PHE694  ASN695  SER759  ASP760  ASP761  ALA762  ILE779  LEU786  VAL792 
 PHE793  MET794  SER795  GLU796  ALA797  LYS798  CYS799  TRP800  GLU811  SER814 

> <Gold.Protein.RotatedAtoms>
  150.8507  134.7831  159.7005 H   0  0  0  0  0  0  0  0  0  0  0  0  # atno 6907 bound_to 6896
  152.4572  134.5261  159.9807 H   0  0  0  0  0  0  0  0  0  0  0  0  # atno 6908 bound_to 6896
  151.5383  133.3399  159.2966 H   0  0  0  0  0  0  0  0  0  0  0  0  # atno 6909 bound_to 6896
  145.4510  140.9560  143.2022 H   0  0  0  0  0  0  0  0  0  0  0  0  # atno 7974 bound_to 7965
  156.1977  140.1731  156.7964 H   0  0  0  0  0  0  0  0  0  0  0  0  # atno 8008 bound_to 7997
  154.5551  140.0710  156.8761 H   0  0  0  0  0  0  0  0  0  0  0  0  # atno 8009 bound_to 7997
  155.2954  140.3358  155.4252 H   0  0  0  0  0  0  0  0  0  0  0  0  # atno 8010 bound_to 7997
  140.4833  143.2397  151.8024 H   0  0  0  0  0  0  0  0  0  0  0  0  # atno 10167 bound_to 10162
  156.1679  130.6647  151.0140 H   0  0  0  0  0  0  0  0  0  0  0  0  # atno 10718 bound_to 10713
  153.0970  135.4831  154.8797 H   0  0  0  0  0  0  0  0  0  0  0  0  # atno 10763 bound_to 10752
  154.7336  135.3066  154.8852 H   0  0  0  0  0  0  0  0  0  0  0  0  # atno 10764 bound_to 10752
  153.9480  135.6826  153.4797 H   0  0  0  0  0  0  0  0  0  0  0  0  # atno 10765 bound_to 10752
  141.0826  133.6650  156.3758 H   0  0  0  0  0  0  0  0  0  0  0  0  # atno 11005 bound_to 11000
  144.8061  139.6048  143.7050 LP  0  0  0  0  0  0  0  0  0  0  0  0  # atno 17320 bound_to 7965
  146.2504  139.6188  142.9431 LP  0  0  0  0  0  0  0  0  0  0  0  0  # atno 17321 bound_to 7965
  139.4837  144.4745  151.9384 LP  0  0  0  0  0  0  0  0  0  0  0  0  # atno 17342 bound_to 10162
  140.3830  144.2712  150.5906 LP  0  0  0  0  0  0  0  0  0  0  0  0  # atno 17343 bound_to 10162
  157.6781  131.0845  150.7440 LP  0  0  0  0  0  0  0  0  0  0  0  0  # atno 17370 bound_to 10713
  156.7501  130.4766  149.5458 LP  0  0  0  0  0  0  0  0  0  0  0  0  # atno 17371 bound_to 10713
  140.5434  134.6098  157.5386 LP  0  0  0  0  0  0  0  0  0  0  0  0  # atno 17394 bound_to 11000
  139.9641  134.7402  156.0174 LP  0  0  0  0  0  0  0  0  0  0  0  0  # atno 17395 bound_to 11000

$$$$
