AV-unprocessed.smi:72|AV-procd|sdf|728|dock4
  -GOLD-   2262017 53D 1   1.00000     0.00000
 Structure written by MMmdl.
 28 29  0  0  0  0  0  0  0  0  2 V2000
  150.4667  134.1760  156.2108 N   0  0  0  0  0  0  0  0  0  0  0  0
  150.4130  135.3681  155.8038 C   0  0  0  0  0  0  0  0  0  0  0  0
  149.1392  135.9540  155.4473 N   0  0  0  0  0  0  0  0  0  0  0  0
  149.1339  137.1827  155.0296 C   0  0  0  0  0  0  0  0  0  0  0  0
  150.3611  137.9600  154.9125 N   0  0  0  0  0  0  0  0  0  0  0  0
  150.3623  139.3994  154.4279 C   0  0  1  0  0  0  0  0  0  0  0  0
  149.0708  139.7698  154.0305 O   0  0  0  0  0  0  0  0  0  0  0  0
  148.5647  140.7647  154.9120 C   0  0  2  0  0  0  0  0  0  0  0  0
  147.4442  141.5752  154.2366 C   0  0  0  0  0  0  0  0  0  0  0  0
  146.9841  142.6326  155.0530 O   0  0  0  0  0  0  0  0  0  0  0  0
  149.8106  141.5305  155.3570 C   0  0  1  0  0  0  0  0  0  0  0  0
  149.6072  142.2791  156.5413 O   0  0  0  0  0  0  0  0  0  0  0  0
  150.8309  140.4060  155.5105 C   0  0  1  0  0  0  0  0  0  0  0  0
  150.8377  139.8652  156.8238 O   0  0  0  0  0  0  0  0  0  0  0  0
  151.5956  137.3618  155.2792 C   0  0  0  0  0  0  0  0  0  0  0  0
  152.6172  138.0438  155.1937 O   0  0  0  0  0  0  0  0  0  0  0  0
  151.5938  136.0719  155.7171 N   0  5  0  0  0  0  0  0  0  0  0  0
  150.9869  139.4091  153.5331 H   0  0  0  0  0  0  0  0  0  0  0  0
  148.1428  140.2412  155.7719 H   0  0  0  0  0  0  0  0  0  0  0  0
  150.1508  142.2010  154.5672 H   0  0  0  0  0  0  0  0  0  0  0  0
  151.8403  140.7460  155.2769 H   0  0  0  0  0  0  0  0  0  0  0  0
  149.5603  133.7331  156.2446 H   0  0  0  0  0  0  0  0  0  0  0  0
  148.2180  137.7014  154.7468 H   0  0  0  0  0  0  0  0  0  0  0  0
  147.7832  141.9731  153.2799 H   0  0  0  0  0  0  0  0  0  0  0  0
  146.5960  140.9228  154.0278 H   0  0  0  0  0  0  0  0  0  0  0  0
  147.7270  143.1552  155.3136 H   0  0  0  0  0  0  0  0  0  0  0  0
  149.4097  143.1706  156.2989 H   0  0  0  0  0  0  0  0  0  0  0  0
  151.2007  138.9929  156.7842 H   0  0  0  0  0  0  0  0  0  0  0  0
  1  2  2  0  0  0  0
  1 22  1  0  0  0  0
  2 17  1  0  0  0  0
  2  3  1  0  0  0  0
  3  4  2  0  0  0  0
  4  5  1  0  0  0  0
  4 23  1  0  0  0  0
  5  6  1  0  0  0  0
  5 15  1  0  0  0  0
  6 18  1  0  0  0  0
  6 13  1  0  0  0  0
  6  7  1  0  0  0  0
  7  8  1  0  0  0  0
  8 19  1  0  0  0  0
  8  9  1  0  0  0  0
  8 11  1  0  0  0  0
  9 10  1  0  0  0  0
  9 24  1  0  0  0  0
  9 25  1  0  0  0  0
 10 26  1  0  0  0  0
 11 20  1  0  0  0  0
 11 12  1  0  0  0  0
 11 13  1  0  0  0  0
 12 27  1  0  0  0  0
 13 21  1  0  0  0  0
 13 14  1  0  0  0  0
 14 28  1  0  0  0  0
 15 16  2  0  0  0  0
 15 17  1  0  0  0  0
M  CHG  1  17  -1
M  END
> <s_m_source_file>
AV-unprocessed.smi

> <i_m_source_file_index>
72

> <i_lp_mmshare_version>
43012

> <i_f3d_flags>
0

> <s_epik_input>
W05IMl1jMW5bY0hdbihjKD1PKW4xKVtDQEBIXTJPW0NASF0oW0NIMl1bT0hdKVtDQEBIXShbT0hdKVtDQEhdMltPSF0=

> <s_epik_cmdline>
J2VwaWtfcHl0aG9uJywgJy1waCcsICc3LjAnLCAnLXRuJywgJzgnLCAnLW1hJywgJzIwMCcsICctbWV0YWxfYmluZGluZycsICctaW1hZScsICc8aW5maWxlLm1hZT4nLCAnLW9tYWUnLCAnPG91dGZpbGUubWFlPic=

> <r_lp_tautomer_probability>
7.17554e-07

> <r_epik_Ionization_Penalty>
12.8705

> <r_epik_Ionization_Penalty_Charging>
5.64144

> <r_epik_Ionization_Penalty_Neutral>
7.22905

> <r_epik_State_Penalty>
3.30104

> <r_epik_Charging_Adjusted_Penalty>
8.94249

> <i_epik_Tot_Q>
-1

> <i_epik_Tot_abs_Q>
1

> <r_epik_Metal_State_Penalty>
0.529074

> <b_epik_Metal_Only>
1

> <s_epik_Chemistry_Notes>
This compound contains an acetal/aminal-like group ( X-CH(R)-Y where X, Y are N, S, or O) that may be acid/base labile, releasing an aldehyde.

> <s_lp_Force_Field>
OPLS_2005

> <r_lp_Energy>
43.5119

> <b_lp_Chiralities_Consistent>
1

> <s_lp_Variant>
AV-unprocessed.smi:72-66

> <Gold.Version>
5.8.1

> <Gold.Id.Protein>
6NUR|6NUR_protein|mol2

> <Gold.PLP.Fitness>
35.6192

> <Gold.PLP.PLP>
-23.6824

> <Gold.PLP.part.hbond>
-3.5025

> <Gold.PLP.part.metal>
0.0000

> <Gold.PLP.part.buried>
-3.2494

> <Gold.PLP.part.nonpolar>
-18.4113

> <Gold.PLP.part.repulsive>
1.6266

> <Gold.PLP.ligand.clash>
0.0000

> <Gold.PLP.ligand.torsion>
0.0434

> <Gold.PLP.Chemscore.Hbond>
4.0000

> <Gold.PLP.Chemscore.CHOScore>
0.0000

> <Gold.PLP.Chemscore.Metal>
0.0000

> <Gold.Chemscore.Hbonds>
donor molecule, donor type, donor heavy atom, donor atom, acceptor molecule, acceptor atom, score
      L1  H    10    26       P1  8028  1.00
      L1  H    12    27       P1  8028  1.00
      P1  H 10752 10765       L1    17  1.90

> <Gold.PLP.Chemscore.Internal.Correction>
0.0236

> <Gold.Rescore>
     Score         DG    S(hbond)    S(metal)    S(lipo)     H(rot)  DE(clash)    DE(int)     intcor
      4.33      -4.68       2.02        0.00      24.08       4.04       0.05       0.30       ----

> <Gold.Chemscore.Fitness>
4.3306

> <Gold.Chemscore.DG>
-4.6845

> <Gold.Chemscore.ZeroCoef>
-5.4800

> <Gold.Chemscore.Hbond>
2.0152

> <Gold.Chemscore.Metal>
0.0000

> <Gold.Chemscore.Lipo>
24.0761

> <Gold.Chemscore.Internal_Hbond>
0.0000

> <Gold.Chemscore.DEClash>
0.0509

> <Gold.Chemscore.DEInternal>
0.3030

> <Gold.Chemscore.Rot>
4.0403

> <Gold.Chemscore.Internal.Correction>
   9.000000E+99

> <Gold.Chemscore.Hbonds>
donor molecule, donor type, donor heavy atom, donor atom, acceptor molecule, acceptor atom, score
      L1  H    10    26       P1  8028  0.49
      L1  H    12    27       P1  8028  1.00
      P1  H 10752 10765       L1    17  0.21

> <Gold.Chemscore.Hbond.Weighted>
-6.7306

> <Gold.Chemscore.Metal.Weighted>
-0.0000

> <Gold.Chemscore.Lipo.Weighted>
-2.8169

> <Gold.Chemscore.Internal_Hbond.Weighted>
0.0000

> <Gold.Chemscore.DEClash.Weighted>
0.0509

> <Gold.Chemscore.DEInternal.Weighted>
0.3030

> <Gold.Chemscore.Rot.Weighted>
10.3431

> <Gold.Chemscore.Internal.Correction.Weighted>
   9.000000E+99

> <Gold.Protein.RotatedTorsions>
[ 6907 6896 6895 6894 ] final   46.39 input  -60.11 | X-H torsion
[ 7974 7965 7964 7962 ] final  -65.21 input  175.53 | X-H torsion
[ 8008 7997 7996 7995 ] final  -15.78 input   59.86 | X-H torsion
[ 10167 10162 10161 10158 ] final   12.63 input  -65.29 | X-H torsion
[ 10718 10713 10712 10709 ] final -134.27 input   66.30 | X-H torsion
[ 10763 10752 10751 10750 ] final -159.14 input  -60.55 | X-H torsion
[ 11005 11000 10999 10996 ] final   18.39 input  -57.11 | X-H torsion

> <Gold.Protein.ActiveResidues>
 VAL166  LYS551  ARG553  GLY616  TRP617  ASP618  TYR619  PRO620  LYS621  CYS622 
 ASP623  PHE694  ASN695  SER759  ASP760  ASP761  ALA762  ILE779  LEU786  VAL792 
 PHE793  MET794  SER795  GLU796  ALA797  LYS798  CYS799  TRP800  GLU811  SER814 

> <Gold.Protein.RotatedAtoms>
  152.2559  134.8085  160.0438 H   0  0  0  0  0  0  0  0  0  0  0  0  # atno 6907 bound_to 6896
  151.8749  133.3478  159.3755 H   0  0  0  0  0  0  0  0  0  0  0  0  # atno 6908 bound_to 6896
  150.7099  134.5003  159.5602 H   0  0  0  0  0  0  0  0  0  0  0  0  # atno 6909 bound_to 6896
  145.7572  140.8880  143.0449 H   0  0  0  0  0  0  0  0  0  0  0  0  # atno 7974 bound_to 7965
  154.5103  140.2187  155.9169 H   0  0  0  0  0  0  0  0  0  0  0  0  # atno 8008 bound_to 7997
  156.1544  140.3155  155.8668 H   0  0  0  0  0  0  0  0  0  0  0  0  # atno 8009 bound_to 7997
  155.3875  140.0476  157.3032 H   0  0  0  0  0  0  0  0  0  0  0  0  # atno 8010 bound_to 7997
  140.6055  143.8517  150.7009 H   0  0  0  0  0  0  0  0  0  0  0  0  # atno 10167 bound_to 10162
  156.2537  130.7168  151.1077 H   0  0  0  0  0  0  0  0  0  0  0  0  # atno 10718 bound_to 10713
  154.7499  135.3089  154.8577 H   0  0  0  0  0  0  0  0  0  0  0  0  # atno 10763 bound_to 10752
  153.9367  135.6779  153.4749 H   0  0  0  0  0  0  0  0  0  0  0  0  # atno 10764 bound_to 10752
  153.1095  135.4873  154.8938 H   0  0  0  0  0  0  0  0  0  0  0  0  # atno 10765 bound_to 10752
  140.4253  134.1476  155.7676 H   0  0  0  0  0  0  0  0  0  0  0  0  # atno 11005 bound_to 11000
  144.6838  139.9672  143.7481 LP  0  0  0  0  0  0  0  0  0  0  0  0  # atno 17320 bound_to 7965
  146.0300  139.3326  143.0761 LP  0  0  0  0  0  0  0  0  0  0  0  0  # atno 17321 bound_to 7965
  140.2073  143.3912  152.1746 LP  0  0  0  0  0  0  0  0  0  0  0  0  # atno 17342 bound_to 10162
  139.5322  144.7171  151.5017 LP  0  0  0  0  0  0  0  0  0  0  0  0  # atno 17343 bound_to 10162
  157.7224  131.0672  150.6078 LP  0  0  0  0  0  0  0  0  0  0  0  0  # atno 17370 bound_to 10713
  156.6160  130.4393  149.5840 LP  0  0  0  0  0  0  0  0  0  0  0  0  # atno 17371 bound_to 10713
  141.1767  133.8498  157.1395 LP  0  0  0  0  0  0  0  0  0  0  0  0  # atno 17394 bound_to 11000
  140.0172  134.9962  157.0517 LP  0  0  0  0  0  0  0  0  0  0  0  0  # atno 17395 bound_to 11000

$$$$
