AV-unprocessed.smi:2154|AV-procd|sdf|8777|dock3
  -GOLD-   2272011553D 1   1.00000     0.00000
 Structure written by MMmdl.
 31 32  0  0  0  0  0  0  0  0  2 V2000
  153.6936  142.1963  160.0852 C   0  0  0  0  0  0  0  0  0  0  0  0
  152.2820  142.6771  160.3446 C   0  0  1  0  0  0  0  0  0  0  0  0
  152.0343  144.0080  161.0179 C   0  0  0  0  0  0  0  0  0  0  0  0
  151.7000  143.8290  159.5560 C   0  0  2  0  0  0  0  0  0  0  0  0
  150.2618  143.7920  159.0841 C   0  0  0  0  0  0  0  0  0  0  0  0
  150.1100  143.3400  157.7081 N   0  0  0  0  0  0  0  0  0  0  0  0
  150.4526  142.1316  157.2313 C   0  0  0  0  0  0  0  0  0  0  0  0
  150.9318  141.2450  157.9379 O   0  0  0  0  0  0  0  0  0  0  0  0
  150.2230  141.8494  155.7358 C   0  0  0  0  0  0  0  0  0  0  0  0
  150.6509  140.5137  155.2798 N   0  0  0  0  0  0  0  0  0  0  0  0
  151.9878  140.1457  155.5133 C   0  0  0  0  0  0  0  0  0  0  0  0
  152.4708  138.9458  155.1386 C   0  0  0  0  0  0  0  0  0  0  0  0
  151.5674  138.0155  154.4735 C   0  0  0  0  0  0  0  0  0  0  0  0
  151.9914  136.9160  154.1232 O   0  0  0  0  0  0  0  0  0  0  0  0
  150.2784  138.4173  154.2720 N   0  5  0  0  0  0  0  0  0  0  0  0
  149.8008  139.6406  154.6590 C   0  0  0  0  0  0  0  0  0  0  0  0
  148.6318  139.9799  154.4748 O   0  0  0  0  0  0  0  0  0  0  0  0
  154.3414  143.0275  159.8047 H   0  0  0  0  0  0  0  0  0  0  0  0
  153.6964  141.4657  159.2762 H   0  0  0  0  0  0  0  0  0  0  0  0
  154.0997  141.7261  160.9809 H   0  0  0  0  0  0  0  0  0  0  0  0
  151.5930  141.8779  160.6113 H   0  0  0  0  0  0  0  0  0  0  0  0
  151.2083  144.0677  161.7238 H   0  0  0  0  0  0  0  0  0  0  0  0
  152.8977  144.6246  161.2600 H   0  0  0  0  0  0  0  0  0  0  0  0
  152.3753  144.3101  158.8503 H   0  0  0  0  0  0  0  0  0  0  0  0
  149.7056  143.1491  159.7678 H   0  0  0  0  0  0  0  0  0  0  0  0
  149.8259  144.7879  159.1698 H   0  0  0  0  0  0  0  0  0  0  0  0
  149.7276  144.0062  157.0519 H   0  0  0  0  0  0  0  0  0  0  0  0
  149.1654  142.0025  155.5148 H   0  0  0  0  0  0  0  0  0  0  0  0
  150.7426  142.6204  155.1652 H   0  0  0  0  0  0  0  0  0  0  0  0
  152.5884  140.8899  156.0157 H   0  0  0  0  0  0  0  0  0  0  0  0
  153.4999  138.6781  155.3274 H   0  0  0  0  0  0  0  0  0  0  0  0
  1  2  1  0  0  0  0
  1 18  1  0  0  0  0
  1 19  1  0  0  0  0
  1 20  1  0  0  0  0
  2  4  1  0  0  0  0
  2  3  1  0  0  0  0
  2 21  1  0  0  0  0
  3  4  1  0  0  0  0
  3 22  1  0  0  0  0
  3 23  1  0  0  0  0
  4  5  1  0  0  0  0
  4 24  1  0  0  0  0
  5  6  1  0  0  0  0
  5 25  1  0  0  0  0
  5 26  1  0  0  0  0
  6  7  1  0  0  0  0
  6 27  1  0  0  0  0
  7  8  2  0  0  0  0
  7  9  1  0  0  0  0
  9 10  1  0  0  0  0
  9 28  1  0  0  0  0
  9 29  1  0  0  0  0
 10 16  1  0  0  0  0
 10 11  1  0  0  0  0
 11 12  2  0  0  0  0
 11 30  1  0  0  0  0
 12 13  1  0  0  0  0
 12 31  1  0  0  0  0
 13 14  2  0  0  0  0
 13 15  1  0  0  0  0
 15 16  1  0  0  0  0
 16 17  2  0  0  0  0
M  CHG  1  15  -1
M  END
> <s_m_source_file>
AV-unprocessed.smi

> <i_m_source_file_index>
2154

> <i_lp_mmshare_version>
43012

> <i_f3d_flags>
0

> <s_epik_input>
W0NIM11bQ0BASF0xW0NIMl1bQ0BIXTFbQ0gyXVtOSF1DKD1PKVtDSDJdbjJbY0hdW2NIXWMoPU8pW25IXWMyPU8=

> <s_epik_cmdline>
J2VwaWtfcHl0aG9uJywgJy1waCcsICc3LjAnLCAnLXRuJywgJzgnLCAnLW1hJywgJzIwMCcsICctbWV0YWxfYmluZGluZycsICctaW1hZScsICc8aW5maWxlLm1hZT4nLCAnLW9tYWUnLCAnPG91dGZpbGUubWFlPic=

> <r_lp_tautomer_probability>
0.999537

> <r_epik_Ionization_Penalty>
3.12283

> <r_epik_Ionization_Penalty_Charging>
2.83566e-08

> <r_epik_Ionization_Penalty_Neutral>
3.12283

> <r_epik_State_Penalty>
3.12192

> <r_epik_Charging_Adjusted_Penalty>
3.12192

> <i_epik_Tot_Q>
-1

> <i_epik_Tot_abs_Q>
1

> <r_epik_Metal_State_Penalty>
0.463748

> <b_epik_Metal_Only>
1

> <s_lp_Force_Field>
OPLS_2005

> <r_lp_Energy>
24.2191

> <b_lp_Chiralities_Consistent>
1

> <s_lp_Variant>
AV-unprocessed.smi:2154-8

> <Gold.Version>
5.8.1

> <Gold.Id.Protein>
6NUR|6NUR_protein|mol2

> <Gold.PLP.Fitness>
44.4866

> <Gold.PLP.PLP>
-38.5642

> <Gold.PLP.part.hbond>
-2.0000

> <Gold.PLP.part.metal>
0.0000

> <Gold.PLP.part.buried>
-3.8810

> <Gold.PLP.part.nonpolar>
-33.0451

> <Gold.PLP.part.repulsive>
1.1750

> <Gold.PLP.ligand.clash>
0.0000

> <Gold.PLP.ligand.torsion>
0.3078

> <Gold.PLP.Chemscore.Hbond>
2.0000

> <Gold.PLP.Chemscore.CHOScore>
0.0000

> <Gold.PLP.Chemscore.Metal>
0.0000

> <Gold.Chemscore.Hbonds>
donor molecule, donor type, donor heavy atom, donor atom, acceptor molecule, acceptor atom, score
      L1  H     6    27       P1  8028  1.00
      P1  H 10752 10764       L1    14  0.96

> <Gold.PLP.Chemscore.Internal.Correction>
0.5381

> <Gold.Rescore>
     Score         DG    S(hbond)    S(metal)    S(lipo)     H(rot)  DE(clash)    DE(int)     intcor
     12.88     -16.02       1.98        0.00      76.62       1.96       0.18       2.96       ----

> <Gold.Chemscore.Fitness>
12.8788

> <Gold.Chemscore.DG>
-16.0230

> <Gold.Chemscore.ZeroCoef>
-5.4800

> <Gold.Chemscore.Hbond>
1.9757

> <Gold.Chemscore.Metal>
0.0000

> <Gold.Chemscore.Lipo>
76.6161

> <Gold.Chemscore.Internal_Hbond>
0.0000

> <Gold.Chemscore.DEClash>
0.1823

> <Gold.Chemscore.DEInternal>
2.9619

> <Gold.Chemscore.Rot>
1.9609

> <Gold.Chemscore.Internal.Correction>
   9.000000E+99

> <Gold.Chemscore.Hbonds>
donor molecule, donor type, donor heavy atom, donor atom, acceptor molecule, acceptor atom, score
      L1  H     6    27       P1  8028  0.78
      P1  H 10752 10764       L1    14  0.91

> <Gold.Chemscore.Hbond.Weighted>
-6.5989

> <Gold.Chemscore.Metal.Weighted>
-0.0000

> <Gold.Chemscore.Lipo.Weighted>
-8.9641

> <Gold.Chemscore.Internal_Hbond.Weighted>
0.0000

> <Gold.Chemscore.DEClash.Weighted>
0.1823

> <Gold.Chemscore.DEInternal.Weighted>
2.9619

> <Gold.Chemscore.Rot.Weighted>
5.0200

> <Gold.Chemscore.Internal.Correction.Weighted>
   9.000000E+99

> <Gold.Protein.RotatedTorsions>
[ 6907 6896 6895 6894 ] final -146.00 input  -60.11 | X-H torsion
[ 7974 7965 7964 7962 ] final  127.67 input  175.53 | X-H torsion
[ 8008 7997 7996 7995 ] final  -65.97 input   59.86 | X-H torsion
[ 10167 10162 10161 10158 ] final  114.47 input  -65.29 | X-H torsion
[ 10718 10713 10712 10709 ] final   -7.80 input   66.30 | X-H torsion
[ 10763 10752 10751 10750 ] final  -68.70 input  -60.55 | X-H torsion
[ 11005 11000 10999 10996 ] final  134.23 input  -57.11 | X-H torsion

> <Gold.Protein.ActiveResidues>
 VAL166  LYS551  ARG553  GLY616  TRP617  ASP618  TYR619  PRO620  LYS621  CYS622 
 ASP623  PHE694  ASN695  SER759  ASP760  ASP761  ALA762  ILE779  LEU786  VAL792 
 PHE793  MET794  SER795  GLU796  ALA797  LYS798  CYS799  TRP800  GLU811  SER814 

> <Gold.Protein.RotatedAtoms>
  151.1355  133.5007  159.2597 H   0  0  0  0  0  0  0  0  0  0  0  0  # atno 6907 bound_to 6896
  151.1711  135.0318  159.8762 H   0  0  0  0  0  0  0  0  0  0  0  0  # atno 6908 bound_to 6896
  152.5461  134.1218  159.8455 H   0  0  0  0  0  0  0  0  0  0  0  0  # atno 6909 bound_to 6896
  145.0480  139.3907  143.5068 H   0  0  0  0  0  0  0  0  0  0  0  0  # atno 7974 bound_to 7965
  154.4704  140.0922  156.7131 H   0  0  0  0  0  0  0  0  0  0  0  0  # atno 8008 bound_to 7997
  155.4739  140.3465  155.4311 H   0  0  0  0  0  0  0  0  0  0  0  0  # atno 8009 bound_to 7997
  156.1030  140.1427  156.9430 H   0  0  0  0  0  0  0  0  0  0  0  0  # atno 8010 bound_to 7997
  139.6386  144.7122  151.2283 H   0  0  0  0  0  0  0  0  0  0  0  0  # atno 10167 bound_to 10162
  156.7120  130.5125  149.5890 H   0  0  0  0  0  0  0  0  0  0  0  0  # atno 10718 bound_to 10713
  154.3928  135.6049  153.5853 H   0  0  0  0  0  0  0  0  0  0  0  0  # atno 10763 bound_to 10752
  152.9787  135.5888  154.4277 H   0  0  0  0  0  0  0  0  0  0  0  0  # atno 10764 bound_to 10752
  154.4063  135.2843  155.2043 H   0  0  0  0  0  0  0  0  0  0  0  0  # atno 10765 bound_to 10752
  139.9902  134.9518  156.9837 H   0  0  0  0  0  0  0  0  0  0  0  0  # atno 11005 bound_to 11000
  146.3515  140.0116  142.8666 LP  0  0  0  0  0  0  0  0  0  0  0  0  # atno 17320 bound_to 7965
  145.1563  140.9649  143.4403 LP  0  0  0  0  0  0  0  0  0  0  0  0  # atno 17321 bound_to 7965
  140.7479  143.6352  150.8386 LP  0  0  0  0  0  0  0  0  0  0  0  0  # atno 17342 bound_to 10162
  139.9986  143.5769  152.2884 LP  0  0  0  0  0  0  0  0  0  0  0  0  # atno 17343 bound_to 10162
  156.1654  130.6402  151.0772 LP  0  0  0  0  0  0  0  0  0  0  0  0  # atno 17370 bound_to 10713
  157.6932  131.0803  150.7045 LP  0  0  0  0  0  0  0  0  0  0  0  0  # atno 17371 bound_to 10713
  140.4924  134.1179  155.7235 LP  0  0  0  0  0  0  0  0  0  0  0  0  # atno 17394 bound_to 11000
  141.1559  133.8884  157.1978 LP  0  0  0  0  0  0  0  0  0  0  0  0  # atno 17395 bound_to 11000

$$$$
