AV-unprocessed.smi:705|AV-procd|sdf|3446|dock2
  -GOLD-   22720 0433D 1   1.00000     0.00000
 Structure written by MMmdl.
 29 30  0  0  0  0  0  0  0  0  2 V2000
  145.2150  138.4830  152.5031 N   0  0  0  0  0  0  0  0  0  0  0  0
  146.4719  138.3744  152.0630 C   0  0  0  0  0  0  0  0  0  0  0  0
  146.7475  137.8227  150.9994 O   0  0  0  0  0  0  0  0  0  0  0  0
  147.5261  138.9867  152.8981 C   0  0  0  0  0  0  0  0  0  0  0  0
  147.4164  140.1335  153.6320 C   0  0  0  0  0  0  0  0  0  0  0  0
  148.7007  140.2394  154.2478 C   0  0  0  0  0  0  0  0  0  0  0  0
  149.1841  141.3274  155.1727 C   0  0  2  0  0  0  0  0  0  0  0  0
  150.6615  141.1354  155.5670 C   0  0  0  0  0  0  0  0  0  0  0  0
  151.1150  142.2592  156.5113 C   0  0  0  0  0  0  0  0  0  0  0  0
  150.1842  142.3600  157.7313 C   0  0  0  0  0  0  0  0  0  0  0  0
  148.7798  142.5480  157.3057 N   0  3  0  0  0  0  0  0  0  0  0  0
  148.2916  141.4643  156.4244 C   0  0  0  0  0  0  0  0  0  0  0  0
  149.5110  139.2329  153.9229 N   0  0  0  0  0  0  0  0  0  0  0  0
  148.7769  138.4603  153.0982 N   0  0  0  0  0  0  0  0  0  0  0  0
  149.1352  137.6086  152.6892 H   0  0  0  0  0  0  0  0  0  0  0  0
  144.4592  138.0850  151.9648 H   0  0  0  0  0  0  0  0  0  0  0  0
  145.0245  138.9661  153.3686 H   0  0  0  0  0  0  0  0  0  0  0  0
  146.5668  140.7950  153.7184 H   0  0  0  0  0  0  0  0  0  0  0  0
  149.1193  142.2723  154.6308 H   0  0  0  0  0  0  0  0  0  0  0  0
  150.7960  140.1719  156.0609 H   0  0  0  0  0  0  0  0  0  0  0  0
  151.2917  141.1200  154.6770 H   0  0  0  0  0  0  0  0  0  0  0  0
  152.1399  142.0802  156.8378 H   0  0  0  0  0  0  0  0  0  0  0  0
  151.1232  143.2089  155.9745 H   0  0  0  0  0  0  0  0  0  0  0  0
  150.2569  141.4578  158.3401 H   0  0  0  0  0  0  0  0  0  0  0  0
  150.4795  143.1972  158.3642 H   0  0  0  0  0  0  0  0  0  0  0  0
  148.1917  142.5926  158.1257 H   0  0  0  0  0  0  0  0  0  0  0  0
  147.2628  141.6820  156.1362 H   0  0  0  0  0  0  0  0  0  0  0  0
  148.2736  140.5321  156.9909 H   0  0  0  0  0  0  0  0  0  0  0  0
  148.7103  143.4232  156.8067 H   0  0  0  0  0  0  0  0  0  0  0  0
  1  2  1  0  0  0  0
  1 16  1  0  0  0  0
  1 17  1  0  0  0  0
  2  3  2  0  0  0  0
  2  4  1  0  0  0  0
  4 14  1  0  0  0  0
  4  5  2  0  0  0  0
  5  6  1  0  0  0  0
  5 18  1  0  0  0  0
  6  7  1  0  0  0  0
  6 13  2  0  0  0  0
  7 12  1  0  0  0  0
  7  8  1  0  0  0  0
  7 19  1  0  0  0  0
  8  9  1  0  0  0  0
  8 20  1  0  0  0  0
  8 21  1  0  0  0  0
  9 10  1  0  0  0  0
  9 22  1  0  0  0  0
  9 23  1  0  0  0  0
 10 11  1  0  0  0  0
 10 24  1  0  0  0  0
 10 25  1  0  0  0  0
 11 12  1  0  0  0  0
 11 26  1  0  0  0  0
 11 29  1  0  0  0  0
 12 27  1  0  0  0  0
 12 28  1  0  0  0  0
 13 14  1  0  0  0  0
 14 15  1  0  0  0  0
M  CHG  1  11   1
M  END
> <s_m_source_file>
AV-unprocessed.smi

> <i_m_source_file_index>
705

> <i_lp_mmshare_version>
43012

> <i_f3d_flags>
0

> <s_epik_input>
W05IMl1DKD1PKWMxW2NIXWMoW25IXW4xKVtDQEBIXTJbQ0gyXVtDSDJdW0NIMl1bTkhdW0NIMl0y

> <s_epik_cmdline>
J2VwaWtfcHl0aG9uJywgJy1waCcsICc3LjAnLCAnLXRuJywgJzgnLCAnLW1hJywgJzIwMCcsICctbWV0YWxfYmluZGluZycsICctaW1hZScsICc8aW5maWxlLm1hZT4nLCAnLW9tYWUnLCAnPG91dGZpbGUubWFlPic=

> <r_lp_tautomer_probability>
0.5

> <r_epik_Ionization_Penalty>
0.000242638

> <r_epik_Ionization_Penalty_Charging>
0.000157527

> <r_epik_Ionization_Penalty_Neutral>
8.51112e-05

> <r_epik_State_Penalty>
0.41068

> <r_epik_Charging_Adjusted_Penalty>
0.410837

> <i_epik_Tot_Q>
1

> <i_epik_Tot_abs_Q>
1

> <r_epik_Metal_State_Penalty>
0.446108

> <b_epik_Metal_Only>
0

> <s_lp_Force_Field>
OPLS_2005

> <r_lp_Energy>
10.1374

> <b_lp_Chiralities_Consistent>
1

> <s_lp_Variant>
AV-unprocessed.smi:705-1

> <Gold.Version>
5.8.1

> <Gold.Id.Protein>
6NUR|6NUR_protein|mol2

> <Gold.PLP.Fitness>
37.6166

> <Gold.PLP.PLP>
-23.9138

> <Gold.PLP.part.hbond>
-5.4062

> <Gold.PLP.part.metal>
0.0000

> <Gold.PLP.part.buried>
-2.8312

> <Gold.PLP.part.nonpolar>
-20.3724

> <Gold.PLP.part.repulsive>
3.0309

> <Gold.PLP.ligand.clash>
0.0000

> <Gold.PLP.ligand.torsion>
0.5570

> <Gold.PLP.Chemscore.Hbond>
4.9280

> <Gold.PLP.Chemscore.CHOScore>
0.0000

> <Gold.PLP.Chemscore.Metal>
0.0000

> <Gold.Chemscore.Hbonds>
donor molecule, donor type, donor heavy atom, donor atom, acceptor molecule, acceptor atom, score
      L1  H     1    16       P1 10171  0.20
      L1  H    11    29       P1  8028  2.00
      L1  H    14    15       P1  7948  1.00
      P1  H  7954  7966       L1     3  1.00

> <Gold.PLP.Chemscore.Internal.Correction>
0.0328

> <Gold.Rescore>
     Score         DG    S(hbond)    S(metal)    S(lipo)     H(rot)  DE(clash)    DE(int)     intcor
     19.01     -21.31       3.76        0.00      49.74       1.00       1.94       0.36       ----

> <Gold.Chemscore.Fitness>
19.0090

> <Gold.Chemscore.DG>
-21.3137

> <Gold.Chemscore.ZeroCoef>
-5.4800

> <Gold.Chemscore.Hbond>
3.7647

> <Gold.Chemscore.Metal>
0.0000

> <Gold.Chemscore.Lipo>
49.7388

> <Gold.Chemscore.Internal_Hbond>
0.0000

> <Gold.Chemscore.DEClash>
1.9430

> <Gold.Chemscore.DEInternal>
0.3617

> <Gold.Chemscore.Rot>
1.0000

> <Gold.Chemscore.Internal.Correction>
   9.000000E+99

> <Gold.Chemscore.Hbonds>
donor molecule, donor type, donor heavy atom, donor atom, acceptor molecule, acceptor atom, score
      L1  H     1    16       P1 10171  0.20
      L1  H     1    17       P1 10175  0.01
      L1  H    11    29       P1  8028  0.55
      L1  H    14    15       P1  7948  0.94
      P1  H  7954  7966       L1     3  1.00

> <Gold.Chemscore.Hbond.Weighted>
-12.5742

> <Gold.Chemscore.Metal.Weighted>
-0.0000

> <Gold.Chemscore.Lipo.Weighted>
-5.8194

> <Gold.Chemscore.Internal_Hbond.Weighted>
0.0000

> <Gold.Chemscore.DEClash.Weighted>
1.9430

> <Gold.Chemscore.DEInternal.Weighted>
0.3617

> <Gold.Chemscore.Rot.Weighted>
2.5600

> <Gold.Chemscore.Internal.Correction.Weighted>
   9.000000E+99

> <Gold.Protein.RotatedTorsions>
[ 6907 6896 6895 6894 ] final  -16.35 input  -60.11 | X-H torsion
[ 7974 7965 7964 7962 ] final   58.43 input  175.53 | X-H torsion
[ 8008 7997 7996 7995 ] final  170.47 input   59.86 | X-H torsion
[ 10167 10162 10161 10158 ] final -115.11 input  -65.29 | X-H torsion
[ 10718 10713 10712 10709 ] final   79.49 input   66.30 | X-H torsion
[ 10763 10752 10751 10750 ] final  134.41 input  -60.55 | X-H torsion
[ 11005 11000 10999 10996 ] final -121.24 input  -57.11 | X-H torsion

> <Gold.Protein.ActiveResidues>
 VAL166  LYS551  ARG553  GLY616  TRP617  ASP618  TYR619  PRO620  LYS621  CYS622 
 ASP623  PHE694  ASN695  SER759  ASP760  ASP761  ALA762  ILE779  LEU786  VAL792 
 PHE793  MET794  SER795  GLU796  ALA797  LYS798  CYS799  TRP800  GLU811  SER814 

> <Gold.Protein.RotatedAtoms>
  151.3099  135.0791  159.9268 H   0  0  0  0  0  0  0  0  0  0  0  0  # atno 6907 bound_to 6896
  152.5280  133.9746  159.7788 H   0  0  0  0  0  0  0  0  0  0  0  0  # atno 6908 bound_to 6896
  151.0048  133.5970  159.2720 H   0  0  0  0  0  0  0  0  0  0  0  0  # atno 6909 bound_to 6896
  145.9182  139.3708  143.0494 H   0  0  0  0  0  0  0  0  0  0  0  0  # atno 7974 bound_to 7965
  156.1362  140.1537  156.8991 H   0  0  0  0  0  0  0  0  0  0  0  0  # atno 8008 bound_to 7997
  154.4949  140.0841  156.7714 H   0  0  0  0  0  0  0  0  0  0  0  0  # atno 8009 bound_to 7997
  155.4164  140.3421  155.4270 H   0  0  0  0  0  0  0  0  0  0  0  0  # atno 8010 bound_to 7997
  140.0936  143.4677  152.1855 H   0  0  0  0  0  0  0  0  0  0  0  0  # atno 10167 bound_to 10162
  157.6778  130.9916  150.1940 H   0  0  0  0  0  0  0  0  0  0  0  0  # atno 10718 bound_to 10713
  153.8232  135.3113  155.3412 H   0  0  0  0  0  0  0  0  0  0  0  0  # atno 10763 bound_to 10752
  154.8004  135.4730  154.0265 H   0  0  0  0  0  0  0  0  0  0  0  0  # atno 10764 bound_to 10752
  153.1680  135.6873  153.8737 H   0  0  0  0  0  0  0  0  0  0  0  0  # atno 10765 bound_to 10752
  141.0085  134.0299  157.3445 H   0  0  0  0  0  0  0  0  0  0  0  0  # atno 11005 bound_to 11000
  145.8583  140.9489  143.0713 LP  0  0  0  0  0  0  0  0  0  0  0  0  # atno 17320 bound_to 7965
  144.6750  140.0498  143.7479 LP  0  0  0  0  0  0  0  0  0  0  0  0  # atno 17321 bound_to 7965
  139.5710  144.7463  151.3890 LP  0  0  0  0  0  0  0  0  0  0  0  0  # atno 17342 bound_to 10162
  140.7015  143.7619  150.7411 LP  0  0  0  0  0  0  0  0  0  0  0  0  # atno 17343 bound_to 10162
  156.2645  130.3714  149.8096 LP  0  0  0  0  0  0  0  0  0  0  0  0  # atno 17370 bound_to 10713
  156.5831  130.8474  151.3388 LP  0  0  0  0  0  0  0  0  0  0  0  0  # atno 17371 bound_to 10713
  139.9076  135.0183  156.7555 LP  0  0  0  0  0  0  0  0  0  0  0  0  # atno 17394 bound_to 11000
  140.6773  133.9506  155.7890 LP  0  0  0  0  0  0  0  0  0  0  0  0  # atno 17395 bound_to 11000

$$$$
