AV-unprocessed.smi:3340|AV-procd|sdf|12880|dock7
  -GOLD-   2272019283D 1   1.00000     0.00000
 Structure written by MMmdl.
 42 43  0  0  0  0  0  0  0  0  2 V2000
  153.4403  130.5550  157.2152 C   0  0  0  0  0  0  0  0  0  0  0  0
  152.3112  131.5448  156.9200 C   0  0  0  0  0  0  0  0  0  0  0  0
  152.2032  132.5304  157.6498 O   0  0  0  0  0  0  0  0  0  0  0  0
  151.4756  131.3087  155.8799 N   0  0  0  0  0  0  0  0  0  0  0  0
  150.3360  132.1826  155.5611 C   0  0  0  0  0  0  0  0  0  0  0  0
  149.0273  131.3841  155.7264 C   0  0  0  0  0  0  0  0  0  0  0  0
  149.0699  130.2080  154.8363 N   0  0  0  0  0  0  0  0  0  0  0  0
  148.3177  130.0153  153.7238 C   0  0  0  0  0  0  0  0  0  0  0  0
  148.4144  129.0153  153.0121 O   0  0  0  0  0  0  0  0  0  0  0  0
  147.4115  130.9823  153.4879 N   0  0  0  0  0  0  0  0  0  0  0  0
  146.4430  131.0587  152.3899 C   0  0  1  0  0  0  0  0  0  0  0  0
  145.4848  129.8557  152.4056 C   0  0  0  0  0  0  0  0  0  0  0  0
  145.6859  132.4060  152.3394 C   0  0  0  0  0  0  0  0  0  0  0  0
  144.7299  132.4827  151.2305 N   0  0  0  0  0  0  0  0  0  0  0  0
  144.9474  132.1394  149.9208 C   0  0  0  0  0  0  0  0  0  0  0  0
  143.7733  132.3786  149.2543 C   0  0  0  0  0  0  0  0  0  0  0  0
  142.8907  132.8597  150.1841 N   0  3  0  0  0  0  0  0  0  0  0  0
  143.4753  132.9247  151.3849 C   0  0  0  0  0  0  0  0  0  0  0  0
  150.2048  129.3350  155.1725 C   0  0  0  0  0  0  0  0  0  0  0  0
  151.5163  130.1274  155.0031 C   0  0  0  0  0  0  0  0  0  0  0  0
  153.0392  129.5667  157.4410 H   0  0  0  0  0  0  0  0  0  0  0  0
  154.0220  130.8822  158.0777 H   0  0  0  0  0  0  0  0  0  0  0  0
  154.1202  130.4784  156.3663 H   0  0  0  0  0  0  0  0  0  0  0  0
  150.2984  133.0743  156.1882 H   0  0  0  0  0  0  0  0  0  0  0  0
  150.4340  132.5415  154.5353 H   0  0  0  0  0  0  0  0  0  0  0  0
  148.9238  131.0458  156.7586 H   0  0  0  0  0  0  0  0  0  0  0  0
  148.1796  132.0456  155.5500 H   0  0  0  0  0  0  0  0  0  0  0  0
  147.4001  131.7560  154.1368 H   0  0  0  0  0  0  0  0  0  0  0  0
  147.0344  130.9794  151.4772 H   0  0  0  0  0  0  0  0  0  0  0  0
  144.8496  129.8530  151.5196 H   0  0  0  0  0  0  0  0  0  0  0  0
  144.8299  129.8700  153.2771 H   0  0  0  0  0  0  0  0  0  0  0  0
  146.0350  128.9143  152.4171 H   0  0  0  0  0  0  0  0  0  0  0  0
  145.1275  132.5579  153.2644 H   0  0  0  0  0  0  0  0  0  0  0  0
  146.3713  133.2496  152.2546 H   0  0  0  0  0  0  0  0  0  0  0  0
  145.8963  131.7579  149.5713 H   0  0  0  0  0  0  0  0  0  0  0  0
  143.5071  132.2466  148.2156 H   0  0  0  0  0  0  0  0  0  0  0  0
  143.0225  133.2643  152.2994 H   0  0  0  0  0  0  0  0  0  0  0  0
  150.1023  128.9920  156.2030 H   0  0  0  0  0  0  0  0  0  0  0  0
  150.2380  128.4315  154.5623 H   0  0  0  0  0  0  0  0  0  0  0  0
  151.6265  130.4555  153.9682 H   0  0  0  0  0  0  0  0  0  0  0  0
  152.3622  129.4691  155.1937 H   0  0  0  0  0  0  0  0  0  0  0  0
  141.9338  133.1298  149.9931 H   0  0  0  0  0  0  0  0  0  0  0  0
  1  2  1  0  0  0  0
  1 21  1  0  0  0  0
  1 22  1  0  0  0  0
  1 23  1  0  0  0  0
  2  3  2  0  0  0  0
  2  4  1  0  0  0  0
  4 20  1  0  0  0  0
  4  5  1  0  0  0  0
  5  6  1  0  0  0  0
  5 24  1  0  0  0  0
  5 25  1  0  0  0  0
  6  7  1  0  0  0  0
  6 26  1  0  0  0  0
  6 27  1  0  0  0  0
  7  8  1  0  0  0  0
  7 19  1  0  0  0  0
  8  9  2  0  0  0  0
  8 10  1  0  0  0  0
 10 11  1  0  0  0  0
 10 28  1  0  0  0  0
 11 12  1  0  0  0  0
 11 13  1  0  0  0  0
 11 29  1  0  0  0  0
 12 30  1  0  0  0  0
 12 31  1  0  0  0  0
 12 32  1  0  0  0  0
 13 14  1  0  0  0  0
 13 33  1  0  0  0  0
 13 34  1  0  0  0  0
 14 18  1  0  0  0  0
 14 15  1  0  0  0  0
 15 16  2  0  0  0  0
 15 35  1  0  0  0  0
 16 17  1  0  0  0  0
 16 36  1  0  0  0  0
 17 18  2  0  0  0  0
 17 42  1  0  0  0  0
 18 37  1  0  0  0  0
 19 20  1  0  0  0  0
 19 38  1  0  0  0  0
 19 39  1  0  0  0  0
 20 40  1  0  0  0  0
 20 41  1  0  0  0  0
M  CHG  1  17   1
M  END
> <s_m_source_file>
AV-unprocessed.smi

> <i_m_source_file_index>
3340

> <i_lp_mmshare_version>
43012

> <i_f3d_flags>
0

> <s_epik_input>
W0NIM11DKD1PKU4xW0NIMl1bQ0gyXU4oW0NIMl1bQ0gyXTEpQyg9TylbTkhdW0NASF0oW0NIM10pW0NIMl1uMltjSF1bY0hdbltjSF0y

> <s_epik_cmdline>
J2VwaWtfcHl0aG9uJywgJy1waCcsICc3LjAnLCAnLXRuJywgJzgnLCAnLW1hJywgJzIwMCcsICctbWV0YWxfYmluZGluZycsICctaW1hZScsICc8aW5maWxlLm1hZT4nLCAnLW9tYWUnLCAnPG91dGZpbGUubWFlPic=

> <r_lp_tautomer_probability>
1

> <r_epik_Ionization_Penalty>
0.254791

> <r_epik_Ionization_Penalty_Charging>
0

> <r_epik_Ionization_Penalty_Neutral>
0.254791

> <r_epik_State_Penalty>
0.246235

> <r_epik_Charging_Adjusted_Penalty>
0.246235

> <i_epik_Tot_Q>
1

> <i_epik_Tot_abs_Q>
1

> <r_epik_Metal_State_Penalty>
0.536161

> <b_epik_Metal_Only>
0

> <s_lp_Force_Field>
OPLS_2005

> <r_lp_Energy>
52.654

> <b_lp_Chiralities_Consistent>
1

> <s_lp_Variant>
AV-unprocessed.smi:3340-2

> <Gold.Version>
5.8.1

> <Gold.Id.Protein>
6NUR|6NUR_protein|mol2

> <Gold.PLP.Fitness>
43.9115

> <Gold.PLP.PLP>
-35.2972

> <Gold.PLP.part.hbond>
-2.1794

> <Gold.PLP.part.metal>
0.0000

> <Gold.PLP.part.buried>
-3.9485

> <Gold.PLP.part.nonpolar>
-29.8232

> <Gold.PLP.part.repulsive>
0.3081

> <Gold.PLP.ligand.clash>
0.0000

> <Gold.PLP.ligand.torsion>
0.2075

> <Gold.PLP.Chemscore.Hbond>
2.9840

> <Gold.PLP.Chemscore.CHOScore>
0.0000

> <Gold.PLP.Chemscore.Metal>
0.0000

> <Gold.Chemscore.Hbonds>
donor molecule, donor type, donor heavy atom, donor atom, acceptor molecule, acceptor atom, score
      L1  H    17    42       P1 10186  1.73
      P1  H  6896  6908       L1     3  1.00
      L1  C    18    37       P1 10957  0.06

> <Gold.PLP.Chemscore.Internal.Correction>
0.0773

> <Gold.Rescore>
     Score         DG    S(hbond)    S(metal)    S(lipo)     H(rot)  DE(clash)    DE(int)     intcor
     15.10     -15.74       1.99        0.00      67.96       1.70       0.26       0.38       ----

> <Gold.Chemscore.Fitness>
15.0959

> <Gold.Chemscore.DG>
-15.7398

> <Gold.Chemscore.ZeroCoef>
-5.4800

> <Gold.Chemscore.Hbond>
1.9921

> <Gold.Chemscore.Metal>
0.0000

> <Gold.Chemscore.Lipo>
67.9643

> <Gold.Chemscore.Internal_Hbond>
0.0000

> <Gold.Chemscore.DEClash>
0.2614

> <Gold.Chemscore.DEInternal>
0.3824

> <Gold.Chemscore.Rot>
1.6975

> <Gold.Chemscore.Internal.Correction>
   9.000000E+99

> <Gold.Chemscore.Hbonds>
donor molecule, donor type, donor heavy atom, donor atom, acceptor molecule, acceptor atom, score
      L1  H    17    42       P1 10186  0.85
      P1  H  6896  6908       L1     3  0.98

> <Gold.Chemscore.Hbond.Weighted>
-6.6535

> <Gold.Chemscore.Metal.Weighted>
-0.0000

> <Gold.Chemscore.Lipo.Weighted>
-7.9518

> <Gold.Chemscore.Internal_Hbond.Weighted>
0.0000

> <Gold.Chemscore.DEClash.Weighted>
0.2614

> <Gold.Chemscore.DEInternal.Weighted>
0.3824

> <Gold.Chemscore.Rot.Weighted>
4.3455

> <Gold.Chemscore.Internal.Correction.Weighted>
   9.000000E+99

> <Gold.Protein.RotatedTorsions>
[ 6907 6896 6895 6894 ] final   49.72 input  -60.11 | X-H torsion
[ 7974 7965 7964 7962 ] final   80.04 input  175.53 | X-H torsion
[ 8008 7997 7996 7995 ] final  167.97 input   59.86 | X-H torsion
[ 10167 10162 10161 10158 ] final  -78.81 input  -65.29 | X-H torsion
[ 10718 10713 10712 10709 ] final  133.37 input   66.30 | X-H torsion
[ 10763 10752 10751 10750 ] final  -75.46 input  -60.55 | X-H torsion
[ 11005 11000 10999 10996 ] final   41.40 input  -57.11 | X-H torsion

> <Gold.Protein.ActiveResidues>
 VAL166  LYS551  ARG553  GLY616  TRP617  ASP618  TYR619  PRO620  LYS621  CYS622 
 ASP623  PHE694  ASN695  SER759  ASP760  ASP761  ALA762  ILE779  LEU786  VAL792 
 PHE793  MET794  SER795  GLU796  ALA797  LYS798  CYS799  TRP800  GLU811  SER814 

> <Gold.Protein.RotatedAtoms>
  152.2939  134.7689  160.0371 H   0  0  0  0  0  0  0  0  0  0  0  0  # atno 6907 bound_to 6896
  151.8226  133.3391  159.3597 H   0  0  0  0  0  0  0  0  0  0  0  0  # atno 6908 bound_to 6896
  150.7243  134.5489  159.5829 H   0  0  0  0  0  0  0  0  0  0  0  0  # atno 6909 bound_to 6896
  145.6564  139.2460  143.1947 H   0  0  0  0  0  0  0  0  0  0  0  0  # atno 7974 bound_to 7965
  156.1588  140.1603  156.8647 H   0  0  0  0  0  0  0  0  0  0  0  0  # atno 8008 bound_to 7997
  154.5140  140.0794  156.8082 H   0  0  0  0  0  0  0  0  0  0  0  0  # atno 8009 bound_to 7997
  155.3749  140.3402  155.4247 H   0  0  0  0  0  0  0  0  0  0  0  0  # atno 8010 bound_to 7997
  140.4649  143.2443  151.8293 H   0  0  0  0  0  0  0  0  0  0  0  0  # atno 10167 bound_to 10162
  157.4780  131.1084  150.9718 H   0  0  0  0  0  0  0  0  0  0  0  0  # atno 10718 bound_to 10713
  154.4869  135.5830  153.6430 H   0  0  0  0  0  0  0  0  0  0  0  0  # atno 10763 bound_to 10752
  152.9856  135.6103  154.3175 H   0  0  0  0  0  0  0  0  0  0  0  0  # atno 10764 bound_to 10752
  154.3071  135.2845  155.2563 H   0  0  0  0  0  0  0  0  0  0  0  0  # atno 10765 bound_to 10752
  140.1838  134.4071  155.8185 H   0  0  0  0  0  0  0  0  0  0  0  0  # atno 11005 bound_to 11000
  146.1161  140.7368  142.9480 LP  0  0  0  0  0  0  0  0  0  0  0  0  # atno 17320 bound_to 7965
  144.7104  140.4017  143.7085 LP  0  0  0  0  0  0  0  0  0  0  0  0  # atno 17321 bound_to 7965
  139.4811  144.4963  151.9119 LP  0  0  0  0  0  0  0  0  0  0  0  0  # atno 17342 bound_to 10162
  140.4049  144.2445  150.5891 LP  0  0  0  0  0  0  0  0  0  0  0  0  # atno 17343 bound_to 10162
  157.0461  130.5768  149.5363 LP  0  0  0  0  0  0  0  0  0  0  0  0  # atno 17370 bound_to 10713
  156.0107  130.5198  150.7977 LP  0  0  0  0  0  0  0  0  0  0  0  0  # atno 17371 bound_to 10713
  141.2224  133.7013  156.7977 LP  0  0  0  0  0  0  0  0  0  0  0  0  # atno 17394 bound_to 11000
  140.2237  134.8738  157.3404 LP  0  0  0  0  0  0  0  0  0  0  0  0  # atno 17395 bound_to 11000

$$$$
