AV-unprocessed.smi:2001|AV-procd|sdf|8110|dock5
  -GOLD-   2272010343D 1   1.00000     0.00000
 Structure written by MMmdl.
 50 51  0  0  0  0  0  0  0  0  3 V2000
  151.9106  145.2738  158.6075 C   0  0  0  0  0  0  0  0  0  0  0  0
  151.6187  143.8926  158.7195 O   0  0  0  0  0  0  0  0  0  0  0  0
  152.2469  143.2910  159.8396 C   0  0  0  0  0  0  0  0  0  0  0  0
  153.4856  142.5026  159.3842 C   0  0  0  0  0  0  0  0  0  0  0  0
  153.3035  141.0557  159.5479 N   0  0  0  0  0  0  0  0  0  0  0  0
  152.3089  140.5217  158.7454 N   0  0  0  0  0  0  0  0  0  0  0  0
  152.0414  139.2563  158.7859 C   0  0  0  0  0  0  0  0  0  0  0  0
  150.9535  138.6808  157.9310 C   0  0  0  0  0  0  0  0  0  0  0  0
  150.2535  137.8177  158.4781 O   0  0  0  0  0  0  0  0  0  0  0  0
  150.8123  139.1270  156.6463 N   0  5  0  0  0  0  0  0  0  0  0  0
  150.2869  138.3419  155.5313 C   0  0  0  0  0  0  0  0  0  0  0  0
  150.3913  139.1631  154.2319 C   0  0  0  0  0  0  0  0  0  0  0  0
  149.0562  139.5398  153.6955 N   0  3  1  0  0  0  0  0  0  0  0  0
  148.0171  138.5185  153.9722 C   0  0  0  0  0  0  0  0  0  0  0  0
  146.6676  138.9075  153.3367 C   0  0  2  0  0  0  0  0  0  0  0  0
  146.6349  138.7330  151.8080 C   0  0  0  0  0  0  0  0  0  0  0  0
  146.2918  140.2249  153.7375 O   0  0  0  0  0  0  0  0  0  0  0  0
  147.2562  141.2350  153.4527 C   0  0  1  0  0  0  0  0  0  0  0  0
  146.6953  142.5729  153.9473 C   0  0  0  0  0  0  0  0  0  0  0  0
  148.5867  140.8782  154.1382 C   0  0  0  0  0  0  0  0  0  0  0  0
  152.7906  138.3725  159.6712 C   0  0  0  0  0  0  0  0  0  0  0  0
  153.7579  138.9079  160.4472 C   0  0  0  0  0  0  0  0  0  0  0  0
  154.0702  140.3368  160.4217 C   0  0  0  0  0  0  0  0  0  0  0  0
  154.9442  140.8451  161.1237 O   0  0  0  0  0  0  0  0  0  0  0  0
  151.3957  145.6867  157.7404 H   0  0  0  0  0  0  0  0  0  0  0  0
  152.9802  145.4413  158.4760 H   0  0  0  0  0  0  0  0  0  0  0  0
  151.5755  145.8204  159.4896 H   0  0  0  0  0  0  0  0  0  0  0  0
  152.5519  144.0688  160.5410 H   0  0  0  0  0  0  0  0  0  0  0  0
  151.5497  142.6364  160.3653 H   0  0  0  0  0  0  0  0  0  0  0  0
  153.7413  142.7615  158.3553 H   0  0  0  0  0  0  0  0  0  0  0  0
  154.3439  142.8198  159.9788 H   0  0  0  0  0  0  0  0  0  0  0  0
  150.8286  137.4047  155.3977 H   0  0  0  0  0  0  0  0  0  0  0  0
  149.2451  138.0628  155.6927 H   0  0  0  0  0  0  0  0  0  0  0  0
  150.9656  140.0650  154.4512 H   0  0  0  0  0  0  0  0  0  0  0  0
  150.9594  138.6231  153.4721 H   0  0  0  0  0  0  0  0  0  0  0  0
  148.3357  137.5453  153.5960 H   0  0  0  0  0  0  0  0  0  0  0  0
  147.9003  138.4175  155.0526 H   0  0  0  0  0  0  0  0  0  0  0  0
  145.9063  138.2417  153.7445 H   0  0  0  0  0  0  0  0  0  0  0  0
  146.7894  137.6889  151.5356 H   0  0  0  0  0  0  0  0  0  0  0  0
  147.4084  139.3150  151.3077 H   0  0  0  0  0  0  0  0  0  0  0  0
  145.6699  139.0393  151.4030 H   0  0  0  0  0  0  0  0  0  0  0  0
  147.4067  141.3100  152.3756 H   0  0  0  0  0  0  0  0  0  0  0  0
  147.3903  143.3887  153.7466 H   0  0  0  0  0  0  0  0  0  0  0  0
  146.5070  142.5500  155.0210 H   0  0  0  0  0  0  0  0  0  0  0  0
  145.7545  142.8086  153.4493 H   0  0  0  0  0  0  0  0  0  0  0  0
  148.4658  140.8811  155.2226 H   0  0  0  0  0  0  0  0  0  0  0  0
  149.3327  141.6373  153.9007 H   0  0  0  0  0  0  0  0  0  0  0  0
  152.5929  137.3120  159.7178 H   0  0  0  0  0  0  0  0  0  0  0  0
  154.3196  138.2624  161.1059 H   0  0  0  0  0  0  0  0  0  0  0  0
  149.1594  139.5745  152.6912 H   0  0  0  0  0  0  0  0  0  0  0  0
  1  2  1  0  0  0  0
  1 25  1  0  0  0  0
  1 26  1  0  0  0  0
  1 27  1  0  0  0  0
  2  3  1  0  0  0  0
  3  4  1  0  0  0  0
  3 28  1  0  0  0  0
  3 29  1  0  0  0  0
  4  5  1  0  0  0  0
  4 30  1  0  0  0  0
  4 31  1  0  0  0  0
  5 23  1  0  0  0  0
  5  6  1  0  0  0  0
  6  7  2  0  0  0  0
  7  8  1  0  0  0  0
  7 21  1  0  0  0  0
  8  9  2  0  0  0  0
  8 10  1  0  0  0  0
 10 11  1  0  0  0  0
 11 12  1  0  0  0  0
 11 32  1  0  0  0  0
 11 33  1  0  0  0  0
 12 13  1  0  0  0  0
 12 34  1  0  0  0  0
 12 35  1  0  0  0  0
 13 20  1  0  0  0  0
 13 14  1  0  0  0  0
 13 50  1  0  0  0  0
 14 15  1  0  0  0  0
 14 36  1  0  0  0  0
 14 37  1  0  0  0  0
 15 16  1  0  0  0  0
 15 17  1  0  0  0  0
 15 38  1  0  0  0  0
 16 39  1  0  0  0  0
 16 40  1  0  0  0  0
 16 41  1  0  0  0  0
 17 18  1  0  0  0  0
 18 19  1  0  0  0  0
 18 20  1  0  0  0  0
 18 42  1  0  0  0  0
 19 43  1  0  0  0  0
 19 44  1  0  0  0  0
 19 45  1  0  0  0  0
 20 46  1  0  0  0  0
 20 47  1  0  0  0  0
 21 22  2  0  0  0  0
 21 48  1  0  0  0  0
 22 23  1  0  0  0  0
 22 49  1  0  0  0  0
 23 24  2  0  0  0  0
M  CHG  1  10  -1
M  CHG  1  13   1
M  END
> <s_m_source_file>
AV-unprocessed.smi

> <i_m_source_file_index>
2001

> <i_lp_mmshare_version>
43012

> <i_f3d_flags>
0

> <s_epik_input>
W0NIM11PW0NIMl1bQ0gyXW4xbmMoW2NIXVtjSF1jMT1PKUMoPU8pW05IXVtDSDJdW0NIMl1OMltDSDJdW0NAQEhdKFtDSDNdKU9bQ0BASF0oW0NIM10pW0NIMl0y

> <s_epik_cmdline>
J2VwaWtfcHl0aG9uJywgJy1waCcsICc3LjAnLCAnLXRuJywgJzgnLCAnLW1hJywgJzIwMCcsICctbWV0YWxfYmluZGluZycsICctaW1hZScsICc8aW5maWxlLm1hZT4nLCAnLW9tYWUnLCAnPG91dGZpbGUubWFlPic=

> <r_lp_tautomer_probability>
1

> <r_epik_Ionization_Penalty>
6.90846

> <r_epik_Ionization_Penalty_Charging>
6.90846

> <r_epik_Ionization_Penalty_Neutral>
1.08445e-11

> <r_epik_State_Penalty>
7.54671

> <r_epik_Charging_Adjusted_Penalty>
14.4552

> <i_epik_Tot_Q>
0

> <i_epik_Tot_abs_Q>
2

> <r_epik_Metal_State_Penalty>
3.46181

> <b_epik_Metal_Only>
1

> <s_lp_Force_Field>
OPLS_2005

> <r_lp_Energy>
44.3308

> <b_lp_Chiralities_Consistent>
1

> <s_lp_Variant>
AV-unprocessed.smi:2001-9

> <Gold.Version>
5.8.1

> <Gold.Id.Protein>
6NUR|6NUR_protein|mol2

> <Gold.PLP.Fitness>
46.0999

> <Gold.PLP.PLP>
-47.2053

> <Gold.PLP.part.hbond>
-2.0000

> <Gold.PLP.part.metal>
0.0000

> <Gold.PLP.part.buried>
-6.2377

> <Gold.PLP.part.nonpolar>
-39.2468

> <Gold.PLP.part.repulsive>
0.3071

> <Gold.PLP.ligand.clash>
0.0000

> <Gold.PLP.ligand.torsion>
2.2338

> <Gold.PLP.Chemscore.Hbond>
1.0000

> <Gold.PLP.Chemscore.CHOScore>
0.0000

> <Gold.PLP.Chemscore.Metal>
0.0000

> <Gold.Chemscore.Hbonds>
donor molecule, donor type, donor heavy atom, donor atom, acceptor molecule, acceptor atom, score
      L1  H    13    50       P1  7957  1.00

> <Gold.PLP.Chemscore.Internal.Correction>
0.3621

> <Gold.Rescore>
     Score         DG    S(hbond)    S(metal)    S(lipo)     H(rot)  DE(clash)    DE(int)     intcor
     13.49     -16.03       1.00        0.00     105.81       2.02       0.02       2.52       ----

> <Gold.Chemscore.Fitness>
13.4904

> <Gold.Chemscore.DG>
-16.0333

> <Gold.Chemscore.ZeroCoef>
-5.4800

> <Gold.Chemscore.Hbond>
0.9997

> <Gold.Chemscore.Metal>
0.0000

> <Gold.Chemscore.Lipo>
105.8125

> <Gold.Chemscore.Internal_Hbond>
0.0000

> <Gold.Chemscore.DEClash>
0.0186

> <Gold.Chemscore.DEInternal>
2.5243

> <Gold.Chemscore.Rot>
2.0179

> <Gold.Chemscore.Internal.Correction>
   9.000000E+99

> <Gold.Chemscore.Hbonds>
donor molecule, donor type, donor heavy atom, donor atom, acceptor molecule, acceptor atom, score
      L1  H    13    50       P1  7957  1.00

> <Gold.Chemscore.Hbond.Weighted>
-3.3391

> <Gold.Chemscore.Metal.Weighted>
-0.0000

> <Gold.Chemscore.Lipo.Weighted>
-12.3801

> <Gold.Chemscore.Internal_Hbond.Weighted>
0.0000

> <Gold.Chemscore.DEClash.Weighted>
0.0186

> <Gold.Chemscore.DEInternal.Weighted>
2.5243

> <Gold.Chemscore.Rot.Weighted>
5.1659

> <Gold.Chemscore.Internal.Correction.Weighted>
   9.000000E+99

> <Gold.Protein.RotatedTorsions>
[ 6907 6896 6895 6894 ] final -155.39 input  -60.11 | X-H torsion
[ 7974 7965 7964 7962 ] final   -4.52 input  175.53 | X-H torsion
[ 8008 7997 7996 7995 ] final   70.65 input   59.86 | X-H torsion
[ 10167 10162 10161 10158 ] final   66.42 input  -65.29 | X-H torsion
[ 10718 10713 10712 10709 ] final   -9.78 input   66.30 | X-H torsion
[ 10763 10752 10751 10750 ] final  -66.82 input  -60.55 | X-H torsion
[ 11005 11000 10999 10996 ] final  -62.02 input  -57.11 | X-H torsion

> <Gold.Protein.ActiveResidues>
 VAL166  LYS551  ARG553  GLY616  TRP617  ASP618  TYR619  PRO620  LYS621  CYS622 
 ASP623  PHE694  ASN695  SER759  ASP760  ASP761  ALA762  ILE779  LEU786  VAL792 
 PHE793  MET794  SER795  GLU796  ALA797  LYS798  CYS799  TRP800  GLU811  SER814 

> <Gold.Protein.RotatedAtoms>
  151.2717  133.4252  159.2621 H   0  0  0  0  0  0  0  0  0  0  0  0  # atno 6907 bound_to 6896
  151.0439  134.9626  159.8186 H   0  0  0  0  0  0  0  0  0  0  0  0  # atno 6908 bound_to 6896
  152.5370  134.2674  159.9011 H   0  0  0  0  0  0  0  0  0  0  0  0  # atno 6909 bound_to 6896
  146.2371  140.1883  142.8332 H   0  0  0  0  0  0  0  0  0  0  0  0  # atno 7974 bound_to 7965
  155.7420  140.3490  155.5109 H   0  0  0  0  0  0  0  0  0  0  0  0  # atno 8008 bound_to 7997
  155.9085  140.1046  157.1318 H   0  0  0  0  0  0  0  0  0  0  0  0  # atno 8009 bound_to 7997
  154.4053  140.1272  156.4514 H   0  0  0  0  0  0  0  0  0  0  0  0  # atno 8010 bound_to 7997
  140.1006  144.4907  150.7040 H   0  0  0  0  0  0  0  0  0  0  0  0  # atno 10167 bound_to 10162
  156.6830  130.5042  149.5966 H   0  0  0  0  0  0  0  0  0  0  0  0  # atno 10718 bound_to 10713
  154.3654  135.6107  153.5712 H   0  0  0  0  0  0  0  0  0  0  0  0  # atno 10763 bound_to 10752
  152.9792  135.5825  154.4585 H   0  0  0  0  0  0  0  0  0  0  0  0  # atno 10764 bound_to 10752
  154.4329  135.2848  155.1877 H   0  0  0  0  0  0  0  0  0  0  0  0  # atno 10765 bound_to 10752
  141.1345  133.6636  156.5464 H   0  0  0  0  0  0  0  0  0  0  0  0  # atno 11005 bound_to 11000
  144.9878  140.8519  143.5358 LP  0  0  0  0  0  0  0  0  0  0  0  0  # atno 17320 bound_to 7965
  145.1885  139.2314  143.5255 LP  0  0  0  0  0  0  0  0  0  0  0  0  # atno 17321 bound_to 7965
  140.6980  143.2416  151.4947 LP  0  0  0  0  0  0  0  0  0  0  0  0  # atno 17342 bound_to 10162
  139.5673  144.2011  152.1784 LP  0  0  0  0  0  0  0  0  0  0  0  0  # atno 17343 bound_to 10162
  156.1853  130.6525  151.0999 LP  0  0  0  0  0  0  0  0  0  0  0  0  # atno 17370 bound_to 10713
  157.7037  131.0765  150.6738 LP  0  0  0  0  0  0  0  0  0  0  0  0  # atno 17371 bound_to 10713
  140.4099  134.7282  157.4829 LP  0  0  0  0  0  0  0  0  0  0  0  0  # atno 17394 bound_to 11000
  140.0435  134.6233  155.8950 LP  0  0  0  0  0  0  0  0  0  0  0  0  # atno 17395 bound_to 11000

$$$$
