AV-unprocessed.smi:281|AV-procd|sdf|2114|dock1
  -GOLD-   2262021413D 1   1.00000     0.00000
 Structure written by MMmdl.
 55 59  0  0  0  0  0  0  0  0  1 V2000
  152.8003  138.6349  155.3386 C   0  0  0  0  0  0  0  0  0  0  0  0
  151.7543  139.4718  156.0813 C   0  0  1  0  0  0  0  0  0  0  0  0
  150.6342  138.6018  156.6728 C   0  0  0  0  0  0  0  0  0  0  0  0
  149.7253  139.4367  157.4426 N   0  0  0  0  0  0  0  0  0  0  0  0
  148.6104  138.7966  157.8505 C   0  0  0  0  0  0  0  0  0  0  0  0
  147.4298  139.2389  157.3540 N   0  0  0  0  0  0  0  0  0  0  0  0
  146.2889  138.6467  157.7201 C   0  0  0  0  0  0  0  0  0  0  0  0
  146.1107  137.6206  158.5553 N   0  0  0  0  0  0  0  0  0  0  0  0
  147.2985  137.1762  159.0583 C   0  0  0  0  0  0  0  0  0  0  0  0
  148.5872  137.6994  158.7574 C   0  0  0  0  0  0  0  0  0  0  0  0
  149.5610  136.9867  159.4464 N   0  0  0  0  0  0  0  0  0  0  0  0
  148.8860  136.0943  160.1177 C   0  0  0  0  0  0  0  0  0  0  0  0
  147.5195  136.1437  159.9537 N   0  0  0  0  0  0  0  0  0  0  0  0
  146.5312  135.2783  160.5803 C   0  0  0  0  0  0  0  0  0  0  0  0
  146.1734  135.6877  162.0303 C   0  0  1  0  0  0  0  0  0  0  0  0
  145.0693  134.9165  162.4675 O   0  0  0  0  0  0  0  0  0  0  0  0
  147.3395  135.4812  163.0000 C   0  0  0  0  0  0  0  0  0  0  0  0
  147.7948  136.8992  163.3219 C   0  0  0  0  0  0  0  0  0  0  0  0
  146.5774  137.6225  163.3171 O   0  0  0  0  0  0  0  0  0  0  0  0
  145.8386  137.1851  162.1858 C   0  0  0  0  0  0  0  0  0  0  0  0
  150.4014  140.1754  158.5004 C   0  0  0  0  0  0  0  0  0  0  0  0
  151.5707  141.0139  157.9335 C   0  0  1  0  0  0  0  0  0  0  0  0
  151.1133  142.2385  157.1287 C   0  0  0  0  0  0  0  0  0  0  0  0
  151.4195  143.4223  158.0358 C   0  0  0  0  0  0  0  0  0  0  0  0
  152.5969  143.0017  158.6986 O   0  0  0  0  0  0  0  0  0  0  0  0
  152.3899  141.6507  159.0828 C   0  0  2  0  0  0  0  0  0  0  0  0
  153.7290  140.9745  159.4105 C   0  0  0  0  0  0  0  0  0  0  0  0
  152.4153  140.1723  157.1364 O   0  0  0  0  0  0  0  0  0  0  0  0
  152.3484  138.0824  154.5144 H   0  0  0  0  0  0  0  0  0  0  0  0
  153.2749  137.9146  156.0055 H   0  0  0  0  0  0  0  0  0  0  0  0
  153.5830  139.2704  154.9234 H   0  0  0  0  0  0  0  0  0  0  0  0
  151.3242  140.1849  155.3771 H   0  0  0  0  0  0  0  0  0  0  0  0
  150.0885  138.0971  155.8743 H   0  0  0  0  0  0  0  0  0  0  0  0
  151.0602  137.8289  157.3138 H   0  0  0  0  0  0  0  0  0  0  0  0
  145.3896  139.0535  157.2816 H   0  0  0  0  0  0  0  0  0  0  0  0
  149.3723  135.3726  160.7576 H   0  0  0  0  0  0  0  0  0  0  0  0
  145.6354  135.2761  159.9573 H   0  0  0  0  0  0  0  0  0  0  0  0
  146.9151  134.2574  160.5633 H   0  0  0  0  0  0  0  0  0  0  0  0
  145.0534  134.1100  161.9752 H   0  0  0  0  0  0  0  0  0  0  0  0
  147.0032  135.0014  163.9209 H   0  0  0  0  0  0  0  0  0  0  0  0
  148.1447  134.8702  162.5903 H   0  0  0  0  0  0  0  0  0  0  0  0
  148.3054  136.9716  164.2825 H   0  0  0  0  0  0  0  0  0  0  0  0
  148.4579  137.2851  162.5458 H   0  0  0  0  0  0  0  0  0  0  0  0
  146.1907  137.7582  161.3278 H   0  0  0  0  0  0  0  0  0  0  0  0
  144.7729  137.3866  162.3016 H   0  0  0  0  0  0  0  0  0  0  0  0
  149.6878  140.8195  159.0168 H   0  0  0  0  0  0  0  0  0  0  0  0
  150.7872  139.4720  159.2393 H   0  0  0  0  0  0  0  0  0  0  0  0
  151.7106  142.3384  156.2217 H   0  0  0  0  0  0  0  0  0  0  0  0
  150.0652  142.2007  156.8304 H   0  0  0  0  0  0  0  0  0  0  0  0
  151.5748  144.3493  157.4831 H   0  0  0  0  0  0  0  0  0  0  0  0
  150.6198  143.5800  158.7613 H   0  0  0  0  0  0  0  0  0  0  0  0
  151.7838  141.6763  159.9906 H   0  0  0  0  0  0  0  0  0  0  0  0
  153.5824  139.9290  159.6825 H   0  0  0  0  0  0  0  0  0  0  0  0
  154.2177  141.4708  160.2489 H   0  0  0  0  0  0  0  0  0  0  0  0
  154.4134  141.0104  158.5626 H   0  0  0  0  0  0  0  0  0  0  0  0
  1  2  1  0  0  0  0
  1 29  1  0  0  0  0
  1 30  1  0  0  0  0
  1 31  1  0  0  0  0
  2 28  1  0  0  0  0
  2  3  1  0  0  0  0
  2 32  1  0  0  0  0
  3  4  1  0  0  0  0
  3 33  1  0  0  0  0
  3 34  1  0  0  0  0
  4  5  1  0  0  0  0
  4 21  1  0  0  0  0
  5 10  1  0  0  0  0
  5  6  2  0  0  0  0
  6  7  1  0  0  0  0
  7  8  2  0  0  0  0
  7 35  1  0  0  0  0
  8  9  1  0  0  0  0
  9 13  1  0  0  0  0
  9 10  2  0  0  0  0
 10 11  1  0  0  0  0
 11 12  2  0  0  0  0
 12 13  1  0  0  0  0
 12 36  1  0  0  0  0
 13 14  1  0  0  0  0
 14 15  1  0  0  0  0
 14 37  1  0  0  0  0
 14 38  1  0  0  0  0
 15 20  1  0  0  0  0
 15 16  1  0  0  0  0
 15 17  1  0  0  0  0
 16 39  1  0  0  0  0
 17 18  1  0  0  0  0
 17 40  1  0  0  0  0
 17 41  1  0  0  0  0
 18 19  1  0  0  0  0
 18 42  1  0  0  0  0
 18 43  1  0  0  0  0
 19 20  1  0  0  0  0
 20 44  1  0  0  0  0
 20 45  1  0  0  0  0
 21 22  1  0  0  0  0
 21 46  1  0  0  0  0
 21 47  1  0  0  0  0
 22 26  1  0  0  0  0
 22 23  1  0  0  0  0
 22 28  1  0  0  0  0
 23 24  1  0  0  0  0
 23 48  1  0  0  0  0
 23 49  1  0  0  0  0
 24 25  1  0  0  0  0
 24 50  1  0  0  0  0
 24 51  1  0  0  0  0
 25 26  1  0  0  0  0
 26 27  1  0  0  0  0
 26 52  1  0  0  0  0
 27 53  1  0  0  0  0
 27 54  1  0  0  0  0
 27 55  1  0  0  0  0
M  END
> <s_m_source_file>
AV-unprocessed.smi

> <i_m_source_file_index>
281

> <i_lp_mmshare_version>
43012

> <i_f3d_flags>
0

> <s_epik_input>
W0NIM11bQ0BASF0xT1tDSDJdW0NIMl1bQ0BAXTEyW0NIMl1OKFtDSDJdW0NASF0oTzIpW0NIM10pYyhuW2NIXW4zKWMoYzM0KW5bY0hdbjRbQ0gyXVtDQEBdNShbT0hdKVtDSDJdW0NIMl1PW0NIMl01

> <s_epik_cmdline>
J2VwaWtfcHl0aG9uJywgJy1waCcsICc3LjAnLCAnLXRuJywgJzgnLCAnLW1hJywgJzIwMCcsICctbWV0YWxfYmluZGluZycsICctaW1hZScsICc8aW5maWxlLm1hZT4nLCAnLW9tYWUnLCAnPG91dGZpbGUubWFlPic=

> <r_lp_tautomer_probability>
1

> <r_epik_Ionization_Penalty>
0.00571331

> <r_epik_Ionization_Penalty_Charging>
0

> <r_epik_Ionization_Penalty_Neutral>
0.00571331

> <r_epik_State_Penalty>
0.00399586

> <r_epik_Charging_Adjusted_Penalty>
0.00399586

> <i_epik_Tot_Q>
0

> <i_epik_Tot_abs_Q>
0

> <r_epik_Metal_State_Penalty>
-0

> <b_epik_Metal_Only>
0

> <s_lp_Force_Field>
OPLS_2005

> <r_lp_Energy>
55.7735

> <b_lp_Chiralities_Consistent>
1

> <s_lp_Variant>
AV-unprocessed.smi:281-14

> <Gold.Version>
5.8.1

> <Gold.Id.Protein>
6NUR|6NUR_protein|mol2

> <Gold.PLP.Fitness>
39.7877

> <Gold.PLP.PLP>
-37.4950

> <Gold.PLP.part.hbond>
-1.2488

> <Gold.PLP.part.metal>
0.0000

> <Gold.PLP.part.buried>
-3.1824

> <Gold.PLP.part.nonpolar>
-32.9746

> <Gold.PLP.part.repulsive>
0.0000

> <Gold.PLP.ligand.clash>
0.0000

> <Gold.PLP.ligand.torsion>
0.4179

> <Gold.PLP.Chemscore.Hbond>
1.0000

> <Gold.PLP.Chemscore.CHOScore>
0.0000

> <Gold.PLP.Chemscore.Metal>
0.0000

> <Gold.Chemscore.Hbonds>
donor molecule, donor type, donor heavy atom, donor atom, acceptor molecule, acceptor atom, score
      P1  H  7997  8008       L1    28  1.00

> <Gold.PLP.Chemscore.Internal.Correction>
0.1285

> <Gold.Rescore>
     Score         DG    S(hbond)    S(metal)    S(lipo)     H(rot)  DE(clash)    DE(int)     intcor
     14.49     -15.35       0.93        0.00     103.66       2.09       0.41       0.45       ----

> <Gold.Chemscore.Fitness>
14.4872

> <Gold.Chemscore.DG>
-15.3479

> <Gold.Chemscore.ZeroCoef>
-5.4800

> <Gold.Chemscore.Hbond>
0.9271

> <Gold.Chemscore.Metal>
0.0000

> <Gold.Chemscore.Lipo>
103.6644

> <Gold.Chemscore.Internal_Hbond>
0.0000

> <Gold.Chemscore.DEClash>
0.4131

> <Gold.Chemscore.DEInternal>
0.4476

> <Gold.Chemscore.Rot>
2.0927

> <Gold.Chemscore.Internal.Correction>
   9.000000E+99

> <Gold.Chemscore.Hbonds>
donor molecule, donor type, donor heavy atom, donor atom, acceptor molecule, acceptor atom, score
      P1  H  7997  8008       L1    28  0.31

> <Gold.Chemscore.Hbond.Weighted>
-3.0965

> <Gold.Chemscore.Metal.Weighted>
-0.0000

> <Gold.Chemscore.Lipo.Weighted>
-12.1287

> <Gold.Chemscore.Internal_Hbond.Weighted>
0.0000

> <Gold.Chemscore.DEClash.Weighted>
0.4131

> <Gold.Chemscore.DEInternal.Weighted>
0.4476

> <Gold.Chemscore.Rot.Weighted>
5.3573

> <Gold.Chemscore.Internal.Correction.Weighted>
   9.000000E+99

> <Gold.Protein.RotatedTorsions>
[ 6907 6896 6895 6894 ] final  -24.07 input  -60.11 | X-H torsion
[ 7974 7965 7964 7962 ] final  -25.98 input  175.53 | X-H torsion
[ 8008 7997 7996 7995 ] final  -51.81 input   59.86 | X-H torsion
[ 10167 10162 10161 10158 ] final  118.65 input  -65.29 | X-H torsion
[ 10718 10713 10712 10709 ] final   -3.75 input   66.30 | X-H torsion
[ 10763 10752 10751 10750 ] final  -20.33 input  -60.55 | X-H torsion
[ 11005 11000 10999 10996 ] final   -0.69 input  -57.11 | X-H torsion

> <Gold.Protein.ActiveResidues>
 VAL166  LYS551  ARG553  GLY616  TRP617  ASP618  TYR619  PRO620  LYS621  CYS622 
 ASP623  PHE694  ASN695  SER759  ASP760  ASP761  ALA762  ILE779  LEU786  VAL792 
 PHE793  MET794  SER795  GLU796  ALA797  LYS798  CYS799  TRP800  GLU811  SER814 

> <Gold.Protein.RotatedAtoms>
  151.1948  135.0418  159.8847 H   0  0  0  0  0  0  0  0  0  0  0  0  # atno 6907 bound_to 6896
  152.5437  134.0916  159.8289 H   0  0  0  0  0  0  0  0  0  0  0  0  # atno 6908 bound_to 6896
  151.1049  133.5169  159.2640 H   0  0  0  0  0  0  0  0  0  0  0  0  # atno 6909 bound_to 6896
  146.1455  140.4959  142.8633 H   0  0  0  0  0  0  0  0  0  0  0  0  # atno 7974 bound_to 7965
  154.4091  140.1239  156.4889 H   0  0  0  0  0  0  0  0  0  0  0  0  # atno 8008 bound_to 7997
  155.7010  140.3495  155.4914 H   0  0  0  0  0  0  0  0  0  0  0  0  # atno 8009 bound_to 7997
  155.9385  140.1082  157.1065 H   0  0  0  0  0  0  0  0  0  0  0  0  # atno 8010 bound_to 7997
  139.6097  144.7079  151.2871 H   0  0  0  0  0  0  0  0  0  0  0  0  # atno 10167 bound_to 10162
  156.7715  130.5301  149.5766 H   0  0  0  0  0  0  0  0  0  0  0  0  # atno 10718 bound_to 10713
  153.6187  135.6993  153.5319 H   0  0  0  0  0  0  0  0  0  0  0  0  # atno 10763 bound_to 10752
  153.2955  135.4144  155.1205 H   0  0  0  0  0  0  0  0  0  0  0  0  # atno 10764 bound_to 10752
  154.8548  135.3636  154.5728 H   0  0  0  0  0  0  0  0  0  0  0  0  # atno 10765 bound_to 10752
  140.6391  133.9506  155.8316 H   0  0  0  0  0  0  0  0  0  0  0  0  # atno 11005 bound_to 11000
  144.7842  140.5902  143.6585 LP  0  0  0  0  0  0  0  0  0  0  0  0  # atno 17320 bound_to 7965
  145.4946  139.1486  143.3691 LP  0  0  0  0  0  0  0  0  0  0  0  0  # atno 17321 bound_to 7965
  140.7310  143.6863  150.7959 LP  0  0  0  0  0  0  0  0  0  0  0  0  # atno 17342 bound_to 10162
  140.0455  143.5302  152.2698 LP  0  0  0  0  0  0  0  0  0  0  0  0  # atno 17343 bound_to 10162
  156.1275  130.6154  151.0285 LP  0  0  0  0  0  0  0  0  0  0  0  0  # atno 17370 bound_to 10713
  157.6689  131.0866  150.7662 LP  0  0  0  0  0  0  0  0  0  0  0  0  # atno 17371 bound_to 10713
  141.0620  134.0332  157.3645 LP  0  0  0  0  0  0  0  0  0  0  0  0  # atno 17394 bound_to 11000
  139.9087  135.0185  156.7599 LP  0  0  0  0  0  0  0  0  0  0  0  0  # atno 17395 bound_to 11000

$$$$
