AV-unprocessed.smi:1809|AV-procd|sdf|7317|dock6
  -GOLD-   22720 8573D 1   1.00000     0.00000
 Structure written by MMmdl.
 39 41  0  0  0  0  0  0  0  0  1 V2000
  146.7140  134.2211  162.4988 C   0  0  0  0  0  0  0  0  0  0  0  0
  147.3748  134.6689  161.2400 C   0  0  0  0  0  0  0  0  0  0  0  0
  147.5393  133.8639  160.1831 N   0  0  0  0  0  0  0  0  0  0  0  0
  148.1820  134.5016  159.1311 N   0  0  0  0  0  0  0  0  0  0  0  0
  148.4858  135.7728  159.4275 C   0  0  0  0  0  0  0  0  0  0  0  0
  149.1466  136.6562  158.5336 N   0  0  0  0  0  0  0  0  0  0  0  0
  150.3585  137.2233  158.6661 C   0  0  0  0  0  0  0  0  0  0  0  0
  151.1202  137.0604  159.6196 O   0  0  0  0  0  0  0  0  0  0  0  0
  150.6463  138.0012  157.6125 N   0  0  0  0  0  0  0  0  0  0  0  0
  151.8787  138.7635  157.4422 C   0  0  0  0  0  0  0  0  0  0  0  0
  151.9847  139.9123  158.4592 C   0  0  2  0  0  0  0  0  0  0  0  0
  151.1587  141.1414  158.0145 C   0  0  0  0  0  0  0  0  0  0  0  0
  151.3774  142.2449  158.9295 N   0  0  0  0  0  0  0  0  0  0  0  0
  150.7362  143.4981  158.6056 C   0  0  0  0  0  0  0  0  0  0  0  0
  151.4700  144.5358  159.4733 C   0  0  0  0  0  0  0  0  0  0  0  0
  152.8081  143.8555  159.8394 C   0  0  0  0  0  0  0  0  0  0  0  0
  152.7748  142.5752  159.0032 C   0  0  1  0  0  0  0  0  0  0  0  0
  153.5895  141.3739  159.5020 C   0  0  0  0  0  0  0  0  0  0  0  0
  153.3614  140.2865  158.6025 O   0  0  0  0  0  0  0  0  0  0  0  0
  148.0069  136.2979  161.0328 S   0  0  0  0  0  0  0  0  0  0  0  0
  146.0113  133.4126  162.2947 H   0  0  0  0  0  0  0  0  0  0  0  0
  146.1692  135.0492  162.9523 H   0  0  0  0  0  0  0  0  0  0  0  0
  147.4635  133.8650  163.2056 H   0  0  0  0  0  0  0  0  0  0  0  0
  148.6370  136.8805  157.6920 H   0  0  0  0  0  0  0  0  0  0  0  0
  149.9609  138.0778  156.8756 H   0  0  0  0  0  0  0  0  0  0  0  0
  152.7536  138.1139  157.5036 H   0  0  0  0  0  0  0  0  0  0  0  0
  151.8714  139.1711  156.4310 H   0  0  0  0  0  0  0  0  0  0  0  0
  151.6160  139.5685  159.4275 H   0  0  0  0  0  0  0  0  0  0  0  0
  151.4469  141.4338  157.0037 H   0  0  0  0  0  0  0  0  0  0  0  0
  150.0979  140.8911  157.9825 H   0  0  0  0  0  0  0  0  0  0  0  0
  150.8782  143.7318  157.5492 H   0  0  0  0  0  0  0  0  0  0  0  0
  149.6647  143.4653  158.8043 H   0  0  0  0  0  0  0  0  0  0  0  0
  151.6206  145.4670  158.9262 H   0  0  0  0  0  0  0  0  0  0  0  0
  150.9012  144.7648  160.3752 H   0  0  0  0  0  0  0  0  0  0  0  0
  153.6742  144.4760  159.6078 H   0  0  0  0  0  0  0  0  0  0  0  0
  152.8318  143.6220  160.9048 H   0  0  0  0  0  0  0  0  0  0  0  0
  153.1302  142.8276  158.0015 H   0  0  0  0  0  0  0  0  0  0  0  0
  154.6536  141.6097  159.5218 H   0  0  0  0  0  0  0  0  0  0  0  0
  153.2971  141.0893  160.5139 H   0  0  0  0  0  0  0  0  0  0  0  0
  1  2  1  0  0  0  0
  1 21  1  0  0  0  0
  1 22  1  0  0  0  0
  1 23  1  0  0  0  0
  2 20  1  0  0  0  0
  2  3  2  0  0  0  0
  3  4  1  0  0  0  0
  4  5  2  0  0  0  0
  5  6  1  0  0  0  0
  5 20  1  0  0  0  0
  6  7  1  0  0  0  0
  6 24  1  0  0  0  0
  7  8  2  0  0  0  0
  7  9  1  0  0  0  0
  9 10  1  0  0  0  0
  9 25  1  0  0  0  0
 10 11  1  0  0  0  0
 10 26  1  0  0  0  0
 10 27  1  0  0  0  0
 11 19  1  0  0  0  0
 11 12  1  0  0  0  0
 11 28  1  0  0  0  0
 12 13  1  0  0  0  0
 12 29  1  0  0  0  0
 12 30  1  0  0  0  0
 13 17  1  0  0  0  0
 13 14  1  0  0  0  0
 14 15  1  0  0  0  0
 14 31  1  0  0  0  0
 14 32  1  0  0  0  0
 15 16  1  0  0  0  0
 15 33  1  0  0  0  0
 15 34  1  0  0  0  0
 16 17  1  0  0  0  0
 16 35  1  0  0  0  0
 16 36  1  0  0  0  0
 17 18  1  0  0  0  0
 17 37  1  0  0  0  0
 18 19  1  0  0  0  0
 18 38  1  0  0  0  0
 18 39  1  0  0  0  0
M  END
> <s_m_source_file>
AV-unprocessed.smi

> <i_m_source_file_index>
1809

> <i_lp_mmshare_version>
43012

> <i_f3d_flags>
0

> <s_epik_input>
W0NIM11jMW5uYyhzMSlbTkhdQyg9TylbTkhdW0NIMl1bQ0BIXShbQ0gyXTIpT1tDSDJdW0NAQEhdKE4yMylbQ0gyXVtDSDJdW0NIMl0z

> <s_epik_cmdline>
J2VwaWtfcHl0aG9uJywgJy1waCcsICc3LjAnLCAnLXRuJywgJzgnLCAnLW1hJywgJzIwMCcsICctbWV0YWxfYmluZGluZycsICctaW1hZScsICc8aW5maWxlLm1hZT4nLCAnLW9tYWUnLCAnPG91dGZpbGUubWFlPic=

> <r_lp_tautomer_probability>
1

> <r_epik_Ionization_Penalty>
1.05954

> <r_epik_Ionization_Penalty_Charging>
0

> <r_epik_Ionization_Penalty_Neutral>
1.05954

> <r_epik_State_Penalty>
1.4238

> <r_epik_Charging_Adjusted_Penalty>
1.4238

> <i_epik_Tot_Q>
0

> <i_epik_Tot_abs_Q>
0

> <r_epik_Metal_State_Penalty>
1.7901

> <b_epik_Metal_Only>
0

> <s_lp_Force_Field>
OPLS_2005

> <r_lp_Energy>
46.8482

> <b_lp_Chiralities_Consistent>
1

> <s_lp_Variant>
AV-unprocessed.smi:1809-9

> <Gold.Version>
5.8.1

> <Gold.Id.Protein>
6NUR|6NUR_protein|mol2

> <Gold.PLP.Fitness>
40.0272

> <Gold.PLP.PLP>
-35.9885

> <Gold.PLP.part.hbond>
-2.0000

> <Gold.PLP.part.metal>
0.0000

> <Gold.PLP.part.buried>
-4.7385

> <Gold.PLP.part.nonpolar>
-28.3992

> <Gold.PLP.part.repulsive>
0.1721

> <Gold.PLP.ligand.clash>
0.0000

> <Gold.PLP.ligand.torsion>
0.8491

> <Gold.PLP.Chemscore.Hbond>
1.9120

> <Gold.PLP.Chemscore.CHOScore>
0.0000

> <Gold.PLP.Chemscore.Metal>
0.0000

> <Gold.Chemscore.Hbonds>
donor molecule, donor type, donor heavy atom, donor atom, acceptor molecule, acceptor atom, score
      P1  H  6896  6908       L1     8  1.00
      P1  H  7997  8008       L1    19  0.91

> <Gold.PLP.Chemscore.Internal.Correction>
0.0009

> <Gold.Rescore>
     Score         DG    S(hbond)    S(metal)    S(lipo)     H(rot)  DE(clash)    DE(int)     intcor
     17.94     -18.95       1.81        0.00      92.30       1.32       0.04       0.98       ----

> <Gold.Chemscore.Fitness>
17.9359

> <Gold.Chemscore.DG>
-18.9549

> <Gold.Chemscore.ZeroCoef>
-5.4800

> <Gold.Chemscore.Hbond>
1.8126

> <Gold.Chemscore.Metal>
0.0000

> <Gold.Chemscore.Lipo>
92.3009

> <Gold.Chemscore.Internal_Hbond>
0.0000

> <Gold.Chemscore.DEClash>
0.0425

> <Gold.Chemscore.DEInternal>
0.9766

> <Gold.Chemscore.Rot>
1.3196

> <Gold.Chemscore.Internal.Correction>
   9.000000E+99

> <Gold.Chemscore.Hbonds>
donor molecule, donor type, donor heavy atom, donor atom, acceptor molecule, acceptor atom, score
      P1  H  6896  6908       L1     8  0.49
      P1  H  7997  8008       L1    19  0.79

> <Gold.Chemscore.Hbond.Weighted>
-6.0540

> <Gold.Chemscore.Metal.Weighted>
-0.0000

> <Gold.Chemscore.Lipo.Weighted>
-10.7992

> <Gold.Chemscore.Internal_Hbond.Weighted>
0.0000

> <Gold.Chemscore.DEClash.Weighted>
0.0425

> <Gold.Chemscore.DEInternal.Weighted>
0.9766

> <Gold.Chemscore.Rot.Weighted>
3.3783

> <Gold.Chemscore.Internal.Correction.Weighted>
   9.000000E+99

> <Gold.Protein.RotatedTorsions>
[ 6907 6896 6895 6894 ] final -143.26 input  -60.11 | X-H torsion
[ 7974 7965 7964 7962 ] final  141.96 input  175.53 | X-H torsion
[ 8008 7997 7996 7995 ] final  -90.92 input   59.86 | X-H torsion
[ 10167 10162 10161 10158 ] final   39.17 input  -65.29 | X-H torsion
[ 10718 10713 10712 10709 ] final  153.49 input   66.30 | X-H torsion
[ 10763 10752 10751 10750 ] final -115.02 input  -60.55 | X-H torsion
[ 11005 11000 10999 10996 ] final   46.02 input  -57.11 | X-H torsion

> <Gold.Protein.ActiveResidues>
 VAL166  LYS551  ARG553  GLY616  TRP617  ASP618  TYR619  PRO620  LYS621  CYS622 
 ASP623  PHE694  ASN695  SER759  ASP760  ASP761  ALA762  ILE779  LEU786  VAL792 
 PHE793  MET794  SER795  GLU796  ALA797  LYS798  CYS799  TRP800  GLU811  SER814 

> <Gold.Protein.RotatedAtoms>
  151.0981  133.5264  159.2611 H   0  0  0  0  0  0  0  0  0  0  0  0  # atno 6907 bound_to 6896
  151.2106  135.0479  159.8919 H   0  0  0  0  0  0  0  0  0  0  0  0  # atno 6908 bound_to 6896
  152.5440  134.0797  159.8283 H   0  0  0  0  0  0  0  0  0  0  0  0  # atno 6909 bound_to 6896
  144.9050  139.5370  143.5736 H   0  0  0  0  0  0  0  0  0  0  0  0  # atno 7974 bound_to 7965
  154.7044  140.0525  157.0489 H   0  0  0  0  0  0  0  0  0  0  0  0  # atno 8008 bound_to 7997
  155.0641  140.3192  155.4632 H   0  0  0  0  0  0  0  0  0  0  0  0  # atno 8009 bound_to 7997
  156.2770  140.2093  156.5768 H   0  0  0  0  0  0  0  0  0  0  0  0  # atno 8010 bound_to 7997
  140.3865  144.1910  150.6130 H   0  0  0  0  0  0  0  0  0  0  0  0  # atno 10167 bound_to 10162
  157.2440  131.0765  151.1774 H   0  0  0  0  0  0  0  0  0  0  0  0  # atno 10718 bound_to 10713
  154.8464  135.4397  154.1597 H   0  0  0  0  0  0  0  0  0  0  0  0  # atno 10763 bound_to 10752
  153.2737  135.6947  153.7461 H   0  0  0  0  0  0  0  0  0  0  0  0  # atno 10764 bound_to 10752
  153.6691  135.3422  155.3123 H   0  0  0  0  0  0  0  0  0  0  0  0  # atno 10765 bound_to 10752
  140.1406  134.4588  155.8452 H   0  0  0  0  0  0  0  0  0  0  0  0  # atno 11005 bound_to 11000
  146.3129  139.7811  142.9006 LP  0  0  0  0  0  0  0  0  0  0  0  0  # atno 17320 bound_to 7965
  145.3551  141.0315  143.3316 LP  0  0  0  0  0  0  0  0  0  0  0  0  # atno 17321 bound_to 7965
  140.4884  143.2355  151.8855 LP  0  0  0  0  0  0  0  0  0  0  0  0  # atno 17342 bound_to 10162
  139.4791  144.5193  151.8823 LP  0  0  0  0  0  0  0  0  0  0  0  0  # atno 17343 bound_to 10162
  157.3348  130.7003  149.6346 LP  0  0  0  0  0  0  0  0  0  0  0  0  # atno 17370 bound_to 10713
  155.9669  130.4297  150.4843 LP  0  0  0  0  0  0  0  0  0  0  0  0  # atno 17371 bound_to 10713
  141.2185  133.6832  156.7240 LP  0  0  0  0  0  0  0  0  0  0  0  0  # atno 17394 bound_to 11000
  140.2726  134.8380  157.3861 LP  0  0  0  0  0  0  0  0  0  0  0  0  # atno 17395 bound_to 11000

$$$$
