AV-unprocessed.smi:999|AV-procd|sdf|4353|dock2
  -GOLD-   22720 2253D 1   1.00000     0.00000
 Structure written by MMmdl.
 37 38  0  0  0  0  0  0  0  0  2 V2000
  151.1548  144.8323  159.4384 C   0  0  0  0  0  0  0  0  0  0  0  0
  151.9053  143.5572  159.0020 C   0  0  2  0  0  0  0  0  0  0  0  0
  150.9780  142.5175  158.3538 C   0  0  0  0  0  0  0  0  0  0  0  0
  149.7600  142.6970  158.3155 O   0  0  0  0  0  0  0  0  0  0  0  0
  151.5771  141.4293  157.8454 N   0  0  0  0  0  0  0  0  0  0  0  0
  150.9018  140.3157  157.1879 C   0  0  2  0  0  0  0  0  0  0  0  0
  150.2935  139.3888  158.2577 C   0  0  0  0  0  0  0  0  0  0  0  0
  149.6471  138.1417  157.6258 C   0  0  0  0  0  0  0  0  0  0  0  0
  150.6373  137.3535  156.7342 C   0  0  2  0  0  0  0  0  0  0  0  0
  151.7260  136.6234  157.5559 C   0  0  0  0  0  0  0  0  0  0  0  0
  151.6826  136.7206  158.8024 O   0  0  0  0  0  0  0  0  0  0  0  0
  152.6100  135.9987  156.9283 O   0  5  0  0  0  0  0  0  0  0  0  0
  151.2305  138.3002  155.6617 C   0  0  0  0  0  0  0  0  0  0  0  0
  151.8859  139.5505  156.2785 C   0  0  0  0  0  0  0  0  0  0  0  0
  152.6578  142.9501  160.0940 N   0  0  0  0  0  0  0  0  0  0  0  0
  153.6006  141.9449  160.0164 C   0  0  0  0  0  0  0  0  0  0  0  0
  154.0100  141.6648  161.2886 C   0  0  0  0  0  0  0  0  0  0  0  0
  153.2405  142.5501  162.0929 C   0  0  0  0  0  0  0  0  0  0  0  0
  152.4264  143.3089  161.3784 N   0  0  0  0  0  0  0  0  0  0  0  0
  150.6385  145.2907  158.5942 H   0  0  0  0  0  0  0  0  0  0  0  0
  151.8480  145.5732  159.8372 H   0  0  0  0  0  0  0  0  0  0  0  0
  150.4095  144.6290  160.2083 H   0  0  0  0  0  0  0  0  0  0  0  0
  152.6316  143.8604  158.2457 H   0  0  0  0  0  0  0  0  0  0  0  0
  152.5822  141.3666  157.9168 H   0  0  0  0  0  0  0  0  0  0  0  0
  150.0852  140.7020  156.5749 H   0  0  0  0  0  0  0  0  0  0  0  0
  151.0643  139.0841  158.9670 H   0  0  0  0  0  0  0  0  0  0  0  0
  149.5458  139.9319  158.8366 H   0  0  0  0  0  0  0  0  0  0  0  0
  149.2257  137.5051  158.4047 H   0  0  0  0  0  0  0  0  0  0  0  0
  148.7974  138.4539  157.0178 H   0  0  0  0  0  0  0  0  0  0  0  0
  150.0802  136.5688  156.2214 H   0  0  0  0  0  0  0  0  0  0  0  0
  151.9471  137.7769  155.0276 H   0  0  0  0  0  0  0  0  0  0  0  0
  150.4306  138.6173  154.9916 H   0  0  0  0  0  0  0  0  0  0  0  0
  152.2420  140.2027  155.4804 H   0  0  0  0  0  0  0  0  0  0  0  0
  152.7686  139.2597  156.8495 H   0  0  0  0  0  0  0  0  0  0  0  0
  153.8989  141.5164  159.0708 H   0  0  0  0  0  0  0  0  0  0  0  0
  154.7425  140.9344  161.5982 H   0  0  0  0  0  0  0  0  0  0  0  0
  153.2450  142.6594  163.1673 H   0  0  0  0  0  0  0  0  0  0  0  0
  1  2  1  0  0  0  0
  1 20  1  0  0  0  0
  1 21  1  0  0  0  0
  1 22  1  0  0  0  0
  2  3  1  0  0  0  0
  2 15  1  0  0  0  0
  2 23  1  0  0  0  0
  3  4  2  0  0  0  0
  3  5  1  0  0  0  0
  5  6  1  0  0  0  0
  5 24  1  0  0  0  0
  6 14  1  0  0  0  0
  6  7  1  0  0  0  0
  6 25  1  0  0  0  0
  7  8  1  0  0  0  0
  7 26  1  0  0  0  0
  7 27  1  0  0  0  0
  8  9  1  0  0  0  0
  8 28  1  0  0  0  0
  8 29  1  0  0  0  0
  9 10  1  0  0  0  0
  9 13  1  0  0  0  0
  9 30  1  0  0  0  0
 10 11  2  0  0  0  0
 10 12  1  0  0  0  0
 13 14  1  0  0  0  0
 13 31  1  0  0  0  0
 13 32  1  0  0  0  0
 14 33  1  0  0  0  0
 14 34  1  0  0  0  0
 15 19  1  0  0  0  0
 15 16  1  0  0  0  0
 16 17  2  0  0  0  0
 16 35  1  0  0  0  0
 17 18  1  0  0  0  0
 17 36  1  0  0  0  0
 18 19  2  0  0  0  0
 18 37  1  0  0  0  0
M  CHG  1  12  -1
M  END
> <s_m_source_file>
AV-unprocessed.smi

> <i_m_source_file_index>
999

> <i_lp_mmshare_version>
43012

> <i_f3d_flags>
0

> <s_epik_input>
bjFbY0hdW2NIXVtjSF1uMVtDQEhdKFtDSDNdKUMoPU8pW05IXVtDQEBIXTJbQ0gyXVtDSDJdW0NAQEhdKEMoPU8pW09IXSlbQ0gyXVtDSDJdMg==

> <s_epik_cmdline>
J2VwaWtfcHl0aG9uJywgJy1waCcsICc3LjAnLCAnLXRuJywgJzgnLCAnLW1hJywgJzIwMCcsICctbWV0YWxfYmluZGluZycsICctaW1hZScsICc8aW5maWxlLm1hZT4nLCAnLW9tYWUnLCAnPG91dGZpbGUubWFlPic=

> <r_lp_tautomer_probability>
1

> <r_epik_Ionization_Penalty>
0.00221712

> <r_epik_Ionization_Penalty_Charging>
0.00217268

> <r_epik_Ionization_Penalty_Neutral>
4.44343e-05

> <r_epik_State_Penalty>
0.0014925

> <r_epik_Charging_Adjusted_Penalty>
0.00366518

> <i_epik_Tot_Q>
-1

> <i_epik_Tot_abs_Q>
1

> <r_epik_Metal_State_Penalty>
-0

> <b_epik_Metal_Only>
0

> <s_lp_Force_Field>
OPLS_2005

> <r_lp_Energy>
7.42219

> <b_lp_Chiralities_Consistent>
1

> <s_lp_Variant>
AV-unprocessed.smi:999-3

> <Gold.Version>
5.8.1

> <Gold.Id.Protein>
6NUR|6NUR_protein|mol2

> <Gold.PLP.Fitness>
47.5634

> <Gold.PLP.PLP>
-37.3537

> <Gold.PLP.part.hbond>
-2.0000

> <Gold.PLP.part.metal>
0.0000

> <Gold.PLP.part.buried>
-6.3222

> <Gold.PLP.part.nonpolar>
-30.8889

> <Gold.PLP.part.repulsive>
0.3603

> <Gold.PLP.ligand.clash>
0.0000

> <Gold.PLP.ligand.torsion>
0.5574

> <Gold.PLP.Chemscore.Hbond>
3.7280

> <Gold.PLP.Chemscore.CHOScore>
0.0000

> <Gold.PLP.Chemscore.Metal>
0.0000

> <Gold.Chemscore.Hbonds>
donor molecule, donor type, donor heavy atom, donor atom, acceptor molecule, acceptor atom, score
      P1  H  6896  6908       L1    11  1.66
      P1  H 10752 10764       L1    12  2.00

> <Gold.PLP.Chemscore.Internal.Correction>
0.1404

> <Gold.Rescore>
     Score         DG    S(hbond)    S(metal)    S(lipo)     H(rot)  DE(clash)    DE(int)     intcor
     15.51     -16.36       1.81        0.00      84.60       1.98       0.00       0.84       ----

> <Gold.Chemscore.Fitness>
15.5144

> <Gold.Chemscore.DG>
-16.3588

> <Gold.Chemscore.ZeroCoef>
-5.4800

> <Gold.Chemscore.Hbond>
1.8093

> <Gold.Chemscore.Metal>
0.0000

> <Gold.Chemscore.Lipo>
84.5953

> <Gold.Chemscore.Internal_Hbond>
0.0000

> <Gold.Chemscore.DEClash>
0.0048

> <Gold.Chemscore.DEInternal>
0.8396

> <Gold.Chemscore.Rot>
1.9774

> <Gold.Chemscore.Internal.Correction>
   9.000000E+99

> <Gold.Chemscore.Hbonds>
donor molecule, donor type, donor heavy atom, donor atom, acceptor molecule, acceptor atom, score
      P1  H  6896  6908       L1    11  0.81
      P1  H 10752 10764       L1    12  0.99

> <Gold.Chemscore.Hbond.Weighted>
-6.0432

> <Gold.Chemscore.Metal.Weighted>
-0.0000

> <Gold.Chemscore.Lipo.Weighted>
-9.8976

> <Gold.Chemscore.Internal_Hbond.Weighted>
0.0000

> <Gold.Chemscore.DEClash.Weighted>
0.0048

> <Gold.Chemscore.DEInternal.Weighted>
0.8396

> <Gold.Chemscore.Rot.Weighted>
5.0620

> <Gold.Chemscore.Internal.Correction.Weighted>
   9.000000E+99

> <Gold.Protein.RotatedTorsions>
[ 6907 6896 6895 6894 ] final -128.82 input  -60.11 | X-H torsion
[ 7974 7965 7964 7962 ] final  -74.88 input  175.53 | X-H torsion
[ 8008 7997 7996 7995 ] final -115.10 input   59.86 | X-H torsion
[ 10167 10162 10161 10158 ] final  -20.36 input  -65.29 | X-H torsion
[ 10718 10713 10712 10709 ] final  -45.50 input   66.30 | X-H torsion
[ 10763 10752 10751 10750 ] final    0.24 input  -60.55 | X-H torsion
[ 11005 11000 10999 10996 ] final  114.26 input  -57.11 | X-H torsion

> <Gold.Protein.ActiveResidues>
 VAL166  LYS551  ARG553  GLY616  TRP617  ASP618  TYR619  PRO620  LYS621  CYS622 
 ASP623  PHE694  ASN695  SER759  ASP760  ASP761  ALA762  ILE779  LEU786  VAL792 
 PHE793  MET794  SER795  GLU796  ALA797  LYS798  CYS799  TRP800  GLU811  SER814 

> <Gold.Protein.RotatedAtoms>
  150.9220  133.6869  159.2829 H   0  0  0  0  0  0  0  0  0  0  0  0  # atno 6907 bound_to 6896
  151.4320  135.1009  159.9655 H   0  0  0  0  0  0  0  0  0  0  0  0  # atno 6908 bound_to 6896
  152.4984  133.8648  159.7323 H   0  0  0  0  0  0  0  0  0  0  0  0  # atno 6909 bound_to 6896
  145.6334  140.9331  143.1075 H   0  0  0  0  0  0  0  0  0  0  0  0  # atno 7974 bound_to 7965
  155.0468  140.0392  157.2529 H   0  0  0  0  0  0  0  0  0  0  0  0  # atno 8008 bound_to 7997
  154.7171  140.2704  155.6552 H   0  0  0  0  0  0  0  0  0  0  0  0  # atno 8009 bound_to 7997
  156.2806  140.2710  156.1830 H   0  0  0  0  0  0  0  0  0  0  0  0  # atno 8010 bound_to 7997
  140.7275  143.4730  151.0220 H   0  0  0  0  0  0  0  0  0  0  0  0  # atno 10167 bound_to 10162
  156.2277  130.4170  149.8913 H   0  0  0  0  0  0  0  0  0  0  0  0  # atno 10718 bound_to 10713
  153.3232  135.6970  153.7012 H   0  0  0  0  0  0  0  0  0  0  0  0  # atno 10763 bound_to 10752
  153.5844  135.3492  155.2888 H   0  0  0  0  0  0  0  0  0  0  0  0  # atno 10764 bound_to 10752
  154.8602  135.4303  154.2401 H   0  0  0  0  0  0  0  0  0  0  0  0  # atno 10765 bound_to 10752
  139.8975  134.9565  156.6865 H   0  0  0  0  0  0  0  0  0  0  0  0  # atno 11005 bound_to 11000
  144.7185  139.8112  143.7390 LP  0  0  0  0  0  0  0  0  0  0  0  0  # atno 17320 bound_to 7965
  146.1339  139.4380  143.0151 LP  0  0  0  0  0  0  0  0  0  0  0  0  # atno 17321 bound_to 7965
  139.8424  143.7547  152.3180 LP  0  0  0  0  0  0  0  0  0  0  0  0  # atno 17342 bound_to 10162
  139.7700  144.7479  151.0238 LP  0  0  0  0  0  0  0  0  0  0  0  0  # atno 17343 bound_to 10162
  156.6538  130.8754  151.3536 LP  0  0  0  0  0  0  0  0  0  0  0  0  # atno 17370 bound_to 10713
  157.7118  130.9449  150.1116 LP  0  0  0  0  0  0  0  0  0  0  0  0  # atno 17371 bound_to 10713
  140.7258  133.9101  155.8177 LP  0  0  0  0  0  0  0  0  0  0  0  0  # atno 17394 bound_to 11000
  141.0192  134.0913  157.4139 LP  0  0  0  0  0  0  0  0  0  0  0  0  # atno 17395 bound_to 11000

$$$$
