AV-unprocessed.smi:1803|AV-procd|sdf|7284|dock9
  -GOLD-   22720 8543D 1   1.00000     0.00000
 Structure written by MMmdl.
 36 38  0  0  0  0  0  0  0  0  2 V2000
  148.3880  136.3775  157.5798 O   0  0  0  0  0  0  0  0  0  0  0  0
  148.0261  135.2240  157.8043 C   0  0  0  0  0  0  0  0  0  0  0  0
  147.6952  134.8291  159.0527 N   0  0  0  0  0  0  0  0  0  0  0  0
  147.6694  135.5304  160.2940 C   0  0  0  0  0  0  0  0  0  0  0  0
  148.1357  136.7773  160.4750 N   0  0  0  0  0  0  0  0  0  0  0  0
  147.9928  137.2045  161.7882 N   0  0  0  0  0  0  0  0  0  0  0  0
  147.4305  136.2628  162.5506 C   0  0  0  0  0  0  0  0  0  0  0  0
  147.0207  134.7629  161.7371 S   0  0  0  0  0  0  0  0  0  0  0  0
  147.9390  134.2926  156.8405 N   0  0  0  0  0  0  0  0  0  0  0  0
  148.2351  134.4999  155.4268 C   0  0  1  0  0  0  0  0  0  0  0  0
  149.1693  133.4218  154.8487 C   0  0  0  0  0  0  0  0  0  0  0  0
  148.6479  133.1490  153.4239 C   0  0  0  0  0  0  0  0  0  0  0  0
  147.5553  134.1181  153.2156 N   0  3  1  0  0  0  0  0  0  0  0  0
  146.5277  133.7695  152.2102 C   0  0  0  0  0  0  0  0  0  0  0  0
  145.5290  134.9367  152.0788 C   0  0  0  0  0  0  0  0  0  0  0  0
  144.9410  135.3429  153.4456 C   0  0  0  0  0  0  0  0  0  0  0  0
  146.0563  135.6006  154.4774 C   0  0  0  0  0  0  0  0  0  0  0  0
  146.9879  134.3786  154.5473 C   0  0  2  0  0  0  0  0  0  0  0  0
  147.4472  133.8530  159.1260 H   0  0  0  0  0  0  0  0  0  0  0  0
  147.2573  136.4524  163.5997 H   0  0  0  0  0  0  0  0  0  0  0  0
  147.6364  133.3674  157.1117 H   0  0  0  0  0  0  0  0  0  0  0  0
  148.6994  135.4760  155.2700 H   0  0  0  0  0  0  0  0  0  0  0  0
  150.2050  133.7631  154.8439 H   0  0  0  0  0  0  0  0  0  0  0  0
  149.1311  132.5028  155.4358 H   0  0  0  0  0  0  0  0  0  0  0  0
  149.4225  133.2703  152.6662 H   0  0  0  0  0  0  0  0  0  0  0  0
  148.2631  132.1302  153.3557 H   0  0  0  0  0  0  0  0  0  0  0  0
  147.0060  133.5728  151.2501 H   0  0  0  0  0  0  0  0  0  0  0  0
  146.0113  132.8553  152.5076 H   0  0  0  0  0  0  0  0  0  0  0  0
  146.0364  135.7956  151.6374 H   0  0  0  0  0  0  0  0  0  0  0  0
  144.7269  134.6673  151.3912 H   0  0  0  0  0  0  0  0  0  0  0  0
  144.3170  136.2305  153.3372 H   0  0  0  0  0  0  0  0  0  0  0  0
  144.2877  134.5487  153.8092 H   0  0  0  0  0  0  0  0  0  0  0  0
  146.6227  136.4904  154.1992 H   0  0  0  0  0  0  0  0  0  0  0  0
  145.6171  135.8008  155.4549 H   0  0  0  0  0  0  0  0  0  0  0  0
  146.4143  133.5019  154.8580 H   0  0  0  0  0  0  0  0  0  0  0  0
  147.9887  134.9801  152.9171 H   0  0  0  0  0  0  0  0  0  0  0  0
  1  2  2  0  0  0  0
  2  3  1  0  0  0  0
  2  9  1  0  0  0  0
  3  4  1  0  0  0  0
  3 19  1  0  0  0  0
  4  8  1  0  0  0  0
  4  5  2  0  0  0  0
  5  6  1  0  0  0  0
  6  7  2  0  0  0  0
  7  8  1  0  0  0  0
  7 20  1  0  0  0  0
  9 10  1  0  0  0  0
  9 21  1  0  0  0  0
 10 18  1  0  0  0  0
 10 11  1  0  0  0  0
 10 22  1  0  0  0  0
 11 12  1  0  0  0  0
 11 23  1  0  0  0  0
 11 24  1  0  0  0  0
 12 13  1  0  0  0  0
 12 25  1  0  0  0  0
 12 26  1  0  0  0  0
 13 18  1  0  0  0  0
 13 14  1  0  0  0  0
 13 36  1  0  0  0  0
 14 15  1  0  0  0  0
 14 27  1  0  0  0  0
 14 28  1  0  0  0  0
 15 16  1  0  0  0  0
 15 29  1  0  0  0  0
 15 30  1  0  0  0  0
 16 17  1  0  0  0  0
 16 31  1  0  0  0  0
 16 32  1  0  0  0  0
 17 18  1  0  0  0  0
 17 33  1  0  0  0  0
 17 34  1  0  0  0  0
 18 35  1  0  0  0  0
M  CHG  1  13   1
M  END
> <s_m_source_file>
AV-unprocessed.smi

> <i_m_source_file_index>
1803

> <i_lp_mmshare_version>
43012

> <i_f3d_flags>
0

> <s_epik_input>
czFbY0hdbm5jMVtOSF1DKD1PKVtOSF1bQ0BIXShbQ0gyXVtDSDJdMilbQ0BASF0oTjIzKVtDSDJdW0NIMl1bQ0gyXVtDSDJdMw==

> <s_epik_cmdline>
J2VwaWtfcHl0aG9uJywgJy1waCcsICc3LjAnLCAnLXRuJywgJzgnLCAnLW1hJywgJzIwMCcsICctbWV0YWxfYmluZGluZycsICctaW1hZScsICc8aW5maWxlLm1hZT4nLCAnLW9tYWUnLCAnPG91dGZpbGUubWFlPic=

> <r_lp_tautomer_probability>
1

> <r_epik_Ionization_Penalty>
0.00213286

> <r_epik_Ionization_Penalty_Charging>
0.00107044

> <r_epik_Ionization_Penalty_Neutral>
0.00106242

> <r_epik_State_Penalty>
-0

> <r_epik_Charging_Adjusted_Penalty>
0.00107044

> <i_epik_Tot_Q>
1

> <i_epik_Tot_abs_Q>
1

> <r_epik_Metal_State_Penalty>
0.292783

> <b_epik_Metal_Only>
0

> <s_lp_Force_Field>
OPLS_2005

> <r_lp_Energy>
35.8309

> <b_lp_Chiralities_Consistent>
1

> <s_lp_Variant>
AV-unprocessed.smi:1803-6

> <Gold.Version>
5.8.1

> <Gold.Id.Protein>
6NUR|6NUR_protein|mol2

> <Gold.PLP.Fitness>
35.6685

> <Gold.PLP.PLP>
-26.1732

> <Gold.PLP.part.hbond>
-3.7287

> <Gold.PLP.part.metal>
0.0000

> <Gold.PLP.part.buried>
-3.7516

> <Gold.PLP.part.nonpolar>
-17.8288

> <Gold.PLP.part.repulsive>
0.1084

> <Gold.PLP.ligand.clash>
0.0000

> <Gold.PLP.ligand.torsion>
0.0878

> <Gold.PLP.Chemscore.Hbond>
3.2205

> <Gold.PLP.Chemscore.CHOScore>
0.0000

> <Gold.PLP.Chemscore.Metal>
0.0000

> <Gold.Chemscore.Hbonds>
donor molecule, donor type, donor heavy atom, donor atom, acceptor molecule, acceptor atom, score
      L1  H    13    36       P1  7948  2.00
      P1  H  6931  6943       L1     6  0.86
      P1  H  6934  6947       L1     6  0.12

> <Gold.PLP.Chemscore.Internal.Correction>
0.0095

> <Gold.Rescore>
     Score         DG    S(hbond)    S(metal)    S(lipo)     H(rot)  DE(clash)    DE(int)     intcor
     13.60     -15.02       1.85        0.00      50.45       1.00       0.16       1.25       ----

> <Gold.Chemscore.Fitness>
13.6033

> <Gold.Chemscore.DG>
-15.0157

> <Gold.Chemscore.ZeroCoef>
-5.4800

> <Gold.Chemscore.Hbond>
1.8541

> <Gold.Chemscore.Metal>
0.0000

> <Gold.Chemscore.Lipo>
50.4517

> <Gold.Chemscore.Internal_Hbond>
0.0000

> <Gold.Chemscore.DEClash>
0.1591

> <Gold.Chemscore.DEInternal>
1.2534

> <Gold.Chemscore.Rot>
1.0000

> <Gold.Chemscore.Internal.Correction>
   9.000000E+99

> <Gold.Chemscore.Hbonds>
donor molecule, donor type, donor heavy atom, donor atom, acceptor molecule, acceptor atom, score
      L1  H    13    36       P1  7948  0.95
      P1  H  6931  6943       L1     6  0.33

> <Gold.Chemscore.Hbond.Weighted>
-6.1929

> <Gold.Chemscore.Metal.Weighted>
-0.0000

> <Gold.Chemscore.Lipo.Weighted>
-5.9028

> <Gold.Chemscore.Internal_Hbond.Weighted>
0.0000

> <Gold.Chemscore.DEClash.Weighted>
0.1591

> <Gold.Chemscore.DEInternal.Weighted>
1.2534

> <Gold.Chemscore.Rot.Weighted>
2.5600

> <Gold.Chemscore.Internal.Correction.Weighted>
   9.000000E+99

> <Gold.Protein.RotatedTorsions>
[ 6907 6896 6895 6894 ] final -110.55 input  -60.11 | X-H torsion
[ 7974 7965 7964 7962 ] final  142.19 input  175.53 | X-H torsion
[ 8008 7997 7996 7995 ] final  102.16 input   59.86 | X-H torsion
[ 10167 10162 10161 10158 ] final  -32.95 input  -65.29 | X-H torsion
[ 10718 10713 10712 10709 ] final -153.96 input   66.30 | X-H torsion
[ 10763 10752 10751 10750 ] final  102.86 input  -60.55 | X-H torsion
[ 11005 11000 10999 10996 ] final   -7.18 input  -57.11 | X-H torsion

> <Gold.Protein.ActiveResidues>
 VAL166  LYS551  ARG553  GLY616  TRP617  ASP618  TYR619  PRO620  LYS621  CYS622 
 ASP623  PHE694  ASN695  SER759  ASP760  ASP761  ALA762  ILE779  LEU786  VAL792 
 PHE793  MET794  SER795  GLU796  ALA797  LYS798  CYS799  TRP800  GLU811  SER814 

> <Gold.Protein.RotatedAtoms>
  150.7632  133.9365  159.3442 H   0  0  0  0  0  0  0  0  0  0  0  0  # atno 6907 bound_to 6896
  151.7269  135.0881  160.0303 H   0  0  0  0  0  0  0  0  0  0  0  0  # atno 6908 bound_to 6896
  152.3614  133.6264  159.6054 H   0  0  0  0  0  0  0  0  0  0  0  0  # atno 6909 bound_to 6896
  144.9029  139.5397  143.5745 H   0  0  0  0  0  0  0  0  0  0  0  0  # atno 7974 bound_to 7965
  156.1367  140.3186  155.8431 H   0  0  0  0  0  0  0  0  0  0  0  0  # atno 8008 bound_to 7997
  155.4231  140.0513  157.3041 H   0  0  0  0  0  0  0  0  0  0  0  0  # atno 8009 bound_to 7997
  154.4942  140.2104  155.9495 H   0  0  0  0  0  0  0  0  0  0  0  0  # atno 8010 bound_to 7997
  140.7213  143.3657  151.1876 H   0  0  0  0  0  0  0  0  0  0  0  0  # atno 10167 bound_to 10162
  156.4928  130.8355  151.2577 H   0  0  0  0  0  0  0  0  0  0  0  0  # atno 10718 bound_to 10713
  153.3451  135.3996  155.1602 H   0  0  0  0  0  0  0  0  0  0  0  0  # atno 10763 bound_to 10752
  154.8651  135.3643  154.5295 H   0  0  0  0  0  0  0  0  0  0  0  0  # atno 10764 bound_to 10752
  153.5743  135.7078  153.5551 H   0  0  0  0  0  0  0  0  0  0  0  0  # atno 10765 bound_to 10752
  140.7099  133.8917  155.8743 H   0  0  0  0  0  0  0  0  0  0  0  0  # atno 11005 bound_to 11000
  146.3118  139.7774  142.9014 LP  0  0  0  0  0  0  0  0  0  0  0  0  # atno 17320 bound_to 7965
  145.3585  141.0321  143.3298 LP  0  0  0  0  0  0  0  0  0  0  0  0  # atno 17321 bound_to 7965
  139.7218  143.9212  152.2988 LP  0  0  0  0  0  0  0  0  0  0  0  0  # atno 17342 bound_to 10162
  139.8971  144.6933  150.8706 LP  0  0  0  0  0  0  0  0  0  0  0  0  # atno 17343 bound_to 10162
  157.7472  131.0007  150.2938 LP  0  0  0  0  0  0  0  0  0  0  0  0  # atno 17370 bound_to 10713
  156.3409  130.3815  149.7410 LP  0  0  0  0  0  0  0  0  0  0  0  0  # atno 17371 bound_to 10713
  141.0093  134.1043  157.4238 LP  0  0  0  0  0  0  0  0  0  0  0  0  # atno 17394 bound_to 11000
  139.8874  135.0089  156.6559 LP  0  0  0  0  0  0  0  0  0  0  0  0  # atno 17395 bound_to 11000

$$$$
