AV-unprocessed.smi:1032|AV-procd|sdf|4486|dock8
  -GOLD-   22720 2463D 1   1.00000     0.00000
 Structure written by MMmdl.
 47 48  0  0  0  0  0  0  0  0  3 V2000
  151.7156  143.0546  159.2247 C   0  0  0  0  0  0  0  0  0  0  0  0
  150.8374  142.3137  158.2065 C   0  0  2  0  0  0  0  0  0  0  0  0
  151.2013  142.6855  156.7593 C   0  0  0  0  0  0  0  0  0  0  0  0
  150.2955  141.9582  155.7509 C   0  0  0  0  0  0  0  0  0  0  0  0
  148.8605  142.2499  156.0120 N   0  3  1  0  0  0  0  0  0  0  0  0
  147.9429  141.6722  154.9956 C   0  0  0  0  0  0  0  0  0  0  0  0
  148.5394  140.4487  154.2684 C   0  0  2  0  0  0  0  0  0  0  0  0
  147.9140  140.3559  153.0034 O   0  0  0  0  0  0  0  0  0  0  0  0
  148.2541  139.1434  155.0396 C   0  0  0  0  0  0  0  0  0  0  0  0
  147.8560  138.0562  154.1497 N   0  0  0  0  0  0  0  0  0  0  0  0
  146.5928  137.6538  153.9484 C   0  0  0  0  0  0  0  0  0  0  0  0
  145.6253  138.1462  154.5291 O   0  0  0  0  0  0  0  0  0  0  0  0
  146.5335  136.6444  153.0627 N   0  0  0  0  0  0  0  0  0  0  0  0
  145.3799  135.9918  152.5492 C   0  0  0  0  0  0  0  0  0  0  0  0
  145.4729  135.4027  151.2685 C   0  0  0  0  0  0  0  0  0  0  0  0
  144.3457  134.7625  150.7142 C   0  0  0  0  0  0  0  0  0  0  0  0
  143.1853  134.7275  151.4037 N   0  3  0  0  0  0  0  0  0  0  0  0
  143.0433  135.2901  152.6228 C   0  0  0  0  0  0  0  0  0  0  0  0
  144.1363  135.9427  153.2290 C   0  0  0  0  0  0  0  0  0  0  0  0
  148.4729  141.8683  157.3946 C   0  0  0  0  0  0  0  0  0  0  0  0
  149.3425  142.5896  158.4376 C   0  0  0  0  0  0  0  0  0  0  0  0
  151.5843  144.1349  159.1525 H   0  0  0  0  0  0  0  0  0  0  0  0
  152.7718  142.8363  159.0654 H   0  0  0  0  0  0  0  0  0  0  0  0
  151.4693  142.7570  160.2443 H   0  0  0  0  0  0  0  0  0  0  0  0
  151.0106  141.2443  158.3360 H   0  0  0  0  0  0  0  0  0  0  0  0
  151.1101  143.7637  156.6190 H   0  0  0  0  0  0  0  0  0  0  0  0
  152.2443  142.4362  156.5607 H   0  0  0  0  0  0  0  0  0  0  0  0
  150.5738  142.2699  154.7453 H   0  0  0  0  0  0  0  0  0  0  0  0
  150.4653  140.8816  155.8045 H   0  0  0  0  0  0  0  0  0  0  0  0
  147.0004  141.4091  155.4783 H   0  0  0  0  0  0  0  0  0  0  0  0
  147.6991  142.4297  154.2486 H   0  0  0  0  0  0  0  0  0  0  0  0
  149.6129  140.5726  154.1313 H   0  0  0  0  0  0  0  0  0  0  0  0
  148.5305  140.6307  152.3413 H   0  0  0  0  0  0  0  0  0  0  0  0
  149.1458  138.8295  155.5854 H   0  0  0  0  0  0  0  0  0  0  0  0
  147.4829  139.2951  155.7961 H   0  0  0  0  0  0  0  0  0  0  0  0
  148.5933  137.5957  153.6360 H   0  0  0  0  0  0  0  0  0  0  0  0
  147.4185  136.2739  152.7488 H   0  0  0  0  0  0  0  0  0  0  0  0
  146.4000  135.4339  150.7145 H   0  0  0  0  0  0  0  0  0  0  0  0
  144.3369  134.2840  149.7457 H   0  0  0  0  0  0  0  0  0  0  0  0
  142.0642  135.2079  153.0719 H   0  0  0  0  0  0  0  0  0  0  0  0
  143.9958  136.4042  154.1948 H   0  0  0  0  0  0  0  0  0  0  0  0
  147.4265  142.1229  157.5685 H   0  0  0  0  0  0  0  0  0  0  0  0
  148.5604  140.7870  157.5131 H   0  0  0  0  0  0  0  0  0  0  0  0
  149.0541  142.2687  159.4393 H   0  0  0  0  0  0  0  0  0  0  0  0
  149.1515  143.6626  158.3903 H   0  0  0  0  0  0  0  0  0  0  0  0
  148.7462  143.2520  155.9544 H   0  0  0  0  0  0  0  0  0  0  0  0
  142.3804  134.2613  150.9838 H   0  0  0  0  0  0  0  0  0  0  0  0
  1  2  1  0  0  0  0
  1 22  1  0  0  0  0
  1 23  1  0  0  0  0
  1 24  1  0  0  0  0
  2 21  1  0  0  0  0
  2  3  1  0  0  0  0
  2 25  1  0  0  0  0
  3  4  1  0  0  0  0
  3 26  1  0  0  0  0
  3 27  1  0  0  0  0
  4  5  1  0  0  0  0
  4 28  1  0  0  0  0
  4 29  1  0  0  0  0
  5  6  1  0  0  0  0
  5 20  1  0  0  0  0
  5 46  1  0  0  0  0
  6  7  1  0  0  0  0
  6 30  1  0  0  0  0
  6 31  1  0  0  0  0
  7  8  1  0  0  0  0
  7  9  1  0  0  0  0
  7 32  1  0  0  0  0
  8 33  1  0  0  0  0
  9 10  1  0  0  0  0
  9 34  1  0  0  0  0
  9 35  1  0  0  0  0
 10 11  1  0  0  0  0
 10 36  1  0  0  0  0
 11 12  2  0  0  0  0
 11 13  1  0  0  0  0
 13 14  1  0  0  0  0
 13 37  1  0  0  0  0
 14 19  1  0  0  0  0
 14 15  2  0  0  0  0
 15 16  1  0  0  0  0
 15 38  1  0  0  0  0
 16 17  2  0  0  0  0
 16 39  1  0  0  0  0
 17 18  1  0  0  0  0
 17 47  1  0  0  0  0
 18 19  2  0  0  0  0
 18 40  1  0  0  0  0
 19 41  1  0  0  0  0
 20 21  1  0  0  0  0
 20 42  1  0  0  0  0
 20 43  1  0  0  0  0
 21 44  1  0  0  0  0
 21 45  1  0  0  0  0
M  CHG  1   5   1
M  CHG  1  17   1
M  END
> <s_m_source_file>
AV-unprocessed.smi

> <i_m_source_file_index>
1032

> <i_lp_mmshare_version>
43012

> <i_f3d_flags>
0

> <s_epik_input>
W0NIM11bQ0hdMVtDSDJdW0NIMl1OKFtDSDJdW0NIMl0xKVtDSDJdW0NASF0oW09IXSlbQ0gyXVtOSF1DKD1PKVtOSF1jMltjSF1bY0hdbltjSF1bY0hdMg==

> <s_epik_cmdline>
J2VwaWtfcHl0aG9uJywgJy1waCcsICc3LjAnLCAnLXRuJywgJzgnLCAnLW1hJywgJzIwMCcsICctbWV0YWxfYmluZGluZycsICctaW1hZScsICc8aW5maWxlLm1hZT4nLCAnLW9tYWUnLCAnPG91dGZpbGUubWFlPic=

> <r_epik_Ionization_Penalty>
1.02509

> <r_epik_Ionization_Penalty_Charging>
1.02507

> <r_epik_Ionization_Penalty_Neutral>
1.85474e-05

> <r_epik_State_Penalty>
1.07411

> <r_epik_Charging_Adjusted_Penalty>
2.09917

> <i_epik_Tot_Q>
2

> <i_epik_Tot_abs_Q>
2

> <r_epik_Metal_State_Penalty>
1.1725

> <b_epik_Metal_Only>
0

> <s_lp_Force_Field>
OPLS_2005

> <r_lp_Energy>
32.4913

> <b_lp_Chiralities_Consistent>
1

> <s_lp_Variant>
AV-unprocessed.smi:1032-5

> <Gold.Version>
5.8.1

> <Gold.Id.Protein>
6NUR|6NUR_protein|mol2

> <Gold.PLP.Fitness>
47.5221

> <Gold.PLP.PLP>
-31.7898

> <Gold.PLP.part.hbond>
-4.5577

> <Gold.PLP.part.metal>
0.0000

> <Gold.PLP.part.buried>
-5.0915

> <Gold.PLP.part.nonpolar>
-22.4397

> <Gold.PLP.part.repulsive>
0.1996

> <Gold.PLP.ligand.clash>
0.0137

> <Gold.PLP.ligand.torsion>
1.7168

> <Gold.PLP.Chemscore.Hbond>
6.3680

> <Gold.PLP.Chemscore.CHOScore>
0.0000

> <Gold.PLP.Chemscore.Metal>
0.0000

> <Gold.Chemscore.Hbonds>
donor molecule, donor type, donor heavy atom, donor atom, acceptor molecule, acceptor atom, score
      L1  H     5    46       P1  8028  1.85
      L1  H     8    33       P1  7957  0.86
      L1  H    10    36       P1  7948  0.38
      L1  H    13    37       P1  7948  1.00
      L1  H    17    47       P1 10186  1.56

> <Gold.PLP.Chemscore.Internal.Correction>
0.0757

> <Gold.Rescore>
     Score         DG    S(hbond)    S(metal)    S(lipo)     H(rot)  DE(clash)    DE(int)     intcor
     20.55     -23.66       4.44        0.00      79.93       2.34       0.15       2.96       ----

> <Gold.Chemscore.Fitness>
20.5485

> <Gold.Chemscore.DG>
-23.6613

> <Gold.Chemscore.ZeroCoef>
-5.4800

> <Gold.Chemscore.Hbond>
4.4366

> <Gold.Chemscore.Metal>
0.0000

> <Gold.Chemscore.Lipo>
79.9295

> <Gold.Chemscore.Internal_Hbond>
0.0000

> <Gold.Chemscore.DEClash>
0.1498

> <Gold.Chemscore.DEInternal>
2.9630

> <Gold.Chemscore.Rot>
2.3393

> <Gold.Chemscore.Internal.Correction>
   9.000000E+99

> <Gold.Chemscore.Hbonds>
donor molecule, donor type, donor heavy atom, donor atom, acceptor molecule, acceptor atom, score
      L1  H     5    46       P1  8028  0.88
      L1  H     8    33       P1  7957  0.86
      L1  H    10    36       P1  7948  0.37
      L1  H    13    37       P1  7948  0.99
      L1  H    17    47       P1 10186  0.15

> <Gold.Chemscore.Hbond.Weighted>
-14.8182

> <Gold.Chemscore.Metal.Weighted>
-0.0000

> <Gold.Chemscore.Lipo.Weighted>
-9.3518

> <Gold.Chemscore.Internal_Hbond.Weighted>
0.0000

> <Gold.Chemscore.DEClash.Weighted>
0.1498

> <Gold.Chemscore.DEInternal.Weighted>
2.9630

> <Gold.Chemscore.Rot.Weighted>
5.9886

> <Gold.Chemscore.Internal.Correction.Weighted>
   9.000000E+99

> <Gold.Protein.RotatedTorsions>
[ 6907 6896 6895 6894 ] final -156.02 input  -60.11 | X-H torsion
[ 7974 7965 7964 7962 ] final -154.18 input  175.53 | X-H torsion
[ 8008 7997 7996 7995 ] final -153.42 input   59.86 | X-H torsion
[ 10167 10162 10161 10158 ] final  -59.88 input  -65.29 | X-H torsion
[ 10718 10713 10712 10709 ] final -115.16 input   66.30 | X-H torsion
[ 10763 10752 10751 10750 ] final   -0.96 input  -60.55 | X-H torsion
[ 11005 11000 10999 10996 ] final -170.97 input  -57.11 | X-H torsion

> <Gold.Protein.ActiveResidues>
 VAL166  LYS551  ARG553  GLY616  TRP617  ASP618  TYR619  PRO620  LYS621  CYS622 
 ASP623  PHE694  ASN695  SER759  ASP760  ASP761  ALA762  ILE779  LEU786  VAL792 
 PHE793  MET794  SER795  GLU796  ALA797  LYS798  CYS799  TRP800  GLU811  SER814 

> <Gold.Protein.RotatedAtoms>
  151.2814  133.4208  159.2626 H   0  0  0  0  0  0  0  0  0  0  0  0  # atno 6907 bound_to 6896
  151.0358  134.9572  159.8145 H   0  0  0  0  0  0  0  0  0  0  0  0  # atno 6908 bound_to 6896
  152.5355  134.2773  159.9047 H   0  0  0  0  0  0  0  0  0  0  0  0  # atno 6909 bound_to 6896
  144.7702  140.4424  143.5912 H   0  0  0  0  0  0  0  0  0  0  0  0  # atno 7974 bound_to 7965
  155.6705  140.0733  157.2521 H   0  0  0  0  0  0  0  0  0  0  0  0  # atno 8008 bound_to 7997
  154.4124  140.1700  156.1926 H   0  0  0  0  0  0  0  0  0  0  0  0  # atno 8009 bound_to 7997
  155.9620  140.3369  155.6502 H   0  0  0  0  0  0  0  0  0  0  0  0  # atno 8010 bound_to 7997
  140.6107  143.2386  151.5717 H   0  0  0  0  0  0  0  0  0  0  0  0  # atno 10167 bound_to 10162
  156.0877  130.6066  150.8870 H   0  0  0  0  0  0  0  0  0  0  0  0  # atno 10718 bound_to 10713
  153.3386  135.6979  153.6886 H   0  0  0  0  0  0  0  0  0  0  0  0  # atno 10763 bound_to 10752
  153.5660  135.3525  155.2819 H   0  0  0  0  0  0  0  0  0  0  0  0  # atno 10764 bound_to 10752
  154.8632  135.4260  154.2593 H   0  0  0  0  0  0  0  0  0  0  0  0  # atno 10765 bound_to 10752
  140.5135  134.5779  157.5026 H   0  0  0  0  0  0  0  0  0  0  0  0  # atno 11005 bound_to 11000
  145.6346  139.1541  143.2950 LP  0  0  0  0  0  0  0  0  0  0  0  0  # atno 17320 bound_to 7965
  146.1843  140.6447  142.9175 LP  0  0  0  0  0  0  0  0  0  0  0  0  # atno 17321 bound_to 7965
  139.5359  144.2783  152.1249 LP  0  0  0  0  0  0  0  0  0  0  0  0  # atno 17342 bound_to 10162
  140.1982  144.4684  150.6444 LP  0  0  0  0  0  0  0  0  0  0  0  0  # atno 17343 bound_to 10162
  157.6017  131.0941  150.8949 LP  0  0  0  0  0  0  0  0  0  0  0  0  # atno 17370 bound_to 10713
  156.9105  130.5279  149.5280 LP  0  0  0  0  0  0  0  0  0  0  0  0  # atno 17371 bound_to 10713
  139.9646  134.7395  156.0166 LP  0  0  0  0  0  0  0  0  0  0  0  0  # atno 17394 bound_to 11000
  141.1373  133.6572  156.3629 LP  0  0  0  0  0  0  0  0  0  0  0  0  # atno 17395 bound_to 11000

$$$$
