AV-unprocessed.smi:3086|AV-procd|sdf|11765|dock8
  -GOLD-   2272017143D 1   1.00000     0.00000
 Structure written by MMmdl.
 30 31  0  0  0  0  0  0  0  0  2 V2000
  153.0750  138.1023  154.4369 C   0  0  0  0  0  0  0  0  0  0  0  0
  152.2853  139.1261  155.1785 C   0  0  0  0  0  0  0  0  0  0  0  0
  152.6265  139.5697  156.4224 N   0  0  0  0  0  0  0  0  0  0  0  0
  151.6518  140.4468  156.6361 C   0  0  0  0  0  0  0  0  0  0  0  0
  151.5310  141.2810  157.8700 C   0  0  0  0  0  0  0  0  0  0  0  0
  150.7775  140.5154  155.6204 N   0  0  0  0  0  0  0  0  0  0  0  0
  149.6099  141.3688  155.4254 C   0  0  1  0  0  0  0  0  0  0  0  0
  148.7969  140.9130  154.1988 C   0  0  0  0  0  0  0  0  0  0  0  0
  147.5652  141.8113  154.0077 C   0  0  0  0  0  0  0  0  0  0  0  0
  146.7178  141.8651  155.2900 C   0  0  0  0  0  0  0  0  0  0  0  0
  147.5365  142.3022  156.4419 N   0  3  0  0  0  0  0  0  0  0  0  0
  148.7075  141.4301  156.6796 C   0  0  0  0  0  0  0  0  0  0  0  0
  151.1938  139.6693  154.6460 N   0  0  0  0  0  0  0  0  0  0  0  0
  153.9748  137.8330  154.9909 H   0  0  0  0  0  0  0  0  0  0  0  0
  153.3736  138.4882  153.4618 H   0  0  0  0  0  0  0  0  0  0  0  0
  152.4798  137.2012  154.2871 H   0  0  0  0  0  0  0  0  0  0  0  0
  152.4155  141.1640  158.4971 H   0  0  0  0  0  0  0  0  0  0  0  0
  150.6558  140.9765  158.4441 H   0  0  0  0  0  0  0  0  0  0  0  0
  151.4333  142.3345  157.6068 H   0  0  0  0  0  0  0  0  0  0  0  0
  149.9723  142.3800  155.2361 H   0  0  0  0  0  0  0  0  0  0  0  0
  149.4180  140.9390  153.3024 H   0  0  0  0  0  0  0  0  0  0  0  0
  148.4772  139.8775  154.3257 H   0  0  0  0  0  0  0  0  0  0  0  0
  147.8855  142.8183  153.7367 H   0  0  0  0  0  0  0  0  0  0  0  0
  146.9624  141.4449  153.1763 H   0  0  0  0  0  0  0  0  0  0  0  0
  145.8830  142.5550  155.1635 H   0  0  0  0  0  0  0  0  0  0  0  0
  146.2918  140.8841  155.5040 H   0  0  0  0  0  0  0  0  0  0  0  0
  147.8650  143.2410  156.2659 H   0  0  0  0  0  0  0  0  0  0  0  0
  148.3469  140.4382  156.9558 H   0  0  0  0  0  0  0  0  0  0  0  0
  149.2672  141.8155  157.5324 H   0  0  0  0  0  0  0  0  0  0  0  0
  146.9592  142.3086  157.2710 H   0  0  0  0  0  0  0  0  0  0  0  0
  1  2  1  0  0  0  0
  1 14  1  0  0  0  0
  1 15  1  0  0  0  0
  1 16  1  0  0  0  0
  2 13  2  0  0  0  0
  2  3  1  0  0  0  0
  3  4  2  0  0  0  0
  4  5  1  0  0  0  0
  4  6  1  0  0  0  0
  5 17  1  0  0  0  0
  5 18  1  0  0  0  0
  5 19  1  0  0  0  0
  6  7  1  0  0  0  0
  6 13  1  0  0  0  0
  7 12  1  0  0  0  0
  7  8  1  0  0  0  0
  7 20  1  0  0  0  0
  8  9  1  0  0  0  0
  8 21  1  0  0  0  0
  8 22  1  0  0  0  0
  9 10  1  0  0  0  0
  9 23  1  0  0  0  0
  9 24  1  0  0  0  0
 10 11  1  0  0  0  0
 10 25  1  0  0  0  0
 10 26  1  0  0  0  0
 11 12  1  0  0  0  0
 11 27  1  0  0  0  0
 11 30  1  0  0  0  0
 12 28  1  0  0  0  0
 12 29  1  0  0  0  0
M  CHG  1  11   1
M  END
> <s_m_source_file>
AV-unprocessed.smi

> <i_m_source_file_index>
3086

> <i_lp_mmshare_version>
43012

> <i_f3d_flags>
0

> <s_epik_input>
W0NIM11jMW5jKFtDSDNdKW4objEpW0NAQEhdMltDSDJdW0NIMl1bQ0gyXVtOSF1bQ0gyXTI=

> <s_epik_cmdline>
J2VwaWtfcHl0aG9uJywgJy1waCcsICc3LjAnLCAnLXRuJywgJzgnLCAnLW1hJywgJzIwMCcsICctbWV0YWxfYmluZGluZycsICctaW1hZScsICc8aW5maWxlLm1hZT4nLCAnLW9tYWUnLCAnPG91dGZpbGUubWFlPic=

> <r_lp_tautomer_probability>
1

> <r_epik_Ionization_Penalty>
0.000522417

> <r_epik_Ionization_Penalty_Charging>
0.000474443

> <r_epik_Ionization_Penalty_Neutral>
4.79736e-05

> <r_epik_State_Penalty>
-0

> <r_epik_Charging_Adjusted_Penalty>
0.000474443

> <i_epik_Tot_Q>
1

> <i_epik_Tot_abs_Q>
1

> <r_epik_Metal_State_Penalty>
-0

> <b_epik_Metal_Only>
0

> <s_lp_Force_Field>
OPLS_2005

> <r_lp_Energy>
16.4369

> <b_lp_Chiralities_Consistent>
1

> <s_lp_Variant>
AV-unprocessed.smi:3086-2

> <Gold.Version>
5.8.1

> <Gold.Id.Protein>
6NUR|6NUR_protein|mol2

> <Gold.PLP.Fitness>
37.9464

> <Gold.PLP.PLP>
-27.4566

> <Gold.PLP.part.hbond>
-3.0000

> <Gold.PLP.part.metal>
0.0000

> <Gold.PLP.part.buried>
-1.7351

> <Gold.PLP.part.nonpolar>
-23.4469

> <Gold.PLP.part.repulsive>
0.0903

> <Gold.PLP.ligand.clash>
0.0000

> <Gold.PLP.ligand.torsion>
0.3257

> <Gold.PLP.Chemscore.Hbond>
3.7000

> <Gold.PLP.Chemscore.CHOScore>
0.0000

> <Gold.PLP.Chemscore.Metal>
0.0000

> <Gold.Chemscore.Hbonds>
donor molecule, donor type, donor heavy atom, donor atom, acceptor molecule, acceptor atom, score
      L1  H    11    27       P1  8028  1.70
      P1  H  7989  7998       L1    13  0.90
      P1  H  7997  8010       L1     3  1.00

> <Gold.PLP.Chemscore.Internal.Correction>
0.0412

> <Gold.Rescore>
     Score         DG    S(hbond)    S(metal)    S(lipo)     H(rot)  DE(clash)    DE(int)     intcor
     11.55     -13.16       1.40        0.00      47.56       1.00       1.46       0.15       ----

> <Gold.Chemscore.Fitness>
11.5483

> <Gold.Chemscore.DG>
-13.1579

> <Gold.Chemscore.ZeroCoef>
-5.4800

> <Gold.Chemscore.Hbond>
1.3991

> <Gold.Chemscore.Metal>
0.0000

> <Gold.Chemscore.Lipo>
47.5640

> <Gold.Chemscore.Internal_Hbond>
0.0000

> <Gold.Chemscore.DEClash>
1.4585

> <Gold.Chemscore.DEInternal>
0.1510

> <Gold.Chemscore.Rot>
1.0000

> <Gold.Chemscore.Internal.Correction>
   9.000000E+99

> <Gold.Chemscore.Hbonds>
donor molecule, donor type, donor heavy atom, donor atom, acceptor molecule, acceptor atom, score
      L1  H    11    27       P1  8028  0.15
      P1  H  7989  7998       L1    13  0.13
      P1  H  7997  8010       L1     3  0.73

> <Gold.Chemscore.Hbond.Weighted>
-4.6729

> <Gold.Chemscore.Metal.Weighted>
-0.0000

> <Gold.Chemscore.Lipo.Weighted>
-5.5650

> <Gold.Chemscore.Internal_Hbond.Weighted>
0.0000

> <Gold.Chemscore.DEClash.Weighted>
1.4585

> <Gold.Chemscore.DEInternal.Weighted>
0.1510

> <Gold.Chemscore.Rot.Weighted>
2.5600

> <Gold.Chemscore.Internal.Correction.Weighted>
   9.000000E+99

> <Gold.Protein.RotatedTorsions>
[ 6907 6896 6895 6894 ] final   89.00 input  -60.11 | X-H torsion
[ 7974 7965 7964 7962 ] final   47.12 input  175.53 | X-H torsion
[ 8008 7997 7996 7995 ] final   71.78 input   59.86 | X-H torsion
[ 10167 10162 10161 10158 ] final  108.84 input  -65.29 | X-H torsion
[ 10718 10713 10712 10709 ] final    0.21 input   66.30 | X-H torsion
[ 10763 10752 10751 10750 ] final  159.75 input  -60.55 | X-H torsion
[ 11005 11000 10999 10996 ] final  -20.48 input  -57.11 | X-H torsion

> <Gold.Protein.ActiveResidues>
 VAL166  LYS551  ARG553  GLY616  TRP617  ASP618  TYR619  PRO620  LYS621  CYS622 
 ASP623  PHE694  ASN695  SER759  ASP760  ASP761  ALA762  ILE779  LEU786  VAL792 
 PHE793  MET794  SER795  GLU796  ALA797  LYS798  CYS799  TRP800  GLU811  SER814 

> <Gold.Protein.RotatedAtoms>
  152.5431  134.2035  159.8721 H   0  0  0  0  0  0  0  0  0  0  0  0  # atno 6907 bound_to 6896
  151.2022  133.4597  159.2604 H   0  0  0  0  0  0  0  0  0  0  0  0  # atno 6908 bound_to 6896
  151.0978  134.9967  159.8490 H   0  0  0  0  0  0  0  0  0  0  0  0  # atno 6909 bound_to 6896
  146.0327  139.4783  142.9828 H   0  0  0  0  0  0  0  0  0  0  0  0  # atno 7974 bound_to 7965
  155.7590  140.3487  155.5188 H   0  0  0  0  0  0  0  0  0  0  0  0  # atno 8008 bound_to 7997
  155.8932  140.1021  157.1424 H   0  0  0  0  0  0  0  0  0  0  0  0  # atno 8009 bound_to 7997
  154.4035  140.1300  156.4329 H   0  0  0  0  0  0  0  0  0  0  0  0  # atno 8010 bound_to 7997
  139.6814  144.7118  151.1509 H   0  0  0  0  0  0  0  0  0  0  0  0  # atno 10167 bound_to 10162
  156.8299  130.5485  149.5688 H   0  0  0  0  0  0  0  0  0  0  0  0  # atno 10718 bound_to 10713
  154.2367  135.2776  155.2869 H   0  0  0  0  0  0  0  0  0  0  0  0  # atno 10763 bound_to 10752
  154.5579  135.5656  153.6984 H   0  0  0  0  0  0  0  0  0  0  0  0  # atno 10764 bound_to 10752
  153.0008  135.6290  154.2510 H   0  0  0  0  0  0  0  0  0  0  0  0  # atno 10765 bound_to 10752
  140.8469  133.7885  155.9922 H   0  0  0  0  0  0  0  0  0  0  0  0  # atno 11005 bound_to 11000
  145.7015  141.0134  143.1502 LP  0  0  0  0  0  0  0  0  0  0  0  0  # atno 17320 bound_to 7965
  144.7037  139.8650  143.7436 LP  0  0  0  0  0  0  0  0  0  0  0  0  # atno 17321 bound_to 7965
  140.7653  143.5693  150.9013 LP  0  0  0  0  0  0  0  0  0  0  0  0  # atno 17342 bound_to 10162
  139.9366  143.6431  152.3064 LP  0  0  0  0  0  0  0  0  0  0  0  0  # atno 17343 bound_to 10162
  156.0940  130.5918  150.9781 LP  0  0  0  0  0  0  0  0  0  0  0  0  # atno 17370 bound_to 10713
  157.6412  131.0910  150.8247 LP  0  0  0  0  0  0  0  0  0  0  0  0  # atno 17371 bound_to 10713
  140.8834  134.2584  157.5132 LP  0  0  0  0  0  0  0  0  0  0  0  0  # atno 17394 bound_to 11000
  139.8703  134.9626  156.4434 LP  0  0  0  0  0  0  0  0  0  0  0  0  # atno 17395 bound_to 11000

$$$$
