AV-unprocessed.smi:2354|AV-procd|sdf|9384|dock6
  -GOLD-   2272013 13D 1   1.00000     0.00000
 Structure written by MMmdl.
 44 45  0  0  0  0  0  0  0  0  2 V2000
  148.9776  132.9925  152.7829 C   0  0  0  0  0  0  0  0  0  0  0  0
  148.1355  133.9487  153.5353 N   0  3  0  0  0  0  0  0  0  0  0  0
  148.7594  134.3265  154.8238 C   0  0  0  0  0  0  0  0  0  0  0  0
  146.7272  133.4884  153.6731 C   0  0  0  0  0  0  0  0  0  0  0  0
  145.8102  133.9681  152.5148 C   0  0  0  0  0  0  0  0  0  0  0  0
  145.4671  135.4829  152.6408 C   0  0  0  0  0  0  0  0  0  0  0  0
  146.6445  136.3450  152.7324 N   0  0  0  0  0  0  0  0  0  0  0  0
  146.7192  137.4905  153.4258 C   0  0  0  0  0  0  0  0  0  0  0  0
  145.7759  137.9648  154.0584 O   0  0  0  0  0  0  0  0  0  0  0  0
  147.9388  138.0450  153.3173 N   0  0  0  0  0  0  0  0  0  0  0  0
  148.3925  139.2812  153.8479 C   0  0  0  0  0  0  0  0  0  0  0  0
  147.4909  140.3484  154.0845 C   0  0  0  0  0  0  0  0  0  0  0  0
  147.9996  141.5370  154.6352 C   0  0  0  0  0  0  0  0  0  0  0  0
  149.3741  141.5776  154.9236 C   0  0  0  0  0  0  0  0  0  0  0  0
  150.1927  140.5280  154.6970 N   0  0  0  0  0  0  0  0  0  0  0  0
  149.7024  139.3989  154.1747 N   0  0  0  0  0  0  0  0  0  0  0  0
  146.4635  133.6483  151.1544 C   0  0  0  0  0  0  0  0  0  0  0  0
  145.3207  133.5811  150.1366 C   0  0  0  0  0  0  0  0  0  0  0  0
  144.0665  133.2236  150.9431 C   0  0  0  0  0  0  0  0  0  0  0  0
  144.5146  133.1413  152.4081 C   0  0  0  0  0  0  0  0  0  0  0  0
  149.0563  132.0412  153.3107 H   0  0  0  0  0  0  0  0  0  0  0  0
  149.9829  133.3909  152.6426 H   0  0  0  0  0  0  0  0  0  0  0  0
  148.5581  132.8041  151.7942 H   0  0  0  0  0  0  0  0  0  0  0  0
  148.8416  133.4631  155.4854 H   0  0  0  0  0  0  0  0  0  0  0  0
  148.1822  135.0945  155.3366 H   0  0  0  0  0  0  0  0  0  0  0  0
  149.7613  134.7257  154.6621 H   0  0  0  0  0  0  0  0  0  0  0  0
  146.6985  132.3980  153.7023 H   0  0  0  0  0  0  0  0  0  0  0  0
  146.3283  133.8019  154.6395 H   0  0  0  0  0  0  0  0  0  0  0  0
  144.8257  135.8061  151.8195 H   0  0  0  0  0  0  0  0  0  0  0  0
  144.8756  135.6550  153.5402 H   0  0  0  0  0  0  0  0  0  0  0  0
  147.4722  136.0380  152.2430 H   0  0  0  0  0  0  0  0  0  0  0  0
  148.5827  137.5861  152.6902 H   0  0  0  0  0  0  0  0  0  0  0  0
  146.4358  140.2721  153.8697 H   0  0  0  0  0  0  0  0  0  0  0  0
  147.3592  142.3837  154.8335 H   0  0  0  0  0  0  0  0  0  0  0  0
  149.8241  142.4621  155.3493 H   0  0  0  0  0  0  0  0  0  0  0  0
  147.2404  134.3532  150.8610 H   0  0  0  0  0  0  0  0  0  0  0  0
  146.9398  132.6675  151.1982 H   0  0  0  0  0  0  0  0  0  0  0  0
  145.1886  134.5516  149.6562 H   0  0  0  0  0  0  0  0  0  0  0  0
  145.5260  132.8536  149.3506 H   0  0  0  0  0  0  0  0  0  0  0  0
  143.3116  134.0008  150.8185 H   0  0  0  0  0  0  0  0  0  0  0  0
  143.6232  132.2840  150.6111 H   0  0  0  0  0  0  0  0  0  0  0  0
  144.7228  132.0963  152.6419 H   0  0  0  0  0  0  0  0  0  0  0  0
  143.7369  133.4764  153.0957 H   0  0  0  0  0  0  0  0  0  0  0  0
  148.1032  134.7869  152.9726 H   0  0  0  0  0  0  0  0  0  0  0  0
  1  2  1  0  0  0  0
  1 21  1  0  0  0  0
  1 22  1  0  0  0  0
  1 23  1  0  0  0  0
  2  3  1  0  0  0  0
  2  4  1  0  0  0  0
  2 44  1  0  0  0  0
  3 24  1  0  0  0  0
  3 25  1  0  0  0  0
  3 26  1  0  0  0  0
  4  5  1  0  0  0  0
  4 27  1  0  0  0  0
  4 28  1  0  0  0  0
  5 20  1  0  0  0  0
  5  6  1  0  0  0  0
  5 17  1  0  0  0  0
  6  7  1  0  0  0  0
  6 29  1  0  0  0  0
  6 30  1  0  0  0  0
  7  8  1  0  0  0  0
  7 31  1  0  0  0  0
  8  9  2  0  0  0  0
  8 10  1  0  0  0  0
 10 11  1  0  0  0  0
 10 32  1  0  0  0  0
 11 16  1  0  0  0  0
 11 12  2  0  0  0  0
 12 13  1  0  0  0  0
 12 33  1  0  0  0  0
 13 14  2  0  0  0  0
 13 34  1  0  0  0  0
 14 15  1  0  0  0  0
 14 35  1  0  0  0  0
 15 16  2  0  0  0  0
 17 18  1  0  0  0  0
 17 36  1  0  0  0  0
 17 37  1  0  0  0  0
 18 19  1  0  0  0  0
 18 38  1  0  0  0  0
 18 39  1  0  0  0  0
 19 20  1  0  0  0  0
 19 40  1  0  0  0  0
 19 41  1  0  0  0  0
 20 42  1  0  0  0  0
 20 43  1  0  0  0  0
M  CHG  1   2   1
M  END
> <s_m_source_file>
AV-unprocessed.smi

> <i_m_source_file_index>
2354

> <i_lp_mmshare_version>
43012

> <i_f3d_flags>
0

> <s_epik_input>
W0NIMl0xW0NIMl1bQ0gyXVtDSDJdQzEoW0NIMl1OKFtDSDNdKVtDSDNdKVtDSDJdW05IXUMoPU8pW05IXWMyW2NIXVtjSF1bY0hdbm4y

> <s_epik_cmdline>
J2VwaWtfcHl0aG9uJywgJy1waCcsICc3LjAnLCAnLXRuJywgJzgnLCAnLW1hJywgJzIwMCcsICctbWV0YWxfYmluZGluZycsICctaW1hZScsICc8aW5maWxlLm1hZT4nLCAnLW9tYWUnLCAnPG91dGZpbGUubWFlPic=

> <r_lp_tautomer_probability>
1

> <r_epik_Ionization_Penalty>
0.0045793

> <r_epik_Ionization_Penalty_Charging>
0.000516438

> <r_epik_Ionization_Penalty_Neutral>
0.00406287

> <r_epik_State_Penalty>
-0

> <r_epik_Charging_Adjusted_Penalty>
0.000516438

> <i_epik_Tot_Q>
1

> <i_epik_Tot_abs_Q>
1

> <r_epik_Metal_State_Penalty>
-0

> <b_epik_Metal_Only>
0

> <s_lp_Force_Field>
OPLS_2005

> <r_lp_Energy>
45.7912

> <b_lp_Chiralities_Consistent>
1

> <s_lp_Variant>
AV-unprocessed.smi:2354-1

> <Gold.Version>
5.8.1

> <Gold.Id.Protein>
6NUR|6NUR_protein|mol2

> <Gold.PLP.Fitness>
42.8399

> <Gold.PLP.PLP>
-26.7453

> <Gold.PLP.part.hbond>
-3.8292

> <Gold.PLP.part.metal>
0.0000

> <Gold.PLP.part.buried>
-0.5244

> <Gold.PLP.part.nonpolar>
-23.5062

> <Gold.PLP.part.repulsive>
0.9699

> <Gold.PLP.ligand.clash>
0.0000

> <Gold.PLP.ligand.torsion>
0.9931

> <Gold.PLP.Chemscore.Hbond>
4.8880

> <Gold.PLP.Chemscore.CHOScore>
1.0000

> <Gold.PLP.Chemscore.Metal>
0.0000

> <Gold.Chemscore.Hbonds>
donor molecule, donor type, donor heavy atom, donor atom, acceptor molecule, acceptor atom, score
      L1  H     2    44       P1  7948  2.00
      L1  H     7    31       P1  7948  0.99
      L1  H    10    32       P1  7948  0.98
      P1  H  7989  7998       L1    15  0.93
      L1  C    14    35       P1  8028  0.99

> <Gold.PLP.Chemscore.Internal.Correction>
0.4168

> <Gold.Rescore>
     Score         DG    S(hbond)    S(metal)    S(lipo)     H(rot)  DE(clash)    DE(int)     intcor
     13.44     -18.37       2.93        0.00      65.97       1.81       1.46       3.47       ----

> <Gold.Chemscore.Fitness>
13.4426

> <Gold.Chemscore.DG>
-18.3664

> <Gold.Chemscore.ZeroCoef>
-5.4800

> <Gold.Chemscore.Hbond>
2.9330

> <Gold.Chemscore.Metal>
0.0000

> <Gold.Chemscore.Lipo>
65.9729

> <Gold.Chemscore.Internal_Hbond>
0.0000

> <Gold.Chemscore.DEClash>
1.4553

> <Gold.Chemscore.DEInternal>
3.4685

> <Gold.Chemscore.Rot>
1.8080

> <Gold.Chemscore.Internal.Correction>
   9.000000E+99

> <Gold.Chemscore.Hbonds>
donor molecule, donor type, donor heavy atom, donor atom, acceptor molecule, acceptor atom, score
      L1  H     2    44       P1  7948  0.77
      L1  H     7    31       P1  7948  0.89
      L1  H    10    32       P1  7948  0.92
      P1  H  7989  7998       L1    15  0.24

> <Gold.Chemscore.Hbond.Weighted>
-9.7961

> <Gold.Chemscore.Metal.Weighted>
-0.0000

> <Gold.Chemscore.Lipo.Weighted>
-7.7188

> <Gold.Chemscore.Internal_Hbond.Weighted>
0.0000

> <Gold.Chemscore.DEClash.Weighted>
1.4553

> <Gold.Chemscore.DEInternal.Weighted>
3.4685

> <Gold.Chemscore.Rot.Weighted>
4.6286

> <Gold.Chemscore.Internal.Correction.Weighted>
   9.000000E+99

> <Gold.Protein.RotatedTorsions>
[ 6907 6896 6895 6894 ] final   59.24 input  -60.11 | X-H torsion
[ 7974 7965 7964 7962 ] final   24.50 input  175.53 | X-H torsion
[ 8008 7997 7996 7995 ] final -179.04 input   59.86 | X-H torsion
[ 10167 10162 10161 10158 ] final -159.86 input  -65.29 | X-H torsion
[ 10718 10713 10712 10709 ] final  -20.68 input   66.30 | X-H torsion
[ 10763 10752 10751 10750 ] final  -95.52 input  -60.55 | X-H torsion
[ 11005 11000 10999 10996 ] final   79.47 input  -57.11 | X-H torsion

> <Gold.Protein.ActiveResidues>
 VAL166  LYS551  ARG553  GLY616  TRP617  ASP618  TYR619  PRO620  LYS621  CYS622 
 ASP623  PHE694  ASN695  SER759  ASP760  ASP761  ALA762  ILE779  LEU786  VAL792 
 PHE793  MET794  SER795  GLU796  ALA797  LYS798  CYS799  TRP800  GLU811  SER814 

> <Gold.Protein.RotatedAtoms>
  152.3897  134.6461  160.0112 H   0  0  0  0  0  0  0  0  0  0  0  0  # atno 6907 bound_to 6896
  151.6699  133.3308  159.3202 H   0  0  0  0  0  0  0  0  0  0  0  0  # atno 6908 bound_to 6896
  150.7815  134.6808  159.6487 H   0  0  0  0  0  0  0  0  0  0  0  0  # atno 6909 bound_to 6896
  146.1934  139.7596  142.8815 H   0  0  0  0  0  0  0  0  0  0  0  0  # atno 7974 bound_to 7965
  156.0258  140.1271  157.0310 H   0  0  0  0  0  0  0  0  0  0  0  0  # atno 8008 bound_to 7997
  154.4330  140.1059  156.6099 H   0  0  0  0  0  0  0  0  0  0  0  0  # atno 8009 bound_to 7997
  155.5878  140.3469  155.4560 H   0  0  0  0  0  0  0  0  0  0  0  0  # atno 8010 bound_to 7997
  139.6583  143.9959  152.2208 H   0  0  0  0  0  0  0  0  0  0  0  0  # atno 10167 bound_to 10162
  156.5285  130.4649  149.6559 H   0  0  0  0  0  0  0  0  0  0  0  0  # atno 10718 bound_to 10713
  154.7156  135.5117  153.8732 H   0  0  0  0  0  0  0  0  0  0  0  0  # atno 10763 bound_to 10752
  153.0817  135.6633  154.0040 H   0  0  0  0  0  0  0  0  0  0  0  0  # atno 10764 bound_to 10752
  153.9873  135.3023  155.3394 H   0  0  0  0  0  0  0  0  0  0  0  0  # atno 10765 bound_to 10752
  139.9171  134.7845  156.1783 H   0  0  0  0  0  0  0  0  0  0  0  0  # atno 11005 bound_to 11000
  145.3720  141.0344  143.3226 LP  0  0  0  0  0  0  0  0  0  0  0  0  # atno 17320 bound_to 7965
  144.8532  139.5289  143.6846 LP  0  0  0  0  0  0  0  0  0  0  0  0  # atno 17321 bound_to 7965
  139.9691  144.6506  150.8006 LP  0  0  0  0  0  0  0  0  0  0  0  0  # atno 17342 bound_to 10162
  140.7569  143.3074  151.2927 LP  0  0  0  0  0  0  0  0  0  0  0  0  # atno 17343 bound_to 10162
  156.3082  130.7214  151.2101 LP  0  0  0  0  0  0  0  0  0  0  0  0  # atno 17370 bound_to 10713
  157.7425  131.0488  150.5015 LP  0  0  0  0  0  0  0  0  0  0  0  0  # atno 17371 bound_to 10713
  141.0658  133.6820  156.2042 LP  0  0  0  0  0  0  0  0  0  0  0  0  # atno 17394 bound_to 11000
  140.6587  134.4990  157.5582 LP  0  0  0  0  0  0  0  0  0  0  0  0  # atno 17395 bound_to 11000

$$$$
