AV-unprocessed.smi:3211|AV-procd|sdf|12276|dock5
  -GOLD-   2272018113D 1   1.00000     0.00000
 Structure written by MMmdl.
 34 35  0  0  0  0  0  0  0  0  1 V2000
  153.2100  142.5606  162.6073 C   0  0  0  0  0  0  0  0  0  0  0  0
  153.0231  142.0222  161.1847 C   0  0  0  0  0  0  0  0  0  0  0  0
  152.4540  143.0414  160.2555 C   0  0  0  0  0  0  0  0  0  0  0  0
  152.0926  142.7725  158.9978 N   0  0  0  0  0  0  0  0  0  0  0  0
  151.5633  143.8870  158.3392 C   0  0  0  0  0  0  0  0  0  0  0  0
  151.1227  143.7750  156.9111 C   0  0  0  0  0  0  0  0  0  0  0  0
  151.0398  142.3125  156.4447 C   0  0  0  0  0  0  0  0  0  0  0  0
  149.8838  142.0869  155.5842 N   0  0  0  0  0  0  0  0  0  0  0  0
  149.7144  141.0227  154.7846 C   0  0  0  0  0  0  0  0  0  0  0  0
  150.5429  140.1153  154.7004 O   0  0  0  0  0  0  0  0  0  0  0  0
  148.4266  141.0420  154.0205 C   0  0  2  0  0  0  0  0  0  0  0  0
  147.6322  142.3333  154.0033 C   0  0  0  0  0  0  0  0  0  0  0  0
  147.0960  141.1395  154.7565 C   0  0  2  0  0  0  0  0  0  0  0  0
  146.9511  141.1772  156.2678 C   0  0  0  0  0  0  0  0  0  0  0  0
  151.5134  145.0086  159.1289 C   0  0  0  0  0  0  0  0  0  0  0  0
  152.1306  144.7052  160.7293 S   0  0  0  0  0  0  0  0  0  0  0  0
  153.6231  141.7931  163.2623 H   0  0  0  0  0  0  0  0  0  0  0  0
  152.2600  142.8856  163.0325 H   0  0  0  0  0  0  0  0  0  0  0  0
  153.8915  143.4119  162.6193 H   0  0  0  0  0  0  0  0  0  0  0  0
  153.9801  141.6833  160.7866 H   0  0  0  0  0  0  0  0  0  0  0  0
  152.3659  141.1519  161.1995 H   0  0  0  0  0  0  0  0  0  0  0  0
  150.1505  144.2529  156.7839 H   0  0  0  0  0  0  0  0  0  0  0  0
  151.8119  144.3261  156.2699 H   0  0  0  0  0  0  0  0  0  0  0  0
  151.9560  142.0253  155.9258 H   0  0  0  0  0  0  0  0  0  0  0  0
  150.9532  141.6511  157.3072 H   0  0  0  0  0  0  0  0  0  0  0  0
  149.1578  142.7884  155.6020 H   0  0  0  0  0  0  0  0  0  0  0  0
  148.4129  140.4481  153.1076 H   0  0  0  0  0  0  0  0  0  0  0  0
  147.9970  143.1771  154.5866 H   0  0  0  0  0  0  0  0  0  0  0  0
  147.1487  142.6027  153.0665 H   0  0  0  0  0  0  0  0  0  0  0  0
  146.2869  140.5893  154.2800 H   0  0  0  0  0  0  0  0  0  0  0  0
  147.6240  141.9054  156.7191 H   0  0  0  0  0  0  0  0  0  0  0  0
  147.1609  140.1941  156.6895 H   0  0  0  0  0  0  0  0  0  0  0  0
  145.9317  141.4568  156.5336 H   0  0  0  0  0  0  0  0  0  0  0  0
  151.1511  145.9917  158.8668 H   0  0  0  0  0  0  0  0  0  0  0  0
  1  2  1  0  0  0  0
  1 17  1  0  0  0  0
  1 18  1  0  0  0  0
  1 19  1  0  0  0  0
  2  3  1  0  0  0  0
  2 20  1  0  0  0  0
  2 21  1  0  0  0  0
  3 16  1  0  0  0  0
  3  4  2  0  0  0  0
  4  5  1  0  0  0  0
  5  6  1  0  0  0  0
  5 15  2  0  0  0  0
  6  7  1  0  0  0  0
  6 22  1  0  0  0  0
  6 23  1  0  0  0  0
  7  8  1  0  0  0  0
  7 24  1  0  0  0  0
  7 25  1  0  0  0  0
  8  9  1  0  0  0  0
  8 26  1  0  0  0  0
  9 10  2  0  0  0  0
  9 11  1  0  0  0  0
 11 13  1  0  0  0  0
 11 12  1  0  0  0  0
 11 27  1  0  0  0  0
 12 13  1  0  0  0  0
 12 28  1  0  0  0  0
 12 29  1  0  0  0  0
 13 14  1  0  0  0  0
 13 30  1  0  0  0  0
 14 31  1  0  0  0  0
 14 32  1  0  0  0  0
 14 33  1  0  0  0  0
 15 16  1  0  0  0  0
 15 34  1  0  0  0  0
M  END
> <s_m_source_file>
AV-unprocessed.smi

> <i_m_source_file_index>
3211

> <i_lp_mmshare_version>
43012

> <i_f3d_flags>
0

> <s_epik_input>
W0NIM11bQ0gyXWMxbmMoW2NIXXMxKVtDSDJdW0NIMl1bTkhdQyg9TylbQ0BASF0yW0NIMl1bQ0BIXTJbQ0gzXQ==

> <s_epik_cmdline>
J2VwaWtfcHl0aG9uJywgJy1waCcsICc3LjAnLCAnLXRuJywgJzgnLCAnLW1hJywgJzIwMCcsICctbWV0YWxfYmluZGluZycsICctaW1hZScsICc8aW5maWxlLm1hZT4nLCAnLW9tYWUnLCAnPG91dGZpbGUubWFlPic=

> <r_epik_Ionization_Penalty>
0.00109667

> <r_epik_Ionization_Penalty_Charging>
0

> <r_epik_Ionization_Penalty_Neutral>
0.00109667

> <r_epik_State_Penalty>
0.000719322

> <r_epik_Charging_Adjusted_Penalty>
0.000719322

> <i_epik_Tot_Q>
0

> <i_epik_Tot_abs_Q>
0

> <r_epik_Metal_State_Penalty>
-0

> <b_epik_Metal_Only>
0

> <s_lp_Force_Field>
OPLS_2005

> <r_lp_Energy>
-0.716075

> <b_lp_Chiralities_Consistent>
1

> <s_lp_Variant>
AV-unprocessed.smi:3211-3

> <Gold.Version>
5.8.1

> <Gold.Id.Protein>
6NUR|6NUR_protein|mol2

> <Gold.PLP.Fitness>
44.9880

> <Gold.PLP.PLP>
-40.9011

> <Gold.PLP.part.hbond>
-2.0000

> <Gold.PLP.part.metal>
0.0000

> <Gold.PLP.part.buried>
-1.7338

> <Gold.PLP.part.nonpolar>
-36.4368

> <Gold.PLP.part.repulsive>
0.2291

> <Gold.PLP.ligand.clash>
0.0000

> <Gold.PLP.ligand.torsion>
0.6843

> <Gold.PLP.Chemscore.Hbond>
1.7840

> <Gold.PLP.Chemscore.CHOScore>
0.0000

> <Gold.PLP.Chemscore.Metal>
0.0000

> <Gold.Chemscore.Hbonds>
donor molecule, donor type, donor heavy atom, donor atom, acceptor molecule, acceptor atom, score
      L1  H     8    26       P1  8028  0.85
      P1  H  7989  7998       L1    10  0.90

> <Gold.PLP.Chemscore.Internal.Correction>
0.1035

> <Gold.Rescore>
     Score         DG    S(hbond)    S(metal)    S(lipo)     H(rot)  DE(clash)    DE(int)     intcor
     17.37     -19.67       1.52        0.00     110.98       1.51       1.61       0.68       ----

> <Gold.Chemscore.Fitness>
17.3741

> <Gold.Chemscore.DG>
-19.6650

> <Gold.Chemscore.ZeroCoef>
-5.4800

> <Gold.Chemscore.Hbond>
1.5165

> <Gold.Chemscore.Metal>
0.0000

> <Gold.Chemscore.Lipo>
110.9782

> <Gold.Chemscore.Internal_Hbond>
0.0000

> <Gold.Chemscore.DEClash>
1.6138

> <Gold.Chemscore.DEInternal>
0.6771

> <Gold.Chemscore.Rot>
1.5096

> <Gold.Chemscore.Internal.Correction>
   9.000000E+99

> <Gold.Chemscore.Hbonds>
donor molecule, donor type, donor heavy atom, donor atom, acceptor molecule, acceptor atom, score
      L1  H     8    26       P1  8028  0.82
      P1  H  7989  7998       L1    10  0.18

> <Gold.Chemscore.Hbond.Weighted>
-5.0651

> <Gold.Chemscore.Metal.Weighted>
-0.0000

> <Gold.Chemscore.Lipo.Weighted>
-12.9844

> <Gold.Chemscore.Internal_Hbond.Weighted>
0.0000

> <Gold.Chemscore.DEClash.Weighted>
1.6138

> <Gold.Chemscore.DEInternal.Weighted>
0.6771

> <Gold.Chemscore.Rot.Weighted>
3.8646

> <Gold.Chemscore.Internal.Correction.Weighted>
   9.000000E+99

> <Gold.Protein.RotatedTorsions>
[ 6907 6896 6895 6894 ] final  113.16 input  -60.11 | X-H torsion
[ 7974 7965 7964 7962 ] final  112.11 input  175.53 | X-H torsion
[ 8008 7997 7996 7995 ] final  121.47 input   59.86 | X-H torsion
[ 10167 10162 10161 10158 ] final -168.02 input  -65.29 | X-H torsion
[ 10718 10713 10712 10709 ] final   71.09 input   66.30 | X-H torsion
[ 10763 10752 10751 10750 ] final   34.41 input  -60.55 | X-H torsion
[ 11005 11000 10999 10996 ] final -118.36 input  -57.11 | X-H torsion

> <Gold.Protein.ActiveResidues>
 VAL166  LYS551  ARG553  GLY616  TRP617  ASP618  TYR619  PRO620  LYS621  CYS622 
 ASP623  PHE694  ASN695  SER759  ASP760  ASP761  ALA762  ILE779  LEU786  VAL792 
 PHE793  MET794  SER795  GLU796  ALA797  LYS798  CYS799  TRP800  GLU811  SER814 

> <Gold.Protein.RotatedAtoms>
  152.4876  133.8415  159.7154 H   0  0  0  0  0  0  0  0  0  0  0  0  # atno 6907 bound_to 6896
  150.8977  133.7150  159.2894 H   0  0  0  0  0  0  0  0  0  0  0  0  # atno 6908 bound_to 6896
  151.4602  135.1041  159.9775 H   0  0  0  0  0  0  0  0  0  0  0  0  # atno 6909 bound_to 6896
  145.2337  139.2808  143.4154 H   0  0  0  0  0  0  0  0  0  0  0  0  # atno 7974 bound_to 7965
  156.2687  140.2808  156.1313 H   0  0  0  0  0  0  0  0  0  0  0  0  # atno 8008 bound_to 7997
  155.1051  140.0390  157.2726 H   0  0  0  0  0  0  0  0  0  0  0  0  # atno 8009 bound_to 7997
  154.6785  140.2603  155.6939 H   0  0  0  0  0  0  0  0  0  0  0  0  # atno 8010 bound_to 7997
  139.6012  144.1007  152.1744 H   0  0  0  0  0  0  0  0  0  0  0  0  # atno 10167 bound_to 10162
  157.6434  130.9510  150.0740 H   0  0  0  0  0  0  0  0  0  0  0  0  # atno 10718 bound_to 10713
  153.0165  135.6361  154.1665 H   0  0  0  0  0  0  0  0  0  0  0  0  # atno 10763 bound_to 10752
  154.1404  135.2835  155.3164 H   0  0  0  0  0  0  0  0  0  0  0  0  # atno 10764 bound_to 10752
  154.6129  135.5550  153.7553 H   0  0  0  0  0  0  0  0  0  0  0  0  # atno 10765 bound_to 10752
  141.0291  134.0008  157.3169 H   0  0  0  0  0  0  0  0  0  0  0  0  # atno 11005 bound_to 11000
  146.3346  140.2680  142.8604 LP  0  0  0  0  0  0  0  0  0  0  0  0  # atno 17320 bound_to 7965
  144.9653  140.8315  143.5488 LP  0  0  0  0  0  0  0  0  0  0  0  0  # atno 17321 bound_to 7965
  140.0604  144.5861  150.7267 LP  0  0  0  0  0  0  0  0  0  0  0  0  # atno 17342 bound_to 10162
  140.7251  143.2627  151.4149 LP  0  0  0  0  0  0  0  0  0  0  0  0  # atno 17343 bound_to 10162
  156.1736  130.3647  149.9131 LP  0  0  0  0  0  0  0  0  0  0  0  0  # atno 17370 bound_to 10713
  156.7100  130.8966  151.3608 LP  0  0  0  0  0  0  0  0  0  0  0  0  # atno 17371 bound_to 10713
  139.9196  135.0199  156.8013 LP  0  0  0  0  0  0  0  0  0  0  0  0  # atno 17394 bound_to 11000
  140.6438  133.9794  155.7721 LP  0  0  0  0  0  0  0  0  0  0  0  0  # atno 17395 bound_to 11000

$$$$
