AV-unprocessed.smi:1412|AV-procd|sdf|5744|dock3
  -GOLD-   22720 5383D 1   1.00000     0.00000
 Structure written by MMmdl.
 40 41  0  0  0  0  0  0  0  0  2 V2000
  151.5990  138.3528  154.6822 C   0  0  0  0  0  0  0  0  0  0  0  0
  151.8348  139.3996  155.7864 C   0  0  0  0  0  0  0  0  0  0  0  0
  150.7517  139.4567  156.9103 C   0  0  1  0  0  0  0  0  0  0  0  0
  149.3841  139.6103  156.1912 C   0  0  0  0  0  0  0  0  0  0  0  0
  150.7486  138.0935  157.6761 C   0  0  0  0  0  0  0  0  0  0  0  0
  149.7867  138.0332  158.7778 N   0  0  0  0  0  0  0  0  0  0  0  0
  149.1199  136.9493  159.2011 C   0  0  0  0  0  0  0  0  0  0  0  0
  149.2951  135.8605  158.6497 O   0  0  0  0  0  0  0  0  0  0  0  0
  148.2808  137.1981  160.2320 N   0  5  0  0  0  0  0  0  0  0  0  0
  147.6516  136.1823  160.8455 C   0  0  0  0  0  0  0  0  0  0  0  0
  147.5481  134.9627  160.2939 N   0  0  0  0  0  0  0  0  0  0  0  0
  146.8651  134.0575  161.0949 N   0  0  0  0  0  0  0  0  0  0  0  0
  146.4783  134.6179  162.2406 C   0  0  0  0  0  0  0  0  0  0  0  0
  146.9128  136.3015  162.4451 S   0  0  0  0  0  0  0  0  0  0  0  0
  150.9954  140.6094  157.8239 N   0  0  0  0  0  0  0  0  0  0  0  0
  152.2679  140.5741  158.5540 C   0  0  0  0  0  0  0  0  0  0  0  0
  152.3742  141.7159  159.5794 C   0  0  0  0  0  0  0  0  0  0  0  0
  152.2082  142.9681  158.9249 O   0  0  0  0  0  0  0  0  0  0  0  0
  150.9623  143.0649  158.2447 C   0  0  0  0  0  0  0  0  0  0  0  0
  150.8475  141.9341  157.2088 C   0  0  0  0  0  0  0  0  0  0  0  0
  152.3991  138.3947  153.9433 H   0  0  0  0  0  0  0  0  0  0  0  0
  150.6609  138.5223  154.1540 H   0  0  0  0  0  0  0  0  0  0  0  0
  151.5812  137.3397  155.0828 H   0  0  0  0  0  0  0  0  0  0  0  0
  152.8119  139.1898  156.2223 H   0  0  0  0  0  0  0  0  0  0  0  0
  151.9498  140.3796  155.3233 H   0  0  0  0  0  0  0  0  0  0  0  0
  149.2816  138.9193  155.3537 H   0  0  0  0  0  0  0  0  0  0  0  0
  149.2474  140.6167  155.7949 H   0  0  0  0  0  0  0  0  0  0  0  0
  148.5468  139.4072  156.8591 H   0  0  0  0  0  0  0  0  0  0  0  0
  150.5789  137.2610  156.9930 H   0  0  0  0  0  0  0  0  0  0  0  0
  151.7231  137.9079  158.1255 H   0  0  0  0  0  0  0  0  0  0  0  0
  149.6037  138.8996  159.2624 H   0  0  0  0  0  0  0  0  0  0  0  0
  145.9359  134.0359  162.9705 H   0  0  0  0  0  0  0  0  0  0  0  0
  152.3837  139.6342  159.0911 H   0  0  0  0  0  0  0  0  0  0  0  0
  153.1052  140.6487  157.8605 H   0  0  0  0  0  0  0  0  0  0  0  0
  151.6213  141.6040  160.3613 H   0  0  0  0  0  0  0  0  0  0  0  0
  153.3483  141.6964  160.0680 H   0  0  0  0  0  0  0  0  0  0  0  0
  150.1417  143.0151  158.9621 H   0  0  0  0  0  0  0  0  0  0  0  0
  150.9000  144.0358  157.7532 H   0  0  0  0  0  0  0  0  0  0  0  0
  151.6108  142.0840  156.4453 H   0  0  0  0  0  0  0  0  0  0  0  0
  149.8832  142.0310  156.7138 H   0  0  0  0  0  0  0  0  0  0  0  0
  1  2  1  0  0  0  0
  1 21  1  0  0  0  0
  1 22  1  0  0  0  0
  1 23  1  0  0  0  0
  2  3  1  0  0  0  0
  2 24  1  0  0  0  0
  2 25  1  0  0  0  0
  3  4  1  0  0  0  0
  3  5  1  0  0  0  0
  3 15  1  0  0  0  0
  4 26  1  0  0  0  0
  4 27  1  0  0  0  0
  4 28  1  0  0  0  0
  5  6  1  0  0  0  0
  5 29  1  0  0  0  0
  5 30  1  0  0  0  0
  6  7  1  0  0  0  0
  6 31  1  0  0  0  0
  7  8  2  0  0  0  0
  7  9  1  0  0  0  0
  9 10  1  0  0  0  0
 10 14  1  0  0  0  0
 10 11  2  0  0  0  0
 11 12  1  0  0  0  0
 12 13  2  0  0  0  0
 13 14  1  0  0  0  0
 13 32  1  0  0  0  0
 15 20  1  0  0  0  0
 15 16  1  0  0  0  0
 16 17  1  0  0  0  0
 16 33  1  0  0  0  0
 16 34  1  0  0  0  0
 17 18  1  0  0  0  0
 17 35  1  0  0  0  0
 17 36  1  0  0  0  0
 18 19  1  0  0  0  0
 19 20  1  0  0  0  0
 19 37  1  0  0  0  0
 19 38  1  0  0  0  0
 20 39  1  0  0  0  0
 20 40  1  0  0  0  0
M  CHG  1   9  -1
M  END
> <s_m_source_file>
AV-unprocessed.smi

> <i_m_source_file_index>
1412

> <i_lp_mmshare_version>
43012

> <i_f3d_flags>
0

> <s_epik_input>
W0NIMl0xW0NIMl1PW0NIMl1bQ0gyXU4xW0NAQF0oW0NIM10pKFtDSDJdW0NIM10pW0NIMl1bTkhdQyg9TylbTkhdYzJubltjSF1zMg==

> <s_epik_cmdline>
J2VwaWtfcHl0aG9uJywgJy1waCcsICc3LjAnLCAnLXRuJywgJzgnLCAnLW1hJywgJzIwMCcsICctbWV0YWxfYmluZGluZycsICctaW1hZScsICc8aW5maWxlLm1hZT4nLCAnLW9tYWUnLCAnPG91dGZpbGUubWFlPic=

> <r_lp_tautomer_probability>
1

> <r_epik_Ionization_Penalty>
4.84662

> <r_epik_Ionization_Penalty_Charging>
4.3852

> <r_epik_Ionization_Penalty_Neutral>
0.461421

> <r_epik_State_Penalty>
4.67356

> <r_epik_Charging_Adjusted_Penalty>
9.05877

> <i_epik_Tot_Q>
-1

> <i_epik_Tot_abs_Q>
1

> <r_epik_Metal_State_Penalty>
1.08474

> <b_epik_Metal_Only>
1

> <s_lp_Force_Field>
OPLS_2005

> <r_lp_Energy>
39.8978

> <b_lp_Chiralities_Consistent>
1

> <s_lp_Variant>
AV-unprocessed.smi:1412-5

> <Gold.Version>
5.8.1

> <Gold.Id.Protein>
6NUR|6NUR_protein|mol2

> <Gold.PLP.Fitness>
42.9748

> <Gold.PLP.PLP>
-35.3158

> <Gold.PLP.part.hbond>
-3.0000

> <Gold.PLP.part.metal>
0.0000

> <Gold.PLP.part.buried>
-6.5810

> <Gold.PLP.part.nonpolar>
-27.3653

> <Gold.PLP.part.repulsive>
0.2166

> <Gold.PLP.ligand.clash>
0.0000

> <Gold.PLP.ligand.torsion>
0.3428

> <Gold.PLP.Chemscore.Hbond>
2.7340

> <Gold.PLP.Chemscore.CHOScore>
0.0000

> <Gold.PLP.Chemscore.Metal>
0.0000

> <Gold.Chemscore.Hbonds>
donor molecule, donor type, donor heavy atom, donor atom, acceptor molecule, acceptor atom, score
      P1  H  6896  6908       L1     8  0.83
      P1  H  6931  6943       L1     9  1.07
      P1  H  6934  6947       L1     9  0.63

> <Gold.PLP.Chemscore.Internal.Correction>
0.1424

> <Gold.Rescore>
     Score         DG    S(hbond)    S(metal)    S(lipo)     H(rot)  DE(clash)    DE(int)     intcor
     13.11     -15.07       1.72        0.00      72.89       1.82       0.01       1.95       ----

> <Gold.Chemscore.Fitness>
13.1078

> <Gold.Chemscore.DG>
-15.0711

> <Gold.Chemscore.ZeroCoef>
-5.4800

> <Gold.Chemscore.Hbond>
1.7164

> <Gold.Chemscore.Metal>
0.0000

> <Gold.Chemscore.Lipo>
72.8945

> <Gold.Chemscore.Internal_Hbond>
0.0000

> <Gold.Chemscore.DEClash>
0.0106

> <Gold.Chemscore.DEInternal>
1.9527

> <Gold.Chemscore.Rot>
1.8243

> <Gold.Chemscore.Internal.Correction>
   9.000000E+99

> <Gold.Chemscore.Hbonds>
donor molecule, donor type, donor heavy atom, donor atom, acceptor molecule, acceptor atom, score
      P1  H  6896  6908       L1     8  0.77
      P1  H  6931  6943       L1     9  0.15
      P1  H  6934  6947       L1     9  0.15

> <Gold.Chemscore.Hbond.Weighted>
-5.7327

> <Gold.Chemscore.Metal.Weighted>
-0.0000

> <Gold.Chemscore.Lipo.Weighted>
-8.5287

> <Gold.Chemscore.Internal_Hbond.Weighted>
0.0000

> <Gold.Chemscore.DEClash.Weighted>
0.0106

> <Gold.Chemscore.DEInternal.Weighted>
1.9527

> <Gold.Chemscore.Rot.Weighted>
4.6702

> <Gold.Chemscore.Internal.Correction.Weighted>
   9.000000E+99

> <Gold.Protein.RotatedTorsions>
[ 6907 6896 6895 6894 ] final  164.93 input  -60.11 | X-H torsion
[ 7974 7965 7964 7962 ] final -179.83 input  175.53 | X-H torsion
[ 8008 7997 7996 7995 ] final  -60.94 input   59.86 | X-H torsion
[ 10167 10162 10161 10158 ] final -119.41 input  -65.29 | X-H torsion
[ 10718 10713 10712 10709 ] final  -25.67 input   66.30 | X-H torsion
[ 10763 10752 10751 10750 ] final  139.03 input  -60.55 | X-H torsion
[ 11005 11000 10999 10996 ] final   43.95 input  -57.11 | X-H torsion

> <Gold.Protein.ActiveResidues>
 VAL166  LYS551  ARG553  GLY616  TRP617  ASP618  TYR619  PRO620  LYS621  CYS622 
 ASP623  PHE694  ASN695  SER759  ASP760  ASP761  ALA762  ILE779  LEU786  VAL792 
 PHE793  MET794  SER795  GLU796  ALA797  LYS798  CYS799  TRP800  GLU811  SER814 

> <Gold.Protein.RotatedAtoms>
  151.9022  133.3541  159.3834 H   0  0  0  0  0  0  0  0  0  0  0  0  # atno 6907 bound_to 6896
  150.7077  134.4816  159.5482 H   0  0  0  0  0  0  0  0  0  0  0  0  # atno 6908 bound_to 6896
  152.2407  134.8232  160.0511 H   0  0  0  0  0  0  0  0  0  0  0  0  # atno 6909 bound_to 6896
  144.7139  140.0659  143.6431 H   0  0  0  0  0  0  0  0  0  0  0  0  # atno 7974 bound_to 7965
  154.4423  140.1028  156.6352 H   0  0  0  0  0  0  0  0  0  0  0  0  # atno 8008 bound_to 7997
  155.5561  140.3486  155.4461 H   0  0  0  0  0  0  0  0  0  0  0  0  # atno 8009 bound_to 7997
  156.0494  140.1300  157.0057 H   0  0  0  0  0  0  0  0  0  0  0  0  # atno 8010 bound_to 7997
  140.0470  143.5098  152.2101 H   0  0  0  0  0  0  0  0  0  0  0  0  # atno 10167 bound_to 10162
  156.4614  130.4504  149.6927 H   0  0  0  0  0  0  0  0  0  0  0  0  # atno 10718 bound_to 10713
  153.8993  135.3024  155.3448 H   0  0  0  0  0  0  0  0  0  0  0  0  # atno 10763 bound_to 10752
  154.7678  135.4901  153.9592 H   0  0  0  0  0  0  0  0  0  0  0  0  # atno 10764 bound_to 10752
  153.1254  135.6792  153.9366 H   0  0  0  0  0  0  0  0  0  0  0  0  # atno 10765 bound_to 10752
  140.1597  134.4357  155.8326 H   0  0  0  0  0  0  0  0  0  0  0  0  # atno 11005 bound_to 11000
  145.9825  139.2952  143.1033 LP  0  0  0  0  0  0  0  0  0  0  0  0  # atno 17320 bound_to 7965
  145.8995  140.9252  143.0510 LP  0  0  0  0  0  0  0  0  0  0  0  0  # atno 17321 bound_to 7965
  139.5977  144.7572  151.3245 LP  0  0  0  0  0  0  0  0  0  0  0  0  # atno 17342 bound_to 10162
  140.7234  143.7071  150.7799 LP  0  0  0  0  0  0  0  0  0  0  0  0  # atno 17343 bound_to 10162
  156.3713  130.7532  151.2515 LP  0  0  0  0  0  0  0  0  0  0  0  0  # atno 17370 bound_to 10713
  157.7497  131.0322  150.4217 LP  0  0  0  0  0  0  0  0  0  0  0  0  # atno 17371 bound_to 10713
  141.2208  133.6908  156.7571 LP  0  0  0  0  0  0  0  0  0  0  0  0  # atno 17394 bound_to 11000
  140.2505  134.8544  157.3662 LP  0  0  0  0  0  0  0  0  0  0  0  0  # atno 17395 bound_to 11000

$$$$
