AV-unprocessed.smi:2079|AV-procd|sdf|8483|dock2
  -GOLD-   2272011183D 1   1.00000     0.00000
 Structure written by MMmdl.
 41 42  0  0  0  0  0  0  0  0  3 V2000
  149.1212  140.8239  156.4309 C   0  0  0  0  0  0  0  0  0  0  0  0
  149.2856  139.3926  156.0480 C   0  0  0  0  0  0  0  0  0  0  0  0
  148.4322  138.4752  155.5032 C   0  0  0  0  0  0  0  0  0  0  0  0
  149.2378  137.3103  155.3968 C   0  0  0  0  0  0  0  0  0  0  0  0
  148.7032  136.1061  154.8681 N   0  0  0  0  0  0  0  0  0  0  0  0
  148.8887  134.8442  155.2953 C   0  0  0  0  0  0  0  0  0  0  0  0
  149.6388  134.6101  156.2504 O   0  0  0  0  0  0  0  0  0  0  0  0
  148.1630  133.9434  154.5767 N   0  5  0  0  0  0  0  0  0  0  0  0
  148.5985  133.3137  153.3274 C   0  0  0  0  0  0  0  0  0  0  0  0
  148.0538  131.8719  153.2151 C   0  0  0  0  0  0  0  0  0  0  0  0
  147.2466  131.6632  151.9754 N   0  3  2  0  0  0  0  0  0  0  0  0
  146.4110  132.8606  151.6674 C   0  0  0  0  0  0  0  0  0  0  0  0
  145.6914  132.7343  150.3201 C   0  0  0  0  0  0  0  0  0  0  0  0
  144.8113  131.4856  150.3125 C   0  0  0  0  0  0  0  0  0  0  0  0
  145.6784  130.2596  150.6072 C   0  0  0  0  0  0  0  0  0  0  0  0
  146.4596  130.3863  151.9359 C   0  0  1  0  0  0  0  0  0  0  0  0
  147.3411  129.1260  152.0823 C   0  0  0  0  0  0  0  0  0  0  0  0
  150.4712  137.4989  155.8425 N   0  0  0  0  0  0  0  0  0  0  0  0
  150.5086  138.8346  156.2598 O   0  0  0  0  0  0  0  0  0  0  0  0
  148.2742  140.9476  157.1057 H   0  0  0  0  0  0  0  0  0  0  0  0
  148.9445  141.4403  155.5494 H   0  0  0  0  0  0  0  0  0  0  0  0
  150.0113  141.2021  156.9343 H   0  0  0  0  0  0  0  0  0  0  0  0
  147.3990  138.6170  155.2235 H   0  0  0  0  0  0  0  0  0  0  0  0
  148.0960  136.2133  154.0691 H   0  0  0  0  0  0  0  0  0  0  0  0
  148.2416  133.8813  152.4683 H   0  0  0  0  0  0  0  0  0  0  0  0
  149.6843  133.2958  153.2259 H   0  0  0  0  0  0  0  0  0  0  0  0
  148.8820  131.1715  153.2944 H   0  0  0  0  0  0  0  0  0  0  0  0
  147.4409  131.6549  154.0912 H   0  0  0  0  0  0  0  0  0  0  0  0
  145.6790  133.0065  152.4635 H   0  0  0  0  0  0  0  0  0  0  0  0
  147.0366  133.7539  151.6492 H   0  0  0  0  0  0  0  0  0  0  0  0
  145.0835  133.6209  150.1368 H   0  0  0  0  0  0  0  0  0  0  0  0
  146.4224  132.6833  149.5117 H   0  0  0  0  0  0  0  0  0  0  0  0
  144.0234  131.5760  151.0613 H   0  0  0  0  0  0  0  0  0  0  0  0
  144.3184  131.3763  149.3460 H   0  0  0  0  0  0  0  0  0  0  0  0
  145.0477  129.3700  150.6284 H   0  0  0  0  0  0  0  0  0  0  0  0
  146.3801  130.1163  149.7838 H   0  0  0  0  0  0  0  0  0  0  0  0
  145.7442  130.4099  152.7595 H   0  0  0  0  0  0  0  0  0  0  0  0
  146.7414  128.2224  151.9702 H   0  0  0  0  0  0  0  0  0  0  0  0
  147.8291  129.0463  153.0517 H   0  0  0  0  0  0  0  0  0  0  0  0
  148.1161  129.0941  151.3161 H   0  0  0  0  0  0  0  0  0  0  0  0
  147.9254  131.5863  151.2300 H   0  0  0  0  0  0  0  0  0  0  0  0
  1  2  1  0  0  0  0
  1 20  1  0  0  0  0
  1 21  1  0  0  0  0
  1 22  1  0  0  0  0
  2 19  1  0  0  0  0
  2  3  2  0  0  0  0
  3  4  1  0  0  0  0
  3 23  1  0  0  0  0
  4  5  1  0  0  0  0
  4 18  2  0  0  0  0
  5  6  1  0  0  0  0
  5 24  1  0  0  0  0
  6  7  2  0  0  0  0
  6  8  1  0  0  0  0
  8  9  1  0  0  0  0
  9 10  1  0  0  0  0
  9 25  1  0  0  0  0
  9 26  1  0  0  0  0
 10 11  1  0  0  0  0
 10 27  1  0  0  0  0
 10 28  1  0  0  0  0
 11 16  1  0  0  0  0
 11 12  1  0  0  0  0
 11 41  1  0  0  0  0
 12 13  1  0  0  0  0
 12 29  1  0  0  0  0
 12 30  1  0  0  0  0
 13 14  1  0  0  0  0
 13 31  1  0  0  0  0
 13 32  1  0  0  0  0
 14 15  1  0  0  0  0
 14 33  1  0  0  0  0
 14 34  1  0  0  0  0
 15 16  1  0  0  0  0
 15 35  1  0  0  0  0
 15 36  1  0  0  0  0
 16 17  1  0  0  0  0
 16 37  1  0  0  0  0
 17 38  1  0  0  0  0
 17 39  1  0  0  0  0
 17 40  1  0  0  0  0
 18 19  1  0  0  0  0
M  CHG  1   8  -1
M  CHG  1  11   1
M  END
> <s_m_source_file>
AV-unprocessed.smi

> <i_m_source_file_index>
2079

> <i_lp_mmshare_version>
43012

> <i_f3d_flags>
0

> <s_epik_input>
W0NIM11jMVtjSF1jKG5vMSlbTkhdQyg9TylbTkhdW0NIMl1bQ0gyXU4yW0NIMl1bQ0gyXVtDSDJdW0NIMl1bQ0BIXTJbQ0gzXQ==

> <s_epik_cmdline>
J2VwaWtfcHl0aG9uJywgJy1waCcsICc3LjAnLCAnLXRuJywgJzgnLCAnLW1hJywgJzIwMCcsICctbWV0YWxfYmluZGluZycsICctaW1hZScsICc8aW5maWxlLm1hZT4nLCAnLW9tYWUnLCAnPG91dGZpbGUubWFlPic=

> <r_epik_Ionization_Penalty>
6.7666

> <r_epik_Ionization_Penalty_Charging>
6.7666

> <r_epik_Ionization_Penalty_Neutral>
5.77131e-06

> <r_epik_State_Penalty>
6.79217

> <r_epik_Charging_Adjusted_Penalty>
13.5588

> <i_epik_Tot_Q>
0

> <i_epik_Tot_abs_Q>
2

> <r_epik_Metal_State_Penalty>
2.72569

> <b_epik_Metal_Only>
1

> <s_lp_Force_Field>
OPLS_2005

> <r_lp_Energy>
12.5834

> <b_lp_Chiralities_Consistent>
1

> <s_lp_Variant>
AV-unprocessed.smi:2079-9

> <Gold.Version>
5.8.1

> <Gold.Id.Protein>
6NUR|6NUR_protein|mol2

> <Gold.PLP.Fitness>
40.4755

> <Gold.PLP.PLP>
-35.4513

> <Gold.PLP.part.hbond>
-3.2105

> <Gold.PLP.part.metal>
0.0000

> <Gold.PLP.part.buried>
-4.7745

> <Gold.PLP.part.nonpolar>
-27.9594

> <Gold.PLP.part.repulsive>
0.3131

> <Gold.PLP.ligand.clash>
0.0000

> <Gold.PLP.ligand.torsion>
1.7654

> <Gold.PLP.Chemscore.Hbond>
2.8080

> <Gold.PLP.Chemscore.CHOScore>
0.0000

> <Gold.PLP.Chemscore.Metal>
0.0000

> <Gold.Chemscore.Hbonds>
donor molecule, donor type, donor heavy atom, donor atom, acceptor molecule, acceptor atom, score
      L1  H     5    24       P1  7948  0.07
      L1  H    11    41       P1 10747  1.00

> <Gold.PLP.Chemscore.Internal.Correction>
0.1310

> <Gold.Rescore>
     Score         DG    S(hbond)    S(metal)    S(lipo)     H(rot)  DE(clash)    DE(int)     intcor
     17.48     -20.56       2.67        0.00      86.40       1.54       1.39       1.69       ----

> <Gold.Chemscore.Fitness>
17.4771

> <Gold.Chemscore.DG>
-20.5571

> <Gold.Chemscore.ZeroCoef>
-5.4800

> <Gold.Chemscore.Hbond>
2.6685

> <Gold.Chemscore.Metal>
0.0000

> <Gold.Chemscore.Lipo>
86.4001

> <Gold.Chemscore.Internal_Hbond>
0.0000

> <Gold.Chemscore.DEClash>
1.3856

> <Gold.Chemscore.DEInternal>
1.6944

> <Gold.Chemscore.Rot>
1.5409

> <Gold.Chemscore.Internal.Correction>
   9.000000E+99

> <Gold.Chemscore.Hbonds>
donor molecule, donor type, donor heavy atom, donor atom, acceptor molecule, acceptor atom, score
      L1  H     5    24       P1  7948  0.07
      L1  H    11    41       P1 10747  0.97

> <Gold.Chemscore.Hbond.Weighted>
-8.9129

> <Gold.Chemscore.Metal.Weighted>
-0.0000

> <Gold.Chemscore.Lipo.Weighted>
-10.1088

> <Gold.Chemscore.Internal_Hbond.Weighted>
0.0000

> <Gold.Chemscore.DEClash.Weighted>
1.3856

> <Gold.Chemscore.DEInternal.Weighted>
1.6944

> <Gold.Chemscore.Rot.Weighted>
3.9446

> <Gold.Chemscore.Internal.Correction.Weighted>
   9.000000E+99

> <Gold.Protein.RotatedTorsions>
[ 6907 6896 6895 6894 ] final   53.75 input  -60.11 | X-H torsion
[ 7974 7965 7964 7962 ] final  -99.55 input  175.53 | X-H torsion
[ 8008 7997 7996 7995 ] final   64.34 input   59.86 | X-H torsion
[ 10167 10162 10161 10158 ] final  -95.52 input  -65.29 | X-H torsion
[ 10718 10713 10712 10709 ] final   22.30 input   66.30 | X-H torsion
[ 10763 10752 10751 10750 ] final  -64.91 input  -60.55 | X-H torsion
[ 11005 11000 10999 10996 ] final -166.99 input  -57.11 | X-H torsion

> <Gold.Protein.ActiveResidues>
 VAL166  LYS551  ARG553  GLY616  TRP617  ASP618  TYR619  PRO620  LYS621  CYS622 
 ASP623  PHE694  ASN695  SER759  ASP760  ASP761  ALA762  ILE779  LEU786  VAL792 
 PHE793  MET794  SER795  GLU796  ALA797  LYS798  CYS799  TRP800  GLU811  SER814 

> <Gold.Protein.RotatedAtoms>
  152.3369  134.7186  160.0274 H   0  0  0  0  0  0  0  0  0  0  0  0  # atno 6907 bound_to 6896
  151.7584  133.3326  159.3419 H   0  0  0  0  0  0  0  0  0  0  0  0  # atno 6908 bound_to 6896
  150.7456  134.6061  159.6106 H   0  0  0  0  0  0  0  0  0  0  0  0  # atno 6909 bound_to 6896
  145.3061  140.9389  143.2796 H   0  0  0  0  0  0  0  0  0  0  0  0  # atno 7974 bound_to 7965
  155.6446  140.3497  155.4726 H   0  0  0  0  0  0  0  0  0  0  0  0  # atno 8008 bound_to 7997
  155.9898  140.1191  157.0672 H   0  0  0  0  0  0  0  0  0  0  0  0  # atno 8009 bound_to 7997
  154.4216  140.1121  156.5536 H   0  0  0  0  0  0  0  0  0  0  0  0  # atno 8010 bound_to 7997
  140.3033  143.3149  152.0225 H   0  0  0  0  0  0  0  0  0  0  0  0  # atno 10167 bound_to 10162
  157.1504  130.6672  149.6010 H   0  0  0  0  0  0  0  0  0  0  0  0  # atno 10718 bound_to 10713
  154.3372  135.6164  153.5579 H   0  0  0  0  0  0  0  0  0  0  0  0  # atno 10763 bound_to 10752
  152.9807  135.5761  154.4894 H   0  0  0  0  0  0  0  0  0  0  0  0  # atno 10764 bound_to 10752
  154.4592  135.2855  155.1702 H   0  0  0  0  0  0  0  0  0  0  0  0  # atno 10765 bound_to 10752
  140.5583  134.5359  157.5138 H   0  0  0  0  0  0  0  0  0  0  0  0  # atno 11005 bound_to 11000
  144.9054  139.4596  143.6612 LP  0  0  0  0  0  0  0  0  0  0  0  0  # atno 17320 bound_to 7965
  146.3135  139.7831  142.9002 LP  0  0  0  0  0  0  0  0  0  0  0  0  # atno 17321 bound_to 7965
  139.4910  144.6439  151.6819 LP  0  0  0  0  0  0  0  0  0  0  0  0  # atno 17342 bound_to 10162
  140.5632  144.0234  150.6179 LP  0  0  0  0  0  0  0  0  0  0  0  0  # atno 17343 bound_to 10162
  155.9771  130.4746  150.6575 LP  0  0  0  0  0  0  0  0  0  0  0  0  # atno 17370 bound_to 10713
  157.4225  131.0838  151.1117 LP  0  0  0  0  0  0  0  0  0  0  0  0  # atno 17371 bound_to 10713
  139.9420  134.7769  156.0654 LP  0  0  0  0  0  0  0  0  0  0  0  0  # atno 17394 bound_to 11000
  141.1130  133.6637  156.3025 LP  0  0  0  0  0  0  0  0  0  0  0  0  # atno 17395 bound_to 11000

$$$$
