AV-unprocessed.smi:1046|AV-procd|sdf|4555|dock2
  -GOLD-   22720 2593D 1   1.00000     0.00000
 Structure written by MMmdl.
 54 56  0  0  0  0  0  0  0  0  3 V2000
  153.0951  141.2916  159.2583 C   0  0  0  0  0  0  0  0  0  0  0  0
  152.0189  141.3432  158.1881 C   0  0  0  0  0  0  0  0  0  0  0  0
  152.0282  140.3764  157.1576 C   0  0  0  0  0  0  0  0  0  0  0  0
  151.0491  140.3927  156.1405 C   0  0  0  0  0  0  0  0  0  0  0  0
  150.8708  139.5580  155.0507 N   0  0  0  0  0  0  0  0  0  0  0  0
  149.7948  140.0890  154.4784 C   0  0  0  0  0  0  0  0  0  0  0  0
  149.2431  141.1613  155.0793 N   0  0  0  0  0  0  0  0  0  0  0  0
  148.0675  141.8972  154.6514 C   0  0  0  0  0  0  0  0  0  0  0  0
  146.9186  140.9702  154.2063 C   0  0  1  0  0  0  0  0  0  0  0  0
  145.7151  141.7065  154.2805 O   0  0  0  0  0  0  0  0  0  0  0  0
  147.0852  140.4330  152.7671 C   0  0  0  0  0  0  0  0  0  0  0  0
  146.3691  139.1504  152.5457 N   0  3  2  0  0  0  0  0  0  0  0  0
  146.5577  138.1675  153.6433 C   0  0  0  0  0  0  0  0  0  0  0  0
  145.7292  136.8944  153.3957 C   0  0  0  0  0  0  0  0  0  0  0  0
  146.0533  136.2877  152.0812 N   0  3  1  0  0  0  0  0  0  0  0  0
  145.3370  135.0049  151.8596 C   0  0  0  0  0  0  0  0  0  0  0  0
  143.8188  135.1931  151.6954 C   0  0  0  0  0  0  0  0  0  0  0  0
  143.2142  133.9645  151.3507 O   0  0  0  0  0  0  0  0  0  0  0  0
  145.8678  137.2701  150.9829 C   0  0  0  0  0  0  0  0  0  0  0  0
  146.6949  138.5442  151.2315 C   0  0  0  0  0  0  0  0  0  0  0  0
  150.0497  141.4082  156.1850 C   0  0  0  0  0  0  0  0  0  0  0  0
  150.0293  142.3754  157.2055 C   0  0  0  0  0  0  0  0  0  0  0  0
  151.0165  142.3460  158.2126 C   0  0  0  0  0  0  0  0  0  0  0  0
  150.9893  143.3975  159.3079 C   0  0  0  0  0  0  0  0  0  0  0  0
  153.8062  140.4868  159.0699 H   0  0  0  0  0  0  0  0  0  0  0  0
  152.6501  141.1224  160.2391 H   0  0  0  0  0  0  0  0  0  0  0  0
  153.6521  142.2283  159.2866 H   0  0  0  0  0  0  0  0  0  0  0  0
  152.7927  139.6135  157.1383 H   0  0  0  0  0  0  0  0  0  0  0  0
  149.3774  139.6676  153.5755 H   0  0  0  0  0  0  0  0  0  0  0  0
  147.7460  142.5335  155.4771 H   0  0  0  0  0  0  0  0  0  0  0  0
  148.3545  142.5637  153.8365 H   0  0  0  0  0  0  0  0  0  0  0  0
  146.8505  140.1458  154.9147 H   0  0  0  0  0  0  0  0  0  0  0  0
  145.0653  141.2782  153.7429 H   0  0  0  0  0  0  0  0  0  0  0  0
  146.7086  141.1882  152.0753 H   0  0  0  0  0  0  0  0  0  0  0  0
  148.1376  140.2920  152.5177 H   0  0  0  0  0  0  0  0  0  0  0  0
  147.6155  137.9128  153.7270 H   0  0  0  0  0  0  0  0  0  0  0  0
  146.2622  138.5993  154.5986 H   0  0  0  0  0  0  0  0  0  0  0  0
  145.9284  136.1763  154.1921 H   0  0  0  0  0  0  0  0  0  0  0  0
  144.6636  137.1265  153.4368 H   0  0  0  0  0  0  0  0  0  0  0  0
  145.7193  134.5208  150.9593 H   0  0  0  0  0  0  0  0  0  0  0  0
  145.5474  134.3223  152.6842 H   0  0  0  0  0  0  0  0  0  0  0  0
  143.3868  135.5334  152.6368 H   0  0  0  0  0  0  0  0  0  0  0  0
  143.5742  135.9473  150.9482 H   0  0  0  0  0  0  0  0  0  0  0  0
  142.6761  134.0969  150.5838 H   0  0  0  0  0  0  0  0  0  0  0  0
  146.1659  136.8356  150.0294 H   0  0  0  0  0  0  0  0  0  0  0  0
  144.8101  137.5249  150.8966 H   0  0  0  0  0  0  0  0  0  0  0  0
  146.4962  139.2620  150.4346 H   0  0  0  0  0  0  0  0  0  0  0  0
  147.7609  138.3132  151.1923 H   0  0  0  0  0  0  0  0  0  0  0  0
  149.2636  143.1368  157.2109 H   0  0  0  0  0  0  0  0  0  0  0  0
  150.1329  144.0636  159.1992 H   0  0  0  0  0  0  0  0  0  0  0  0
  151.8930  144.0065  159.2741 H   0  0  0  0  0  0  0  0  0  0  0  0
  150.9248  142.9275  160.2895 H   0  0  0  0  0  0  0  0  0  0  0  0
  145.3858  139.3824  152.5162 H   0  0  0  0  0  0  0  0  0  0  0  0
  147.0363  136.0548  152.1108 H   0  0  0  0  0  0  0  0  0  0  0  0
  1  2  1  0  0  0  0
  1 25  1  0  0  0  0
  1 26  1  0  0  0  0
  1 27  1  0  0  0  0
  2 23  1  0  0  0  0
  2  3  2  0  0  0  0
  3  4  1  0  0  0  0
  3 28  1  0  0  0  0
  4 21  2  0  0  0  0
  4  5  1  0  0  0  0
  5  6  2  0  0  0  0
  6  7  1  0  0  0  0
  6 29  1  0  0  0  0
  7  8  1  0  0  0  0
  7 21  1  0  0  0  0
  8  9  1  0  0  0  0
  8 30  1  0  0  0  0
  8 31  1  0  0  0  0
  9 10  1  0  0  0  0
  9 11  1  0  0  0  0
  9 32  1  0  0  0  0
 10 33  1  0  0  0  0
 11 12  1  0  0  0  0
 11 34  1  0  0  0  0
 11 35  1  0  0  0  0
 12 20  1  0  0  0  0
 12 13  1  0  0  0  0
 12 53  1  0  0  0  0
 13 14  1  0  0  0  0
 13 36  1  0  0  0  0
 13 37  1  0  0  0  0
 14 15  1  0  0  0  0
 14 38  1  0  0  0  0
 14 39  1  0  0  0  0
 15 16  1  0  0  0  0
 15 19  1  0  0  0  0
 15 54  1  0  0  0  0
 16 17  1  0  0  0  0
 16 40  1  0  0  0  0
 16 41  1  0  0  0  0
 17 18  1  0  0  0  0
 17 42  1  0  0  0  0
 17 43  1  0  0  0  0
 18 44  1  0  0  0  0
 19 20  1  0  0  0  0
 19 45  1  0  0  0  0
 19 46  1  0  0  0  0
 20 47  1  0  0  0  0
 20 48  1  0  0  0  0
 21 22  1  0  0  0  0
 22 23  2  0  0  0  0
 22 49  1  0  0  0  0
 23 24  1  0  0  0  0
 24 50  1  0  0  0  0
 24 51  1  0  0  0  0
 24 52  1  0  0  0  0
M  CHG  1  12   1
M  CHG  1  15   1
M  END
> <s_m_source_file>
AV-unprocessed.smi

> <i_m_source_file_index>
1046

> <i_lp_mmshare_version>
43012

> <i_f3d_flags>
0

> <s_epik_input>
W0NIM11jKFtjSF0xKWMoW0NIM10pW2NIXWMoYzEyKW4oW2NIXW4yKVtDSDJdW0NASF0oW09IXSlbQ0gyXU4zW0NIMl1bQ0gyXU4oW0NIMl1bQ0gyXTMpW0NIMl1bQ0gyXVtPSF0=

> <s_epik_cmdline>
J2VwaWtfcHl0aG9uJywgJy1waCcsICc3LjAnLCAnLXRuJywgJzgnLCAnLW1hJywgJzIwMCcsICctbWV0YWxfYmluZGluZycsICctaW1hZScsICc8aW5maWxlLm1hZT4nLCAnLW9tYWUnLCAnPG91dGZpbGUubWFlPic=

> <r_epik_Ionization_Penalty>
3.17398

> <r_epik_Ionization_Penalty_Charging>
3.09061

> <r_epik_Ionization_Penalty_Neutral>
0.0833726

> <r_epik_State_Penalty>
2.17606

> <r_epik_Charging_Adjusted_Penalty>
5.26667

> <i_epik_Tot_Q>
2

> <i_epik_Tot_abs_Q>
2

> <r_epik_Metal_State_Penalty>
2.08587

> <b_epik_Metal_Only>
0

> <s_lp_Force_Field>
OPLS_2005

> <r_lp_Energy>
27.7872

> <b_lp_Chiralities_Consistent>
1

> <s_lp_Variant>
AV-unprocessed.smi:1046-8

> <Gold.Version>
5.8.1

> <Gold.Id.Protein>
6NUR|6NUR_protein|mol2

> <Gold.PLP.Fitness>
59.2482

> <Gold.PLP.PLP>
-39.7130

> <Gold.PLP.part.hbond>
-4.6397

> <Gold.PLP.part.metal>
0.0000

> <Gold.PLP.part.buried>
5.1596

> <Gold.PLP.part.nonpolar>
-40.6489

> <Gold.PLP.part.repulsive>
0.1091

> <Gold.PLP.ligand.clash>
0.0000

> <Gold.PLP.ligand.torsion>
0.7927

> <Gold.PLP.Chemscore.Hbond>
6.0000

> <Gold.PLP.Chemscore.CHOScore>
1.0000

> <Gold.PLP.Chemscore.Metal>
0.0000

> <Gold.Chemscore.Hbonds>
donor molecule, donor type, donor heavy atom, donor atom, acceptor molecule, acceptor atom, score
      L1  H    10    33       P1 10175  1.00
      L1  H    12    53       P1 10175  2.00
      L1  H    15    54       P1  7948  2.00
      L1  H    18    44       P1 10186  1.00
      L1  C     6    29       P1  7957  1.00

> <Gold.PLP.Chemscore.Internal.Correction>
0.1207

> <Gold.Rescore>
     Score         DG    S(hbond)    S(metal)    S(lipo)     H(rot)  DE(clash)    DE(int)     intcor
     19.43     -22.93       3.68        0.00     115.93       3.28       2.70       0.80       ----

> <Gold.Chemscore.Fitness>
19.4268

> <Gold.Chemscore.DG>
-22.9318

> <Gold.Chemscore.ZeroCoef>
-5.4800

> <Gold.Chemscore.Hbond>
3.6803

> <Gold.Chemscore.Metal>
0.0000

> <Gold.Chemscore.Lipo>
115.9282

> <Gold.Chemscore.Internal_Hbond>
0.0000

> <Gold.Chemscore.DEClash>
2.7045

> <Gold.Chemscore.DEInternal>
0.8006

> <Gold.Chemscore.Rot>
3.2828

> <Gold.Chemscore.Internal.Correction>
   9.000000E+99

> <Gold.Chemscore.Hbonds>
donor molecule, donor type, donor heavy atom, donor atom, acceptor molecule, acceptor atom, score
      L1  H    10    33       P1 10175  0.42
      L1  H    12    53       P1 10175  0.94
      L1  H    15    54       P1  7948  0.99
      L1  H    18    44       P1 10186  0.71

> <Gold.Chemscore.Hbond.Weighted>
-12.2922

> <Gold.Chemscore.Metal.Weighted>
-0.0000

> <Gold.Chemscore.Lipo.Weighted>
-13.5636

> <Gold.Chemscore.Internal_Hbond.Weighted>
0.0000

> <Gold.Chemscore.DEClash.Weighted>
2.7045

> <Gold.Chemscore.DEInternal.Weighted>
0.8006

> <Gold.Chemscore.Rot.Weighted>
8.4039

> <Gold.Chemscore.Internal.Correction.Weighted>
   9.000000E+99

> <Gold.Protein.RotatedTorsions>
[ 6907 6896 6895 6894 ] final -169.32 input  -60.11 | X-H torsion
[ 7974 7965 7964 7962 ] final   70.36 input  175.53 | X-H torsion
[ 8008 7997 7996 7995 ] final   34.54 input   59.86 | X-H torsion
[ 10167 10162 10161 10158 ] final  -46.72 input  -65.29 | X-H torsion
[ 10718 10713 10712 10709 ] final  170.26 input   66.30 | X-H torsion
[ 10763 10752 10751 10750 ] final  -39.94 input  -60.55 | X-H torsion
[ 11005 11000 10999 10996 ] final -131.59 input  -57.11 | X-H torsion

> <Gold.Protein.ActiveResidues>
 VAL166  LYS551  ARG553  GLY616  TRP617  ASP618  TYR619  PRO620  LYS621  CYS622 
 ASP623  PHE694  ASN695  SER759  ASP760  ASP761  ALA762  ILE779  LEU786  VAL792 
 PHE793  MET794  SER795  GLU796  ALA797  LYS798  CYS799  TRP800  GLU811  SER814 

> <Gold.Protein.RotatedAtoms>
  151.4897  133.3527  159.2851 H   0  0  0  0  0  0  0  0  0  0  0  0  # atno 6907 bound_to 6896
  150.8843  134.8240  159.7258 H   0  0  0  0  0  0  0  0  0  0  0  0  # atno 6908 bound_to 6896
  152.4783  134.4799  159.9714 H   0  0  0  0  0  0  0  0  0  0  0  0  # atno 6909 bound_to 6896
  145.7791  139.2879  143.1276 H   0  0  0  0  0  0  0  0  0  0  0  0  # atno 7974 bound_to 7965
  155.1564  140.3279  155.4420 H   0  0  0  0  0  0  0  0  0  0  0  0  # atno 8008 bound_to 7997
  156.2557  140.1968  156.6624 H   0  0  0  0  0  0  0  0  0  0  0  0  # atno 8009 bound_to 7997
  154.6436  140.0567  156.9860 H   0  0  0  0  0  0  0  0  0  0  0  0  # atno 8010 bound_to 7997
  140.6806  143.2818  151.3823 H   0  0  0  0  0  0  0  0  0  0  0  0  # atno 10167 bound_to 10162
  157.0106  131.0203  151.2804 H   0  0  0  0  0  0  0  0  0  0  0  0  # atno 10718 bound_to 10713
  153.9377  135.6765  153.4744 H   0  0  0  0  0  0  0  0  0  0  0  0  # atno 10763 bound_to 10752
  153.0947  135.4857  154.8754 H   0  0  0  0  0  0  0  0  0  0  0  0  # atno 10764 bound_to 10752
  154.7394  135.3157  154.8713 H   0  0  0  0  0  0  0  0  0  0  0  0  # atno 10765 bound_to 10752
  140.9245  134.1400  157.4286 H   0  0  0  0  0  0  0  0  0  0  0  0  # atno 11005 bound_to 11000
  146.0092  140.8450  142.9979 LP  0  0  0  0  0  0  0  0  0  0  0  0  # atno 17320 bound_to 7965
  144.6799  140.2465  143.7337 LP  0  0  0  0  0  0  0  0  0  0  0  0  # atno 17321 bound_to 7965
  139.6125  144.1068  152.2313 LP  0  0  0  0  0  0  0  0  0  0  0  0  # atno 17342 bound_to 10162
  140.0487  144.5950  150.7353 LP  0  0  0  0  0  0  0  0  0  0  0  0  # atno 17343 bound_to 10162
  157.5323  130.8066  149.7931 LP  0  0  0  0  0  0  0  0  0  0  0  0  # atno 17370 bound_to 10713
  156.0137  130.3822  150.2179 LP  0  0  0  0  0  0  0  0  0  0  0  0  # atno 17371 bound_to 10713
  139.8782  134.9983  156.5894 LP  0  0  0  0  0  0  0  0  0  0  0  0  # atno 17394 bound_to 11000
  140.7944  133.8556  155.8673 LP  0  0  0  0  0  0  0  0  0  0  0  0  # atno 17395 bound_to 11000

$$$$
