AV-unprocessed.smi:2089|AV-procd|sdf|8530|dock6
  -GOLD-   2272011253D 1   1.00000     0.00000
 Structure written by MMmdl.
 40 41  0  0  0  0  0  0  0  0  2 V2000
  146.3608  138.1898  153.0333 C   0  0  0  0  0  0  0  0  0  0  0  0
  147.0415  138.1381  154.7409 S   0  0  0  0  0  0  0  0  0  0  0  0
  145.9524  137.7747  155.6607 O   0  0  0  0  0  0  0  0  0  0  0  0
  148.2900  137.3607  154.7397 O   0  0  0  0  0  0  0  0  0  0  0  0
  147.4493  139.7922  155.0444 N   0  0  0  0  0  0  0  0  0  0  0  0
  146.3644  140.7608  155.2532 C   0  0  0  0  0  0  0  0  0  0  0  0
  146.9493  142.1213  154.8824 C   0  0  0  0  0  0  0  0  0  0  0  0
  147.9690  141.7727  153.8075 C   0  0  0  0  0  0  0  0  0  0  0  0
  148.5254  140.4075  154.2498 C   0  0  1  0  0  0  0  0  0  0  0  0
  149.8484  140.5034  155.0230 C   0  0  0  0  0  0  0  0  0  0  0  0
  150.8658  139.9468  154.6088 O   0  0  0  0  0  0  0  0  0  0  0  0
  149.8221  141.2331  156.1473 N   0  0  0  0  0  0  0  0  0  0  0  0
  150.9752  141.4697  157.0031 C   0  0  0  0  0  0  0  0  0  0  0  0
  151.2995  142.9682  157.0704 C   0  0  0  0  0  0  0  0  0  0  0  0
  151.6209  143.4216  158.4814 C   0  0  0  0  0  0  0  0  0  0  0  0
  152.1820  142.5516  159.4416 C   0  0  0  0  0  0  0  0  0  0  0  0
  152.4639  143.0419  160.7339 C   0  0  0  0  0  0  0  0  0  0  0  0
  152.1810  144.3898  161.0381 C   0  0  0  0  0  0  0  0  0  0  0  0
  151.6218  145.2147  160.0408 C   0  0  0  0  0  0  0  0  0  0  0  0
  151.3651  144.7076  158.8149 N   0  3  0  0  0  0  0  0  0  0  0  0
  146.0279  137.1925  152.7469 H   0  0  0  0  0  0  0  0  0  0  0  0
  147.1320  138.5239  152.3397 H   0  0  0  0  0  0  0  0  0  0  0  0
  145.5165  138.8777  152.9981 H   0  0  0  0  0  0  0  0  0  0  0  0
  145.5306  140.5203  154.5926 H   0  0  0  0  0  0  0  0  0  0  0  0
  146.0062  140.7280  156.2823 H   0  0  0  0  0  0  0  0  0  0  0  0
  146.1935  142.8273  154.5374 H   0  0  0  0  0  0  0  0  0  0  0  0
  147.4513  142.5595  155.7461 H   0  0  0  0  0  0  0  0  0  0  0  0
  147.4676  141.6677  152.8444 H   0  0  0  0  0  0  0  0  0  0  0  0
  148.7301  142.5457  153.6919 H   0  0  0  0  0  0  0  0  0  0  0  0
  148.7006  139.8074  153.3549 H   0  0  0  0  0  0  0  0  0  0  0  0
  148.9497  141.6679  156.4129 H   0  0  0  0  0  0  0  0  0  0  0  0
  150.7673  141.0837  158.0023 H   0  0  0  0  0  0  0  0  0  0  0  0
  151.8328  140.9178  156.6144 H   0  0  0  0  0  0  0  0  0  0  0  0
  152.1484  143.1975  156.4242 H   0  0  0  0  0  0  0  0  0  0  0  0
  150.4580  143.5499  156.6911 H   0  0  0  0  0  0  0  0  0  0  0  0
  152.3965  141.5223  159.1932 H   0  0  0  0  0  0  0  0  0  0  0  0
  152.8933  142.3921  161.4824 H   0  0  0  0  0  0  0  0  0  0  0  0
  152.3901  144.7847  162.0217 H   0  0  0  0  0  0  0  0  0  0  0  0
  151.3745  146.2563  160.1848 H   0  0  0  0  0  0  0  0  0  0  0  0
  150.9614  145.3232  158.1084 H   0  0  0  0  0  0  0  0  0  0  0  0
  1  2  1  0  0  0  0
  1 21  1  0  0  0  0
  1 22  1  0  0  0  0
  1 23  1  0  0  0  0
  2  3  2  0  0  0  0
  2  4  2  0  0  0  0
  2  5  1  0  0  0  0
  5  9  1  0  0  0  0
  5  6  1  0  0  0  0
  6  7  1  0  0  0  0
  6 24  1  0  0  0  0
  6 25  1  0  0  0  0
  7  8  1  0  0  0  0
  7 26  1  0  0  0  0
  7 27  1  0  0  0  0
  8  9  1  0  0  0  0
  8 28  1  0  0  0  0
  8 29  1  0  0  0  0
  9 10  1  0  0  0  0
  9 30  1  0  0  0  0
 10 11  2  0  0  0  0
 10 12  1  0  0  0  0
 12 13  1  0  0  0  0
 12 31  1  0  0  0  0
 13 14  1  0  0  0  0
 13 32  1  0  0  0  0
 13 33  1  0  0  0  0
 14 15  1  0  0  0  0
 14 34  1  0  0  0  0
 14 35  1  0  0  0  0
 15 20  1  0  0  0  0
 15 16  2  0  0  0  0
 16 17  1  0  0  0  0
 16 36  1  0  0  0  0
 17 18  2  0  0  0  0
 17 37  1  0  0  0  0
 18 19  1  0  0  0  0
 18 38  1  0  0  0  0
 19 20  2  0  0  0  0
 19 39  1  0  0  0  0
 20 40  1  0  0  0  0
M  CHG  1  20   1
M  END
> <s_m_source_file>
AV-unprocessed.smi

> <i_m_source_file_index>
2089

> <i_lp_mmshare_version>
43012

> <i_f3d_flags>
0

> <s_epik_input>
W0NIM11TKD1PKSg9TylOMVtDSDJdW0NIMl1bQ0gyXVtDQEhdMUMoPU8pW05IXVtDSDJdW0NIMl1jMltjSF1bY0hdW2NIXVtjSF1uMg==

> <s_epik_cmdline>
J2VwaWtfcHl0aG9uJywgJy1waCcsICc3LjAnLCAnLXRuJywgJzgnLCAnLW1hJywgJzIwMCcsICctbWV0YWxfYmluZGluZycsICctaW1hZScsICc8aW5maWxlLm1hZT4nLCAnLW9tYWUnLCAnPG91dGZpbGUubWFlPic=

> <r_epik_Ionization_Penalty>
1.90116

> <r_epik_Ionization_Penalty_Charging>
1.90116

> <r_epik_Ionization_Penalty_Neutral>
1.4017e-07

> <r_epik_State_Penalty>
2.02245

> <r_epik_Charging_Adjusted_Penalty>
3.9236

> <i_epik_Tot_Q>
1

> <i_epik_Tot_abs_Q>
1

> <r_epik_Metal_State_Penalty>
2.04621

> <b_epik_Metal_Only>
0

> <s_lp_Force_Field>
OPLS_2005

> <r_lp_Energy>
11.7086

> <b_lp_Chiralities_Consistent>
1

> <s_lp_Variant>
AV-unprocessed.smi:2089-3

> <Gold.Version>
5.8.1

> <Gold.Id.Protein>
6NUR|6NUR_protein|mol2

> <Gold.PLP.Fitness>
39.0947

> <Gold.PLP.PLP>
-37.4698

> <Gold.PLP.part.hbond>
-1.0000

> <Gold.PLP.part.metal>
0.0000

> <Gold.PLP.part.buried>
-5.4761

> <Gold.PLP.part.nonpolar>
-31.0971

> <Gold.PLP.part.repulsive>
0.5187

> <Gold.PLP.ligand.clash>
0.0000

> <Gold.PLP.ligand.torsion>
0.9596

> <Gold.PLP.Chemscore.Hbond>
1.0000

> <Gold.PLP.Chemscore.CHOScore>
0.0000

> <Gold.PLP.Chemscore.Metal>
0.0000

> <Gold.Chemscore.Hbonds>
donor molecule, donor type, donor heavy atom, donor atom, acceptor molecule, acceptor atom, score
      P1  H  7989  7998       L1    11  1.00

> <Gold.PLP.Chemscore.Internal.Correction>
0.5439

> <Gold.Rescore>
     Score         DG    S(hbond)    S(metal)    S(lipo)     H(rot)  DE(clash)    DE(int)     intcor
     14.49     -15.40       0.98        0.00     100.76       2.00       0.05       0.87       ----

> <Gold.Chemscore.Fitness>
14.4898

> <Gold.Chemscore.DG>
-15.4046

> <Gold.Chemscore.ZeroCoef>
-5.4800

> <Gold.Chemscore.Hbond>
0.9780

> <Gold.Chemscore.Metal>
0.0000

> <Gold.Chemscore.Lipo>
100.7587

> <Gold.Chemscore.Internal_Hbond>
0.0000

> <Gold.Chemscore.DEClash>
0.0475

> <Gold.Chemscore.DEInternal>
0.8672

> <Gold.Chemscore.Rot>
2.0043

> <Gold.Chemscore.Internal.Correction>
   9.000000E+99

> <Gold.Chemscore.Hbonds>
donor molecule, donor type, donor heavy atom, donor atom, acceptor molecule, acceptor atom, score
      P1  H  7989  7998       L1    11  0.78

> <Gold.Chemscore.Hbond.Weighted>
-3.2667

> <Gold.Chemscore.Metal.Weighted>
-0.0000

> <Gold.Chemscore.Lipo.Weighted>
-11.7888

> <Gold.Chemscore.Internal_Hbond.Weighted>
0.0000

> <Gold.Chemscore.DEClash.Weighted>
0.0475

> <Gold.Chemscore.DEInternal.Weighted>
0.8672

> <Gold.Chemscore.Rot.Weighted>
5.1309

> <Gold.Chemscore.Internal.Correction.Weighted>
   9.000000E+99

> <Gold.Protein.RotatedTorsions>
[ 6907 6896 6895 6894 ] final   94.76 input  -60.11 | X-H torsion
[ 7974 7965 7964 7962 ] final  -12.77 input  175.53 | X-H torsion
[ 8008 7997 7996 7995 ] final  135.29 input   59.86 | X-H torsion
[ 10167 10162 10161 10158 ] final  100.94 input  -65.29 | X-H torsion
[ 10718 10713 10712 10709 ] final  -11.19 input   66.30 | X-H torsion
[ 10763 10752 10751 10750 ] final   18.91 input  -60.55 | X-H torsion
[ 11005 11000 10999 10996 ] final  122.43 input  -57.11 | X-H torsion

> <Gold.Protein.ActiveResidues>
 VAL166  LYS551  ARG553  GLY616  TRP617  ASP618  TYR619  PRO620  LYS621  CYS622 
 ASP623  PHE694  ASN695  SER759  ASP760  ASP761  ALA762  ILE779  LEU786  VAL792 
 PHE793  MET794  SER795  GLU796  ALA797  LYS798  CYS799  TRP800  GLU811  SER814 

> <Gold.Protein.RotatedAtoms>
  152.5448  134.1143  159.8371 H   0  0  0  0  0  0  0  0  0  0  0  0  # atno 6907 bound_to 6896
  151.1206  133.5099  159.2609 H   0  0  0  0  0  0  0  0  0  0  0  0  # atno 6908 bound_to 6896
  151.1783  135.0359  159.8836 H   0  0  0  0  0  0  0  0  0  0  0  0  # atno 6909 bound_to 6896
  146.2139  140.3106  142.8382 H   0  0  0  0  0  0  0  0  0  0  0  0  # atno 7974 bound_to 7965
  156.3002  140.2474  156.3557 H   0  0  0  0  0  0  0  0  0  0  0  0  # atno 8008 bound_to 7997
  154.8924  140.0409  157.1865 H   0  0  0  0  0  0  0  0  0  0  0  0  # atno 8009 bound_to 7997
  154.8584  140.2917  155.5558 H   0  0  0  0  0  0  0  0  0  0  0  0  # atno 8010 bound_to 7997
  139.7482  144.6992  151.0472 H   0  0  0  0  0  0  0  0  0  0  0  0  # atno 10167 bound_to 10162
  156.6626  130.4986  149.6025 H   0  0  0  0  0  0  0  0  0  0  0  0  # atno 10718 bound_to 10713
  153.1208  135.6718  153.9339 H   0  0  0  0  0  0  0  0  0  0  0  0  # atno 10763 bound_to 10752
  153.8855  135.3053  155.3447 H   0  0  0  0  0  0  0  0  0  0  0  0  # atno 10764 bound_to 10752
  154.7620  135.4983  153.9561 H   0  0  0  0  0  0  0  0  0  0  0  0  # atno 10765 bound_to 10752
  139.9268  134.9641  156.8109 H   0  0  0  0  0  0  0  0  0  0  0  0  # atno 11005 bound_to 11000
  144.8991  140.7620  143.5878 LP  0  0  0  0  0  0  0  0  0  0  0  0  # atno 17320 bound_to 7965
  145.3031  139.1843  143.4679 LP  0  0  0  0  0  0  0  0  0  0  0  0  # atno 17321 bound_to 7965
  140.7795  143.4841  150.9980 LP  0  0  0  0  0  0  0  0  0  0  0  0  # atno 17342 bound_to 10162
  139.8528  143.7415  152.3177 LP  0  0  0  0  0  0  0  0  0  0  0  0  # atno 17343 bound_to 10162
  156.1999  130.6613  151.1156 LP  0  0  0  0  0  0  0  0  0  0  0  0  # atno 17370 bound_to 10713
  157.7104  131.0736  150.6519 LP  0  0  0  0  0  0  0  0  0  0  0  0  # atno 17371 bound_to 10713
  140.6313  133.9903  155.7663 LP  0  0  0  0  0  0  0  0  0  0  0  0  # atno 17394 bound_to 11000
  141.0831  134.0032  157.3355 LP  0  0  0  0  0  0  0  0  0  0  0  0  # atno 17395 bound_to 11000

$$$$
