AV-unprocessed.smi:99|AV-procd|sdf|891|dock1
  -GOLD-   2262017373D 1   1.00000     0.00000
 Structure written by MMmdl.
 52 55  0  0  0  0  0  0  0  0  2 V2000
  143.6090  135.0805  154.0521 O   0  0  0  0  0  0  0  0  0  0  0  0
  144.6235  134.6798  153.4776 C   0  0  0  0  0  0  0  0  0  0  0  0
  145.8742  134.9347  153.9082 O   0  0  0  0  0  0  0  0  0  0  0  0
  146.0784  135.5181  155.1842 C   0  0  0  0  0  0  0  0  0  0  0  0
  146.3133  137.0261  155.0209 C   0  0  2  0  0  0  0  0  0  0  0  0
  147.5676  137.2822  154.4105 O   0  0  0  0  0  0  0  0  0  0  0  0
  147.9047  138.6115  154.6495 C   0  0  2  0  0  0  0  0  0  0  0  0
  149.4143  138.7253  154.6574 N   0  0  0  0  0  0  0  0  0  0  0  0
  150.1683  137.5859  154.4403 C   0  0  0  0  0  0  0  0  0  0  0  0
  151.5164  137.6158  154.4655 C   0  0  0  0  0  0  0  0  0  0  0  0
  152.1996  138.8768  154.7372 C   0  0  0  0  0  0  0  0  0  0  0  0
  153.4288  138.8994  154.7420 O   0  0  0  0  0  0  0  0  0  0  0  0
  151.4361  139.9808  154.9782 N   0  5  0  0  0  0  0  0  0  0  0  0
  150.0713  139.9507  154.9647 C   0  0  0  0  0  0  0  0  0  0  0  0
  149.3826  140.9378  155.2130 O   0  0  0  0  0  0  0  0  0  0  0  0
  147.2422  139.0317  155.9778 C   0  0  1  0  0  0  0  0  0  0  0  0
  146.4075  140.1607  155.8179 O   0  0  0  0  0  0  0  0  0  0  0  0
  146.3738  137.8214  156.3326 C   0  0  2  0  0  0  0  0  0  0  0  0
  146.9735  137.0455  157.3636 O   0  0  0  0  0  0  0  0  0  0  0  0
  147.1051  137.5264  158.6163 C   0  0  0  0  0  0  0  0  0  0  0  0
  147.1306  138.7281  158.8893 O   0  0  0  0  0  0  0  0  0  0  0  0
  147.2183  136.4453  159.6371 C   0  0  0  0  0  0  0  0  0  0  0  0
  147.2925  136.7882  161.0071 C   0  0  0  0  0  0  0  0  0  0  0  0
  147.4043  135.7871  161.9917 C   0  0  0  0  0  0  0  0  0  0  0  0
  147.4452  134.4312  161.6179 C   0  0  0  0  0  0  0  0  0  0  0  0
  147.3734  134.0773  160.2581 C   0  0  0  0  0  0  0  0  0  0  0  0
  147.2598  135.0767  159.2724 C   0  0  0  0  0  0  0  0  0  0  0  0
  144.5936  133.8573  152.2334 C   0  0  0  0  0  0  0  0  0  0  0  0
  143.3511  133.4028  151.7331 C   0  0  0  0  0  0  0  0  0  0  0  0
  143.2920  132.6159  150.5664 C   0  0  0  0  0  0  0  0  0  0  0  0
  144.4747  132.2745  149.8852 C   0  0  0  0  0  0  0  0  0  0  0  0
  145.7170  132.7221  150.3714 C   0  0  0  0  0  0  0  0  0  0  0  0
  145.7782  133.5086  151.5383 C   0  0  0  0  0  0  0  0  0  0  0  0
  145.1959  135.3455  155.8018 H   0  0  0  0  0  0  0  0  0  0  0  0
  146.9287  135.0492  155.6820 H   0  0  0  0  0  0  0  0  0  0  0  0
  145.5336  137.4559  154.3894 H   0  0  0  0  0  0  0  0  0  0  0  0
  147.5613  139.2138  153.8070 H   0  0  0  0  0  0  0  0  0  0  0  0
  149.6750  136.6460  154.2424 H   0  0  0  0  0  0  0  0  0  0  0  0
  152.0864  136.7152  154.2905 H   0  0  0  0  0  0  0  0  0  0  0  0
  147.9850  139.2541  156.7444 H   0  0  0  0  0  0  0  0  0  0  0  0
  146.7465  140.8615  156.3532 H   0  0  0  0  0  0  0  0  0  0  0  0
  145.3664  138.1093  156.6385 H   0  0  0  0  0  0  0  0  0  0  0  0
  147.2651  137.8226  161.3176 H   0  0  0  0  0  0  0  0  0  0  0  0
  147.4608  136.0607  163.0349 H   0  0  0  0  0  0  0  0  0  0  0  0
  147.5330  133.6637  162.3726 H   0  0  0  0  0  0  0  0  0  0  0  0
  147.4082  133.0375  159.9682 H   0  0  0  0  0  0  0  0  0  0  0  0
  147.2113  134.7696  158.2377 H   0  0  0  0  0  0  0  0  0  0  0  0
  142.4295  133.6504  152.2400 H   0  0  0  0  0  0  0  0  0  0  0  0
  142.3373  132.2727  150.1956 H   0  0  0  0  0  0  0  0  0  0  0  0
  144.4293  131.6696  148.9916 H   0  0  0  0  0  0  0  0  0  0  0  0
  146.6259  132.4602  149.8499 H   0  0  0  0  0  0  0  0  0  0  0  0
  146.7482  133.8325  151.8864 H   0  0  0  0  0  0  0  0  0  0  0  0
  1  2  2  0  0  0  0
  2  3  1  0  0  0  0
  2 28  1  0  0  0  0
  3  4  1  0  0  0  0
  4  5  1  0  0  0  0
  4 34  1  0  0  0  0
  4 35  1  0  0  0  0
  5 18  1  0  0  0  0
  5  6  1  0  0  0  0
  5 36  1  0  0  0  0
  6  7  1  0  0  0  0
  7  8  1  0  0  0  0
  7 16  1  0  0  0  0
  7 37  1  0  0  0  0
  8 14  1  0  0  0  0
  8  9  1  0  0  0  0
  9 10  2  0  0  0  0
  9 38  1  0  0  0  0
 10 11  1  0  0  0  0
 10 39  1  0  0  0  0
 11 12  2  0  0  0  0
 11 13  1  0  0  0  0
 13 14  1  0  0  0  0
 14 15  2  0  0  0  0
 16 17  1  0  0  0  0
 16 18  1  0  0  0  0
 16 40  1  0  0  0  0
 17 41  1  0  0  0  0
 18 19  1  0  0  0  0
 18 42  1  0  0  0  0
 19 20  1  0  0  0  0
 20 21  2  0  0  0  0
 20 22  1  0  0  0  0
 22 27  1  0  0  0  0
 22 23  2  0  0  0  0
 23 24  1  0  0  0  0
 23 43  1  0  0  0  0
 24 25  2  0  0  0  0
 24 44  1  0  0  0  0
 25 26  1  0  0  0  0
 25 45  1  0  0  0  0
 26 27  2  0  0  0  0
 26 46  1  0  0  0  0
 27 47  1  0  0  0  0
 28 33  1  0  0  0  0
 28 29  2  0  0  0  0
 29 30  1  0  0  0  0
 29 48  1  0  0  0  0
 30 31  2  0  0  0  0
 30 49  1  0  0  0  0
 31 32  1  0  0  0  0
 31 50  1  0  0  0  0
 32 33  2  0  0  0  0
 32 51  1  0  0  0  0
 33 52  1  0  0  0  0
M  CHG  1  13  -1
M  END
> <s_m_source_file>
AV-unprocessed.smi

> <i_m_source_file_index>
99

> <i_lp_mmshare_version>
43012

> <i_f3d_flags>
0

> <s_epik_input>
W2NIXTFbY0hdW2NIXVtjSF1bY0hdYzFDKD1PKU9bQ0gyXVtDQEBIXTJPW0NAQEhdKG4zW2NIXVtjSF1jKD1PKVtuSF1jMz1PKVtDQEBIXShbT0hdKVtDQEhdMk9DKD1PKWM0W2NIXVtjSF1bY0hdW2NIXVtjSF00

> <s_epik_cmdline>
J2VwaWtfcHl0aG9uJywgJy1waCcsICc3LjAnLCAnLXRuJywgJzgnLCAnLW1hJywgJzIwMCcsICctbWV0YWxfYmluZGluZycsICctaW1hZScsICc8aW5maWxlLm1hZT4nLCAnLW9tYWUnLCAnPG91dGZpbGUubWFlPic=

> <r_lp_tautomer_probability>
1

> <r_epik_Ionization_Penalty>
2.89159

> <r_epik_Ionization_Penalty_Charging>
2.1077e-08

> <r_epik_Ionization_Penalty_Neutral>
2.89159

> <r_epik_State_Penalty>
2.88671

> <r_epik_Charging_Adjusted_Penalty>
2.88671

> <i_epik_Tot_Q>
-1

> <i_epik_Tot_abs_Q>
1

> <r_epik_Metal_State_Penalty>
0.0727308

> <b_epik_Metal_Only>
1

> <s_epik_Chemistry_Notes>
This compound has an ester and may undergo hydrolysis at high or low pH. This compound contains an acetal/aminal-like group ( X-CH(R)-Y where X, Y are N, S, or O) that may be acid/base labile, releasing an aldehyde.

> <s_lp_Force_Field>
OPLS_2005

> <r_lp_Energy>
34.2079

> <b_lp_Chiralities_Consistent>
1

> <s_lp_Variant>
AV-unprocessed.smi:99-27

> <Gold.Version>
5.8.1

> <Gold.Id.Protein>
6NUR|6NUR_protein|mol2

> <Gold.PLP.Fitness>
53.6896

> <Gold.PLP.PLP>
-46.6081

> <Gold.PLP.part.hbond>
-3.0000

> <Gold.PLP.part.metal>
0.0000

> <Gold.PLP.part.buried>
-7.7882

> <Gold.PLP.part.nonpolar>
-37.0666

> <Gold.PLP.part.repulsive>
1.3007

> <Gold.PLP.ligand.clash>
0.0000

> <Gold.PLP.ligand.torsion>
0.7875

> <Gold.PLP.Chemscore.Hbond>
1.9890

> <Gold.PLP.Chemscore.CHOScore>
0.7866

> <Gold.PLP.Chemscore.Metal>
0.0000

> <Gold.Chemscore.Hbonds>
donor molecule, donor type, donor heavy atom, donor atom, acceptor molecule, acceptor atom, score
      P1  H  6934  6947       L1    21  0.16
      P1  H  7989  7998       L1    13  0.85
      P1  H  7997  8008       L1    12  1.00
      L1  C     9    38       P1  7948  0.72

> <Gold.PLP.Chemscore.Internal.Correction>
0.3295

> <Gold.Rescore>
     Score         DG    S(hbond)    S(metal)    S(lipo)     H(rot)  DE(clash)    DE(int)     intcor
     13.60     -14.72       1.92        0.00      92.84       3.13       0.12       1.00       ----

> <Gold.Chemscore.Fitness>
13.5995

> <Gold.Chemscore.DG>
-14.7169

> <Gold.Chemscore.ZeroCoef>
-5.4800

> <Gold.Chemscore.Hbond>
1.9160

> <Gold.Chemscore.Metal>
0.0000

> <Gold.Chemscore.Lipo>
92.8367

> <Gold.Chemscore.Internal_Hbond>
0.0000

> <Gold.Chemscore.DEClash>
0.1214

> <Gold.Chemscore.DEInternal>
0.9960

> <Gold.Chemscore.Rot>
3.1346

> <Gold.Chemscore.Internal.Correction>
   9.000000E+99

> <Gold.Chemscore.Hbonds>
donor molecule, donor type, donor heavy atom, donor atom, acceptor molecule, acceptor atom, score
      P1  H  6934  6947       L1    21  0.14
      P1  H  7989  7998       L1    13  0.04
      P1  H  7997  8008       L1    12  0.89

> <Gold.Chemscore.Hbond.Weighted>
-6.3995

> <Gold.Chemscore.Metal.Weighted>
-0.0000

> <Gold.Chemscore.Lipo.Weighted>
-10.8619

> <Gold.Chemscore.Internal_Hbond.Weighted>
0.0000

> <Gold.Chemscore.DEClash.Weighted>
0.1214

> <Gold.Chemscore.DEInternal.Weighted>
0.9960

> <Gold.Chemscore.Rot.Weighted>
8.0246

> <Gold.Chemscore.Internal.Correction.Weighted>
   9.000000E+99

> <Gold.Protein.RotatedTorsions>
[ 6907 6896 6895 6894 ] final -179.46 input  -60.11 | X-H torsion
[ 7974 7965 7964 7962 ] final -114.32 input  175.53 | X-H torsion
[ 8008 7997 7996 7995 ] final  -21.50 input   59.86 | X-H torsion
[ 10167 10162 10161 10158 ] final  126.30 input  -65.29 | X-H torsion
[ 10718 10713 10712 10709 ] final -135.18 input   66.30 | X-H torsion
[ 10763 10752 10751 10750 ] final -156.52 input  -60.55 | X-H torsion
[ 11005 11000 10999 10996 ] final  -50.43 input  -57.11 | X-H torsion

> <Gold.Protein.ActiveResidues>
 VAL166  LYS551  ARG553  GLY616  TRP617  ASP618  TYR619  PRO620  LYS621  CYS622 
 ASP623  PHE694  ASN695  SER759  ASP760  ASP761  ALA762  ILE779  LEU786  VAL792 
 PHE793  MET794  SER795  GLU796  ALA797  LYS798  CYS799  TRP800  GLU811  SER814 

> <Gold.Protein.RotatedAtoms>
  151.6538  133.3320  159.3157 H   0  0  0  0  0  0  0  0  0  0  0  0  # atno 6907 bound_to 6896
  150.7947  134.7002  159.6555 H   0  0  0  0  0  0  0  0  0  0  0  0  # atno 6908 bound_to 6896
  152.4032  134.6254  160.0113 H   0  0  0  0  0  0  0  0  0  0  0  0  # atno 6909 bound_to 6896
  145.1216  140.8672  143.3810 H   0  0  0  0  0  0  0  0  0  0  0  0  # atno 7974 bound_to 7965
  154.4702  140.2033  156.0015 H   0  0  0  0  0  0  0  0  0  0  0  0  # atno 8008 bound_to 7997
  156.0997  140.3246  155.7896 H   0  0  0  0  0  0  0  0  0  0  0  0  # atno 8009 bound_to 7997
  155.4818  140.0539  157.2957 H   0  0  0  0  0  0  0  0  0  0  0  0  # atno 8010 bound_to 7997
  139.5638  144.6899  151.3967 H   0  0  0  0  0  0  0  0  0  0  0  0  # atno 10167 bound_to 10162
  156.2634  130.7223  151.1166 H   0  0  0  0  0  0  0  0  0  0  0  0  # atno 10718 bound_to 10713
  154.7706  135.3144  154.8196 H   0  0  0  0  0  0  0  0  0  0  0  0  # atno 10763 bound_to 10752
  153.8933  135.6823  153.4763 H   0  0  0  0  0  0  0  0  0  0  0  0  # atno 10764 bound_to 10752
  153.1320  135.4776  154.9297 H   0  0  0  0  0  0  0  0  0  0  0  0  # atno 10765 bound_to 10752
  141.0815  133.6652  156.3729 H   0  0  0  0  0  0  0  0  0  0  0  0  # atno 11005 bound_to 11000
  145.0734  139.3014  143.5820 LP  0  0  0  0  0  0  0  0  0  0  0  0  # atno 17320 bound_to 7965
  146.3520  140.0216  142.8658 LP  0  0  0  0  0  0  0  0  0  0  0  0  # atno 17321 bound_to 7965
  140.6920  143.7838  150.7270 LP  0  0  0  0  0  0  0  0  0  0  0  0  # atno 17342 bound_to 10162
  140.1323  143.4514  152.2246 LP  0  0  0  0  0  0  0  0  0  0  0  0  # atno 17343 bound_to 10162
  157.7259  131.0650  150.5934 LP  0  0  0  0  0  0  0  0  0  0  0  0  # atno 17370 bound_to 10713
  156.6023  130.4358  149.5892 LP  0  0  0  0  0  0  0  0  0  0  0  0  # atno 17371 bound_to 10713
  140.5457  134.6076  157.5393 LP  0  0  0  0  0  0  0  0  0  0  0  0  # atno 17394 bound_to 11000
  139.9629  134.7421  156.0198 LP  0  0  0  0  0  0  0  0  0  0  0  0  # atno 17395 bound_to 11000

$$$$
