AV-unprocessed.smi:67|AV-procd|sdf|633|dock4
  -GOLD-   2262016523D 1   1.00000     0.00000
 Structure written by MMmdl.
 48 50  0  0  0  0  0  0  0  0  2 V2000
  147.8096  137.3703  154.9894 O   0  0  0  0  0  0  0  0  0  0  0  0
  147.7211  138.4718  154.1029 C   0  0  1  0  0  0  0  0  0  0  0  0
  149.1128  139.1430  153.9809 C   0  0  0  0  0  0  0  0  0  0  0  0
  149.9947  139.0468  155.1495 N   0  0  0  0  0  0  0  0  0  0  0  0
  149.7932  140.1436  156.1033 C   0  0  0  0  0  0  0  0  0  0  0  0
  150.6597  140.0078  157.3668 C   0  0  0  0  0  0  0  0  0  0  0  0
  152.1468  139.8573  156.9852 C   0  0  0  0  0  0  0  0  0  0  0  0
  153.0507  139.7933  158.0917 O   0  0  0  0  0  0  0  0  0  0  0  0
  153.1170  140.7616  159.0753 C   0  0  0  0  0  0  0  0  0  0  0  0
  153.7080  140.6104  160.3546 C   0  0  0  0  0  0  0  0  0  0  0  0
  153.7063  141.6769  161.2738 C   0  0  0  0  0  0  0  0  0  0  0  0
  153.1199  142.9086  160.9318 C   0  0  0  0  0  0  0  0  0  0  0  0
  152.5326  143.0810  159.6613 C   0  0  0  0  0  0  0  0  0  0  0  0
  151.8888  144.4011  159.2647 C   0  0  0  0  0  0  0  0  0  0  0  0
  152.4676  144.8741  158.1609 F   0  0  0  0  0  0  0  0  0  0  0  0
  150.5940  144.2040  159.0195 F   0  0  0  0  0  0  0  0  0  0  0  0
  152.0056  145.3184  160.2257 F   0  0  0  0  0  0  0  0  0  0  0  0
  152.5349  142.0047  158.7494 C   0  0  0  0  0  0  0  0  0  0  0  0
  152.3743  138.7923  155.8927 C   0  0  0  0  0  0  0  0  0  0  0  0
  151.3975  139.0167  154.7266 C   0  0  0  0  0  0  0  0  0  0  0  0
  147.0862  138.0441  152.7749 C   0  0  0  0  0  0  0  0  0  0  0  0
  145.5859  137.9909  153.0728 C   0  0  0  0  0  0  0  0  0  0  0  0
  145.3489  138.9307  154.1857 N   0  3  0  0  0  0  0  0  0  0  0  0
  146.6530  139.4147  154.6812 C   0  0  0  0  0  0  0  0  0  0  0  0
  147.1364  137.4597  155.6473 H   0  0  0  0  0  0  0  0  0  0  0  0
  149.6253  138.6573  153.1497 H   0  0  0  0  0  0  0  0  0  0  0  0
  149.0018  140.1851  153.6768 H   0  0  0  0  0  0  0  0  0  0  0  0
  150.0015  141.0981  155.6176 H   0  0  0  0  0  0  0  0  0  0  0  0
  148.7538  140.1796  156.4239 H   0  0  0  0  0  0  0  0  0  0  0  0
  150.5294  140.8872  157.9980 H   0  0  0  0  0  0  0  0  0  0  0  0
  150.2939  139.1662  157.9490 H   0  0  0  0  0  0  0  0  0  0  0  0
  152.4144  140.8045  156.5147 H   0  0  0  0  0  0  0  0  0  0  0  0
  154.1711  139.6921  160.6714 H   0  0  0  0  0  0  0  0  0  0  0  0
  154.1566  141.5484  162.2470 H   0  0  0  0  0  0  0  0  0  0  0  0
  153.1251  143.7138  161.6514 H   0  0  0  0  0  0  0  0  0  0  0  0
  152.0786  142.1343  157.7788 H   0  0  0  0  0  0  0  0  0  0  0  0
  153.4003  138.8521  155.5289 H   0  0  0  0  0  0  0  0  0  0  0  0
  152.2480  137.7791  156.2649 H   0  0  0  0  0  0  0  0  0  0  0  0
  151.5460  138.2214  153.9954 H   0  0  0  0  0  0  0  0  0  0  0  0
  151.6480  139.9492  154.2181 H   0  0  0  0  0  0  0  0  0  0  0  0
  147.2728  138.8055  152.0161 H   0  0  0  0  0  0  0  0  0  0  0  0
  147.4745  137.0990  152.3936 H   0  0  0  0  0  0  0  0  0  0  0  0
  144.9817  138.2440  152.2012 H   0  0  0  0  0  0  0  0  0  0  0  0
  145.3010  136.9906  153.4012 H   0  0  0  0  0  0  0  0  0  0  0  0
  144.7888  139.7122  153.8768 H   0  0  0  0  0  0  0  0  0  0  0  0
  146.6739  139.4793  155.7700 H   0  0  0  0  0  0  0  0  0  0  0  0
  146.7852  140.4253  154.2929 H   0  0  0  0  0  0  0  0  0  0  0  0
  144.8687  138.4402  154.9268 H   0  0  0  0  0  0  0  0  0  0  0  0
  1  2  1  0  0  0  0
  1 25  1  0  0  0  0
  2 24  1  0  0  0  0
  2  3  1  0  0  0  0
  2 21  1  0  0  0  0
  3  4  1  0  0  0  0
  3 26  1  0  0  0  0
  3 27  1  0  0  0  0
  4 20  1  0  0  0  0
  4  5  1  0  0  0  0
  5  6  1  0  0  0  0
  5 28  1  0  0  0  0
  5 29  1  0  0  0  0
  6  7  1  0  0  0  0
  6 30  1  0  0  0  0
  6 31  1  0  0  0  0
  7  8  1  0  0  0  0
  7 19  1  0  0  0  0
  7 32  1  0  0  0  0
  8  9  1  0  0  0  0
  9 18  1  0  0  0  0
  9 10  2  0  0  0  0
 10 11  1  0  0  0  0
 10 33  1  0  0  0  0
 11 12  2  0  0  0  0
 11 34  1  0  0  0  0
 12 13  1  0  0  0  0
 12 35  1  0  0  0  0
 13 14  1  0  0  0  0
 13 18  2  0  0  0  0
 14 15  1  0  0  0  0
 14 16  1  0  0  0  0
 14 17  1  0  0  0  0
 18 36  1  0  0  0  0
 19 20  1  0  0  0  0
 19 37  1  0  0  0  0
 19 38  1  0  0  0  0
 20 39  1  0  0  0  0
 20 40  1  0  0  0  0
 21 22  1  0  0  0  0
 21 41  1  0  0  0  0
 21 42  1  0  0  0  0
 22 23  1  0  0  0  0
 22 43  1  0  0  0  0
 22 44  1  0  0  0  0
 23 24  1  0  0  0  0
 23 45  1  0  0  0  0
 23 48  1  0  0  0  0
 24 46  1  0  0  0  0
 24 47  1  0  0  0  0
M  CHG  1  23   1
M  END
> <s_m_source_file>
AV-unprocessed.smi

> <i_m_source_file_index>
67

> <i_lp_mmshare_version>
43012

> <i_f3d_flags>
0

> <s_epik_input>
W0NIMl0xW05IXVtDSDJdW0NIMl1bQ0BAXTEoW09IXSlbQ0gyXU4yW0NIMl1bQ0gyXVtDSF0oW0NIMl1bQ0gyXTIpT2MzW2NIXVtjSF1bY0hdYyhDKEYpKEYpRilbY0hdMw==

> <s_epik_cmdline>
J2VwaWtfcHl0aG9uJywgJy1waCcsICc3LjAnLCAnLXRuJywgJzgnLCAnLW1hJywgJzIwMCcsICctbWV0YWxfYmluZGluZycsICctaW1hZScsICc8aW5maWxlLm1hZT4nLCAnLW9tYWUnLCAnPG91dGZpbGUubWFlPic=

> <r_lp_tautomer_probability>
1

> <r_epik_Ionization_Penalty>
1.18002

> <r_epik_Ionization_Penalty_Charging>
0.00399663

> <r_epik_Ionization_Penalty_Neutral>
1.17602

> <r_epik_State_Penalty>
1.25421

> <r_epik_Charging_Adjusted_Penalty>
1.25821

> <i_epik_Tot_Q>
1

> <i_epik_Tot_abs_Q>
1

> <r_epik_Metal_State_Penalty>
1.25387

> <b_epik_Metal_Only>
0

> <s_lp_Force_Field>
OPLS_2005

> <r_lp_Energy>
63.3962

> <b_lp_Chiralities_Consistent>
1

> <s_lp_Variant>
AV-unprocessed.smi:67-5

> <Gold.Version>
5.8.1

> <Gold.Id.Protein>
6NUR|6NUR_protein|mol2

> <Gold.PLP.Fitness>
55.0170

> <Gold.PLP.PLP>
-48.0133

> <Gold.PLP.part.hbond>
-2.0000

> <Gold.PLP.part.metal>
0.0000

> <Gold.PLP.part.buried>
-0.2478

> <Gold.PLP.part.nonpolar>
-45.1657

> <Gold.PLP.part.repulsive>
0.0766

> <Gold.PLP.ligand.clash>
0.0966

> <Gold.PLP.ligand.torsion>
1.1590

> <Gold.PLP.Chemscore.Hbond>
3.0000

> <Gold.PLP.Chemscore.CHOScore>
0.0000

> <Gold.PLP.Chemscore.Metal>
0.0000

> <Gold.Chemscore.Hbonds>
donor molecule, donor type, donor heavy atom, donor atom, acceptor molecule, acceptor atom, score
      L1  H    23    45       P1 10175  1.89
      P1  H  7997  8010       L1     8  0.95

> <Gold.PLP.Chemscore.Internal.Correction>
0.4184

> <Gold.Rescore>
     Score         DG    S(hbond)    S(metal)    S(lipo)     H(rot)  DE(clash)    DE(int)     intcor
     15.48     -18.23       1.03        0.00     127.42       2.19       1.71       1.04       ----

> <Gold.Chemscore.Fitness>
15.4759

> <Gold.Chemscore.DG>
-18.2254

> <Gold.Chemscore.ZeroCoef>
-5.4800

> <Gold.Chemscore.Hbond>
1.0300

> <Gold.Chemscore.Metal>
0.0000

> <Gold.Chemscore.Lipo>
127.4206

> <Gold.Chemscore.Internal_Hbond>
0.0000

> <Gold.Chemscore.DEClash>
1.7067

> <Gold.Chemscore.DEInternal>
1.0428

> <Gold.Chemscore.Rot>
2.1887

> <Gold.Chemscore.Internal.Correction>
   9.000000E+99

> <Gold.Chemscore.Hbonds>
donor molecule, donor type, donor heavy atom, donor atom, acceptor molecule, acceptor atom, score
      L1  H    23    45       P1 10175  0.91
      P1  H  7997  8010       L1     8  0.08

> <Gold.Chemscore.Hbond.Weighted>
-3.4403

> <Gold.Chemscore.Metal.Weighted>
-0.0000

> <Gold.Chemscore.Lipo.Weighted>
-14.9082

> <Gold.Chemscore.Internal_Hbond.Weighted>
0.0000

> <Gold.Chemscore.DEClash.Weighted>
1.7067

> <Gold.Chemscore.DEInternal.Weighted>
1.0428

> <Gold.Chemscore.Rot.Weighted>
5.6032

> <Gold.Chemscore.Internal.Correction.Weighted>
   9.000000E+99

> <Gold.Protein.RotatedTorsions>
[ 6907 6896 6895 6894 ] final  -23.32 input  -60.11 | X-H torsion
[ 7974 7965 7964 7962 ] final -139.02 input  175.53 | X-H torsion
[ 8008 7997 7996 7995 ] final   23.54 input   59.86 | X-H torsion
[ 10167 10162 10161 10158 ] final  -21.88 input  -65.29 | X-H torsion
[ 10718 10713 10712 10709 ] final   85.09 input   66.30 | X-H torsion
[ 10763 10752 10751 10750 ] final  -89.46 input  -60.55 | X-H torsion
[ 11005 11000 10999 10996 ] final  -50.96 input  -57.11 | X-H torsion

> <Gold.Protein.ActiveResidues>
 VAL166  LYS551  ARG553  GLY616  TRP617  ASP618  TYR619  PRO620  LYS621  CYS622 
 ASP623  PHE694  ASN695  SER759  ASP760  ASP761  ALA762  ILE779  LEU786  VAL792 
 PHE793  MET794  SER795  GLU796  ALA797  LYS798  CYS799  TRP800  GLU811  SER814 

> <Gold.Protein.RotatedAtoms>
  151.2058  135.0461  159.8890 H   0  0  0  0  0  0  0  0  0  0  0  0  # atno 6907 bound_to 6896
  152.5429  134.0800  159.8241 H   0  0  0  0  0  0  0  0  0  0  0  0  # atno 6908 bound_to 6896
  151.0946  133.5242  159.2645 H   0  0  0  0  0  0  0  0  0  0  0  0  # atno 6909 bound_to 6896
  144.8710  140.6367  143.5267 H   0  0  0  0  0  0  0  0  0  0  0  0  # atno 7974 bound_to 7965
  154.9825  140.3104  155.4940 H   0  0  0  0  0  0  0  0  0  0  0  0  # atno 8008 bound_to 7997
  156.2951  140.2264  156.4865 H   0  0  0  0  0  0  0  0  0  0  0  0  # atno 8009 bound_to 7997
  154.7776  140.0448  157.1090 H   0  0  0  0  0  0  0  0  0  0  0  0  # atno 8010 bound_to 7997
  140.7284  143.4586  151.0412 H   0  0  0  0  0  0  0  0  0  0  0  0  # atno 10167 bound_to 10162
  157.6909  131.0160  150.2770 H   0  0  0  0  0  0  0  0  0  0  0  0  # atno 10718 bound_to 10713
  154.6555  135.5340  153.7954 H   0  0  0  0  0  0  0  0  0  0  0  0  # atno 10763 bound_to 10752
  153.0411  135.6493  154.0951 H   0  0  0  0  0  0  0  0  0  0  0  0  # atno 10764 bound_to 10752
  154.0865  135.2943  155.3260 H   0  0  0  0  0  0  0  0  0  0  0  0  # atno 10765 bound_to 10752
  141.0845  133.6645  156.3807 H   0  0  0  0  0  0  0  0  0  0  0  0  # atno 11005 bound_to 11000
  145.4130  139.1577  143.4115 LP  0  0  0  0  0  0  0  0  0  0  0  0  # atno 17320 bound_to 7965
  146.2930  140.4235  142.8732 LP  0  0  0  0  0  0  0  0  0  0  0  0  # atno 17321 bound_to 7965
  139.8269  143.7744  152.3179 LP  0  0  0  0  0  0  0  0  0  0  0  0  # atno 17342 bound_to 10162
  139.7846  144.7432  151.0040 LP  0  0  0  0  0  0  0  0  0  0  0  0  # atno 17343 bound_to 10162
  156.3323  130.3802  149.7480 LP  0  0  0  0  0  0  0  0  0  0  0  0  # atno 17370 bound_to 10713
  156.5016  130.8131  151.3134 LP  0  0  0  0  0  0  0  0  0  0  0  0  # atno 17371 bound_to 10713
  140.5395  134.6135  157.5375 LP  0  0  0  0  0  0  0  0  0  0  0  0  # atno 17394 bound_to 11000
  139.9661  134.7370  156.0135 LP  0  0  0  0  0  0  0  0  0  0  0  0  # atno 17395 bound_to 11000

$$$$
