AV-unprocessed.smi:1358|AV-procd|sdf|5549|dock8
  -GOLD-   22720 5143D 1   1.00000     0.00000
 Structure written by MMmdl.
 37 38  0  0  0  0  0  0  0  0  1 V2000
  152.5973  142.5182  159.2491 C   0  0  0  0  0  0  0  0  0  0  0  0
  152.0551  143.5312  158.2347 C   0  0  0  0  0  0  0  0  0  0  0  0
  150.6959  143.1131  157.6578 C   0  0  0  0  0  0  0  0  0  0  0  0
  150.8124  141.9766  156.6293 C   0  0  0  0  0  0  0  0  0  0  0  0
  149.6807  141.9940  155.7123 N   0  0  0  0  0  0  0  0  0  0  0  0
  149.4425  141.0818  154.7568 C   0  0  0  0  0  0  0  0  0  0  0  0
  150.1061  140.0549  154.6138 O   0  0  0  0  0  0  0  0  0  0  0  0
  148.2981  141.3968  153.7909 C   0  0  0  0  0  0  0  0  0  0  0  0
  147.1056  141.9010  154.5542 C   0  0  0  0  0  0  0  0  0  0  0  0
  146.5383  141.3321  155.6685 C   0  0  0  0  0  0  0  0  0  0  0  0
  145.1506  142.2279  156.2271 S   0  0  0  0  0  0  0  0  0  0  0  0
  145.3899  143.3614  154.8997 C   0  0  0  0  0  0  0  0  0  0  0  0
  144.5391  144.4787  154.6518 N   0  0  0  0  0  0  0  0  0  0  0  0
  143.6206  144.9706  155.6709 C   0  0  0  0  0  0  0  0  0  0  0  0
  142.9208  146.1463  154.9949 C   0  0  0  0  0  0  0  0  0  0  0  0
  143.5251  146.1478  153.6830 N   0  0  0  0  0  0  0  0  0  0  0  0
  144.4371  145.1888  153.5086 C   0  0  0  0  0  0  0  0  0  0  0  0
  145.0593  145.0116  152.4619 O   0  0  0  0  0  0  0  0  0  0  0  0
  146.4527  143.0688  154.1431 N   0  0  0  0  0  0  0  0  0  0  0  0
  153.5623  142.8392  159.6416 H   0  0  0  0  0  0  0  0  0  0  0  0
  152.7334  141.5380  158.7916 H   0  0  0  0  0  0  0  0  0  0  0  0
  151.9163  142.4029  160.0926 H   0  0  0  0  0  0  0  0  0  0  0  0
  151.9656  144.5070  158.7130 H   0  0  0  0  0  0  0  0  0  0  0  0
  152.7755  143.6485  157.4245 H   0  0  0  0  0  0  0  0  0  0  0  0
  150.0387  142.8002  158.4707 H   0  0  0  0  0  0  0  0  0  0  0  0
  150.2197  143.9779  157.1942 H   0  0  0  0  0  0  0  0  0  0  0  0
  151.7529  142.0473  156.0804 H   0  0  0  0  0  0  0  0  0  0  0  0
  150.8199  141.0127  157.1386 H   0  0  0  0  0  0  0  0  0  0  0  0
  149.0809  142.8059  155.7480 H   0  0  0  0  0  0  0  0  0  0  0  0
  148.6370  142.1390  153.0670 H   0  0  0  0  0  0  0  0  0  0  0  0
  148.0406  140.5038  153.2197 H   0  0  0  0  0  0  0  0  0  0  0  0
  146.8474  140.4374  156.1880 H   0  0  0  0  0  0  0  0  0  0  0  0
  142.9083  144.1944  155.9544 H   0  0  0  0  0  0  0  0  0  0  0  0
  144.1656  145.2873  156.5614 H   0  0  0  0  0  0  0  0  0  0  0  0
  141.8431  145.9959  154.9216 H   0  0  0  0  0  0  0  0  0  0  0  0
  143.1152  147.0893  155.5070 H   0  0  0  0  0  0  0  0  0  0  0  0
  143.2665  146.8126  152.9684 H   0  0  0  0  0  0  0  0  0  0  0  0
  1  2  1  0  0  0  0
  1 20  1  0  0  0  0
  1 21  1  0  0  0  0
  1 22  1  0  0  0  0
  2  3  1  0  0  0  0
  2 23  1  0  0  0  0
  2 24  1  0  0  0  0
  3  4  1  0  0  0  0
  3 25  1  0  0  0  0
  3 26  1  0  0  0  0
  4  5  1  0  0  0  0
  4 27  1  0  0  0  0
  4 28  1  0  0  0  0
  5  6  1  0  0  0  0
  5 29  1  0  0  0  0
  6  7  2  0  0  0  0
  6  8  1  0  0  0  0
  8  9  1  0  0  0  0
  8 30  1  0  0  0  0
  8 31  1  0  0  0  0
  9 19  1  0  0  0  0
  9 10  2  0  0  0  0
 10 11  1  0  0  0  0
 10 32  1  0  0  0  0
 11 12  1  0  0  0  0
 12 13  1  0  0  0  0
 12 19  2  0  0  0  0
 13 17  1  0  0  0  0
 13 14  1  0  0  0  0
 14 15  1  0  0  0  0
 14 33  1  0  0  0  0
 14 34  1  0  0  0  0
 15 16  1  0  0  0  0
 15 35  1  0  0  0  0
 15 36  1  0  0  0  0
 16 17  1  0  0  0  0
 16 37  1  0  0  0  0
 17 18  2  0  0  0  0
M  END
> <s_m_source_file>
AV-unprocessed.smi

> <i_m_source_file_index>
1358

> <i_lp_mmshare_version>
43012

> <i_f3d_flags>
0

> <s_epik_input>
W0NIM11bQ0gyXVtDSDJdW0NIMl1bTkhdQyg9TylbQ0gyXWMxW2NIXXNjKG4xKU4yW0NIMl1bQ0gyXVtOSF1DMj1P

> <s_epik_cmdline>
J2VwaWtfcHl0aG9uJywgJy1waCcsICc3LjAnLCAnLXRuJywgJzgnLCAnLW1hJywgJzIwMCcsICctbWV0YWxfYmluZGluZycsICctaW1hZScsICc8aW5maWxlLm1hZT4nLCAnLW9tYWUnLCAnPG91dGZpbGUubWFlPic=

> <r_lp_tautomer_probability>
1

> <r_epik_Ionization_Penalty>
0.000120185

> <r_epik_Ionization_Penalty_Charging>
0

> <r_epik_Ionization_Penalty_Neutral>
0.000120185

> <r_epik_State_Penalty>
-0

> <r_epik_Charging_Adjusted_Penalty>
0

> <i_epik_Tot_Q>
0

> <i_epik_Tot_abs_Q>
0

> <r_epik_Metal_State_Penalty>
-0

> <b_epik_Metal_Only>
0

> <s_lp_Force_Field>
OPLS_2005

> <r_lp_Energy>
29.7034

> <b_lp_Chiralities_Consistent>
1

> <s_lp_Variant>
AV-unprocessed.smi:1358-1

> <Gold.Version>
5.8.1

> <Gold.Id.Protein>
6NUR|6NUR_protein|mol2

> <Gold.PLP.Fitness>
43.8793

> <Gold.PLP.PLP>
-39.1480

> <Gold.PLP.part.hbond>
-3.7857

> <Gold.PLP.part.metal>
0.0000

> <Gold.PLP.part.buried>
-4.6416

> <Gold.PLP.part.nonpolar>
-31.4752

> <Gold.PLP.part.repulsive>
1.4563

> <Gold.PLP.ligand.clash>
0.0000

> <Gold.PLP.ligand.torsion>
0.6521

> <Gold.PLP.Chemscore.Hbond>
2.0000

> <Gold.PLP.Chemscore.CHOScore>
0.0000

> <Gold.PLP.Chemscore.Metal>
0.0000

> <Gold.Chemscore.Hbonds>
donor molecule, donor type, donor heavy atom, donor atom, acceptor molecule, acceptor atom, score
      L1  H     5    29       P1  8028  0.99
      P1  H  7989  7998       L1     7  0.80

> <Gold.PLP.Chemscore.Internal.Correction>
0.0355

> <Gold.Rescore>
     Score         DG    S(hbond)    S(metal)    S(lipo)     H(rot)  DE(clash)    DE(int)     intcor
     10.34     -12.33       1.00        0.00      73.07       1.97       0.34       1.64       ----

> <Gold.Chemscore.Fitness>
10.3382

> <Gold.Chemscore.DG>
-12.3267

> <Gold.Chemscore.ZeroCoef>
-5.4800

> <Gold.Chemscore.Hbond>
1.0016

> <Gold.Chemscore.Metal>
0.0000

> <Gold.Chemscore.Lipo>
73.0701

> <Gold.Chemscore.Internal_Hbond>
0.0000

> <Gold.Chemscore.DEClash>
0.3443

> <Gold.Chemscore.DEInternal>
1.6442

> <Gold.Chemscore.Rot>
1.9718

> <Gold.Chemscore.Internal.Correction>
   9.000000E+99

> <Gold.Chemscore.Hbonds>
donor molecule, donor type, donor heavy atom, donor atom, acceptor molecule, acceptor atom, score
      L1  H     5    29       P1  8028  0.93
      P1  H  7989  7998       L1     7  0.13

> <Gold.Chemscore.Hbond.Weighted>
-3.3453

> <Gold.Chemscore.Metal.Weighted>
-0.0000

> <Gold.Chemscore.Lipo.Weighted>
-8.5492

> <Gold.Chemscore.Internal_Hbond.Weighted>
0.0000

> <Gold.Chemscore.DEClash.Weighted>
0.3443

> <Gold.Chemscore.DEInternal.Weighted>
1.6442

> <Gold.Chemscore.Rot.Weighted>
5.0478

> <Gold.Chemscore.Internal.Correction.Weighted>
   9.000000E+99

> <Gold.Protein.RotatedTorsions>
[ 6907 6896 6895 6894 ] final  -80.50 input  -60.11 | X-H torsion
[ 7974 7965 7964 7962 ] final -119.83 input  175.53 | X-H torsion
[ 8008 7997 7996 7995 ] final  107.37 input   59.86 | X-H torsion
[ 10167 10162 10161 10158 ] final  150.60 input  -65.29 | X-H torsion
[ 10718 10713 10712 10709 ] final  171.82 input   66.30 | X-H torsion
[ 10763 10752 10751 10750 ] final  -40.67 input  -60.55 | X-H torsion
[ 11005 11000 10999 10996 ] final  -55.56 input  -57.11 | X-H torsion

> <Gold.Protein.ActiveResidues>
 VAL166  LYS551  ARG553  GLY616  TRP617  ASP618  TYR619  PRO620  LYS621  CYS622 
 ASP623  PHE694  ASN695  SER759  ASP760  ASP761  ALA762  ILE779  LEU786  VAL792 
 PHE793  MET794  SER795  GLU796  ALA797  LYS798  CYS799  TRP800  GLU811  SER814 

> <Gold.Protein.RotatedAtoms>
  150.6928  134.3960  159.5097 H   0  0  0  0  0  0  0  0  0  0  0  0  # atno 6907 bound_to 6896
  152.1741  134.8806  160.0541 H   0  0  0  0  0  0  0  0  0  0  0  0  # atno 6908 bound_to 6896
  151.9822  133.3727  159.4148 H   0  0  0  0  0  0  0  0  0  0  0  0  # atno 6909 bound_to 6896
  145.0581  140.8270  143.4168 H   0  0  0  0  0  0  0  0  0  0  0  0  # atno 7974 bound_to 7965
  156.1819  140.3096  155.9164 H   0  0  0  0  0  0  0  0  0  0  0  0  # atno 8008 bound_to 7997
  155.3366  140.0463  157.3061 H   0  0  0  0  0  0  0  0  0  0  0  0  # atno 8009 bound_to 7997
  154.5352  140.2243  155.8745 H   0  0  0  0  0  0  0  0  0  0  0  0  # atno 8010 bound_to 7997
  139.4848  144.5509  151.7402 H   0  0  0  0  0  0  0  0  0  0  0  0  # atno 10167 bound_to 10162
  156.9880  131.0139  151.2864 H   0  0  0  0  0  0  0  0  0  0  0  0  # atno 10718 bound_to 10713
  153.9498  135.6752  153.4744 H   0  0  0  0  0  0  0  0  0  0  0  0  # atno 10763 bound_to 10752
  153.0890  135.4884  154.8650 H   0  0  0  0  0  0  0  0  0  0  0  0  # atno 10764 bound_to 10752
  154.7332  135.3143  154.8815 H   0  0  0  0  0  0  0  0  0  0  0  0  # atno 10765 bound_to 10752
  141.1079  133.6612  156.4488 H   0  0  0  0  0  0  0  0  0  0  0  0  # atno 11005 bound_to 11000
  145.1442  139.2553  143.5474 LP  0  0  0  0  0  0  0  0  0  0  0  0  # atno 17320 bound_to 7965
  146.3522  140.1128  142.8603 LP  0  0  0  0  0  0  0  0  0  0  0  0  # atno 17321 bound_to 7965
  140.5063  144.1093  150.5983 LP  0  0  0  0  0  0  0  0  0  0  0  0  # atno 17342 bound_to 10162
  140.4003  143.2707  151.9955 LP  0  0  0  0  0  0  0  0  0  0  0  0  # atno 17343 bound_to 10162
  157.5479  130.8163  149.8108 LP  0  0  0  0  0  0  0  0  0  0  0  0  # atno 17370 bound_to 10713
  156.0218  130.3793  150.1939 LP  0  0  0  0  0  0  0  0  0  0  0  0  # atno 17371 bound_to 10713
  140.4852  134.6627  157.5188 LP  0  0  0  0  0  0  0  0  0  0  0  0  # atno 17394 bound_to 11000
  139.9959  134.6913  155.9611 LP  0  0  0  0  0  0  0  0  0  0  0  0  # atno 17395 bound_to 11000

$$$$
