AV-unprocessed.smi:2145|AV-procd|sdf|8737|dock8
  -GOLD-   2272011513D 1   1.00000     0.00000
 Structure written by MMmdl.
 45 47  0  0  0  0  0  0  0  0  2 V2000
  135.8980  141.3845  153.2363 C   0  0  0  0  0  0  0  0  0  0  0  0
  137.2776  141.7464  153.7837 C   0  0  0  0  0  0  0  0  0  0  0  0
  137.4784  142.8992  154.1650 O   0  0  0  0  0  0  0  0  0  0  0  0
  138.3122  140.6741  153.8264 C   0  0  0  0  0  0  0  0  0  0  0  0
  139.6100  140.9795  154.2934 C   0  0  0  0  0  0  0  0  0  0  0  0
  140.6051  139.9852  154.3445 C   0  0  0  0  0  0  0  0  0  0  0  0
  140.3307  138.6659  153.9343 C   0  0  0  0  0  0  0  0  0  0  0  0
  141.3627  137.7566  154.0202 O   0  0  0  0  0  0  0  0  0  0  0  0
  141.1075  136.4083  153.6497 C   0  0  0  0  0  0  0  0  0  0  0  0
  142.4480  135.7251  153.3392 C   0  0  1  0  0  0  0  0  0  0  0  0
  142.2389  134.3273  153.3058 O   0  0  0  0  0  0  0  0  0  0  0  0
  143.0305  136.1825  151.9869 C   0  0  0  0  0  0  0  0  0  0  0  0
  144.3936  135.6782  151.7532 N   0  0  0  0  0  0  0  0  0  0  0  0
  145.5963  136.2838  151.9678 C   0  0  0  0  0  0  0  0  0  0  0  0
  145.8182  137.6559  152.5093 C   0  0  0  0  0  0  0  0  0  0  0  0
  146.5661  135.4025  151.5939 N   0  3  0  0  0  0  0  0  0  0  0  0
  145.9799  134.2213  151.1374 C   0  0  0  0  0  0  0  0  0  0  0  0
  146.5526  133.0470  150.6586 C   0  0  0  0  0  0  0  0  0  0  0  0
  145.6649  132.0209  150.2740 C   0  0  0  0  0  0  0  0  0  0  0  0
  144.2679  132.1836  150.3735 C   0  0  0  0  0  0  0  0  0  0  0  0
  143.6988  133.3791  150.8599 C   0  0  0  0  0  0  0  0  0  0  0  0
  144.5831  134.3901  151.2370 C   0  0  0  0  0  0  0  0  0  0  0  0
  139.0307  138.3571  153.4638 C   0  0  0  0  0  0  0  0  0  0  0  0
  138.0340  139.3511  153.4107 C   0  0  0  0  0  0  0  0  0  0  0  0
  135.9728  141.0486  152.2019 H   0  0  0  0  0  0  0  0  0  0  0  0
  135.2369  142.2510  153.2661 H   0  0  0  0  0  0  0  0  0  0  0  0
  135.4464  140.5915  153.8327 H   0  0  0  0  0  0  0  0  0  0  0  0
  139.8575  141.9800  154.6182 H   0  0  0  0  0  0  0  0  0  0  0  0
  141.5913  140.2389  154.7049 H   0  0  0  0  0  0  0  0  0  0  0  0
  140.5678  135.8684  154.4302 H   0  0  0  0  0  0  0  0  0  0  0  0
  140.4862  136.4096  152.7525 H   0  0  0  0  0  0  0  0  0  0  0  0
  143.1638  135.9558  154.1291 H   0  0  0  0  0  0  0  0  0  0  0  0
  143.0601  133.9084  153.0962 H   0  0  0  0  0  0  0  0  0  0  0  0
  142.3868  135.8900  151.1569 H   0  0  0  0  0  0  0  0  0  0  0  0
  143.0846  137.2713  151.9558 H   0  0  0  0  0  0  0  0  0  0  0  0
  146.8839  137.8576  152.6198 H   0  0  0  0  0  0  0  0  0  0  0  0
  145.3436  137.7576  153.4854 H   0  0  0  0  0  0  0  0  0  0  0  0
  145.3925  138.3988  151.8347 H   0  0  0  0  0  0  0  0  0  0  0  0
  147.6226  132.9193  150.5840 H   0  0  0  0  0  0  0  0  0  0  0  0
  146.0632  131.0899  149.8973 H   0  0  0  0  0  0  0  0  0  0  0  0
  143.6187  131.3744  150.0721 H   0  0  0  0  0  0  0  0  0  0  0  0
  142.6275  133.4890  150.9382 H   0  0  0  0  0  0  0  0  0  0  0  0
  138.7712  137.3625  153.1347 H   0  0  0  0  0  0  0  0  0  0  0  0
  137.0571  139.0727  153.0445 H   0  0  0  0  0  0  0  0  0  0  0  0
  147.5575  135.5973  151.6494 H   0  0  0  0  0  0  0  0  0  0  0  0
  1  2  1  0  0  0  0
  1 25  1  0  0  0  0
  1 26  1  0  0  0  0
  1 27  1  0  0  0  0
  2  3  2  0  0  0  0
  2  4  1  0  0  0  0
  4 24  1  0  0  0  0
  4  5  2  0  0  0  0
  5  6  1  0  0  0  0
  5 28  1  0  0  0  0
  6  7  2  0  0  0  0
  6 29  1  0  0  0  0
  7  8  1  0  0  0  0
  7 23  1  0  0  0  0
  8  9  1  0  0  0  0
  9 10  1  0  0  0  0
  9 30  1  0  0  0  0
  9 31  1  0  0  0  0
 10 11  1  0  0  0  0
 10 12  1  0  0  0  0
 10 32  1  0  0  0  0
 11 33  1  0  0  0  0
 12 13  1  0  0  0  0
 12 34  1  0  0  0  0
 12 35  1  0  0  0  0
 13 22  1  0  0  0  0
 13 14  1  0  0  0  0
 14 15  1  0  0  0  0
 14 16  2  0  0  0  0
 15 36  1  0  0  0  0
 15 37  1  0  0  0  0
 15 38  1  0  0  0  0
 16 17  1  0  0  0  0
 16 45  1  0  0  0  0
 17 22  2  0  0  0  0
 17 18  1  0  0  0  0
 18 19  2  0  0  0  0
 18 39  1  0  0  0  0
 19 20  1  0  0  0  0
 19 40  1  0  0  0  0
 20 21  2  0  0  0  0
 20 41  1  0  0  0  0
 21 22  1  0  0  0  0
 21 42  1  0  0  0  0
 23 24  2  0  0  0  0
 23 43  1  0  0  0  0
 24 44  1  0  0  0  0
M  CHG  1  16   1
M  END
> <s_m_source_file>
AV-unprocessed.smi

> <i_m_source_file_index>
2145

> <i_lp_mmshare_version>
43012

> <i_f3d_flags>
0

> <s_epik_input>
W0NIM11DKD1PKWMxW2NIXVtjSF1jKFtjSF1bY0hdMSlPW0NIMl1bQ0BIXShbT0hdKVtDSDJdbihjKG4yKVtDSDNdKWMoYzIzKVtjSF1bY0hdW2NIXVtjSF0z

> <s_epik_cmdline>
J2VwaWtfcHl0aG9uJywgJy1waCcsICc3LjAnLCAnLXRuJywgJzgnLCAnLW1hJywgJzIwMCcsICctbWV0YWxfYmluZGluZycsICctaW1hZScsICc8aW5maWxlLm1hZT4nLCAnLW9tYWUnLCAnPG91dGZpbGUubWFlPic=

> <r_lp_tautomer_probability>
0.99995

> <r_epik_Ionization_Penalty>
1.05477

> <r_epik_Ionization_Penalty_Charging>
1.05477

> <r_epik_Ionization_Penalty_Neutral>
2.3993e-06

> <r_epik_State_Penalty>
1.10796

> <r_epik_Charging_Adjusted_Penalty>
2.16273

> <i_epik_Tot_Q>
1

> <i_epik_Tot_abs_Q>
1

> <r_epik_Metal_State_Penalty>
5.10164

> <b_epik_Metal_Only>
0

> <s_lp_Force_Field>
OPLS_2005

> <r_lp_Energy>
25.5273

> <b_lp_Chiralities_Consistent>
1

> <s_lp_Variant>
AV-unprocessed.smi:2145-4

> <Gold.Version>
5.8.1

> <Gold.Id.Protein>
6NUR|6NUR_protein|mol2

> <Gold.PLP.Fitness>
48.8914

> <Gold.PLP.PLP>
-43.9801

> <Gold.PLP.part.hbond>
-2.0000

> <Gold.PLP.part.metal>
0.0000

> <Gold.PLP.part.buried>
-7.3226

> <Gold.PLP.part.nonpolar>
-36.1794

> <Gold.PLP.part.repulsive>
0.2195

> <Gold.PLP.ligand.clash>
0.0000

> <Gold.PLP.ligand.torsion>
0.5623

> <Gold.PLP.Chemscore.Hbond>
2.0000

> <Gold.PLP.Chemscore.CHOScore>
0.0000

> <Gold.PLP.Chemscore.Metal>
0.0000

> <Gold.Chemscore.Hbonds>
donor molecule, donor type, donor heavy atom, donor atom, acceptor molecule, acceptor atom, score
      L1  H    16    45       P1  7948  1.89

> <Gold.PLP.Chemscore.Internal.Correction>
0.0359

> <Gold.Rescore>
     Score         DG    S(hbond)    S(metal)    S(lipo)     H(rot)  DE(clash)    DE(int)     intcor
     14.18     -16.01       0.98        0.00     112.22       2.30       1.18       0.65       ----

> <Gold.Chemscore.Fitness>
14.1825

> <Gold.Chemscore.DG>
-16.0088

> <Gold.Chemscore.ZeroCoef>
-5.4800

> <Gold.Chemscore.Hbond>
0.9828

> <Gold.Chemscore.Metal>
0.0000

> <Gold.Chemscore.Lipo>
112.2231

> <Gold.Chemscore.Internal_Hbond>
0.0000

> <Gold.Chemscore.DEClash>
1.1777

> <Gold.Chemscore.DEInternal>
0.6485

> <Gold.Chemscore.Rot>
2.2984

> <Gold.Chemscore.Internal.Correction>
   9.000000E+99

> <Gold.Chemscore.Hbonds>
donor molecule, donor type, donor heavy atom, donor atom, acceptor molecule, acceptor atom, score
      L1  H    16    45       P1  7948  0.89

> <Gold.Chemscore.Hbond.Weighted>
-3.2826

> <Gold.Chemscore.Metal.Weighted>
-0.0000

> <Gold.Chemscore.Lipo.Weighted>
-13.1301

> <Gold.Chemscore.Internal_Hbond.Weighted>
0.0000

> <Gold.Chemscore.DEClash.Weighted>
1.1777

> <Gold.Chemscore.DEInternal.Weighted>
0.6485

> <Gold.Chemscore.Rot.Weighted>
5.8839

> <Gold.Chemscore.Internal.Correction.Weighted>
   9.000000E+99

> <Gold.Protein.RotatedTorsions>
[ 6907 6896 6895 6894 ] final  115.98 input  -60.11 | X-H torsion
[ 7974 7965 7964 7962 ] final  140.85 input  175.53 | X-H torsion
[ 8008 7997 7996 7995 ] final -128.67 input   59.86 | X-H torsion
[ 10167 10162 10161 10158 ] final   -3.54 input  -65.29 | X-H torsion
[ 10718 10713 10712 10709 ] final  -46.88 input   66.30 | X-H torsion
[ 10763 10752 10751 10750 ] final  164.50 input  -60.55 | X-H torsion
[ 11005 11000 10999 10996 ] final  -53.68 input  -57.11 | X-H torsion

> <Gold.Protein.ActiveResidues>
 VAL166  LYS551  ARG553  GLY616  TRP617  ASP618  TYR619  PRO620  LYS621  CYS622 
 ASP623  PHE694  ASN695  SER759  ASP760  ASP761  ALA762  ILE779  LEU786  VAL792 
 PHE793  MET794  SER795  GLU796  ALA797  LYS798  CYS799  TRP800  GLU811  SER814 

> <Gold.Protein.RotatedAtoms>
  152.4707  133.8023  159.6959 H   0  0  0  0  0  0  0  0  0  0  0  0  # atno 6907 bound_to 6896
  150.8695  133.7517  159.2972 H   0  0  0  0  0  0  0  0  0  0  0  0  # atno 6908 bound_to 6896
  151.5056  135.1066  159.9892 H   0  0  0  0  0  0  0  0  0  0  0  0  # atno 6909 bound_to 6896
  144.9149  139.5244  143.5691 H   0  0  0  0  0  0  0  0  0  0  0  0  # atno 7974 bound_to 7965
  155.2666  140.0438  157.3003 H   0  0  0  0  0  0  0  0  0  0  0  0  # atno 8008 bound_to 7997
  154.5678  140.2365  155.8205 H   0  0  0  0  0  0  0  0  0  0  0  0  # atno 8009 bound_to 7997
  156.2099  140.3002  155.9717 H   0  0  0  0  0  0  0  0  0  0  0  0  # atno 8010 bound_to 7997
  140.6894  143.6528  150.8335 H   0  0  0  0  0  0  0  0  0  0  0  0  # atno 10167 bound_to 10162
  156.2139  130.4162  149.9079 H   0  0  0  0  0  0  0  0  0  0  0  0  # atno 10718 bound_to 10713
  154.3099  135.2757  155.2571 H   0  0  0  0  0  0  0  0  0  0  0  0  # atno 10763 bound_to 10752
  154.4971  135.5818  153.6506 H   0  0  0  0  0  0  0  0  0  0  0  0  # atno 10764 bound_to 10752
  152.9889  135.6148  154.3275 H   0  0  0  0  0  0  0  0  0  0  0  0  # atno 10765 bound_to 10752
  141.0988  133.6621  156.4208 H   0  0  0  0  0  0  0  0  0  0  0  0  # atno 11005 bound_to 11000
  146.3177  139.7984  142.8970 LP  0  0  0  0  0  0  0  0  0  0  0  0  # atno 17320 bound_to 7965
  145.3392  141.0284  143.3402 LP  0  0  0  0  0  0  0  0  0  0  0  0  # atno 17321 bound_to 7965
  140.0239  143.5514  152.2789 LP  0  0  0  0  0  0  0  0  0  0  0  0  # atno 17342 bound_to 10162
  139.6282  144.7640  151.2593 LP  0  0  0  0  0  0  0  0  0  0  0  0  # atno 17343 bound_to 10162
  156.6747  130.8834  151.3567 LP  0  0  0  0  0  0  0  0  0  0  0  0  # atno 17370 bound_to 10713
  157.7053  130.9378  150.0912 LP  0  0  0  0  0  0  0  0  0  0  0  0  # atno 17371 bound_to 10713
  140.5074  134.6428  157.5271 LP  0  0  0  0  0  0  0  0  0  0  0  0  # atno 17394 bound_to 11000
  139.9833  134.7102  155.9820 LP  0  0  0  0  0  0  0  0  0  0  0  0  # atno 17395 bound_to 11000

$$$$
