AV-unprocessed.smi:2641|AV-procd|sdf|10273|dock6
  -GOLD-   2272014283D 1   1.00000     0.00000
 Structure written by MMmdl.
 40 41  0  0  0  0  0  0  0  0  3 V2000
  149.6786  133.2796  154.1781 C   0  0  0  0  0  0  0  0  0  0  0  0
  149.2137  134.3532  155.1392 C   0  0  0  0  0  0  0  0  0  0  0  0
  148.9293  134.0801  156.4945 C   0  0  0  0  0  0  0  0  0  0  0  0
  148.4977  135.1297  157.3320 C   0  0  0  0  0  0  0  0  0  0  0  0
  148.3595  136.4304  156.7988 C   0  0  0  0  0  0  0  0  0  0  0  0
  147.8953  137.5807  157.6742 C   0  0  0  0  0  0  0  0  0  0  0  0
  149.0914  138.4055  158.1532 C   0  0  0  0  0  0  0  0  0  0  0  0
  149.4900  138.2689  159.3089 O   0  0  0  0  0  0  0  0  0  0  0  0
  149.6235  139.2392  157.2399 N   0  0  0  0  0  0  0  0  0  0  0  0
  150.7694  140.1620  157.2913 C   0  0  0  0  0  0  0  0  0  0  0  0
  151.5986  139.8304  156.0240 C   0  0  0  0  0  0  0  0  0  0  0  0
  152.8005  139.5171  156.1785 O   0  0  0  0  0  0  0  0  0  0  0  0
  151.0393  139.9447  154.9105 O   0  5  0  0  0  0  0  0  0  0  0  0
  150.1933  141.6058  157.2266 C   0  0  0  0  0  0  0  0  0  0  0  0
  151.2737  142.7023  157.3140 C   0  0  0  0  0  0  0  0  0  0  0  0
  152.1264  142.5454  158.5812 C   0  0  0  0  0  0  0  0  0  0  0  0
  152.7356  141.1388  158.6685 C   0  0  0  0  0  0  0  0  0  0  0  0
  151.6440  140.0539  158.5819 C   0  0  0  0  0  0  0  0  0  0  0  0
  148.6581  136.6434  155.4356 C   0  0  0  0  0  0  0  0  0  0  0  0
  149.0680  135.6114  154.6661 N   0  3  0  0  0  0  0  0  0  0  0  0
  149.8353  132.3316  154.6937 H   0  0  0  0  0  0  0  0  0  0  0  0
  150.6185  133.5695  153.7074 H   0  0  0  0  0  0  0  0  0  0  0  0
  148.9347  133.1233  153.3963 H   0  0  0  0  0  0  0  0  0  0  0  0
  149.0379  133.0805  156.8901 H   0  0  0  0  0  0  0  0  0  0  0  0
  148.2721  134.9360  158.3708 H   0  0  0  0  0  0  0  0  0  0  0  0
  147.2168  138.2259  157.1148 H   0  0  0  0  0  0  0  0  0  0  0  0
  147.3293  137.1900  158.5216 H   0  0  0  0  0  0  0  0  0  0  0  0
  149.1822  139.2110  156.3322 H   0  0  0  0  0  0  0  0  0  0  0  0
  149.6006  141.7522  156.3224 H   0  0  0  0  0  0  0  0  0  0  0  0
  149.4940  141.7451  158.0522 H   0  0  0  0  0  0  0  0  0  0  0  0
  151.9162  142.6690  156.4335 H   0  0  0  0  0  0  0  0  0  0  0  0
  150.8020  143.6851  157.3075 H   0  0  0  0  0  0  0  0  0  0  0  0
  152.9171  143.2959  158.5940 H   0  0  0  0  0  0  0  0  0  0  0  0
  151.5092  142.7302  159.4611 H   0  0  0  0  0  0  0  0  0  0  0  0
  153.4678  141.0042  157.8718 H   0  0  0  0  0  0  0  0  0  0  0  0
  153.2841  141.0339  159.6048 H   0  0  0  0  0  0  0  0  0  0  0  0
  151.0094  140.1665  159.4617 H   0  0  0  0  0  0  0  0  0  0  0  0
  152.1059  139.0692  158.6679 H   0  0  0  0  0  0  0  0  0  0  0  0
  148.5782  137.6004  154.9404 H   0  0  0  0  0  0  0  0  0  0  0  0
  149.2759  135.7902  153.6834 H   0  0  0  0  0  0  0  0  0  0  0  0
  1  2  1  0  0  0  0
  1 21  1  0  0  0  0
  1 22  1  0  0  0  0
  1 23  1  0  0  0  0
  2 20  1  0  0  0  0
  2  3  2  0  0  0  0
  3  4  1  0  0  0  0
  3 24  1  0  0  0  0
  4  5  2  0  0  0  0
  4 25  1  0  0  0  0
  5  6  1  0  0  0  0
  5 19  1  0  0  0  0
  6  7  1  0  0  0  0
  6 26  1  0  0  0  0
  6 27  1  0  0  0  0
  7  8  2  0  0  0  0
  7  9  1  0  0  0  0
  9 10  1  0  0  0  0
  9 28  1  0  0  0  0
 10 18  1  0  0  0  0
 10 11  1  0  0  0  0
 10 14  1  0  0  0  0
 11 12  2  0  0  0  0
 11 13  1  0  0  0  0
 14 15  1  0  0  0  0
 14 29  1  0  0  0  0
 14 30  1  0  0  0  0
 15 16  1  0  0  0  0
 15 31  1  0  0  0  0
 15 32  1  0  0  0  0
 16 17  1  0  0  0  0
 16 33  1  0  0  0  0
 16 34  1  0  0  0  0
 17 18  1  0  0  0  0
 17 35  1  0  0  0  0
 17 36  1  0  0  0  0
 18 37  1  0  0  0  0
 18 38  1  0  0  0  0
 19 20  2  0  0  0  0
 19 39  1  0  0  0  0
 20 40  1  0  0  0  0
M  CHG  1  13  -1
M  CHG  1  20   1
M  END
> <s_m_source_file>
AV-unprocessed.smi

> <i_m_source_file_index>
2641

> <i_lp_mmshare_version>
43012

> <i_f3d_flags>
0

> <s_epik_input>
W0NIM11jMVtjSF1bY0hdYyhbY0hdbjEpW0NIMl1DKD1PKVtOSF1DMihDKD1PKVtPSF0pW0NIMl1bQ0gyXVtDSDJdW0NIMl1bQ0gyXTI=

> <s_epik_cmdline>
J2VwaWtfcHl0aG9uJywgJy1waCcsICc3LjAnLCAnLXRuJywgJzgnLCAnLW1hJywgJzIwMCcsICctbWV0YWxfYmluZGluZycsICctaW1hZScsICc8aW5maWxlLm1hZT4nLCAnLW9tYWUnLCAnPG91dGZpbGUubWFlPic=

> <r_epik_Ionization_Penalty>
2.05743

> <r_epik_Ionization_Penalty_Charging>
2.05743

> <r_epik_Ionization_Penalty_Neutral>
6.51537e-08

> <r_epik_State_Penalty>
2.19002

> <r_epik_Charging_Adjusted_Penalty>
4.24745

> <i_epik_Tot_Q>
0

> <i_epik_Tot_abs_Q>
2

> <r_epik_Metal_State_Penalty>
2.2083

> <b_epik_Metal_Only>
0

> <s_lp_Force_Field>
OPLS_2005

> <r_lp_Energy>
7.8147

> <b_lp_Chiralities_Consistent>
1

> <s_lp_Variant>
AV-unprocessed.smi:2641-2

> <Gold.Version>
5.8.1

> <Gold.Id.Protein>
6NUR|6NUR_protein|mol2

> <Gold.PLP.Fitness>
40.5953

> <Gold.PLP.PLP>
-26.8614

> <Gold.PLP.part.hbond>
-4.1532

> <Gold.PLP.part.metal>
0.0000

> <Gold.PLP.part.buried>
-4.9642

> <Gold.PLP.part.nonpolar>
-17.3719

> <Gold.PLP.part.repulsive>
0.1004

> <Gold.PLP.ligand.clash>
0.0000

> <Gold.PLP.ligand.torsion>
0.6593

> <Gold.PLP.Chemscore.Hbond>
5.0000

> <Gold.PLP.Chemscore.CHOScore>
0.0000

> <Gold.PLP.Chemscore.Metal>
0.0000

> <Gold.Chemscore.Hbonds>
donor molecule, donor type, donor heavy atom, donor atom, acceptor molecule, acceptor atom, score
      L1  H    20    40       P1  7948  2.00
      P1  H  7989  7998       L1    13  1.00
      P1  H  7997  8009       L1    12  2.00

> <Gold.PLP.Chemscore.Internal.Correction>
0.0525

> <Gold.Rescore>
     Score         DG    S(hbond)    S(metal)    S(lipo)     H(rot)  DE(clash)    DE(int)     intcor
     14.97     -17.95       2.99        0.00      63.11       1.91       0.03       2.96       ----

> <Gold.Chemscore.Fitness>
14.9711

> <Gold.Chemscore.DG>
-17.9540

> <Gold.Chemscore.ZeroCoef>
-5.4800

> <Gold.Chemscore.Hbond>
2.9917

> <Gold.Chemscore.Metal>
0.0000

> <Gold.Chemscore.Lipo>
63.1110

> <Gold.Chemscore.Internal_Hbond>
0.0000

> <Gold.Chemscore.DEClash>
0.0270

> <Gold.Chemscore.DEInternal>
2.9559

> <Gold.Chemscore.Rot>
1.9149

> <Gold.Chemscore.Internal.Correction>
   9.000000E+99

> <Gold.Chemscore.Hbonds>
donor molecule, donor type, donor heavy atom, donor atom, acceptor molecule, acceptor atom, score
      L1  H    20    40       P1  7948  0.65
      P1  H  7989  7998       L1    13  1.00
      P1  H  7997  8009       L1    12  1.00

> <Gold.Chemscore.Hbond.Weighted>
-9.9923

> <Gold.Chemscore.Metal.Weighted>
-0.0000

> <Gold.Chemscore.Lipo.Weighted>
-7.3840

> <Gold.Chemscore.Internal_Hbond.Weighted>
0.0000

> <Gold.Chemscore.DEClash.Weighted>
0.0270

> <Gold.Chemscore.DEInternal.Weighted>
2.9559

> <Gold.Chemscore.Rot.Weighted>
4.9023

> <Gold.Chemscore.Internal.Correction.Weighted>
   9.000000E+99

> <Gold.Protein.RotatedTorsions>
[ 6907 6896 6895 6894 ] final  115.72 input  -60.11 | X-H torsion
[ 7974 7965 7964 7962 ] final  -63.95 input  175.53 | X-H torsion
[ 8008 7997 7996 7995 ] final -166.53 input   59.86 | X-H torsion
[ 10167 10162 10161 10158 ] final -178.02 input  -65.29 | X-H torsion
[ 10718 10713 10712 10709 ] final   33.88 input   66.30 | X-H torsion
[ 10763 10752 10751 10750 ] final   89.17 input  -60.55 | X-H torsion
[ 11005 11000 10999 10996 ] final  -83.64 input  -57.11 | X-H torsion

> <Gold.Protein.ActiveResidues>
 VAL166  LYS551  ARG553  GLY616  TRP617  ASP618  TYR619  PRO620  LYS621  CYS622 
 ASP623  PHE694  ASN695  SER759  ASP760  ASP761  ALA762  ILE779  LEU786  VAL792 
 PHE793  MET794  SER795  GLU796  ALA797  LYS798  CYS799  TRP800  GLU811  SER814 

> <Gold.Protein.RotatedAtoms>
  152.4723  133.8059  159.6977 H   0  0  0  0  0  0  0  0  0  0  0  0  # atno 6907 bound_to 6896
  150.8720  133.7483  159.2965 H   0  0  0  0  0  0  0  0  0  0  0  0  # atno 6908 bound_to 6896
  151.5015  135.1065  159.9882 H   0  0  0  0  0  0  0  0  0  0  0  0  # atno 6909 bound_to 6896
  145.7727  140.8804  143.0371 H   0  0  0  0  0  0  0  0  0  0  0  0  # atno 7974 bound_to 7965
  155.8651  140.0984  157.1587 H   0  0  0  0  0  0  0  0  0  0  0  0  # atno 8008 bound_to 7997
  154.3993  140.1357  156.4071 H   0  0  0  0  0  0  0  0  0  0  0  0  # atno 8009 bound_to 7997
  155.7813  140.3458  155.5301 H   0  0  0  0  0  0  0  0  0  0  0  0  # atno 8010 bound_to 7997
  139.5452  144.2255  152.0974 H   0  0  0  0  0  0  0  0  0  0  0  0  # atno 10167 bound_to 10162
  157.3033  130.7362  149.6680 H   0  0  0  0  0  0  0  0  0  0  0  0  # atno 10718 bound_to 10713
  153.1843  135.4480  155.0068 H   0  0  0  0  0  0  0  0  0  0  0  0  # atno 10763 bound_to 10752
  154.8050  135.3271  154.7456 H   0  0  0  0  0  0  0  0  0  0  0  0  # atno 10764 bound_to 10752
  153.7917  135.6969  153.4925 H   0  0  0  0  0  0  0  0  0  0  0  0  # atno 10765 bound_to 10752
  141.1656  133.7305  156.8750 H   0  0  0  0  0  0  0  0  0  0  0  0  # atno 11005 bound_to 11000
  144.6810  139.9878  143.7484 LP  0  0  0  0  0  0  0  0  0  0  0  0  # atno 17320 bound_to 7965
  146.0153  139.3204  143.0845 LP  0  0  0  0  0  0  0  0  0  0  0  0  # atno 17321 bound_to 7965
  140.1740  144.4908  150.6564 LP  0  0  0  0  0  0  0  0  0  0  0  0  # atno 17342 bound_to 10162
  140.6698  143.2281  151.5654 LP  0  0  0  0  0  0  0  0  0  0  0  0  # atno 17343 bound_to 10162
  155.9673  130.4273  150.4738 LP  0  0  0  0  0  0  0  0  0  0  0  0  # atno 17370 bound_to 10713
  157.2723  131.0589  151.2252 LP  0  0  0  0  0  0  0  0  0  0  0  0  # atno 17371 bound_to 10713
  140.1754  134.9070  157.2885 LP  0  0  0  0  0  0  0  0  0  0  0  0  # atno 17394 bound_to 11000
  140.2454  134.3746  155.7463 LP  0  0  0  0  0  0  0  0  0  0  0  0  # atno 17395 bound_to 11000

$$$$
