AV-unprocessed.smi:240|AV-procd|sdf|1833|dock4
  -GOLD-   2262020443D 1   1.00000     0.00000
 Structure written by MMmdl.
 55 59  0  0  0  0  0  0  0  0  1 V2000
  149.8500  140.6579  153.8466 O   0  0  0  0  0  0  0  0  0  0  0  0
  149.7369  139.5256  154.6847 C   0  0  1  0  0  0  0  0  0  0  0  0
  150.2595  138.3185  153.8969 C   0  0  0  0  0  0  0  0  0  0  0  0
  151.7802  138.2901  154.1321 C   0  0  0  0  0  0  0  0  0  0  0  0
  152.0594  139.2236  155.3219 C   0  0  0  0  0  0  0  0  0  0  0  0
  150.6781  139.5604  155.9026 C   0  0  1  0  0  0  0  0  0  0  0  0
  150.5942  140.7623  156.9024 C   0  0  2  0  0  0  0  0  0  0  0  0
  150.8612  142.1486  156.2555 C   0  0  0  0  0  0  0  0  0  0  0  0
  150.8164  143.1855  157.2283 O   0  0  0  0  0  0  0  0  0  0  0  0
  151.8124  143.0196  158.2251 C   0  0  0  0  0  0  0  0  0  0  0  0
  151.5303  141.7149  158.9753 C   0  0  0  0  0  0  0  0  0  0  0  0
  151.5043  140.5891  158.0480 N   0  0  0  0  0  0  0  0  0  0  0  0
  151.4225  139.4311  158.7435 C   0  0  0  0  0  0  0  0  0  0  0  0
  152.4968  138.9705  159.4380 N   0  0  0  0  0  0  0  0  0  0  0  0
  152.4090  137.8222  160.1163 C   0  0  0  0  0  0  0  0  0  0  0  0
  151.3675  136.9936  160.2241 N   0  0  0  0  0  0  0  0  0  0  0  0
  150.2934  137.4499  159.5172 C   0  0  0  0  0  0  0  0  0  0  0  0
  150.2379  138.6501  158.7560 C   0  0  0  0  0  0  0  0  0  0  0  0
  148.9835  138.7941  158.1788 N   0  0  0  0  0  0  0  0  0  0  0  0
  148.3314  137.7359  158.5771 C   0  0  0  0  0  0  0  0  0  0  0  0
  149.0447  136.8695  159.3762 N   0  0  0  0  0  0  0  0  0  0  0  0
  148.5657  135.6229  159.9554 C   0  0  0  0  0  0  0  0  0  0  0  0
  147.4519  135.8154  161.0130 C   0  0  2  0  0  0  0  0  0  0  0  0
  147.5385  137.1294  161.5351 O   0  0  0  0  0  0  0  0  0  0  0  0
  147.5625  134.8142  162.1652 C   0  0  0  0  0  0  0  0  0  0  0  0
  146.3896  133.8698  161.9325 C   0  0  0  0  0  0  0  0  0  0  0  0
  145.3948  134.7348  161.4152 O   0  0  0  0  0  0  0  0  0  0  0  0
  146.0296  135.5787  160.4652 C   0  0  0  0  0  0  0  0  0  0  0  0
  149.5258  140.4283  152.9890 H   0  0  0  0  0  0  0  0  0  0  0  0
  148.6934  139.4015  154.9764 H   0  0  0  0  0  0  0  0  0  0  0  0
  149.8205  137.4086  154.3087 H   0  0  0  0  0  0  0  0  0  0  0  0
  149.9959  138.3474  152.8388 H   0  0  0  0  0  0  0  0  0  0  0  0
  152.1166  137.2734  154.3378 H   0  0  0  0  0  0  0  0  0  0  0  0
  152.3164  138.6372  153.2482 H   0  0  0  0  0  0  0  0  0  0  0  0
  152.7112  138.7590  156.0624 H   0  0  0  0  0  0  0  0  0  0  0  0
  152.5623  140.1207  154.9629 H   0  0  0  0  0  0  0  0  0  0  0  0
  150.3789  138.6729  156.4608 H   0  0  0  0  0  0  0  0  0  0  0  0
  149.5788  140.7876  157.3011 H   0  0  0  0  0  0  0  0  0  0  0  0
  151.8236  142.1782  155.7445 H   0  0  0  0  0  0  0  0  0  0  0  0
  150.0988  142.3946  155.5207 H   0  0  0  0  0  0  0  0  0  0  0  0
  152.8074  143.0110  157.7769 H   0  0  0  0  0  0  0  0  0  0  0  0
  151.7750  143.8652  158.9117 H   0  0  0  0  0  0  0  0  0  0  0  0
  152.2957  141.5586  159.7371 H   0  0  0  0  0  0  0  0  0  0  0  0
  150.5715  141.7854  159.4914 H   0  0  0  0  0  0  0  0  0  0  0  0
  153.3011  137.5235  160.6467 H   0  0  0  0  0  0  0  0  0  0  0  0
  147.3050  137.5543  158.2929 H   0  0  0  0  0  0  0  0  0  0  0  0
  148.2038  134.9864  159.1468 H   0  0  0  0  0  0  0  0  0  0  0  0
  149.4179  135.1015  160.3933 H   0  0  0  0  0  0  0  0  0  0  0  0
  147.0936  137.1490  162.3687 H   0  0  0  0  0  0  0  0  0  0  0  0
  148.5176  134.2886  162.1962 H   0  0  0  0  0  0  0  0  0  0  0  0
  147.4313  135.3090  163.1291 H   0  0  0  0  0  0  0  0  0  0  0  0
  146.6394  133.1075  161.1922 H   0  0  0  0  0  0  0  0  0  0  0  0
  146.0597  133.3730  162.8451 H   0  0  0  0  0  0  0  0  0  0  0  0
  145.4626  136.4967  160.3049 H   0  0  0  0  0  0  0  0  0  0  0  0
  146.0565  135.0404  159.5176 H   0  0  0  0  0  0  0  0  0  0  0  0
  1  2  1  0  0  0  0
  1 29  1  0  0  0  0
  2  6  1  0  0  0  0
  2  3  1  0  0  0  0
  2 30  1  0  0  0  0
  3  4  1  0  0  0  0
  3 31  1  0  0  0  0
  3 32  1  0  0  0  0
  4  5  1  0  0  0  0
  4 33  1  0  0  0  0
  4 34  1  0  0  0  0
  5  6  1  0  0  0  0
  5 35  1  0  0  0  0
  5 36  1  0  0  0  0
  6  7  1  0  0  0  0
  6 37  1  0  0  0  0
  7 12  1  0  0  0  0
  7  8  1  0  0  0  0
  7 38  1  0  0  0  0
  8  9  1  0  0  0  0
  8 39  1  0  0  0  0
  8 40  1  0  0  0  0
  9 10  1  0  0  0  0
 10 11  1  0  0  0  0
 10 41  1  0  0  0  0
 10 42  1  0  0  0  0
 11 12  1  0  0  0  0
 11 43  1  0  0  0  0
 11 44  1  0  0  0  0
 12 13  1  0  0  0  0
 13 18  1  0  0  0  0
 13 14  2  0  0  0  0
 14 15  1  0  0  0  0
 15 16  2  0  0  0  0
 15 45  1  0  0  0  0
 16 17  1  0  0  0  0
 17 21  1  0  0  0  0
 17 18  2  0  0  0  0
 18 19  1  0  0  0  0
 19 20  2  0  0  0  0
 20 21  1  0  0  0  0
 20 46  1  0  0  0  0
 21 22  1  0  0  0  0
 22 23  1  0  0  0  0
 22 47  1  0  0  0  0
 22 48  1  0  0  0  0
 23 28  1  0  0  0  0
 23 24  1  0  0  0  0
 23 25  1  0  0  0  0
 24 49  1  0  0  0  0
 25 26  1  0  0  0  0
 25 50  1  0  0  0  0
 25 51  1  0  0  0  0
 26 27  1  0  0  0  0
 26 52  1  0  0  0  0
 26 53  1  0  0  0  0
 27 28  1  0  0  0  0
 28 54  1  0  0  0  0
 28 55  1  0  0  0  0
M  END
> <s_m_source_file>
AV-unprocessed.smi

> <i_m_source_file_index>
240

> <i_lp_mmshare_version>
43012

> <i_f3d_flags>
0

> <s_epik_input>
W09IXVtDQEBIXTFbQ0gyXVtDSDJdW0NIMl1bQ0BIXTFbQ0BASF0yW0NIMl1PW0NIMl1bQ0gyXU4yYyhuW2NIXW4zKWMoYzM0KW5bY0hdbjRbQ0gyXVtDQEBdNShbT0hdKVtDSDJdW0NIMl1PW0NIMl01

> <s_epik_cmdline>
J2VwaWtfcHl0aG9uJywgJy1waCcsICc3LjAnLCAnLXRuJywgJzgnLCAnLW1hJywgJzIwMCcsICctbWV0YWxfYmluZGluZycsICctaW1hZScsICc8aW5maWxlLm1hZT4nLCAnLW9tYWUnLCAnPG91dGZpbGUubWFlPic=

> <r_lp_tautomer_probability>
1

> <r_epik_Ionization_Penalty>
0.000130618

> <r_epik_Ionization_Penalty_Charging>
0

> <r_epik_Ionization_Penalty_Neutral>
0.000130618

> <r_epik_State_Penalty>
-0

> <r_epik_Charging_Adjusted_Penalty>
0

> <i_epik_Tot_Q>
0

> <i_epik_Tot_abs_Q>
0

> <r_epik_Metal_State_Penalty>
-0

> <b_epik_Metal_Only>
0

> <s_lp_Force_Field>
OPLS_2005

> <r_lp_Energy>
64.6726

> <b_lp_Chiralities_Consistent>
1

> <s_lp_Variant>
AV-unprocessed.smi:240-10

> <Gold.Version>
5.8.1

> <Gold.Id.Protein>
6NUR|6NUR_protein|mol2

> <Gold.PLP.Fitness>
52.4821

> <Gold.PLP.PLP>
-42.1041

> <Gold.PLP.part.hbond>
-5.1932

> <Gold.PLP.part.metal>
0.0000

> <Gold.PLP.part.buried>
-3.5915

> <Gold.PLP.part.nonpolar>
-33.8234

> <Gold.PLP.part.repulsive>
0.8534

> <Gold.PLP.ligand.clash>
0.0000

> <Gold.PLP.ligand.torsion>
1.3148

> <Gold.PLP.Chemscore.Hbond>
4.2560

> <Gold.PLP.Chemscore.CHOScore>
0.0000

> <Gold.PLP.Chemscore.Metal>
0.0000

> <Gold.Chemscore.Hbonds>
donor molecule, donor type, donor heavy atom, donor atom, acceptor molecule, acceptor atom, score
      L1  H     1    29       P1  7957  1.00
      P1  H  6896  6909       L1    16  1.00
      P1  H  6931  6943       L1    24  0.99
      P1  H  6934  6947       L1    24  0.79
      P1  H  7989  7998       L1     1  0.56

> <Gold.PLP.Chemscore.Internal.Correction>
0.2396

> <Gold.Rescore>
     Score         DG    S(hbond)    S(metal)    S(lipo)     H(rot)  DE(clash)    DE(int)     intcor
     12.00     -16.97       2.15        0.00     102.52       3.00       1.58       3.39       ----

> <Gold.Chemscore.Fitness>
12.0006

> <Gold.Chemscore.DG>
-16.9707

> <Gold.Chemscore.ZeroCoef>
-5.4800

> <Gold.Chemscore.Hbond>
2.1514

> <Gold.Chemscore.Metal>
0.0000

> <Gold.Chemscore.Lipo>
102.5211

> <Gold.Chemscore.Internal_Hbond>
0.0000

> <Gold.Chemscore.DEClash>
1.5772

> <Gold.Chemscore.DEInternal>
3.3929

> <Gold.Chemscore.Rot>
3.0039

> <Gold.Chemscore.Internal.Correction>
   9.000000E+99

> <Gold.Chemscore.Hbonds>
donor molecule, donor type, donor heavy atom, donor atom, acceptor molecule, acceptor atom, score
      L1  H     1    29       P1  7957  0.99
      P1  H  6896  6909       L1    16  0.29
      P1  H  6931  6943       L1    24  0.24
      P1  H  6934  6947       L1    24  0.17
      P1  H  7989  7998       L1     1  0.09

> <Gold.Chemscore.Hbond.Weighted>
-7.1856

> <Gold.Chemscore.Metal.Weighted>
-0.0000

> <Gold.Chemscore.Lipo.Weighted>
-11.9950

> <Gold.Chemscore.Internal_Hbond.Weighted>
0.0000

> <Gold.Chemscore.DEClash.Weighted>
1.5772

> <Gold.Chemscore.DEInternal.Weighted>
3.3929

> <Gold.Chemscore.Rot.Weighted>
7.6899

> <Gold.Chemscore.Internal.Correction.Weighted>
   9.000000E+99

> <Gold.Protein.RotatedTorsions>
[ 6907 6896 6895 6894 ] final   98.78 input  -60.11 | X-H torsion
[ 7974 7965 7964 7962 ] final  -48.42 input  175.53 | X-H torsion
[ 8008 7997 7996 7995 ] final   41.12 input   59.86 | X-H torsion
[ 10167 10162 10161 10158 ] final  -69.57 input  -65.29 | X-H torsion
[ 10718 10713 10712 10709 ] final   83.61 input   66.30 | X-H torsion
[ 10763 10752 10751 10750 ] final  -54.13 input  -60.55 | X-H torsion
[ 11005 11000 10999 10996 ] final  -49.54 input  -57.11 | X-H torsion

> <Gold.Protein.ActiveResidues>
 VAL166  LYS551  ARG553  GLY616  TRP617  ASP618  TYR619  PRO620  LYS621  CYS622 
 ASP623  PHE694  ASN695  SER759  ASP760  ASP761  ALA762  ILE779  LEU786  VAL792 
 PHE793  MET794  SER795  GLU796  ALA797  LYS798  CYS799  TRP800  GLU811  SER814 

> <Gold.Protein.RotatedAtoms>
  152.5403  134.0529  159.8117 H   0  0  0  0  0  0  0  0  0  0  0  0  # atno 6907 bound_to 6896
  151.0668  133.5491  159.2637 H   0  0  0  0  0  0  0  0  0  0  0  0  # atno 6908 bound_to 6896
  151.2369  135.0583  159.9063 H   0  0  0  0  0  0  0  0  0  0  0  0  # atno 6909 bound_to 6896
  145.9513  140.7569  142.9503 H   0  0  0  0  0  0  0  0  0  0  0  0  # atno 7974 bound_to 7965
  155.2644  140.3361  155.4270 H   0  0  0  0  0  0  0  0  0  0  0  0  # atno 8008 bound_to 7997
  156.2160  140.1789  156.7630 H   0  0  0  0  0  0  0  0  0  0  0  0  # atno 8009 bound_to 7997
  154.5754  140.0662  156.9011 H   0  0  0  0  0  0  0  0  0  0  0  0  # atno 8010 bound_to 7997
  140.5420  143.2314  151.7071 H   0  0  0  0  0  0  0  0  0  0  0  0  # atno 10167 bound_to 10162
  157.6882  131.0098  150.2549 H   0  0  0  0  0  0  0  0  0  0  0  0  # atno 10718 bound_to 10713
  154.1699  135.6461  153.5007 H   0  0  0  0  0  0  0  0  0  0  0  0  # atno 10763 bound_to 10752
  153.0087  135.5381  154.6624 H   0  0  0  0  0  0  0  0  0  0  0  0  # atno 10764 bound_to 10752
  154.5960  135.2939  155.0558 H   0  0  0  0  0  0  0  0  0  0  0  0  # atno 10765 bound_to 10752
  141.0765  133.6664  156.3600 H   0  0  0  0  0  0  0  0  0  0  0  0  # atno 11005 bound_to 11000
  144.6796  140.2440  143.7340 LP  0  0  0  0  0  0  0  0  0  0  0  0  # atno 17320 bound_to 7965
  145.8167  139.2026  143.1962 LP  0  0  0  0  0  0  0  0  0  0  0  0  # atno 17321 bound_to 7965
  139.4992  144.3953  152.0237 LP  0  0  0  0  0  0  0  0  0  0  0  0  # atno 17342 bound_to 10162
  140.3063  144.3589  150.6046 LP  0  0  0  0  0  0  0  0  0  0  0  0  # atno 17343 bound_to 10162
  156.3139  130.3776  149.7636 LP  0  0  0  0  0  0  0  0  0  0  0  0  # atno 17370 bound_to 10713
  156.5228  130.8222  151.3209 LP  0  0  0  0  0  0  0  0  0  0  0  0  # atno 17371 bound_to 10713
  140.5562  134.5979  157.5421 LP  0  0  0  0  0  0  0  0  0  0  0  0  # atno 17394 bound_to 11000
  139.9577  134.7506  156.0305 LP  0  0  0  0  0  0  0  0  0  0  0  0  # atno 17395 bound_to 11000

$$$$
