AV-unprocessed.smi:415|AV-procd|sdf|2521|dock8
  -GOLD-   2262022473D 1   1.00000     0.00000
 Structure written by MMmdl.
 53 54  0  0  0  0  0  0  0  0  1 V2000
  153.6889  142.0276  160.5462 C   0  0  0  0  0  0  0  0  0  0  0  0
  153.3449  141.1743  159.4686 O   0  0  0  0  0  0  0  0  0  0  0  0
  153.2285  139.8188  159.8648 C   0  0  0  0  0  0  0  0  0  0  0  0
  152.8250  138.9808  158.6426 C   0  0  0  0  0  0  0  0  0  0  0  0
  151.4027  139.0406  158.3681 N   0  0  0  0  0  0  0  0  0  0  0  0
  150.7904  140.1170  157.7325 C   0  0  0  0  0  0  0  0  0  0  0  0
  151.5557  141.1915  157.3159 N   0  0  0  0  0  0  0  0  0  0  0  0
  149.4592  140.1322  157.4984 C   0  0  0  0  0  0  0  0  0  0  0  0
  148.5965  139.0257  157.8886 C   0  0  0  0  0  0  0  0  0  0  0  0
  147.3788  139.0310  157.7054 O   0  0  0  0  0  0  0  0  0  0  0  0
  149.2444  137.9297  158.5034 N   0  0  0  0  0  0  0  0  0  0  0  0
  148.4311  136.7707  158.9335 C   0  0  0  0  0  0  0  0  0  0  0  0
  148.2297  136.6984  160.4545 C   0  0  0  0  0  0  0  0  0  0  0  0
  149.1858  136.5394  161.2151 O   0  0  0  0  0  0  0  0  0  0  0  0
  146.9650  136.8309  160.8811 N   0  0  0  0  0  0  0  0  0  0  0  0
  146.5275  136.7964  162.2775 C   0  0  1  0  0  0  0  0  0  0  0  0
  145.6395  138.0141  162.6019 C   0  0  0  0  0  0  0  0  0  0  0  0
  144.2745  137.9256  161.9049 C   0  0  0  0  0  0  0  0  0  0  0  0
  143.5615  136.6143  162.2606 C   0  0  0  0  0  0  0  0  0  0  0  0
  144.4163  135.3756  161.9208 C   0  0  2  0  0  0  0  0  0  0  0  0
  143.6448  134.0955  162.2887 C   0  0  0  0  0  0  0  0  0  0  0  0
  145.8084  135.4622  162.6076 C   0  0  1  0  0  0  0  0  0  0  0  0
  146.7120  134.2506  162.3000 C   0  0  0  0  0  0  0  0  0  0  0  0
  150.6361  137.9098  158.7500 C   0  0  0  0  0  0  0  0  0  0  0  0
  151.1594  136.9289  159.2865 O   0  0  0  0  0  0  0  0  0  0  0  0
  153.7632  143.0551  160.1902 H   0  0  0  0  0  0  0  0  0  0  0  0
  154.6515  141.7500  160.9775 H   0  0  0  0  0  0  0  0  0  0  0  0
  152.9316  141.9979  161.3308 H   0  0  0  0  0  0  0  0  0  0  0  0
  154.1796  139.4642  160.2653 H   0  0  0  0  0  0  0  0  0  0  0  0
  152.4821  139.7251  160.6554 H   0  0  0  0  0  0  0  0  0  0  0  0
  153.3585  139.2839  157.7398 H   0  0  0  0  0  0  0  0  0  0  0  0
  153.0819  137.9311  158.7808 H   0  0  0  0  0  0  0  0  0  0  0  0
  152.5552  141.2220  157.4588 H   0  0  0  0  0  0  0  0  0  0  0  0
  151.1499  141.9765  156.8271 H   0  0  0  0  0  0  0  0  0  0  0  0
  149.0126  140.9846  157.0067 H   0  0  0  0  0  0  0  0  0  0  0  0
  147.4477  136.7755  158.4614 H   0  0  0  0  0  0  0  0  0  0  0  0
  148.8816  135.8375  158.5907 H   0  0  0  0  0  0  0  0  0  0  0  0
  146.2450  136.9641  160.1857 H   0  0  0  0  0  0  0  0  0  0  0  0
  147.4146  136.8534  162.9116 H   0  0  0  0  0  0  0  0  0  0  0  0
  145.4865  138.0683  163.6804 H   0  0  0  0  0  0  0  0  0  0  0  0
  146.1432  138.9401  162.3224 H   0  0  0  0  0  0  0  0  0  0  0  0
  143.6552  138.7746  162.1952 H   0  0  0  0  0  0  0  0  0  0  0  0
  144.4027  137.9945  160.8239 H   0  0  0  0  0  0  0  0  0  0  0  0
  143.3195  136.6127  163.3243 H   0  0  0  0  0  0  0  0  0  0  0  0
  142.6098  136.5676  161.7302 H   0  0  0  0  0  0  0  0  0  0  0  0
  144.5673  135.3634  160.8404 H   0  0  0  0  0  0  0  0  0  0  0  0
  143.5199  134.0034  163.3680 H   0  0  0  0  0  0  0  0  0  0  0  0
  144.1526  133.2002  161.9312 H   0  0  0  0  0  0  0  0  0  0  0  0
  142.6513  134.0953  161.8398 H   0  0  0  0  0  0  0  0  0  0  0  0
  145.6381  135.4584  163.6855 H   0  0  0  0  0  0  0  0  0  0  0  0
  146.8300  134.0970  161.2269 H   0  0  0  0  0  0  0  0  0  0  0  0
  146.3102  133.3312  162.7250 H   0  0  0  0  0  0  0  0  0  0  0  0
  147.7061  134.3871  162.7267 H   0  0  0  0  0  0  0  0  0  0  0  0
  1  2  1  0  0  0  0
  1 26  1  0  0  0  0
  1 27  1  0  0  0  0
  1 28  1  0  0  0  0
  2  3  1  0  0  0  0
  3  4  1  0  0  0  0
  3 29  1  0  0  0  0
  3 30  1  0  0  0  0
  4  5  1  0  0  0  0
  4 31  1  0  0  0  0
  4 32  1  0  0  0  0
  5 24  1  0  0  0  0
  5  6  1  0  0  0  0
  6  7  1  0  0  0  0
  6  8  2  0  0  0  0
  7 33  1  0  0  0  0
  7 34  1  0  0  0  0
  8  9  1  0  0  0  0
  8 35  1  0  0  0  0
  9 10  2  0  0  0  0
  9 11  1  0  0  0  0
 11 12  1  0  0  0  0
 11 24  1  0  0  0  0
 12 13  1  0  0  0  0
 12 36  1  0  0  0  0
 12 37  1  0  0  0  0
 13 14  2  0  0  0  0
 13 15  1  0  0  0  0
 15 16  1  0  0  0  0
 15 38  1  0  0  0  0
 16 22  1  0  0  0  0
 16 17  1  0  0  0  0
 16 39  1  0  0  0  0
 17 18  1  0  0  0  0
 17 40  1  0  0  0  0
 17 41  1  0  0  0  0
 18 19  1  0  0  0  0
 18 42  1  0  0  0  0
 18 43  1  0  0  0  0
 19 20  1  0  0  0  0
 19 44  1  0  0  0  0
 19 45  1  0  0  0  0
 20 21  1  0  0  0  0
 20 22  1  0  0  0  0
 20 46  1  0  0  0  0
 21 47  1  0  0  0  0
 21 48  1  0  0  0  0
 21 49  1  0  0  0  0
 22 23  1  0  0  0  0
 22 50  1  0  0  0  0
 23 51  1  0  0  0  0
 23 52  1  0  0  0  0
 23 53  1  0  0  0  0
 24 25  2  0  0  0  0
M  END
> <s_m_source_file>
AV-unprocessed.smi

> <i_m_source_file_index>
415

> <i_lp_mmshare_version>
43012

> <i_f3d_flags>
0

> <s_epik_input>
W0NIM11PW0NIMl1bQ0gyXW4xYyhbTkgyXSlbY0hdYyg9TyluKGMxPU8pW0NIMl1DKD1PKVtOSF1bQ0BASF0yW0NIMl1bQ0gyXVtDSDJdW0NAQEhdKFtDSDNdKVtDQEhdMltDSDNd

> <s_epik_cmdline>
J2VwaWtfcHl0aG9uJywgJy1waCcsICc3LjAnLCAnLXRuJywgJzgnLCAnLW1hJywgJzIwMCcsICctbWV0YWxfYmluZGluZycsICctaW1hZScsICc8aW5maWxlLm1hZT4nLCAnLW9tYWUnLCAnPG91dGZpbGUubWFlPic=

> <r_lp_tautomer_probability>
1

> <r_epik_Ionization_Penalty>
8.6647e-06

> <r_epik_Ionization_Penalty_Charging>
1.81162e-08

> <r_epik_Ionization_Penalty_Neutral>
8.64658e-06

> <r_epik_State_Penalty>
-0

> <r_epik_Charging_Adjusted_Penalty>
1.81162e-08

> <i_epik_Tot_Q>
0

> <i_epik_Tot_abs_Q>
0

> <r_epik_Metal_State_Penalty>
-0

> <b_epik_Metal_Only>
0

> <s_lp_Force_Field>
OPLS_2005

> <r_lp_Energy>
19.0862

> <b_lp_Chiralities_Consistent>
1

> <s_lp_Variant>
AV-unprocessed.smi:415-4

> <Gold.Version>
5.8.1

> <Gold.Id.Protein>
6NUR|6NUR_protein|mol2

> <Gold.PLP.Fitness>
42.0513

> <Gold.PLP.PLP>
-37.4199

> <Gold.PLP.part.hbond>
-2.0000

> <Gold.PLP.part.metal>
0.0000

> <Gold.PLP.part.buried>
-3.6837

> <Gold.PLP.part.nonpolar>
-32.5466

> <Gold.PLP.part.repulsive>
0.2286

> <Gold.PLP.ligand.clash>
0.0000

> <Gold.PLP.ligand.torsion>
0.6412

> <Gold.PLP.Chemscore.Hbond>
1.9513

> <Gold.PLP.Chemscore.CHOScore>
0.0000

> <Gold.PLP.Chemscore.Metal>
0.0000

> <Gold.Chemscore.Hbonds>
donor molecule, donor type, donor heavy atom, donor atom, acceptor molecule, acceptor atom, score
      P1  H  6896  6908       L1    25  1.00
      P1  H  6931  6943       L1    14  0.70

> <Gold.PLP.Chemscore.Internal.Correction>
0.0602

> <Gold.Rescore>
     Score         DG    S(hbond)    S(metal)    S(lipo)     H(rot)  DE(clash)    DE(int)     intcor
     13.29     -14.80       1.95        0.00      73.59       2.26       0.71       0.80       ----

> <Gold.Chemscore.Fitness>
13.2921

> <Gold.Chemscore.DG>
-14.7958

> <Gold.Chemscore.ZeroCoef>
-5.4800

> <Gold.Chemscore.Hbond>
1.9470

> <Gold.Chemscore.Metal>
0.0000

> <Gold.Chemscore.Lipo>
73.5881

> <Gold.Chemscore.Internal_Hbond>
0.0000

> <Gold.Chemscore.DEClash>
0.7087

> <Gold.Chemscore.DEInternal>
0.7950

> <Gold.Chemscore.Rot>
2.2645

> <Gold.Chemscore.Internal.Correction>
   9.000000E+99

> <Gold.Chemscore.Hbonds>
donor molecule, donor type, donor heavy atom, donor atom, acceptor molecule, acceptor atom, score
      P1  H  6896  6908       L1    25  0.99
      P1  H  6931  6943       L1    14  0.07

> <Gold.Chemscore.Hbond.Weighted>
-6.5031

> <Gold.Chemscore.Metal.Weighted>
-0.0000

> <Gold.Chemscore.Lipo.Weighted>
-8.6098

> <Gold.Chemscore.Internal_Hbond.Weighted>
0.0000

> <Gold.Chemscore.DEClash.Weighted>
0.7087

> <Gold.Chemscore.DEInternal.Weighted>
0.7950

> <Gold.Chemscore.Rot.Weighted>
5.7972

> <Gold.Chemscore.Internal.Correction.Weighted>
   9.000000E+99

> <Gold.Protein.RotatedTorsions>
[ 6907 6896 6895 6894 ] final -140.03 input  -60.11 | X-H torsion
[ 7974 7965 7964 7962 ] final  -82.58 input  175.53 | X-H torsion
[ 8008 7997 7996 7995 ] final   40.29 input   59.86 | X-H torsion
[ 10167 10162 10161 10158 ] final  147.38 input  -65.29 | X-H torsion
[ 10718 10713 10712 10709 ] final    0.11 input   66.30 | X-H torsion
[ 10763 10752 10751 10750 ] final -110.60 input  -60.55 | X-H torsion
[ 11005 11000 10999 10996 ] final  -66.69 input  -57.11 | X-H torsion

> <Gold.Protein.ActiveResidues>
 VAL166  LYS551  ARG553  GLY616  TRP617  ASP618  TYR619  PRO620  LYS621  CYS622 
 ASP623  PHE694  ASN695  SER759  ASP760  ASP761  ALA762  ILE779  LEU786  VAL792 
 PHE793  MET794  SER795  GLU796  ALA797  LYS798  CYS799  TRP800  GLU811  SER814 

> <Gold.Protein.RotatedAtoms>
  151.0554  133.5589  159.2638 H   0  0  0  0  0  0  0  0  0  0  0  0  # atno 6907 bound_to 6896
  151.2584  135.0645  159.9098 H   0  0  0  0  0  0  0  0  0  0  0  0  # atno 6908 bound_to 6896
  152.5389  134.0303  159.8076 H   0  0  0  0  0  0  0  0  0  0  0  0  # atno 6909 bound_to 6896
  145.5314  140.9521  143.1601 H   0  0  0  0  0  0  0  0  0  0  0  0  # atno 7974 bound_to 7965
  155.2506  140.3352  155.4282 H   0  0  0  0  0  0  0  0  0  0  0  0  # atno 8008 bound_to 7997
  156.2217  140.1812  156.7504 H   0  0  0  0  0  0  0  0  0  0  0  0  # atno 8009 bound_to 7997
  154.5836  140.0649  156.9124 H   0  0  0  0  0  0  0  0  0  0  0  0  # atno 8010 bound_to 7997
  139.4891  144.5759  151.6965 H   0  0  0  0  0  0  0  0  0  0  0  0  # atno 10167 bound_to 10162
  156.8285  130.5480  149.5689 H   0  0  0  0  0  0  0  0  0  0  0  0  # atno 10718 bound_to 10713
  154.8257  135.4558  154.0911 H   0  0  0  0  0  0  0  0  0  0  0  0  # atno 10763 bound_to 10752
  153.2227  135.6896  153.7988 H   0  0  0  0  0  0  0  0  0  0  0  0  # atno 10764 bound_to 10752
  153.7399  135.3314  155.3278 H   0  0  0  0  0  0  0  0  0  0  0  0  # atno 10765 bound_to 10752
  141.1489  133.6704  156.6178 H   0  0  0  0  0  0  0  0  0  0  0  0  # atno 11005 bound_to 11000
  144.7624  139.6925  143.7229 LP  0  0  0  0  0  0  0  0  0  0  0  0  # atno 17320 bound_to 7965
  146.2042  139.5355  142.9723 LP  0  0  0  0  0  0  0  0  0  0  0  0  # atno 17321 bound_to 7965
  140.5355  144.0662  150.6069 LP  0  0  0  0  0  0  0  0  0  0  0  0  # atno 17342 bound_to 10162
  140.3666  143.2878  152.0324 LP  0  0  0  0  0  0  0  0  0  0  0  0  # atno 17343 bound_to 10162
  156.0948  130.5924  150.9795 LP  0  0  0  0  0  0  0  0  0  0  0  0  # atno 17370 bound_to 10713
  157.6419  131.0909  150.8233 LP  0  0  0  0  0  0  0  0  0  0  0  0  # atno 17371 bound_to 10713
  140.3564  134.7725  157.4503 LP  0  0  0  0  0  0  0  0  0  0  0  0  # atno 17394 bound_to 11000
  140.0819  134.5719  155.8531 LP  0  0  0  0  0  0  0  0  0  0  0  0  # atno 17395 bound_to 11000

$$$$
