AV-unprocessed.smi:1041|AV-procd|sdf|4532|dock6
  -GOLD-   22720 2553D 1   1.00000     0.00000
 Structure written by MMmdl.
 52 53  0  0  0  0  0  0  0  0  1 V2000
  152.4940  143.3346  161.4762 C   0  0  0  0  0  0  0  0  0  0  0  0
  152.2543  143.9485  160.2222 O   0  0  0  0  0  0  0  0  0  0  0  0
  152.5143  143.0787  159.1324 C   0  0  0  0  0  0  0  0  0  0  0  0
  151.1828  142.6041  158.5276 C   0  0  0  0  0  0  0  0  0  0  0  0
  151.2915  141.8618  157.2710 N   0  0  0  0  0  0  0  0  0  0  0  0
  149.9761  141.7037  156.6516 C   0  0  0  0  0  0  0  0  0  0  0  0
  150.0457  140.9991  155.2871 C   0  0  0  0  0  0  0  0  0  0  0  0
  150.7063  139.6147  155.4178 C   0  0  0  0  0  0  0  0  0  0  0  0
  150.8170  138.9183  154.0467 C   0  0  0  0  0  0  0  0  0  0  0  0
  150.4309  137.5129  154.1181 N   0  0  0  0  0  0  0  0  0  0  0  0
  150.9632  136.5923  154.9369 C   0  0  0  0  0  0  0  0  0  0  0  0
  151.8658  136.8328  155.7378 O   0  0  0  0  0  0  0  0  0  0  0  0
  150.3705  135.1847  154.8524 C   0  0  0  0  0  0  0  0  0  0  0  0
  149.7653  134.6404  156.1458 C   0  0  0  0  0  0  0  0  0  0  0  0
  150.2584  133.5432  156.7913 C   0  0  0  0  0  0  0  0  0  0  0  0
  151.4545  132.7574  156.2824 C   0  0  0  0  0  0  0  0  0  0  0  0
  149.6845  133.0701  157.9796 N   0  0  0  0  0  0  0  0  0  0  0  0
  148.6638  133.6942  158.4685 C   0  0  0  0  0  0  0  0  0  0  0  0
  147.9539  133.2854  159.7418 C   0  0  0  0  0  0  0  0  0  0  0  0
  148.1105  134.8182  157.8579 N   0  0  0  0  0  0  0  0  0  0  0  0
  148.5946  135.3408  156.7091 C   0  0  0  0  0  0  0  0  0  0  0  0
  148.0591  136.3241  156.1997 O   0  0  0  0  0  0  0  0  0  0  0  0
  152.0661  139.7767  156.1290 C   0  0  0  0  0  0  0  0  0  0  0  0
  151.9110  140.5464  157.4519 C   0  0  0  0  0  0  0  0  0  0  0  0
  147.3103  135.2628  158.2838 H   0  0  0  0  0  0  0  0  0  0  0  0
  152.2774  144.0412  162.2774 H   0  0  0  0  0  0  0  0  0  0  0  0
  153.5359  143.0264  161.5715 H   0  0  0  0  0  0  0  0  0  0  0  0
  151.8561  142.4610  161.6164 H   0  0  0  0  0  0  0  0  0  0  0  0
  153.1324  143.5764  158.3846 H   0  0  0  0  0  0  0  0  0  0  0  0
  153.0789  142.2131  159.4818 H   0  0  0  0  0  0  0  0  0  0  0  0
  150.6461  142.0040  159.2637 H   0  0  0  0  0  0  0  0  0  0  0  0
  150.5690  143.4904  158.3617 H   0  0  0  0  0  0  0  0  0  0  0  0
  149.3176  141.1440  157.3177 H   0  0  0  0  0  0  0  0  0  0  0  0
  149.5152  142.6828  156.5149 H   0  0  0  0  0  0  0  0  0  0  0  0
  149.0416  140.8984  154.8737 H   0  0  0  0  0  0  0  0  0  0  0  0
  150.6099  141.6167  154.5867 H   0  0  0  0  0  0  0  0  0  0  0  0
  150.0659  139.0015  156.0545 H   0  0  0  0  0  0  0  0  0  0  0  0
  150.1461  139.4016  153.3360 H   0  0  0  0  0  0  0  0  0  0  0  0
  151.8230  139.0349  153.6400 H   0  0  0  0  0  0  0  0  0  0  0  0
  149.6871  137.2175  153.5021 H   0  0  0  0  0  0  0  0  0  0  0  0
  149.6041  135.1794  154.0769 H   0  0  0  0  0  0  0  0  0  0  0  0
  151.1413  134.5104  154.4774 H   0  0  0  0  0  0  0  0  0  0  0  0
  152.3458  133.3845  156.2631 H   0  0  0  0  0  0  0  0  0  0  0  0
  151.2687  132.3847  155.2749 H   0  0  0  0  0  0  0  0  0  0  0  0
  151.6649  131.8985  156.9209 H   0  0  0  0  0  0  0  0  0  0  0  0
  147.5861  132.2627  159.6542 H   0  0  0  0  0  0  0  0  0  0  0  0
  147.1046  133.9356  159.9565 H   0  0  0  0  0  0  0  0  0  0  0  0
  148.6416  133.3321  160.5865 H   0  0  0  0  0  0  0  0  0  0  0  0
  152.5105  138.8024  156.3317 H   0  0  0  0  0  0  0  0  0  0  0  0
  152.7637  140.3066  155.4785 H   0  0  0  0  0  0  0  0  0  0  0  0
  152.8999  140.6544  157.8955 H   0  0  0  0  0  0  0  0  0  0  0  0
  151.3214  139.9522  158.1517 H   0  0  0  0  0  0  0  0  0  0  0  0
  1  2  1  0  0  0  0
  1 26  1  0  0  0  0
  1 27  1  0  0  0  0
  1 28  1  0  0  0  0
  2  3  1  0  0  0  0
  3  4  1  0  0  0  0
  3 29  1  0  0  0  0
  3 30  1  0  0  0  0
  4  5  1  0  0  0  0
  4 31  1  0  0  0  0
  4 32  1  0  0  0  0
  5 24  1  0  0  0  0
  5  6  1  0  0  0  0
  6  7  1  0  0  0  0
  6 33  1  0  0  0  0
  6 34  1  0  0  0  0
  7  8  1  0  0  0  0
  7 35  1  0  0  0  0
  7 36  1  0  0  0  0
  8  9  1  0  0  0  0
  8 23  1  0  0  0  0
  8 37  1  0  0  0  0
  9 10  1  0  0  0  0
  9 38  1  0  0  0  0
  9 39  1  0  0  0  0
 10 11  1  0  0  0  0
 10 40  1  0  0  0  0
 11 12  2  0  0  0  0
 11 13  1  0  0  0  0
 13 14  1  0  0  0  0
 13 41  1  0  0  0  0
 13 42  1  0  0  0  0
 14 21  1  0  0  0  0
 14 15  2  0  0  0  0
 15 16  1  0  0  0  0
 15 17  1  0  0  0  0
 16 43  1  0  0  0  0
 16 44  1  0  0  0  0
 16 45  1  0  0  0  0
 17 18  2  0  0  0  0
 18 19  1  0  0  0  0
 18 20  1  0  0  0  0
 19 46  1  0  0  0  0
 19 47  1  0  0  0  0
 19 48  1  0  0  0  0
 20 25  1  0  0  0  0
 20 21  1  0  0  0  0
 21 22  2  0  0  0  0
 23 24  1  0  0  0  0
 23 49  1  0  0  0  0
 23 50  1  0  0  0  0
 24 51  1  0  0  0  0
 24 52  1  0  0  0  0
M  END
> <s_m_source_file>
AV-unprocessed.smi

> <i_m_source_file_index>
1041

> <i_lp_mmshare_version>
43012

> <i_f3d_flags>
0

> <s_epik_input>
W0NIM11PW0NIMl1bQ0gyXU4xW0NIMl1bQ0gyXVtDSF0oW0NIMl1bQ0gyXTEpW0NIMl1bTkhdQyg9TylbQ0gyXWMyYyhbQ0gzXSluYyhbQ0gzXSlbbkhdYzI9Tw==

> <s_epik_cmdline>
J2VwaWtfcHl0aG9uJywgJy1waCcsICc3LjAnLCAnLXRuJywgJzgnLCAnLW1hJywgJzIwMCcsICctbWV0YWxfYmluZGluZycsICctaW1hZScsICc8aW5maWxlLm1hZT4nLCAnLW9tYWUnLCAnPG91dGZpbGUubWFlPic=

> <r_lp_tautomer_probability>
0.839158

> <r_epik_Ionization_Penalty>
2.47116

> <r_epik_Ionization_Penalty_Charging>
0.00036358

> <r_epik_Ionization_Penalty_Neutral>
2.4708

> <r_epik_State_Penalty>
2.72392

> <r_epik_Charging_Adjusted_Penalty>
2.72428

> <i_epik_Tot_Q>
0

> <i_epik_Tot_abs_Q>
0

> <r_epik_Metal_State_Penalty>
2.89755

> <b_epik_Metal_Only>
0

> <s_lp_Force_Field>
OPLS_2005

> <r_lp_Energy>
27.3294

> <b_lp_Chiralities_Consistent>
1

> <s_lp_Variant>
AV-unprocessed.smi:1041-5

> <Gold.Version>
5.8.1

> <Gold.Id.Protein>
6NUR|6NUR_protein|mol2

> <Gold.PLP.Fitness>
43.7996

> <Gold.PLP.PLP>
-37.1884

> <Gold.PLP.part.hbond>
-3.6961

> <Gold.PLP.part.metal>
0.0000

> <Gold.PLP.part.buried>
-3.4319

> <Gold.PLP.part.nonpolar>
-29.7350

> <Gold.PLP.part.repulsive>
0.2683

> <Gold.PLP.ligand.clash>
0.0000

> <Gold.PLP.ligand.torsion>
1.0252

> <Gold.PLP.Chemscore.Hbond>
2.8382

> <Gold.PLP.Chemscore.CHOScore>
0.0000

> <Gold.PLP.Chemscore.Metal>
0.0000

> <Gold.Chemscore.Hbonds>
donor molecule, donor type, donor heavy atom, donor atom, acceptor molecule, acceptor atom, score
      L1  H    10    40       P1  7948  1.00
      P1  H  6896  6908       L1    17  0.80
      P1  H 10752 10764       L1    12  0.86

> <Gold.PLP.Chemscore.Internal.Correction>
0.1470

> <Gold.Rescore>
     Score         DG    S(hbond)    S(metal)    S(lipo)     H(rot)  DE(clash)    DE(int)     intcor
     14.87     -16.08       1.58        0.00      97.11       2.36       0.13       1.08       ----

> <Gold.Chemscore.Fitness>
14.8717

> <Gold.Chemscore.DG>
-16.0774

> <Gold.Chemscore.ZeroCoef>
-5.4800

> <Gold.Chemscore.Hbond>
1.5799

> <Gold.Chemscore.Metal>
0.0000

> <Gold.Chemscore.Lipo>
97.1065

> <Gold.Chemscore.Internal_Hbond>
0.0000

> <Gold.Chemscore.DEClash>
0.1297

> <Gold.Chemscore.DEInternal>
1.0760

> <Gold.Chemscore.Rot>
2.3598

> <Gold.Chemscore.Internal.Correction>
   9.000000E+99

> <Gold.Chemscore.Hbonds>
donor molecule, donor type, donor heavy atom, donor atom, acceptor molecule, acceptor atom, score
      L1  H    10    40       P1  7948  0.68
      P1  H  6896  6908       L1    17  0.04
      P1  H 10752 10764       L1    12  0.20

> <Gold.Chemscore.Hbond.Weighted>
-5.2770

> <Gold.Chemscore.Metal.Weighted>
-0.0000

> <Gold.Chemscore.Lipo.Weighted>
-11.3615

> <Gold.Chemscore.Internal_Hbond.Weighted>
0.0000

> <Gold.Chemscore.DEClash.Weighted>
0.1297

> <Gold.Chemscore.DEInternal.Weighted>
1.0760

> <Gold.Chemscore.Rot.Weighted>
6.0410

> <Gold.Chemscore.Internal.Correction.Weighted>
   9.000000E+99

> <Gold.Protein.RotatedTorsions>
[ 6907 6896 6895 6894 ] final  109.16 input  -60.11 | X-H torsion
[ 7974 7965 7964 7962 ] final   84.80 input  175.53 | X-H torsion
[ 8008 7997 7996 7995 ] final   66.32 input   59.86 | X-H torsion
[ 10167 10162 10161 10158 ] final  110.72 input  -65.29 | X-H torsion
[ 10718 10713 10712 10709 ] final  105.69 input   66.30 | X-H torsion
[ 10763 10752 10751 10750 ] final  -21.41 input  -60.55 | X-H torsion
[ 11005 11000 10999 10996 ] final -146.50 input  -57.11 | X-H torsion

> <Gold.Protein.ActiveResidues>
 VAL166  LYS551  ARG553  GLY616  TRP617  ASP618  TYR619  PRO620  LYS621  CYS622 
 ASP623  PHE694  ASN695  SER759  ASP760  ASP761  ALA762  ILE779  LEU786  VAL792 
 PHE793  MET794  SER795  GLU796  ALA797  LYS798  CYS799  TRP800  GLU811  SER814 

> <Gold.Protein.RotatedAtoms>
  152.5080  133.8984  159.7428 H   0  0  0  0  0  0  0  0  0  0  0  0  # atno 6907 bound_to 6896
  150.9406  133.6652  159.2798 H   0  0  0  0  0  0  0  0  0  0  0  0  # atno 6908 bound_to 6896
  151.3965  135.0969  159.9595 H   0  0  0  0  0  0  0  0  0  0  0  0  # atno 6909 bound_to 6896
  145.5939  139.2342  143.2283 H   0  0  0  0  0  0  0  0  0  0  0  0  # atno 7974 bound_to 7965
  155.6755  140.3497  155.4835 H   0  0  0  0  0  0  0  0  0  0  0  0  # atno 8008 bound_to 7997
  155.9651  140.1145  157.0884 H   0  0  0  0  0  0  0  0  0  0  0  0  # atno 8009 bound_to 7997
  154.4152  140.1168  156.5218 H   0  0  0  0  0  0  0  0  0  0  0  0  # atno 8010 bound_to 7997
  139.6666  144.7127  151.1765 H   0  0  0  0  0  0  0  0  0  0  0  0  # atno 10167 bound_to 10162
  157.6696  131.0833  150.5894 H   0  0  0  0  0  0  0  0  0  0  0  0  # atno 10718 bound_to 10713
  153.6357  135.6987  153.5259 H   0  0  0  0  0  0  0  0  0  0  0  0  # atno 10763 bound_to 10752
  153.2823  135.4182  155.1090 H   0  0  0  0  0  0  0  0  0  0  0  0  # atno 10764 bound_to 10752
  154.8511  135.3605  154.5900 H   0  0  0  0  0  0  0  0  0  0  0  0  # atno 10765 bound_to 10752
  140.7813  134.3075  157.5044 H   0  0  0  0  0  0  0  0  0  0  0  0  # atno 11005 bound_to 11000
  146.1626  140.6765  142.9270 LP  0  0  0  0  0  0  0  0  0  0  0  0  # atno 17320 bound_to 7965
  144.7339  140.4752  143.6918 LP  0  0  0  0  0  0  0  0  0  0  0  0  # atno 17321 bound_to 7965
  140.7602  143.5909  150.8797 LP  0  0  0  0  0  0  0  0  0  0  0  0  # atno 17342 bound_to 10162
  139.9571  143.6206  152.3013 LP  0  0  0  0  0  0  0  0  0  0  0  0  # atno 17343 bound_to 10162
  156.6194  130.4402  149.5828 LP  0  0  0  0  0  0  0  0  0  0  0  0  # atno 17370 bound_to 10713
  156.2367  130.6827  151.1516 LP  0  0  0  0  0  0  0  0  0  0  0  0  # atno 17371 bound_to 10713
  139.8742  134.9320  156.3543 LP  0  0  0  0  0  0  0  0  0  0  0  0  # atno 17394 bound_to 11000
  140.9479  133.7470  156.0233 LP  0  0  0  0  0  0  0  0  0  0  0  0  # atno 17395 bound_to 11000

$$$$
