AV-unprocessed.smi:1421|AV-procd|sdf|5790|dock3
  -GOLD-   22720 5433D 1   1.00000     0.00000
 Structure written by MMmdl.
 45 46  0  0  0  0  0  0  0  0  1 V2000
  147.0750  136.5695  162.9292 C   0  0  0  0  0  0  0  0  0  0  0  0
  146.0624  135.2968  162.0736 S   0  0  0  0  0  0  0  0  0  0  0  0
  146.9580  134.2271  161.6080 O   0  0  0  0  0  0  0  0  0  0  0  0
  144.8963  134.9716  162.9085 O   0  0  0  0  0  0  0  0  0  0  0  0
  145.4846  136.1536  160.6903 N   0  0  0  0  0  0  0  0  0  0  0  0
  145.8498  135.6732  159.3563 C   0  0  0  0  0  0  0  0  0  0  0  0
  147.3798  135.6189  159.1872 C   0  0  0  0  0  0  0  0  0  0  0  0
  148.0556  136.9674  159.4520 C   0  0  0  0  0  0  0  0  0  0  0  0
  147.8076  137.5972  160.4803 O   0  0  0  0  0  0  0  0  0  0  0  0
  148.9213  137.3897  158.5172 N   0  0  0  0  0  0  0  0  0  0  0  0
  149.7223  138.6088  158.5833 C   0  0  0  0  0  0  0  0  0  0  0  0
  150.6017  138.7942  157.3532 C   0  0  0  0  0  0  0  0  0  0  0  0
  150.2734  138.1189  156.1580 C   0  0  0  0  0  0  0  0  0  0  0  0
  151.0945  138.2815  155.0274 C   0  0  0  0  0  0  0  0  0  0  0  0
  152.2198  139.1183  155.1361 C   0  0  0  0  0  0  0  0  0  0  0  0
  152.5471  139.7721  156.2697 N   0  0  0  0  0  0  0  0  0  0  0  0
  151.7587  139.6178  157.3616 C   0  0  0  0  0  0  0  0  0  0  0  0
  152.1133  140.3308  158.5190 N   0  0  0  0  0  0  0  0  0  0  0  0
  153.3203  139.8780  159.2001 C   0  0  0  0  0  0  0  0  0  0  0  0
  153.4768  140.6277  160.5337 C   0  0  0  0  0  0  0  0  0  0  0  0
  153.4910  142.0312  160.2894 O   0  0  0  0  0  0  0  0  0  0  0  0
  152.2816  142.4838  159.6863 C   0  0  0  0  0  0  0  0  0  0  0  0
  152.0732  141.7751  158.3361 C   0  0  0  0  0  0  0  0  0  0  0  0
  147.5008  136.1430  163.8372 H   0  0  0  0  0  0  0  0  0  0  0  0
  146.4480  137.4215  163.1899 H   0  0  0  0  0  0  0  0  0  0  0  0
  147.8800  136.8979  162.2721 H   0  0  0  0  0  0  0  0  0  0  0  0
  144.4785  136.3067  160.7553 H   0  0  0  0  0  0  0  0  0  0  0  0
  145.3989  134.6941  159.1876 H   0  0  0  0  0  0  0  0  0  0  0  0
  145.4161  136.3531  158.6224 H   0  0  0  0  0  0  0  0  0  0  0  0
  147.8031  134.8871  159.8760 H   0  0  0  0  0  0  0  0  0  0  0  0
  147.6366  135.2844  158.1821 H   0  0  0  0  0  0  0  0  0  0  0  0
  149.0561  136.8058  157.7046 H   0  0  0  0  0  0  0  0  0  0  0  0
  149.0381  139.4526  158.6768 H   0  0  0  0  0  0  0  0  0  0  0  0
  150.3513  138.6372  159.4740 H   0  0  0  0  0  0  0  0  0  0  0  0
  149.4044  137.4795  156.1054 H   0  0  0  0  0  0  0  0  0  0  0  0
  150.8680  137.7758  154.1005 H   0  0  0  0  0  0  0  0  0  0  0  0
  152.8747  139.2675  154.2903 H   0  0  0  0  0  0  0  0  0  0  0  0
  153.2620  138.8036  159.3776 H   0  0  0  0  0  0  0  0  0  0  0  0
  154.1934  140.0587  158.5714 H   0  0  0  0  0  0  0  0  0  0  0  0
  152.6680  140.3740  161.2214 H   0  0  0  0  0  0  0  0  0  0  0  0
  154.4100  140.3417  161.0188 H   0  0  0  0  0  0  0  0  0  0  0  0
  151.4408  142.3010  160.3567 H   0  0  0  0  0  0  0  0  0  0  0  0
  152.3399  143.5622  159.5389 H   0  0  0  0  0  0  0  0  0  0  0  0
  152.8536  142.0718  157.6342 H   0  0  0  0  0  0  0  0  0  0  0  0
  151.1184  142.0727  157.9012 H   0  0  0  0  0  0  0  0  0  0  0  0
  1  2  1  0  0  0  0
  1 24  1  0  0  0  0
  1 25  1  0  0  0  0
  1 26  1  0  0  0  0
  2  3  2  0  0  0  0
  2  4  2  0  0  0  0
  2  5  1  0  0  0  0
  5  6  1  0  0  0  0
  5 27  1  0  0  0  0
  6  7  1  0  0  0  0
  6 28  1  0  0  0  0
  6 29  1  0  0  0  0
  7  8  1  0  0  0  0
  7 30  1  0  0  0  0
  7 31  1  0  0  0  0
  8  9  2  0  0  0  0
  8 10  1  0  0  0  0
 10 11  1  0  0  0  0
 10 32  1  0  0  0  0
 11 12  1  0  0  0  0
 11 33  1  0  0  0  0
 11 34  1  0  0  0  0
 12 17  1  0  0  0  0
 12 13  2  0  0  0  0
 13 14  1  0  0  0  0
 13 35  1  0  0  0  0
 14 15  2  0  0  0  0
 14 36  1  0  0  0  0
 15 16  1  0  0  0  0
 15 37  1  0  0  0  0
 16 17  2  0  0  0  0
 17 18  1  0  0  0  0
 18 23  1  0  0  0  0
 18 19  1  0  0  0  0
 19 20  1  0  0  0  0
 19 38  1  0  0  0  0
 19 39  1  0  0  0  0
 20 21  1  0  0  0  0
 20 40  1  0  0  0  0
 20 41  1  0  0  0  0
 21 22  1  0  0  0  0
 22 23  1  0  0  0  0
 22 42  1  0  0  0  0
 22 43  1  0  0  0  0
 23 44  1  0  0  0  0
 23 45  1  0  0  0  0
M  END
> <s_m_source_file>
AV-unprocessed.smi

> <i_m_source_file_index>
1421

> <i_lp_mmshare_version>
43012

> <i_f3d_flags>
0

> <s_epik_input>
W0NIM11TKD1PKSg9TylbTkhdW0NIMl1bQ0gyXUMoPU8pW05IXVtDSDJdYzFbY0hdW2NIXVtjSF1uYzFOMltDSDJdW0NIMl1PW0NIMl1bQ0gyXTI=

> <s_epik_cmdline>
J2VwaWtfcHl0aG9uJywgJy1waCcsICc3LjAnLCAnLXRuJywgJzgnLCAnLW1hJywgJzIwMCcsICctbWV0YWxfYmluZGluZycsICctaW1hZScsICc8aW5maWxlLm1hZT4nLCAnLW9tYWUnLCAnPG91dGZpbGUubWFlPic=

> <r_lp_tautomer_probability>
1

> <r_epik_Ionization_Penalty>
0.00479902

> <r_epik_Ionization_Penalty_Charging>
0

> <r_epik_Ionization_Penalty_Neutral>
0.00479902

> <r_epik_State_Penalty>
0.00346804

> <r_epik_Charging_Adjusted_Penalty>
0.00346804

> <i_epik_Tot_Q>
0

> <i_epik_Tot_abs_Q>
0

> <r_epik_Metal_State_Penalty>
0.0135183

> <b_epik_Metal_Only>
0

> <s_lp_Force_Field>
OPLS_2005

> <r_lp_Energy>
16.2215

> <b_lp_Chiralities_Consistent>
1

> <s_lp_Variant>
AV-unprocessed.smi:1421-1

> <Gold.Version>
5.8.1

> <Gold.Id.Protein>
6NUR|6NUR_protein|mol2

> <Gold.PLP.Fitness>
43.5218

> <Gold.PLP.PLP>
-37.2107

> <Gold.PLP.part.hbond>
-4.0000

> <Gold.PLP.part.metal>
0.0000

> <Gold.PLP.part.buried>
-5.4748

> <Gold.PLP.part.nonpolar>
-26.8118

> <Gold.PLP.part.repulsive>
0.1801

> <Gold.PLP.ligand.clash>
0.0000

> <Gold.PLP.ligand.torsion>
0.5258

> <Gold.PLP.Chemscore.Hbond>
2.3409

> <Gold.PLP.Chemscore.CHOScore>
0.0000

> <Gold.PLP.Chemscore.Metal>
0.0000

> <Gold.Chemscore.Hbonds>
donor molecule, donor type, donor heavy atom, donor atom, acceptor molecule, acceptor atom, score
      P1  H  6931  6943       L1     9  0.56
      P1  H  6934  6947       L1     9  0.77
      P1  H  7997  8008       L1    16  1.00

> <Gold.PLP.Chemscore.Internal.Correction>
0.3401

> <Gold.Rescore>
     Score         DG    S(hbond)    S(metal)    S(lipo)     H(rot)  DE(clash)    DE(int)     intcor
     12.58     -14.72       2.43        0.00      73.01       2.90       0.03       2.12       ----

> <Gold.Chemscore.Fitness>
12.5761

> <Gold.Chemscore.DG>
-14.7181

> <Gold.Chemscore.ZeroCoef>
-5.4800

> <Gold.Chemscore.Hbond>
2.4322

> <Gold.Chemscore.Metal>
0.0000

> <Gold.Chemscore.Lipo>
73.0124

> <Gold.Chemscore.Internal_Hbond>
0.0000

> <Gold.Chemscore.DEClash>
0.0263

> <Gold.Chemscore.DEInternal>
2.1156

> <Gold.Chemscore.Rot>
2.9015

> <Gold.Chemscore.Internal.Correction>
   9.000000E+99

> <Gold.Chemscore.Hbonds>
donor molecule, donor type, donor heavy atom, donor atom, acceptor molecule, acceptor atom, score
      P1  H  6931  6943       L1     9  0.55
      P1  H  6934  6947       L1     9  0.75
      P1  H  7997  8008       L1    16  0.55

> <Gold.Chemscore.Hbond.Weighted>
-8.1235

> <Gold.Chemscore.Metal.Weighted>
-0.0000

> <Gold.Chemscore.Lipo.Weighted>
-8.5424

> <Gold.Chemscore.Internal_Hbond.Weighted>
0.0000

> <Gold.Chemscore.DEClash.Weighted>
0.0263

> <Gold.Chemscore.DEInternal.Weighted>
2.1156

> <Gold.Chemscore.Rot.Weighted>
7.4278

> <Gold.Chemscore.Internal.Correction.Weighted>
   9.000000E+99

> <Gold.Protein.RotatedTorsions>
[ 6907 6896 6895 6894 ] final  -58.53 input  -60.11 | X-H torsion
[ 7974 7965 7964 7962 ] final  156.78 input  175.53 | X-H torsion
[ 8008 7997 7996 7995 ] final  -29.11 input   59.86 | X-H torsion
[ 10167 10162 10161 10158 ] final   41.32 input  -65.29 | X-H torsion
[ 10718 10713 10712 10709 ] final  148.16 input   66.30 | X-H torsion
[ 10763 10752 10751 10750 ] final   13.05 input  -60.55 | X-H torsion
[ 11005 11000 10999 10996 ] final  149.10 input  -57.11 | X-H torsion

> <Gold.Protein.ActiveResidues>
 VAL166  LYS551  ARG553  GLY616  TRP617  ASP618  TYR619  PRO620  LYS621  CYS622 
 ASP623  PHE694  ASN695  SER759  ASP760  ASP761  ALA762  ILE779  LEU786  VAL792 
 PHE793  MET794  SER795  GLU796  ALA797  LYS798  CYS799  TRP800  GLU811  SER814 

> <Gold.Protein.RotatedAtoms>
  150.8000  134.7087  159.6590 H   0  0  0  0  0  0  0  0  0  0  0  0  # atno 6907 bound_to 6896
  152.4116  134.6111  160.0035 H   0  0  0  0  0  0  0  0  0  0  0  0  # atno 6908 bound_to 6896
  151.6352  133.3292  159.3154 H   0  0  0  0  0  0  0  0  0  0  0  0  # atno 6909 bound_to 6896
  144.7943  139.7250  143.6208 H   0  0  0  0  0  0  0  0  0  0  0  0  # atno 7974 bound_to 7965
  154.4303  140.1827  156.1197 H   0  0  0  0  0  0  0  0  0  0  0  0  # atno 8008 bound_to 7997
  156.0153  140.3346  155.6957 H   0  0  0  0  0  0  0  0  0  0  0  0  # atno 8009 bound_to 7997
  155.6053  140.0644  157.2712 H   0  0  0  0  0  0  0  0  0  0  0  0  # atno 8010 bound_to 7997
  140.3655  144.2173  150.6135 H   0  0  0  0  0  0  0  0  0  0  0  0  # atno 10167 bound_to 10162
  157.3120  131.0889  151.1309 H   0  0  0  0  0  0  0  0  0  0  0  0  # atno 10718 bound_to 10713
  153.1760  135.6820  153.8543 H   0  0  0  0  0  0  0  0  0  0  0  0  # atno 10763 bound_to 10752
  153.7891  135.3171  155.3377 H   0  0  0  0  0  0  0  0  0  0  0  0  # atno 10764 bound_to 10752
  154.8029  135.4767  154.0413 H   0  0  0  0  0  0  0  0  0  0  0  0  # atno 10765 bound_to 10752
  140.1016  134.8980  157.1804 H   0  0  0  0  0  0  0  0  0  0  0  0  # atno 11005 bound_to 11000
  146.2205  139.5628  142.9621 LP  0  0  0  0  0  0  0  0  0  0  0  0  # atno 17320 bound_to 7965
  145.5715  141.0393  143.2172 LP  0  0  0  0  0  0  0  0  0  0  0  0  # atno 17321 bound_to 7965
  140.5085  143.2297  151.8571 LP  0  0  0  0  0  0  0  0  0  0  0  0  # atno 17342 bound_to 10162
  139.4809  144.4977  151.9101 LP  0  0  0  0  0  0  0  0  0  0  0  0  # atno 17343 bound_to 10162
  157.2627  130.6666  149.5982 LP  0  0  0  0  0  0  0  0  0  0  0  0  # atno 17370 bound_to 10713
  155.9678  130.4503  150.5694 LP  0  0  0  0  0  0  0  0  0  0  0  0  # atno 17371 bound_to 10713
  140.3213  134.2913  155.7246 LP  0  0  0  0  0  0  0  0  0  0  0  0  # atno 17394 bound_to 11000
  141.2107  133.7711  156.9914 LP  0  0  0  0  0  0  0  0  0  0  0  0  # atno 17395 bound_to 11000

$$$$
