AV-unprocessed.smi:766|AV-procd|sdf|3656|dock2
  -GOLD-   22720 1 63D 1   1.00000     0.00000
 Structure written by MMmdl.
 46 48  0  0  0  0  0  0  0  0  1 V2000
  152.0629  144.3245  159.5424 C   0  0  0  0  0  0  0  0  0  0  0  0
  151.9030  143.0651  158.7094 C   0  0  0  0  0  0  0  0  0  0  0  0
  151.0948  143.1057  157.5508 C   0  0  0  0  0  0  0  0  0  0  0  0
  150.9164  141.9555  156.7515 C   0  0  0  0  0  0  0  0  0  0  0  0
  150.1774  141.7701  155.5959 N   0  0  0  0  0  0  0  0  0  0  0  0
  150.4076  140.4866  155.3359 C   0  0  0  0  0  0  0  0  0  0  0  0
  151.2130  139.8187  156.1844 N   0  0  0  0  0  0  0  0  0  0  0  0
  151.6036  138.4222  156.1076 C   0  0  0  0  0  0  0  0  0  0  0  0
  150.9005  137.6658  154.9595 C   0  0  1  0  0  0  0  0  0  0  0  0
  151.8616  137.1279  154.0751 O   0  0  0  0  0  0  0  0  0  0  0  0
  149.9199  136.5561  155.3903 C   0  0  0  0  0  0  0  0  0  0  0  0
  149.9206  135.4306  154.4600 N   0  0  0  0  0  0  0  0  0  0  0  0
  149.2337  134.2487  154.9711 C   0  0  0  0  0  0  0  0  0  0  0  0
  149.5029  133.0185  154.0896 C   0  0  0  0  0  0  0  0  0  0  0  0
  148.3242  132.6026  153.3494 N   0  0  0  0  0  0  0  0  0  0  0  0
  147.6051  133.3131  152.4112 C   0  0  0  0  0  0  0  0  0  0  0  0
  146.5837  132.5110  151.9889 C   0  0  0  0  0  0  0  0  0  0  0  0
  146.7613  131.3147  152.7385 C   0  0  0  0  0  0  0  0  0  0  0  0
  147.8006  131.3744  153.5555 N   0  0  0  0  0  0  0  0  0  0  0  0
  151.5756  140.7544  157.1456 C   0  0  0  0  0  0  0  0  0  0  0  0
  152.3849  140.7020  158.2939 C   0  0  0  0  0  0  0  0  0  0  0  0
  152.5510  141.8600  159.0820 C   0  0  0  0  0  0  0  0  0  0  0  0
  153.4241  141.7920  160.3225 C   0  0  0  0  0  0  0  0  0  0  0  0
  151.4773  145.1492  159.1352 H   0  0  0  0  0  0  0  0  0  0  0  0
  153.1076  144.6350  159.5662 H   0  0  0  0  0  0  0  0  0  0  0  0
  151.7287  144.1517  160.5657 H   0  0  0  0  0  0  0  0  0  0  0  0
  150.6008  144.0230  157.2661 H   0  0  0  0  0  0  0  0  0  0  0  0
  149.9692  140.0023  154.4765 H   0  0  0  0  0  0  0  0  0  0  0  0
  152.6862  138.3754  155.9826 H   0  0  0  0  0  0  0  0  0  0  0  0
  151.3841  137.9506  157.0666 H   0  0  0  0  0  0  0  0  0  0  0  0
  150.3310  138.3917  154.3780 H   0  0  0  0  0  0  0  0  0  0  0  0
  151.4388  136.9423  153.2505 H   0  0  0  0  0  0  0  0  0  0  0  0
  150.2025  136.2022  156.3828 H   0  0  0  0  0  0  0  0  0  0  0  0
  148.9142  136.9665  155.4890 H   0  0  0  0  0  0  0  0  0  0  0  0
  149.5101  135.7158  153.5764 H   0  0  0  0  0  0  0  0  0  0  0  0
  149.5480  134.0429  155.9951 H   0  0  0  0  0  0  0  0  0  0  0  0
  148.1603  134.4367  155.0088 H   0  0  0  0  0  0  0  0  0  0  0  0
  150.2935  133.2417  153.3720 H   0  0  0  0  0  0  0  0  0  0  0  0
  149.8563  132.1816  154.6935 H   0  0  0  0  0  0  0  0  0  0  0  0
  147.8802  134.3166  152.1215 H   0  0  0  0  0  0  0  0  0  0  0  0
  145.8265  132.7420  151.2544 H   0  0  0  0  0  0  0  0  0  0  0  0
  146.1702  130.4111  152.7137 H   0  0  0  0  0  0  0  0  0  0  0  0
  152.8708  139.7767  158.5657 H   0  0  0  0  0  0  0  0  0  0  0  0
  153.8606  140.8007  160.4473 H   0  0  0  0  0  0  0  0  0  0  0  0
  152.8376  142.0145  161.2143 H   0  0  0  0  0  0  0  0  0  0  0  0
  154.2407  142.5110  160.2560 H   0  0  0  0  0  0  0  0  0  0  0  0
  1  2  1  0  0  0  0
  1 24  1  0  0  0  0
  1 25  1  0  0  0  0
  1 26  1  0  0  0  0
  2 22  1  0  0  0  0
  2  3  2  0  0  0  0
  3  4  1  0  0  0  0
  3 27  1  0  0  0  0
  4 20  2  0  0  0  0
  4  5  1  0  0  0  0
  5  6  2  0  0  0  0
  6  7  1  0  0  0  0
  6 28  1  0  0  0  0
  7  8  1  0  0  0  0
  7 20  1  0  0  0  0
  8  9  1  0  0  0  0
  8 29  1  0  0  0  0
  8 30  1  0  0  0  0
  9 10  1  0  0  0  0
  9 11  1  0  0  0  0
  9 31  1  0  0  0  0
 10 32  1  0  0  0  0
 11 12  1  0  0  0  0
 11 33  1  0  0  0  0
 11 34  1  0  0  0  0
 12 13  1  0  0  0  0
 12 35  1  0  0  0  0
 13 14  1  0  0  0  0
 13 36  1  0  0  0  0
 13 37  1  0  0  0  0
 14 15  1  0  0  0  0
 14 38  1  0  0  0  0
 14 39  1  0  0  0  0
 15 19  1  0  0  0  0
 15 16  1  0  0  0  0
 16 17  2  0  0  0  0
 16 40  1  0  0  0  0
 17 18  1  0  0  0  0
 17 41  1  0  0  0  0
 18 19  2  0  0  0  0
 18 42  1  0  0  0  0
 20 21  1  0  0  0  0
 21 22  2  0  0  0  0
 21 43  1  0  0  0  0
 22 23  1  0  0  0  0
 23 44  1  0  0  0  0
 23 45  1  0  0  0  0
 23 46  1  0  0  0  0
M  END
> <s_m_source_file>
AV-unprocessed.smi

> <i_m_source_file_index>
766

> <i_lp_mmshare_version>
43012

> <i_f3d_flags>
0

> <s_epik_input>
W0NIM11jKFtjSF0xKWMoW0NIM10pW2NIXWMoYzEyKW4oW2NIXW4yKVtDSDJdW0NASF0oW09IXSlbQ0gyXVtOSF1bQ0gyXVtDSDJdbjNbY0hdW2NIXVtjSF1uMw==

> <s_epik_cmdline>
J2VwaWtfcHl0aG9uJywgJy1waCcsICc3LjAnLCAnLXRuJywgJzgnLCAnLW1hJywgJzIwMCcsICctbWV0YWxfYmluZGluZycsICctaW1hZScsICc8aW5maWxlLm1hZT4nLCAnLW9tYWUnLCAnPG91dGZpbGUubWFlPic=

> <r_lp_tautomer_probability>
1

> <r_epik_Ionization_Penalty>
1.68727

> <r_epik_Ionization_Penalty_Charging>
0

> <r_epik_Ionization_Penalty_Neutral>
1.68727

> <r_epik_State_Penalty>
1.78741

> <r_epik_Charging_Adjusted_Penalty>
1.78741

> <i_epik_Tot_Q>
0

> <i_epik_Tot_abs_Q>
0

> <r_epik_Metal_State_Penalty>
1.73664

> <b_epik_Metal_Only>
0

> <s_lp_Force_Field>
OPLS_2005

> <r_lp_Energy>
18.4914

> <b_lp_Chiralities_Consistent>
1

> <s_lp_Variant>
AV-unprocessed.smi:766-6

> <Gold.Version>
5.8.1

> <Gold.Id.Protein>
6NUR|6NUR_protein|mol2

> <Gold.PLP.Fitness>
59.0053

> <Gold.PLP.PLP>
-50.1708

> <Gold.PLP.part.hbond>
-3.5748

> <Gold.PLP.part.metal>
0.0000

> <Gold.PLP.part.buried>
-3.8003

> <Gold.PLP.part.nonpolar>
-42.4955

> <Gold.PLP.part.repulsive>
0.1932

> <Gold.PLP.ligand.clash>
0.0000

> <Gold.PLP.ligand.torsion>
1.6939

> <Gold.PLP.Chemscore.Hbond>
3.0000

> <Gold.PLP.Chemscore.CHOScore>
1.0000

> <Gold.PLP.Chemscore.Metal>
0.0000

> <Gold.Chemscore.Hbonds>
donor molecule, donor type, donor heavy atom, donor atom, acceptor molecule, acceptor atom, score
      L1  H    10    32       P1  7949  1.00
      L1  H    12    35       P1  7948  1.00
      P1  H 10752 10763       L1    10  0.90
      L1  C    16    40       P1  7948  0.93

> <Gold.PLP.Chemscore.Internal.Correction>
0.2223

> <Gold.Rescore>
     Score         DG    S(hbond)    S(metal)    S(lipo)     H(rot)  DE(clash)    DE(int)     intcor
     16.87     -18.64       2.11        0.00     114.34       2.83       0.03       1.74       ----

> <Gold.Chemscore.Fitness>
16.8726

> <Gold.Chemscore.DG>
-18.6441

> <Gold.Chemscore.ZeroCoef>
-5.4800

> <Gold.Chemscore.Hbond>
2.1090

> <Gold.Chemscore.Metal>
0.0000

> <Gold.Chemscore.Lipo>
114.3352

> <Gold.Chemscore.Internal_Hbond>
0.0000

> <Gold.Chemscore.DEClash>
0.0313

> <Gold.Chemscore.DEInternal>
1.7402

> <Gold.Chemscore.Rot>
2.8348

> <Gold.Chemscore.Internal.Correction>
   9.000000E+99

> <Gold.Chemscore.Hbonds>
donor molecule, donor type, donor heavy atom, donor atom, acceptor molecule, acceptor atom, score
      L1  H    10    32       P1  7949  0.79
      L1  H    12    35       P1  7948  0.26
      P1  H 10752 10763       L1    10  0.17

> <Gold.Chemscore.Hbond.Weighted>
-7.0440

> <Gold.Chemscore.Metal.Weighted>
-0.0000

> <Gold.Chemscore.Lipo.Weighted>
-13.3772

> <Gold.Chemscore.Internal_Hbond.Weighted>
0.0000

> <Gold.Chemscore.DEClash.Weighted>
0.0313

> <Gold.Chemscore.DEInternal.Weighted>
1.7402

> <Gold.Chemscore.Rot.Weighted>
7.2572

> <Gold.Chemscore.Internal.Correction.Weighted>
   9.000000E+99

> <Gold.Protein.RotatedTorsions>
[ 6907 6896 6895 6894 ] final -163.27 input  -60.11 | X-H torsion
[ 7974 7965 7964 7962 ] final   80.28 input  175.53 | X-H torsion
[ 8008 7997 7996 7995 ] final   -0.71 input   59.86 | X-H torsion
[ 10167 10162 10161 10158 ] final  123.59 input  -65.29 | X-H torsion
[ 10718 10713 10712 10709 ] final  101.91 input   66.30 | X-H torsion
[ 10763 10752 10751 10750 ] final   29.30 input  -60.55 | X-H torsion
[ 11005 11000 10999 10996 ] final  -24.71 input  -57.11 | X-H torsion

> <Gold.Protein.ActiveResidues>
 VAL166  LYS551  ARG553  GLY616  TRP617  ASP618  TYR619  PRO620  LYS621  CYS622 
 ASP623  PHE694  ASN695  SER759  ASP760  ASP761  ALA762  ILE779  LEU786  VAL792 
 PHE793  MET794  SER795  GLU796  ALA797  LYS798  CYS799  TRP800  GLU811  SER814 

> <Gold.Protein.RotatedAtoms>
  151.3933  133.3781  159.2723 H   0  0  0  0  0  0  0  0  0  0  0  0  # atno 6907 bound_to 6896
  150.9488  134.8891  159.7669 H   0  0  0  0  0  0  0  0  0  0  0  0  # atno 6908 bound_to 6896
  152.5103  134.3888  159.9429 H   0  0  0  0  0  0  0  0  0  0  0  0  # atno 6909 bound_to 6896
  145.6533  139.2453  143.1964 H   0  0  0  0  0  0  0  0  0  0  0  0  # atno 7974 bound_to 7965
  154.6549  140.2577  155.7172 H   0  0  0  0  0  0  0  0  0  0  0  0  # atno 8008 bound_to 7997
  156.2592  140.2860  156.0920 H   0  0  0  0  0  0  0  0  0  0  0  0  # atno 8009 bound_to 7997
  155.1394  140.0380  157.2785 H   0  0  0  0  0  0  0  0  0  0  0  0  # atno 8010 bound_to 7997
  139.5790  144.6977  151.3577 H   0  0  0  0  0  0  0  0  0  0  0  0  # atno 10167 bound_to 10162
  157.6816  131.0739  150.5324 H   0  0  0  0  0  0  0  0  0  0  0  0  # atno 10718 bound_to 10713
  153.0438  135.6492  154.0870 H   0  0  0  0  0  0  0  0  0  0  0  0  # atno 10763 bound_to 10752
  154.0572  135.2891  155.3332 H   0  0  0  0  0  0  0  0  0  0  0  0  # atno 10764 bound_to 10752
  154.6681  135.5366  153.8169 H   0  0  0  0  0  0  0  0  0  0  0  0  # atno 10765 bound_to 10752
  140.8871  133.7614  156.0374 H   0  0  0  0  0  0  0  0  0  0  0  0  # atno 11005 bound_to 11000
  146.1186  140.7338  142.9468 LP  0  0  0  0  0  0  0  0  0  0  0  0  # atno 17320 bound_to 7965
  144.7115  140.4055  143.7077 LP  0  0  0  0  0  0  0  0  0  0  0  0  # atno 17321 bound_to 7965
  140.7070  143.7487  150.7500 LP  0  0  0  0  0  0  0  0  0  0  0  0  # atno 17342 bound_to 10162
  140.1015  143.4784  152.2422 LP  0  0  0  0  0  0  0  0  0  0  0  0  # atno 17343 bound_to 10162
  156.5634  130.4261  149.6052 LP  0  0  0  0  0  0  0  0  0  0  0  0  # atno 17370 bound_to 10713
  156.2802  130.7066  151.1888 LP  0  0  0  0  0  0  0  0  0  0  0  0  # atno 17371 bound_to 10713
  140.8392  134.3087  157.5320 LP  0  0  0  0  0  0  0  0  0  0  0  0  # atno 17394 bound_to 11000
  139.8725  134.9406  156.3775 LP  0  0  0  0  0  0  0  0  0  0  0  0  # atno 17395 bound_to 11000

$$$$
