AV-unprocessed.smi:461|AV-procd|sdf|2631|dock3
  -GOLD-   2262023 33D 1   1.00000     0.00000
 Structure written by MMmdl.
 33 34  0  0  0  0  0  0  0  0  1 V2000
  154.2683  137.1745  157.6323 C   0  0  0  0  0  0  0  0  0  0  0  0
  153.2661  138.1587  157.2209 N   0  0  0  0  0  0  0  0  0  0  0  0
  153.2669  139.3086  157.9935 N   0  0  0  0  0  0  0  0  0  0  0  0
  152.3974  140.2269  157.6879 C   0  0  0  0  0  0  0  0  0  0  0  0
  152.2341  141.4410  158.3423 N   0  0  0  0  0  0  0  0  0  0  0  0
  153.0173  141.8851  159.4862 C   0  0  0  0  0  0  0  0  0  0  0  0
  152.6353  143.3040  159.9386 C   0  0  1  0  0  0  0  0  0  0  0  0
  152.6050  144.3230  158.8048 C   0  0  0  0  0  0  0  0  0  0  0  0
  151.7444  145.4218  159.3941 C   0  0  0  0  0  0  0  0  0  0  0  0
  150.7968  144.6649  160.3289 C   0  0  0  0  0  0  0  0  0  0  0  0
  151.2968  143.3332  160.4134 O   0  0  0  0  0  0  0  0  0  0  0  0
  151.4328  140.0359  156.5282 C   0  0  0  0  0  0  0  0  0  0  0  0
  150.6092  140.9124  156.2491 O   0  0  0  0  0  0  0  0  0  0  0  0
  151.5432  138.8616  155.8473 N   0  0  0  0  0  0  0  0  0  0  0  0
  150.6148  138.6556  154.7207 C   0  0  0  0  0  0  0  0  0  0  0  0
  152.4447  137.8864  156.1644 C   0  0  0  0  0  0  0  0  0  0  0  0
  152.5231  136.8216  155.5464 O   0  0  0  0  0  0  0  0  0  0  0  0
  154.9716  136.9796  156.8214 H   0  0  0  0  0  0  0  0  0  0  0  0
  153.7927  136.2318  157.9068 H   0  0  0  0  0  0  0  0  0  0  0  0
  154.8473  137.5106  158.4942 H   0  0  0  0  0  0  0  0  0  0  0  0
  154.0744  141.8450  159.2219 H   0  0  0  0  0  0  0  0  0  0  0  0
  152.8783  141.1810  160.3080 H   0  0  0  0  0  0  0  0  0  0  0  0
  153.3021  143.6604  160.7259 H   0  0  0  0  0  0  0  0  0  0  0  0
  153.5979  144.6677  158.5149 H   0  0  0  0  0  0  0  0  0  0  0  0
  152.1186  143.9002  157.9246 H   0  0  0  0  0  0  0  0  0  0  0  0
  152.3631  146.1105  159.9711 H   0  0  0  0  0  0  0  0  0  0  0  0
  151.2181  145.9978  158.6325 H   0  0  0  0  0  0  0  0  0  0  0  0
  150.7728  145.1234  161.3180 H   0  0  0  0  0  0  0  0  0  0  0  0
  149.7783  144.6444  159.9404 H   0  0  0  0  0  0  0  0  0  0  0  0
  150.8137  137.7650  154.1237 H   0  0  0  0  0  0  0  0  0  0  0  0
  150.6529  139.4983  154.0283 H   0  0  0  0  0  0  0  0  0  0  0  0
  149.5911  138.5709  155.0885 H   0  0  0  0  0  0  0  0  0  0  0  0
  151.4828  142.0660  158.0867 H   0  0  0  0  0  0  0  0  0  0  0  0
  1 18  1  0  0  0  0
  1 19  1  0  0  0  0
  1 20  1  0  0  0  0
  1  2  1  0  0  0  0
  2 16  1  0  0  0  0
  2  3  1  0  0  0  0
  3  4  2  0  0  0  0
  4 12  1  0  0  0  0
  4  5  1  0  0  0  0
  5  6  1  0  0  0  0
  5 33  1  0  0  0  0
  6  7  1  0  0  0  0
  6 21  1  0  0  0  0
  6 22  1  0  0  0  0
  7 11  1  0  0  0  0
  7  8  1  0  0  0  0
  7 23  1  0  0  0  0
  8  9  1  0  0  0  0
  8 24  1  0  0  0  0
  8 25  1  0  0  0  0
  9 10  1  0  0  0  0
  9 26  1  0  0  0  0
  9 27  1  0  0  0  0
 10 11  1  0  0  0  0
 10 28  1  0  0  0  0
 10 29  1  0  0  0  0
 12 13  2  0  0  0  0
 12 14  1  0  0  0  0
 14 15  1  0  0  0  0
 14 16  1  0  0  0  0
 15 30  1  0  0  0  0
 15 31  1  0  0  0  0
 15 32  1  0  0  0  0
 16 17  2  0  0  0  0
M  END
> <s_m_source_file>
AV-unprocessed.smi

> <i_m_source_file_index>
461

> <i_lp_mmshare_version>
43012

> <i_f3d_flags>
0

> <s_epik_input>
Tz1jMW4oW0NIM10pYyg9TyljKG5uMVtDSDNdKVtOSF1bQ0gyXVtDQEBIXTJbQ0gyXVtDSDJdW0NIMl1PMg==

> <s_epik_cmdline>
J2VwaWtfcHl0aG9uJywgJy1waCcsICc3LjAnLCAnLXRuJywgJzgnLCAnLW1hJywgJzIwMCcsICctbWV0YWxfYmluZGluZycsICctaW1hZScsICc8aW5maWxlLm1hZT4nLCAnLW9tYWUnLCAnPG91dGZpbGUubWFlPic=

> <r_lp_tautomer_probability>
1

> <r_epik_Ionization_Penalty>
0.000103292

> <r_epik_Ionization_Penalty_Charging>
5.59445e-09

> <r_epik_Ionization_Penalty_Neutral>
0.000103287

> <r_epik_State_Penalty>
-0

> <r_epik_Charging_Adjusted_Penalty>
5.59445e-09

> <i_epik_Tot_Q>
0

> <i_epik_Tot_abs_Q>
0

> <r_epik_Metal_State_Penalty>
-0

> <b_epik_Metal_Only>
0

> <s_lp_Force_Field>
OPLS_2005

> <r_lp_Energy>
40.9993

> <b_lp_Chiralities_Consistent>
1

> <s_lp_Variant>
AV-unprocessed.smi:461-2

> <Gold.Version>
5.8.1

> <Gold.Id.Protein>
6NUR|6NUR_protein|mol2

> <Gold.PLP.Fitness>
41.6495

> <Gold.PLP.PLP>
-35.7825

> <Gold.PLP.part.hbond>
-2.5321

> <Gold.PLP.part.metal>
0.0000

> <Gold.PLP.part.buried>
-3.1649

> <Gold.PLP.part.nonpolar>
-30.4426

> <Gold.PLP.part.repulsive>
0.3179

> <Gold.PLP.ligand.clash>
0.0000

> <Gold.PLP.ligand.torsion>
0.0342

> <Gold.PLP.Chemscore.Hbond>
1.9760

> <Gold.PLP.Chemscore.CHOScore>
0.0000

> <Gold.PLP.Chemscore.Metal>
0.0000

> <Gold.Chemscore.Hbonds>
donor molecule, donor type, donor heavy atom, donor atom, acceptor molecule, acceptor atom, score
      P1  H  7997  8009       L1     3  0.42
      P1  H 10752 10765       L1    17  0.62

> <Gold.PLP.Chemscore.Internal.Correction>
0.0073

> <Gold.Rescore>
     Score         DG    S(hbond)    S(metal)    S(lipo)     H(rot)  DE(clash)    DE(int)     intcor
     14.50     -14.51       1.14        0.00      72.98       1.30       0.00       0.02       ----

> <Gold.Chemscore.Fitness>
14.4959

> <Gold.Chemscore.DG>
-14.5149

> <Gold.Chemscore.ZeroCoef>
-5.4800

> <Gold.Chemscore.Hbond>
1.1414

> <Gold.Chemscore.Metal>
0.0000

> <Gold.Chemscore.Lipo>
72.9832

> <Gold.Chemscore.Internal_Hbond>
0.0000

> <Gold.Chemscore.DEClash>
0.0000

> <Gold.Chemscore.DEInternal>
0.0191

> <Gold.Chemscore.Rot>
1.2954

> <Gold.Chemscore.Internal.Correction>
   9.000000E+99

> <Gold.Chemscore.Hbonds>
donor molecule, donor type, donor heavy atom, donor atom, acceptor molecule, acceptor atom, score
      P1  H 10752 10765       L1    17  0.61

> <Gold.Chemscore.Hbond.Weighted>
-3.8122

> <Gold.Chemscore.Metal.Weighted>
-0.0000

> <Gold.Chemscore.Lipo.Weighted>
-8.5390

> <Gold.Chemscore.Internal_Hbond.Weighted>
0.0000

> <Gold.Chemscore.DEClash.Weighted>
0.0000

> <Gold.Chemscore.DEInternal.Weighted>
0.0191

> <Gold.Chemscore.Rot.Weighted>
3.3163

> <Gold.Chemscore.Internal.Correction.Weighted>
   9.000000E+99

> <Gold.Protein.RotatedTorsions>
[ 6907 6896 6895 6894 ] final   -8.01 input  -60.11 | X-H torsion
[ 7974 7965 7964 7962 ] final   10.80 input  175.53 | X-H torsion
[ 8008 7997 7996 7995 ] final  156.75 input   59.86 | X-H torsion
[ 10167 10162 10161 10158 ] final  155.71 input  -65.29 | X-H torsion
[ 10718 10713 10712 10709 ] final  169.59 input   66.30 | X-H torsion
[ 10763 10752 10751 10750 ] final  176.47 input  -60.55 | X-H torsion
[ 11005 11000 10999 10996 ] final -171.95 input  -57.11 | X-H torsion

> <Gold.Protein.ActiveResidues>
 VAL166  LYS551  ARG553  GLY616  TRP617  ASP618  TYR619  PRO620  LYS621  CYS622 
 ASP623  PHE694  ASN695  SER759  ASP760  ASP761  ALA762  ILE779  LEU786  VAL792 
 PHE793  MET794  SER795  GLU796  ALA797  LYS798  CYS799  TRP800  GLU811  SER814 

> <Gold.Protein.RotatedAtoms>
  151.4405  135.1019  159.9668 H   0  0  0  0  0  0  0  0  0  0  0  0  # atno 6907 bound_to 6896
  152.4924  133.8533  159.7223 H   0  0  0  0  0  0  0  0  0  0  0  0  # atno 6908 bound_to 6896
  150.9091  133.6961  159.2886 H   0  0  0  0  0  0  0  0  0  0  0  0  # atno 6909 bound_to 6896
  146.2382  139.9580  142.8462 H   0  0  0  0  0  0  0  0  0  0  0  0  # atno 7974 bound_to 7965
  156.2404  140.1904  156.7003 H   0  0  0  0  0  0  0  0  0  0  0  0  # atno 8008 bound_to 7997
  154.6186  140.0611  156.9613 H   0  0  0  0  0  0  0  0  0  0  0  0  # atno 8009 bound_to 7997
  155.1898  140.3283  155.4363 H   0  0  0  0  0  0  0  0  0  0  0  0  # atno 8010 bound_to 7997
  139.4821  144.5074  151.8076 H   0  0  0  0  0  0  0  0  0  0  0  0  # atno 10167 bound_to 10162
  157.0204  131.0230  151.2776 H   0  0  0  0  0  0  0  0  0  0  0  0  # atno 10718 bound_to 10713
  154.4816  135.2775  155.1566 H   0  0  0  0  0  0  0  0  0  0  0  0  # atno 10763 bound_to 10752
  154.3274  135.6197  153.5539 H   0  0  0  0  0  0  0  0  0  0  0  0  # atno 10764 bound_to 10752
  152.9876  135.5757  154.5218 H   0  0  0  0  0  0  0  0  0  0  0  0  # atno 10765 bound_to 10752
  140.5024  134.5880  157.4992 H   0  0  0  0  0  0  0  0  0  0  0  0  # atno 11005 bound_to 11000
  145.1798  140.9761  143.4273 LP  0  0  0  0  0  0  0  0  0  0  0  0  # atno 17320 bound_to 7965
  144.9952  139.3650  143.6195 LP  0  0  0  0  0  0  0  0  0  0  0  0  # atno 17321 bound_to 7965
  140.4574  144.1770  150.5903 LP  0  0  0  0  0  0  0  0  0  0  0  0  # atno 17342 bound_to 10162
  140.4521  143.2482  151.9334 LP  0  0  0  0  0  0  0  0  0  0  0  0  # atno 17343 bound_to 10162
  157.5254  130.8024  149.7856 LP  0  0  0  0  0  0  0  0  0  0  0  0  # atno 17370 bound_to 10713
  156.0104  130.3836  150.2284 LP  0  0  0  0  0  0  0  0  0  0  0  0  # atno 17371 bound_to 10713
  139.9705  134.7300  156.0050 LP  0  0  0  0  0  0  0  0  0  0  0  0  # atno 17394 bound_to 11000
  141.1428  133.6561  156.3780 LP  0  0  0  0  0  0  0  0  0  0  0  0  # atno 17395 bound_to 11000

$$$$
