AV-unprocessed.smi:136|AV-procd|sdf|1174|dock2
  -GOLD-   2262018323D 1   1.00000     0.00000
 Structure written by MMmdl.
 54 58  0  0  0  0  0  0  0  0  1 V2000
  151.3399  139.1566  154.6060 O   0  0  0  0  0  0  0  0  0  0  0  0
  151.5860  139.2694  155.8083 C   0  0  0  0  0  0  0  0  0  0  0  0
  152.0926  138.0497  156.6070 C   0  0  0  0  0  0  0  0  0  0  0  0
  151.0124  137.1399  157.0475 N   0  0  0  0  0  0  0  0  0  0  0  0
  150.8600  135.8933  156.3912 C   0  0  0  0  0  0  0  0  0  0  0  0
  151.6113  135.5576  155.4746 O   0  0  0  0  0  0  0  0  0  0  0  0
  149.7613  135.0609  156.8683 C   0  0  0  0  0  0  0  0  0  0  0  0
  149.5382  133.8635  156.3005 F   0  0  0  0  0  0  0  0  0  0  0  0
  148.9602  135.4757  157.8711 C   0  0  0  0  0  0  0  0  0  0  0  0
  149.1222  136.6947  158.5036 N   0  0  0  0  0  0  0  0  0  0  0  0
  148.1933  137.1350  159.6127 C   0  0  1  0  0  0  0  0  0  0  0  0
  146.8870  136.3350  159.5578 C   0  0  0  0  0  0  0  0  0  0  0  0
  147.1671  135.2145  160.5357 C   0  0  0  0  0  0  0  0  0  0  0  0
  148.0227  135.9255  161.5779 C   0  0  0  0  0  0  0  0  0  0  0  0
  148.7979  136.8720  160.8467 O   0  0  0  0  0  0  0  0  0  0  0  0
  150.1524  137.5657  158.0880 C   0  0  0  0  0  0  0  0  0  0  0  0
  150.2906  138.6737  158.6116 O   0  0  0  0  0  0  0  0  0  0  0  0
  151.4362  140.4434  156.4618 N   0  0  0  0  0  0  0  0  0  0  0  0
  151.8398  140.6319  157.7433 N   0  0  0  0  0  0  0  0  0  0  0  0
  151.7352  141.8705  158.0543 C   0  0  0  0  0  0  0  0  0  0  0  0
  152.0967  142.4354  159.3734 C   0  0  0  0  0  0  0  0  0  0  0  0
  152.7922  141.6319  160.3056 C   0  0  0  0  0  0  0  0  0  0  0  0
  153.1372  142.1683  161.5614 C   0  0  0  0  0  0  0  0  0  0  0  0
  152.7910  143.4960  161.8836 C   0  0  0  0  0  0  0  0  0  0  0  0
  153.2155  144.1466  163.4241 Cl  0  0  0  0  0  0  0  0  0  0  0  0
  152.0987  144.2932  160.9500 C   0  0  0  0  0  0  0  0  0  0  0  0
  151.7478  143.7676  159.6910 C   0  0  0  0  0  0  0  0  0  0  0  0
  151.2079  142.7253  156.9517 C   0  0  0  0  0  0  0  0  0  0  0  0
  150.9641  141.6922  155.8485 C   0  0  2  0  0  0  0  0  0  0  0  0
  149.5314  141.6516  155.3977 C   0  0  0  0  0  0  0  0  0  0  0  0
  148.3217  141.7244  156.0359 C   0  0  0  0  0  0  0  0  0  0  0  0
  147.3252  141.6350  155.0256 C   0  0  0  0  0  0  0  0  0  0  0  0
  147.9984  141.5188  153.8435 C   0  0  0  0  0  0  0  0  0  0  0  0
  149.3427  141.5296  154.0529 O   0  0  0  0  0  0  0  0  0  0  0  0
  152.8289  137.5203  156.0003 H   0  0  0  0  0  0  0  0  0  0  0  0
  152.6613  138.4005  157.4697 H   0  0  0  0  0  0  0  0  0  0  0  0
  148.1587  134.8204  158.1783 H   0  0  0  0  0  0  0  0  0  0  0  0
  148.0603  138.2114  159.4929 H   0  0  0  0  0  0  0  0  0  0  0  0
  146.0765  136.9670  159.9226 H   0  0  0  0  0  0  0  0  0  0  0  0
  146.6457  135.9976  158.5488 H   0  0  0  0  0  0  0  0  0  0  0  0
  146.2621  134.7744  160.9550 H   0  0  0  0  0  0  0  0  0  0  0  0
  147.7393  134.4230  160.0502 H   0  0  0  0  0  0  0  0  0  0  0  0
  147.3895  136.4639  162.2844 H   0  0  0  0  0  0  0  0  0  0  0  0
  148.6554  135.2404  162.1423 H   0  0  0  0  0  0  0  0  0  0  0  0
  153.0667  140.6121  160.0775 H   0  0  0  0  0  0  0  0  0  0  0  0
  153.6684  141.5588  162.2776 H   0  0  0  0  0  0  0  0  0  0  0  0
  151.8356  145.3109  161.1989 H   0  0  0  0  0  0  0  0  0  0  0  0
  151.2175  144.3988  158.9934 H   0  0  0  0  0  0  0  0  0  0  0  0
  150.2905  143.2329  157.2533 H   0  0  0  0  0  0  0  0  0  0  0  0
  151.9396  143.4741  156.6462 H   0  0  0  0  0  0  0  0  0  0  0  0
  151.6027  141.9210  154.9933 H   0  0  0  0  0  0  0  0  0  0  0  0
  148.1725  141.8275  157.1008 H   0  0  0  0  0  0  0  0  0  0  0  0
  146.2524  141.6545  155.1479 H   0  0  0  0  0  0  0  0  0  0  0  0
  147.6926  141.4240  152.8120 H   0  0  0  0  0  0  0  0  0  0  0  0
  1  2  2  0  0  0  0
  2  3  1  0  0  0  0
  2 18  1  0  0  0  0
  3  4  1  0  0  0  0
  3 35  1  0  0  0  0
  3 36  1  0  0  0  0
  4 16  1  0  0  0  0
  4  5  1  0  0  0  0
  5  6  2  0  0  0  0
  5  7  1  0  0  0  0
  7  8  1  0  0  0  0
  7  9  2  0  0  0  0
  9 10  1  0  0  0  0
  9 37  1  0  0  0  0
 10 11  1  0  0  0  0
 10 16  1  0  0  0  0
 11 15  1  0  0  0  0
 11 12  1  0  0  0  0
 11 38  1  0  0  0  0
 12 13  1  0  0  0  0
 12 39  1  0  0  0  0
 12 40  1  0  0  0  0
 13 14  1  0  0  0  0
 13 41  1  0  0  0  0
 13 42  1  0  0  0  0
 14 15  1  0  0  0  0
 14 43  1  0  0  0  0
 14 44  1  0  0  0  0
 16 17  2  0  0  0  0
 18 29  1  0  0  0  0
 18 19  1  0  0  0  0
 19 20  2  0  0  0  0
 20 21  1  0  0  0  0
 20 28  1  0  0  0  0
 21 27  1  0  0  0  0
 21 22  2  0  0  0  0
 22 23  1  0  0  0  0
 22 45  1  0  0  0  0
 23 24  2  0  0  0  0
 23 46  1  0  0  0  0
 24 25  1  0  0  0  0
 24 26  1  0  0  0  0
 26 27  2  0  0  0  0
 26 47  1  0  0  0  0
 27 48  1  0  0  0  0
 28 29  1  0  0  0  0
 28 49  1  0  0  0  0
 28 50  1  0  0  0  0
 29 30  1  0  0  0  0
 29 51  1  0  0  0  0
 30 34  1  0  0  0  0
 30 31  2  0  0  0  0
 31 32  1  0  0  0  0
 31 52  1  0  0  0  0
 32 33  2  0  0  0  0
 32 53  1  0  0  0  0
 33 34  1  0  0  0  0
 33 54  1  0  0  0  0
M  END
> <s_m_source_file>
AV-unprocessed.smi

> <i_m_source_file_index>
136

> <i_lp_mmshare_version>
43012

> <i_f3d_flags>
0

> <s_epik_input>
bzFbY0hdW2NIXVtjSF1jMVtDQEBIXTJbQ0gyXUMoYzNbY0hdW2NIXWMoQ2wpW2NIXVtjSF0zKT1OTjJDKD1PKVtDSDJdbjRjKD1PKWMoRilbY0hdbihjND1PKVtDQEBIXTVbQ0gyXVtDSDJdW0NIMl1PNQ==

> <s_epik_cmdline>
J2VwaWtfcHl0aG9uJywgJy1waCcsICc3LjAnLCAnLXRuJywgJzgnLCAnLW1hJywgJzIwMCcsICctbWV0YWxfYmluZGluZycsICctaW1hZScsICc8aW5maWxlLm1hZT4nLCAnLW9tYWUnLCAnPG91dGZpbGUubWFlPic=

> <r_lp_tautomer_probability>
1

> <r_epik_Ionization_Penalty>
2.55467e-08

> <r_epik_Ionization_Penalty_Charging>
4.85705e-09

> <r_epik_Ionization_Penalty_Neutral>
2.06897e-08

> <r_epik_State_Penalty>
-0

> <r_epik_Charging_Adjusted_Penalty>
4.85705e-09

> <i_epik_Tot_Q>
0

> <i_epik_Tot_abs_Q>
0

> <r_epik_Metal_State_Penalty>
-0

> <b_epik_Metal_Only>
0

> <s_epik_Chemistry_Notes>
This compound has an imine and may undergo hydrolysis. This compound contains an acetal/aminal-like group ( X-CH(R)-Y where X, Y are N, S, or O) that may be acid/base labile, releasing an aldehyde.

> <s_lp_Force_Field>
OPLS_2005

> <r_lp_Energy>
39.5424

> <b_lp_Chiralities_Consistent>
1

> <s_lp_Variant>
AV-unprocessed.smi:136-4

> <Gold.Version>
5.8.1

> <Gold.Id.Protein>
6NUR|6NUR_protein|mol2

> <Gold.PLP.Fitness>
65.9318

> <Gold.PLP.PLP>
-58.5840

> <Gold.PLP.part.hbond>
-4.8235

> <Gold.PLP.part.metal>
0.0000

> <Gold.PLP.part.buried>
-4.9530

> <Gold.PLP.part.nonpolar>
-48.5856

> <Gold.PLP.part.repulsive>
0.3436

> <Gold.PLP.ligand.clash>
0.0000

> <Gold.PLP.ligand.torsion>
1.5925

> <Gold.PLP.Chemscore.Hbond>
3.2099

> <Gold.PLP.Chemscore.CHOScore>
0.2586

> <Gold.PLP.Chemscore.Metal>
0.0000

> <Gold.Chemscore.Hbonds>
donor molecule, donor type, donor heavy atom, donor atom, acceptor molecule, acceptor atom, score
      P1  H  6931  6943       L1    15  0.94
      P1  H  7989  7998       L1     1  0.94
      P1  H  8011  8017       L1    34  0.52
      P1  H 10752 10763       L1     6  0.99
      L1  C    33    54       P1  7957  0.12

> <Gold.PLP.Chemscore.Internal.Correction>
0.1274

> <Gold.Rescore>
     Score         DG    S(hbond)    S(metal)    S(lipo)     H(rot)  DE(clash)    DE(int)     intcor
     22.79     -27.53       2.63        0.00     152.77       1.81       0.73       4.01       ----

> <Gold.Chemscore.Fitness>
22.7927

> <Gold.Chemscore.DG>
-27.5328

> <Gold.Chemscore.ZeroCoef>
-5.4800

> <Gold.Chemscore.Hbond>
2.6349

> <Gold.Chemscore.Metal>
0.0000

> <Gold.Chemscore.Lipo>
152.7734

> <Gold.Chemscore.Internal_Hbond>
0.0000

> <Gold.Chemscore.DEClash>
0.7284

> <Gold.Chemscore.DEInternal>
4.0117

> <Gold.Chemscore.Rot>
1.8056

> <Gold.Chemscore.Internal.Correction>
   9.000000E+99

> <Gold.Chemscore.Hbonds>
donor molecule, donor type, donor heavy atom, donor atom, acceptor molecule, acceptor atom, score
      P1  H  6931  6943       L1    15  0.51
      P1  H  7989  7998       L1     1  0.81
      P1  H  8011  8017       L1    34  0.08
      P1  H 10752 10763       L1     6  0.92

> <Gold.Chemscore.Hbond.Weighted>
-8.8007

> <Gold.Chemscore.Metal.Weighted>
-0.0000

> <Gold.Chemscore.Lipo.Weighted>
-17.8745

> <Gold.Chemscore.Internal_Hbond.Weighted>
0.0000

> <Gold.Chemscore.DEClash.Weighted>
0.7284

> <Gold.Chemscore.DEInternal.Weighted>
4.0117

> <Gold.Chemscore.Rot.Weighted>
4.6223

> <Gold.Chemscore.Internal.Correction.Weighted>
   9.000000E+99

> <Gold.Protein.RotatedTorsions>
[ 6907 6896 6895 6894 ] final -167.37 input  -60.11 | X-H torsion
[ 7974 7965 7964 7962 ] final -142.31 input  175.53 | X-H torsion
[ 8008 7997 7996 7995 ] final  162.25 input   59.86 | X-H torsion
[ 10167 10162 10161 10158 ] final   66.50 input  -65.29 | X-H torsion
[ 10718 10713 10712 10709 ] final  -44.13 input   66.30 | X-H torsion
[ 10763 10752 10751 10750 ] final   70.89 input  -60.55 | X-H torsion
[ 11005 11000 10999 10996 ] final  -30.36 input  -57.11 | X-H torsion

> <Gold.Protein.ActiveResidues>
 VAL166  LYS551  ARG553  GLY616  TRP617  ASP618  TYR619  PRO620  LYS621  CYS622 
 ASP623  PHE694  ASN695  SER759  ASP760  ASP761  ALA762  ILE779  LEU786  VAL792 
 PHE793  MET794  SER795  GLU796  ALA797  LYS798  CYS799  TRP800  GLU811  SER814 

> <Gold.Protein.RotatedAtoms>
  151.4584  133.3599  159.2805 H   0  0  0  0  0  0  0  0  0  0  0  0  # atno 6907 bound_to 6896
  150.9042  134.8458  159.7392 H   0  0  0  0  0  0  0  0  0  0  0  0  # atno 6908 bound_to 6896
  152.4896  134.4508  159.9626 H   0  0  0  0  0  0  0  0  0  0  0  0  # atno 6909 bound_to 6896
  144.8453  140.5974  143.5425 H   0  0  0  0  0  0  0  0  0  0  0  0  # atno 7974 bound_to 7965
  156.2045  140.1755  156.7829 H   0  0  0  0  0  0  0  0  0  0  0  0  # atno 8008 bound_to 7997
  154.5636  140.0695  156.8887 H   0  0  0  0  0  0  0  0  0  0  0  0  # atno 8009 bound_to 7997
  155.2802  140.3348  155.4261 H   0  0  0  0  0  0  0  0  0  0  0  0  # atno 8010 bound_to 7997
  140.0997  144.4914  150.7045 H   0  0  0  0  0  0  0  0  0  0  0  0  # atno 10167 bound_to 10162
  156.2418  130.4180  149.8752 H   0  0  0  0  0  0  0  0  0  0  0  0  # atno 10718 bound_to 10713
  153.0367  135.5157  154.7509 H   0  0  0  0  0  0  0  0  0  0  0  0  # atno 10763 bound_to 10752
  154.6480  135.2921  155.0025 H   0  0  0  0  0  0  0  0  0  0  0  0  # atno 10764 bound_to 10752
  154.0919  135.6649  153.4906 H   0  0  0  0  0  0  0  0  0  0  0  0  # atno 10765 bound_to 10752
  140.9376  133.7299  156.1027 H   0  0  0  0  0  0  0  0  0  0  0  0  # atno 11005 bound_to 11000
  145.4609  139.1513  143.3866 LP  0  0  0  0  0  0  0  0  0  0  0  0  # atno 17320 bound_to 7965
  146.2739  140.4739  142.8803 LP  0  0  0  0  0  0  0  0  0  0  0  0  # atno 17321 bound_to 7965
  140.6984  143.2419  151.4934 LP  0  0  0  0  0  0  0  0  0  0  0  0  # atno 17342 bound_to 10162
  139.5678  144.2001  152.1791 LP  0  0  0  0  0  0  0  0  0  0  0  0  # atno 17343 bound_to 10162
  156.6331  130.8674  151.3499 LP  0  0  0  0  0  0  0  0  0  0  0  0  # atno 17370 bound_to 10713
  157.7178  130.9519  150.1322 LP  0  0  0  0  0  0  0  0  0  0  0  0  # atno 17371 bound_to 10713
  140.7778  134.3759  157.5494 LP  0  0  0  0  0  0  0  0  0  0  0  0  # atno 17394 bound_to 11000
  139.8812  134.9063  156.2919 LP  0  0  0  0  0  0  0  0  0  0  0  0  # atno 17395 bound_to 11000

$$$$
