AV-unprocessed.smi:2821|AV-procd|sdf|10857|dock7
  -GOLD-   2272015303D 1   1.00000     0.00000
 Structure written by MMmdl.
 36 37  0  0  0  0  0  0  0  0  1 V2000
  146.0416  142.6841  154.4581 C   0  0  0  0  0  0  0  0  0  0  0  0
  147.3388  141.8955  154.2653 C   0  0  0  0  0  0  0  0  0  0  0  0
  148.0836  141.9331  155.4791 O   0  0  0  0  0  0  0  0  0  0  0  0
  149.2968  141.2775  155.5202 C   0  0  0  0  0  0  0  0  0  0  0  0
  149.6673  140.4270  154.4568 C   0  0  0  0  0  0  0  0  0  0  0  0
  150.8510  139.7751  154.4418 N   0  0  0  0  0  0  0  0  0  0  0  0
  151.6688  139.9801  155.4980 C   0  0  0  0  0  0  0  0  0  0  0  0
  151.3113  140.8265  156.5707 C   0  0  0  0  0  0  0  0  0  0  0  0
  152.2063  141.0001  157.6376 N   0  0  0  0  0  0  0  0  0  0  0  0
  151.7541  141.3086  158.9920 C   0  0  1  0  0  0  0  0  0  0  0  0
  152.8643  140.9222  159.9829 C   0  0  0  0  0  0  0  0  0  0  0  0
  151.3626  142.7994  159.1233 C   0  0  2  0  0  0  0  0  0  0  0  0
  152.4050  143.7762  158.5729 C   0  0  0  0  0  0  0  0  0  0  0  0
  152.0985  145.0358  159.3486 C   0  0  0  0  0  0  0  0  0  0  0  0
  151.7682  144.4725  160.7250 C   0  0  0  0  0  0  0  0  0  0  0  0
  151.2170  143.1800  160.4920 O   0  0  0  0  0  0  0  0  0  0  0  0
  150.1184  141.4676  156.5826 N   0  0  0  0  0  0  0  0  0  0  0  0
  145.4435  142.6780  153.5467 H   0  0  0  0  0  0  0  0  0  0  0  0
  146.2497  143.7229  154.7151 H   0  0  0  0  0  0  0  0  0  0  0  0
  145.4377  142.2540  155.2574 H   0  0  0  0  0  0  0  0  0  0  0  0
  147.1021  140.8651  153.9946 H   0  0  0  0  0  0  0  0  0  0  0  0
  147.9172  142.3342  153.4507 H   0  0  0  0  0  0  0  0  0  0  0  0
  149.0131  140.2734  153.6115 H   0  0  0  0  0  0  0  0  0  0  0  0
  152.6176  139.4635  155.4845 H   0  0  0  0  0  0  0  0  0  0  0  0
  153.1967  141.0362  157.4450 H   0  0  0  0  0  0  0  0  0  0  0  0
  150.8853  140.6944  159.2306 H   0  0  0  0  0  0  0  0  0  0  0  0
  152.5471  141.0612  161.0164 H   0  0  0  0  0  0  0  0  0  0  0  0
  153.7631  141.5199  159.8270 H   0  0  0  0  0  0  0  0  0  0  0  0
  153.1397  139.8728  159.8718 H   0  0  0  0  0  0  0  0  0  0  0  0
  150.4087  142.9842  158.6267 H   0  0  0  0  0  0  0  0  0  0  0  0
  153.4141  143.4332  158.8062 H   0  0  0  0  0  0  0  0  0  0  0  0
  152.3311  143.9152  157.4940 H   0  0  0  0  0  0  0  0  0  0  0  0
  152.9263  145.7452  159.3644 H   0  0  0  0  0  0  0  0  0  0  0  0
  151.2252  145.5337  158.9249 H   0  0  0  0  0  0  0  0  0  0  0  0
  152.6758  144.3586  161.3192 H   0  0  0  0  0  0  0  0  0  0  0  0
  151.0768  145.1072  161.2794 H   0  0  0  0  0  0  0  0  0  0  0  0
  1  2  1  0  0  0  0
  1 18  1  0  0  0  0
  1 19  1  0  0  0  0
  1 20  1  0  0  0  0
  2  3  1  0  0  0  0
  2 21  1  0  0  0  0
  2 22  1  0  0  0  0
  3  4  1  0  0  0  0
  4 17  1  0  0  0  0
  4  5  2  0  0  0  0
  5  6  1  0  0  0  0
  5 23  1  0  0  0  0
  6  7  2  0  0  0  0
  7  8  1  0  0  0  0
  7 24  1  0  0  0  0
  8  9  1  0  0  0  0
  8 17  2  0  0  0  0
  9 10  1  0  0  0  0
  9 25  1  0  0  0  0
 10 11  1  0  0  0  0
 10 12  1  0  0  0  0
 10 26  1  0  0  0  0
 11 27  1  0  0  0  0
 11 28  1  0  0  0  0
 11 29  1  0  0  0  0
 12 16  1  0  0  0  0
 12 13  1  0  0  0  0
 12 30  1  0  0  0  0
 13 14  1  0  0  0  0
 13 31  1  0  0  0  0
 13 32  1  0  0  0  0
 14 15  1  0  0  0  0
 14 33  1  0  0  0  0
 14 34  1  0  0  0  0
 15 16  1  0  0  0  0
 15 35  1  0  0  0  0
 15 36  1  0  0  0  0
M  END
> <s_m_source_file>
AV-unprocessed.smi

> <i_m_source_file_index>
2821

> <i_lp_mmshare_version>
43012

> <i_f3d_flags>
0

> <s_epik_input>
W0NIM11bQ0gyXU9jMVtjSF1uW2NIXWMobjEpW05IXVtDQEhdKFtDSDNdKVtDQEBIXTJbQ0gyXVtDSDJdW0NIMl1PMg==

> <s_epik_cmdline>
J2VwaWtfcHl0aG9uJywgJy1waCcsICc3LjAnLCAnLXRuJywgJzgnLCAnLW1hJywgJzIwMCcsICctbWV0YWxfYmluZGluZycsICctaW1hZScsICc8aW5maWxlLm1hZT4nLCAnLW9tYWUnLCAnPG91dGZpbGUubWFlPic=

> <r_lp_tautomer_probability>
1

> <r_epik_Ionization_Penalty>
4.69533e-05

> <r_epik_Ionization_Penalty_Charging>
0

> <r_epik_Ionization_Penalty_Neutral>
4.69533e-05

> <r_epik_State_Penalty>
-0

> <r_epik_Charging_Adjusted_Penalty>
0

> <i_epik_Tot_Q>
0

> <i_epik_Tot_abs_Q>
0

> <r_epik_Metal_State_Penalty>
-0

> <b_epik_Metal_Only>
0

> <s_lp_Force_Field>
OPLS_2005

> <r_lp_Energy>
28.2268

> <b_lp_Chiralities_Consistent>
1

> <s_lp_Variant>
AV-unprocessed.smi:2821-2

> <Gold.Version>
5.8.1

> <Gold.Id.Protein>
6NUR|6NUR_protein|mol2

> <Gold.PLP.Fitness>
41.0092

> <Gold.PLP.PLP>
-37.7840

> <Gold.PLP.part.hbond>
-2.0000

> <Gold.PLP.part.metal>
0.0000

> <Gold.PLP.part.buried>
-2.5324

> <Gold.PLP.part.nonpolar>
-34.2804

> <Gold.PLP.part.repulsive>
2.2006

> <Gold.PLP.ligand.clash>
0.0000

> <Gold.PLP.ligand.torsion>
0.6997

> <Gold.PLP.Chemscore.Hbond>
0.5600

> <Gold.PLP.Chemscore.CHOScore>
0.9738

> <Gold.PLP.Chemscore.Metal>
0.0000

> <Gold.Chemscore.Hbonds>
donor molecule, donor type, donor heavy atom, donor atom, acceptor molecule, acceptor atom, score
      P1  H  7989  7998       L1     6  0.56
      L1  C     5    23       P1  7957  0.97

> <Gold.PLP.Chemscore.Internal.Correction>
0.0230

> <Gold.Rescore>
     Score         DG    S(hbond)    S(metal)    S(lipo)     H(rot)  DE(clash)    DE(int)     intcor
     12.41     -12.90       0.32        0.00      88.10       1.55       0.05       0.43       ----

> <Gold.Chemscore.Fitness>
12.4138

> <Gold.Chemscore.DG>
-12.8973

> <Gold.Chemscore.ZeroCoef>
-5.4800

> <Gold.Chemscore.Hbond>
0.3237

> <Gold.Chemscore.Metal>
0.0000

> <Gold.Chemscore.Lipo>
88.0979

> <Gold.Chemscore.Internal_Hbond>
0.0000

> <Gold.Chemscore.DEClash>
0.0539

> <Gold.Chemscore.DEInternal>
0.4295

> <Gold.Chemscore.Rot>
1.5514

> <Gold.Chemscore.Internal.Correction>
   9.000000E+99

> <Gold.Chemscore.Hbonds>
donor molecule, donor type, donor heavy atom, donor atom, acceptor molecule, acceptor atom, score
      P1  H  7989  7998       L1     6  0.01

> <Gold.Chemscore.Hbond.Weighted>
-1.0813

> <Gold.Chemscore.Metal.Weighted>
-0.0000

> <Gold.Chemscore.Lipo.Weighted>
-10.3075

> <Gold.Chemscore.Internal_Hbond.Weighted>
0.0000

> <Gold.Chemscore.DEClash.Weighted>
0.0539

> <Gold.Chemscore.DEInternal.Weighted>
0.4295

> <Gold.Chemscore.Rot.Weighted>
3.9715

> <Gold.Chemscore.Internal.Correction.Weighted>
   9.000000E+99

> <Gold.Protein.RotatedTorsions>
[ 6907 6896 6895 6894 ] final  -48.37 input  -60.11 | X-H torsion
[ 7974 7965 7964 7962 ] final -110.23 input  175.53 | X-H torsion
[ 8008 7997 7996 7995 ] final -161.28 input   59.86 | X-H torsion
[ 10167 10162 10161 10158 ] final -143.43 input  -65.29 | X-H torsion
[ 10718 10713 10712 10709 ] final   -8.31 input   66.30 | X-H torsion
[ 10763 10752 10751 10750 ] final   93.33 input  -60.55 | X-H torsion
[ 11005 11000 10999 10996 ] final  119.07 input  -57.11 | X-H torsion

> <Gold.Protein.ActiveResidues>
 VAL166  LYS551  ARG553  GLY616  TRP617  ASP618  TYR619  PRO620  LYS621  CYS622 
 ASP623  PHE694  ASN695  SER759  ASP760  ASP761  ALA762  ILE779  LEU786  VAL792 
 PHE793  MET794  SER795  GLU796  ALA797  LYS798  CYS799  TRP800  GLU811  SER814 

> <Gold.Protein.RotatedAtoms>
  150.8913  134.8316  159.7294 H   0  0  0  0  0  0  0  0  0  0  0  0  # atno 6907 bound_to 6896
  152.4838  134.4644  159.9625 H   0  0  0  0  0  0  0  0  0  0  0  0  # atno 6908 bound_to 6896
  151.4707  133.3531  159.2858 H   0  0  0  0  0  0  0  0  0  0  0  0  # atno 6909 bound_to 6896
  145.1708  140.8925  143.3536 H   0  0  0  0  0  0  0  0  0  0  0  0  # atno 7974 bound_to 7965
  155.7899  140.0877  157.2014 H   0  0  0  0  0  0  0  0  0  0  0  0  # atno 8008 bound_to 7997
  154.3986  140.1492  156.3209 H   0  0  0  0  0  0  0  0  0  0  0  0  # atno 8009 bound_to 7997
  155.8569  140.3432  155.5733 H   0  0  0  0  0  0  0  0  0  0  0  0  # atno 8010 bound_to 7997
  139.7994  143.7854  152.2657 H   0  0  0  0  0  0  0  0  0  0  0  0  # atno 10167 bound_to 10162
  156.7045  130.5103  149.5908 H   0  0  0  0  0  0  0  0  0  0  0  0  # atno 10718 bound_to 10713
  153.2291  135.4329  155.0575 H   0  0  0  0  0  0  0  0  0  0  0  0  # atno 10763 bound_to 10752
  154.8288  135.3375  154.6814 H   0  0  0  0  0  0  0  0  0  0  0  0  # atno 10764 bound_to 10752
  153.7242  135.7015  153.5061 H   0  0  0  0  0  0  0  0  0  0  0  0  # atno 10765 bound_to 10752
  139.9132  134.9625  156.7599 H   0  0  0  0  0  0  0  0  0  0  0  0  # atno 11005 bound_to 11000
  145.0234  139.3404  143.6061 LP  0  0  0  0  0  0  0  0  0  0  0  0  # atno 17320 bound_to 7965
  146.3469  139.9544  142.8725 LP  0  0  0  0  0  0  0  0  0  0  0  0  # atno 17321 bound_to 7965
  139.7970  144.7389  150.9877 LP  0  0  0  0  0  0  0  0  0  0  0  0  # atno 17342 bound_to 10162
  140.7820  143.4384  151.0588 LP  0  0  0  0  0  0  0  0  0  0  0  0  # atno 17343 bound_to 10162
  156.1705  130.6434  151.0831 LP  0  0  0  0  0  0  0  0  0  0  0  0  # atno 17370 bound_to 10713
  157.6960  131.0793  150.6966 LP  0  0  0  0  0  0  0  0  0  0  0  0  # atno 17371 bound_to 10713
  140.6706  133.9563  155.7854 LP  0  0  0  0  0  0  0  0  0  0  0  0  # atno 17394 bound_to 11000
  141.0580  134.0388  157.3696 LP  0  0  0  0  0  0  0  0  0  0  0  0  # atno 17395 bound_to 11000

$$$$
