AV-unprocessed.smi:933|AV-procd|sdf|4201|dock8
  -GOLD-   22720 2103D 1   1.00000     0.00000
 Structure written by MMmdl.
 42 43  0  0  0  0  0  0  0  0  1 V2000
  150.9896  141.4443  157.8197 C   0  0  0  0  0  0  0  0  0  0  0  0
  150.7088  141.9096  156.3869 C   0  0  0  0  0  0  0  0  0  0  0  0
  150.1465  140.8240  155.5315 C   0  0  0  0  0  0  0  0  0  0  0  0
  148.9800  140.9225  154.8885 N   0  0  0  0  0  0  0  0  0  0  0  0
  148.6863  139.7868  154.1272 C   0  0  0  0  0  0  0  0  0  0  0  0
  147.4125  139.7232  153.3402 C   0  0  0  0  0  0  0  0  0  0  0  0
  146.4672  138.6298  153.8557 C   0  0  0  0  0  0  0  0  0  0  0  0
  146.7343  137.3599  153.1852 N   0  0  0  0  0  0  0  0  0  0  0  0
  145.9412  136.2753  153.1549 C   0  0  0  0  0  0  0  0  0  0  0  0
  144.8528  136.2492  153.7263 O   0  0  0  0  0  0  0  0  0  0  0  0
  146.4393  135.2395  152.4592 N   0  0  0  0  0  0  0  0  0  0  0  0
  145.7699  133.9564  152.2648 C   0  0  2  0  0  0  0  0  0  0  0  0
  146.7005  132.9255  151.5915 C   0  0  0  0  0  0  0  0  0  0  0  0
  146.0990  132.6394  150.2145 C   0  0  0  0  0  0  0  0  0  0  0  0
  144.6073  132.9007  150.3938 C   0  0  0  0  0  0  0  0  0  0  0  0
  144.5533  134.1126  151.3281 C   0  0  1  0  0  0  0  0  0  0  0  0
  143.2165  134.2610  152.0675 C   0  0  0  0  0  0  0  0  0  0  0  0
  149.6626  138.8241  154.1930 C   0  0  0  0  0  0  0  0  0  0  0  0
  150.9881  139.3114  155.2133 S   0  0  0  0  0  0  0  0  0  0  0  0
  151.3981  142.2582  158.4191 H   0  0  0  0  0  0  0  0  0  0  0  0
  151.7101  140.6258  157.8331 H   0  0  0  0  0  0  0  0  0  0  0  0
  150.0777  141.0969  158.3060 H   0  0  0  0  0  0  0  0  0  0  0  0
  150.0068  142.7439  156.3984 H   0  0  0  0  0  0  0  0  0  0  0  0
  151.6266  142.2803  155.9288 H   0  0  0  0  0  0  0  0  0  0  0  0
  146.9060  140.6886  153.3773 H   0  0  0  0  0  0  0  0  0  0  0  0
  147.6372  139.5440  152.2878 H   0  0  0  0  0  0  0  0  0  0  0  0
  146.5945  138.5067  154.9325 H   0  0  0  0  0  0  0  0  0  0  0  0
  145.4309  138.9231  153.6805 H   0  0  0  0  0  0  0  0  0  0  0  0
  147.6169  137.2915  152.6995 H   0  0  0  0  0  0  0  0  0  0  0  0
  147.3442  135.3513  152.0257 H   0  0  0  0  0  0  0  0  0  0  0  0
  145.4457  133.5631  153.2306 H   0  0  0  0  0  0  0  0  0  0  0  0
  147.7361  133.2596  151.5149 H   0  0  0  0  0  0  0  0  0  0  0  0
  146.7053  132.0085  152.1822 H   0  0  0  0  0  0  0  0  0  0  0  0
  146.5078  133.3374  149.4828 H   0  0  0  0  0  0  0  0  0  0  0  0
  146.3105  131.6282  149.8658 H   0  0  0  0  0  0  0  0  0  0  0  0
  144.0969  133.0781  149.4467 H   0  0  0  0  0  0  0  0  0  0  0  0
  144.1402  132.0361  150.8680 H   0  0  0  0  0  0  0  0  0  0  0  0
  144.6979  134.9982  150.7060 H   0  0  0  0  0  0  0  0  0  0  0  0
  143.0082  133.3919  152.6923 H   0  0  0  0  0  0  0  0  0  0  0  0
  142.3911  134.3715  151.3639 H   0  0  0  0  0  0  0  0  0  0  0  0
  143.2238  135.1407  152.7121 H   0  0  0  0  0  0  0  0  0  0  0  0
  149.6851  137.8634  153.7004 H   0  0  0  0  0  0  0  0  0  0  0  0
  1  2  1  0  0  0  0
  1 20  1  0  0  0  0
  1 21  1  0  0  0  0
  1 22  1  0  0  0  0
  2  3  1  0  0  0  0
  2 23  1  0  0  0  0
  2 24  1  0  0  0  0
  3 19  1  0  0  0  0
  3  4  2  0  0  0  0
  4  5  1  0  0  0  0
  5  6  1  0  0  0  0
  5 18  2  0  0  0  0
  6  7  1  0  0  0  0
  6 25  1  0  0  0  0
  6 26  1  0  0  0  0
  7  8  1  0  0  0  0
  7 27  1  0  0  0  0
  7 28  1  0  0  0  0
  8  9  1  0  0  0  0
  8 29  1  0  0  0  0
  9 10  2  0  0  0  0
  9 11  1  0  0  0  0
 11 12  1  0  0  0  0
 11 30  1  0  0  0  0
 12 16  1  0  0  0  0
 12 13  1  0  0  0  0
 12 31  1  0  0  0  0
 13 14  1  0  0  0  0
 13 32  1  0  0  0  0
 13 33  1  0  0  0  0
 14 15  1  0  0  0  0
 14 34  1  0  0  0  0
 14 35  1  0  0  0  0
 15 16  1  0  0  0  0
 15 36  1  0  0  0  0
 15 37  1  0  0  0  0
 16 17  1  0  0  0  0
 16 38  1  0  0  0  0
 17 39  1  0  0  0  0
 17 40  1  0  0  0  0
 17 41  1  0  0  0  0
 18 19  1  0  0  0  0
 18 42  1  0  0  0  0
M  END
> <s_m_source_file>
AV-unprocessed.smi

> <i_m_source_file_index>
933

> <i_lp_mmshare_version>
43012

> <i_f3d_flags>
0

> <s_epik_input>
W0NIM11bQ0gyXWMxbmMoW2NIXXMxKVtDSDJdW0NIMl1bTkhdQyg9TylbTkhdW0NAQEhdMltDSDJdW0NIMl1bQ0gyXVtDQEhdMltDSDNd

> <s_epik_cmdline>
J2VwaWtfcHl0aG9uJywgJy1waCcsICc3LjAnLCAnLXRuJywgJzgnLCAnLW1hJywgJzIwMCcsICctbWV0YWxfYmluZGluZycsICctaW1hZScsICc8aW5maWxlLm1hZT4nLCAnLW9tYWUnLCAnPG91dGZpbGUubWFlPic=

> <r_epik_Ionization_Penalty>
0.00203408

> <r_epik_Ionization_Penalty_Charging>
0

> <r_epik_Ionization_Penalty_Neutral>
0.00203408

> <r_epik_State_Penalty>
0.0013452

> <r_epik_Charging_Adjusted_Penalty>
0.0013452

> <i_epik_Tot_Q>
0

> <i_epik_Tot_abs_Q>
0

> <r_epik_Metal_State_Penalty>
-0

> <b_epik_Metal_Only>
0

> <s_lp_Force_Field>
OPLS_2005

> <r_lp_Energy>
18.2024

> <b_lp_Chiralities_Consistent>
1

> <s_lp_Variant>
AV-unprocessed.smi:933-1

> <Gold.Version>
5.8.1

> <Gold.Id.Protein>
6NUR|6NUR_protein|mol2

> <Gold.PLP.Fitness>
42.3126

> <Gold.PLP.PLP>
-34.0934

> <Gold.PLP.part.hbond>
-2.0000

> <Gold.PLP.part.metal>
0.0000

> <Gold.PLP.part.buried>
-2.0826

> <Gold.PLP.part.nonpolar>
-29.5783

> <Gold.PLP.part.repulsive>
0.1815

> <Gold.PLP.ligand.clash>
0.0000

> <Gold.PLP.ligand.torsion>
0.3952

> <Gold.PLP.Chemscore.Hbond>
1.9920

> <Gold.PLP.Chemscore.CHOScore>
1.0000

> <Gold.PLP.Chemscore.Metal>
0.0000

> <Gold.Chemscore.Hbonds>
donor molecule, donor type, donor heavy atom, donor atom, acceptor molecule, acceptor atom, score
      L1  H     8    29       P1  7948  1.00
      L1  H    11    30       P1  7948  1.00
      L1  C    18    42       P1  7948  1.00

> <Gold.PLP.Chemscore.Internal.Correction>
0.0336

> <Gold.Rescore>
     Score         DG    S(hbond)    S(metal)    S(lipo)     H(rot)  DE(clash)    DE(int)     intcor
     17.69     -18.39       1.90        0.00      89.92       1.55       0.20       0.50       ----

> <Gold.Chemscore.Fitness>
17.6906

> <Gold.Chemscore.DG>
-18.3867

> <Gold.Chemscore.ZeroCoef>
-5.4800

> <Gold.Chemscore.Hbond>
1.9012

> <Gold.Chemscore.Metal>
0.0000

> <Gold.Chemscore.Lipo>
89.9158

> <Gold.Chemscore.Internal_Hbond>
0.0000

> <Gold.Chemscore.DEClash>
0.1964

> <Gold.Chemscore.DEInternal>
0.4997

> <Gold.Chemscore.Rot>
1.5482

> <Gold.Chemscore.Internal.Correction>
   9.000000E+99

> <Gold.Chemscore.Hbonds>
donor molecule, donor type, donor heavy atom, donor atom, acceptor molecule, acceptor atom, score
      L1  H     8    29       P1  7948  0.94
      L1  H    11    30       P1  7948  0.97

> <Gold.Chemscore.Hbond.Weighted>
-6.3501

> <Gold.Chemscore.Metal.Weighted>
-0.0000

> <Gold.Chemscore.Lipo.Weighted>
-10.5202

> <Gold.Chemscore.Internal_Hbond.Weighted>
0.0000

> <Gold.Chemscore.DEClash.Weighted>
0.1964

> <Gold.Chemscore.DEInternal.Weighted>
0.4997

> <Gold.Chemscore.Rot.Weighted>
3.9635

> <Gold.Chemscore.Internal.Correction.Weighted>
   9.000000E+99

> <Gold.Protein.RotatedTorsions>
[ 6907 6896 6895 6894 ] final   96.13 input  -60.11 | X-H torsion
[ 7974 7965 7964 7962 ] final    7.29 input  175.53 | X-H torsion
[ 8008 7997 7996 7995 ] final   49.33 input   59.86 | X-H torsion
[ 10167 10162 10161 10158 ] final   -1.90 input  -65.29 | X-H torsion
[ 10718 10713 10712 10709 ] final  139.85 input   66.30 | X-H torsion
[ 10763 10752 10751 10750 ] final   20.05 input  -60.55 | X-H torsion
[ 11005 11000 10999 10996 ] final   14.13 input  -57.11 | X-H torsion

> <Gold.Protein.ActiveResidues>
 VAL166  LYS551  ARG553  GLY616  TRP617  ASP618  TYR619  PRO620  LYS621  CYS622 
 ASP623  PHE694  ASN695  SER759  ASP760  ASP761  ALA762  ILE779  LEU786  VAL792 
 PHE793  MET794  SER795  GLU796  ALA797  LYS798  CYS799  TRP800  GLU811  SER814 

> <Gold.Protein.RotatedAtoms>
  152.5438  134.0934  159.8286 H   0  0  0  0  0  0  0  0  0  0  0  0  # atno 6907 bound_to 6896
  151.1020  133.5229  159.2617 H   0  0  0  0  0  0  0  0  0  0  0  0  # atno 6908 bound_to 6896
  151.1980  135.0440  159.8914 H   0  0  0  0  0  0  0  0  0  0  0  0  # atno 6909 bound_to 6896
  146.2428  140.0106  142.8407 H   0  0  0  0  0  0  0  0  0  0  0  0  # atno 7974 bound_to 7965
  155.4004  140.3437  155.4256 H   0  0  0  0  0  0  0  0  0  0  0  0  # atno 8008 bound_to 7997
  156.1507  140.1570  156.8807 H   0  0  0  0  0  0  0  0  0  0  0  0  # atno 8009 bound_to 7997
  154.5050  140.0805  156.7856 H   0  0  0  0  0  0  0  0  0  0  0  0  # atno 8010 bound_to 7997
  140.6829  143.6721  150.8177 H   0  0  0  0  0  0  0  0  0  0  0  0  # atno 10167 bound_to 10162
  157.4098  131.1026  151.0466 H   0  0  0  0  0  0  0  0  0  0  0  0  # atno 10718 bound_to 10713
  153.1110  135.6696  153.9500 H   0  0  0  0  0  0  0  0  0  0  0  0  # atno 10763 bound_to 10752
  153.9043  135.3032  155.3450 H   0  0  0  0  0  0  0  0  0  0  0  0  # atno 10764 bound_to 10752
  154.7530  135.5025  153.9400 H   0  0  0  0  0  0  0  0  0  0  0  0  # atno 10765 bound_to 10752
  140.4729  134.1012  155.7736 H   0  0  0  0  0  0  0  0  0  0  0  0  # atno 11005 bound_to 11000
  145.1331  140.9529  143.4532 LP  0  0  0  0  0  0  0  0  0  0  0  0  # atno 17320 bound_to 7965
  145.0368  139.3294  143.5997 LP  0  0  0  0  0  0  0  0  0  0  0  0  # atno 17321 bound_to 7965
  140.0423  143.5333  152.2712 LP  0  0  0  0  0  0  0  0  0  0  0  0  # atno 17342 bound_to 10162
  139.6165  144.7620  151.2835 LP  0  0  0  0  0  0  0  0  0  0  0  0  # atno 17343 bound_to 10162
  157.1434  130.6153  149.5561 LP  0  0  0  0  0  0  0  0  0  0  0  0  # atno 17370 bound_to 10713
  155.9847  130.4873  150.6997 LP  0  0  0  0  0  0  0  0  0  0  0  0  # atno 17371 bound_to 10713
  141.1568  133.8867  157.1955 LP  0  0  0  0  0  0  0  0  0  0  0  0  # atno 17394 bound_to 11000
  139.9874  135.0077  156.9894 LP  0  0  0  0  0  0  0  0  0  0  0  0  # atno 17395 bound_to 11000

$$$$
