AV-unprocessed.smi:1171|AV-procd|sdf|4942|dock4
  -GOLD-   22720 3523D 1   1.00000     0.00000
 Structure written by MMmdl.
 32 33  0  0  0  0  0  0  0  0  1 V2000
  147.1608  139.1219  153.1951 C   0  0  0  0  0  0  0  0  0  0  0  0
  148.2314  139.8483  153.9543 C   0  0  0  0  0  0  0  0  0  0  0  0
  148.1649  141.1449  154.5428 C   0  0  0  0  0  0  0  0  0  0  0  0
  149.4086  141.2887  155.0938 C   0  0  0  0  0  0  0  0  0  0  0  0
  149.9122  142.3305  155.8069 N   0  0  0  0  0  0  0  0  0  0  0  0
  150.6903  142.3068  156.9070 C   0  0  0  0  0  0  0  0  0  0  0  0
  151.0221  141.2866  157.5077 O   0  0  0  0  0  0  0  0  0  0  0  0
  151.0583  143.5228  157.3502 N   0  0  0  0  0  0  0  0  0  0  0  0
  151.8754  143.8405  158.4839 C   0  0  0  0  0  0  0  0  0  0  0  0
  151.2053  144.5514  159.6399 C   0  0  0  0  0  0  0  0  0  0  0  0
  152.1686  145.2995  158.7601 C   0  0  0  0  0  0  0  0  0  0  0  0
  150.1427  140.1512  154.8405 N   0  0  0  0  0  0  0  0  0  0  0  0
  151.5003  139.8201  155.2304 C   0  0  0  0  0  0  0  0  0  0  0  0
  151.5348  138.5664  156.1102 C   0  0  0  0  0  0  0  0  0  0  0  0
  151.4040  137.3273  155.3303 C   0  0  0  0  0  0  0  0  0  0  0  0
  151.3018  136.3525  154.7159 N   0  0  0  0  0  0  0  0  0  0  0  0
  149.4089  139.2616  154.1379 N   0  0  0  0  0  0  0  0  0  0  0  0
  146.2348  139.6968  153.1718 H   0  0  0  0  0  0  0  0  0  0  0  0
  146.9404  138.1571  153.6524 H   0  0  0  0  0  0  0  0  0  0  0  0
  147.4655  138.9419  152.1637 H   0  0  0  0  0  0  0  0  0  0  0  0
  147.3334  141.8335  154.5525 H   0  0  0  0  0  0  0  0  0  0  0  0
  149.6755  143.2467  155.4559 H   0  0  0  0  0  0  0  0  0  0  0  0
  150.6573  144.3139  156.8672 H   0  0  0  0  0  0  0  0  0  0  0  0
  152.6460  143.1271  158.7728 H   0  0  0  0  0  0  0  0  0  0  0  0
  150.1484  144.7948  159.5471 H   0  0  0  0  0  0  0  0  0  0  0  0
  151.5376  144.2983  160.6448 H   0  0  0  0  0  0  0  0  0  0  0  0
  153.1436  145.5445  159.1768 H   0  0  0  0  0  0  0  0  0  0  0  0
  151.7548  146.0404  158.0783 H   0  0  0  0  0  0  0  0  0  0  0  0
  152.1028  139.6708  154.3331 H   0  0  0  0  0  0  0  0  0  0  0  0
  151.9305  140.6708  155.7604 H   0  0  0  0  0  0  0  0  0  0  0  0
  152.4722  138.5135  156.6645 H   0  0  0  0  0  0  0  0  0  0  0  0
  150.7261  138.5909  156.8411 H   0  0  0  0  0  0  0  0  0  0  0  0
  1  2  1  0  0  0  0
  1 18  1  0  0  0  0
  1 19  1  0  0  0  0
  1 20  1  0  0  0  0
  2 17  2  0  0  0  0
  2  3  1  0  0  0  0
  3  4  2  0  0  0  0
  3 21  1  0  0  0  0
  4  5  1  0  0  0  0
  4 12  1  0  0  0  0
  5  6  1  0  0  0  0
  5 22  1  0  0  0  0
  6  7  2  0  0  0  0
  6  8  1  0  0  0  0
  8  9  1  0  0  0  0
  8 23  1  0  0  0  0
  9 11  1  0  0  0  0
  9 10  1  0  0  0  0
  9 24  1  0  0  0  0
 10 11  1  0  0  0  0
 10 25  1  0  0  0  0
 10 26  1  0  0  0  0
 11 27  1  0  0  0  0
 11 28  1  0  0  0  0
 12 13  1  0  0  0  0
 12 17  1  0  0  0  0
 13 14  1  0  0  0  0
 13 29  1  0  0  0  0
 13 30  1  0  0  0  0
 14 15  1  0  0  0  0
 14 31  1  0  0  0  0
 14 32  1  0  0  0  0
 15 16  3  0  0  0  0
M  END
> <s_m_source_file>
AV-unprocessed.smi

> <i_m_source_file_index>
1171

> <i_lp_mmshare_version>
43012

> <i_f3d_flags>
0

> <s_epik_input>
TiNDW0NIMl1bQ0gyXW4objEpYyhbY0hdYzFbQ0gzXSlbTkhdQyg9TylbTkhdW0NIXTJbQ0gyXVtDSDJdMg==

> <s_epik_cmdline>
J2VwaWtfcHl0aG9uJywgJy1waCcsICc3LjAnLCAnLXRuJywgJzgnLCAnLW1hJywgJzIwMCcsICctbWV0YWxfYmluZGluZycsICctaW1hZScsICc8aW5maWxlLm1hZT4nLCAnLW9tYWUnLCAnPG91dGZpbGUubWFlPic=

> <r_lp_tautomer_probability>
1

> <r_epik_Ionization_Penalty>
3.70036e-05

> <r_epik_Ionization_Penalty_Charging>
0

> <r_epik_Ionization_Penalty_Neutral>
3.70036e-05

> <r_epik_State_Penalty>
-0

> <r_epik_Charging_Adjusted_Penalty>
0

> <i_epik_Tot_Q>
0

> <i_epik_Tot_abs_Q>
0

> <r_epik_Metal_State_Penalty>
-0

> <b_epik_Metal_Only>
0

> <s_lp_Force_Field>
OPLS_2005

> <r_lp_Energy>
27.1595

> <b_lp_Chiralities_Consistent>
1

> <s_lp_Variant>
AV-unprocessed.smi:1171-1

> <Gold.Version>
5.8.1

> <Gold.Id.Protein>
6NUR|6NUR_protein|mol2

> <Gold.PLP.Fitness>
42.1726

> <Gold.PLP.PLP>
-35.3947

> <Gold.PLP.part.hbond>
-3.0000

> <Gold.PLP.part.metal>
0.0000

> <Gold.PLP.part.buried>
-2.4055

> <Gold.PLP.part.nonpolar>
-31.3092

> <Gold.PLP.part.repulsive>
0.9150

> <Gold.PLP.ligand.clash>
0.0000

> <Gold.PLP.ligand.torsion>
0.4204

> <Gold.PLP.Chemscore.Hbond>
2.5242

> <Gold.PLP.Chemscore.CHOScore>
0.0000

> <Gold.PLP.Chemscore.Metal>
0.0000

> <Gold.Chemscore.Hbonds>
donor molecule, donor type, donor heavy atom, donor atom, acceptor molecule, acceptor atom, score
      L1  H     5    22       P1  8028  1.00
      L1  H     8    23       P1  8028  0.54
      P1  H 10752 10763       L1    16  1.00

> <Gold.PLP.Chemscore.Internal.Correction>
0.0461

> <Gold.Rescore>
     Score         DG    S(hbond)    S(metal)    S(lipo)     H(rot)  DE(clash)    DE(int)     intcor
     15.23     -18.00       2.67        0.00      65.80       1.61       0.09       2.69       ----

> <Gold.Chemscore.Fitness>
15.2282

> <Gold.Chemscore.DG>
-18.0005

> <Gold.Chemscore.ZeroCoef>
-5.4800

> <Gold.Chemscore.Hbond>
2.6743

> <Gold.Chemscore.Metal>
0.0000

> <Gold.Chemscore.Lipo>
65.7985

> <Gold.Chemscore.Internal_Hbond>
0.0000

> <Gold.Chemscore.DEClash>
0.0872

> <Gold.Chemscore.DEInternal>
2.6850

> <Gold.Chemscore.Rot>
1.6056

> <Gold.Chemscore.Internal.Correction>
   9.000000E+99

> <Gold.Chemscore.Hbonds>
donor molecule, donor type, donor heavy atom, donor atom, acceptor molecule, acceptor atom, score
      L1  H     5    22       P1  8028  0.94
      L1  H     8    23       P1  8028  0.52
      P1  H 10752 10763       L1    16  0.78

> <Gold.Chemscore.Hbond.Weighted>
-8.9323

> <Gold.Chemscore.Metal.Weighted>
-0.0000

> <Gold.Chemscore.Lipo.Weighted>
-7.6984

> <Gold.Chemscore.Internal_Hbond.Weighted>
0.0000

> <Gold.Chemscore.DEClash.Weighted>
0.0872

> <Gold.Chemscore.DEInternal.Weighted>
2.6850

> <Gold.Chemscore.Rot.Weighted>
4.1102

> <Gold.Chemscore.Internal.Correction.Weighted>
   9.000000E+99

> <Gold.Protein.RotatedTorsions>
[ 6907 6896 6895 6894 ] final  151.23 input  -60.11 | X-H torsion
[ 7974 7965 7964 7962 ] final -173.71 input  175.53 | X-H torsion
[ 8008 7997 7996 7995 ] final  131.79 input   59.86 | X-H torsion
[ 10167 10162 10161 10158 ] final  163.27 input  -65.29 | X-H torsion
[ 10718 10713 10712 10709 ] final   -2.38 input   66.30 | X-H torsion
[ 10763 10752 10751 10750 ] final   49.56 input  -60.55 | X-H torsion
[ 11005 11000 10999 10996 ] final  128.19 input  -57.11 | X-H torsion

> <Gold.Protein.ActiveResidues>
 VAL166  LYS551  ARG553  GLY616  TRP617  ASP618  TYR619  PRO620  LYS621  CYS622 
 ASP623  PHE694  ASN695  SER759  ASP760  ASP761  ALA762  ILE779  LEU786  VAL792 
 PHE793  MET794  SER795  GLU796  ALA797  LYS798  CYS799  TRP800  GLU811  SER814 

> <Gold.Protein.RotatedAtoms>
  152.1035  133.4262  159.4597 H   0  0  0  0  0  0  0  0  0  0  0  0  # atno 6907 bound_to 6896
  150.6865  134.2733  159.4606 H   0  0  0  0  0  0  0  0  0  0  0  0  # atno 6908 bound_to 6896
  152.0595  134.9603  160.0625 H   0  0  0  0  0  0  0  0  0  0  0  0  # atno 6909 bound_to 6896
  144.7136  140.1581  143.6378 H   0  0  0  0  0  0  0  0  0  0  0  0  # atno 7974 bound_to 7965
  156.2974  140.2562  156.2982 H   0  0  0  0  0  0  0  0  0  0  0  0  # atno 8008 bound_to 7997
  154.9443  140.0395  157.2131 H   0  0  0  0  0  0  0  0  0  0  0  0  # atno 8009 bound_to 7997
  154.8097  140.2842  155.5867 H   0  0  0  0  0  0  0  0  0  0  0  0  # atno 8010 bound_to 7997
  139.4871  144.4354  151.9018 H   0  0  0  0  0  0  0  0  0  0  0  0  # atno 10167 bound_to 10162
  156.7916  130.5363  149.5735 H   0  0  0  0  0  0  0  0  0  0  0  0  # atno 10718 bound_to 10713
  152.9786  135.5907  154.4110 H   0  0  0  0  0  0  0  0  0  0  0  0  # atno 10763 bound_to 10752
  154.3745  135.2767  155.2249 H   0  0  0  0  0  0  0  0  0  0  0  0  # atno 10764 bound_to 10752
  154.4190  135.6063  153.6053 H   0  0  0  0  0  0  0  0  0  0  0  0  # atno 10765 bound_to 10752
  139.9547  134.9615  156.8966 H   0  0  0  0  0  0  0  0  0  0  0  0  # atno 11005 bound_to 11000
  145.9055  139.2456  143.1468 LP  0  0  0  0  0  0  0  0  0  0  0  0  # atno 17320 bound_to 7965
  145.9768  140.8715  143.0134 LP  0  0  0  0  0  0  0  0  0  0  0  0  # atno 17321 bound_to 7965
  140.3804  144.2744  150.5909 LP  0  0  0  0  0  0  0  0  0  0  0  0  # atno 17342 bound_to 10162
  140.5239  143.2259  151.8346 LP  0  0  0  0  0  0  0  0  0  0  0  0  # atno 17343 bound_to 10162
  156.1155  130.6072  151.0114 LP  0  0  0  0  0  0  0  0  0  0  0  0  # atno 17370 bound_to 10713
  157.6598  131.0883  150.7865 LP  0  0  0  0  0  0  0  0  0  0  0  0  # atno 17371 bound_to 10713
  140.5636  134.0511  155.7407 LP  0  0  0  0  0  0  0  0  0  0  0  0  # atno 17394 bound_to 11000
  141.1217  133.9450  157.2716 LP  0  0  0  0  0  0  0  0  0  0  0  0  # atno 17395 bound_to 11000

$$$$
