AV-unprocessed.smi:229|AV-procd|sdf|1761|dock3
  -GOLD-   2262020293D 1   1.00000     0.00000
 Structure written by MMmdl.
 58 62  0  0  0  0  0  0  0  0  1 V2000
  152.8990  143.4218  159.4630 C   0  0  0  0  0  0  0  0  0  0  0  0
  153.0921  142.1055  160.2263 C   0  0  0  0  0  0  0  0  0  0  0  0
  153.4128  140.9205  159.3032 C   0  0  2  0  0  0  0  0  0  0  0  0
  152.3228  140.7116  158.2377 C   0  0  0  0  0  0  0  0  0  0  0  0
  152.6177  139.5157  157.4568 N   0  0  0  0  0  0  0  0  0  0  0  0
  151.9433  139.3219  156.2966 C   0  0  0  0  0  0  0  0  0  0  0  0
  152.3046  138.3137  155.4583 N   0  0  0  0  0  0  0  0  0  0  0  0
  151.6491  138.1248  154.3089 C   0  0  0  0  0  0  0  0  0  0  0  0
  150.6177  138.8114  153.8134 N   0  0  0  0  0  0  0  0  0  0  0  0
  150.2452  139.8175  154.6551 C   0  0  0  0  0  0  0  0  0  0  0  0
  150.8485  140.1415  155.9028 C   0  0  0  0  0  0  0  0  0  0  0  0
  150.1914  141.2228  156.4791 N   0  0  0  0  0  0  0  0  0  0  0  0
  149.2566  141.5236  155.6194 C   0  0  0  0  0  0  0  0  0  0  0  0
  149.2137  140.7255  154.4986 N   0  0  0  0  0  0  0  0  0  0  0  0
  148.2798  140.8275  153.3904 C   0  0  0  0  0  0  0  0  0  0  0  0
  146.8134  140.6185  153.8280 C   0  0  1  0  0  0  0  0  0  0  0  0
  146.7715  139.5181  154.7170 O   0  0  0  0  0  0  0  0  0  0  0  0
  146.2187  141.8390  154.5590 C   0  0  1  0  0  0  0  0  0  0  0  0
  145.8317  143.0065  153.6501 C   0  0  0  0  0  0  0  0  0  0  0  0
  144.7958  143.7587  154.4670 C   0  0  0  0  0  0  0  0  0  0  0  0
  144.2856  142.7115  155.4600 C   0  0  0  0  0  0  0  0  0  0  0  0
  144.9548  141.5053  155.1148 O   0  0  0  0  0  0  0  0  0  0  0  0
  152.7753  138.3217  158.2788 C   0  0  0  0  0  0  0  0  0  0  0  0
  153.8341  138.5485  159.3802 C   0  0  2  0  0  0  0  0  0  0  0  0
  155.2710  138.5777  158.8474 C   0  0  0  0  0  0  0  0  0  0  0  0
  155.8192  137.2053  159.2106 C   0  0  0  0  0  0  0  0  0  0  0  0
  155.2232  136.9700  160.4723 O   0  0  0  0  0  0  0  0  0  0  0  0
  153.8636  137.3709  160.3738 C   0  0  0  0  0  0  0  0  0  0  0  0
  153.5165  139.7415  160.1039 O   0  0  0  0  0  0  0  0  0  0  0  0
  152.6538  144.2343  160.1470 H   0  0  0  0  0  0  0  0  0  0  0  0
  152.0892  143.3416  158.7374 H   0  0  0  0  0  0  0  0  0  0  0  0
  153.8047  143.7038  158.9251 H   0  0  0  0  0  0  0  0  0  0  0  0
  153.8873  142.2243  160.9632 H   0  0  0  0  0  0  0  0  0  0  0  0
  152.1826  141.8897  160.7877 H   0  0  0  0  0  0  0  0  0  0  0  0
  154.3635  141.1164  158.8054 H   0  0  0  0  0  0  0  0  0  0  0  0
  151.3457  140.6047  158.7112 H   0  0  0  0  0  0  0  0  0  0  0  0
  152.2760  141.5838  157.5837 H   0  0  0  0  0  0  0  0  0  0  0  0
  152.0020  137.3059  153.6995 H   0  0  0  0  0  0  0  0  0  0  0  0
  148.5638  142.3365  155.7837 H   0  0  0  0  0  0  0  0  0  0  0  0
  148.4000  141.8051  152.9211 H   0  0  0  0  0  0  0  0  0  0  0  0
  148.5694  140.0865  152.6449 H   0  0  0  0  0  0  0  0  0  0  0  0
  146.2044  140.3858  152.9533 H   0  0  0  0  0  0  0  0  0  0  0  0
  147.4792  139.6079  155.3366 H   0  0  0  0  0  0  0  0  0  0  0  0
  146.8888  142.1924  155.3455 H   0  0  0  0  0  0  0  0  0  0  0  0
  146.6823  143.6297  153.3726 H   0  0  0  0  0  0  0  0  0  0  0  0
  145.3723  142.6322  152.7340 H   0  0  0  0  0  0  0  0  0  0  0  0
  145.2516  144.5934  155.0008 H   0  0  0  0  0  0  0  0  0  0  0  0
  143.9992  144.1553  153.8366 H   0  0  0  0  0  0  0  0  0  0  0  0
  144.5454  142.9914  156.4817 H   0  0  0  0  0  0  0  0  0  0  0  0
  143.2047  142.5794  155.4077 H   0  0  0  0  0  0  0  0  0  0  0  0
  151.8110  138.0947  158.7360 H   0  0  0  0  0  0  0  0  0  0  0  0
  153.0465  137.4536  157.6783 H   0  0  0  0  0  0  0  0  0  0  0  0
  155.3397  138.7887  157.7796 H   0  0  0  0  0  0  0  0  0  0  0  0
  155.8530  139.3355  159.3739 H   0  0  0  0  0  0  0  0  0  0  0  0
  155.4920  136.4479  158.4960 H   0  0  0  0  0  0  0  0  0  0  0  0
  156.9076  137.1853  159.2665 H   0  0  0  0  0  0  0  0  0  0  0  0
  153.4673  137.6343  161.3549 H   0  0  0  0  0  0  0  0  0  0  0  0
  153.2832  136.5251  160.0018 H   0  0  0  0  0  0  0  0  0  0  0  0
  1  2  1  0  0  0  0
  1 30  1  0  0  0  0
  1 31  1  0  0  0  0
  1 32  1  0  0  0  0
  2  3  1  0  0  0  0
  2 33  1  0  0  0  0
  2 34  1  0  0  0  0
  3 29  1  0  0  0  0
  3  4  1  0  0  0  0
  3 35  1  0  0  0  0
  4  5  1  0  0  0  0
  4 36  1  0  0  0  0
  4 37  1  0  0  0  0
  5  6  1  0  0  0  0
  5 23  1  0  0  0  0
  6 11  1  0  0  0  0
  6  7  2  0  0  0  0
  7  8  1  0  0  0  0
  8  9  2  0  0  0  0
  8 38  1  0  0  0  0
  9 10  1  0  0  0  0
 10 14  1  0  0  0  0
 10 11  2  0  0  0  0
 11 12  1  0  0  0  0
 12 13  2  0  0  0  0
 13 14  1  0  0  0  0
 13 39  1  0  0  0  0
 14 15  1  0  0  0  0
 15 16  1  0  0  0  0
 15 40  1  0  0  0  0
 15 41  1  0  0  0  0
 16 17  1  0  0  0  0
 16 18  1  0  0  0  0
 16 42  1  0  0  0  0
 17 43  1  0  0  0  0
 18 22  1  0  0  0  0
 18 19  1  0  0  0  0
 18 44  1  0  0  0  0
 19 20  1  0  0  0  0
 19 45  1  0  0  0  0
 19 46  1  0  0  0  0
 20 21  1  0  0  0  0
 20 47  1  0  0  0  0
 20 48  1  0  0  0  0
 21 22  1  0  0  0  0
 21 49  1  0  0  0  0
 21 50  1  0  0  0  0
 23 24  1  0  0  0  0
 23 51  1  0  0  0  0
 23 52  1  0  0  0  0
 24 28  1  0  0  0  0
 24 25  1  0  0  0  0
 24 29  1  0  0  0  0
 25 26  1  0  0  0  0
 25 53  1  0  0  0  0
 25 54  1  0  0  0  0
 26 27  1  0  0  0  0
 26 55  1  0  0  0  0
 26 56  1  0  0  0  0
 27 28  1  0  0  0  0
 28 57  1  0  0  0  0
 28 58  1  0  0  0  0
M  END
> <s_m_source_file>
AV-unprocessed.smi

> <i_m_source_file_index>
229

> <i_lp_mmshare_version>
43012

> <i_f3d_flags>
0

> <s_epik_input>
W0NIMl0xT1tDSDJdW0NIMl1bQ0BdMTJbQ0gyXU4oW0NIMl1bQ0BIXShPMilbQ0gyXVtDSDNdKWMobltjSF1uMyljKGMzNCluW2NIXW40W0NIMl1bQ0BIXShbT0hdKVtDQEBIXTVbQ0gyXVtDSDJdW0NIMl1PNQ==

> <s_epik_cmdline>
J2VwaWtfcHl0aG9uJywgJy1waCcsICc3LjAnLCAnLXRuJywgJzgnLCAnLW1hJywgJzIwMCcsICctbWV0YWxfYmluZGluZycsICctaW1hZScsICc8aW5maWxlLm1hZT4nLCAnLW9tYWUnLCAnPG91dGZpbGUubWFlPic=

> <r_lp_tautomer_probability>
1

> <r_epik_Ionization_Penalty>
0.00318402

> <r_epik_Ionization_Penalty_Charging>
0

> <r_epik_Ionization_Penalty_Neutral>
0.00318402

> <r_epik_State_Penalty>
0.00215642

> <r_epik_Charging_Adjusted_Penalty>
0.00215642

> <i_epik_Tot_Q>
0

> <i_epik_Tot_abs_Q>
0

> <r_epik_Metal_State_Penalty>
-0

> <b_epik_Metal_Only>
0

> <s_lp_Force_Field>
OPLS_2005

> <r_lp_Energy>
54.7562

> <b_lp_Chiralities_Consistent>
1

> <s_lp_Variant>
AV-unprocessed.smi:229-15

> <Gold.Version>
5.8.1

> <Gold.Id.Protein>
6NUR|6NUR_protein|mol2

> <Gold.PLP.Fitness>
51.3144

> <Gold.PLP.PLP>
-44.8984

> <Gold.PLP.part.hbond>
-1.1109

> <Gold.PLP.part.metal>
0.0000

> <Gold.PLP.part.buried>
-1.2581

> <Gold.PLP.part.nonpolar>
-41.7066

> <Gold.PLP.part.repulsive>
0.4692

> <Gold.PLP.ligand.clash>
0.0000

> <Gold.PLP.ligand.torsion>
0.4450

> <Gold.PLP.Chemscore.Hbond>
0.7930

> <Gold.PLP.Chemscore.CHOScore>
1.5085

> <Gold.PLP.Chemscore.Metal>
0.0000

> <Gold.Chemscore.Hbonds>
donor molecule, donor type, donor heavy atom, donor atom, acceptor molecule, acceptor atom, score
      P1  H  7997  8009       L1     5  0.90
      L1  C     8    38       P1  7949  0.58
      L1  C    13    39       P1  8028  1.00

> <Gold.PLP.Chemscore.Internal.Correction>
0.4015

> <Gold.Rescore>
     Score         DG    S(hbond)    S(metal)    S(lipo)     H(rot)  DE(clash)    DE(int)     intcor
      9.36     -11.14       0.02        0.00     101.50       2.46       0.09       1.70       ----

> <Gold.Chemscore.Fitness>
9.3569

> <Gold.Chemscore.DG>
-11.1420

> <Gold.Chemscore.ZeroCoef>
-5.4800

> <Gold.Chemscore.Hbond>
0.0246

> <Gold.Chemscore.Metal>
0.0000

> <Gold.Chemscore.Lipo>
101.4984

> <Gold.Chemscore.Internal_Hbond>
0.0000

> <Gold.Chemscore.DEClash>
0.0866

> <Gold.Chemscore.DEInternal>
1.6985

> <Gold.Chemscore.Rot>
2.4591

> <Gold.Chemscore.Internal.Correction>
   9.000000E+99

> <Gold.Chemscore.Hbonds>
donor molecule, donor type, donor heavy atom, donor atom, acceptor molecule, acceptor atom, score
      P1  H  7997  8009       L1     5  0.04

> <Gold.Chemscore.Hbond.Weighted>
-0.0821

> <Gold.Chemscore.Metal.Weighted>
-0.0000

> <Gold.Chemscore.Lipo.Weighted>
-11.8753

> <Gold.Chemscore.Internal_Hbond.Weighted>
0.0000

> <Gold.Chemscore.DEClash.Weighted>
0.0866

> <Gold.Chemscore.DEInternal.Weighted>
1.6985

> <Gold.Chemscore.Rot.Weighted>
6.2953

> <Gold.Chemscore.Internal.Correction.Weighted>
   9.000000E+99

> <Gold.Protein.RotatedTorsions>
[ 6907 6896 6895 6894 ] final  -91.84 input  -60.11 | X-H torsion
[ 7974 7965 7964 7962 ] final   46.71 input  175.53 | X-H torsion
[ 8008 7997 7996 7995 ] final  172.27 input   59.86 | X-H torsion
[ 10167 10162 10161 10158 ] final  128.46 input  -65.29 | X-H torsion
[ 10718 10713 10712 10709 ] final   -1.71 input   66.30 | X-H torsion
[ 10763 10752 10751 10750 ] final    7.61 input  -60.55 | X-H torsion
[ 11005 11000 10999 10996 ] final  176.38 input  -57.11 | X-H torsion

> <Gold.Protein.ActiveResidues>
 VAL166  LYS551  ARG553  GLY616  TRP617  ASP618  TYR619  PRO620  LYS621  CYS622 
 ASP623  PHE694  ASN695  SER759  ASP760  ASP761  ALA762  ILE779  LEU786  VAL792 
 PHE793  MET794  SER795  GLU796  ALA797  LYS798  CYS799  TRP800  GLU811  SER814 

> <Gold.Protein.RotatedAtoms>
  150.6898  134.2215  159.4398 H   0  0  0  0  0  0  0  0  0  0  0  0  # atno 6907 bound_to 6896
  152.0171  134.9841  160.0579 H   0  0  0  0  0  0  0  0  0  0  0  0  # atno 6908 bound_to 6896
  152.1433  133.4442  159.4814 H   0  0  0  0  0  0  0  0  0  0  0  0  # atno 6909 bound_to 6896
  146.0365  139.4827  142.9805 H   0  0  0  0  0  0  0  0  0  0  0  0  # atno 7974 bound_to 7965
  156.1191  140.1490  156.9231 H   0  0  0  0  0  0  0  0  0  0  0  0  # atno 8008 bound_to 7997
  154.4822  140.0876  156.7446 H   0  0  0  0  0  0  0  0  0  0  0  0  # atno 8009 bound_to 7997
  155.4461  140.3433  155.4297 H   0  0  0  0  0  0  0  0  0  0  0  0  # atno 8010 bound_to 7997
  139.5526  144.6825  151.4278 H   0  0  0  0  0  0  0  0  0  0  0  0  # atno 10167 bound_to 10162
  156.8016  130.5394  149.5721 H   0  0  0  0  0  0  0  0  0  0  0  0  # atno 10718 bound_to 10713
  153.2343  135.6896  153.7854 H   0  0  0  0  0  0  0  0  0  0  0  0  # atno 10763 bound_to 10752
  153.7007  135.3298  155.3225 H   0  0  0  0  0  0  0  0  0  0  0  0  # atno 10764 bound_to 10752
  154.8328  135.4567  154.1241 H   0  0  0  0  0  0  0  0  0  0  0  0  # atno 10765 bound_to 10752
  140.3725  134.7017  157.4401 H   0  0  0  0  0  0  0  0  0  0  0  0  # atno 11005 bound_to 11000
  145.6955  141.0151  143.1532 LP  0  0  0  0  0  0  0  0  0  0  0  0  # atno 17320 bound_to 7965
  144.7054  139.8583  143.7431 LP  0  0  0  0  0  0  0  0  0  0  0  0  # atno 17321 bound_to 7965
  140.6792  143.8121  150.7098 LP  0  0  0  0  0  0  0  0  0  0  0  0  # atno 17342 bound_to 10162
  140.1569  143.4309  152.2093 LP  0  0  0  0  0  0  0  0  0  0  0  0  # atno 17343 bound_to 10162
  156.1098  130.6032  151.0029 LP  0  0  0  0  0  0  0  0  0  0  0  0  # atno 17370 bound_to 10713
  157.6551  131.0890  150.7965 LP  0  0  0  0  0  0  0  0  0  0  0  0  # atno 17371 bound_to 10713
  140.0540  134.6089  155.8827 LP  0  0  0  0  0  0  0  0  0  0  0  0  # atno 17394 bound_to 11000
  141.1950  133.6585  156.5621 LP  0  0  0  0  0  0  0  0  0  0  0  0  # atno 17395 bound_to 11000

$$$$
