AV-unprocessed.smi:2935|AV-procd|sdf|11256|dock6
  -GOLD-   2272016153D 1   1.00000     0.00000
 Structure written by MMmdl.
 36 37  0  0  0  0  0  0  0  0  1 V2000
  152.1842  144.8152  157.5027 C   0  0  0  0  0  0  0  0  0  0  0  0
  151.5999  143.7213  158.4218 C   0  0  0  0  0  0  0  0  0  0  0  0
  151.4341  142.4225  157.6003 C   0  0  0  0  0  0  0  0  0  0  0  0
  152.0602  141.4150  157.9339 O   0  0  0  0  0  0  0  0  0  0  0  0
  150.5776  142.4601  156.5608 N   0  0  0  0  0  0  0  0  0  0  0  0
  150.2572  141.4148  155.6579 C   0  0  0  0  0  0  0  0  0  0  0  0
  149.1156  141.5094  154.8154 C   0  0  0  0  0  0  0  0  0  0  0  0
  149.1458  140.3386  154.1123 C   0  0  0  0  0  0  0  0  0  0  0  0
  150.2491  139.6259  154.5393 N   0  0  0  0  0  0  0  0  0  0  0  0
  150.7053  138.3204  154.0968 C   0  0  0  0  0  0  0  0  0  0  0  0
  150.2838  137.2240  155.0767 C   0  0  0  0  0  0  0  0  0  0  0  0
  149.5023  136.2499  154.6029 N   0  0  0  0  0  0  0  0  0  0  0  0
  150.6562  137.2583  156.2473 O   0  0  0  0  0  0  0  0  0  0  0  0
  150.9382  140.2892  155.4935 N   0  0  0  0  0  0  0  0  0  0  0  0
  152.4604  143.5373  159.6916 C   0  0  0  0  0  0  0  0  0  0  0  0
  152.0176  144.6361  160.6599 C   0  0  0  0  0  0  0  0  0  0  0  0
  150.5603  144.9482  160.3052 C   0  0  0  0  0  0  0  0  0  0  0  0
  150.2486  144.1803  159.0129 C   0  0  0  0  0  0  0  0  0  0  0  0
  152.2782  145.7697  158.0211 H   0  0  0  0  0  0  0  0  0  0  0  0
  151.5523  144.9840  156.6297 H   0  0  0  0  0  0  0  0  0  0  0  0
  153.1767  144.5419  157.1418 H   0  0  0  0  0  0  0  0  0  0  0  0
  150.1067  143.3382  156.3991 H   0  0  0  0  0  0  0  0  0  0  0  0
  148.3898  142.3053  154.7389 H   0  0  0  0  0  0  0  0  0  0  0  0
  148.4807  139.9545  153.3527 H   0  0  0  0  0  0  0  0  0  0  0  0
  150.2861  138.1203  153.1099 H   0  0  0  0  0  0  0  0  0  0  0  0
  151.7912  138.3283  153.9884 H   0  0  0  0  0  0  0  0  0  0  0  0
  149.1928  135.5106  155.2175 H   0  0  0  0  0  0  0  0  0  0  0  0
  149.2167  136.2612  153.6346 H   0  0  0  0  0  0  0  0  0  0  0  0
  152.2621  142.5701  160.1573 H   0  0  0  0  0  0  0  0  0  0  0  0
  153.5310  143.5867  159.4884 H   0  0  0  0  0  0  0  0  0  0  0  0
  152.1333  144.3325  161.7007 H   0  0  0  0  0  0  0  0  0  0  0  0
  152.6287  145.5272  160.5117 H   0  0  0  0  0  0  0  0  0  0  0  0
  149.8830  144.6469  161.1050 H   0  0  0  0  0  0  0  0  0  0  0  0
  150.4318  146.0213  160.1584 H   0  0  0  0  0  0  0  0  0  0  0  0
  149.6738  144.7898  158.3141 H   0  0  0  0  0  0  0  0  0  0  0  0
  149.6259  143.3195  159.2643 H   0  0  0  0  0  0  0  0  0  0  0  0
  1  2  1  0  0  0  0
  1 19  1  0  0  0  0
  1 20  1  0  0  0  0
  1 21  1  0  0  0  0
  2 18  1  0  0  0  0
  2  3  1  0  0  0  0
  2 15  1  0  0  0  0
  3  4  2  0  0  0  0
  3  5  1  0  0  0  0
  5  6  1  0  0  0  0
  5 22  1  0  0  0  0
  6 14  2  0  0  0  0
  6  7  1  0  0  0  0
  7  8  2  0  0  0  0
  7 23  1  0  0  0  0
  8  9  1  0  0  0  0
  8 24  1  0  0  0  0
  9 10  1  0  0  0  0
  9 14  1  0  0  0  0
 10 11  1  0  0  0  0
 10 25  1  0  0  0  0
 10 26  1  0  0  0  0
 11 12  1  0  0  0  0
 11 13  2  0  0  0  0
 12 27  1  0  0  0  0
 12 28  1  0  0  0  0
 15 16  1  0  0  0  0
 15 29  1  0  0  0  0
 15 30  1  0  0  0  0
 16 17  1  0  0  0  0
 16 31  1  0  0  0  0
 16 32  1  0  0  0  0
 17 18  1  0  0  0  0
 17 33  1  0  0  0  0
 17 34  1  0  0  0  0
 18 35  1  0  0  0  0
 18 36  1  0  0  0  0
M  END
> <s_m_source_file>
AV-unprocessed.smi

> <i_m_source_file_index>
2935

> <i_lp_mmshare_version>
43012

> <i_f3d_flags>
0

> <s_epik_input>
W0NIMl0xW0NIMl1bQ0gyXVtDSDJdQzEoW0NIM10pQyg9TylbTkhdYzJbY0hdW2NIXW4objIpW0NIMl1DKD1PKVtOSDJd

> <s_epik_cmdline>
J2VwaWtfcHl0aG9uJywgJy1waCcsICc3LjAnLCAnLXRuJywgJzgnLCAnLW1hJywgJzIwMCcsICctbWV0YWxfYmluZGluZycsICctaW1hZScsICc8aW5maWxlLm1hZT4nLCAnLW9tYWUnLCAnPG91dGZpbGUubWFlPic=

> <r_lp_tautomer_probability>
1

> <r_epik_Ionization_Penalty>
1.6611e-05

> <r_epik_Ionization_Penalty_Charging>
0

> <r_epik_Ionization_Penalty_Neutral>
1.6611e-05

> <r_epik_State_Penalty>
-0

> <r_epik_Charging_Adjusted_Penalty>
0

> <i_epik_Tot_Q>
0

> <i_epik_Tot_abs_Q>
0

> <r_epik_Metal_State_Penalty>
-0

> <b_epik_Metal_Only>
0

> <s_lp_Force_Field>
OPLS_2005

> <r_lp_Energy>
27.108

> <b_lp_Chiralities_Consistent>
1

> <s_lp_Variant>
AV-unprocessed.smi:2935-1

> <Gold.Version>
5.8.1

> <Gold.Id.Protein>
6NUR|6NUR_protein|mol2

> <Gold.PLP.Fitness>
46.5754

> <Gold.PLP.PLP>
-39.3429

> <Gold.PLP.part.hbond>
-2.5673

> <Gold.PLP.part.metal>
0.0000

> <Gold.PLP.part.buried>
-3.7374

> <Gold.PLP.part.nonpolar>
-33.5107

> <Gold.PLP.part.repulsive>
0.1235

> <Gold.PLP.ligand.clash>
0.0000

> <Gold.PLP.ligand.torsion>
0.3812

> <Gold.PLP.Chemscore.Hbond>
2.0000

> <Gold.PLP.Chemscore.CHOScore>
0.6486

> <Gold.PLP.Chemscore.Metal>
0.0000

> <Gold.Chemscore.Hbonds>
donor molecule, donor type, donor heavy atom, donor atom, acceptor molecule, acceptor atom, score
      L1  H     5    22       P1  8028  1.00
      L1  H    12    28       P1  7948  1.00
      L1  C     8    24       P1  7957  0.59

> <Gold.PLP.Chemscore.Internal.Correction>
0.0491

> <Gold.Rescore>
     Score         DG    S(hbond)    S(metal)    S(lipo)     H(rot)  DE(clash)    DE(int)     intcor
     15.18     -17.62       1.93        0.00      90.52       1.91       0.77       1.66       ----

> <Gold.Chemscore.Fitness>
15.1830

> <Gold.Chemscore.DG>
-17.6153

> <Gold.Chemscore.ZeroCoef>
-5.4800

> <Gold.Chemscore.Hbond>
1.9268

> <Gold.Chemscore.Metal>
0.0000

> <Gold.Chemscore.Lipo>
90.5244

> <Gold.Chemscore.Internal_Hbond>
0.0000

> <Gold.Chemscore.DEClash>
0.7708

> <Gold.Chemscore.DEInternal>
1.6614

> <Gold.Chemscore.Rot>
1.9108

> <Gold.Chemscore.Internal.Correction>
   9.000000E+99

> <Gold.Chemscore.Hbonds>
donor molecule, donor type, donor heavy atom, donor atom, acceptor molecule, acceptor atom, score
      L1  H     5    22       P1  8028  0.97
      L1  H    12    28       P1  7948  0.93

> <Gold.Chemscore.Hbond.Weighted>
-6.4356

> <Gold.Chemscore.Metal.Weighted>
-0.0000

> <Gold.Chemscore.Lipo.Weighted>
-10.5914

> <Gold.Chemscore.Internal_Hbond.Weighted>
0.0000

> <Gold.Chemscore.DEClash.Weighted>
0.7708

> <Gold.Chemscore.DEInternal.Weighted>
1.6614

> <Gold.Chemscore.Rot.Weighted>
4.8916

> <Gold.Chemscore.Internal.Correction.Weighted>
   9.000000E+99

> <Gold.Protein.RotatedTorsions>
[ 6907 6896 6895 6894 ] final  176.21 input  -60.11 | X-H torsion
[ 7974 7965 7964 7962 ] final   52.71 input  175.53 | X-H torsion
[ 8008 7997 7996 7995 ] final  175.81 input   59.86 | X-H torsion
[ 10167 10162 10161 10158 ] final  120.88 input  -65.29 | X-H torsion
[ 10718 10713 10712 10709 ] final -140.32 input   66.30 | X-H torsion
[ 10763 10752 10751 10750 ] final -121.68 input  -60.55 | X-H torsion
[ 11005 11000 10999 10996 ] final  140.12 input  -57.11 | X-H torsion

> <Gold.Protein.ActiveResidues>
 VAL166  LYS551  ARG553  GLY616  TRP617  ASP618  TYR619  PRO620  LYS621  CYS622 
 ASP623  PHE694  ASN695  SER759  ASP760  ASP761  ALA762  ILE779  LEU786  VAL792 
 PHE793  MET794  SER795  GLU796  ALA797  LYS798  CYS799  TRP800  GLU811  SER814 

> <Gold.Protein.RotatedAtoms>
  151.7238  133.3315  159.3321 H   0  0  0  0  0  0  0  0  0  0  0  0  # atno 6907 bound_to 6896
  150.7641  134.6425  159.6254 H   0  0  0  0  0  0  0  0  0  0  0  0  # atno 6908 bound_to 6896
  152.3635  134.6840  160.0251 H   0  0  0  0  0  0  0  0  0  0  0  0  # atno 6909 bound_to 6896
  145.9786  139.4219  143.0146 H   0  0  0  0  0  0  0  0  0  0  0  0  # atno 7974 bound_to 7965
  156.0831  140.1399  156.9687 H   0  0  0  0  0  0  0  0  0  0  0  0  # atno 8008 bound_to 7997
  154.4597  140.0948  156.6906 H   0  0  0  0  0  0  0  0  0  0  0  0  # atno 8009 bound_to 7997
  155.5043  140.3452  155.4379 H   0  0  0  0  0  0  0  0  0  0  0  0  # atno 8010 bound_to 7997
  139.5954  144.7040  151.3188 H   0  0  0  0  0  0  0  0  0  0  0  0  # atno 10167 bound_to 10162
  156.3210  130.7534  151.1631 H   0  0  0  0  0  0  0  0  0  0  0  0  # atno 10718 bound_to 10713
  154.8673  135.4159  154.2660 H   0  0  0  0  0  0  0  0  0  0  0  0  # atno 10763 bound_to 10752
  153.3579  135.7002  153.6741 H   0  0  0  0  0  0  0  0  0  0  0  0  # atno 10764 bound_to 10752
  153.5654  135.3601  155.2789 H   0  0  0  0  0  0  0  0  0  0  0  0  # atno 10765 bound_to 10752
  140.0304  134.9354  157.0652 H   0  0  0  0  0  0  0  0  0  0  0  0  # atno 11005 bound_to 11000
  145.7802  140.9859  143.1103 LP  0  0  0  0  0  0  0  0  0  0  0  0  # atno 17320 bound_to 7965
  144.6855  139.9555  143.7479 LP  0  0  0  0  0  0  0  0  0  0  0  0  # atno 17321 bound_to 7965
  140.7208  143.7142  150.7746 LP  0  0  0  0  0  0  0  0  0  0  0  0  # atno 17342 bound_to 10162
  140.0707  143.5064  152.2581 LP  0  0  0  0  0  0  0  0  0  0  0  0  # atno 17343 bound_to 10162
  157.7411  131.0507  150.5116 LP  0  0  0  0  0  0  0  0  0  0  0  0  # atno 17370 bound_to 10713
  156.5269  130.4175  149.6222 LP  0  0  0  0  0  0  0  0  0  0  0  0  # atno 17371 bound_to 10713
  140.4235  134.1856  155.7165 LP  0  0  0  0  0  0  0  0  0  0  0  0  # atno 17394 bound_to 11000
  141.1828  133.8378  157.1198 LP  0  0  0  0  0  0  0  0  0  0  0  0  # atno 17395 bound_to 11000

$$$$
