AV-unprocessed.smi:218|AV-procd|sdf|1671|dock2
  -GOLD-   2262020 83D 1   1.00000     0.00000
 Structure written by MMmdl.
 54 57  0  0  0  0  0  0  0  0  1 V2000
  153.4973  141.4861  161.6250 C   0  0  0  0  0  0  0  0  0  0  0  0
  153.2168  141.7186  160.1354 C   0  0  0  0  0  0  0  0  0  0  0  0
  152.6174  143.1145  159.8929 C   0  0  0  0  0  0  0  0  0  0  0  0
  152.2981  140.7052  159.7215 O   0  0  0  0  0  0  0  0  0  0  0  0
  151.7085  140.7701  158.4735 C   0  0  0  0  0  0  0  0  0  0  0  0
  152.0271  139.7710  157.5309 C   0  0  0  0  0  0  0  0  0  0  0  0
  151.4384  139.8291  156.2518 C   0  0  0  0  0  0  0  0  0  0  0  0
  151.7458  138.7704  155.2149 C   0  0  0  0  0  0  0  0  0  0  0  0
  151.6204  137.4208  155.7402 N   0  0  0  0  0  0  0  0  0  0  0  0
  150.6437  136.5962  155.3071 C   0  0  0  0  0  0  0  0  0  0  0  0
  151.0416  135.3417  154.9863 N   0  0  0  0  0  0  0  0  0  0  0  0
  150.1528  134.4462  154.5484 C   0  0  0  0  0  0  0  0  0  0  0  0
  148.8409  134.5969  154.3622 N   0  0  0  0  0  0  0  0  0  0  0  0
  148.4301  135.8577  154.6829 C   0  0  0  0  0  0  0  0  0  0  0  0
  149.2601  136.9134  155.1586 C   0  0  0  0  0  0  0  0  0  0  0  0
  148.4808  138.0468  155.3692 N   0  0  0  0  0  0  0  0  0  0  0  0
  147.2733  137.6790  155.0375 C   0  0  0  0  0  0  0  0  0  0  0  0
  147.1520  136.3735  154.6216 N   0  0  0  0  0  0  0  0  0  0  0  0
  145.9146  135.6661  154.1775 C   0  0  1  0  0  0  0  0  0  0  0  0
  144.8820  136.6002  154.1594 O   0  0  0  0  0  0  0  0  0  0  0  0
  144.0179  136.3412  153.0639 C   0  0  2  0  0  0  0  0  0  0  0  0
  142.7849  135.5405  153.5342 C   0  0  0  0  0  0  0  0  0  0  0  0
  143.0934  134.5777  154.5209 O   0  0  0  0  0  0  0  0  0  0  0  0
  144.8914  135.6735  151.9911 C   0  0  1  0  0  0  0  0  0  0  0  0
  145.3279  136.6577  151.0739 O   0  0  0  0  0  0  0  0  0  0  0  0
  146.0824  135.0928  152.7563 C   0  0  2  0  0  0  0  0  0  0  0  0
  146.0007  133.6816  152.7611 O   0  0  0  0  0  0  0  0  0  0  0  0
  150.5489  140.8828  155.9633 C   0  0  0  0  0  0  0  0  0  0  0  0
  150.2926  141.8348  156.9687 C   0  0  0  0  0  0  0  0  0  0  0  0
  150.8552  141.7871  158.1948 N   0  0  0  0  0  0  0  0  0  0  0  0
  145.7259  134.9072  154.9387 H   0  0  0  0  0  0  0  0  0  0  0  0
  143.6485  137.3064  152.7134 H   0  0  0  0  0  0  0  0  0  0  0  0
  144.3394  134.9214  151.4254 H   0  0  0  0  0  0  0  0  0  0  0  0
  147.0378  135.3900  152.3206 H   0  0  0  0  0  0  0  0  0  0  0  0
  154.2045  142.2209  162.0110 H   0  0  0  0  0  0  0  0  0  0  0  0
  153.9242  140.4968  161.7912 H   0  0  0  0  0  0  0  0  0  0  0  0
  152.5840  141.5581  162.2162 H   0  0  0  0  0  0  0  0  0  0  0  0
  154.1690  141.6257  159.6109 H   0  0  0  0  0  0  0  0  0  0  0  0
  153.2963  143.8951  160.2370 H   0  0  0  0  0  0  0  0  0  0  0  0
  151.6741  143.2349  160.4262 H   0  0  0  0  0  0  0  0  0  0  0  0
  152.4242  143.2944  158.8357 H   0  0  0  0  0  0  0  0  0  0  0  0
  152.7110  138.9749  157.7874 H   0  0  0  0  0  0  0  0  0  0  0  0
  151.0732  138.8956  154.3653 H   0  0  0  0  0  0  0  0  0  0  0  0
  152.7626  138.9278  154.8533 H   0  0  0  0  0  0  0  0  0  0  0  0
  152.2800  137.1674  156.4613 H   0  0  0  0  0  0  0  0  0  0  0  0
  150.5489  133.4688  154.3150 H   0  0  0  0  0  0  0  0  0  0  0  0
  146.4319  138.3547  155.0907 H   0  0  0  0  0  0  0  0  0  0  0  0
  142.0125  136.2123  153.9093 H   0  0  0  0  0  0  0  0  0  0  0  0
  142.3545  135.0087  152.6852 H   0  0  0  0  0  0  0  0  0  0  0  0
  142.9228  133.7183  154.1664 H   0  0  0  0  0  0  0  0  0  0  0  0
  144.6214  137.2718  150.9379 H   0  0  0  0  0  0  0  0  0  0  0  0
  145.1237  133.4315  152.5141 H   0  0  0  0  0  0  0  0  0  0  0  0
  150.0718  140.9621  154.9975 H   0  0  0  0  0  0  0  0  0  0  0  0
  149.6168  142.6566  156.7839 H   0  0  0  0  0  0  0  0  0  0  0  0
  1  2  1  0  0  0  0
  1 35  1  0  0  0  0
  1 36  1  0  0  0  0
  1 37  1  0  0  0  0
  2  3  1  0  0  0  0
  2  4  1  0  0  0  0
  2 38  1  0  0  0  0
  3 39  1  0  0  0  0
  3 40  1  0  0  0  0
  3 41  1  0  0  0  0
  4  5  1  0  0  0  0
  5 30  1  0  0  0  0
  5  6  2  0  0  0  0
  6  7  1  0  0  0  0
  6 42  1  0  0  0  0
  7  8  1  0  0  0  0
  7 28  2  0  0  0  0
  8  9  1  0  0  0  0
  8 43  1  0  0  0  0
  8 44  1  0  0  0  0
  9 10  1  0  0  0  0
  9 45  1  0  0  0  0
 10 15  1  0  0  0  0
 10 11  2  0  0  0  0
 11 12  1  0  0  0  0
 12 13  2  0  0  0  0
 12 46  1  0  0  0  0
 13 14  1  0  0  0  0
 14 18  1  0  0  0  0
 14 15  2  0  0  0  0
 15 16  1  0  0  0  0
 16 17  2  0  0  0  0
 17 18  1  0  0  0  0
 17 47  1  0  0  0  0
 18 19  1  0  0  0  0
 19 31  1  0  0  0  0
 19 26  1  0  0  0  0
 19 20  1  0  0  0  0
 20 21  1  0  0  0  0
 21 32  1  0  0  0  0
 21 22  1  0  0  0  0
 21 24  1  0  0  0  0
 22 23  1  0  0  0  0
 22 48  1  0  0  0  0
 22 49  1  0  0  0  0
 23 50  1  0  0  0  0
 24 33  1  0  0  0  0
 24 25  1  0  0  0  0
 24 26  1  0  0  0  0
 25 51  1  0  0  0  0
 26 34  1  0  0  0  0
 26 27  1  0  0  0  0
 27 52  1  0  0  0  0
 28 29  1  0  0  0  0
 28 53  1  0  0  0  0
 29 30  2  0  0  0  0
 29 54  1  0  0  0  0
M  END
> <s_m_source_file>
AV-unprocessed.smi

> <i_m_source_file_index>
218

> <i_lp_mmshare_version>
43012

> <i_f3d_flags>
0

> <s_epik_input>
W0NIM11bQ0hdKFtDSDNdKU9jMVtjSF1jKFtjSF1bY0hdbjEpW0NIMl1bTkhdYyhuW2NIXW4yKWMoYzIzKW5bY0hdbjNbQ0BASF00T1tDQEhdKFtDSDJdW09IXSlbQ0BASF0oW09IXSlbQ0BIXTRbT0hd

> <s_epik_cmdline>
J2VwaWtfcHl0aG9uJywgJy1waCcsICc3LjAnLCAnLXRuJywgJzgnLCAnLW1hJywgJzIwMCcsICctbWV0YWxfYmluZGluZycsICctaW1hZScsICc8aW5maWxlLm1hZT4nLCAnLW9tYWUnLCAnPG91dGZpbGUubWFlPic=

> <r_lp_tautomer_probability>
1

> <r_epik_Ionization_Penalty>
0.00457014

> <r_epik_Ionization_Penalty_Charging>
0

> <r_epik_Ionization_Penalty_Neutral>
0.00457014

> <r_epik_State_Penalty>
-0

> <r_epik_Charging_Adjusted_Penalty>
0

> <i_epik_Tot_Q>
0

> <i_epik_Tot_abs_Q>
0

> <r_epik_Metal_State_Penalty>
-0

> <b_epik_Metal_Only>
0

> <s_epik_Chemistry_Notes>
This compound contains an acetal/aminal-like group ( X-CH(R)-Y where X, Y are N, S, or O) that may be acid/base labile, releasing an aldehyde.

> <s_lp_Force_Field>
OPLS_2005

> <r_lp_Energy>
37.7133

> <b_lp_Chiralities_Consistent>
1

> <s_lp_Variant>
AV-unprocessed.smi:218-10

> <Gold.Version>
5.8.1

> <Gold.Id.Protein>
6NUR|6NUR_protein|mol2

> <Gold.PLP.Fitness>
51.8295

> <Gold.PLP.PLP>
-41.3501

> <Gold.PLP.part.hbond>
-3.0000

> <Gold.PLP.part.metal>
0.0000

> <Gold.PLP.part.buried>
-4.6228

> <Gold.PLP.part.nonpolar>
-34.0314

> <Gold.PLP.part.repulsive>
0.6787

> <Gold.PLP.ligand.clash>
0.0000

> <Gold.PLP.ligand.torsion>
0.8843

> <Gold.PLP.Chemscore.Hbond>
2.9920

> <Gold.PLP.Chemscore.CHOScore>
1.0000

> <Gold.PLP.Chemscore.Metal>
0.0000

> <Gold.Chemscore.Hbonds>
donor molecule, donor type, donor heavy atom, donor atom, acceptor molecule, acceptor atom, score
      L1  H    23    50       P1 10957  0.76
      L1  H    25    51       P1 10171  0.93
      P1  H 10752 10763       L1    11  1.00
      L1  C    29    54       P1  8028  1.00

> <Gold.PLP.Chemscore.Internal.Correction>
0.2720

> <Gold.Rescore>
     Score         DG    S(hbond)    S(metal)    S(lipo)     H(rot)  DE(clash)    DE(int)     intcor
      7.21     -10.65       2.48        0.00      80.55       4.90       0.38       3.06       ----

> <Gold.Chemscore.Fitness>
7.2098

> <Gold.Chemscore.DG>
-10.6506

> <Gold.Chemscore.ZeroCoef>
-5.4800

> <Gold.Chemscore.Hbond>
2.4845

> <Gold.Chemscore.Metal>
0.0000

> <Gold.Chemscore.Lipo>
80.5470

> <Gold.Chemscore.Internal_Hbond>
0.0000

> <Gold.Chemscore.DEClash>
0.3796

> <Gold.Chemscore.DEInternal>
3.0611

> <Gold.Chemscore.Rot>
4.9029

> <Gold.Chemscore.Internal.Correction>
   9.000000E+99

> <Gold.Chemscore.Hbonds>
donor molecule, donor type, donor heavy atom, donor atom, acceptor molecule, acceptor atom, score
      L1  H    23    50       P1 10957  0.72
      L1  H    25    51       P1 10171  0.91
      P1  H 10752 10763       L1    11  0.42

> <Gold.Chemscore.Hbond.Weighted>
-8.2981

> <Gold.Chemscore.Metal.Weighted>
-0.0000

> <Gold.Chemscore.Lipo.Weighted>
-9.4240

> <Gold.Chemscore.Internal_Hbond.Weighted>
0.0000

> <Gold.Chemscore.DEClash.Weighted>
0.3796

> <Gold.Chemscore.DEInternal.Weighted>
3.0611

> <Gold.Chemscore.Rot.Weighted>
12.5515

> <Gold.Chemscore.Internal.Correction.Weighted>
   9.000000E+99

> <Gold.Protein.RotatedTorsions>
[ 6907 6896 6895 6894 ] final -174.71 input  -60.11 | X-H torsion
[ 7974 7965 7964 7962 ] final   35.72 input  175.53 | X-H torsion
[ 8008 7997 7996 7995 ] final  -62.42 input   59.86 | X-H torsion
[ 10167 10162 10161 10158 ] final  -52.38 input  -65.29 | X-H torsion
[ 10718 10713 10712 10709 ] final   97.81 input   66.30 | X-H torsion
[ 10763 10752 10751 10750 ] final   56.81 input  -60.55 | X-H torsion
[ 11005 11000 10999 10996 ] final  126.86 input  -57.11 | X-H torsion

> <Gold.Protein.ActiveResidues>
 VAL166  LYS551  ARG553  GLY616  TRP617  ASP618  TYR619  PRO620  LYS621  CYS622 
 ASP623  PHE694  ASN695  SER759  ASP760  ASP761  ALA762  ILE779  LEU786  VAL792 
 PHE793  MET794  SER795  GLU796  ALA797  LYS798  CYS799  TRP800  GLU811  SER814 

> <Gold.Protein.RotatedAtoms>
  151.5767  133.3383  159.3000 H   0  0  0  0  0  0  0  0  0  0  0  0  # atno 6907 bound_to 6896
  150.8336  134.7603  159.6886 H   0  0  0  0  0  0  0  0  0  0  0  0  # atno 6908 bound_to 6896
  152.4416  134.5585  159.9939 H   0  0  0  0  0  0  0  0  0  0  0  0  # atno 6909 bound_to 6896
  146.1262  139.6107  142.9257 H   0  0  0  0  0  0  0  0  0  0  0  0  # atno 7974 bound_to 7965
  154.4499  140.0996  156.6585 H   0  0  0  0  0  0  0  0  0  0  0  0  # atno 8008 bound_to 7997
  155.5319  140.3481  155.4409 H   0  0  0  0  0  0  0  0  0  0  0  0  # atno 8009 bound_to 7997
  156.0658  140.1337  156.9877 H   0  0  0  0  0  0  0  0  0  0  0  0  # atno 8010 bound_to 7997
  140.6540  143.2586  151.4639 H   0  0  0  0  0  0  0  0  0  0  0  0  # atno 10167 bound_to 10162
  157.6906  131.0621  150.4701 H   0  0  0  0  0  0  0  0  0  0  0  0  # atno 10718 bound_to 10713
  152.9838  135.5663  154.5290 H   0  0  0  0  0  0  0  0  0  0  0  0  # atno 10763 bound_to 10752
  154.4765  135.2787  155.1605 H   0  0  0  0  0  0  0  0  0  0  0  0  # atno 10764 bound_to 10752
  154.3132  135.6284  153.5528 H   0  0  0  0  0  0  0  0  0  0  0  0  # atno 10765 bound_to 10752
  139.9478  134.9627  156.8770 H   0  0  0  0  0  0  0  0  0  0  0  0  # atno 11005 bound_to 11000
  145.5359  141.0424  143.2357 LP  0  0  0  0  0  0  0  0  0  0  0  0  # atno 17320 bound_to 7965
  144.7645  139.6877  143.7220 LP  0  0  0  0  0  0  0  0  0  0  0  0  # atno 17321 bound_to 7965
  139.5760  144.1818  152.1903 LP  0  0  0  0  0  0  0  0  0  0  0  0  # atno 17342 bound_to 10162
  140.1129  144.5441  150.6913 LP  0  0  0  0  0  0  0  0  0  0  0  0  # atno 17343 bound_to 10162
  156.5040  130.4123  149.6337 LP  0  0  0  0  0  0  0  0  0  0  0  0  # atno 17370 bound_to 10713
  156.3302  130.7327  151.2255 LP  0  0  0  0  0  0  0  0  0  0  0  0  # atno 17371 bound_to 10713
  140.5793  134.0368  155.7458 LP  0  0  0  0  0  0  0  0  0  0  0  0  # atno 17394 bound_to 11000
  141.1133  133.9581  157.2870 LP  0  0  0  0  0  0  0  0  0  0  0  0  # atno 17395 bound_to 11000

$$$$
