AV-unprocessed.smi:1209|AV-procd|sdf|5070|dock10
  -GOLD-   22720 4113D 1   1.00000     0.00000
 Structure written by MMmdl.
 48 50  0  0  0  0  0  0  0  0  1 V2000
  147.4031  136.0730  161.1134 C   0  0  0  0  0  0  0  0  0  0  0  0
  148.0399  136.9165  160.0630 C   0  0  0  0  0  0  0  0  0  0  0  0
  147.6234  137.3481  158.8360 C   0  0  0  0  0  0  0  0  0  0  0  0
  148.7208  138.1171  158.3600 C   0  0  0  0  0  0  0  0  0  0  0  0
  148.8492  138.8496  157.0509 C   0  0  0  0  0  0  0  0  0  0  0  0
  148.0188  140.0560  156.9654 N   0  0  0  0  0  0  0  0  0  0  0  0
  146.6182  139.7578  157.2523 C   0  0  0  0  0  0  0  0  0  0  0  0
  148.1305  140.7097  155.6598 C   0  0  0  0  0  0  0  0  0  0  0  0
  149.5492  140.7420  155.0505 C   0  0  1  0  0  0  0  0  0  0  0  0
  149.4519  141.0422  153.6705 O   0  0  0  0  0  0  0  0  0  0  0  0
  150.4398  141.8050  155.7239 C   0  0  0  0  0  0  0  0  0  0  0  0
  151.2763  141.2485  156.7727 N   0  0  0  0  0  0  0  0  0  0  0  0
  151.8728  140.0411  156.7754 C   0  0  0  0  0  0  0  0  0  0  0  0
  152.6008  139.7238  157.8420 N   0  0  0  0  0  0  0  0  0  0  0  0
  152.4622  140.8594  158.6219 C   0  0  0  0  0  0  0  0  0  0  0  0
  152.9943  141.1687  159.8929 C   0  0  0  0  0  0  0  0  0  0  0  0
  152.7192  142.4091  160.5116 C   0  0  0  0  0  0  0  0  0  0  0  0
  153.3132  142.7007  161.8785 C   0  0  0  0  0  0  0  0  0  0  0  0
  151.8996  143.3635  159.8568 C   0  0  0  0  0  0  0  0  0  0  0  0
  151.5925  144.7038  160.5011 C   0  0  0  0  0  0  0  0  0  0  0  0
  151.3590  143.0699  158.5873 C   0  0  0  0  0  0  0  0  0  0  0  0
  151.6396  141.8322  157.9819 C   0  0  0  0  0  0  0  0  0  0  0  0
  149.7172  138.1412  159.2306 N   0  0  0  0  0  0  0  0  0  0  0  0
  149.2904  137.3772  160.3227 O   0  0  0  0  0  0  0  0  0  0  0  0
  146.3552  135.8848  160.8792 H   0  0  0  0  0  0  0  0  0  0  0  0
  147.4489  136.5648  162.0853 H   0  0  0  0  0  0  0  0  0  0  0  0
  147.9095  135.1111  161.1951 H   0  0  0  0  0  0  0  0  0  0  0  0
  146.6788  137.1473  158.3533 H   0  0  0  0  0  0  0  0  0  0  0  0
  149.8981  139.1135  156.9203 H   0  0  0  0  0  0  0  0  0  0  0  0
  148.6085  138.1784  156.2256 H   0  0  0  0  0  0  0  0  0  0  0  0
  146.0098  140.6613  157.1975 H   0  0  0  0  0  0  0  0  0  0  0  0
  146.4962  139.3522  158.2567 H   0  0  0  0  0  0  0  0  0  0  0  0
  146.2152  139.0352  156.5413 H   0  0  0  0  0  0  0  0  0  0  0  0
  147.4197  140.2768  154.9536 H   0  0  0  0  0  0  0  0  0  0  0  0
  147.8116  141.7454  155.7853 H   0  0  0  0  0  0  0  0  0  0  0  0
  150.0248  139.7665  155.1645 H   0  0  0  0  0  0  0  0  0  0  0  0
  149.3649  140.2325  153.1914 H   0  0  0  0  0  0  0  0  0  0  0  0
  151.0788  142.2939  154.9874 H   0  0  0  0  0  0  0  0  0  0  0  0
  149.8213  142.5873  156.1659 H   0  0  0  0  0  0  0  0  0  0  0  0
  151.7657  139.3563  155.9467 H   0  0  0  0  0  0  0  0  0  0  0  0
  153.6194  140.4419  160.3906 H   0  0  0  0  0  0  0  0  0  0  0  0
  153.9725  143.5676  161.8305 H   0  0  0  0  0  0  0  0  0  0  0  0
  153.8960  141.8567  162.2481 H   0  0  0  0  0  0  0  0  0  0  0  0
  152.5246  142.9044  162.6030 H   0  0  0  0  0  0  0  0  0  0  0  0
  150.9578  145.3172  159.8608 H   0  0  0  0  0  0  0  0  0  0  0  0
  152.5128  145.2574  160.6882 H   0  0  0  0  0  0  0  0  0  0  0  0
  151.0734  144.5617  161.4490 H   0  0  0  0  0  0  0  0  0  0  0  0
  150.7346  143.7881  158.0771 H   0  0  0  0  0  0  0  0  0  0  0  0
  1  2  1  0  0  0  0
  1 25  1  0  0  0  0
  1 26  1  0  0  0  0
  1 27  1  0  0  0  0
  2 24  1  0  0  0  0
  2  3  2  0  0  0  0
  3  4  1  0  0  0  0
  3 28  1  0  0  0  0
  4  5  1  0  0  0  0
  4 23  2  0  0  0  0
  5  6  1  0  0  0  0
  5 29  1  0  0  0  0
  5 30  1  0  0  0  0
  6  7  1  0  0  0  0
  6  8  1  0  0  0  0
  7 31  1  0  0  0  0
  7 32  1  0  0  0  0
  7 33  1  0  0  0  0
  8  9  1  0  0  0  0
  8 34  1  0  0  0  0
  8 35  1  0  0  0  0
  9 10  1  0  0  0  0
  9 11  1  0  0  0  0
  9 36  1  0  0  0  0
 10 37  1  0  0  0  0
 11 12  1  0  0  0  0
 11 38  1  0  0  0  0
 11 39  1  0  0  0  0
 12 22  1  0  0  0  0
 12 13  1  0  0  0  0
 13 14  2  0  0  0  0
 13 40  1  0  0  0  0
 14 15  1  0  0  0  0
 15 22  2  0  0  0  0
 15 16  1  0  0  0  0
 16 17  2  0  0  0  0
 16 41  1  0  0  0  0
 17 18  1  0  0  0  0
 17 19  1  0  0  0  0
 18 42  1  0  0  0  0
 18 43  1  0  0  0  0
 18 44  1  0  0  0  0
 19 20  1  0  0  0  0
 19 21  2  0  0  0  0
 20 45  1  0  0  0  0
 20 46  1  0  0  0  0
 20 47  1  0  0  0  0
 21 22  1  0  0  0  0
 21 48  1  0  0  0  0
 23 24  1  0  0  0  0
M  END
> <s_m_source_file>
AV-unprocessed.smi

> <i_m_source_file_index>
1209

> <i_lp_mmshare_version>
43012

> <i_f3d_flags>
0

> <s_epik_input>
W0NIM11jMVtjSF1jKG5vMSlbQ0gyXU4oW0NIM10pW0NIMl1bQ0BIXShbT0hdKVtDSDJdbihbY0hdbjIpYyhjMjMpW2NIXWMoW0NIM10pYyhbY0hdMylbQ0gzXQ==

> <s_epik_cmdline>
J2VwaWtfcHl0aG9uJywgJy1waCcsICc3LjAnLCAnLXRuJywgJzgnLCAnLW1hJywgJzIwMCcsICctbWV0YWxfYmluZGluZycsICctaW1hZScsICc8aW5maWxlLm1hZT4nLCAnLW9tYWUnLCAnPG91dGZpbGUubWFlPic=

> <r_epik_Ionization_Penalty>
0.103258

> <r_epik_Ionization_Penalty_Charging>
0

> <r_epik_Ionization_Penalty_Neutral>
0.103258

> <r_epik_State_Penalty>
0.0919675

> <r_epik_Charging_Adjusted_Penalty>
0.0919675

> <i_epik_Tot_Q>
0

> <i_epik_Tot_abs_Q>
0

> <r_epik_Metal_State_Penalty>
0.0812522

> <b_epik_Metal_Only>
0

> <s_lp_Force_Field>
OPLS_2005

> <r_lp_Energy>
16.8498

> <b_lp_Chiralities_Consistent>
1

> <s_lp_Variant>
AV-unprocessed.smi:1209-2

> <Gold.Version>
5.8.1

> <Gold.Id.Protein>
6NUR|6NUR_protein|mol2

> <Gold.PLP.Fitness>
52.4910

> <Gold.PLP.PLP>
-46.0105

> <Gold.PLP.part.hbond>
-5.6785

> <Gold.PLP.part.metal>
0.0000

> <Gold.PLP.part.buried>
-6.6983

> <Gold.PLP.part.nonpolar>
-32.8876

> <Gold.PLP.part.repulsive>
0.0000

> <Gold.PLP.ligand.clash>
0.0000

> <Gold.PLP.ligand.torsion>
1.2534

> <Gold.PLP.Chemscore.Hbond>
2.9648

> <Gold.PLP.Chemscore.CHOScore>
0.0000

> <Gold.PLP.Chemscore.Metal>
0.0000

> <Gold.Chemscore.Hbonds>
donor molecule, donor type, donor heavy atom, donor atom, acceptor molecule, acceptor atom, score
      L1  H    10    37       P1  7957  0.47
      P1  H  6931  6943       L1    24  0.40
      P1  H  7989  7998       L1    10  0.05
      P1  H  7997  8010       L1    14  0.57
      P1  H  8011  8017       L1    10  0.99

> <Gold.PLP.Chemscore.Internal.Correction>
0.0928

> <Gold.Rescore>
     Score         DG    S(hbond)    S(metal)    S(lipo)     H(rot)  DE(clash)    DE(int)     intcor
     17.33     -18.63       1.83        0.00     113.69       2.45       0.05       1.25       ----

> <Gold.Chemscore.Fitness>
17.3273

> <Gold.Chemscore.DG>
-18.6258

> <Gold.Chemscore.ZeroCoef>
-5.4800

> <Gold.Chemscore.Hbond>
1.8281

> <Gold.Chemscore.Metal>
0.0000

> <Gold.Chemscore.Lipo>
113.6933

> <Gold.Chemscore.Internal_Hbond>
0.0000

> <Gold.Chemscore.DEClash>
0.0456

> <Gold.Chemscore.DEInternal>
1.2529

> <Gold.Chemscore.Rot>
2.4462

> <Gold.Chemscore.Internal.Correction>
   9.000000E+99

> <Gold.Chemscore.Hbonds>
donor molecule, donor type, donor heavy atom, donor atom, acceptor molecule, acceptor atom, score
      L1  H    10    37       P1  7957  0.45
      P1  H  6931  6943       L1    24  0.15
      P1  H  7997  8010       L1    14  0.03
      P1  H  8011  8017       L1    10  0.52

> <Gold.Chemscore.Hbond.Weighted>
-6.1059

> <Gold.Chemscore.Metal.Weighted>
-0.0000

> <Gold.Chemscore.Lipo.Weighted>
-13.3021

> <Gold.Chemscore.Internal_Hbond.Weighted>
0.0000

> <Gold.Chemscore.DEClash.Weighted>
0.0456

> <Gold.Chemscore.DEInternal.Weighted>
1.2529

> <Gold.Chemscore.Rot.Weighted>
6.2623

> <Gold.Chemscore.Internal.Correction.Weighted>
   9.000000E+99

> <Gold.Protein.RotatedTorsions>
[ 6907 6896 6895 6894 ] final -175.84 input  -60.11 | X-H torsion
[ 7974 7965 7964 7962 ] final  -99.12 input  175.53 | X-H torsion
[ 8008 7997 7996 7995 ] final   40.82 input   59.86 | X-H torsion
[ 10167 10162 10161 10158 ] final  -96.21 input  -65.29 | X-H torsion
[ 10718 10713 10712 10709 ] final  153.11 input   66.30 | X-H torsion
[ 10763 10752 10751 10750 ] final   67.01 input  -60.55 | X-H torsion
[ 11005 11000 10999 10996 ] final  161.80 input  -57.11 | X-H torsion

> <Gold.Protein.ActiveResidues>
 VAL166  LYS551  ARG553  GLY616  TRP617  ASP618  TYR619  PRO620  LYS621  CYS622 
 ASP623  PHE694  ASN695  SER759  ASP760  ASP761  ALA762  ILE779  LEU786  VAL792 
 PHE793  MET794  SER795  GLU796  ALA797  LYS798  CYS799  TRP800  GLU811  SER814 

> <Gold.Protein.RotatedAtoms>
  151.5951  133.3362  159.3035 H   0  0  0  0  0  0  0  0  0  0  0  0  # atno 6907 bound_to 6896
  150.8238  134.7463  159.6807 H   0  0  0  0  0  0  0  0  0  0  0  0  # atno 6908 bound_to 6896
  152.4330  134.5748  159.9983 H   0  0  0  0  0  0  0  0  0  0  0  0  # atno 6909 bound_to 6896
  145.3117  140.9402  143.2766 H   0  0  0  0  0  0  0  0  0  0  0  0  # atno 7974 bound_to 7965
  155.2594  140.3358  155.4274 H   0  0  0  0  0  0  0  0  0  0  0  0  # atno 8008 bound_to 7997
  156.2181  140.1797  156.7584 H   0  0  0  0  0  0  0  0  0  0  0  0  # atno 8009 bound_to 7997
  154.5784  140.0658  156.9052 H   0  0  0  0  0  0  0  0  0  0  0  0  # atno 8010 bound_to 7997
  140.2961  143.3191  152.0296 H   0  0  0  0  0  0  0  0  0  0  0  0  # atno 10167 bound_to 10162
  157.2490  131.0775  151.1742 H   0  0  0  0  0  0  0  0  0  0  0  0  # atno 10718 bound_to 10713
  153.0166  135.5299  154.6913 H   0  0  0  0  0  0  0  0  0  0  0  0  # atno 10763 bound_to 10752
  154.6047  135.2872  155.0499 H   0  0  0  0  0  0  0  0  0  0  0  0  # atno 10764 bound_to 10752
  154.1543  135.6558  153.5023 H   0  0  0  0  0  0  0  0  0  0  0  0  # atno 10765 bound_to 10752
  140.2194  134.8207  157.3205 H   0  0  0  0  0  0  0  0  0  0  0  0  # atno 11005 bound_to 11000
  144.9010  139.4649  143.6632 LP  0  0  0  0  0  0  0  0  0  0  0  0  # atno 17320 bound_to 7965
  146.3115  139.7764  142.9016 LP  0  0  0  0  0  0  0  0  0  0  0  0  # atno 17321 bound_to 7965
  139.4926  144.6490  151.6717 LP  0  0  0  0  0  0  0  0  0  0  0  0  # atno 17342 bound_to 10162
  140.5691  144.0140  150.6207 LP  0  0  0  0  0  0  0  0  0  0  0  0  # atno 17343 bound_to 10162
  157.3298  130.6979  149.6318 LP  0  0  0  0  0  0  0  0  0  0  0  0  # atno 17370 bound_to 10713
  155.9667  130.4311  150.4904 LP  0  0  0  0  0  0  0  0  0  0  0  0  # atno 17371 bound_to 10713
  140.1865  134.4424  155.7740 LP  0  0  0  0  0  0  0  0  0  0  0  0  # atno 17394 bound_to 11000
  141.2223  133.7007  156.7957 LP  0  0  0  0  0  0  0  0  0  0  0  0  # atno 17395 bound_to 11000

$$$$
