AV-unprocessed.smi:610|AV-procd|sdf|3058|dock1
  -GOLD-   2262023583D 1   1.00000     0.00000
 Structure written by MMmdl.
 38 39  0  0  0  0  0  0  0  0  2 V2000
  147.1197  141.9036  157.4924 C   0  0  0  0  0  0  0  0  0  0  0  0
  148.4872  141.5245  156.9060 C   0  0  1  0  0  0  0  0  0  0  0  0
  148.4166  141.3202  155.3812 C   0  0  0  0  0  0  0  0  0  0  0  0
  149.0855  140.0866  154.9538 N   0  0  0  0  0  0  0  0  0  0  0  0
  150.3780  139.7111  155.2155 C   0  0  0  0  0  0  0  0  0  0  0  0
  150.5607  138.4931  154.6131 C   0  0  0  0  0  0  0  0  0  0  0  0
  149.3721  138.1757  154.0119 N   0  3  0  0  0  0  0  0  0  0  0  0
  148.4758  139.1454  154.2214 C   0  0  0  0  0  0  0  0  0  0  0  0
  149.4655  142.5620  157.2239 N   0  0  0  0  0  0  0  0  0  0  0  0
  150.5643  142.4055  157.9824 C   0  0  0  0  0  0  0  0  0  0  0  0
  150.8430  141.3355  158.5250 O   0  0  0  0  0  0  0  0  0  0  0  0
  151.4914  143.6330  158.1705 C   0  0  0  0  0  0  0  0  0  0  0  0
  151.8407  144.2425  156.8930 N   0  0  0  0  0  0  0  0  0  0  0  0
  150.8230  144.6946  159.0836 C   0  0  0  0  0  0  0  0  0  0  0  0
  151.7463  144.8937  160.2916 C   0  0  0  0  0  0  0  0  0  0  0  0
  152.5856  143.6231  160.3648 C   0  0  0  0  0  0  0  0  0  0  0  0
  152.8027  143.2488  158.8993 C   0  0  0  0  0  0  0  0  0  0  0  0
  146.3745  141.1382  157.2747 H   0  0  0  0  0  0  0  0  0  0  0  0
  146.7579  142.8469  157.0817 H   0  0  0  0  0  0  0  0  0  0  0  0
  147.1719  142.0103  158.5766 H   0  0  0  0  0  0  0  0  0  0  0  0
  148.7945  140.5788  157.3565 H   0  0  0  0  0  0  0  0  0  0  0  0
  147.3780  141.2535  155.0541 H   0  0  0  0  0  0  0  0  0  0  0  0
  148.8626  142.1634  154.8507 H   0  0  0  0  0  0  0  0  0  0  0  0
  151.0547  140.3243  155.7931 H   0  0  0  0  0  0  0  0  0  0  0  0
  151.4245  137.8457  154.5686 H   0  0  0  0  0  0  0  0  0  0  0  0
  147.4612  139.1653  153.8648 H   0  0  0  0  0  0  0  0  0  0  0  0
  149.3017  143.4799  156.8353 H   0  0  0  0  0  0  0  0  0  0  0  0
  152.1342  143.5185  156.2528 H   0  0  0  0  0  0  0  0  0  0  0  0
  151.0128  144.6555  156.4888 H   0  0  0  0  0  0  0  0  0  0  0  0
  150.6476  145.6440  158.5750 H   0  0  0  0  0  0  0  0  0  0  0  0
  149.8465  144.3578  159.4367 H   0  0  0  0  0  0  0  0  0  0  0  0
  152.3992  145.7492  160.1134 H   0  0  0  0  0  0  0  0  0  0  0  0
  151.1955  145.0851  161.2130 H   0  0  0  0  0  0  0  0  0  0  0  0
  153.5217  143.7682  160.9047 H   0  0  0  0  0  0  0  0  0  0  0  0
  152.0251  142.8373  160.8728 H   0  0  0  0  0  0  0  0  0  0  0  0
  153.0711  142.1968  158.7889 H   0  0  0  0  0  0  0  0  0  0  0  0
  153.6469  143.8247  158.5155 H   0  0  0  0  0  0  0  0  0  0  0  0
  149.1946  137.3293  153.4855 H   0  0  0  0  0  0  0  0  0  0  0  0
  1  2  1  0  0  0  0
  1 18  1  0  0  0  0
  1 19  1  0  0  0  0
  1 20  1  0  0  0  0
  2  3  1  0  0  0  0
  2  9  1  0  0  0  0
  2 21  1  0  0  0  0
  3  4  1  0  0  0  0
  3 22  1  0  0  0  0
  3 23  1  0  0  0  0
  4  8  1  0  0  0  0
  4  5  1  0  0  0  0
  5  6  2  0  0  0  0
  5 24  1  0  0  0  0
  6  7  1  0  0  0  0
  6 25  1  0  0  0  0
  7  8  2  0  0  0  0
  7 38  1  0  0  0  0
  8 26  1  0  0  0  0
  9 10  1  0  0  0  0
  9 27  1  0  0  0  0
 10 11  2  0  0  0  0
 10 12  1  0  0  0  0
 12 17  1  0  0  0  0
 12 13  1  0  0  0  0
 12 14  1  0  0  0  0
 13 28  1  0  0  0  0
 13 29  1  0  0  0  0
 14 15  1  0  0  0  0
 14 30  1  0  0  0  0
 14 31  1  0  0  0  0
 15 16  1  0  0  0  0
 15 32  1  0  0  0  0
 15 33  1  0  0  0  0
 16 17  1  0  0  0  0
 16 34  1  0  0  0  0
 16 35  1  0  0  0  0
 17 36  1  0  0  0  0
 17 37  1  0  0  0  0
M  CHG  1   7   1
M  END
> <s_m_source_file>
AV-unprocessed.smi

> <i_m_source_file_index>
610

> <i_lp_mmshare_version>
43012

> <i_f3d_flags>
0

> <s_epik_input>
W2NIXTFuW2NIXVtjSF1uMVtDSDJdW0NAQEhdKFtDSDNdKVtOSF1DKD1PKUMyKFtOSDJdKVtDSDJdW0NIMl1bQ0gyXVtDSDJdMg==

> <s_epik_cmdline>
J2VwaWtfcHl0aG9uJywgJy1waCcsICc3LjAnLCAnLXRuJywgJzgnLCAnLW1hJywgJzIwMCcsICctbWV0YWxfYmluZGluZycsICctaW1hZScsICc8aW5maWxlLm1hZT4nLCAnLW9tYWUnLCAnPG91dGZpbGUubWFlPic=

> <r_epik_Ionization_Penalty>
1.50287

> <r_epik_Ionization_Penalty_Charging>
0

> <r_epik_Ionization_Penalty_Neutral>
1.50287

> <r_epik_State_Penalty>
1.57152

> <r_epik_Charging_Adjusted_Penalty>
1.57152

> <i_epik_Tot_Q>
1

> <i_epik_Tot_abs_Q>
1

> <r_epik_Metal_State_Penalty>
1.8522

> <b_epik_Metal_Only>
0

> <s_lp_Force_Field>
OPLS_2005

> <r_lp_Energy>
23.5797

> <b_lp_Chiralities_Consistent>
1

> <s_lp_Variant>
AV-unprocessed.smi:610-6

> <Gold.Version>
5.8.1

> <Gold.Id.Protein>
6NUR|6NUR_protein|mol2

> <Gold.PLP.Fitness>
47.0835

> <Gold.PLP.PLP>
-36.8723

> <Gold.PLP.part.hbond>
-3.7357

> <Gold.PLP.part.metal>
0.0000

> <Gold.PLP.part.buried>
-3.6176

> <Gold.PLP.part.nonpolar>
-30.3183

> <Gold.PLP.part.repulsive>
0.0843

> <Gold.PLP.ligand.clash>
0.0000

> <Gold.PLP.ligand.torsion>
0.9487

> <Gold.PLP.Chemscore.Hbond>
4.0000

> <Gold.PLP.Chemscore.CHOScore>
0.0000

> <Gold.PLP.Chemscore.Metal>
0.0000

> <Gold.Chemscore.Hbonds>
donor molecule, donor type, donor heavy atom, donor atom, acceptor molecule, acceptor atom, score
      L1  H     7    38       P1  7948  2.00
      L1  H     9    27       P1  8028  1.00
      L1  H    13    29       P1  8028  0.47

> <Gold.PLP.Chemscore.Internal.Correction>
0.1086

> <Gold.Rescore>
     Score         DG    S(hbond)    S(metal)    S(lipo)     H(rot)  DE(clash)    DE(int)     intcor
     18.76     -19.83       2.93        0.00      83.19       2.02       0.08       1.00       ----

> <Gold.Chemscore.Fitness>
18.7555

> <Gold.Chemscore.DG>
-19.8341

> <Gold.Chemscore.ZeroCoef>
-5.4800

> <Gold.Chemscore.Hbond>
2.9282

> <Gold.Chemscore.Metal>
0.0000

> <Gold.Chemscore.Lipo>
83.1877

> <Gold.Chemscore.Internal_Hbond>
0.0000

> <Gold.Chemscore.DEClash>
0.0797

> <Gold.Chemscore.DEInternal>
0.9989

> <Gold.Chemscore.Rot>
2.0152

> <Gold.Chemscore.Internal.Correction>
   9.000000E+99

> <Gold.Chemscore.Hbonds>
donor molecule, donor type, donor heavy atom, donor atom, acceptor molecule, acceptor atom, score
      L1  H     7    38       P1  7948  0.97
      L1  H     9    27       P1  8028  0.94
      L1  H    13    29       P1  8028  0.45

> <Gold.Chemscore.Hbond.Weighted>
-9.7800

> <Gold.Chemscore.Metal.Weighted>
-0.0000

> <Gold.Chemscore.Lipo.Weighted>
-9.7330

> <Gold.Chemscore.Internal_Hbond.Weighted>
0.0000

> <Gold.Chemscore.DEClash.Weighted>
0.0797

> <Gold.Chemscore.DEInternal.Weighted>
0.9989

> <Gold.Chemscore.Rot.Weighted>
5.1589

> <Gold.Chemscore.Internal.Correction.Weighted>
   9.000000E+99

> <Gold.Protein.RotatedTorsions>
[ 6907 6896 6895 6894 ] final  -85.32 input  -60.11 | X-H torsion
[ 7974 7965 7964 7962 ] final   -1.99 input  175.53 | X-H torsion
[ 8008 7997 7996 7995 ] final  114.39 input   59.86 | X-H torsion
[ 10167 10162 10161 10158 ] final  178.61 input  -65.29 | X-H torsion
[ 10718 10713 10712 10709 ] final  -83.15 input   66.30 | X-H torsion
[ 10763 10752 10751 10750 ] final   45.41 input  -60.55 | X-H torsion
[ 11005 11000 10999 10996 ] final -123.35 input  -57.11 | X-H torsion

> <Gold.Protein.ActiveResidues>
 VAL166  LYS551  ARG553  GLY616  TRP617  ASP618  TYR619  PRO620  LYS621  CYS622 
 ASP623  PHE694  ASN695  SER759  ASP760  ASP761  ALA762  ILE779  LEU786  VAL792 
 PHE793  MET794  SER795  GLU796  ALA797  LYS798  CYS799  TRP800  GLU811  SER814 

> <Gold.Protein.RotatedAtoms>
  150.6871  134.3223  159.4791 H   0  0  0  0  0  0  0  0  0  0  0  0  # atno 6907 bound_to 6896
  152.1097  134.9280  160.0576 H   0  0  0  0  0  0  0  0  0  0  0  0  # atno 6908 bound_to 6896
  152.0527  133.3992  159.4421 H   0  0  0  0  0  0  0  0  0  0  0  0  # atno 6909 bound_to 6896
  146.2410  140.1504  142.8334 H   0  0  0  0  0  0  0  0  0  0  0  0  # atno 7974 bound_to 7965
  156.2318  140.2960  156.0208 H   0  0  0  0  0  0  0  0  0  0  0  0  # atno 8008 bound_to 7997
  155.2204  140.0415  157.2964 H   0  0  0  0  0  0  0  0  0  0  0  0  # atno 8009 bound_to 7997
  154.6009  140.2426  155.7802 H   0  0  0  0  0  0  0  0  0  0  0  0  # atno 8010 bound_to 7997
  139.5301  144.2659  152.0668 H   0  0  0  0  0  0  0  0  0  0  0  0  # atno 10167 bound_to 10162
  156.0022  130.4656  150.4213 H   0  0  0  0  0  0  0  0  0  0  0  0  # atno 10718 bound_to 10713
  152.9825  135.6040  154.3432 H   0  0  0  0  0  0  0  0  0  0  0  0  # atno 10763 bound_to 10752
  154.3127  135.2771  155.2560 H   0  0  0  0  0  0  0  0  0  0  0  0  # atno 10764 bound_to 10752
  154.4762  135.5929  153.6413 H   0  0  0  0  0  0  0  0  0  0  0  0  # atno 10765 bound_to 10752
  140.9926  134.0518  157.3636 H   0  0  0  0  0  0  0  0  0  0  0  0  # atno 11005 bound_to 11000
  145.0173  140.8764  143.5188 LP  0  0  0  0  0  0  0  0  0  0  0  0  # atno 17320 bound_to 7965
  145.1546  139.2494  143.5423 LP  0  0  0  0  0  0  0  0  0  0  0  0  # atno 17321 bound_to 7965
  140.2122  144.4552  150.6381 LP  0  0  0  0  0  0  0  0  0  0  0  0  # atno 17342 bound_to 10162
  140.6473  143.2216  151.6156 LP  0  0  0  0  0  0  0  0  0  0  0  0  # atno 17343 bound_to 10162
  157.2269  131.0495  151.2515 LP  0  0  0  0  0  0  0  0  0  0  0  0  # atno 17370 bound_to 10713
  157.3748  130.7200  149.6589 LP  0  0  0  0  0  0  0  0  0  0  0  0  # atno 17371 bound_to 10713
  139.8999  135.0160  156.7218 LP  0  0  0  0  0  0  0  0  0  0  0  0  # atno 17394 bound_to 11000
  140.7017  133.9301  155.8028 LP  0  0  0  0  0  0  0  0  0  0  0  0  # atno 17395 bound_to 11000

$$$$
