AV-unprocessed.smi:1129|AV-procd|sdf|4847|dock2
  -GOLD-   22720 3413D 1   1.00000     0.00000
 Structure written by MMmdl.
 40 41  0  0  0  0  0  0  0  0  1 V2000
  151.7016  143.0349  158.1000 C   0  0  0  0  0  0  0  0  0  0  0  0
  151.0958  141.8644  157.5800 O   0  0  0  0  0  0  0  0  0  0  0  0
  150.8680  141.9456  156.1829 C   0  0  0  0  0  0  0  0  0  0  0  0
  149.9084  140.8280  155.7632 C   0  0  0  0  0  0  0  0  0  0  0  0
  149.2853  141.1943  154.5358 O   0  0  0  0  0  0  0  0  0  0  0  0
  148.3740  140.3241  153.9737 C   0  0  0  0  0  0  0  0  0  0  0  0
  148.5117  138.9460  154.2322 C   0  0  0  0  0  0  0  0  0  0  0  0
  147.5876  138.0499  153.6617 C   0  0  0  0  0  0  0  0  0  0  0  0
  146.5551  138.5628  152.8411 C   0  0  0  0  0  0  0  0  0  0  0  0
  145.5528  137.7629  152.2295 N   0  0  0  0  0  0  0  0  0  0  0  0
  144.9780  136.6406  152.7007 C   0  0  0  0  0  0  0  0  0  0  0  0
  145.2659  136.1164  153.7767 O   0  0  0  0  0  0  0  0  0  0  0  0
  143.9041  136.0087  151.7934 C   0  0  1  0  0  0  0  0  0  0  0  0
  144.5010  135.3984  150.5112 C   0  0  0  0  0  0  0  0  0  0  0  0
  145.3132  134.1146  150.7681 C   0  0  0  0  0  0  0  0  0  0  0  0
  144.6542  133.1539  151.7696 C   0  0  0  0  0  0  0  0  0  0  0  0
  145.0457  131.9911  151.8368 O   0  0  0  0  0  0  0  0  0  0  0  0
  143.6899  133.6178  152.5836 N   0  0  0  0  0  0  0  0  0  0  0  0
  143.0606  134.9384  152.5225 C   0  0  0  0  0  0  0  0  0  0  0  0
  146.4940  139.9598  152.6590 C   0  0  0  0  0  0  0  0  0  0  0  0
  147.3780  140.8238  153.2008 N   0  0  0  0  0  0  0  0  0  0  0  0
  151.8513  142.9234  159.1737 H   0  0  0  0  0  0  0  0  0  0  0  0
  151.0721  143.9107  157.9368 H   0  0  0  0  0  0  0  0  0  0  0  0
  152.6752  143.2129  157.6414 H   0  0  0  0  0  0  0  0  0  0  0  0
  150.4624  142.9205  155.9075 H   0  0  0  0  0  0  0  0  0  0  0  0
  151.8169  141.8255  155.6581 H   0  0  0  0  0  0  0  0  0  0  0  0
  150.4751  139.9063  155.6216 H   0  0  0  0  0  0  0  0  0  0  0  0
  149.1691  140.6509  156.5464 H   0  0  0  0  0  0  0  0  0  0  0  0
  149.3108  138.5822  154.8610 H   0  0  0  0  0  0  0  0  0  0  0  0
  147.6792  136.9965  153.8756 H   0  0  0  0  0  0  0  0  0  0  0  0
  145.2902  138.0362  151.2934 H   0  0  0  0  0  0  0  0  0  0  0  0
  143.2248  136.8103  151.4979 H   0  0  0  0  0  0  0  0  0  0  0  0
  143.6903  135.1711  149.8177 H   0  0  0  0  0  0  0  0  0  0  0  0
  145.1281  136.1311  150.0017 H   0  0  0  0  0  0  0  0  0  0  0  0
  145.4862  133.5924  149.8265 H   0  0  0  0  0  0  0  0  0  0  0  0
  146.2978  134.3735  151.1588 H   0  0  0  0  0  0  0  0  0  0  0  0
  143.3101  132.9726  153.2616 H   0  0  0  0  0  0  0  0  0  0  0  0
  142.8225  135.2591  153.5376 H   0  0  0  0  0  0  0  0  0  0  0  0
  142.1044  134.8222  152.0112 H   0  0  0  0  0  0  0  0  0  0  0  0
  145.7145  140.4003  152.0545 H   0  0  0  0  0  0  0  0  0  0  0  0
  1  2  1  0  0  0  0
  1 22  1  0  0  0  0
  1 23  1  0  0  0  0
  1 24  1  0  0  0  0
  2  3  1  0  0  0  0
  3  4  1  0  0  0  0
  3 25  1  0  0  0  0
  3 26  1  0  0  0  0
  4  5  1  0  0  0  0
  4 27  1  0  0  0  0
  4 28  1  0  0  0  0
  5  6  1  0  0  0  0
  6 21  1  0  0  0  0
  6  7  2  0  0  0  0
  7  8  1  0  0  0  0
  7 29  1  0  0  0  0
  8  9  2  0  0  0  0
  8 30  1  0  0  0  0
  9 10  1  0  0  0  0
  9 20  1  0  0  0  0
 10 11  1  0  0  0  0
 10 31  1  0  0  0  0
 11 12  2  0  0  0  0
 11 13  1  0  0  0  0
 13 19  1  0  0  0  0
 13 14  1  0  0  0  0
 13 32  1  0  0  0  0
 14 15  1  0  0  0  0
 14 33  1  0  0  0  0
 14 34  1  0  0  0  0
 15 16  1  0  0  0  0
 15 35  1  0  0  0  0
 15 36  1  0  0  0  0
 16 17  2  0  0  0  0
 16 18  1  0  0  0  0
 18 19  1  0  0  0  0
 18 37  1  0  0  0  0
 19 38  1  0  0  0  0
 19 39  1  0  0  0  0
 20 21  2  0  0  0  0
 20 40  1  0  0  0  0
M  END
> <s_m_source_file>
AV-unprocessed.smi

> <i_m_source_file_index>
1129

> <i_lp_mmshare_version>
43012

> <i_f3d_flags>
0

> <s_epik_input>
W0NIM11PW0NIMl1bQ0gyXU9jMVtjSF1bY0hdYyhbY0hdbjEpW05IXUMoPU8pW0NAQEhdMltDSDJdW0NIMl1DKD1PKVtOSF1bQ0gyXTI=

> <s_epik_cmdline>
J2VwaWtfcHl0aG9uJywgJy1waCcsICc3LjAnLCAnLXRuJywgJzgnLCAnLW1hJywgJzIwMCcsICctbWV0YWxfYmluZGluZycsICctaW1hZScsICc8aW5maWxlLm1hZT4nLCAnLW9tYWUnLCAnPG91dGZpbGUubWFlPic=

> <r_lp_tautomer_probability>
1

> <r_epik_Ionization_Penalty>
1.79985e-05

> <r_epik_Ionization_Penalty_Charging>
0

> <r_epik_Ionization_Penalty_Neutral>
1.79985e-05

> <r_epik_State_Penalty>
-0

> <r_epik_Charging_Adjusted_Penalty>
0

> <i_epik_Tot_Q>
0

> <i_epik_Tot_abs_Q>
0

> <r_epik_Metal_State_Penalty>
-0

> <b_epik_Metal_Only>
0

> <s_lp_Force_Field>
OPLS_2005

> <r_lp_Energy>
14.8931

> <b_lp_Chiralities_Consistent>
1

> <s_lp_Variant>
AV-unprocessed.smi:1129-2

> <Gold.Version>
5.8.1

> <Gold.Id.Protein>
6NUR|6NUR_protein|mol2

> <Gold.PLP.Fitness>
33.9927

> <Gold.PLP.PLP>
-27.8892

> <Gold.PLP.part.hbond>
-2.2948

> <Gold.PLP.part.metal>
0.0000

> <Gold.PLP.part.buried>
-1.2481

> <Gold.PLP.part.nonpolar>
-26.1232

> <Gold.PLP.part.repulsive>
0.6662

> <Gold.PLP.ligand.clash>
0.0000

> <Gold.PLP.ligand.torsion>
1.0264

> <Gold.PLP.Chemscore.Hbond>
1.7963

> <Gold.PLP.Chemscore.CHOScore>
0.9002

> <Gold.PLP.Chemscore.Metal>
0.0000

> <Gold.Chemscore.Hbonds>
donor molecule, donor type, donor heavy atom, donor atom, acceptor molecule, acceptor atom, score
      L1  H    10    31       P1 10171  0.78
      L1  H    18    37       P1 10957  0.99
      L1  C    20    40       P1 10175  0.96

> <Gold.PLP.Chemscore.Internal.Correction>
0.0669

> <Gold.Rescore>
     Score         DG    S(hbond)    S(metal)    S(lipo)     H(rot)  DE(clash)    DE(int)     intcor
     11.43     -14.72       1.89        0.00      69.21       2.03       1.40       1.89       ----

> <Gold.Chemscore.Fitness>
11.4306

> <Gold.Chemscore.DG>
-14.7196

> <Gold.Chemscore.ZeroCoef>
-5.4800

> <Gold.Chemscore.Hbond>
1.8946

> <Gold.Chemscore.Metal>
0.0000

> <Gold.Chemscore.Lipo>
69.2057

> <Gold.Chemscore.Internal_Hbond>
0.0000

> <Gold.Chemscore.DEClash>
1.3972

> <Gold.Chemscore.DEInternal>
1.8919

> <Gold.Chemscore.Rot>
2.0255

> <Gold.Chemscore.Internal.Correction>
   9.000000E+99

> <Gold.Chemscore.Hbonds>
donor molecule, donor type, donor heavy atom, donor atom, acceptor molecule, acceptor atom, score
      L1  H    10    31       P1 10171  0.74
      L1  H    18    37       P1 10957  0.65

> <Gold.Chemscore.Hbond.Weighted>
-6.3278

> <Gold.Chemscore.Metal.Weighted>
-0.0000

> <Gold.Chemscore.Lipo.Weighted>
-8.0971

> <Gold.Chemscore.Internal_Hbond.Weighted>
0.0000

> <Gold.Chemscore.DEClash.Weighted>
1.3972

> <Gold.Chemscore.DEInternal.Weighted>
1.8919

> <Gold.Chemscore.Rot.Weighted>
5.1853

> <Gold.Chemscore.Internal.Correction.Weighted>
   9.000000E+99

> <Gold.Protein.RotatedTorsions>
[ 6907 6896 6895 6894 ] final -167.76 input  -60.11 | X-H torsion
[ 7974 7965 7964 7962 ] final -134.61 input  175.53 | X-H torsion
[ 8008 7997 7996 7995 ] final -103.92 input   59.86 | X-H torsion
[ 10167 10162 10161 10158 ] final   16.88 input  -65.29 | X-H torsion
[ 10718 10713 10712 10709 ] final  -47.64 input   66.30 | X-H torsion
[ 10763 10752 10751 10750 ] final -141.71 input  -60.55 | X-H torsion
[ 11005 11000 10999 10996 ] final  164.13 input  -57.11 | X-H torsion

> <Gold.Protein.ActiveResidues>
 VAL166  LYS551  ARG553  GLY616  TRP617  ASP618  TYR619  PRO620  LYS621  CYS622 
 ASP623  PHE694  ASN695  SER759  ASP760  ASP761  ALA762  ILE779  LEU786  VAL792 
 PHE793  MET794  SER795  GLU796  ALA797  LYS798  CYS799  TRP800  GLU811  SER814 

> <Gold.Protein.RotatedAtoms>
  151.4647  133.3584  159.2814 H   0  0  0  0  0  0  0  0  0  0  0  0  # atno 6907 bound_to 6896
  150.9001  134.8414  159.7365 H   0  0  0  0  0  0  0  0  0  0  0  0  # atno 6908 bound_to 6896
  152.4874  134.4567  159.9644 H   0  0  0  0  0  0  0  0  0  0  0  0  # atno 6909 bound_to 6896
  144.9087  140.6867  143.5039 H   0  0  0  0  0  0  0  0  0  0  0  0  # atno 7974 bound_to 7965
  154.8778  140.0420  157.1764 H   0  0  0  0  0  0  0  0  0  0  0  0  # atno 8008 bound_to 7997
  154.8670  140.2952  155.5483 H   0  0  0  0  0  0  0  0  0  0  0  0  # atno 8009 bound_to 7997
  156.2999  140.2436  156.3654 H   0  0  0  0  0  0  0  0  0  0  0  0  # atno 8010 bound_to 7997
  140.5766  143.9061  150.6755 H   0  0  0  0  0  0  0  0  0  0  0  0  # atno 10167 bound_to 10162
  156.2064  130.4158  149.9172 H   0  0  0  0  0  0  0  0  0  0  0  0  # atno 10718 bound_to 10713
  154.8535  135.3516  154.5912 H   0  0  0  0  0  0  0  0  0  0  0  0  # atno 10763 bound_to 10752
  153.6521  135.6993  153.5210 H   0  0  0  0  0  0  0  0  0  0  0  0  # atno 10764 bound_to 10752
  153.2885  135.4242  155.1103 H   0  0  0  0  0  0  0  0  0  0  0  0  # atno 10765 bound_to 10752
  140.2428  134.8038  157.3427 H   0  0  0  0  0  0  0  0  0  0  0  0  # atno 11005 bound_to 11000
  145.3491  139.1711  143.4444 LP  0  0  0  0  0  0  0  0  0  0  0  0  # atno 17320 bound_to 7965
  146.3147  140.3541  142.8659 LP  0  0  0  0  0  0  0  0  0  0  0  0  # atno 17321 bound_to 7965
  140.2550  143.3565  152.1372 LP  0  0  0  0  0  0  0  0  0  0  0  0  # atno 17342 bound_to 10162
  139.5146  144.6950  151.5655 LP  0  0  0  0  0  0  0  0  0  0  0  0  # atno 17343 bound_to 10162
  156.6864  130.8878  151.3582 LP  0  0  0  0  0  0  0  0  0  0  0  0  # atno 17370 bound_to 10713
  157.7015  130.9338  150.0799 LP  0  0  0  0  0  0  0  0  0  0  0  0  # atno 17371 bound_to 10713
  140.1636  134.4697  155.7878 LP  0  0  0  0  0  0  0  0  0  0  0  0  # atno 17394 bound_to 11000
  141.2209  133.6912  156.7587 LP  0  0  0  0  0  0  0  0  0  0  0  0  # atno 17395 bound_to 11000

$$$$
