AV-unprocessed.smi:235|AV-procd|sdf|1801|dock2
  -GOLD-   2262020373D 1   1.00000     0.00000
 Structure written by MMmdl.
 54 58  0  0  0  0  0  0  0  0  1 V2000
  150.1470  142.5129  159.3567 O   0  0  0  0  0  0  0  0  0  0  0  0
  151.1300  142.1215  158.7264 C   0  0  0  0  0  0  0  0  0  0  0  0
  152.2035  142.8863  158.4815 N   0  0  0  0  0  0  0  0  0  0  0  0
  152.3787  144.2349  158.9125 C   0  0  0  0  0  0  0  0  0  0  0  0
  151.9250  144.5886  160.3124 C   0  0  0  0  0  0  0  0  0  0  0  0
  151.1342  145.0693  159.1270 C   0  0  0  0  0  0  0  0  0  0  0  0
  151.1767  140.6975  158.1537 C   0  0  2  0  0  0  0  0  0  0  0  0
  152.4394  139.9429  158.5878 C   0  0  0  0  0  0  0  0  0  0  0  0
  152.5882  138.8804  157.5058 C   0  0  0  0  0  0  0  0  0  0  0  0
  152.1177  139.6032  156.2434 C   0  0  0  0  0  0  0  0  0  0  0  0
  151.2445  140.6847  156.6907 N   0  0  0  0  0  0  0  0  0  0  0  0
  150.0614  140.7836  156.0454 C   0  0  0  0  0  0  0  0  0  0  0  0
  149.2816  141.8522  156.3395 N   0  0  0  0  0  0  0  0  0  0  0  0
  148.0990  142.0016  155.7348 C   0  0  0  0  0  0  0  0  0  0  0  0
  147.5200  141.2143  154.8248 N   0  0  0  0  0  0  0  0  0  0  0  0
  148.3055  140.1394  154.5283 C   0  0  0  0  0  0  0  0  0  0  0  0
  149.5816  139.8487  155.0855 C   0  0  0  0  0  0  0  0  0  0  0  0
  150.0821  138.6719  154.5405 N   0  0  0  0  0  0  0  0  0  0  0  0
  149.1515  138.2865  153.7102 C   0  0  0  0  0  0  0  0  0  0  0  0
  148.0516  139.1117  153.6391 N   0  0  0  0  0  0  0  0  0  0  0  0
  146.8802  138.9323  152.8011 C   0  0  0  0  0  0  0  0  0  0  0  0
  146.9572  137.6558  151.9399 C   0  0  2  0  0  0  0  0  0  0  0  0
  146.7390  137.9979  150.5859 O   0  0  0  0  0  0  0  0  0  0  0  0
  145.9919  136.5302  152.3758 C   0  0  2  0  0  0  0  0  0  0  0  0
  145.8740  135.3315  151.4184 C   0  0  0  0  0  0  0  0  0  0  0  0
  144.3939  135.2842  151.0824 C   0  0  0  0  0  0  0  0  0  0  0  0
  143.7573  135.9926  152.2710 C   0  0  0  0  0  0  0  0  0  0  0  0
  144.6721  137.0406  152.5427 O   0  0  0  0  0  0  0  0  0  0  0  0
  152.9587  142.4794  157.9489 H   0  0  0  0  0  0  0  0  0  0  0  0
  153.2545  144.7683  158.5451 H   0  0  0  0  0  0  0  0  0  0  0  0
  151.4870  143.7996  160.9209 H   0  0  0  0  0  0  0  0  0  0  0  0
  152.5103  145.3261  160.8580 H   0  0  0  0  0  0  0  0  0  0  0  0
  151.1921  146.1274  158.8796 H   0  0  0  0  0  0  0  0  0  0  0  0
  150.1690  144.6009  158.9431 H   0  0  0  0  0  0  0  0  0  0  0  0
  150.2993  140.1438  158.4934 H   0  0  0  0  0  0  0  0  0  0  0  0
  153.3121  140.5988  158.5813 H   0  0  0  0  0  0  0  0  0  0  0  0
  152.3493  139.5115  159.5851 H   0  0  0  0  0  0  0  0  0  0  0  0
  153.6039  138.4931  157.4215 H   0  0  0  0  0  0  0  0  0  0  0  0
  151.9232  138.0428  157.7209 H   0  0  0  0  0  0  0  0  0  0  0  0
  152.9676  140.0528  155.7291 H   0  0  0  0  0  0  0  0  0  0  0  0
  151.6423  138.9137  155.5436 H   0  0  0  0  0  0  0  0  0  0  0  0
  147.5357  142.8774  156.0215 H   0  0  0  0  0  0  0  0  0  0  0  0
  149.2454  137.3883  153.1170 H   0  0  0  0  0  0  0  0  0  0  0  0
  145.9989  138.9056  153.4438 H   0  0  0  0  0  0  0  0  0  0  0  0
  146.7745  139.8127  152.1657 H   0  0  0  0  0  0  0  0  0  0  0  0
  147.9734  137.2640  151.9973 H   0  0  0  0  0  0  0  0  0  0  0  0
  145.8874  138.4014  150.5145 H   0  0  0  0  0  0  0  0  0  0  0  0
  146.3080  136.1479  153.3477 H   0  0  0  0  0  0  0  0  0  0  0  0
  146.4911  135.4190  150.5240 H   0  0  0  0  0  0  0  0  0  0  0  0
  146.1738  134.4174  151.9323 H   0  0  0  0  0  0  0  0  0  0  0  0
  144.2026  135.8513  150.1705 H   0  0  0  0  0  0  0  0  0  0  0  0
  144.0189  134.2708  150.9383 H   0  0  0  0  0  0  0  0  0  0  0  0
  142.7602  136.3749  152.0516 H   0  0  0  0  0  0  0  0  0  0  0  0
  143.6934  135.3284  153.1342 H   0  0  0  0  0  0  0  0  0  0  0  0
  1  2  2  0  0  0  0
  2  3  1  0  0  0  0
  2  7  1  0  0  0  0
  3  4  1  0  0  0  0
  3 29  1  0  0  0  0
  4  6  1  0  0  0  0
  4  5  1  0  0  0  0
  4 30  1  0  0  0  0
  5  6  1  0  0  0  0
  5 31  1  0  0  0  0
  5 32  1  0  0  0  0
  6 33  1  0  0  0  0
  6 34  1  0  0  0  0
  7 11  1  0  0  0  0
  7  8  1  0  0  0  0
  7 35  1  0  0  0  0
  8  9  1  0  0  0  0
  8 36  1  0  0  0  0
  8 37  1  0  0  0  0
  9 10  1  0  0  0  0
  9 38  1  0  0  0  0
  9 39  1  0  0  0  0
 10 11  1  0  0  0  0
 10 40  1  0  0  0  0
 10 41  1  0  0  0  0
 11 12  1  0  0  0  0
 12 17  1  0  0  0  0
 12 13  2  0  0  0  0
 13 14  1  0  0  0  0
 14 15  2  0  0  0  0
 14 42  1  0  0  0  0
 15 16  1  0  0  0  0
 16 20  1  0  0  0  0
 16 17  2  0  0  0  0
 17 18  1  0  0  0  0
 18 19  2  0  0  0  0
 19 20  1  0  0  0  0
 19 43  1  0  0  0  0
 20 21  1  0  0  0  0
 21 22  1  0  0  0  0
 21 44  1  0  0  0  0
 21 45  1  0  0  0  0
 22 23  1  0  0  0  0
 22 24  1  0  0  0  0
 22 46  1  0  0  0  0
 23 47  1  0  0  0  0
 24 28  1  0  0  0  0
 24 25  1  0  0  0  0
 24 48  1  0  0  0  0
 25 26  1  0  0  0  0
 25 49  1  0  0  0  0
 25 50  1  0  0  0  0
 26 27  1  0  0  0  0
 26 51  1  0  0  0  0
 26 52  1  0  0  0  0
 27 28  1  0  0  0  0
 27 53  1  0  0  0  0
 27 54  1  0  0  0  0
M  END
> <s_m_source_file>
AV-unprocessed.smi

> <i_m_source_file_index>
235

> <i_lp_mmshare_version>
43012

> <i_f3d_flags>
0

> <s_epik_input>
W0NIMl0xW0NIMl1bQ0hdMVtOSF1DKD1PKVtDQEBIXTJbQ0gyXVtDSDJdW0NIMl1OMmMobltjSF1uMyljKGMzNCluW2NIXW40W0NIMl1bQ0BIXShbT0hdKVtDQEBIXTVbQ0gyXVtDSDJdW0NIMl1PNQ==

> <s_epik_cmdline>
J2VwaWtfcHl0aG9uJywgJy1waCcsICc3LjAnLCAnLXRuJywgJzgnLCAnLW1hJywgJzIwMCcsICctbWV0YWxfYmluZGluZycsICctaW1hZScsICc8aW5maWxlLm1hZT4nLCAnLW9tYWUnLCAnPG91dGZpbGUubWFlPic=

> <r_lp_tautomer_probability>
1

> <r_epik_Ionization_Penalty>
0.000526714

> <r_epik_Ionization_Penalty_Charging>
0

> <r_epik_Ionization_Penalty_Neutral>
0.000526714

> <r_epik_State_Penalty>
0.000272704

> <r_epik_Charging_Adjusted_Penalty>
0.000272704

> <i_epik_Tot_Q>
0

> <i_epik_Tot_abs_Q>
0

> <r_epik_Metal_State_Penalty>
-0

> <b_epik_Metal_Only>
0

> <s_lp_Force_Field>
OPLS_2005

> <r_lp_Energy>
63.4887

> <b_lp_Chiralities_Consistent>
1

> <s_lp_Variant>
AV-unprocessed.smi:235-1

> <Gold.Version>
5.8.1

> <Gold.Id.Protein>
6NUR|6NUR_protein|mol2

> <Gold.PLP.Fitness>
47.8177

> <Gold.PLP.PLP>
-41.0998

> <Gold.PLP.part.hbond>
-3.4774

> <Gold.PLP.part.metal>
0.0000

> <Gold.PLP.part.buried>
2.6962

> <Gold.PLP.part.nonpolar>
-43.1946

> <Gold.PLP.part.repulsive>
2.7190

> <Gold.PLP.ligand.clash>
0.0001

> <Gold.PLP.ligand.torsion>
1.2749

> <Gold.PLP.Chemscore.Hbond>
2.0000

> <Gold.PLP.Chemscore.CHOScore>
0.9637

> <Gold.PLP.Chemscore.Metal>
0.0000

> <Gold.Chemscore.Hbonds>
donor molecule, donor type, donor heavy atom, donor atom, acceptor molecule, acceptor atom, score
      L1  H    23    47       P1 10171  0.76
      P1  H  7954  7966       L1    23  1.00
      L1  C    14    42       P1  8028  0.54
      L1  C    19    43       P1  7948  0.19

> <Gold.PLP.Chemscore.Internal.Correction>
0.3769

> <Gold.Rescore>
     Score         DG    S(hbond)    S(metal)    S(lipo)     H(rot)  DE(clash)    DE(int)     intcor
      3.89     -14.87       1.77        0.00      95.38       3.00       5.15       5.83       ----

> <Gold.Chemscore.Fitness>
3.8888

> <Gold.Chemscore.DG>
-14.8702

> <Gold.Chemscore.ZeroCoef>
-5.4800

> <Gold.Chemscore.Hbond>
1.7689

> <Gold.Chemscore.Metal>
0.0000

> <Gold.Chemscore.Lipo>
95.3779

> <Gold.Chemscore.Internal_Hbond>
0.0000

> <Gold.Chemscore.DEClash>
5.1472

> <Gold.Chemscore.DEInternal>
5.8342

> <Gold.Chemscore.Rot>
2.9989

> <Gold.Chemscore.Internal.Correction>
   9.000000E+99

> <Gold.Chemscore.Hbonds>
donor molecule, donor type, donor heavy atom, donor atom, acceptor molecule, acceptor atom, score
      L1  H    23    47       P1 10171  0.74
      P1  H  7954  7966       L1    23  0.52

> <Gold.Chemscore.Hbond.Weighted>
-5.9082

> <Gold.Chemscore.Metal.Weighted>
-0.0000

> <Gold.Chemscore.Lipo.Weighted>
-11.1592

> <Gold.Chemscore.Internal_Hbond.Weighted>
0.0000

> <Gold.Chemscore.DEClash.Weighted>
5.1472

> <Gold.Chemscore.DEInternal.Weighted>
5.8342

> <Gold.Chemscore.Rot.Weighted>
7.6772

> <Gold.Chemscore.Internal.Correction.Weighted>
   9.000000E+99

> <Gold.Protein.RotatedTorsions>
[ 6907 6896 6895 6894 ] final  141.03 input  -60.11 | X-H torsion
[ 7974 7965 7964 7962 ] final   17.55 input  175.53 | X-H torsion
[ 8008 7997 7996 7995 ] final  -88.41 input   59.86 | X-H torsion
[ 10167 10162 10161 10158 ] final   99.40 input  -65.29 | X-H torsion
[ 10718 10713 10712 10709 ] final  158.56 input   66.30 | X-H torsion
[ 10763 10752 10751 10750 ] final  -91.26 input  -60.55 | X-H torsion
[ 11005 11000 10999 10996 ] final  -18.71 input  -57.11 | X-H torsion

> <Gold.Protein.ActiveResidues>
 VAL166  LYS551  ARG553  GLY616  TRP617  ASP618  TYR619  PRO620  LYS621  CYS622 
 ASP623  PHE694  ASN695  SER759  ASP760  ASP761  ALA762  ILE779  LEU786  VAL792 
 PHE793  MET794  SER795  GLU796  ALA797  LYS798  CYS799  TRP800  GLU811  SER814 

> <Gold.Protein.RotatedAtoms>
  152.2359  133.5095  159.5241 H   0  0  0  0  0  0  0  0  0  0  0  0  # atno 6907 bound_to 6896
  150.7050  134.1154  159.4024 H   0  0  0  0  0  0  0  0  0  0  0  0  # atno 6908 bound_to 6896
  151.9075  135.0352  160.0562 H   0  0  0  0  0  0  0  0  0  0  0  0  # atno 6909 bound_to 6896
  146.2215  139.8586  142.8609 H   0  0  0  0  0  0  0  0  0  0  0  0  # atno 7974 bound_to 7965
  154.6745  140.0554  157.0200 H   0  0  0  0  0  0  0  0  0  0  0  0  # atno 8008 bound_to 7997
  155.1041  140.3232  155.4520 H   0  0  0  0  0  0  0  0  0  0  0  0  # atno 8009 bound_to 7997
  156.2670  140.2026  156.6166 H   0  0  0  0  0  0  0  0  0  0  0  0  # atno 8010 bound_to 7997
  139.7621  144.6951  151.0278 H   0  0  0  0  0  0  0  0  0  0  0  0  # atno 10167 bound_to 10162
  157.1763  131.0622  151.2156 H   0  0  0  0  0  0  0  0  0  0  0  0  # atno 10718 bound_to 10713
  154.6742  135.5274  153.8177 H   0  0  0  0  0  0  0  0  0  0  0  0  # atno 10763 bound_to 10752
  153.0521  135.6536  154.0677 H   0  0  0  0  0  0  0  0  0  0  0  0  # atno 10764 bound_to 10752
  154.0573  135.2964  155.3310 H   0  0  0  0  0  0  0  0  0  0  0  0  # atno 10765 bound_to 10752
  140.8295  133.8007  155.9743 H   0  0  0  0  0  0  0  0  0  0  0  0  # atno 11005 bound_to 11000
  145.2727  141.0114  143.3762 LP  0  0  0  0  0  0  0  0  0  0  0  0  # atno 17320 bound_to 7965
  144.9211  139.4411  143.6541 LP  0  0  0  0  0  0  0  0  0  0  0  0  # atno 17321 bound_to 7965
  140.7808  143.4685  151.0179 LP  0  0  0  0  0  0  0  0  0  0  0  0  # atno 17342 bound_to 10162
  139.8371  143.7613  152.3180 LP  0  0  0  0  0  0  0  0  0  0  0  0  # atno 17343 bound_to 10162
  157.3996  130.7326  149.6757 LP  0  0  0  0  0  0  0  0  0  0  0  0  # atno 17370 bound_to 10713
  155.9731  130.4124  150.4032 LP  0  0  0  0  0  0  0  0  0  0  0  0  # atno 17371 bound_to 10713
  140.9013  134.2374  157.5040 LP  0  0  0  0  0  0  0  0  0  0  0  0  # atno 17394 bound_to 11000
  139.8705  134.9708  156.4713 LP  0  0  0  0  0  0  0  0  0  0  0  0  # atno 17395 bound_to 11000

$$$$
