AV-unprocessed.smi:1817|AV-procd|sdf|7377|dock7
  -GOLD-   22720 9 43D 1   1.00000     0.00000
 Structure written by MMmdl.
 42 43  0  0  0  0  0  0  0  0  3 V2000
  150.7456  141.1381  156.2693 C   0  0  0  0  0  0  0  0  0  0  0  0
  151.2207  139.7123  155.9529 C   0  0  0  0  0  0  0  0  0  0  0  0
  150.8817  139.3115  154.5853 N   0  0  0  0  0  0  0  0  0  0  0  0
  151.5734  138.1106  154.1029 C   0  0  0  0  0  0  0  0  0  0  0  0
  151.0802  136.8285  154.8061 C   0  0  0  0  0  0  0  0  0  0  0  0
  149.6167  136.6726  154.6201 N   0  3  0  0  0  0  0  0  0  0  0  0
  149.0837  135.3650  155.0993 C   0  0  1  0  0  0  0  0  0  0  0  0
  149.3898  134.1949  154.1389 C   0  0  0  0  0  0  0  0  0  0  0  0
  149.5527  135.0884  156.5464 C   0  0  0  0  0  0  0  0  0  0  0  0
  148.5261  135.3983  157.5360 N   0  0  0  0  0  0  0  0  0  0  0  0
  148.2894  134.7056  158.6588 C   0  0  0  0  0  0  0  0  0  0  0  0
  148.9551  133.6985  158.9107 O   0  0  0  0  0  0  0  0  0  0  0  0
  147.3030  135.2266  159.4217 N   0  5  0  0  0  0  0  0  0  0  0  0
  147.4945  135.3998  160.7401 C   0  0  0  0  0  0  0  0  0  0  0  0
  147.4748  136.6137  161.3134 N   0  0  0  0  0  0  0  0  0  0  0  0
  147.6930  136.5740  162.6838 N   0  0  0  0  0  0  0  0  0  0  0  0
  147.8636  135.3237  163.1126 C   0  0  0  0  0  0  0  0  0  0  0  0
  147.7699  134.0814  161.8820 S   0  0  0  0  0  0  0  0  0  0  0  0
  148.9033  137.8808  155.1083 C   0  0  0  0  0  0  0  0  0  0  0  0
  149.4387  139.1394  154.3936 C   0  0  0  0  0  0  0  0  0  0  0  0
  150.8884  141.3601  157.3270 H   0  0  0  0  0  0  0  0  0  0  0  0
  149.6848  141.2612  156.0485 H   0  0  0  0  0  0  0  0  0  0  0  0
  151.2993  141.8893  155.7067 H   0  0  0  0  0  0  0  0  0  0  0  0
  152.2887  139.6194  156.1471 H   0  0  0  0  0  0  0  0  0  0  0  0
  150.7213  139.0325  156.6442 H   0  0  0  0  0  0  0  0  0  0  0  0
  151.3964  138.0223  153.0301 H   0  0  0  0  0  0  0  0  0  0  0  0
  152.6515  138.2158  154.2172 H   0  0  0  0  0  0  0  0  0  0  0  0
  151.5961  135.9713  154.3724 H   0  0  0  0  0  0  0  0  0  0  0  0
  151.3341  136.8392  155.8661 H   0  0  0  0  0  0  0  0  0  0  0  0
  147.9986  135.4702  155.1385 H   0  0  0  0  0  0  0  0  0  0  0  0
  148.8540  133.2936  154.4377 H   0  0  0  0  0  0  0  0  0  0  0  0
  150.4514  133.9476  154.1267 H   0  0  0  0  0  0  0  0  0  0  0  0
  149.0842  134.4199  153.1175 H   0  0  0  0  0  0  0  0  0  0  0  0
  149.8118  134.0375  156.6712 H   0  0  0  0  0  0  0  0  0  0  0  0
  150.4576  135.6562  156.7700 H   0  0  0  0  0  0  0  0  0  0  0  0
  147.9548  136.2134  157.3655 H   0  0  0  0  0  0  0  0  0  0  0  0
  148.0421  135.1314  164.1600 H   0  0  0  0  0  0  0  0  0  0  0  0
  147.8362  137.7891  154.9091 H   0  0  0  0  0  0  0  0  0  0  0  0
  149.0111  137.9838  156.1882 H   0  0  0  0  0  0  0  0  0  0  0  0
  148.9118  140.0278  154.7438 H   0  0  0  0  0  0  0  0  0  0  0  0
  149.2352  139.0655  153.3244 H   0  0  0  0  0  0  0  0  0  0  0  0
  149.4822  136.6573  153.6192 H   0  0  0  0  0  0  0  0  0  0  0  0
  1  2  1  0  0  0  0
  1 21  1  0  0  0  0
  1 22  1  0  0  0  0
  1 23  1  0  0  0  0
  2  3  1  0  0  0  0
  2 24  1  0  0  0  0
  2 25  1  0  0  0  0
  3 20  1  0  0  0  0
  3  4  1  0  0  0  0
  4  5  1  0  0  0  0
  4 26  1  0  0  0  0
  4 27  1  0  0  0  0
  5  6  1  0  0  0  0
  5 28  1  0  0  0  0
  5 29  1  0  0  0  0
  6  7  1  0  0  0  0
  6 19  1  0  0  0  0
  6 42  1  0  0  0  0
  7  8  1  0  0  0  0
  7  9  1  0  0  0  0
  7 30  1  0  0  0  0
  8 31  1  0  0  0  0
  8 32  1  0  0  0  0
  8 33  1  0  0  0  0
  9 10  1  0  0  0  0
  9 34  1  0  0  0  0
  9 35  1  0  0  0  0
 10 11  1  0  0  0  0
 10 36  1  0  0  0  0
 11 12  2  0  0  0  0
 11 13  1  0  0  0  0
 13 14  1  0  0  0  0
 14 18  1  0  0  0  0
 14 15  2  0  0  0  0
 15 16  1  0  0  0  0
 16 17  2  0  0  0  0
 17 18  1  0  0  0  0
 17 37  1  0  0  0  0
 19 20  1  0  0  0  0
 19 38  1  0  0  0  0
 19 39  1  0  0  0  0
 20 40  1  0  0  0  0
 20 41  1  0  0  0  0
M  CHG  1   6   1
M  CHG  1  13  -1
M  END
> <s_m_source_file>
AV-unprocessed.smi

> <i_m_source_file_index>
1817

> <i_lp_mmshare_version>
43012

> <i_f3d_flags>
0

> <s_epik_input>
W0NIM11bQ0gyXU4xW0NIMl1bQ0gyXU4oW0NIMl1bQ0gyXTEpW0NASF0oW0NIM10pW0NIMl1bTkhdQyg9TylbTkhdYzJubltjSF1zMg==

> <s_epik_cmdline>
J2VwaWtfcHl0aG9uJywgJy1waCcsICc3LjAnLCAnLXRuJywgJzgnLCAnLW1hJywgJzIwMCcsICctbWV0YWxfYmluZGluZycsICctaW1hZScsICc8aW5maWxlLm1hZT4nLCAnLW9tYWUnLCAnPG91dGZpbGUubWFlPic=

> <r_epik_Ionization_Penalty>
3.16835

> <r_epik_Ionization_Penalty_Charging>
3.13468

> <r_epik_Ionization_Penalty_Neutral>
0.0336711

> <r_epik_State_Penalty>
3.95884

> <r_epik_Charging_Adjusted_Penalty>
7.09351

> <i_epik_Tot_Q>
0

> <i_epik_Tot_abs_Q>
2

> <r_epik_Metal_State_Penalty>
1.39003

> <b_epik_Metal_Only>
1

> <s_lp_Force_Field>
OPLS_2005

> <r_lp_Energy>
12.939

> <b_lp_Chiralities_Consistent>
1

> <s_lp_Variant>
AV-unprocessed.smi:1817-10

> <Gold.Version>
5.8.1

> <Gold.Id.Protein>
6NUR|6NUR_protein|mol2

> <Gold.PLP.Fitness>
45.3078

> <Gold.PLP.PLP>
-34.4849

> <Gold.PLP.part.hbond>
-6.9631

> <Gold.PLP.part.metal>
0.0000

> <Gold.PLP.part.buried>
-3.3863

> <Gold.PLP.part.nonpolar>
-25.1836

> <Gold.PLP.part.repulsive>
0.1789

> <Gold.PLP.ligand.clash>
0.0000

> <Gold.PLP.ligand.torsion>
2.1733

> <Gold.PLP.Chemscore.Hbond>
5.0000

> <Gold.PLP.Chemscore.CHOScore>
0.0000

> <Gold.PLP.Chemscore.Metal>
0.0000

> <Gold.Chemscore.Hbonds>
donor molecule, donor type, donor heavy atom, donor atom, acceptor molecule, acceptor atom, score
      L1  H     6    42       P1  7948  2.00
      P1  H  6896  6908       L1    12  1.00
      P1  H  7989  7998       L1     3  0.98

> <Gold.PLP.Chemscore.Internal.Correction>
0.1695

> <Gold.Rescore>
     Score         DG    S(hbond)    S(metal)    S(lipo)     H(rot)  DE(clash)    DE(int)     intcor
     14.98     -17.40       2.57        0.00      69.80       1.88       0.29       2.12       ----

> <Gold.Chemscore.Fitness>
14.9813

> <Gold.Chemscore.DG>
-17.3970

> <Gold.Chemscore.ZeroCoef>
-5.4800

> <Gold.Chemscore.Hbond>
2.5659

> <Gold.Chemscore.Metal>
0.0000

> <Gold.Chemscore.Lipo>
69.7960

> <Gold.Chemscore.Internal_Hbond>
0.0000

> <Gold.Chemscore.DEClash>
0.2936

> <Gold.Chemscore.DEInternal>
2.1221

> <Gold.Chemscore.Rot>
1.8825

> <Gold.Chemscore.Internal.Correction>
   9.000000E+99

> <Gold.Chemscore.Hbonds>
donor molecule, donor type, donor heavy atom, donor atom, acceptor molecule, acceptor atom, score
      L1  H     6    42       P1  7948  0.82
      P1  H  6896  6908       L1    12  0.77
      P1  H  6934  6947       L1    15  0.01
      P1  H  7989  7998       L1     3  0.14

> <Gold.Chemscore.Hbond.Weighted>
-8.5700

> <Gold.Chemscore.Metal.Weighted>
-0.0000

> <Gold.Chemscore.Lipo.Weighted>
-8.1661

> <Gold.Chemscore.Internal_Hbond.Weighted>
0.0000

> <Gold.Chemscore.DEClash.Weighted>
0.2936

> <Gold.Chemscore.DEInternal.Weighted>
2.1221

> <Gold.Chemscore.Rot.Weighted>
4.8191

> <Gold.Chemscore.Internal.Correction.Weighted>
   9.000000E+99

> <Gold.Protein.RotatedTorsions>
[ 6907 6896 6895 6894 ] final  144.61 input  -60.11 | X-H torsion
[ 7974 7965 7964 7962 ] final  142.14 input  175.53 | X-H torsion
[ 8008 7997 7996 7995 ] final  121.60 input   59.86 | X-H torsion
[ 10167 10162 10161 10158 ] final   28.74 input  -65.29 | X-H torsion
[ 10718 10713 10712 10709 ] final  -32.59 input   66.30 | X-H torsion
[ 10763 10752 10751 10750 ] final  -15.95 input  -60.55 | X-H torsion
[ 11005 11000 10999 10996 ] final -155.71 input  -57.11 | X-H torsion

> <Gold.Protein.ActiveResidues>
 VAL166  LYS551  ARG553  GLY616  TRP617  ASP618  TYR619  PRO620  LYS621  CYS622 
 ASP623  PHE694  ASN695  SER759  ASP760  ASP761  ALA762  ILE779  LEU786  VAL792 
 PHE793  MET794  SER795  GLU796  ALA797  LYS798  CYS799  TRP800  GLU811  SER814 

> <Gold.Protein.RotatedAtoms>
  152.1915  133.4776  159.5010 H   0  0  0  0  0  0  0  0  0  0  0  0  # atno 6907 bound_to 6896
  150.6952  134.1706  159.4220 H   0  0  0  0  0  0  0  0  0  0  0  0  # atno 6908 bound_to 6896
  151.9621  135.0118  160.0599 H   0  0  0  0  0  0  0  0  0  0  0  0  # atno 6909 bound_to 6896
  144.9034  139.5391  143.5743 H   0  0  0  0  0  0  0  0  0  0  0  0  # atno 7974 bound_to 7965
  156.2693  140.2805  156.1334 H   0  0  0  0  0  0  0  0  0  0  0  0  # atno 8008 bound_to 7997
  155.1030  140.0390  157.2720 H   0  0  0  0  0  0  0  0  0  0  0  0  # atno 8009 bound_to 7997
  154.6800  140.2606  155.6924 H   0  0  0  0  0  0  0  0  0  0  0  0  # atno 8010 bound_to 7997
  140.4826  144.0592  150.6270 H   0  0  0  0  0  0  0  0  0  0  0  0  # atno 10167 bound_to 10162
  156.3731  130.4343  149.7529 H   0  0  0  0  0  0  0  0  0  0  0  0  # atno 10718 bound_to 10713
  153.5511  135.7011  153.5591 H   0  0  0  0  0  0  0  0  0  0  0  0  # atno 10763 bound_to 10752
  153.3514  135.3994  155.1649 H   0  0  0  0  0  0  0  0  0  0  0  0  # atno 10764 bound_to 10752
  154.8661  135.3766  154.5022 H   0  0  0  0  0  0  0  0  0  0  0  0  # atno 10765 bound_to 10752
  140.6835  134.4119  157.5225 H   0  0  0  0  0  0  0  0  0  0  0  0  # atno 11005 bound_to 11000
  146.3121  139.7783  142.9012 LP  0  0  0  0  0  0  0  0  0  0  0  0  # atno 17320 bound_to 7965
  145.3577  141.0320  143.3302 LP  0  0  0  0  0  0  0  0  0  0  0  0  # atno 17321 bound_to 7965
  140.3838  143.2788  152.0139 LP  0  0  0  0  0  0  0  0  0  0  0  0  # atno 17342 bound_to 10162
  139.4836  144.6133  151.7393 LP  0  0  0  0  0  0  0  0  0  0  0  0  # atno 17343 bound_to 10162
  156.4649  130.7969  151.2989 LP  0  0  0  0  0  0  0  0  0  0  0  0  # atno 17370 bound_to 10713
  157.7486  131.0054  150.3112 LP  0  0  0  0  0  0  0  0  0  0  0  0  # atno 17371 bound_to 10713
  139.8945  134.8706  156.2176 LP  0  0  0  0  0  0  0  0  0  0  0  0  # atno 17394 bound_to 11000
  141.0299  133.6994  156.1411 LP  0  0  0  0  0  0  0  0  0  0  0  0  # atno 17395 bound_to 11000

$$$$
