AV-unprocessed.smi:283|AV-procd|sdf|2144|dock8
  -GOLD-   2262021473D 1   1.00000     0.00000
 Structure written by MMmdl.
 48 51  0  0  0  0  0  0  0  0  1 V2000
  150.8343  141.6973  157.0083 C   0  0  0  0  0  0  0  0  0  0  0  0
  151.1757  141.5961  158.5011 C   0  0  1  0  0  0  0  0  0  0  0  0
  152.3678  140.7693  158.6793 N   0  0  0  0  0  0  0  0  0  0  0  0
  152.2840  139.4208  158.6560 C   0  0  0  0  0  0  0  0  0  0  0  0
  151.0351  138.9087  158.7648 N   0  0  0  0  0  0  0  0  0  0  0  0
  150.8467  137.5873  158.7227 C   0  0  0  0  0  0  0  0  0  0  0  0
  151.7546  136.6201  158.5822 N   0  0  0  0  0  0  0  0  0  0  0  0
  153.0185  137.1255  158.4897 C   0  0  0  0  0  0  0  0  0  0  0  0
  153.3698  138.5055  158.5242 C   0  0  0  0  0  0  0  0  0  0  0  0
  154.7505  138.6292  158.4213 N   0  0  0  0  0  0  0  0  0  0  0  0
  155.1805  137.4023  158.3154 C   0  0  0  0  0  0  0  0  0  0  0  0
  154.2036  136.4338  158.3403 N   0  0  0  0  0  0  0  0  0  0  0  0
  154.3870  134.9557  158.2282 C   0  0  1  0  0  0  0  0  0  0  0  0
  155.0859  134.6906  157.0525 O   0  0  0  0  0  0  0  0  0  0  0  0
  156.0095  133.6264  157.2545 C   0  0  2  0  0  0  0  0  0  0  0  0
  155.3053  132.2873  156.9616 C   0  0  0  0  0  0  0  0  0  0  0  0
  156.1979  131.2166  157.1821 O   0  0  0  0  0  0  0  0  0  0  0  0
  156.4184  133.7748  158.7267 C   0  0  1  0  0  0  0  0  0  0  0  0
  157.5507  134.6169  158.8121 O   0  0  0  0  0  0  0  0  0  0  0  0
  155.2111  134.4150  159.4078 C   0  0  2  0  0  0  0  0  0  0  0  0
  154.4910  133.4267  160.1175 O   0  0  0  0  0  0  0  0  0  0  0  0
  151.2665  142.9938  159.1211 C   0  0  0  0  0  0  0  0  0  0  0  0
  150.3877  144.0148  158.6888 C   0  0  0  0  0  0  0  0  0  0  0  0
  150.4591  145.3070  159.2417 C   0  0  0  0  0  0  0  0  0  0  0  0
  151.4056  145.5915  160.2421 C   0  0  0  0  0  0  0  0  0  0  0  0
  152.2741  144.5801  160.6920 C   0  0  0  0  0  0  0  0  0  0  0  0
  152.2069  143.2843  160.1419 C   0  0  0  0  0  0  0  0  0  0  0  0
  153.2888  142.0782  160.7461 Cl  0  0  0  0  0  0  0  0  0  0  0  0
  153.3759  134.5491  158.1728 H   0  0  0  0  0  0  0  0  0  0  0  0
  156.8727  133.7356  156.5953 H   0  0  0  0  0  0  0  0  0  0  0  0
  156.6975  132.8205  159.1761 H   0  0  0  0  0  0  0  0  0  0  0  0
  155.4949  135.2133  160.0962 H   0  0  0  0  0  0  0  0  0  0  0  0
  149.8975  142.2343  156.8563 H   0  0  0  0  0  0  0  0  0  0  0  0
  150.7216  140.7087  156.5620 H   0  0  0  0  0  0  0  0  0  0  0  0
  151.6134  142.2255  156.4576 H   0  0  0  0  0  0  0  0  0  0  0  0
  150.3599  141.0502  158.9713 H   0  0  0  0  0  0  0  0  0  0  0  0
  153.1443  141.2428  159.1176 H   0  0  0  0  0  0  0  0  0  0  0  0
  149.8219  137.2575  158.8096 H   0  0  0  0  0  0  0  0  0  0  0  0
  156.2304  137.1699  158.2105 H   0  0  0  0  0  0  0  0  0  0  0  0
  154.4628  132.1483  157.6394 H   0  0  0  0  0  0  0  0  0  0  0  0
  154.9104  132.2460  155.9463 H   0  0  0  0  0  0  0  0  0  0  0  0
  155.9178  130.7477  157.9535 H   0  0  0  0  0  0  0  0  0  0  0  0
  157.9504  134.4943  159.6608 H   0  0  0  0  0  0  0  0  0  0  0  0
  155.1054  132.9028  160.6086 H   0  0  0  0  0  0  0  0  0  0  0  0
  149.6525  143.8133  157.9237 H   0  0  0  0  0  0  0  0  0  0  0  0
  149.7866  146.0791  158.8980 H   0  0  0  0  0  0  0  0  0  0  0  0
  151.4624  146.5825  160.6678 H   0  0  0  0  0  0  0  0  0  0  0  0
  152.9948  144.8002  161.4659 H   0  0  0  0  0  0  0  0  0  0  0  0
  1  2  1  0  0  0  0
  1 33  1  0  0  0  0
  1 34  1  0  0  0  0
  1 35  1  0  0  0  0
  2  3  1  0  0  0  0
  2 22  1  0  0  0  0
  2 36  1  0  0  0  0
  3  4  1  0  0  0  0
  3 37  1  0  0  0  0
  4  9  1  0  0  0  0
  4  5  2  0  0  0  0
  5  6  1  0  0  0  0
  6  7  2  0  0  0  0
  6 38  1  0  0  0  0
  7  8  1  0  0  0  0
  8 12  1  0  0  0  0
  8  9  2  0  0  0  0
  9 10  1  0  0  0  0
 10 11  2  0  0  0  0
 11 12  1  0  0  0  0
 11 39  1  0  0  0  0
 12 13  1  0  0  0  0
 13 29  1  0  0  0  0
 13 20  1  0  0  0  0
 13 14  1  0  0  0  0
 14 15  1  0  0  0  0
 15 30  1  0  0  0  0
 15 16  1  0  0  0  0
 15 18  1  0  0  0  0
 16 17  1  0  0  0  0
 16 40  1  0  0  0  0
 16 41  1  0  0  0  0
 17 42  1  0  0  0  0
 18 31  1  0  0  0  0
 18 19  1  0  0  0  0
 18 20  1  0  0  0  0
 19 43  1  0  0  0  0
 20 32  1  0  0  0  0
 20 21  1  0  0  0  0
 21 44  1  0  0  0  0
 22 27  1  0  0  0  0
 22 23  2  0  0  0  0
 23 24  1  0  0  0  0
 23 45  1  0  0  0  0
 24 25  2  0  0  0  0
 24 46  1  0  0  0  0
 25 26  1  0  0  0  0
 25 47  1  0  0  0  0
 26 27  2  0  0  0  0
 26 48  1  0  0  0  0
 27 28  1  0  0  0  0
M  END
> <s_m_source_file>
AV-unprocessed.smi

> <i_m_source_file_index>
283

> <i_lp_mmshare_version>
43012

> <i_f3d_flags>
0

> <s_epik_input>
Q2xjMVtjSF1bY0hdW2NIXVtjSF1jMVtDQEhdKFtDSDNdKVtOSF1jKG5bY0hdbjIpYyhjMjMpbltjSF1uM1tDQEBIXTRPW0NASF0oW0NIMl1bT0hdKVtDQEBIXShbT0hdKVtDQEhdNFtPSF0=

> <s_epik_cmdline>
J2VwaWtfcHl0aG9uJywgJy1waCcsICc3LjAnLCAnLXRuJywgJzgnLCAnLW1hJywgJzIwMCcsICctbWV0YWxfYmluZGluZycsICctaW1hZScsICc8aW5maWxlLm1hZT4nLCAnLW9tYWUnLCAnPG91dGZpbGUubWFlPic=

> <r_lp_tautomer_probability>
1

> <r_epik_Ionization_Penalty>
0.000266407

> <r_epik_Ionization_Penalty_Charging>
0

> <r_epik_Ionization_Penalty_Neutral>
0.000266407

> <r_epik_State_Penalty>
-0

> <r_epik_Charging_Adjusted_Penalty>
0

> <i_epik_Tot_Q>
0

> <i_epik_Tot_abs_Q>
0

> <r_epik_Metal_State_Penalty>
-0

> <b_epik_Metal_Only>
0

> <s_epik_Chemistry_Notes>
This compound contains an acetal/aminal-like group ( X-CH(R)-Y where X, Y are N, S, or O) that may be acid/base labile, releasing an aldehyde.

> <s_lp_Force_Field>
OPLS_2005

> <r_lp_Energy>
38.3642

> <b_lp_Chiralities_Consistent>
1

> <s_lp_Variant>
AV-unprocessed.smi:283-20

> <Gold.Version>
5.8.1

> <Gold.Id.Protein>
6NUR|6NUR_protein|mol2

> <Gold.PLP.Fitness>
48.0484

> <Gold.PLP.PLP>
-39.0451

> <Gold.PLP.part.hbond>
-4.0000

> <Gold.PLP.part.metal>
0.0000

> <Gold.PLP.part.buried>
-6.4654

> <Gold.PLP.part.nonpolar>
-30.0527

> <Gold.PLP.part.repulsive>
0.1086

> <Gold.PLP.ligand.clash>
0.0000

> <Gold.PLP.ligand.torsion>
1.0168

> <Gold.PLP.Chemscore.Hbond>
3.6407

> <Gold.PLP.Chemscore.CHOScore>
0.0000

> <Gold.PLP.Chemscore.Metal>
0.0000

> <Gold.Chemscore.Hbonds>
donor molecule, donor type, donor heavy atom, donor atom, acceptor molecule, acceptor atom, score
      P1  H  6896  6908       L1     7  0.70
      P1  H  6896  6909       L1    21  1.00
      P1  H  7997  8009       L1    10  1.00
      P1  H 10752 10763       L1    14  1.00

> <Gold.PLP.Chemscore.Internal.Correction>
0.1148

> <Gold.Rescore>
     Score         DG    S(hbond)    S(metal)    S(lipo)     H(rot)  DE(clash)    DE(int)     intcor
     14.12     -17.01       3.13        0.00      98.82       4.10       0.05       2.83       ----

> <Gold.Chemscore.Fitness>
14.1189

> <Gold.Chemscore.DG>
-17.0052

> <Gold.Chemscore.ZeroCoef>
-5.4800

> <Gold.Chemscore.Hbond>
3.1290

> <Gold.Chemscore.Metal>
0.0000

> <Gold.Chemscore.Lipo>
98.8223

> <Gold.Chemscore.Internal_Hbond>
0.0000

> <Gold.Chemscore.DEClash>
0.0522

> <Gold.Chemscore.DEInternal>
2.8341

> <Gold.Chemscore.Rot>
4.0968

> <Gold.Chemscore.Internal.Correction>
   9.000000E+99

> <Gold.Chemscore.Hbonds>
donor molecule, donor type, donor heavy atom, donor atom, acceptor molecule, acceptor atom, score
      P1  H  6896  6908       L1     7  0.48
      P1  H  6896  6909       L1    21  0.43
      P1  H  7997  8009       L1    10  0.74
      P1  H 10752 10763       L1    14  0.94

> <Gold.Chemscore.Hbond.Weighted>
-10.4509

> <Gold.Chemscore.Metal.Weighted>
-0.0000

> <Gold.Chemscore.Lipo.Weighted>
-11.5622

> <Gold.Chemscore.Internal_Hbond.Weighted>
0.0000

> <Gold.Chemscore.DEClash.Weighted>
0.0522

> <Gold.Chemscore.DEInternal.Weighted>
2.8341

> <Gold.Chemscore.Rot.Weighted>
10.4879

> <Gold.Chemscore.Internal.Correction.Weighted>
   9.000000E+99

> <Gold.Protein.RotatedTorsions>
[ 6907 6896 6895 6894 ] final -130.46 input  -60.11 | X-H torsion
[ 7974 7965 7964 7962 ] final  150.68 input  175.53 | X-H torsion
[ 8008 7997 7996 7995 ] final  116.81 input   59.86 | X-H torsion
[ 10167 10162 10161 10158 ] final  157.14 input  -65.29 | X-H torsion
[ 10718 10713 10712 10709 ] final   57.83 input   66.30 | X-H torsion
[ 10763 10752 10751 10750 ] final  170.96 input  -60.55 | X-H torsion
[ 11005 11000 10999 10996 ] final -136.72 input  -57.11 | X-H torsion

> <Gold.Protein.ActiveResidues>
 VAL166  LYS551  ARG553  GLY616  TRP617  ASP618  TYR619  PRO620  LYS621  CYS622 
 ASP623  PHE694  ASN695  SER759  ASP760  ASP761  ALA762  ILE779  LEU786  VAL792 
 PHE793  MET794  SER795  GLU796  ALA797  LYS798  CYS799  TRP800  GLU811  SER814 

> <Gold.Protein.RotatedAtoms>
  150.9400  133.6667  159.2792 H   0  0  0  0  0  0  0  0  0  0  0  0  # atno 6907 bound_to 6896
  151.4060  135.0977  159.9580 H   0  0  0  0  0  0  0  0  0  0  0  0  # atno 6908 bound_to 6896
  152.5065  133.8884  159.7436 H   0  0  0  0  0  0  0  0  0  0  0  0  # atno 6909 bound_to 6896
  144.8346  139.6440  143.6043 H   0  0  0  0  0  0  0  0  0  0  0  0  # atno 7974 bound_to 7965
  156.2460  140.2909  156.0581 H   0  0  0  0  0  0  0  0  0  0  0  0  # atno 8008 bound_to 7997
  155.1806  140.0404  157.2898 H   0  0  0  0  0  0  0  0  0  0  0  0  # atno 8009 bound_to 7997
  154.6262  140.2488  155.7496 H   0  0  0  0  0  0  0  0  0  0  0  0  # atno 8010 bound_to 7997
  139.4822  144.4945  151.8260 H   0  0  0  0  0  0  0  0  0  0  0  0  # atno 10167 bound_to 10162
  157.5547  130.8791  149.9017 H   0  0  0  0  0  0  0  0  0  0  0  0  # atno 10718 bound_to 10713
  154.4051  135.2755  155.2072 H   0  0  0  0  0  0  0  0  0  0  0  0  # atno 10763 bound_to 10752
  154.4082  135.6028  153.5940 H   0  0  0  0  0  0  0  0  0  0  0  0  # atno 10764 bound_to 10752
  152.9831  135.5943  154.4324 H   0  0  0  0  0  0  0  0  0  0  0  0  # atno 10765 bound_to 10752
  140.8778  134.1969  157.4610 H   0  0  0  0  0  0  0  0  0  0  0  0  # atno 11005 bound_to 11000
  146.2646  139.6490  142.9338 LP  0  0  0  0  0  0  0  0  0  0  0  0  # atno 17320 bound_to 7965
  145.4821  141.0438  143.2640 LP  0  0  0  0  0  0  0  0  0  0  0  0  # atno 17321 bound_to 7965
  140.4432  144.1958  150.5892 LP  0  0  0  0  0  0  0  0  0  0  0  0  # atno 17342 bound_to 10162
  140.4662  143.2430  151.9152 LP  0  0  0  0  0  0  0  0  0  0  0  0  # atno 17343 bound_to 10162
  156.0607  130.3700  150.0988 LP  0  0  0  0  0  0  0  0  0  0  0  0  # atno 17370 bound_to 10713
  156.9157  130.9666  151.3556 LP  0  0  0  0  0  0  0  0  0  0  0  0  # atno 17371 bound_to 10713
  139.8717  134.9804  156.5073 LP  0  0  0  0  0  0  0  0  0  0  0  0  # atno 17394 bound_to 11000
  140.8497  133.8142  155.9156 LP  0  0  0  0  0  0  0  0  0  0  0  0  # atno 17395 bound_to 11000

$$$$
