AV-unprocessed.smi:629|AV-procd|sdf|3115|dock6
  -GOLD-   22720 0 43D 1   1.00000     0.00000
 Structure written by MMmdl.
 31 32  0  0  0  0  0  0  0  0  1 V2000
  148.5655  136.8083  154.9863 C   0  0  0  0  0  0  0  0  0  0  0  0
  149.7002  137.7012  154.8090 N   0  0  0  0  0  0  0  0  0  0  0  0
  150.9830  137.3148  154.8763 C   0  0  0  0  0  0  0  0  0  0  0  0
  151.3279  136.1519  155.0854 O   0  0  0  0  0  0  0  0  0  0  0  0
  152.0403  138.4013  154.6681 C   0  0  0  0  0  0  0  0  0  0  0  0
  151.8176  139.5466  155.6042 C   0  0  0  0  0  0  0  0  0  0  0  0
  151.0117  140.5527  155.2837 N   0  0  0  0  0  0  0  0  0  0  0  0
  151.0820  141.3942  156.4028 O   0  0  0  0  0  0  0  0  0  0  0  0
  151.9205  140.7824  157.2733 C   0  0  0  0  0  0  0  0  0  0  0  0
  152.2436  141.4610  158.5632 C   0  0  0  0  0  0  0  0  0  0  0  0
  151.4772  142.7828  158.7529 C   0  0  2  0  0  0  0  0  0  0  0  0
  151.8882  143.8445  157.7642 C   0  0  0  0  0  0  0  0  0  0  0  0
  152.2291  144.9911  158.3481 C   0  0  0  0  0  0  0  0  0  0  0  0
  152.1184  144.9274  159.8455 C   0  0  0  0  0  0  0  0  0  0  0  0
  151.7514  143.4532  160.1246 C   0  0  0  0  0  0  0  0  0  0  0  0
  152.4261  139.6383  156.8195 N   0  0  0  0  0  0  0  0  0  0  0  0
  147.6347  137.3678  154.8951 H   0  0  0  0  0  0  0  0  0  0  0  0
  148.5882  136.3426  155.9724 H   0  0  0  0  0  0  0  0  0  0  0  0
  148.5674  136.0229  154.2295 H   0  0  0  0  0  0  0  0  0  0  0  0
  149.4989  138.6755  154.6353 H   0  0  0  0  0  0  0  0  0  0  0  0
  153.0350  137.9849  154.8325 H   0  0  0  0  0  0  0  0  0  0  0  0
  152.0114  138.7522  153.6355 H   0  0  0  0  0  0  0  0  0  0  0  0
  151.9840  140.7692  159.3656 H   0  0  0  0  0  0  0  0  0  0  0  0
  153.3206  141.6203  158.6322 H   0  0  0  0  0  0  0  0  0  0  0  0
  150.4042  142.6118  158.6536 H   0  0  0  0  0  0  0  0  0  0  0  0
  151.8802  143.6700  156.6982 H   0  0  0  0  0  0  0  0  0  0  0  0
  152.5400  145.8865  157.8301 H   0  0  0  0  0  0  0  0  0  0  0  0
  153.0611  145.2080  160.3165 H   0  0  0  0  0  0  0  0  0  0  0  0
  151.3392  145.6092  160.1877 H   0  0  0  0  0  0  0  0  0  0  0  0
  150.8878  143.3751  160.7862 H   0  0  0  0  0  0  0  0  0  0  0  0
  152.5853  142.9664  160.6326 H   0  0  0  0  0  0  0  0  0  0  0  0
  1  2  1  0  0  0  0
  1 17  1  0  0  0  0
  1 18  1  0  0  0  0
  1 19  1  0  0  0  0
  2  3  1  0  0  0  0
  2 20  1  0  0  0  0
  3  4  2  0  0  0  0
  3  5  1  0  0  0  0
  5  6  1  0  0  0  0
  5 21  1  0  0  0  0
  5 22  1  0  0  0  0
  6 16  1  0  0  0  0
  6  7  2  0  0  0  0
  7  8  1  0  0  0  0
  8  9  1  0  0  0  0
  9 10  1  0  0  0  0
  9 16  2  0  0  0  0
 10 11  1  0  0  0  0
 10 23  1  0  0  0  0
 10 24  1  0  0  0  0
 11 15  1  0  0  0  0
 11 12  1  0  0  0  0
 11 25  1  0  0  0  0
 12 13  2  0  0  0  0
 12 26  1  0  0  0  0
 13 14  1  0  0  0  0
 13 27  1  0  0  0  0
 14 15  1  0  0  0  0
 14 28  1  0  0  0  0
 14 29  1  0  0  0  0
 15 30  1  0  0  0  0
 15 31  1  0  0  0  0
M  END
> <s_m_source_file>
AV-unprocessed.smi

> <i_m_source_file_index>
629

> <i_lp_mmshare_version>
43012

> <i_f3d_flags>
0

> <s_epik_input>
W0NIM11bTkhdQyg9TylbQ0gyXWMxbm9jKG4xKVtDSDJdW0NAQEhdMltDSF09W0NIXVtDSDJdW0NIMl0y

> <s_epik_cmdline>
J2VwaWtfcHl0aG9uJywgJy1waCcsICc3LjAnLCAnLXRuJywgJzgnLCAnLW1hJywgJzIwMCcsICctbWV0YWxfYmluZGluZycsICctaW1hZScsICc8aW5maWxlLm1hZT4nLCAnLW9tYWUnLCAnPG91dGZpbGUubWFlPic=

> <r_lp_tautomer_probability>
1

> <r_epik_Ionization_Penalty>
1.02915e-07

> <r_epik_Ionization_Penalty_Charging>
0

> <r_epik_Ionization_Penalty_Neutral>
1.02915e-07

> <r_epik_State_Penalty>
-0

> <r_epik_Charging_Adjusted_Penalty>
0

> <i_epik_Tot_Q>
0

> <i_epik_Tot_abs_Q>
0

> <r_epik_Metal_State_Penalty>
-0

> <b_epik_Metal_Only>
0

> <s_lp_Force_Field>
OPLS_2005

> <r_lp_Energy>
15.6926

> <b_lp_Chiralities_Consistent>
1

> <s_lp_Variant>
AV-unprocessed.smi:629-1

> <Gold.Version>
5.8.1

> <Gold.Id.Protein>
6NUR|6NUR_protein|mol2

> <Gold.PLP.Fitness>
42.5371

> <Gold.PLP.PLP>
-34.5328

> <Gold.PLP.part.hbond>
-3.0000

> <Gold.PLP.part.metal>
0.0000

> <Gold.PLP.part.buried>
-5.1036

> <Gold.PLP.part.nonpolar>
-26.2147

> <Gold.PLP.part.repulsive>
0.2234

> <Gold.PLP.ligand.clash>
0.0000

> <Gold.PLP.ligand.torsion>
0.4243

> <Gold.PLP.Chemscore.Hbond>
2.9440

> <Gold.PLP.Chemscore.CHOScore>
0.0000

> <Gold.PLP.Chemscore.Metal>
0.0000

> <Gold.Chemscore.Hbonds>
donor molecule, donor type, donor heavy atom, donor atom, acceptor molecule, acceptor atom, score
      P1  H  7989  7998       L1     7  0.90
      P1  H  7997  8009       L1    16  1.00
      P1  H 10752 10764       L1     4  1.00

> <Gold.PLP.Chemscore.Internal.Correction>
0.0209

> <Gold.Rescore>
     Score         DG    S(hbond)    S(metal)    S(lipo)     H(rot)  DE(clash)    DE(int)     intcor
     13.93     -15.50       1.61        0.00      80.92       1.89       0.07       1.49       ----

> <Gold.Chemscore.Fitness>
13.9301

> <Gold.Chemscore.DG>
-15.4968

> <Gold.Chemscore.ZeroCoef>
-5.4800

> <Gold.Chemscore.Hbond>
1.6113

> <Gold.Chemscore.Metal>
0.0000

> <Gold.Chemscore.Lipo>
80.9185

> <Gold.Chemscore.Internal_Hbond>
0.0000

> <Gold.Chemscore.DEClash>
0.0719

> <Gold.Chemscore.DEInternal>
1.4948

> <Gold.Chemscore.Rot>
1.8877

> <Gold.Chemscore.Internal.Correction>
   9.000000E+99

> <Gold.Chemscore.Hbonds>
donor molecule, donor type, donor heavy atom, donor atom, acceptor molecule, acceptor atom, score
      P1  H  7989  7998       L1     7  0.20
      P1  H  7997  8009       L1    16  0.19
      P1  H 10752 10764       L1     4  0.98

> <Gold.Chemscore.Hbond.Weighted>
-5.3819

> <Gold.Chemscore.Metal.Weighted>
-0.0000

> <Gold.Chemscore.Lipo.Weighted>
-9.4675

> <Gold.Chemscore.Internal_Hbond.Weighted>
0.0000

> <Gold.Chemscore.DEClash.Weighted>
0.0719

> <Gold.Chemscore.DEInternal.Weighted>
1.4948

> <Gold.Chemscore.Rot.Weighted>
4.8325

> <Gold.Chemscore.Internal.Correction.Weighted>
   9.000000E+99

> <Gold.Protein.RotatedTorsions>
[ 6907 6896 6895 6894 ] final  151.81 input  -60.11 | X-H torsion
[ 7974 7965 7964 7962 ] final   46.24 input  175.53 | X-H torsion
[ 8008 7997 7996 7995 ] final -165.38 input   59.86 | X-H torsion
[ 10167 10162 10161 10158 ] final  173.02 input  -65.29 | X-H torsion
[ 10718 10713 10712 10709 ] final  -57.02 input   66.30 | X-H torsion
[ 10763 10752 10751 10750 ] final  -60.98 input  -60.55 | X-H torsion
[ 11005 11000 10999 10996 ] final  -14.17 input  -57.11 | X-H torsion

> <Gold.Protein.ActiveResidues>
 VAL166  LYS551  ARG553  GLY616  TRP617  ASP618  TYR619  PRO620  LYS621  CYS622 
 ASP623  PHE694  ASN695  SER759  ASP760  ASP761  ALA762  ILE779  LEU786  VAL792 
 PHE793  MET794  SER795  GLU796  ALA797  LYS798  CYS799  TRP800  GLU811  SER814 

> <Gold.Protein.RotatedAtoms>
  152.0954  133.4222  159.4562 H   0  0  0  0  0  0  0  0  0  0  0  0  # atno 6907 bound_to 6896
  150.6863  134.2823  159.4641 H   0  0  0  0  0  0  0  0  0  0  0  0  # atno 6908 bound_to 6896
  152.0678  134.9553  160.0625 H   0  0  0  0  0  0  0  0  0  0  0  0  # atno 6909 bound_to 6896
  146.0407  139.4877  142.9780 H   0  0  0  0  0  0  0  0  0  0  0  0  # atno 7974 bound_to 7965
  155.8490  140.0960  157.1687 H   0  0  0  0  0  0  0  0  0  0  0  0  # atno 8008 bound_to 7997
  154.3984  140.1387  156.3882 H   0  0  0  0  0  0  0  0  0  0  0  0  # atno 8009 bound_to 7997
  155.7982  140.3453  155.5390 H   0  0  0  0  0  0  0  0  0  0  0  0  # atno 8010 bound_to 7997
  139.5095  144.3308  152.0113 H   0  0  0  0  0  0  0  0  0  0  0  0  # atno 10167 bound_to 10162
  156.1243  130.4164  150.0384 H   0  0  0  0  0  0  0  0  0  0  0  0  # atno 10718 bound_to 10713
  154.2776  135.6278  153.5334 H   0  0  0  0  0  0  0  0  0  0  0  0  # atno 10763 bound_to 10752
  152.9870  135.5625  154.5531 H   0  0  0  0  0  0  0  0  0  0  0  0  # atno 10764 bound_to 10752
  154.5115  135.2877  155.1314 H   0  0  0  0  0  0  0  0  0  0  0  0  # atno 10765 bound_to 10752
  140.7837  133.8343  155.9315 H   0  0  0  0  0  0  0  0  0  0  0  0  # atno 11005 bound_to 11000
  145.6889  141.0170  143.1566 LP  0  0  0  0  0  0  0  0  0  0  0  0  # atno 17320 bound_to 7965
  144.7073  139.8509  143.7426 LP  0  0  0  0  0  0  0  0  0  0  0  0  # atno 17321 bound_to 7965
  140.2748  144.3925  150.6139 LP  0  0  0  0  0  0  0  0  0  0  0  0  # atno 17342 bound_to 10162
  140.6062  143.2168  151.6976 LP  0  0  0  0  0  0  0  0  0  0  0  0  # atno 17343 bound_to 10162
  156.8314  130.9393  151.3637 LP  0  0  0  0  0  0  0  0  0  0  0  0  # atno 17370 bound_to 10713
  157.6425  130.8817  149.9476 LP  0  0  0  0  0  0  0  0  0  0  0  0  # atno 17371 bound_to 10713
  140.9458  134.1842  157.4764 LP  0  0  0  0  0  0  0  0  0  0  0  0  # atno 17394 bound_to 11000
  139.8739  134.9890  156.5436 LP  0  0  0  0  0  0  0  0  0  0  0  0  # atno 17395 bound_to 11000

$$$$
