AV-unprocessed.smi:329|AV-procd|sdf|2348|dock8
  -GOLD-   2262022263D 1   1.00000     0.00000
 Structure written by MMmdl.
 18 18  0  0  0  0  0  0  0  0  1 V2000
  148.5433  131.9434  152.5770 N   0  0  0  0  0  0  0  0  0  0  0  0
  147.9164  133.0336  153.0252 C   0  0  0  0  0  0  0  0  0  0  0  0
  147.9993  133.3947  154.1985 O   0  0  0  0  0  0  0  0  0  0  0  0
  147.0811  133.8096  151.9982 C   0  0  0  0  0  0  0  0  0  0  0  0
  145.9533  133.0446  151.4904 N   0  0  0  0  0  0  0  0  0  0  0  0
  144.8210  133.5083  150.8523 C   0  0  0  0  0  0  0  0  0  0  0  0
  144.0486  132.4219  150.5567 C   0  0  0  0  0  0  0  0  0  0  0  0
  142.8037  132.4286  149.9003 N   0  0  0  0  0  0  0  0  0  0  0  0
  144.7994  131.3238  151.0625 C   0  0  0  0  0  0  0  0  0  0  0  0
  145.9381  131.6996  151.6224 N   0  0  0  0  0  0  0  0  0  0  0  0
  149.1083  131.3963  153.2103 H   0  0  0  0  0  0  0  0  0  0  0  0
  148.4531  131.6701  151.6092 H   0  0  0  0  0  0  0  0  0  0  0  0
  146.7151  134.7343  152.4477 H   0  0  0  0  0  0  0  0  0  0  0  0
  147.7142  134.0904  151.1556 H   0  0  0  0  0  0  0  0  0  0  0  0
  144.6660  134.5600  150.6609 H   0  0  0  0  0  0  0  0  0  0  0  0
  142.3722  133.2857  149.5853 H   0  0  0  0  0  0  0  0  0  0  0  0
  142.2618  131.5854  149.7755 H   0  0  0  0  0  0  0  0  0  0  0  0
  144.5528  130.2725  151.0401 H   0  0  0  0  0  0  0  0  0  0  0  0
  1  2  1  0  0  0  0
  1 11  1  0  0  0  0
  1 12  1  0  0  0  0
  2  3  2  0  0  0  0
  2  4  1  0  0  0  0
  4  5  1  0  0  0  0
  4 13  1  0  0  0  0
  4 14  1  0  0  0  0
  5 10  1  0  0  0  0
  5  6  1  0  0  0  0
  6  7  2  0  0  0  0
  6 15  1  0  0  0  0
  7  8  1  0  0  0  0
  7  9  1  0  0  0  0
  8 16  1  0  0  0  0
  8 17  1  0  0  0  0
  9 10  2  0  0  0  0
  9 18  1  0  0  0  0
M  END
> <s_m_source_file>
AV-unprocessed.smi

> <i_m_source_file_index>
329

> <i_lp_mmshare_version>
43012

> <i_f3d_flags>
0

> <s_epik_input>
W05IMl1DKD1PKVtDSDJdbjFbY0hdYyhbTkgyXSlbY0hdbjE=

> <s_epik_cmdline>
J2VwaWtfcHl0aG9uJywgJy1waCcsICc3LjAnLCAnLXRuJywgJzgnLCAnLW1hJywgJzIwMCcsICctbWV0YWxfYmluZGluZycsICctaW1hZScsICc8aW5maWxlLm1hZT4nLCAnLW9tYWUnLCAnPG91dGZpbGUubWFlPic=

> <r_lp_tautomer_probability>
1

> <r_epik_Ionization_Penalty>
9.33273e-05

> <r_epik_Ionization_Penalty_Charging>
0

> <r_epik_Ionization_Penalty_Neutral>
9.33273e-05

> <r_epik_State_Penalty>
-0

> <r_epik_Charging_Adjusted_Penalty>
0

> <i_epik_Tot_Q>
0

> <i_epik_Tot_abs_Q>
0

> <r_epik_Metal_State_Penalty>
-0

> <b_epik_Metal_Only>
0

> <s_lp_Force_Field>
OPLS_2005

> <r_lp_Energy>
3.96238

> <b_lp_Chiralities_Consistent>
1

> <s_lp_Variant>
AV-unprocessed.smi:329-1

> <Gold.Version>
5.8.1

> <Gold.Id.Protein>
6NUR|6NUR_protein|mol2

> <Gold.PLP.Fitness>
28.7113

> <Gold.PLP.PLP>
-20.2896

> <Gold.PLP.part.hbond>
-3.0000

> <Gold.PLP.part.metal>
0.0000

> <Gold.PLP.part.buried>
-4.4121

> <Gold.PLP.part.nonpolar>
-13.4308

> <Gold.PLP.part.repulsive>
0.3269

> <Gold.PLP.ligand.clash>
0.0000

> <Gold.PLP.ligand.torsion>
0.2772

> <Gold.PLP.Chemscore.Hbond>
2.9920

> <Gold.PLP.Chemscore.CHOScore>
0.0000

> <Gold.PLP.Chemscore.Metal>
0.0000

> <Gold.Chemscore.Hbonds>
donor molecule, donor type, donor heavy atom, donor atom, acceptor molecule, acceptor atom, score
      L1  H     1    12       P1 10747  1.00
      L1  H     8    16       P1 10186  1.00
      L1  H     8    17       P1 10952  1.00

> <Gold.PLP.Chemscore.Internal.Correction>
0.0002

> <Gold.Rescore>
     Score         DG    S(hbond)    S(metal)    S(lipo)     H(rot)  DE(clash)    DE(int)     intcor
     13.32     -15.03       2.97        0.00      32.46       1.63       0.00       1.71       ----

> <Gold.Chemscore.Fitness>
13.3168

> <Gold.Chemscore.DG>
-15.0292

> <Gold.Chemscore.ZeroCoef>
-5.4800

> <Gold.Chemscore.Hbond>
2.9693

> <Gold.Chemscore.Metal>
0.0000

> <Gold.Chemscore.Lipo>
32.4606

> <Gold.Chemscore.Internal_Hbond>
0.0000

> <Gold.Chemscore.DEClash>
0.0000

> <Gold.Chemscore.DEInternal>
1.7124

> <Gold.Chemscore.Rot>
1.6274

> <Gold.Chemscore.Internal.Correction>
   9.000000E+99

> <Gold.Chemscore.Hbonds>
donor molecule, donor type, donor heavy atom, donor atom, acceptor molecule, acceptor atom, score
      L1  H     1    12       P1 10747  0.95
      L1  H     8    16       P1 10186  0.95
      L1  H     8    17       P1 10952  0.99

> <Gold.Chemscore.Hbond.Weighted>
-9.9175

> <Gold.Chemscore.Metal.Weighted>
-0.0000

> <Gold.Chemscore.Lipo.Weighted>
-3.7979

> <Gold.Chemscore.Internal_Hbond.Weighted>
0.0000

> <Gold.Chemscore.DEClash.Weighted>
0.0000

> <Gold.Chemscore.DEInternal.Weighted>
1.7124

> <Gold.Chemscore.Rot.Weighted>
4.1662

> <Gold.Chemscore.Internal.Correction.Weighted>
   9.000000E+99

> <Gold.Protein.RotatedTorsions>
[ 6907 6896 6895 6894 ] final  112.81 input  -60.11 | X-H torsion
[ 7974 7965 7964 7962 ] final  -96.72 input  175.53 | X-H torsion
[ 8008 7997 7996 7995 ] final  -50.82 input   59.86 | X-H torsion
[ 10167 10162 10161 10158 ] final   10.30 input  -65.29 | X-H torsion
[ 10718 10713 10712 10709 ] final  -44.51 input   66.30 | X-H torsion
[ 10763 10752 10751 10750 ] final  102.97 input  -60.55 | X-H torsion
[ 11005 11000 10999 10996 ] final  -87.43 input  -57.11 | X-H torsion

> <Gold.Protein.ActiveResidues>
 VAL166  LYS551  ARG553  GLY616  TRP617  ASP618  TYR619  PRO620  LYS621  CYS622 
 ASP623  PHE694  ASN695  SER759  ASP760  ASP761  ALA762  ILE779  LEU786  VAL792 
 PHE793  MET794  SER795  GLU796  ALA797  LYS798  CYS799  TRP800  GLU811  SER814 

> <Gold.Protein.RotatedAtoms>
  152.4896  133.8464  159.7178 H   0  0  0  0  0  0  0  0  0  0  0  0  # atno 6907 bound_to 6896
  150.9013  133.7106  159.2885 H   0  0  0  0  0  0  0  0  0  0  0  0  # atno 6908 bound_to 6896
  151.4546  135.1037  159.9760 H   0  0  0  0  0  0  0  0  0  0  0  0  # atno 6909 bound_to 6896
  145.3432  140.9463  143.2596 H   0  0  0  0  0  0  0  0  0  0  0  0  # atno 7974 bound_to 7965
  154.4070  140.1263  156.4728 H   0  0  0  0  0  0  0  0  0  0  0  0  # atno 8008 bound_to 7997
  155.7162  140.3493  155.4976 H   0  0  0  0  0  0  0  0  0  0  0  0  # atno 8009 bound_to 7997
  155.9255  140.1060  157.1163 H   0  0  0  0  0  0  0  0  0  0  0  0  # atno 8010 bound_to 7997
  140.6202  143.8220  150.7166 H   0  0  0  0  0  0  0  0  0  0  0  0  # atno 10167 bound_to 10162
  156.2378  130.4177  149.8797 H   0  0  0  0  0  0  0  0  0  0  0  0  # atno 10718 bound_to 10713
  153.3465  135.3992  155.1613 H   0  0  0  0  0  0  0  0  0  0  0  0  # atno 10763 bound_to 10752
  154.8654  135.3646  154.5277 H   0  0  0  0  0  0  0  0  0  0  0  0  # atno 10764 bound_to 10752
  153.5726  135.7078  153.5558 H   0  0  0  0  0  0  0  0  0  0  0  0  # atno 10765 bound_to 10752
  141.1617  133.7511  156.9305 H   0  0  0  0  0  0  0  0  0  0  0  0  # atno 11005 bound_to 11000
  144.8774  139.4951  143.6739 LP  0  0  0  0  0  0  0  0  0  0  0  0  # atno 17320 bound_to 7965
  146.2999  139.7393  142.9099 LP  0  0  0  0  0  0  0  0  0  0  0  0  # atno 17321 bound_to 7965
  140.1809  143.4116  152.1934 LP  0  0  0  0  0  0  0  0  0  0  0  0  # atno 17342 bound_to 10162
  139.5432  144.7276  151.4665 LP  0  0  0  0  0  0  0  0  0  0  0  0  # atno 17343 bound_to 10162
  156.6389  130.8696  151.3510 LP  0  0  0  0  0  0  0  0  0  0  0  0  # atno 17370 bound_to 10713
  157.7162  130.9500  150.1264 LP  0  0  0  0  0  0  0  0  0  0  0  0  # atno 17371 bound_to 10713
  140.1389  134.9306  157.2440 LP  0  0  0  0  0  0  0  0  0  0  0  0  # atno 17394 bound_to 11000
  140.2861  134.3294  155.7329 LP  0  0  0  0  0  0  0  0  0  0  0  0  # atno 17395 bound_to 11000

$$$$
