AV-unprocessed.smi:3104|AV-procd|sdf|11817|dock7
  -GOLD-   2272017193D 1   1.00000     0.00000
 Structure written by MMmdl.
 37 38  0  0  0  0  0  0  0  0  2 V2000
  145.8413  143.3592  153.7576 C   0  0  0  0  0  0  0  0  0  0  0  0
  146.9155  142.3295  153.9575 C   0  0  0  0  0  0  0  0  0  0  0  0
  146.9196  140.9751  153.5207 C   0  0  0  0  0  0  0  0  0  0  0  0
  148.0292  140.3338  153.8476 N   0  0  0  0  0  0  0  0  0  0  0  0
  148.7655  141.2448  154.5203 N   0  0  0  0  0  0  0  0  0  0  0  0
  150.0924  140.8802  155.0050 C   0  0  2  0  0  0  0  0  0  0  0  0
  150.3649  139.3914  154.7177 C   0  0  0  0  0  0  0  0  0  0  0  0
  150.2694  141.2612  156.4999 C   0  0  1  0  0  0  0  0  0  0  0  0
  151.2982  140.3735  157.2198 C   0  0  0  0  0  0  0  0  0  0  0  0
  150.6932  142.6755  156.6316 N   0  3  0  0  0  0  0  0  0  0  0  0
  150.6593  143.2090  158.0083 C   0  0  0  0  0  0  0  0  0  0  0  0
  152.0550  143.5112  158.5106 C   0  0  0  0  0  0  0  0  0  0  0  0
  152.3153  144.7628  159.3172 C   0  0  0  0  0  0  0  0  0  0  0  0
  152.8645  144.6420  157.9177 C   0  0  0  0  0  0  0  0  0  0  0  0
  148.1180  142.4626  154.5919 C   0  0  0  0  0  0  0  0  0  0  0  0
  144.9013  142.9083  153.4387 H   0  0  0  0  0  0  0  0  0  0  0  0
  146.1215  144.0889  152.9978 H   0  0  0  0  0  0  0  0  0  0  0  0
  145.6366  143.9109  154.6753 H   0  0  0  0  0  0  0  0  0  0  0  0
  146.1563  140.4445  152.9703 H   0  0  0  0  0  0  0  0  0  0  0  0
  150.8181  141.4527  154.4236 H   0  0  0  0  0  0  0  0  0  0  0  0
  151.4074  139.1309  154.8987 H   0  0  0  0  0  0  0  0  0  0  0  0
  150.1560  139.1508  153.6746 H   0  0  0  0  0  0  0  0  0  0  0  0
  149.7471  138.7419  155.3386 H   0  0  0  0  0  0  0  0  0  0  0  0
  149.3136  141.1288  157.0101 H   0  0  0  0  0  0  0  0  0  0  0  0
  150.9755  139.3334  157.2623 H   0  0  0  0  0  0  0  0  0  0  0  0
  151.4435  140.7011  158.2499 H   0  0  0  0  0  0  0  0  0  0  0  0
  152.2682  140.4036  156.7224 H   0  0  0  0  0  0  0  0  0  0  0  0
  151.6382  142.7607  156.2856 H   0  0  0  0  0  0  0  0  0  0  0  0
  150.0549  144.1155  158.0504 H   0  0  0  0  0  0  0  0  0  0  0  0
  150.1949  142.4756  158.6684 H   0  0  0  0  0  0  0  0  0  0  0  0
  152.6102  142.6315  158.8315 H   0  0  0  0  0  0  0  0  0  0  0  0
  151.4863  145.4507  159.4715 H   0  0  0  0  0  0  0  0  0  0  0  0
  153.0219  144.6924  160.1419 H   0  0  0  0  0  0  0  0  0  0  0  0
  153.9363  144.4895  157.8094 H   0  0  0  0  0  0  0  0  0  0  0  0
  152.4001  145.2498  157.1436 H   0  0  0  0  0  0  0  0  0  0  0  0
  148.5630  143.3182  155.0782 H   0  0  0  0  0  0  0  0  0  0  0  0
  150.0875  143.2398  156.0518 H   0  0  0  0  0  0  0  0  0  0  0  0
  1  2  1  0  0  0  0
  1 16  1  0  0  0  0
  1 17  1  0  0  0  0
  1 18  1  0  0  0  0
  2 15  2  0  0  0  0
  2  3  1  0  0  0  0
  3  4  2  0  0  0  0
  3 19  1  0  0  0  0
  4  5  1  0  0  0  0
  5  6  1  0  0  0  0
  5 15  1  0  0  0  0
  6  7  1  0  0  0  0
  6  8  1  0  0  0  0
  6 20  1  0  0  0  0
  7 21  1  0  0  0  0
  7 22  1  0  0  0  0
  7 23  1  0  0  0  0
  8  9  1  0  0  0  0
  8 10  1  0  0  0  0
  8 24  1  0  0  0  0
  9 25  1  0  0  0  0
  9 26  1  0  0  0  0
  9 27  1  0  0  0  0
 10 11  1  0  0  0  0
 10 28  1  0  0  0  0
 10 37  1  0  0  0  0
 11 12  1  0  0  0  0
 11 29  1  0  0  0  0
 11 30  1  0  0  0  0
 12 14  1  0  0  0  0
 12 13  1  0  0  0  0
 12 31  1  0  0  0  0
 13 14  1  0  0  0  0
 13 32  1  0  0  0  0
 13 33  1  0  0  0  0
 14 34  1  0  0  0  0
 14 35  1  0  0  0  0
 15 36  1  0  0  0  0
M  CHG  1  10   1
M  END
> <s_m_source_file>
AV-unprocessed.smi

> <i_m_source_file_index>
3104

> <i_lp_mmshare_version>
43012

> <i_f3d_flags>
0

> <s_epik_input>
W0NIM11jMVtjSF1ubihbY0hdMSlbQ0BIXShbQ0gzXSlbQ0BIXShbQ0gzXSlbTkhdW0NIMl1bQ0hdMltDSDJdW0NIMl0y

> <s_epik_cmdline>
J2VwaWtfcHl0aG9uJywgJy1waCcsICc3LjAnLCAnLXRuJywgJzgnLCAnLW1hJywgJzIwMCcsICctbWV0YWxfYmluZGluZycsICctaW1hZScsICc8aW5maWxlLm1hZT4nLCAnLW9tYWUnLCAnPG91dGZpbGUubWFlPic=

> <r_lp_tautomer_probability>
1

> <r_epik_Ionization_Penalty>
0.00120445

> <r_epik_Ionization_Penalty_Charging>
0.00118273

> <r_epik_Ionization_Penalty_Neutral>
2.17265e-05

> <r_epik_State_Penalty>
-0

> <r_epik_Charging_Adjusted_Penalty>
0.00118273

> <i_epik_Tot_Q>
1

> <i_epik_Tot_abs_Q>
1

> <r_epik_Metal_State_Penalty>
-0

> <b_epik_Metal_Only>
0

> <s_lp_Force_Field>
OPLS_2005

> <r_lp_Energy>
20.7188

> <b_lp_Chiralities_Consistent>
1

> <s_lp_Variant>
AV-unprocessed.smi:3104-3

> <Gold.Version>
5.8.1

> <Gold.Id.Protein>
6NUR|6NUR_protein|mol2

> <Gold.PLP.Fitness>
44.5004

> <Gold.PLP.PLP>
-37.8127

> <Gold.PLP.part.hbond>
-1.0000

> <Gold.PLP.part.metal>
0.0000

> <Gold.PLP.part.buried>
-0.0509

> <Gold.PLP.part.nonpolar>
-37.5575

> <Gold.PLP.part.repulsive>
0.2273

> <Gold.PLP.ligand.clash>
0.0000

> <Gold.PLP.ligand.torsion>
1.4663

> <Gold.PLP.Chemscore.Hbond>
2.0000

> <Gold.PLP.Chemscore.CHOScore>
1.0000

> <Gold.PLP.Chemscore.Metal>
0.0000

> <Gold.Chemscore.Hbonds>
donor molecule, donor type, donor heavy atom, donor atom, acceptor molecule, acceptor atom, score
      L1  H    10    37       P1  8028  2.00
      L1  C     3    19       P1 10175  1.00

> <Gold.PLP.Chemscore.Internal.Correction>
0.6202

> <Gold.Rescore>
     Score         DG    S(hbond)    S(metal)    S(lipo)     H(rot)  DE(clash)    DE(int)     intcor
     14.42     -17.41       1.00        0.00     106.20       1.49       1.62       1.37       ----

> <Gold.Chemscore.Fitness>
14.4212

> <Gold.Chemscore.DG>
-17.4140

> <Gold.Chemscore.ZeroCoef>
-5.4800

> <Gold.Chemscore.Hbond>
0.9967

> <Gold.Chemscore.Metal>
0.0000

> <Gold.Chemscore.Lipo>
106.2009

> <Gold.Chemscore.Internal_Hbond>
0.0000

> <Gold.Chemscore.DEClash>
1.6200

> <Gold.Chemscore.DEInternal>
1.3729

> <Gold.Chemscore.Rot>
1.4923

> <Gold.Chemscore.Internal.Correction>
   9.000000E+99

> <Gold.Chemscore.Hbonds>
donor molecule, donor type, donor heavy atom, donor atom, acceptor molecule, acceptor atom, score
      L1  H    10    37       P1  8028  0.97

> <Gold.Chemscore.Hbond.Weighted>
-3.3289

> <Gold.Chemscore.Metal.Weighted>
-0.0000

> <Gold.Chemscore.Lipo.Weighted>
-12.4255

> <Gold.Chemscore.Internal_Hbond.Weighted>
0.0000

> <Gold.Chemscore.DEClash.Weighted>
1.6200

> <Gold.Chemscore.DEInternal.Weighted>
1.3729

> <Gold.Chemscore.Rot.Weighted>
3.8204

> <Gold.Chemscore.Internal.Correction.Weighted>
   9.000000E+99

> <Gold.Protein.RotatedTorsions>
[ 6907 6896 6895 6894 ] final -125.36 input  -60.11 | X-H torsion
[ 7974 7965 7964 7962 ] final -144.36 input  175.53 | X-H torsion
[ 8008 7997 7996 7995 ] final   28.76 input   59.86 | X-H torsion
[ 10167 10162 10161 10158 ] final   10.01 input  -65.29 | X-H torsion
[ 10718 10713 10712 10709 ] final  -87.71 input   66.30 | X-H torsion
[ 10763 10752 10751 10750 ] final  -87.02 input  -60.55 | X-H torsion
[ 11005 11000 10999 10996 ] final -100.71 input  -57.11 | X-H torsion

> <Gold.Protein.ActiveResidues>
 VAL166  LYS551  ARG553  GLY616  TRP617  ASP618  TYR619  PRO620  LYS621  CYS622 
 ASP623  PHE694  ASN695  SER759  ASP760  ASP761  ALA762  ILE779  LEU786  VAL792 
 PHE793  MET794  SER795  GLU796  ALA797  LYS798  CYS799  TRP800  GLU811  SER814 

> <Gold.Protein.RotatedAtoms>
  150.8860  133.7307  159.2917 H   0  0  0  0  0  0  0  0  0  0  0  0  # atno 6907 bound_to 6896
  151.4872  135.1054  159.9803 H   0  0  0  0  0  0  0  0  0  0  0  0  # atno 6908 bound_to 6896
  152.4790  133.8162  159.7085 H   0  0  0  0  0  0  0  0  0  0  0  0  # atno 6909 bound_to 6896
  144.8303  140.5719  143.5520 H   0  0  0  0  0  0  0  0  0  0  0  0  # atno 7974 bound_to 7965
  155.0638  140.3193  155.4652 H   0  0  0  0  0  0  0  0  0  0  0  0  # atno 8008 bound_to 7997
  156.2807  140.2124  156.5709 H   0  0  0  0  0  0  0  0  0  0  0  0  # atno 8009 bound_to 7997
  154.7111  140.0498  157.0538 H   0  0  0  0  0  0  0  0  0  0  0  0  # atno 8010 bound_to 7997
  140.6220  143.8184  150.7186 H   0  0  0  0  0  0  0  0  0  0  0  0  # atno 10167 bound_to 10162
  155.9985  130.4810  150.4909 H   0  0  0  0  0  0  0  0  0  0  0  0  # atno 10718 bound_to 10713
  154.6290  135.5428  153.7659 H   0  0  0  0  0  0  0  0  0  0  0  0  # atno 10763 bound_to 10752
  153.0275  135.6431  154.1330 H   0  0  0  0  0  0  0  0  0  0  0  0  # atno 10764 bound_to 10752
  154.1261  135.2917  155.3177 H   0  0  0  0  0  0  0  0  0  0  0  0  # atno 10765 bound_to 10752
  141.1260  133.8420  157.1137 H   0  0  0  0  0  0  0  0  0  0  0  0  # atno 11005 bound_to 11000
  145.4911  139.1488  143.3709 LP  0  0  0  0  0  0  0  0  0  0  0  0  # atno 17320 bound_to 7965
  146.2606  140.5049  142.8855 LP  0  0  0  0  0  0  0  0  0  0  0  0  # atno 17321 bound_to 7965
  140.1776  143.4142  152.1956 LP  0  0  0  0  0  0  0  0  0  0  0  0  # atno 17342 bound_to 10162
  139.5447  144.7288  151.4622 LP  0  0  0  0  0  0  0  0  0  0  0  0  # atno 17343 bound_to 10162
  157.2904  131.0625  151.2137 LP  0  0  0  0  0  0  0  0  0  0  0  0  # atno 17370 bound_to 10713
  157.3152  130.6909  149.6238 LP  0  0  0  0  0  0  0  0  0  0  0  0  # atno 17371 bound_to 10713
  140.0259  134.9924  157.0685 LP  0  0  0  0  0  0  0  0  0  0  0  0  # atno 17394 bound_to 11000
  140.4363  134.1727  155.7171 LP  0  0  0  0  0  0  0  0  0  0  0  0  # atno 17395 bound_to 11000

$$$$
