AV-unprocessed.smi:648|AV-procd|sdf|3170|dock6
  -GOLD-   22720 0 93D 1   1.00000     0.00000
 Structure written by MMmdl.
 46 47  0  0  0  0  0  0  0  0  2 V2000
  145.9155  137.2988  151.7415 C   0  0  0  0  0  0  0  0  0  0  0  0
  145.2546  135.9493  152.0578 C   0  0  2  0  0  0  0  0  0  0  0  0
  145.1813  135.0595  150.8022 C   0  0  0  0  0  0  0  0  0  0  0  0
  144.5198  133.6836  151.0537 C   0  0  0  0  0  0  0  0  0  0  0  0
  144.2628  133.0082  149.6912 C   0  0  0  0  0  0  0  0  0  0  0  0
  145.4683  132.7521  151.8427 C   0  0  0  0  0  0  0  0  0  0  0  0
  143.1498  133.8803  151.7638 C   0  0  0  0  0  0  0  0  0  0  0  0
  143.1392  134.8144  153.0119 C   0  0  1  0  0  0  0  0  0  0  0  0
  141.6798  135.1048  153.4629 C   0  0  0  0  0  0  0  0  0  0  0  0
  140.9577  133.9353  153.7940 O   0  0  0  0  0  0  0  0  0  0  0  0
  143.8800  134.2199  154.1581 N   0  3  0  0  0  0  0  0  0  0  0  0
  144.1070  135.0471  155.3677 C   0  0  0  0  0  0  0  0  0  0  0  0
  145.0885  134.3605  156.3305 C   0  0  0  0  0  0  0  0  0  0  0  0
  144.4617  133.9889  157.5858 N   0  0  0  0  0  0  0  0  0  0  0  0
  143.3101  133.3606  157.8273 C   0  0  0  0  0  0  0  0  0  0  0  0
  143.0515  133.1960  159.1168 N   0  0  0  0  0  0  0  0  0  0  0  0
  144.1646  133.7807  159.6508 C   0  0  0  0  0  0  0  0  0  0  0  0
  145.0406  134.2752  158.7758 N   0  0  0  0  0  0  0  0  0  0  0  0
  143.8470  136.1467  152.6542 C   0  0  0  0  0  0  0  0  0  0  0  0
  145.3425  137.8596  151.0023 H   0  0  0  0  0  0  0  0  0  0  0  0
  146.9220  137.1599  151.3462 H   0  0  0  0  0  0  0  0  0  0  0  0
  145.9972  137.9158  152.6369 H   0  0  0  0  0  0  0  0  0  0  0  0
  145.8855  135.4599  152.7993 H   0  0  0  0  0  0  0  0  0  0  0  0
  144.6180  135.5939  150.0353 H   0  0  0  0  0  0  0  0  0  0  0  0
  146.1818  134.9192  150.3902 H   0  0  0  0  0  0  0  0  0  0  0  0
  143.7933  132.0315  149.8139 H   0  0  0  0  0  0  0  0  0  0  0  0
  145.1913  132.8580  149.1389 H   0  0  0  0  0  0  0  0  0  0  0  0
  143.6056  133.6084  149.0606 H   0  0  0  0  0  0  0  0  0  0  0  0
  144.9911  131.7965  152.0618 H   0  0  0  0  0  0  0  0  0  0  0  0
  145.8018  133.1761  152.7870 H   0  0  0  0  0  0  0  0  0  0  0  0
  146.3701  132.5367  151.2685 H   0  0  0  0  0  0  0  0  0  0  0  0
  142.4748  134.3184  151.0275 H   0  0  0  0  0  0  0  0  0  0  0  0
  142.7024  132.9134  151.9925 H   0  0  0  0  0  0  0  0  0  0  0  0
  141.6603  135.7487  154.3419 H   0  0  0  0  0  0  0  0  0  0  0  0
  141.1337  135.6249  152.6748 H   0  0  0  0  0  0  0  0  0  0  0  0
  141.5685  133.2220  153.9034 H   0  0  0  0  0  0  0  0  0  0  0  0
  143.3724  133.3952  154.4451 H   0  0  0  0  0  0  0  0  0  0  0  0
  144.4951  136.0288  155.0980 H   0  0  0  0  0  0  0  0  0  0  0  0
  143.1670  135.2059  155.8930 H   0  0  0  0  0  0  0  0  0  0  0  0
  145.4837  133.4545  155.8692 H   0  0  0  0  0  0  0  0  0  0  0  0
  145.9454  135.0041  156.5360 H   0  0  0  0  0  0  0  0  0  0  0  0
  142.6470  133.0193  157.0461 H   0  0  0  0  0  0  0  0  0  0  0  0
  144.3323  133.8472  160.7155 H   0  0  0  0  0  0  0  0  0  0  0  0
  143.9062  136.7831  153.5387 H   0  0  0  0  0  0  0  0  0  0  0  0
  143.2538  136.7038  151.9280 H   0  0  0  0  0  0  0  0  0  0  0  0
  144.7843  133.9233  153.8189 H   0  0  0  0  0  0  0  0  0  0  0  0
  1  2  1  0  0  0  0
  1 20  1  0  0  0  0
  1 21  1  0  0  0  0
  1 22  1  0  0  0  0
  2 19  1  0  0  0  0
  2  3  1  0  0  0  0
  2 23  1  0  0  0  0
  3  4  1  0  0  0  0
  3 24  1  0  0  0  0
  3 25  1  0  0  0  0
  4  5  1  0  0  0  0
  4  6  1  0  0  0  0
  4  7  1  0  0  0  0
  5 26  1  0  0  0  0
  5 27  1  0  0  0  0
  5 28  1  0  0  0  0
  6 29  1  0  0  0  0
  6 30  1  0  0  0  0
  6 31  1  0  0  0  0
  7  8  1  0  0  0  0
  7 32  1  0  0  0  0
  7 33  1  0  0  0  0
  8  9  1  0  0  0  0
  8 11  1  0  0  0  0
  8 19  1  0  0  0  0
  9 10  1  0  0  0  0
  9 34  1  0  0  0  0
  9 35  1  0  0  0  0
 10 36  1  0  0  0  0
 11 12  1  0  0  0  0
 11 37  1  0  0  0  0
 11 46  1  0  0  0  0
 12 13  1  0  0  0  0
 12 38  1  0  0  0  0
 12 39  1  0  0  0  0
 13 14  1  0  0  0  0
 13 40  1  0  0  0  0
 13 41  1  0  0  0  0
 14 18  1  0  0  0  0
 14 15  1  0  0  0  0
 15 16  2  0  0  0  0
 15 42  1  0  0  0  0
 16 17  1  0  0  0  0
 17 18  2  0  0  0  0
 17 43  1  0  0  0  0
 19 44  1  0  0  0  0
 19 45  1  0  0  0  0
M  CHG  1  11   1
M  END
> <s_m_source_file>
AV-unprocessed.smi

> <i_m_source_file_index>
648

> <i_lp_mmshare_version>
43012

> <i_f3d_flags>
0

> <s_epik_input>
W0NIM11DMShbQ0gzXSlbQ0gyXVtDQEBIXShbQ0gzXSlbQ0gyXVtDQF0oW0NIMl0xKShbQ0gyXVtPSF0pW05IXVtDSDJdW0NIMl1uMltjSF1uW2NIXW4y

> <s_epik_cmdline>
J2VwaWtfcHl0aG9uJywgJy1waCcsICc3LjAnLCAnLXRuJywgJzgnLCAnLW1hJywgJzIwMCcsICctbWV0YWxfYmluZGluZycsICctaW1hZScsICc8aW5maWxlLm1hZT4nLCAnLW9tYWUnLCAnPG91dGZpbGUubWFlPic=

> <r_lp_tautomer_probability>
1

> <r_epik_Ionization_Penalty>
0.00942316

> <r_epik_Ionization_Penalty_Charging>
0.00942185

> <r_epik_Ionization_Penalty_Neutral>
1.31257e-06

> <r_epik_State_Penalty>
0.00715409

> <r_epik_Charging_Adjusted_Penalty>
0.0165759

> <i_epik_Tot_Q>
1

> <i_epik_Tot_abs_Q>
1

> <r_epik_Metal_State_Penalty>
0.00715563

> <b_epik_Metal_Only>
0

> <s_lp_Force_Field>
OPLS_2005

> <r_lp_Energy>
29.4172

> <b_lp_Chiralities_Consistent>
1

> <s_lp_Variant>
AV-unprocessed.smi:648-1

> <Gold.Version>
5.8.1

> <Gold.Id.Protein>
6NUR|6NUR_protein|mol2

> <Gold.PLP.Fitness>
44.3350

> <Gold.PLP.PLP>
-27.2743

> <Gold.PLP.part.hbond>
-4.0000

> <Gold.PLP.part.metal>
0.0000

> <Gold.PLP.part.buried>
-1.1830

> <Gold.PLP.part.nonpolar>
-23.0632

> <Gold.PLP.part.repulsive>
0.0231

> <Gold.PLP.ligand.clash>
0.0000

> <Gold.PLP.ligand.torsion>
0.5687

> <Gold.PLP.Chemscore.Hbond>
4.2288

> <Gold.PLP.Chemscore.CHOScore>
1.8161

> <Gold.PLP.Chemscore.Metal>
0.0000

> <Gold.Chemscore.Hbonds>
donor molecule, donor type, donor heavy atom, donor atom, acceptor molecule, acceptor atom, score
      L1  H    10    36       P1 10957  1.00
      L1  H    11    37       P1 10957  2.00
      P1  H 10995 11001       L1    10  0.23
      P1  H 11000 11005       L1    10  1.00
      L1  C    15    42       P1 10957  1.00
      L1  C    15    42       P1 11000  0.82

> <Gold.PLP.Chemscore.Internal.Correction>
0.0634

> <Gold.Rescore>
     Score         DG    S(hbond)    S(metal)    S(lipo)     H(rot)  DE(clash)    DE(int)     intcor
     11.43     -12.11       2.21        0.00      62.97       3.17       0.25       0.43       ----

> <Gold.Chemscore.Fitness>
11.4297

> <Gold.Chemscore.DG>
-12.1087

> <Gold.Chemscore.ZeroCoef>
-5.4800

> <Gold.Chemscore.Hbond>
2.2124

> <Gold.Chemscore.Metal>
0.0000

> <Gold.Chemscore.Lipo>
62.9670

> <Gold.Chemscore.Internal_Hbond>
0.0000

> <Gold.Chemscore.DEClash>
0.2497

> <Gold.Chemscore.DEInternal>
0.4294

> <Gold.Chemscore.Rot>
3.1750

> <Gold.Chemscore.Internal.Correction>
   9.000000E+99

> <Gold.Chemscore.Hbonds>
donor molecule, donor type, donor heavy atom, donor atom, acceptor molecule, acceptor atom, score
      L1  H    10    36       P1 10957  0.94
      L1  H    11    37       P1 10957  1.00
      P1  H 10995 11001       L1    10  0.07
      P1  H 11000 11005       L1    10  0.14

> <Gold.Chemscore.Hbond.Weighted>
-7.3895

> <Gold.Chemscore.Metal.Weighted>
-0.0000

> <Gold.Chemscore.Lipo.Weighted>
-7.3671

> <Gold.Chemscore.Internal_Hbond.Weighted>
0.0000

> <Gold.Chemscore.DEClash.Weighted>
0.2497

> <Gold.Chemscore.DEInternal.Weighted>
0.4294

> <Gold.Chemscore.Rot.Weighted>
8.1279

> <Gold.Chemscore.Internal.Correction.Weighted>
   9.000000E+99

> <Gold.Protein.RotatedTorsions>
[ 6907 6896 6895 6894 ] final   62.15 input  -60.11 | X-H torsion
[ 7974 7965 7964 7962 ] final   62.33 input  175.53 | X-H torsion
[ 8008 7997 7996 7995 ] final   57.42 input   59.86 | X-H torsion
[ 10167 10162 10161 10158 ] final -137.75 input  -65.29 | X-H torsion
[ 10718 10713 10712 10709 ] final  -68.07 input   66.30 | X-H torsion
[ 10763 10752 10751 10750 ] final  -79.44 input  -60.55 | X-H torsion
[ 11005 11000 10999 10996 ] final   27.09 input  -57.11 | X-H torsion

> <Gold.Protein.ActiveResidues>
 VAL166  LYS551  ARG553  GLY616  TRP617  ASP618  TYR619  PRO620  LYS621  CYS622 
 ASP623  PHE694  ASN695  SER759  ASP760  ASP761  ALA762  ILE779  LEU786  VAL792 
 PHE793  MET794  SER795  GLU796  ALA797  LYS798  CYS799  TRP800  GLU811  SER814 

> <Gold.Protein.RotatedAtoms>
  152.4148  134.6061  160.0012 H   0  0  0  0  0  0  0  0  0  0  0  0  # atno 6907 bound_to 6896
  151.6228  133.3332  159.3099 H   0  0  0  0  0  0  0  0  0  0  0  0  # atno 6908 bound_to 6896
  150.8037  134.7187  159.6690 H   0  0  0  0  0  0  0  0  0  0  0  0  # atno 6909 bound_to 6896
  145.8745  139.3401  143.0742 H   0  0  0  0  0  0  0  0  0  0  0  0  # atno 7974 bound_to 7965
  155.5334  140.3482  155.4431 H   0  0  0  0  0  0  0  0  0  0  0  0  # atno 8008 bound_to 7997
  156.0702  140.1361  156.9864 H   0  0  0  0  0  0  0  0  0  0  0  0  # atno 8009 bound_to 7997
  154.4524  140.0967  156.6632 H   0  0  0  0  0  0  0  0  0  0  0  0  # atno 8010 bound_to 7997
  139.8546  143.7154  152.2655 H   0  0  0  0  0  0  0  0  0  0  0  0  # atno 10167 bound_to 10162
  156.0524  130.4288  150.1947 H   0  0  0  0  0  0  0  0  0  0  0  0  # atno 10718 bound_to 10713
  154.5386  135.5695  153.6820 H   0  0  0  0  0  0  0  0  0  0  0  0  # atno 10763 bound_to 10752
  152.9957  135.6222  154.2532 H   0  0  0  0  0  0  0  0  0  0  0  0  # atno 10764 bound_to 10752
  154.2462  135.2860  155.2814 H   0  0  0  0  0  0  0  0  0  0  0  0  # atno 10765 bound_to 10752
  140.3301  134.2448  155.7704 H   0  0  0  0  0  0  0  0  0  0  0  0  # atno 11005 bound_to 11000
  145.9097  140.9188  143.0460 LP  0  0  0  0  0  0  0  0  0  0  0  0  # atno 17320 bound_to 7965
  144.6726  140.1143  143.7453 LP  0  0  0  0  0  0  0  0  0  0  0  0  # atno 17321 bound_to 7965
  139.7432  144.7554  151.0620 LP  0  0  0  0  0  0  0  0  0  0  0  0  # atno 17342 bound_to 10162
  140.7783  143.4948  150.9847 LP  0  0  0  0  0  0  0  0  0  0  0  0  # atno 17343 bound_to 10162
  157.0029  130.9927  151.3386 LP  0  0  0  0  0  0  0  0  0  0  0  0  # atno 17370 bound_to 10713
  157.5463  130.8153  149.8090 LP  0  0  0  0  0  0  0  0  0  0  0  0  # atno 17371 bound_to 10713
  141.2065  133.7830  157.0170 LP  0  0  0  0  0  0  0  0  0  0  0  0  # atno 17394 bound_to 11000
  140.0868  134.9616  157.1713 LP  0  0  0  0  0  0  0  0  0  0  0  0  # atno 17395 bound_to 11000

$$$$
