AV-unprocessed.smi:788|AV-procd|sdf|3731|dock9
  -GOLD-   22720 1163D 1   1.00000     0.00000
 Structure written by MMmdl.
 35 36  0  0  0  0  0  0  0  0  1 V2000
  151.2244  137.8593  154.4326 C   0  0  0  0  0  0  0  0  0  0  0  0
  150.3739  139.1399  154.5177 C   0  0  2  0  0  0  0  0  0  0  0  0
  151.0028  140.1364  155.5113 C   0  0  0  0  0  0  0  0  0  0  0  0
  150.1855  141.4314  155.6220 C   0  0  0  0  0  0  0  0  0  0  0  0
  148.7264  141.1357  156.0016 C   0  0  0  0  0  0  0  0  0  0  0  0
  148.0567  140.1513  155.0225 C   0  0  1  0  0  0  0  0  0  0  0  0
  147.7291  140.8194  153.6702 C   0  0  0  0  0  0  0  0  0  0  0  0
  148.8987  138.8517  154.8998 C   0  0  1  0  0  0  0  0  0  0  0  0
  148.2966  137.9222  153.9457 N   0  0  0  0  0  0  0  0  0  0  0  0
  147.0123  137.5303  153.9281 C   0  0  0  0  0  0  0  0  0  0  0  0
  146.1853  137.9266  154.7472 O   0  0  0  0  0  0  0  0  0  0  0  0
  146.6635  136.6646  152.9522 N   0  0  0  0  0  0  0  0  0  0  0  0
  145.4197  136.0461  152.6295 C   0  0  0  0  0  0  0  0  0  0  0  0
  144.3496  136.0107  153.4410 N   0  0  0  0  0  0  0  0  0  0  0  0
  143.2791  135.3382  152.8674 N   0  0  0  0  0  0  0  0  0  0  0  0
  143.5816  134.8882  151.6467 C   0  0  0  0  0  0  0  0  0  0  0  0
  145.2035  135.2442  151.0796 S   0  0  0  0  0  0  0  0  0  0  0  0
  151.2212  137.3188  155.3796 H   0  0  0  0  0  0  0  0  0  0  0  0
  152.2608  138.0941  154.1887 H   0  0  0  0  0  0  0  0  0  0  0  0
  150.8592  137.1816  153.6605 H   0  0  0  0  0  0  0  0  0  0  0  0
  150.3909  139.6004  153.5291 H   0  0  0  0  0  0  0  0  0  0  0  0
  151.0800  139.6732  156.4959 H   0  0  0  0  0  0  0  0  0  0  0  0
  152.0212  140.3766  155.2045 H   0  0  0  0  0  0  0  0  0  0  0  0
  150.6346  142.0871  156.3682 H   0  0  0  0  0  0  0  0  0  0  0  0
  150.2240  141.9737  154.6769 H   0  0  0  0  0  0  0  0  0  0  0  0
  148.7015  140.7118  157.0063 H   0  0  0  0  0  0  0  0  0  0  0  0
  148.1578  142.0649  156.0530 H   0  0  0  0  0  0  0  0  0  0  0  0
  147.0969  139.8777  155.4634 H   0  0  0  0  0  0  0  0  0  0  0  0
  148.6285  141.1006  153.1234 H   0  0  0  0  0  0  0  0  0  0  0  0
  147.1385  141.7238  153.8174 H   0  0  0  0  0  0  0  0  0  0  0  0
  147.1458  140.1600  153.0274 H   0  0  0  0  0  0  0  0  0  0  0  0
  148.9115  138.3688  155.8792 H   0  0  0  0  0  0  0  0  0  0  0  0
  148.9090  137.5477  153.2348 H   0  0  0  0  0  0  0  0  0  0  0  0
  147.4259  136.3970  152.3470 H   0  0  0  0  0  0  0  0  0  0  0  0
  142.8448  134.3429  151.0756 H   0  0  0  0  0  0  0  0  0  0  0  0
  1  2  1  0  0  0  0
  1 18  1  0  0  0  0
  1 19  1  0  0  0  0
  1 20  1  0  0  0  0
  2  8  1  0  0  0  0
  2  3  1  0  0  0  0
  2 21  1  0  0  0  0
  3  4  1  0  0  0  0
  3 22  1  0  0  0  0
  3 23  1  0  0  0  0
  4  5  1  0  0  0  0
  4 24  1  0  0  0  0
  4 25  1  0  0  0  0
  5  6  1  0  0  0  0
  5 26  1  0  0  0  0
  5 27  1  0  0  0  0
  6  7  1  0  0  0  0
  6  8  1  0  0  0  0
  6 28  1  0  0  0  0
  7 29  1  0  0  0  0
  7 30  1  0  0  0  0
  7 31  1  0  0  0  0
  8  9  1  0  0  0  0
  8 32  1  0  0  0  0
  9 10  1  0  0  0  0
  9 33  1  0  0  0  0
 10 11  2  0  0  0  0
 10 12  1  0  0  0  0
 12 13  1  0  0  0  0
 12 34  1  0  0  0  0
 13 17  1  0  0  0  0
 13 14  2  0  0  0  0
 14 15  1  0  0  0  0
 15 16  2  0  0  0  0
 16 17  1  0  0  0  0
 16 35  1  0  0  0  0
M  END
> <s_m_source_file>
AV-unprocessed.smi

> <i_m_source_file_index>
788

> <i_lp_mmshare_version>
43012

> <i_f3d_flags>
0

> <s_epik_input>
W0NIM11bQ0BASF0xW0NIMl1bQ0gyXVtDSDJdW0NAQEhdKFtDSDNdKVtDQEhdMVtOSF1DKD1PKVtOSF1jMm5uW2NIXXMy

> <s_epik_cmdline>
J2VwaWtfcHl0aG9uJywgJy1waCcsICc3LjAnLCAnLXRuJywgJzgnLCAnLW1hJywgJzIwMCcsICctbWV0YWxfYmluZGluZycsICctaW1hZScsICc8aW5maWxlLm1hZT4nLCAnLW9tYWUnLCAnPG91dGZpbGUubWFlPic=

> <r_lp_tautomer_probability>
1

> <r_epik_Ionization_Penalty>
0.000304078

> <r_epik_Ionization_Penalty_Charging>
0

> <r_epik_Ionization_Penalty_Neutral>
0.000304078

> <r_epik_State_Penalty>
-0

> <r_epik_Charging_Adjusted_Penalty>
0

> <i_epik_Tot_Q>
0

> <i_epik_Tot_abs_Q>
0

> <r_epik_Metal_State_Penalty>
0.164801

> <b_epik_Metal_Only>
0

> <s_lp_Force_Field>
OPLS_2005

> <r_lp_Energy>
15.5702

> <b_lp_Chiralities_Consistent>
1

> <s_lp_Variant>
AV-unprocessed.smi:788-1

> <Gold.Version>
5.8.1

> <Gold.Id.Protein>
6NUR|6NUR_protein|mol2

> <Gold.PLP.Fitness>
33.0017

> <Gold.PLP.PLP>
-24.6471

> <Gold.PLP.part.hbond>
-2.0000

> <Gold.PLP.part.metal>
0.0000

> <Gold.PLP.part.buried>
-2.4401

> <Gold.PLP.part.nonpolar>
-21.5551

> <Gold.PLP.part.repulsive>
0.2770

> <Gold.PLP.ligand.clash>
0.0000

> <Gold.PLP.ligand.torsion>
0.1020

> <Gold.PLP.Chemscore.Hbond>
1.8480

> <Gold.PLP.Chemscore.CHOScore>
1.0000

> <Gold.PLP.Chemscore.Metal>
0.0000

> <Gold.Chemscore.Hbonds>
donor molecule, donor type, donor heavy atom, donor atom, acceptor molecule, acceptor atom, score
      L1  H     9    33       P1  7948  0.85
      L1  H    12    34       P1  7948  1.00
      L1  C    16    35       P1 10186  0.99

> <Gold.PLP.Chemscore.Internal.Correction>
0.0145

> <Gold.Rescore>
     Score         DG    S(hbond)    S(metal)    S(lipo)     H(rot)  DE(clash)    DE(int)     intcor
     13.97     -16.54       1.92        0.00      61.68       1.00       0.15       2.42       ----

> <Gold.Chemscore.Fitness>
13.9738

> <Gold.Chemscore.DG>
-16.5449

> <Gold.Chemscore.ZeroCoef>
-5.4800

> <Gold.Chemscore.Hbond>
1.9186

> <Gold.Chemscore.Metal>
0.0000

> <Gold.Chemscore.Lipo>
61.6811

> <Gold.Chemscore.Internal_Hbond>
0.0000

> <Gold.Chemscore.DEClash>
0.1498

> <Gold.Chemscore.DEInternal>
2.4214

> <Gold.Chemscore.Rot>
1.0000

> <Gold.Chemscore.Internal.Correction>
   9.000000E+99

> <Gold.Chemscore.Hbonds>
donor molecule, donor type, donor heavy atom, donor atom, acceptor molecule, acceptor atom, score
      L1  H     9    33       P1  7948  0.85
      L1  H    12    34       P1  7948  0.98

> <Gold.Chemscore.Hbond.Weighted>
-6.4082

> <Gold.Chemscore.Metal.Weighted>
-0.0000

> <Gold.Chemscore.Lipo.Weighted>
-7.2167

> <Gold.Chemscore.Internal_Hbond.Weighted>
0.0000

> <Gold.Chemscore.DEClash.Weighted>
0.1498

> <Gold.Chemscore.DEInternal.Weighted>
2.4214

> <Gold.Chemscore.Rot.Weighted>
2.5600

> <Gold.Chemscore.Internal.Correction.Weighted>
   9.000000E+99

> <Gold.Protein.RotatedTorsions>
[ 6907 6896 6895 6894 ] final   21.52 input  -60.11 | X-H torsion
[ 7974 7965 7964 7962 ] final  139.87 input  175.53 | X-H torsion
[ 8008 7997 7996 7995 ] final  173.01 input   59.86 | X-H torsion
[ 10167 10162 10161 10158 ] final  -93.74 input  -65.29 | X-H torsion
[ 10718 10713 10712 10709 ] final  -78.28 input   66.30 | X-H torsion
[ 10763 10752 10751 10750 ] final  -13.73 input  -60.55 | X-H torsion
[ 11005 11000 10999 10996 ] final -170.33 input  -57.11 | X-H torsion

> <Gold.Protein.ActiveResidues>
 VAL166  LYS551  ARG553  GLY616  TRP617  ASP618  TYR619  PRO620  LYS621  CYS622 
 ASP623  PHE694  ASN695  SER759  ASP760  ASP761  ALA762  ILE779  LEU786  VAL792 
 PHE793  MET794  SER795  GLU796  ALA797  LYS798  CYS799  TRP800  GLU811  SER814 

> <Gold.Protein.RotatedAtoms>
  151.9131  135.0330  160.0515 H   0  0  0  0  0  0  0  0  0  0  0  0  # atno 6907 bound_to 6896
  152.2262  133.5018  159.5198 H   0  0  0  0  0  0  0  0  0  0  0  0  # atno 6908 bound_to 6896
  150.7013  134.1193  159.4071 H   0  0  0  0  0  0  0  0  0  0  0  0  # atno 6909 bound_to 6896
  144.9238  139.5133  143.5650 H   0  0  0  0  0  0  0  0  0  0  0  0  # atno 7974 bound_to 7965
  156.1118  140.1471  156.9328 H   0  0  0  0  0  0  0  0  0  0  0  0  # atno 8008 bound_to 7997
  154.4772  140.0891  156.7333 H   0  0  0  0  0  0  0  0  0  0  0  0  # atno 8009 bound_to 7997
  155.4584  140.3437  155.4312 H   0  0  0  0  0  0  0  0  0  0  0  0  # atno 8010 bound_to 7997
  140.3215  143.3046  152.0041 H   0  0  0  0  0  0  0  0  0  0  0  0  # atno 10167 bound_to 10162
  156.0122  130.4514  150.3473 H   0  0  0  0  0  0  0  0  0  0  0  0  # atno 10718 bound_to 10713
  153.5177  135.7016  153.5747 H   0  0  0  0  0  0  0  0  0  0  0  0  # atno 10763 bound_to 10752
  153.3810  135.3920  155.1856 H   0  0  0  0  0  0  0  0  0  0  0  0  # atno 10764 bound_to 10752
  154.8697  135.3835  154.4663 H   0  0  0  0  0  0  0  0  0  0  0  0  # atno 10765 bound_to 10752
  140.5207  134.5712  157.5047 H   0  0  0  0  0  0  0  0  0  0  0  0  # atno 11005 bound_to 11000
  146.3217  139.8138  142.8940 LP  0  0  0  0  0  0  0  0  0  0  0  0  # atno 17320 bound_to 7965
  145.3252  141.0253  143.3478 LP  0  0  0  0  0  0  0  0  0  0  0  0  # atno 17321 bound_to 7965
  139.4873  144.6307  151.7076 LP  0  0  0  0  0  0  0  0  0  0  0  0  # atno 17342 bound_to 10162
  140.5479  144.0473  150.6114 LP  0  0  0  0  0  0  0  0  0  0  0  0  # atno 17343 bound_to 10162
  157.1567  131.0334  151.2860 LP  0  0  0  0  0  0  0  0  0  0  0  0  # atno 17370 bound_to 10713
  157.4346  130.7510  149.7018 LP  0  0  0  0  0  0  0  0  0  0  0  0  # atno 17371 bound_to 10713
  139.9608  134.7456  156.0242 LP  0  0  0  0  0  0  0  0  0  0  0  0  # atno 17394 bound_to 11000
  141.1336  133.6580  156.3531 LP  0  0  0  0  0  0  0  0  0  0  0  0  # atno 17395 bound_to 11000

$$$$
