AV-unprocessed.smi:1007|AV-procd|sdf|4405|dock3
  -GOLD-   22720 2343D 1   1.00000     0.00000
 Structure written by MMmdl.
 57 59  0  0  0  0  0  0  0  0  3 V2000
  147.0495  137.0736  162.9630 C   0  0  0  0  0  0  0  0  0  0  0  0
  147.4292  137.2822  161.6138 O   0  0  0  0  0  0  0  0  0  0  0  0
  147.0331  136.2172  160.7654 C   0  0  0  0  0  0  0  0  0  0  0  0
  147.9944  136.1525  159.5691 C   0  0  0  0  0  0  0  0  0  0  0  0
  148.4303  137.4982  159.1182 N   0  3  0  0  0  0  0  0  0  0  0  0
  147.4989  138.0941  158.1283 C   0  0  0  0  0  0  0  0  0  0  0  0
  147.9487  139.5246  157.7738 C   0  0  0  0  0  0  0  0  0  0  0  0
  149.3042  139.5856  157.2256 N   0  0  0  0  0  0  0  0  0  0  0  0
  149.3909  139.0293  155.8668 C   0  0  0  0  0  0  0  0  0  0  0  0
  150.8042  138.9327  155.2507 C   0  0  1  0  0  0  0  0  0  0  0  0
  150.7182  139.1396  153.8550 O   0  0  0  0  0  0  0  0  0  0  0  0
  151.8874  139.8413  155.8642 C   0  0  0  0  0  0  0  0  0  0  0  0
  151.3325  141.0981  156.3832 N   0  0  0  0  0  0  0  0  0  0  0  0
  150.4215  141.9454  155.8317 C   0  0  0  0  0  0  0  0  0  0  0  0
  150.2456  142.9803  156.6993 N   0  3  0  0  0  0  0  0  0  0  0  0
  151.0566  142.7914  157.8204 C   0  0  0  0  0  0  0  0  0  0  0  0
  151.2291  143.5662  158.9612 C   0  0  0  0  0  0  0  0  0  0  0  0
  152.1448  143.0946  159.9288 C   0  0  0  0  0  0  0  0  0  0  0  0
  152.3612  143.9204  161.1855 C   0  0  0  0  0  0  0  0  0  0  0  0
  152.8507  141.8787  159.7348 C   0  0  0  0  0  0  0  0  0  0  0  0
  153.8332  141.3816  160.7817 C   0  0  0  0  0  0  0  0  0  0  0  0
  152.6597  141.1037  158.5684 C   0  0  0  0  0  0  0  0  0  0  0  0
  151.7557  141.5846  157.6245 C   0  0  0  0  0  0  0  0  0  0  0  0
  150.2153  138.9751  158.2019 C   0  0  0  0  0  0  0  0  0  0  0  0
  149.8258  137.5363  158.6064 C   0  0  0  0  0  0  0  0  0  0  0  0
  147.3790  137.9160  163.5710 H   0  0  0  0  0  0  0  0  0  0  0  0
  147.5068  136.1690  163.3661 H   0  0  0  0  0  0  0  0  0  0  0  0
  145.9661  136.9917  163.0599 H   0  0  0  0  0  0  0  0  0  0  0  0
  147.0101  135.2747  161.3128 H   0  0  0  0  0  0  0  0  0  0  0  0
  146.0200  136.3997  160.4035 H   0  0  0  0  0  0  0  0  0  0  0  0
  148.8680  135.5460  159.8131 H   0  0  0  0  0  0  0  0  0  0  0  0
  147.4836  135.6401  158.7525 H   0  0  0  0  0  0  0  0  0  0  0  0
  147.4504  137.4677  157.2361 H   0  0  0  0  0  0  0  0  0  0  0  0
  146.4924  138.1282  158.5471 H   0  0  0  0  0  0  0  0  0  0  0  0
  147.2435  139.9721  157.0724 H   0  0  0  0  0  0  0  0  0  0  0  0
  147.8999  140.1425  158.6716 H   0  0  0  0  0  0  0  0  0  0  0  0
  148.9075  138.0543  155.8210 H   0  0  0  0  0  0  0  0  0  0  0  0
  148.8100  139.6592  155.1913 H   0  0  0  0  0  0  0  0  0  0  0  0
  151.1265  137.8992  155.3814 H   0  0  0  0  0  0  0  0  0  0  0  0
  151.0775  138.3820  153.4184 H   0  0  0  0  0  0  0  0  0  0  0  0
  152.3736  139.3455  156.7042 H   0  0  0  0  0  0  0  0  0  0  0  0
  152.6640  140.0798  155.1367 H   0  0  0  0  0  0  0  0  0  0  0  0
  149.9321  141.8226  154.8762 H   0  0  0  0  0  0  0  0  0  0  0  0
  150.6889  144.4912  159.1014 H   0  0  0  0  0  0  0  0  0  0  0  0
  152.1122  143.3397  162.0740 H   0  0  0  0  0  0  0  0  0  0  0  0
  151.7383  144.8155  161.1874 H   0  0  0  0  0  0  0  0  0  0  0  0
  153.4013  144.2391  161.2592 H   0  0  0  0  0  0  0  0  0  0  0  0
  154.3021  140.4454  160.4772 H   0  0  0  0  0  0  0  0  0  0  0  0
  153.3252  141.2063  161.7303 H   0  0  0  0  0  0  0  0  0  0  0  0
  154.6253  142.1133  160.9422 H   0  0  0  0  0  0  0  0  0  0  0  0
  153.1982  140.1797  158.4193 H   0  0  0  0  0  0  0  0  0  0  0  0
  151.2383  138.9761  157.8365 H   0  0  0  0  0  0  0  0  0  0  0  0
  150.2297  139.5943  159.0998 H   0  0  0  0  0  0  0  0  0  0  0  0
  150.5153  137.1913  159.3757 H   0  0  0  0  0  0  0  0  0  0  0  0
  149.9334  136.8508  157.7655 H   0  0  0  0  0  0  0  0  0  0  0  0
  148.3958  138.0978  159.9308 H   0  0  0  0  0  0  0  0  0  0  0  0
  149.6208  143.7590  156.5333 H   0  0  0  0  0  0  0  0  0  0  0  0
  1  2  1  0  0  0  0
  1 26  1  0  0  0  0
  1 27  1  0  0  0  0
  1 28  1  0  0  0  0
  2  3  1  0  0  0  0
  3  4  1  0  0  0  0
  3 29  1  0  0  0  0
  3 30  1  0  0  0  0
  4  5  1  0  0  0  0
  4 31  1  0  0  0  0
  4 32  1  0  0  0  0
  5 25  1  0  0  0  0
  5  6  1  0  0  0  0
  5 56  1  0  0  0  0
  6  7  1  0  0  0  0
  6 33  1  0  0  0  0
  6 34  1  0  0  0  0
  7  8  1  0  0  0  0
  7 35  1  0  0  0  0
  7 36  1  0  0  0  0
  8  9  1  0  0  0  0
  8 24  1  0  0  0  0
  9 10  1  0  0  0  0
  9 37  1  0  0  0  0
  9 38  1  0  0  0  0
 10 11  1  0  0  0  0
 10 12  1  0  0  0  0
 10 39  1  0  0  0  0
 11 40  1  0  0  0  0
 12 13  1  0  0  0  0
 12 41  1  0  0  0  0
 12 42  1  0  0  0  0
 13 23  1  0  0  0  0
 13 14  1  0  0  0  0
 14 15  2  0  0  0  0
 14 43  1  0  0  0  0
 15 16  1  0  0  0  0
 15 57  1  0  0  0  0
 16 23  2  0  0  0  0
 16 17  1  0  0  0  0
 17 18  2  0  0  0  0
 17 44  1  0  0  0  0
 18 19  1  0  0  0  0
 18 20  1  0  0  0  0
 19 45  1  0  0  0  0
 19 46  1  0  0  0  0
 19 47  1  0  0  0  0
 20 21  1  0  0  0  0
 20 22  2  0  0  0  0
 21 48  1  0  0  0  0
 21 49  1  0  0  0  0
 21 50  1  0  0  0  0
 22 23  1  0  0  0  0
 22 51  1  0  0  0  0
 24 25  1  0  0  0  0
 24 52  1  0  0  0  0
 24 53  1  0  0  0  0
 25 54  1  0  0  0  0
 25 55  1  0  0  0  0
M  CHG  1   5   1
M  CHG  1  15   1
M  END
> <s_m_source_file>
AV-unprocessed.smi

> <i_m_source_file_index>
1007

> <i_lp_mmshare_version>
43012

> <i_f3d_flags>
0

> <s_epik_input>
W0NIM11PW0NIMl1bQ0gyXU4xW0NIMl1bQ0gyXU4oW0NIMl1bQ0gyXTEpW0NIMl1bQ0BIXShbT0hdKVtDSDJdbihbY0hdbjIpYyhjMjMpW2NIXWMoW0NIM10pYyhbY0hdMylbQ0gzXQ==

> <s_epik_cmdline>
J2VwaWtfcHl0aG9uJywgJy1waCcsICc3LjAnLCAnLXRuJywgJzgnLCAnLW1hJywgJzIwMCcsICctbWV0YWxfYmluZGluZycsICctaW1hZScsICc8aW5maWxlLm1hZT4nLCAnLW9tYWUnLCAnPG91dGZpbGUubWFlPic=

> <r_epik_Ionization_Penalty>
1.34507

> <r_epik_Ionization_Penalty_Charging>
1.29906

> <r_epik_Ionization_Penalty_Neutral>
0.0460038

> <r_epik_State_Penalty>
2.55679

> <r_epik_Charging_Adjusted_Penalty>
3.85586

> <i_epik_Tot_Q>
2

> <i_epik_Tot_abs_Q>
2

> <r_epik_Metal_State_Penalty>
6.56928

> <b_epik_Metal_Only>
0

> <s_lp_Force_Field>
OPLS_2005

> <r_lp_Energy>
47.3521

> <b_lp_Chiralities_Consistent>
1

> <s_lp_Variant>
AV-unprocessed.smi:1007-8

> <Gold.Version>
5.8.1

> <Gold.Id.Protein>
6NUR|6NUR_protein|mol2

> <Gold.PLP.Fitness>
56.8879

> <Gold.PLP.PLP>
-45.9435

> <Gold.PLP.part.hbond>
-4.9064

> <Gold.PLP.part.metal>
0.0000

> <Gold.PLP.part.buried>
-4.8987

> <Gold.PLP.part.nonpolar>
-36.9160

> <Gold.PLP.part.repulsive>
0.2249

> <Gold.PLP.ligand.clash>
0.0000

> <Gold.PLP.ligand.torsion>
1.8163

> <Gold.PLP.Chemscore.Hbond>
4.7752

> <Gold.PLP.Chemscore.CHOScore>
0.0000

> <Gold.PLP.Chemscore.Metal>
0.0000

> <Gold.Chemscore.Hbonds>
donor molecule, donor type, donor heavy atom, donor atom, acceptor molecule, acceptor atom, score
      L1  H    15    57       P1  8028  1.79
      P1  H  6931  6943       L1     2  0.84
      P1  H  6934  6947       L1     2  0.83
      P1  H  7989  7998       L1    11  1.00

> <Gold.PLP.Chemscore.Internal.Correction>
0.2514

> <Gold.Rescore>
     Score         DG    S(hbond)    S(metal)    S(lipo)     H(rot)  DE(clash)    DE(int)     intcor
     18.97     -22.15       2.89        0.00     117.91       2.64       0.07       3.12       ----

> <Gold.Chemscore.Fitness>
18.9682

> <Gold.Chemscore.DG>
-22.1539

> <Gold.Chemscore.ZeroCoef>
-5.4800

> <Gold.Chemscore.Hbond>
2.8879

> <Gold.Chemscore.Metal>
0.0000

> <Gold.Chemscore.Lipo>
117.9056

> <Gold.Chemscore.Internal_Hbond>
0.0000

> <Gold.Chemscore.DEClash>
0.0699

> <Gold.Chemscore.DEInternal>
3.1157

> <Gold.Chemscore.Rot>
2.6432

> <Gold.Chemscore.Internal.Correction>
   9.000000E+99

> <Gold.Chemscore.Hbonds>
donor molecule, donor type, donor heavy atom, donor atom, acceptor molecule, acceptor atom, score
      L1  H    15    57       P1  8028  0.83
      P1  H  6931  6943       L1     2  0.19
      P1  H  6934  6947       L1     2  0.71
      P1  H  7989  7998       L1    11  0.51

> <Gold.Chemscore.Hbond.Weighted>
-9.6455

> <Gold.Chemscore.Metal.Weighted>
-0.0000

> <Gold.Chemscore.Lipo.Weighted>
-13.7950

> <Gold.Chemscore.Internal_Hbond.Weighted>
0.0000

> <Gold.Chemscore.DEClash.Weighted>
0.0699

> <Gold.Chemscore.DEInternal.Weighted>
3.1157

> <Gold.Chemscore.Rot.Weighted>
6.7665

> <Gold.Chemscore.Internal.Correction.Weighted>
   9.000000E+99

> <Gold.Protein.RotatedTorsions>
[ 6907 6896 6895 6894 ] final -176.49 input  -60.11 | X-H torsion
[ 7974 7965 7964 7962 ] final  111.46 input  175.53 | X-H torsion
[ 8008 7997 7996 7995 ] final -114.57 input   59.86 | X-H torsion
[ 10167 10162 10161 10158 ] final   -1.15 input  -65.29 | X-H torsion
[ 10718 10713 10712 10709 ] final  137.10 input   66.30 | X-H torsion
[ 10763 10752 10751 10750 ] final    8.49 input  -60.55 | X-H torsion
[ 11005 11000 10999 10996 ] final -167.14 input  -57.11 | X-H torsion

> <Gold.Protein.ActiveResidues>
 VAL166  LYS551  ARG553  GLY616  TRP617  ASP618  TYR619  PRO620  LYS621  CYS622 
 ASP623  PHE694  ASN695  SER759  ASP760  ASP761  ALA762  ILE779  LEU786  VAL792 
 PHE793  MET794  SER795  GLU796  ALA797  LYS798  CYS799  TRP800  GLU811  SER814 

> <Gold.Protein.RotatedAtoms>
  151.6057  133.3352  159.3056 H   0  0  0  0  0  0  0  0  0  0  0  0  # atno 6907 bound_to 6896
  150.8183  134.7381  159.6761 H   0  0  0  0  0  0  0  0  0  0  0  0  # atno 6908 bound_to 6896
  152.4278  134.5840  160.0007 H   0  0  0  0  0  0  0  0  0  0  0  0  # atno 6909 bound_to 6896
  145.2419  139.2775  143.4113 H   0  0  0  0  0  0  0  0  0  0  0  0  # atno 7974 bound_to 7965
  155.0383  140.0392  157.2500 H   0  0  0  0  0  0  0  0  0  0  0  0  # atno 8008 bound_to 7997
  154.7238  140.2717  155.6494 H   0  0  0  0  0  0  0  0  0  0  0  0  # atno 8009 bound_to 7997
  156.2823  140.2697  156.1917 H   0  0  0  0  0  0  0  0  0  0  0  0  # atno 8010 bound_to 7997
  140.6798  143.6809  150.8106 H   0  0  0  0  0  0  0  0  0  0  0  0  # atno 10167 bound_to 10162
  157.4397  131.1056  151.0157 H   0  0  0  0  0  0  0  0  0  0  0  0  # atno 10718 bound_to 10713
  153.2245  135.6885  153.7961 H   0  0  0  0  0  0  0  0  0  0  0  0  # atno 10763 bound_to 10752
  153.7148  135.3276  155.3255 H   0  0  0  0  0  0  0  0  0  0  0  0  # atno 10764 bound_to 10752
  154.8285  135.4599  154.1106 H   0  0  0  0  0  0  0  0  0  0  0  0  # atno 10765 bound_to 10752
  140.5565  134.5375  157.5134 H   0  0  0  0  0  0  0  0  0  0  0  0  # atno 11005 bound_to 11000
  146.3326  140.2785  142.8609 LP  0  0  0  0  0  0  0  0  0  0  0  0  # atno 17320 bound_to 7965
  144.9581  140.8247  143.5530 LP  0  0  0  0  0  0  0  0  0  0  0  0  # atno 17321 bound_to 7965
  140.0508  143.5252  152.2674 LP  0  0  0  0  0  0  0  0  0  0  0  0  # atno 17342 bound_to 10162
  139.6113  144.7609  151.2946 LP  0  0  0  0  0  0  0  0  0  0  0  0  # atno 17343 bound_to 10162
  157.1025  130.5987  149.5463 LP  0  0  0  0  0  0  0  0  0  0  0  0  # atno 17370 bound_to 10713
  155.9944  130.5008  150.7418 LP  0  0  0  0  0  0  0  0  0  0  0  0  # atno 17371 bound_to 10713
  139.9429  134.7755  156.0634 LP  0  0  0  0  0  0  0  0  0  0  0  0  # atno 17394 bound_to 11000
  141.1140  133.6634  156.3048 LP  0  0  0  0  0  0  0  0  0  0  0  0  # atno 17395 bound_to 11000

$$$$
