AV-unprocessed.smi:781|AV-procd|sdf|3707|dock3
  -GOLD-   22720 1133D 1   1.00000     0.00000
 Structure written by MMmdl.
 38 40  0  0  0  0  0  0  0  0  1 V2000
  152.3755  135.9223  157.2159 C   0  0  0  0  0  0  0  0  0  0  0  0
  151.1707  135.4261  156.4928 C   0  0  0  0  0  0  0  0  0  0  0  0
  150.6573  135.6852  155.2532 C   0  0  0  0  0  0  0  0  0  0  0  0
  149.4928  134.8732  155.2129 C   0  0  0  0  0  0  0  0  0  0  0  0
  148.6588  134.8545  154.0663 N   0  0  0  0  0  0  0  0  0  0  0  0
  147.4676  134.2480  153.9285 C   0  0  0  0  0  0  0  0  0  0  0  0
  146.8977  133.5947  154.8029 O   0  0  0  0  0  0  0  0  0  0  0  0
  146.9631  134.4432  152.7023 N   0  0  0  0  0  0  0  0  0  0  0  0
  145.6825  133.9244  152.2284 C   0  0  2  0  0  0  0  0  0  0  0  0
  145.8467  132.4816  151.7020 C   0  0  1  0  0  0  0  0  0  0  0  0
  144.4548  131.8334  151.5927 C   0  0  0  0  0  0  0  0  0  0  0  0
  143.8479  132.5530  150.3736 C   0  0  0  0  0  0  0  0  0  0  0  0
  144.9659  133.5330  149.9567 C   0  0  2  0  0  0  0  0  0  0  0  0
  146.2058  132.6922  150.2335 C   0  0  0  0  0  0  0  0  0  0  0  0
  145.1512  134.6792  150.9825 C   0  0  1  0  0  0  0  0  0  0  0  0
  143.9124  135.5542  151.2570 C   0  0  0  0  0  0  0  0  0  0  0  0
  144.2752  136.7032  151.9930 O   0  0  0  0  0  0  0  0  0  0  0  0
  149.3108  134.1815  156.3274 N   0  0  0  0  0  0  0  0  0  0  0  0
  150.3851  134.5327  157.1537 O   0  0  0  0  0  0  0  0  0  0  0  0
  153.0617  136.4219  156.5319 H   0  0  0  0  0  0  0  0  0  0  0  0
  152.9113  135.0987  157.6878 H   0  0  0  0  0  0  0  0  0  0  0  0
  152.0939  136.6332  157.9927 H   0  0  0  0  0  0  0  0  0  0  0  0
  151.0532  136.3488  154.4989 H   0  0  0  0  0  0  0  0  0  0  0  0
  149.0076  135.3564  153.2633 H   0  0  0  0  0  0  0  0  0  0  0  0
  147.4987  134.9949  152.0482 H   0  0  0  0  0  0  0  0  0  0  0  0
  144.9649  133.9427  153.0512 H   0  0  0  0  0  0  0  0  0  0  0  0
  146.5561  131.8784  152.2700 H   0  0  0  0  0  0  0  0  0  0  0  0
  144.5381  130.7627  151.4028 H   0  0  0  0  0  0  0  0  0  0  0  0
  143.8590  131.9662  152.4965 H   0  0  0  0  0  0  0  0  0  0  0  0
  143.6554  131.8368  149.5737 H   0  0  0  0  0  0  0  0  0  0  0  0
  142.9015  133.0429  150.5986 H   0  0  0  0  0  0  0  0  0  0  0  0
  144.8777  133.8818  148.9274 H   0  0  0  0  0  0  0  0  0  0  0  0
  147.1413  133.2354  150.0879 H   0  0  0  0  0  0  0  0  0  0  0  0
  146.2402  131.7653  149.6583 H   0  0  0  0  0  0  0  0  0  0  0  0
  145.9356  135.3353  150.5993 H   0  0  0  0  0  0  0  0  0  0  0  0
  143.4084  135.8514  150.3383 H   0  0  0  0  0  0  0  0  0  0  0  0
  143.1844  134.9919  151.8419 H   0  0  0  0  0  0  0  0  0  0  0  0
  144.0532  137.4677  151.4837 H   0  0  0  0  0  0  0  0  0  0  0  0
  1  2  1  0  0  0  0
  1 20  1  0  0  0  0
  1 21  1  0  0  0  0
  1 22  1  0  0  0  0
  2 19  1  0  0  0  0
  2  3  2  0  0  0  0
  3  4  1  0  0  0  0
  3 23  1  0  0  0  0
  4  5  1  0  0  0  0
  4 18  2  0  0  0  0
  5  6  1  0  0  0  0
  5 24  1  0  0  0  0
  6  7  2  0  0  0  0
  6  8  1  0  0  0  0
  8  9  1  0  0  0  0
  8 25  1  0  0  0  0
  9 15  1  0  0  0  0
  9 10  1  0  0  0  0
  9 26  1  0  0  0  0
 10 14  1  0  0  0  0
 10 11  1  0  0  0  0
 10 27  1  0  0  0  0
 11 12  1  0  0  0  0
 11 28  1  0  0  0  0
 11 29  1  0  0  0  0
 12 13  1  0  0  0  0
 12 30  1  0  0  0  0
 12 31  1  0  0  0  0
 13 14  1  0  0  0  0
 13 15  1  0  0  0  0
 13 32  1  0  0  0  0
 14 33  1  0  0  0  0
 14 34  1  0  0  0  0
 15 16  1  0  0  0  0
 15 35  1  0  0  0  0
 16 17  1  0  0  0  0
 16 36  1  0  0  0  0
 16 37  1  0  0  0  0
 17 38  1  0  0  0  0
 18 19  1  0  0  0  0
M  END
> <s_m_source_file>
AV-unprocessed.smi

> <i_m_source_file_index>
781

> <i_lp_mmshare_version>
43012

> <i_f3d_flags>
0

> <s_epik_input>
W0NIM11jMVtjSF1jKG5vMSlbTkhdQyg9TylbTkhdW0NASF0oW0NAQEhdMjMpW0NASF0oW0NIMl1bT0hdKVtDQEBIXShbQ0gyXTMpW0NIMl1bQ0gyXTI=

> <s_epik_cmdline>
J2VwaWtfcHl0aG9uJywgJy1waCcsICc3LjAnLCAnLXRuJywgJzgnLCAnLW1hJywgJzIwMCcsICctbWV0YWxfYmluZGluZycsICctaW1hZScsICc8aW5maWxlLm1hZT4nLCAnLW9tYWUnLCAnPG91dGZpbGUubWFlPic=

> <r_lp_tautomer_probability>
1

> <r_epik_Ionization_Penalty>
2.32222e-05

> <r_epik_Ionization_Penalty_Charging>
0

> <r_epik_Ionization_Penalty_Neutral>
2.32222e-05

> <r_epik_State_Penalty>
-0

> <r_epik_Charging_Adjusted_Penalty>
0

> <i_epik_Tot_Q>
0

> <i_epik_Tot_abs_Q>
0

> <r_epik_Metal_State_Penalty>
-0

> <b_epik_Metal_Only>
0

> <s_lp_Force_Field>
OPLS_2005

> <r_lp_Energy>
47.0606

> <b_lp_Chiralities_Consistent>
1

> <s_lp_Variant>
AV-unprocessed.smi:781-1

> <Gold.Version>
5.8.1

> <Gold.Id.Protein>
6NUR|6NUR_protein|mol2

> <Gold.PLP.Fitness>
37.0341

> <Gold.PLP.PLP>
-28.0501

> <Gold.PLP.part.hbond>
-4.0000

> <Gold.PLP.part.metal>
0.0000

> <Gold.PLP.part.buried>
-1.9747

> <Gold.PLP.part.nonpolar>
-22.7528

> <Gold.PLP.part.repulsive>
0.0485

> <Gold.PLP.ligand.clash>
0.0000

> <Gold.PLP.ligand.torsion>
0.3930

> <Gold.PLP.Chemscore.Hbond>
3.2504

> <Gold.PLP.Chemscore.CHOScore>
0.0000

> <Gold.PLP.Chemscore.Metal>
0.0000

> <Gold.Chemscore.Hbonds>
donor molecule, donor type, donor heavy atom, donor atom, acceptor molecule, acceptor atom, score
      L1  H     5    24       P1  7948  1.00
      L1  H     8    25       P1  7948  0.93
      L1  H    17    38       P1 10171  1.00
      P1  H  6896  6908       L1    19  0.32

> <Gold.PLP.Chemscore.Internal.Correction>
0.0188

> <Gold.Rescore>
     Score         DG    S(hbond)    S(metal)    S(lipo)     H(rot)  DE(clash)    DE(int)     intcor
     18.11     -20.07       3.60        0.00      62.59       1.86       0.28       1.69       ----

> <Gold.Chemscore.Fitness>
18.1076

> <Gold.Chemscore.DG>
-20.0693

> <Gold.Chemscore.ZeroCoef>
-5.4800

> <Gold.Chemscore.Hbond>
3.6002

> <Gold.Chemscore.Metal>
0.0000

> <Gold.Chemscore.Lipo>
62.5889

> <Gold.Chemscore.Internal_Hbond>
0.0000

> <Gold.Chemscore.DEClash>
0.2753

> <Gold.Chemscore.DEInternal>
1.6863

> <Gold.Chemscore.Rot>
1.8587

> <Gold.Chemscore.Internal.Correction>
   9.000000E+99

> <Gold.Chemscore.Hbonds>
donor molecule, donor type, donor heavy atom, donor atom, acceptor molecule, acceptor atom, score
      L1  H     5    24       P1  7948  0.49
      L1  H     8    25       P1  7948  0.81
      L1  H    17    38       P1 10171  0.93
      P1  H  6896  6908       L1    19  0.32

> <Gold.Chemscore.Hbond.Weighted>
-12.0247

> <Gold.Chemscore.Metal.Weighted>
-0.0000

> <Gold.Chemscore.Lipo.Weighted>
-7.3229

> <Gold.Chemscore.Internal_Hbond.Weighted>
0.0000

> <Gold.Chemscore.DEClash.Weighted>
0.2753

> <Gold.Chemscore.DEInternal.Weighted>
1.6863

> <Gold.Chemscore.Rot.Weighted>
4.7583

> <Gold.Chemscore.Internal.Correction.Weighted>
   9.000000E+99

> <Gold.Protein.RotatedTorsions>
[ 6907 6896 6895 6894 ] final  131.68 input  -60.11 | X-H torsion
[ 7974 7965 7964 7962 ] final  -23.39 input  175.53 | X-H torsion
[ 8008 7997 7996 7995 ] final -146.71 input   59.86 | X-H torsion
[ 10167 10162 10161 10158 ] final   42.97 input  -65.29 | X-H torsion
[ 10718 10713 10712 10709 ] final -163.78 input   66.30 | X-H torsion
[ 10763 10752 10751 10750 ] final  -23.79 input  -60.55 | X-H torsion
[ 11005 11000 10999 10996 ] final  145.16 input  -57.11 | X-H torsion

> <Gold.Protein.ActiveResidues>
 VAL166  LYS551  ARG553  GLY616  TRP617  ASP618  TYR619  PRO620  LYS621  CYS622 
 ASP623  PHE694  ASN695  SER759  ASP760  ASP761  ALA762  ILE779  LEU786  VAL792 
 PHE793  MET794  SER795  GLU796  ALA797  LYS798  CYS799  TRP800  GLU811  SER814 

> <Gold.Protein.RotatedAtoms>
  152.3401  133.6057  159.5870 H   0  0  0  0  0  0  0  0  0  0  0  0  # atno 6907 bound_to 6896
  150.7474  133.9735  159.3562 H   0  0  0  0  0  0  0  0  0  0  0  0  # atno 6908 bound_to 6896
  151.7600  135.0813  160.0395 H   0  0  0  0  0  0  0  0  0  0  0  0  # atno 6909 bound_to 6896
  146.1619  140.4610  142.8568 H   0  0  0  0  0  0  0  0  0  0  0  0  # atno 7974 bound_to 7965
  155.5637  140.0628  157.2823 H   0  0  0  0  0  0  0  0  0  0  0  0  # atno 8008 bound_to 7997
  154.4382  140.1881  156.0854 H   0  0  0  0  0  0  0  0  0  0  0  0  # atno 8009 bound_to 7997
  156.0428  140.3293  155.7266 H   0  0  0  0  0  0  0  0  0  0  0  0  # atno 8010 bound_to 7997
  140.3490  144.2374  150.6147 H   0  0  0  0  0  0  0  0  0  0  0  0  # atno 10167 bound_to 10162
  156.6297  130.8924  151.2975 H   0  0  0  0  0  0  0  0  0  0  0  0  # atno 10718 bound_to 10713
  153.6735  135.6970  153.5140 H   0  0  0  0  0  0  0  0  0  0  0  0  # atno 10763 bound_to 10752
  153.2539  135.4266  155.0825 H   0  0  0  0  0  0  0  0  0  0  0  0  # atno 10764 bound_to 10752
  154.8420  135.3538  154.6279 H   0  0  0  0  0  0  0  0  0  0  0  0  # atno 10765 bound_to 10752
  140.0690  134.9162  157.1313 H   0  0  0  0  0  0  0  0  0  0  0  0  # atno 11005 bound_to 11000
  144.8038  140.6262  143.6460 LP  0  0  0  0  0  0  0  0  0  0  0  0  # atno 17320 bound_to 7965
  145.4567  139.1517  143.3888 LP  0  0  0  0  0  0  0  0  0  0  0  0  # atno 17321 bound_to 7965
  140.5237  143.2259  151.8349 LP  0  0  0  0  0  0  0  0  0  0  0  0  # atno 17342 bound_to 10162
  139.4829  144.4806  151.9311 LP  0  0  0  0  0  0  0  0  0  0  0  0  # atno 17343 bound_to 10162
  157.7204  130.9550  150.1415 LP  0  0  0  0  0  0  0  0  0  0  0  0  # atno 17370 bound_to 10713
  156.2245  130.3677  149.8517 LP  0  0  0  0  0  0  0  0  0  0  0  0  # atno 17371 bound_to 10713
  140.3655  134.2447  155.7183 LP  0  0  0  0  0  0  0  0  0  0  0  0  # atno 17394 bound_to 11000
  141.2004  133.7987  157.0489 LP  0  0  0  0  0  0  0  0  0  0  0  0  # atno 17395 bound_to 11000

$$$$
