AV-unprocessed.smi:3266|AV-procd|sdf|12502|dock8
  -GOLD-   2272018403D 1   1.00000     0.00000
 Structure written by MMmdl.
 39 40  0  0  0  0  0  0  0  0  2 V2000
  150.2625  140.3887  155.0589 O   0  0  0  0  0  0  0  0  0  0  0  0
  149.9144  141.4144  155.6450 C   0  0  0  0  0  0  0  0  0  0  0  0
  150.8751  142.1338  156.5963 C   0  0  0  0  0  0  0  0  0  0  0  0
  150.1552  142.8238  157.7698 C   0  0  0  0  0  0  0  0  0  0  0  0
  151.1116  143.2036  158.9098 C   0  0  2  0  0  0  0  0  0  0  0  0
  152.4592  143.7423  158.4294 C   0  0  0  0  0  0  0  0  0  0  0  0
  153.3588  143.4016  159.5946 C   0  0  0  0  0  0  0  0  0  0  0  0
  152.8193  142.0364  160.0076 C   0  0  0  0  0  0  0  0  0  0  0  0
  151.4268  142.0622  159.7053 O   0  0  0  0  0  0  0  0  0  0  0  0
  148.6978  141.9622  155.5013 N   0  0  0  0  0  0  0  0  0  0  0  0
  147.6386  141.4297  154.6523 C   0  0  0  0  0  0  0  0  0  0  0  0
  147.3400  142.3605  153.4647 C   0  0  0  0  0  0  0  0  0  0  0  0
  146.2450  143.3606  153.7801 C   0  0  0  0  0  0  0  0  0  0  0  0
  145.7928  144.3063  152.8343 C   0  0  0  0  0  0  0  0  0  0  0  0
  144.7712  145.2086  153.1977 C   0  0  0  0  0  0  0  0  0  0  0  0
  144.2247  145.1468  154.4965 C   0  0  0  0  0  0  0  0  0  0  0  0
  144.7150  144.1833  155.4014 C   0  0  0  0  0  0  0  0  0  0  0  0
  145.6950  143.3366  155.0160 N   0  3  0  0  0  0  0  0  0  0  0  0
  151.6023  141.4186  156.9843 H   0  0  0  0  0  0  0  0  0  0  0  0
  151.4371  142.8691  156.0195 H   0  0  0  0  0  0  0  0  0  0  0  0
  149.6417  143.7207  157.4201 H   0  0  0  0  0  0  0  0  0  0  0  0
  149.3838  142.1585  158.1608 H   0  0  0  0  0  0  0  0  0  0  0  0
  150.6463  143.9451  159.5612 H   0  0  0  0  0  0  0  0  0  0  0  0
  152.7927  143.2110  157.5367 H   0  0  0  0  0  0  0  0  0  0  0  0
  152.4357  144.8087  158.2037 H   0  0  0  0  0  0  0  0  0  0  0  0
  154.4166  143.3818  159.3309 H   0  0  0  0  0  0  0  0  0  0  0  0
  153.2181  144.1228  160.4010 H   0  0  0  0  0  0  0  0  0  0  0  0
  153.2864  141.2484  159.4154 H   0  0  0  0  0  0  0  0  0  0  0  0
  152.9966  141.8188  161.0609 H   0  0  0  0  0  0  0  0  0  0  0  0
  148.4901  142.8022  156.0224 H   0  0  0  0  0  0  0  0  0  0  0  0
  147.9139  140.4336  154.3011 H   0  0  0  0  0  0  0  0  0  0  0  0
  146.7431  141.3073  155.2623 H   0  0  0  0  0  0  0  0  0  0  0  0
  148.2444  142.8976  153.1755 H   0  0  0  0  0  0  0  0  0  0  0  0
  147.0358  141.7802  152.5924 H   0  0  0  0  0  0  0  0  0  0  0  0
  146.2214  144.3415  151.8432 H   0  0  0  0  0  0  0  0  0  0  0  0
  144.4110  145.9395  152.4882 H   0  0  0  0  0  0  0  0  0  0  0  0
  143.4413  145.8285  154.7942 H   0  0  0  0  0  0  0  0  0  0  0  0
  144.3563  144.0651  156.4135 H   0  0  0  0  0  0  0  0  0  0  0  0
  146.0359  142.6476  155.6873 H   0  0  0  0  0  0  0  0  0  0  0  0
  1  2  2  0  0  0  0
  2  3  1  0  0  0  0
  2 10  1  0  0  0  0
  3  4  1  0  0  0  0
  3 19  1  0  0  0  0
  3 20  1  0  0  0  0
  4  5  1  0  0  0  0
  4 21  1  0  0  0  0
  4 22  1  0  0  0  0
  5  9  1  0  0  0  0
  5  6  1  0  0  0  0
  5 23  1  0  0  0  0
  6  7  1  0  0  0  0
  6 24  1  0  0  0  0
  6 25  1  0  0  0  0
  7  8  1  0  0  0  0
  7 26  1  0  0  0  0
  7 27  1  0  0  0  0
  8  9  1  0  0  0  0
  8 28  1  0  0  0  0
  8 29  1  0  0  0  0
 10 11  1  0  0  0  0
 10 30  1  0  0  0  0
 11 12  1  0  0  0  0
 11 31  1  0  0  0  0
 11 32  1  0  0  0  0
 12 13  1  0  0  0  0
 12 33  1  0  0  0  0
 12 34  1  0  0  0  0
 13 18  1  0  0  0  0
 13 14  2  0  0  0  0
 14 15  1  0  0  0  0
 14 35  1  0  0  0  0
 15 16  2  0  0  0  0
 15 36  1  0  0  0  0
 16 17  1  0  0  0  0
 16 37  1  0  0  0  0
 17 18  2  0  0  0  0
 17 38  1  0  0  0  0
 18 39  1  0  0  0  0
M  CHG  1  18   1
M  END
> <s_m_source_file>
AV-unprocessed.smi

> <i_m_source_file_index>
3266

> <i_lp_mmshare_version>
43012

> <i_f3d_flags>
0

> <s_epik_input>
TzFbQ0gyXVtDSDJdW0NIMl1bQ0BIXTFbQ0gyXVtDSDJdQyg9TylbTkhdW0NIMl1bQ0gyXWMyW2NIXVtjSF1bY0hdW2NIXW4y

> <s_epik_cmdline>
J2VwaWtfcHl0aG9uJywgJy1waCcsICc3LjAnLCAnLXRuJywgJzgnLCAnLW1hJywgJzIwMCcsICctbWV0YWxfYmluZGluZycsICctaW1hZScsICc8aW5maWxlLm1hZT4nLCAnLW9tYWUnLCAnPG91dGZpbGUubWFlPic=

> <r_epik_Ionization_Penalty>
1.8495

> <r_epik_Ionization_Penalty_Charging>
1.8495

> <r_epik_Ionization_Penalty_Neutral>
1.53068e-08

> <r_epik_State_Penalty>
1.96688

> <r_epik_Charging_Adjusted_Penalty>
3.81638

> <i_epik_Tot_Q>
1

> <i_epik_Tot_abs_Q>
1

> <r_epik_Metal_State_Penalty>
1.99263

> <b_epik_Metal_Only>
0

> <s_lp_Force_Field>
OPLS_2005

> <r_lp_Energy>
20.4442

> <b_lp_Chiralities_Consistent>
1

> <s_lp_Variant>
AV-unprocessed.smi:3266-3

> <Gold.Version>
5.8.1

> <Gold.Id.Protein>
6NUR|6NUR_protein|mol2

> <Gold.PLP.Fitness>
43.6287

> <Gold.PLP.PLP>
-41.2466

> <Gold.PLP.part.hbond>
-2.3058

> <Gold.PLP.part.metal>
0.0000

> <Gold.PLP.part.buried>
-6.5358

> <Gold.PLP.part.nonpolar>
-32.6642

> <Gold.PLP.part.repulsive>
0.2238

> <Gold.PLP.ligand.clash>
0.1079

> <Gold.PLP.ligand.torsion>
0.8377

> <Gold.PLP.Chemscore.Hbond>
1.3789

> <Gold.PLP.Chemscore.CHOScore>
0.0000

> <Gold.PLP.Chemscore.Metal>
0.0000

> <Gold.Chemscore.Hbonds>
donor molecule, donor type, donor heavy atom, donor atom, acceptor molecule, acceptor atom, score
      L1  H    10    30       P1  8028  0.64
      P1  H  7989  7998       L1     1  0.76

> <Gold.PLP.Chemscore.Internal.Correction>
0.0287

> <Gold.Rescore>
     Score         DG    S(hbond)    S(metal)    S(lipo)     H(rot)  DE(clash)    DE(int)     intcor
     16.25     -17.32       1.20        0.00     107.04       1.84       0.27       0.80       ----

> <Gold.Chemscore.Fitness>
16.2525

> <Gold.Chemscore.DG>
-17.3151

> <Gold.Chemscore.ZeroCoef>
-5.4800

> <Gold.Chemscore.Hbond>
1.2029

> <Gold.Chemscore.Metal>
0.0000

> <Gold.Chemscore.Lipo>
107.0350

> <Gold.Chemscore.Internal_Hbond>
0.0000

> <Gold.Chemscore.DEClash>
0.2663

> <Gold.Chemscore.DEInternal>
0.7963

> <Gold.Chemscore.Rot>
1.8382

> <Gold.Chemscore.Internal.Correction>
   9.000000E+99

> <Gold.Chemscore.Hbonds>
donor molecule, donor type, donor heavy atom, donor atom, acceptor molecule, acceptor atom, score
      L1  H    10    30       P1  8028  0.61
      P1  H  7989  7998       L1     1  0.53

> <Gold.Chemscore.Hbond.Weighted>
-4.0177

> <Gold.Chemscore.Metal.Weighted>
-0.0000

> <Gold.Chemscore.Lipo.Weighted>
-12.5231

> <Gold.Chemscore.Internal_Hbond.Weighted>
0.0000

> <Gold.Chemscore.DEClash.Weighted>
0.2663

> <Gold.Chemscore.DEInternal.Weighted>
0.7963

> <Gold.Chemscore.Rot.Weighted>
4.7058

> <Gold.Chemscore.Internal.Correction.Weighted>
   9.000000E+99

> <Gold.Protein.RotatedTorsions>
[ 6907 6896 6895 6894 ] final -167.60 input  -60.11 | X-H torsion
[ 7974 7965 7964 7962 ] final -174.43 input  175.53 | X-H torsion
[ 8008 7997 7996 7995 ] final   12.21 input   59.86 | X-H torsion
[ 10167 10162 10161 10158 ] final  -76.50 input  -65.29 | X-H torsion
[ 10718 10713 10712 10709 ] final   33.09 input   66.30 | X-H torsion
[ 10763 10752 10751 10750 ] final -121.95 input  -60.55 | X-H torsion
[ 11005 11000 10999 10996 ] final -117.57 input  -57.11 | X-H torsion

> <Gold.Protein.ActiveResidues>
 VAL166  LYS551  ARG553  GLY616  TRP617  ASP618  TYR619  PRO620  LYS621  CYS622 
 ASP623  PHE694  ASN695  SER759  ASP760  ASP761  ALA762  ILE779  LEU786  VAL792 
 PHE793  MET794  SER795  GLU796  ALA797  LYS798  CYS799  TRP800  GLU811  SER814 

> <Gold.Protein.RotatedAtoms>
  151.4622  133.3590  159.2810 H   0  0  0  0  0  0  0  0  0  0  0  0  # atno 6907 bound_to 6896
  150.9018  134.8432  159.7376 H   0  0  0  0  0  0  0  0  0  0  0  0  # atno 6908 bound_to 6896
  152.4883  134.4543  159.9636 H   0  0  0  0  0  0  0  0  0  0  0  0  # atno 6909 bound_to 6896
  144.7132  140.1473  143.6387 H   0  0  0  0  0  0  0  0  0  0  0  0  # atno 7974 bound_to 7965
  154.8175  140.2878  155.5810 H   0  0  0  0  0  0  0  0  0  0  0  0  # atno 8008 bound_to 7997
  156.2994  140.2556  156.3006 H   0  0  0  0  0  0  0  0  0  0  0  0  # atno 8009 bound_to 7997
  154.9376  140.0382  157.2070 H   0  0  0  0  0  0  0  0  0  0  0  0  # atno 8010 bound_to 7997
  140.4851  143.2393  151.7996 H   0  0  0  0  0  0  0  0  0  0  0  0  # atno 10167 bound_to 10162
  157.2935  130.7314  149.6624 H   0  0  0  0  0  0  0  0  0  0  0  0  # atno 10718 bound_to 10713
  154.8679  135.4150  154.2702 H   0  0  0  0  0  0  0  0  0  0  0  0  # atno 10763 bound_to 10752
  153.3614  135.7003  153.6715 H   0  0  0  0  0  0  0  0  0  0  0  0  # atno 10764 bound_to 10752
  153.5614  135.3609  155.2773 H   0  0  0  0  0  0  0  0  0  0  0  0  # atno 10765 bound_to 10752
  141.0346  133.9930  157.3091 H   0  0  0  0  0  0  0  0  0  0  0  0  # atno 11005 bound_to 11000
  145.9148  139.2509  143.1416 LP  0  0  0  0  0  0  0  0  0  0  0  0  # atno 17320 bound_to 7965
  145.9680  140.8783  143.0177 LP  0  0  0  0  0  0  0  0  0  0  0  0  # atno 17321 bound_to 7965
  139.4840  144.4722  151.9411 LP  0  0  0  0  0  0  0  0  0  0  0  0  # atno 17342 bound_to 10162
  140.3808  144.2739  150.5909 LP  0  0  0  0  0  0  0  0  0  0  0  0  # atno 17343 bound_to 10162
  155.9668  130.4302  150.4864 LP  0  0  0  0  0  0  0  0  0  0  0  0  # atno 17370 bound_to 10713
  157.2831  131.0611  151.2184 LP  0  0  0  0  0  0  0  0  0  0  0  0  # atno 17371 bound_to 10713
  139.9231  135.0201  156.8138 LP  0  0  0  0  0  0  0  0  0  0  0  0  # atno 17394 bound_to 11000
  140.6346  133.9874  155.7678 LP  0  0  0  0  0  0  0  0  0  0  0  0  # atno 17395 bound_to 11000

$$$$
