AV-unprocessed.smi:1909|AV-procd|sdf|7735|dock4
  -GOLD-   22720 9473D 1   1.00000     0.00000
 Structure written by MMmdl.
 40 41  0  0  0  0  0  0  0  0  1 V2000
  146.2519  142.1960  156.8908 C   0  0  0  0  0  0  0  0  0  0  0  0
  147.2306  141.5901  155.9446 C   0  0  0  0  0  0  0  0  0  0  0  0
  148.2371  140.8007  156.3278 N   0  0  0  0  0  0  0  0  0  0  0  0
  149.0191  140.3628  155.2535 C   0  0  0  0  0  0  0  0  0  0  0  0
  150.2060  139.4743  155.4980 C   0  0  0  0  0  0  0  0  0  0  0  0
  151.3404  140.2519  156.1713 C   0  0  0  0  0  0  0  0  0  0  0  0
  152.5102  140.0083  155.8763 O   0  0  0  0  0  0  0  0  0  0  0  0
  150.9810  141.1912  157.0624 N   0  0  0  0  0  0  0  0  0  0  0  0
  151.8901  142.0279  157.8420 C   0  0  0  0  0  0  0  0  0  0  0  0
  151.9070  141.4789  159.2888 C   0  0  0  0  0  0  0  0  0  0  0  0
  152.9931  142.0756  160.2068 C   0  0  0  0  0  0  0  0  0  0  0  0
  152.5059  143.1405  161.2086 C   0  0  0  0  0  0  0  0  0  0  0  0
  151.5180  144.1961  160.6799 C   0  0  0  0  0  0  0  0  0  0  0  0
  152.0534  145.1607  159.6065 C   0  0  0  0  0  0  0  0  0  0  0  0
  152.4540  144.5437  158.2524 C   0  0  0  0  0  0  0  0  0  0  0  0
  151.4666  143.5087  157.6760 C   0  0  0  0  0  0  0  0  0  0  0  0
  148.5754  140.8274  154.0395 C   0  0  0  0  0  0  0  0  0  0  0  0
  147.1703  141.8434  154.2049 S   0  0  0  0  0  0  0  0  0  0  0  0
  146.6134  142.1210  157.9168 H   0  0  0  0  0  0  0  0  0  0  0  0
  145.2949  141.6795  156.8172 H   0  0  0  0  0  0  0  0  0  0  0  0
  146.1024  143.2487  156.6503 H   0  0  0  0  0  0  0  0  0  0  0  0
  149.9264  138.6256  156.1239 H   0  0  0  0  0  0  0  0  0  0  0  0
  150.5750  139.0563  154.5608 H   0  0  0  0  0  0  0  0  0  0  0  0
  149.9943  141.3194  157.2336 H   0  0  0  0  0  0  0  0  0  0  0  0
  152.8973  141.9124  157.4372 H   0  0  0  0  0  0  0  0  0  0  0  0
  150.9212  141.5508  159.7487 H   0  0  0  0  0  0  0  0  0  0  0  0
  152.1044  140.4073  159.2242 H   0  0  0  0  0  0  0  0  0  0  0  0
  153.4246  141.2635  160.7935 H   0  0  0  0  0  0  0  0  0  0  0  0
  153.8300  142.4487  159.6193 H   0  0  0  0  0  0  0  0  0  0  0  0
  152.0168  142.6224  162.0343 H   0  0  0  0  0  0  0  0  0  0  0  0
  153.3708  143.6381  161.6483 H   0  0  0  0  0  0  0  0  0  0  0  0
  150.5996  143.7208  160.3389 H   0  0  0  0  0  0  0  0  0  0  0  0
  151.2075  144.8023  161.5317 H   0  0  0  0  0  0  0  0  0  0  0  0
  151.2766  145.9029  159.4186 H   0  0  0  0  0  0  0  0  0  0  0  0
  152.8994  145.7195  160.0079 H   0  0  0  0  0  0  0  0  0  0  0  0
  152.5360  145.3672  157.5418 H   0  0  0  0  0  0  0  0  0  0  0  0
  153.4608  144.1323  158.2956 H   0  0  0  0  0  0  0  0  0  0  0  0
  151.3934  143.7083  156.6059 H   0  0  0  0  0  0  0  0  0  0  0  0
  150.4588  143.6739  158.0577 H   0  0  0  0  0  0  0  0  0  0  0  0
  148.9923  140.6380  153.0615 H   0  0  0  0  0  0  0  0  0  0  0  0
  1  2  1  0  0  0  0
  1 19  1  0  0  0  0
  1 20  1  0  0  0  0
  1 21  1  0  0  0  0
  2 18  1  0  0  0  0
  2  3  2  0  0  0  0
  3  4  1  0  0  0  0
  4  5  1  0  0  0  0
  4 17  2  0  0  0  0
  5  6  1  0  0  0  0
  5 22  1  0  0  0  0
  5 23  1  0  0  0  0
  6  7  2  0  0  0  0
  6  8  1  0  0  0  0
  8  9  1  0  0  0  0
  8 24  1  0  0  0  0
  9 16  1  0  0  0  0
  9 10  1  0  0  0  0
  9 25  1  0  0  0  0
 10 11  1  0  0  0  0
 10 26  1  0  0  0  0
 10 27  1  0  0  0  0
 11 12  1  0  0  0  0
 11 28  1  0  0  0  0
 11 29  1  0  0  0  0
 12 13  1  0  0  0  0
 12 30  1  0  0  0  0
 12 31  1  0  0  0  0
 13 14  1  0  0  0  0
 13 32  1  0  0  0  0
 13 33  1  0  0  0  0
 14 15  1  0  0  0  0
 14 34  1  0  0  0  0
 14 35  1  0  0  0  0
 15 16  1  0  0  0  0
 15 36  1  0  0  0  0
 15 37  1  0  0  0  0
 16 38  1  0  0  0  0
 16 39  1  0  0  0  0
 17 18  1  0  0  0  0
 17 40  1  0  0  0  0
M  END
> <s_m_source_file>
AV-unprocessed.smi

> <i_m_source_file_index>
1909

> <i_lp_mmshare_version>
43012

> <i_f3d_flags>
0

> <s_epik_input>
W0NIM11jMW5jKFtjSF1zMSlbQ0gyXUMoPU8pW05IXVtDSF0yW0NIMl1bQ0gyXVtDSDJdW0NIMl1bQ0gyXVtDSDJdW0NIMl0y

> <s_epik_cmdline>
J2VwaWtfcHl0aG9uJywgJy1waCcsICc3LjAnLCAnLXRuJywgJzgnLCAnLW1hJywgJzIwMCcsICctbWV0YWxfYmluZGluZycsICctaW1hZScsICc8aW5maWxlLm1hZT4nLCAnLW9tYWUnLCAnPG91dGZpbGUubWFlPic=

> <r_lp_tautomer_probability>
1

> <r_epik_Ionization_Penalty>
6.3061e-05

> <r_epik_Ionization_Penalty_Charging>
0

> <r_epik_Ionization_Penalty_Neutral>
6.3061e-05

> <r_epik_State_Penalty>
-0

> <r_epik_Charging_Adjusted_Penalty>
0

> <i_epik_Tot_Q>
0

> <i_epik_Tot_abs_Q>
0

> <r_epik_Metal_State_Penalty>
-0

> <b_epik_Metal_Only>
0

> <s_lp_Force_Field>
OPLS_2005

> <r_lp_Energy>
17.5912

> <b_lp_Chiralities_Consistent>
1

> <s_lp_Variant>
AV-unprocessed.smi:1909-1

> <Gold.Version>
5.8.1

> <Gold.Id.Protein>
6NUR|6NUR_protein|mol2

> <Gold.PLP.Fitness>
47.0263

> <Gold.PLP.PLP>
-42.1786

> <Gold.PLP.part.hbond>
-1.0000

> <Gold.PLP.part.metal>
0.0000

> <Gold.PLP.part.buried>
-4.4655

> <Gold.PLP.part.nonpolar>
-36.5376

> <Gold.PLP.part.repulsive>
0.1185

> <Gold.PLP.ligand.clash>
0.0000

> <Gold.PLP.ligand.torsion>
0.5888

> <Gold.PLP.Chemscore.Hbond>
1.0000

> <Gold.PLP.Chemscore.CHOScore>
1.0000

> <Gold.PLP.Chemscore.Metal>
0.0000

> <Gold.Chemscore.Hbonds>
donor molecule, donor type, donor heavy atom, donor atom, acceptor molecule, acceptor atom, score
      P1  H  7997  8008       L1     7  1.00
      L1  C    17    40       P1  7957  1.00

> <Gold.PLP.Chemscore.Internal.Correction>
0.0253

> <Gold.Rescore>
     Score         DG    S(hbond)    S(metal)    S(lipo)     H(rot)  DE(clash)    DE(int)     intcor
     19.52     -19.74       1.00        0.00     120.70       1.25       0.09       0.13       ----

> <Gold.Chemscore.Fitness>
19.5152

> <Gold.Chemscore.DG>
-19.7352

> <Gold.Chemscore.ZeroCoef>
-5.4800

> <Gold.Chemscore.Hbond>
0.9985

> <Gold.Chemscore.Metal>
0.0000

> <Gold.Chemscore.Lipo>
120.7031

> <Gold.Chemscore.Internal_Hbond>
0.0000

> <Gold.Chemscore.DEClash>
0.0890

> <Gold.Chemscore.DEInternal>
0.1309

> <Gold.Chemscore.Rot>
1.2508

> <Gold.Chemscore.Internal.Correction>
   9.000000E+99

> <Gold.Chemscore.Hbonds>
donor molecule, donor type, donor heavy atom, donor atom, acceptor molecule, acceptor atom, score
      P1  H  7997  8008       L1     7  1.00

> <Gold.Chemscore.Hbond.Weighted>
-3.3351

> <Gold.Chemscore.Metal.Weighted>
-0.0000

> <Gold.Chemscore.Lipo.Weighted>
-14.1223

> <Gold.Chemscore.Internal_Hbond.Weighted>
0.0000

> <Gold.Chemscore.DEClash.Weighted>
0.0890

> <Gold.Chemscore.DEInternal.Weighted>
0.1309

> <Gold.Chemscore.Rot.Weighted>
3.2022

> <Gold.Chemscore.Internal.Correction.Weighted>
   9.000000E+99

> <Gold.Protein.RotatedTorsions>
[ 6907 6896 6895 6894 ] final  165.39 input  -60.11 | X-H torsion
[ 7974 7965 7964 7962 ] final   23.95 input  175.53 | X-H torsion
[ 8008 7997 7996 7995 ] final  -35.91 input   59.86 | X-H torsion
[ 10167 10162 10161 10158 ] final  -80.62 input  -65.29 | X-H torsion
[ 10718 10713 10712 10709 ] final  -89.75 input   66.30 | X-H torsion
[ 10763 10752 10751 10750 ] final   20.89 input  -60.55 | X-H torsion
[ 11005 11000 10999 10996 ] final  178.11 input  -57.11 | X-H torsion

> <Gold.Protein.ActiveResidues>
 VAL166  LYS551  ARG553  GLY616  TRP617  ASP618  TYR619  PRO620  LYS621  CYS622 
 ASP623  PHE694  ASN695  SER759  ASP760  ASP761  ALA762  ILE779  LEU786  VAL792 
 PHE793  MET794  SER795  GLU796  ALA797  LYS798  CYS799  TRP800  GLU811  SER814 

> <Gold.Protein.RotatedAtoms>
  151.8952  133.3525  159.3811 H   0  0  0  0  0  0  0  0  0  0  0  0  # atno 6907 bound_to 6896
  150.7093  134.4884  159.5513 H   0  0  0  0  0  0  0  0  0  0  0  0  # atno 6908 bound_to 6896
  152.2462  134.8179  160.0504 H   0  0  0  0  0  0  0  0  0  0  0  0  # atno 6909 bound_to 6896
  146.1961  139.7673  142.8796 H   0  0  0  0  0  0  0  0  0  0  0  0  # atno 7974 bound_to 7965
  154.4084  140.1644  156.2289 H   0  0  0  0  0  0  0  0  0  0  0  0  # atno 8008 bound_to 7997
  155.9300  140.3415  155.6218 H   0  0  0  0  0  0  0  0  0  0  0  0  # atno 8009 bound_to 7997
  155.7118  140.0757  157.2358 H   0  0  0  0  0  0  0  0  0  0  0  0  # atno 8010 bound_to 7997
  140.4486  143.2490  151.8522 H   0  0  0  0  0  0  0  0  0  0  0  0  # atno 10167 bound_to 10162
  155.9985  130.4884  150.5218 H   0  0  0  0  0  0  0  0  0  0  0  0  # atno 10718 bound_to 10713
  153.1040  135.6680  153.9620 H   0  0  0  0  0  0  0  0  0  0  0  0  # atno 10763 bound_to 10752
  153.9183  135.3017  155.3449 H   0  0  0  0  0  0  0  0  0  0  0  0  # atno 10764 bound_to 10752
  154.7461  135.5057  153.9282 H   0  0  0  0  0  0  0  0  0  0  0  0  # atno 10765 bound_to 10752
  140.3915  134.6858  157.4510 H   0  0  0  0  0  0  0  0  0  0  0  0  # atno 11005 bound_to 11000
  145.3640  141.0331  143.3269 LP  0  0  0  0  0  0  0  0  0  0  0  0  # atno 17320 bound_to 7965
  144.8583  139.5216  143.6824 LP  0  0  0  0  0  0  0  0  0  0  0  0  # atno 17321 bound_to 7965
  139.4795  144.5146  151.8886 LP  0  0  0  0  0  0  0  0  0  0  0  0  # atno 17342 bound_to 10162
  140.4234  144.2213  150.5887 LP  0  0  0  0  0  0  0  0  0  0  0  0  # atno 17343 bound_to 10162
  157.3179  131.0676  151.1953 LP  0  0  0  0  0  0  0  0  0  0  0  0  # atno 17370 bound_to 10713
  157.2877  130.6781  149.6098 LP  0  0  0  0  0  0  0  0  0  0  0  0  # atno 17371 bound_to 10713
  140.0403  134.6276  155.8989 LP  0  0  0  0  0  0  0  0  0  0  0  0  # atno 17394 bound_to 11000
  141.1889  133.6564  156.5345 LP  0  0  0  0  0  0  0  0  0  0  0  0  # atno 17395 bound_to 11000

$$$$
