AV-unprocessed.smi:2864|AV-procd|sdf|11013|dock9
  -GOLD-   2272015473D 1   1.00000     0.00000
 Structure written by MMmdl.
 37 38  0  0  0  0  0  0  0  0  1 V2000
  151.9051  145.3360  159.7493 C   0  0  0  0  0  0  0  0  0  0  0  0
  152.1546  143.8473  159.6227 C   0  0  0  0  0  0  0  0  0  0  0  0
  152.8913  143.1678  160.6106 C   0  0  0  0  0  0  0  0  0  0  0  0
  153.1113  141.7833  160.4958 C   0  0  0  0  0  0  0  0  0  0  0  0
  152.6016  141.0634  159.3941 C   0  0  0  0  0  0  0  0  0  0  0  0
  152.8507  139.5657  159.3260 C   0  0  0  0  0  0  0  0  0  0  0  0
  151.8681  141.7442  158.3864 C   0  0  0  0  0  0  0  0  0  0  0  0
  151.2916  140.9992  157.1821 C   0  0  2  0  0  0  0  0  0  0  0  0
  152.2926  140.2965  156.4699 O   0  0  0  0  0  0  0  0  0  0  0  0
  150.5908  141.9779  156.2145 C   0  0  0  0  0  0  0  0  0  0  0  0
  149.5013  141.3305  155.4736 N   0  0  0  0  0  0  0  0  0  0  0  0
  148.2440  141.8305  155.7680 N   0  0  0  0  0  0  0  0  0  0  0  0
  147.1807  141.3515  155.2075 C   0  0  0  0  0  0  0  0  0  0  0  0
  145.8561  141.9589  155.5992 C   0  0  0  0  0  0  0  0  0  0  0  0
  144.9951  140.9991  155.9389 F   0  0  0  0  0  0  0  0  0  0  0  0
  145.9954  142.7891  156.6333 F   0  0  0  0  0  0  0  0  0  0  0  0
  145.3447  142.6415  154.5741 F   0  0  0  0  0  0  0  0  0  0  0  0
  147.3164  140.2694  154.2467 C   0  0  0  0  0  0  0  0  0  0  0  0
  148.5432  139.7807  153.9647 C   0  0  0  0  0  0  0  0  0  0  0  0
  149.7468  140.3113  154.6004 C   0  0  0  0  0  0  0  0  0  0  0  0
  150.8757  139.8765  154.3758 O   0  0  0  0  0  0  0  0  0  0  0  0
  151.6439  143.1347  158.5200 C   0  0  0  0  0  0  0  0  0  0  0  0
  152.7291  145.8255  160.2693 H   0  0  0  0  0  0  0  0  0  0  0  0
  150.9883  145.5167  160.3107 H   0  0  0  0  0  0  0  0  0  0  0  0
  151.8038  145.7985  158.7670 H   0  0  0  0  0  0  0  0  0  0  0  0
  153.2853  143.7041  161.4615 H   0  0  0  0  0  0  0  0  0  0  0  0
  153.6729  141.2736  161.2651 H   0  0  0  0  0  0  0  0  0  0  0  0
  151.9161  139.0240  159.1804 H   0  0  0  0  0  0  0  0  0  0  0  0
  153.3047  139.1964  160.2458 H   0  0  0  0  0  0  0  0  0  0  0  0
  153.5242  139.3282  158.5024 H   0  0  0  0  0  0  0  0  0  0  0  0
  150.5852  140.2469  157.5313 H   0  0  0  0  0  0  0  0  0  0  0  0
  152.1013  139.3720  156.5159 H   0  0  0  0  0  0  0  0  0  0  0  0
  150.1453  142.7901  156.7929 H   0  0  0  0  0  0  0  0  0  0  0  0
  151.3095  142.4718  155.5575 H   0  0  0  0  0  0  0  0  0  0  0  0
  146.4406  139.8611  153.7647 H   0  0  0  0  0  0  0  0  0  0  0  0
  148.6398  138.9757  153.2507 H   0  0  0  0  0  0  0  0  0  0  0  0
  151.0714  143.6646  157.7727 H   0  0  0  0  0  0  0  0  0  0  0  0
  1  2  1  0  0  0  0
  1 23  1  0  0  0  0
  1 24  1  0  0  0  0
  1 25  1  0  0  0  0
  2 22  1  0  0  0  0
  2  3  2  0  0  0  0
  3  4  1  0  0  0  0
  3 26  1  0  0  0  0
  4  5  2  0  0  0  0
  4 27  1  0  0  0  0
  5  6  1  0  0  0  0
  5  7  1  0  0  0  0
  6 28  1  0  0  0  0
  6 29  1  0  0  0  0
  6 30  1  0  0  0  0
  7  8  1  0  0  0  0
  7 22  2  0  0  0  0
  8  9  1  0  0  0  0
  8 10  1  0  0  0  0
  8 31  1  0  0  0  0
  9 32  1  0  0  0  0
 10 11  1  0  0  0  0
 10 33  1  0  0  0  0
 10 34  1  0  0  0  0
 11 20  1  0  0  0  0
 11 12  1  0  0  0  0
 12 13  2  0  0  0  0
 13 14  1  0  0  0  0
 13 18  1  0  0  0  0
 14 15  1  0  0  0  0
 14 16  1  0  0  0  0
 14 17  1  0  0  0  0
 18 19  2  0  0  0  0
 18 35  1  0  0  0  0
 19 20  1  0  0  0  0
 19 36  1  0  0  0  0
 20 21  2  0  0  0  0
 22 37  1  0  0  0  0
M  END
> <s_m_source_file>
AV-unprocessed.smi

> <i_m_source_file_index>
2864

> <i_lp_mmshare_version>
43012

> <i_f3d_flags>
0

> <s_epik_input>
W0NIM11jMVtjSF1bY0hdYyhbQ0gzXSljKFtjSF0xKVtDQEhdKFtPSF0pW0NIMl1uMm5jKEMoRikoRilGKVtjSF1bY0hdYzI9Tw==

> <s_epik_cmdline>
J2VwaWtfcHl0aG9uJywgJy1waCcsICc3LjAnLCAnLXRuJywgJzgnLCAnLW1hJywgJzIwMCcsICctbWV0YWxfYmluZGluZycsICctaW1hZScsICc8aW5maWxlLm1hZT4nLCAnLW9tYWUnLCAnPG91dGZpbGUubWFlPic=

> <r_lp_tautomer_probability>
1

> <r_epik_Ionization_Penalty>
5.25156e-08

> <r_epik_Ionization_Penalty_Charging>
3.92872e-09

> <r_epik_Ionization_Penalty_Neutral>
4.85868e-08

> <r_epik_State_Penalty>
-0

> <r_epik_Charging_Adjusted_Penalty>
3.92872e-09

> <i_epik_Tot_Q>
0

> <i_epik_Tot_abs_Q>
0

> <r_epik_Metal_State_Penalty>
-0

> <b_epik_Metal_Only>
0

> <s_lp_Force_Field>
OPLS_2005

> <r_lp_Energy>
30.6225

> <b_lp_Chiralities_Consistent>
1

> <s_lp_Variant>
AV-unprocessed.smi:2864-1

> <Gold.Version>
5.8.1

> <Gold.Id.Protein>
6NUR|6NUR_protein|mol2

> <Gold.PLP.Fitness>
50.9249

> <Gold.PLP.PLP>
-46.1438

> <Gold.PLP.part.hbond>
-2.0000

> <Gold.PLP.part.metal>
0.0000

> <Gold.PLP.part.buried>
-3.5994

> <Gold.PLP.part.nonpolar>
-42.1393

> <Gold.PLP.part.repulsive>
1.4953

> <Gold.PLP.ligand.clash>
0.0000

> <Gold.PLP.ligand.torsion>
0.6144

> <Gold.PLP.Chemscore.Hbond>
2.0000

> <Gold.PLP.Chemscore.CHOScore>
0.0000

> <Gold.PLP.Chemscore.Metal>
0.0000

> <Gold.Chemscore.Hbonds>
donor molecule, donor type, donor heavy atom, donor atom, acceptor molecule, acceptor atom, score
      P1  H  7989  7998       L1    21  0.99
      P1  H  7997  8009       L1     9  0.81

> <Gold.PLP.Chemscore.Internal.Correction>
0.0099

> <Gold.Rescore>
     Score         DG    S(hbond)    S(metal)    S(lipo)     H(rot)  DE(clash)    DE(int)     intcor
     16.33     -18.53       1.57        0.00     111.48       2.05       0.23       1.97       ----

> <Gold.Chemscore.Fitness>
16.3308

> <Gold.Chemscore.DG>
-18.5256

> <Gold.Chemscore.ZeroCoef>
-5.4800

> <Gold.Chemscore.Hbond>
1.5733

> <Gold.Chemscore.Metal>
0.0000

> <Gold.Chemscore.Lipo>
111.4794

> <Gold.Chemscore.Internal_Hbond>
0.0000

> <Gold.Chemscore.DEClash>
0.2278

> <Gold.Chemscore.DEInternal>
1.9670

> <Gold.Chemscore.Rot>
2.0517

> <Gold.Chemscore.Internal.Correction>
   9.000000E+99

> <Gold.Chemscore.Hbonds>
donor molecule, donor type, donor heavy atom, donor atom, acceptor molecule, acceptor atom, score
      P1  H  7989  7998       L1    21  0.65
      P1  H  7997  8009       L1     9  0.13

> <Gold.Chemscore.Hbond.Weighted>
-5.2549

> <Gold.Chemscore.Metal.Weighted>
-0.0000

> <Gold.Chemscore.Lipo.Weighted>
-13.0431

> <Gold.Chemscore.Internal_Hbond.Weighted>
0.0000

> <Gold.Chemscore.DEClash.Weighted>
0.2278

> <Gold.Chemscore.DEInternal.Weighted>
1.9670

> <Gold.Chemscore.Rot.Weighted>
5.2524

> <Gold.Chemscore.Internal.Correction.Weighted>
   9.000000E+99

> <Gold.Protein.RotatedTorsions>
[ 6907 6896 6895 6894 ] final  164.75 input  -60.11 | X-H torsion
[ 7974 7965 7964 7962 ] final   70.73 input  175.53 | X-H torsion
[ 8008 7997 7996 7995 ] final -168.84 input   59.86 | X-H torsion
[ 10167 10162 10161 10158 ] final  -29.91 input  -65.29 | X-H torsion
[ 10718 10713 10712 10709 ] final  177.28 input   66.30 | X-H torsion
[ 10763 10752 10751 10750 ] final  130.79 input  -60.55 | X-H torsion
[ 11005 11000 10999 10996 ] final  108.63 input  -57.11 | X-H torsion

> <Gold.Protein.ActiveResidues>
 VAL166  LYS551  ARG553  GLY616  TRP617  ASP618  TYR619  PRO620  LYS621  CYS622 
 ASP623  PHE694  ASN695  SER759  ASP760  ASP761  ALA762  ILE779  LEU786  VAL792 
 PHE793  MET794  SER795  GLU796  ALA797  LYS798  CYS799  TRP800  GLU811  SER814 

> <Gold.Protein.RotatedAtoms>
  151.9051  133.3547  159.3843 H   0  0  0  0  0  0  0  0  0  0  0  0  # atno 6907 bound_to 6896
  150.7071  134.4789  159.5470 H   0  0  0  0  0  0  0  0  0  0  0  0  # atno 6908 bound_to 6896
  152.2385  134.8252  160.0514 H   0  0  0  0  0  0  0  0  0  0  0  0  # atno 6909 bound_to 6896
  145.7746  139.2859  143.1301 H   0  0  0  0  0  0  0  0  0  0  0  0  # atno 7974 bound_to 7965
  155.8969  140.1034  157.1378 H   0  0  0  0  0  0  0  0  0  0  0  0  # atno 8008 bound_to 7997
  154.4021  140.1300  156.4451 H   0  0  0  0  0  0  0  0  0  0  0  0  # atno 8009 bound_to 7997
  155.7468  140.3466  155.5133 H   0  0  0  0  0  0  0  0  0  0  0  0  # atno 8010 bound_to 7997
  140.7255  143.3890  151.1463 H   0  0  0  0  0  0  0  0  0  0  0  0  # atno 10167 bound_to 10162
  156.9077  130.9899  151.3026 H   0  0  0  0  0  0  0  0  0  0  0  0  # atno 10718 bound_to 10713
  153.7638  135.3192  155.3341 H   0  0  0  0  0  0  0  0  0  0  0  0  # atno 10763 bound_to 10752
  154.8221  135.4596  154.0812 H   0  0  0  0  0  0  0  0  0  0  0  0  # atno 10764 bound_to 10752
  153.2051  135.6928  153.8267 H   0  0  0  0  0  0  0  0  0  0  0  0  # atno 10765 bound_to 10752
  139.8847  134.9436  156.6001 H   0  0  0  0  0  0  0  0  0  0  0  0  # atno 11005 bound_to 11000
  146.0136  140.8413  142.9958 LP  0  0  0  0  0  0  0  0  0  0  0  0  # atno 17320 bound_to 7965
  144.6807  140.2526  143.7329 LP  0  0  0  0  0  0  0  0  0  0  0  0  # atno 17321 bound_to 7965
  139.7492  143.8804  152.3072 LP  0  0  0  0  0  0  0  0  0  0  0  0  # atno 17342 bound_to 10162
  139.8652  144.7097  150.9052 LP  0  0  0  0  0  0  0  0  0  0  0  0  # atno 17343 bound_to 10162
  157.5987  130.8496  149.8769 LP  0  0  0  0  0  0  0  0  0  0  0  0  # atno 17370 bound_to 10713
  156.0551  130.3710  150.1110 LP  0  0  0  0  0  0  0  0  0  0  0  0  # atno 17371 bound_to 10713
  140.7890  133.8598  155.8630 LP  0  0  0  0  0  0  0  0  0  0  0  0  # atno 17394 bound_to 11000
  140.9694  134.1551  157.4589 LP  0  0  0  0  0  0  0  0  0  0  0  0  # atno 17395 bound_to 11000

$$$$
