AV-unprocessed.smi:219|AV-procd|sdf|1678|dock1
  -GOLD-   2262020103D 1   1.00000     0.00000
 Structure written by MMmdl.
 50 53  0  0  0  0  0  0  0  0  1 V2000
  148.3115  131.0904  152.7263 N   0  0  0  0  0  0  0  0  0  0  0  0
  147.9810  132.1088  153.5248 C   0  0  0  0  0  0  0  0  0  0  0  0
  147.9056  131.9853  154.7453 O   0  0  0  0  0  0  0  0  0  0  0  0
  147.6961  133.4593  152.8521 C   0  0  0  0  0  0  0  0  0  0  0  0
  146.2504  133.6404  152.2992 C   0  0  2  0  0  0  0  0  0  0  0  0
  146.1233  132.8670  150.9663 C   0  0  0  0  0  0  0  0  0  0  0  0
  144.7257  133.0062  150.3473 C   0  0  0  0  0  0  0  0  0  0  0  0
  144.3746  134.4881  150.1778 C   0  0  0  0  0  0  0  0  0  0  0  0
  144.5005  135.2191  151.5207 C   0  0  0  0  0  0  0  0  0  0  0  0
  145.8346  135.0434  152.0986 N   0  0  0  0  0  0  0  0  0  0  0  0
  146.0460  135.8862  153.1349 C   0  0  0  0  0  0  0  0  0  0  0  0
  145.9892  135.4238  154.4119 N   0  0  0  0  0  0  0  0  0  0  0  0
  146.2487  136.2489  155.4307 C   0  0  0  0  0  0  0  0  0  0  0  0
  146.5847  137.5405  155.3948 N   0  0  0  0  0  0  0  0  0  0  0  0
  146.6366  138.0046  154.1130 C   0  0  0  0  0  0  0  0  0  0  0  0
  146.3710  137.2532  152.9353 C   0  0  0  0  0  0  0  0  0  0  0  0
  146.5180  138.0550  151.8110 N   0  0  0  0  0  0  0  0  0  0  0  0
  146.8593  139.2171  152.2969 C   0  0  0  0  0  0  0  0  0  0  0  0
  146.9730  139.2711  153.6685 N   0  0  0  0  0  0  0  0  0  0  0  0
  147.3656  140.4211  154.4670 C   0  0  0  0  0  0  0  0  0  0  0  0
  148.8896  140.6855  154.4466 C   0  0  1  0  0  0  0  0  0  0  0  0
  149.2492  141.2413  153.1933 O   0  0  0  0  0  0  0  0  0  0  0  0
  149.3736  141.6272  155.5468 C   0  0  0  0  0  0  0  0  0  0  0  0
  150.7649  141.0970  155.8635 C   0  0  0  0  0  0  0  0  0  0  0  0
  150.5819  139.6941  155.7852 O   0  0  0  0  0  0  0  0  0  0  0  0
  149.7312  139.4142  154.6781 C   0  0  0  0  0  0  0  0  0  0  0  0
  148.5188  130.1874  153.1280 H   0  0  0  0  0  0  0  0  0  0  0  0
  148.3648  131.2282  151.7275 H   0  0  0  0  0  0  0  0  0  0  0  0
  147.9493  134.2836  153.5205 H   0  0  0  0  0  0  0  0  0  0  0  0
  148.4067  133.5221  152.0274 H   0  0  0  0  0  0  0  0  0  0  0  0
  145.5454  133.1929  153.0018 H   0  0  0  0  0  0  0  0  0  0  0  0
  146.8678  133.2346  150.2583 H   0  0  0  0  0  0  0  0  0  0  0  0
  146.3425  131.8101  151.1227 H   0  0  0  0  0  0  0  0  0  0  0  0
  144.6873  132.4971  149.3839 H   0  0  0  0  0  0  0  0  0  0  0  0
  143.9879  132.5221  150.9883 H   0  0  0  0  0  0  0  0  0  0  0  0
  145.0411  134.9455  149.4454 H   0  0  0  0  0  0  0  0  0  0  0  0
  143.3619  134.5925  149.7876 H   0  0  0  0  0  0  0  0  0  0  0  0
  144.2937  136.2812  151.3792 H   0  0  0  0  0  0  0  0  0  0  0  0
  143.7493  134.8374  152.2136 H   0  0  0  0  0  0  0  0  0  0  0  0
  146.1866  135.8090  156.4151 H   0  0  0  0  0  0  0  0  0  0  0  0
  147.0517  140.0692  151.6614 H   0  0  0  0  0  0  0  0  0  0  0  0
  146.8281  141.2930  154.0917 H   0  0  0  0  0  0  0  0  0  0  0  0
  147.0211  140.2664  155.4906 H   0  0  0  0  0  0  0  0  0  0  0  0
  149.2521  140.5505  152.5483 H   0  0  0  0  0  0  0  0  0  0  0  0
  149.3677  142.6806  155.2624 H   0  0  0  0  0  0  0  0  0  0  0  0
  148.7513  141.5201  156.4360 H   0  0  0  0  0  0  0  0  0  0  0  0
  151.4903  141.4186  155.1146 H   0  0  0  0  0  0  0  0  0  0  0  0
  151.1211  141.4037  156.8473 H   0  0  0  0  0  0  0  0  0  0  0  0
  149.1169  138.5434  154.9101 H   0  0  0  0  0  0  0  0  0  0  0  0
  150.3399  139.1610  153.8082 H   0  0  0  0  0  0  0  0  0  0  0  0
  1  2  1  0  0  0  0
  1 27  1  0  0  0  0
  1 28  1  0  0  0  0
  2  3  2  0  0  0  0
  2  4  1  0  0  0  0
  4  5  1  0  0  0  0
  4 29  1  0  0  0  0
  4 30  1  0  0  0  0
  5 10  1  0  0  0  0
  5  6  1  0  0  0  0
  5 31  1  0  0  0  0
  6  7  1  0  0  0  0
  6 32  1  0  0  0  0
  6 33  1  0  0  0  0
  7  8  1  0  0  0  0
  7 34  1  0  0  0  0
  7 35  1  0  0  0  0
  8  9  1  0  0  0  0
  8 36  1  0  0  0  0
  8 37  1  0  0  0  0
  9 10  1  0  0  0  0
  9 38  1  0  0  0  0
  9 39  1  0  0  0  0
 10 11  1  0  0  0  0
 11 16  1  0  0  0  0
 11 12  2  0  0  0  0
 12 13  1  0  0  0  0
 13 14  2  0  0  0  0
 13 40  1  0  0  0  0
 14 15  1  0  0  0  0
 15 19  1  0  0  0  0
 15 16  2  0  0  0  0
 16 17  1  0  0  0  0
 17 18  2  0  0  0  0
 18 19  1  0  0  0  0
 18 41  1  0  0  0  0
 19 20  1  0  0  0  0
 20 21  1  0  0  0  0
 20 42  1  0  0  0  0
 20 43  1  0  0  0  0
 21 26  1  0  0  0  0
 21 22  1  0  0  0  0
 21 23  1  0  0  0  0
 22 44  1  0  0  0  0
 23 24  1  0  0  0  0
 23 45  1  0  0  0  0
 23 46  1  0  0  0  0
 24 25  1  0  0  0  0
 24 47  1  0  0  0  0
 24 48  1  0  0  0  0
 25 26  1  0  0  0  0
 26 49  1  0  0  0  0
 26 50  1  0  0  0  0
M  END
> <s_m_source_file>
AV-unprocessed.smi

> <i_m_source_file_index>
219

> <i_lp_mmshare_version>
43012

> <i_f3d_flags>
0

> <s_epik_input>
W05IMl1DKD1PKVtDSDJdW0NAQEhdMVtDSDJdW0NIMl1bQ0gyXVtDSDJdTjFjKG5bY0hdbjIpYyhjMjMpbltjSF1uM1tDSDJdW0NAQF00KFtPSF0pW0NIMl1bQ0gyXU9bQ0gyXTQ=

> <s_epik_cmdline>
J2VwaWtfcHl0aG9uJywgJy1waCcsICc3LjAnLCAnLXRuJywgJzgnLCAnLW1hJywgJzIwMCcsICctbWV0YWxfYmluZGluZycsICctaW1hZScsICc8aW5maWxlLm1hZT4nLCAnLW9tYWUnLCAnPG91dGZpbGUubWFlPic=

> <r_lp_tautomer_probability>
1

> <r_epik_Ionization_Penalty>
0.00228532

> <r_epik_Ionization_Penalty_Charging>
0

> <r_epik_Ionization_Penalty_Neutral>
0.00228532

> <r_epik_State_Penalty>
0.00140978

> <r_epik_Charging_Adjusted_Penalty>
0.00140978

> <i_epik_Tot_Q>
0

> <i_epik_Tot_abs_Q>
0

> <r_epik_Metal_State_Penalty>
-0

> <b_epik_Metal_Only>
0

> <s_lp_Force_Field>
OPLS_2005

> <r_lp_Energy>
33.2766

> <b_lp_Chiralities_Consistent>
1

> <s_lp_Variant>
AV-unprocessed.smi:219-1

> <Gold.Version>
5.8.1

> <Gold.Id.Protein>
6NUR|6NUR_protein|mol2

> <Gold.PLP.Fitness>
43.7383

> <Gold.PLP.PLP>
-35.8699

> <Gold.PLP.part.hbond>
-3.4560

> <Gold.PLP.part.metal>
0.0000

> <Gold.PLP.part.buried>
-0.5600

> <Gold.PLP.part.nonpolar>
-32.1920

> <Gold.PLP.part.repulsive>
1.2909

> <Gold.PLP.ligand.clash>
0.0000

> <Gold.PLP.ligand.torsion>
1.4939

> <Gold.PLP.Chemscore.Hbond>
2.9709

> <Gold.PLP.Chemscore.CHOScore>
0.5106

> <Gold.PLP.Chemscore.Metal>
0.0000

> <Gold.Chemscore.Hbonds>
donor molecule, donor type, donor heavy atom, donor atom, acceptor molecule, acceptor atom, score
      L1  H     1    28       P1 10747  0.99
      L1  H    22    44       P1  7957  0.97
      P1  H  8011  8017       L1    22  1.00
      L1  C    18    41       P1  7957  0.49

> <Gold.PLP.Chemscore.Internal.Correction>
0.4114

> <Gold.Rescore>
     Score         DG    S(hbond)    S(metal)    S(lipo)     H(rot)  DE(clash)    DE(int)     intcor
      9.89     -12.47       2.08        0.00      73.97       3.37       0.38       2.20       ----

> <Gold.Chemscore.Fitness>
9.8919

> <Gold.Chemscore.DG>
-12.4685

> <Gold.Chemscore.ZeroCoef>
-5.4800

> <Gold.Chemscore.Hbond>
2.0839

> <Gold.Chemscore.Metal>
0.0000

> <Gold.Chemscore.Lipo>
73.9716

> <Gold.Chemscore.Internal_Hbond>
0.0000

> <Gold.Chemscore.DEClash>
0.3781

> <Gold.Chemscore.DEInternal>
2.1985

> <Gold.Chemscore.Rot>
3.3697

> <Gold.Chemscore.Internal.Correction>
   9.000000E+99

> <Gold.Chemscore.Hbonds>
donor molecule, donor type, donor heavy atom, donor atom, acceptor molecule, acceptor atom, score
      L1  H     1    28       P1 10747  0.93
      L1  H    22    44       P1  7957  0.86
      P1  H  8011  8017       L1    22  0.24

> <Gold.Chemscore.Hbond.Weighted>
-6.9602

> <Gold.Chemscore.Metal.Weighted>
-0.0000

> <Gold.Chemscore.Lipo.Weighted>
-8.6547

> <Gold.Chemscore.Internal_Hbond.Weighted>
0.0000

> <Gold.Chemscore.DEClash.Weighted>
0.3781

> <Gold.Chemscore.DEInternal.Weighted>
2.1985

> <Gold.Chemscore.Rot.Weighted>
8.6264

> <Gold.Chemscore.Internal.Correction.Weighted>
   9.000000E+99

> <Gold.Protein.RotatedTorsions>
[ 6907 6896 6895 6894 ] final -178.11 input  -60.11 | X-H torsion
[ 7974 7965 7964 7962 ] final   73.88 input  175.53 | X-H torsion
[ 8008 7997 7996 7995 ] final   67.03 input   59.86 | X-H torsion
[ 10167 10162 10161 10158 ] final   62.62 input  -65.29 | X-H torsion
[ 10718 10713 10712 10709 ] final  123.84 input   66.30 | X-H torsion
[ 10763 10752 10751 10750 ] final  145.79 input  -60.55 | X-H torsion
[ 11005 11000 10999 10996 ] final -108.11 input  -57.11 | X-H torsion

> <Gold.Protein.ActiveResidues>
 VAL166  LYS551  ARG553  GLY616  TRP617  ASP618  TYR619  PRO620  LYS621  CYS622 
 ASP623  PHE694  ASN695  SER759  ASP760  ASP761  ALA762  ILE779  LEU786  VAL792 
 PHE793  MET794  SER795  GLU796  ALA797  LYS798  CYS799  TRP800  GLU811  SER814 

> <Gold.Protein.RotatedAtoms>
  151.6318  133.3331  159.3110 H   0  0  0  0  0  0  0  0  0  0  0  0  # atno 6907 bound_to 6896
  150.8052  134.7177  159.6649 H   0  0  0  0  0  0  0  0  0  0  0  0  # atno 6908 bound_to 6896
  152.4147  134.6067  160.0066 H   0  0  0  0  0  0  0  0  0  0  0  0  # atno 6909 bound_to 6896
  145.7353  139.2700  143.1517 H   0  0  0  0  0  0  0  0  0  0  0  0  # atno 7974 bound_to 7965
  155.6866  140.3496  155.4877 H   0  0  0  0  0  0  0  0  0  0  0  0  # atno 8008 bound_to 7997
  155.9560  140.1128  157.0959 H   0  0  0  0  0  0  0  0  0  0  0  0  # atno 8009 bound_to 7997
  154.4132  140.1185  156.5102 H   0  0  0  0  0  0  0  0  0  0  0  0  # atno 8010 bound_to 7997
  140.1419  144.4545  150.6806 H   0  0  0  0  0  0  0  0  0  0  0  0  # atno 10167 bound_to 10162
  157.5633  131.1088  150.8500 H   0  0  0  0  0  0  0  0  0  0  0  0  # atno 10718 bound_to 10713
  154.0112  135.2914  155.3392 H   0  0  0  0  0  0  0  0  0  0  0  0  # atno 10763 bound_to 10752
  154.7102  135.5152  153.8658 H   0  0  0  0  0  0  0  0  0  0  0  0  # atno 10764 bound_to 10752
  153.0722  135.6651  154.0343 H   0  0  0  0  0  0  0  0  0  0  0  0  # atno 10765 bound_to 10752
  141.0919  133.9040  157.2056 H   0  0  0  0  0  0  0  0  0  0  0  0  # atno 11005 bound_to 11000
  146.0499  140.8080  142.9787 LP  0  0  0  0  0  0  0  0  0  0  0  0  # atno 17320 bound_to 7965
  144.6883  140.3036  143.7259 LP  0  0  0  0  0  0  0  0  0  0  0  0  # atno 17321 bound_to 7965
  140.6755  143.2303  151.5517 LP  0  0  0  0  0  0  0  0  0  0  0  0  # atno 17342 bound_to 10162
  139.5468  144.2500  152.1457 LP  0  0  0  0  0  0  0  0  0  0  0  0  # atno 17343 bound_to 10162
  156.8992  130.5240  149.5283 LP  0  0  0  0  0  0  0  0  0  0  0  0  # atno 17370 bound_to 10713
  156.0683  130.5722  150.9333 LP  0  0  0  0  0  0  0  0  0  0  0  0  # atno 17371 bound_to 10713
  139.9746  135.0118  156.9600 LP  0  0  0  0  0  0  0  0  0  0  0  0  # atno 17394 bound_to 11000
  140.5232  134.0886  155.7297 LP  0  0  0  0  0  0  0  0  0  0  0  0  # atno 17395 bound_to 11000

$$$$
