AV-unprocessed.smi:2881|AV-procd|sdf|11060|dock5
  -GOLD-   2272015533D 1   1.00000     0.00000
 Structure written by MMmdl.
 40 42  0  0  0  0  0  0  0  0  1 V2000
  152.1091  145.2516  158.8574 C   0  0  0  0  0  0  0  0  0  0  0  0
  152.3607  143.9277  159.4951 C   0  0  0  0  0  0  0  0  0  0  0  0
  153.1424  142.8745  159.1125 C   0  0  0  0  0  0  0  0  0  0  0  0
  152.9646  141.9073  160.1468 C   0  0  0  0  0  0  0  0  0  0  0  0
  153.5921  140.5434  160.2608 C   0  0  0  0  0  0  0  0  0  0  0  0
  153.1835  139.6765  159.0695 C   0  0  0  0  0  0  0  0  0  0  0  0
  153.9986  138.9133  158.5518 O   0  0  0  0  0  0  0  0  0  0  0  0
  151.9177  139.8050  158.6438 N   0  0  0  0  0  0  0  0  0  0  0  0
  151.3412  139.0964  157.5043 C   0  0  1  0  0  0  0  0  0  0  0  0
  149.8649  139.4723  157.2213 C   0  0  1  0  0  0  0  0  0  0  0  0
  149.6795  141.0018  157.1195 C   0  0  0  0  0  0  0  0  0  0  0  0
  150.3926  141.3398  155.7970 C   0  0  0  0  0  0  0  0  0  0  0  0
  150.8687  139.9597  155.3037 C   0  0  2  0  0  0  0  0  0  0  0  0
  149.7234  139.0631  155.7612 C   0  0  0  0  0  0  0  0  0  0  0  0
  152.0512  139.4831  156.1812 C   0  0  2  0  0  0  0  0  0  0  0  0
  152.8468  138.3135  155.5700 C   0  0  0  0  0  0  0  0  0  0  0  0
  152.0325  137.1643  155.4703 O   0  0  0  0  0  0  0  0  0  0  0  0
  152.1304  142.3259  161.0886 N   0  0  0  0  0  0  0  0  0  0  0  0
  151.7715  143.5575  160.6817 N   0  0  0  0  0  0  0  0  0  0  0  0
  151.1327  144.1270  161.2182 H   0  0  0  0  0  0  0  0  0  0  0  0
  152.8586  145.4644  158.0948 H   0  0  0  0  0  0  0  0  0  0  0  0
  152.1440  146.0532  159.5957 H   0  0  0  0  0  0  0  0  0  0  0  0
  151.1286  145.2708  158.3813 H   0  0  0  0  0  0  0  0  0  0  0  0
  153.7573  142.8054  158.2275 H   0  0  0  0  0  0  0  0  0  0  0  0
  154.6802  140.6142  160.2988 H   0  0  0  0  0  0  0  0  0  0  0  0
  153.2826  140.0584  161.1876 H   0  0  0  0  0  0  0  0  0  0  0  0
  151.3159  140.4529  159.1307 H   0  0  0  0  0  0  0  0  0  0  0  0
  151.4165  138.0197  157.6715 H   0  0  0  0  0  0  0  0  0  0  0  0
  149.1564  138.9937  157.8980 H   0  0  0  0  0  0  0  0  0  0  0  0
  148.6203  141.2532  157.0523 H   0  0  0  0  0  0  0  0  0  0  0  0
  150.0881  141.5482  157.9694 H   0  0  0  0  0  0  0  0  0  0  0  0
  149.6930  141.7857  155.0889 H   0  0  0  0  0  0  0  0  0  0  0  0
  151.2175  142.0398  155.9355 H   0  0  0  0  0  0  0  0  0  0  0  0
  151.0710  139.9350  154.2327 H   0  0  0  0  0  0  0  0  0  0  0  0
  149.9013  138.0002  155.5910 H   0  0  0  0  0  0  0  0  0  0  0  0
  148.7601  139.3347  155.3257 H   0  0  0  0  0  0  0  0  0  0  0  0
  152.7439  140.3114  156.3429 H   0  0  0  0  0  0  0  0  0  0  0  0
  153.1894  138.5765  154.5687 H   0  0  0  0  0  0  0  0  0  0  0  0
  153.7319  138.0787  156.1613 H   0  0  0  0  0  0  0  0  0  0  0  0
  151.5182  137.0902  156.2598 H   0  0  0  0  0  0  0  0  0  0  0  0
  1  2  1  0  0  0  0
  1 21  1  0  0  0  0
  1 22  1  0  0  0  0
  1 23  1  0  0  0  0
  2 19  1  0  0  0  0
  2  3  2  0  0  0  0
  3  4  1  0  0  0  0
  3 24  1  0  0  0  0
  4  5  1  0  0  0  0
  4 18  2  0  0  0  0
  5  6  1  0  0  0  0
  5 25  1  0  0  0  0
  5 26  1  0  0  0  0
  6  7  2  0  0  0  0
  6  8  1  0  0  0  0
  8  9  1  0  0  0  0
  8 27  1  0  0  0  0
  9 15  1  0  0  0  0
  9 10  1  0  0  0  0
  9 28  1  0  0  0  0
 10 14  1  0  0  0  0
 10 11  1  0  0  0  0
 10 29  1  0  0  0  0
 11 12  1  0  0  0  0
 11 30  1  0  0  0  0
 11 31  1  0  0  0  0
 12 13  1  0  0  0  0
 12 32  1  0  0  0  0
 12 33  1  0  0  0  0
 13 14  1  0  0  0  0
 13 15  1  0  0  0  0
 13 34  1  0  0  0  0
 14 35  1  0  0  0  0
 14 36  1  0  0  0  0
 15 16  1  0  0  0  0
 15 37  1  0  0  0  0
 16 17  1  0  0  0  0
 16 38  1  0  0  0  0
 16 39  1  0  0  0  0
 17 40  1  0  0  0  0
 18 19  1  0  0  0  0
 19 20  1  0  0  0  0
M  END
> <s_m_source_file>
AV-unprocessed.smi

> <i_m_source_file_index>
2881

> <i_lp_mmshare_version>
43012

> <i_f3d_flags>
0

> <s_epik_input>
W0NIM11jMVtjSF1jKG5bbkhdMSlbQ0gyXUMoPU8pW05IXVtDQEhdKFtDQEBIXTIzKVtDQEhdKFtDSDJdW09IXSlbQ0BASF0oW0NIMl0zKVtDSDJdW0NIMl0y

> <s_epik_cmdline>
J2VwaWtfcHl0aG9uJywgJy1waCcsICc3LjAnLCAnLXRuJywgJzgnLCAnLW1hJywgJzIwMCcsICctbWV0YWxfYmluZGluZycsICctaW1hZScsICc8aW5maWxlLm1hZT4nLCAnLW9tYWUnLCAnPG91dGZpbGUubWFlPic=

> <r_lp_tautomer_probability>
0.5

> <r_epik_Ionization_Penalty>
9.4349e-05

> <r_epik_Ionization_Penalty_Charging>
0

> <r_epik_Ionization_Penalty_Neutral>
9.4349e-05

> <r_epik_State_Penalty>
0.41068

> <r_epik_Charging_Adjusted_Penalty>
0.41068

> <i_epik_Tot_Q>
0

> <i_epik_Tot_abs_Q>
0

> <r_epik_Metal_State_Penalty>
0.4107

> <b_epik_Metal_Only>
0

> <s_lp_Force_Field>
OPLS_2005

> <r_lp_Energy>
47.9612

> <b_lp_Chiralities_Consistent>
1

> <s_lp_Variant>
AV-unprocessed.smi:2881-6

> <Gold.Version>
5.8.1

> <Gold.Id.Protein>
6NUR|6NUR_protein|mol2

> <Gold.PLP.Fitness>
44.0089

> <Gold.PLP.PLP>
-38.9691

> <Gold.PLP.part.hbond>
-2.5057

> <Gold.PLP.part.metal>
0.0000

> <Gold.PLP.part.buried>
-5.0032

> <Gold.PLP.part.nonpolar>
-32.0483

> <Gold.PLP.part.repulsive>
0.2463

> <Gold.PLP.ligand.clash>
0.0000

> <Gold.PLP.ligand.torsion>
0.3340

> <Gold.PLP.Chemscore.Hbond>
1.8960

> <Gold.PLP.Chemscore.CHOScore>
0.0000

> <Gold.PLP.Chemscore.Metal>
0.0000

> <Gold.Chemscore.Hbonds>
donor molecule, donor type, donor heavy atom, donor atom, acceptor molecule, acceptor atom, score
      P1  H  7997  8009       L1     7  1.00
      P1  H 10752 10765       L1    17  0.94

> <Gold.PLP.Chemscore.Internal.Correction>
0.0198

> <Gold.Rescore>
     Score         DG    S(hbond)    S(metal)    S(lipo)     H(rot)  DE(clash)    DE(int)     intcor
     16.52     -17.03       1.74        0.00      98.77       2.28       0.05       0.46       ----

> <Gold.Chemscore.Fitness>
16.5212

> <Gold.Chemscore.DG>
-17.0300

> <Gold.Chemscore.ZeroCoef>
-5.4800

> <Gold.Chemscore.Hbond>
1.7421

> <Gold.Chemscore.Metal>
0.0000

> <Gold.Chemscore.Lipo>
98.7738

> <Gold.Chemscore.Internal_Hbond>
0.0000

> <Gold.Chemscore.DEClash>
0.0505

> <Gold.Chemscore.DEInternal>
0.4583

> <Gold.Chemscore.Rot>
2.2755

> <Gold.Chemscore.Internal.Correction>
   9.000000E+99

> <Gold.Chemscore.Hbonds>
donor molecule, donor type, donor heavy atom, donor atom, acceptor molecule, acceptor atom, score
      P1  H  7997  8009       L1     7  0.35
      P1  H 10752 10765       L1    17  0.74

> <Gold.Chemscore.Hbond.Weighted>
-5.8187

> <Gold.Chemscore.Metal.Weighted>
-0.0000

> <Gold.Chemscore.Lipo.Weighted>
-11.5565

> <Gold.Chemscore.Internal_Hbond.Weighted>
0.0000

> <Gold.Chemscore.DEClash.Weighted>
0.0505

> <Gold.Chemscore.DEInternal.Weighted>
0.4583

> <Gold.Chemscore.Rot.Weighted>
5.8252

> <Gold.Chemscore.Internal.Correction.Weighted>
   9.000000E+99

> <Gold.Protein.RotatedTorsions>
[ 6907 6896 6895 6894 ] final   54.90 input  -60.11 | X-H torsion
[ 7974 7965 7964 7962 ] final  165.25 input  175.53 | X-H torsion
[ 8008 7997 7996 7995 ] final  145.43 input   59.86 | X-H torsion
[ 10167 10162 10161 10158 ] final -161.79 input  -65.29 | X-H torsion
[ 10718 10713 10712 10709 ] final  149.82 input   66.30 | X-H torsion
[ 10763 10752 10751 10750 ] final -173.48 input  -60.55 | X-H torsion
[ 11005 11000 10999 10996 ] final  124.85 input  -57.11 | X-H torsion

> <Gold.Protein.ActiveResidues>
 VAL166  LYS551  ARG553  GLY616  TRP617  ASP618  TYR619  PRO620  LYS621  CYS622 
 ASP623  PHE694  ASN695  SER759  ASP760  ASP761  ALA762  ILE779  LEU786  VAL792 
 PHE793  MET794  SER795  GLU796  ALA797  LYS798  CYS799  TRP800  GLU811  SER814 

> <Gold.Protein.RotatedAtoms>
  152.3485  134.7038  160.0243 H   0  0  0  0  0  0  0  0  0  0  0  0  # atno 6907 bound_to 6896
  151.7400  133.3316  159.3371 H   0  0  0  0  0  0  0  0  0  0  0  0  # atno 6908 bound_to 6896
  150.7524  134.6220  159.6185 H   0  0  0  0  0  0  0  0  0  0  0  0  # atno 6909 bound_to 6896
  144.7510  139.8443  143.6366 H   0  0  0  0  0  0  0  0  0  0  0  0  # atno 7974 bound_to 7965
  156.2883  140.2209  156.5215 H   0  0  0  0  0  0  0  0  0  0  0  0  # atno 8008 bound_to 7997
  154.7525  140.0479  157.0927 H   0  0  0  0  0  0  0  0  0  0  0  0  # atno 8009 bound_to 7997
  155.0092  140.3111  155.4839 H   0  0  0  0  0  0  0  0  0  0  0  0  # atno 8010 bound_to 7997
  139.6439  144.0208  152.2113 H   0  0  0  0  0  0  0  0  0  0  0  0  # atno 10167 bound_to 10162
  157.2913  131.0854  151.1460 H   0  0  0  0  0  0  0  0  0  0  0  0  # atno 10718 bound_to 10713
  154.6073  135.2861  155.0470 H   0  0  0  0  0  0  0  0  0  0  0  0  # atno 10763 bound_to 10752
  154.1713  135.6472  153.5014 H   0  0  0  0  0  0  0  0  0  0  0  0  # atno 10764 bound_to 10752
  153.0181  135.5401  154.6814 H   0  0  0  0  0  0  0  0  0  0  0  0  # atno 10765 bound_to 10752
  139.9378  134.9638  156.8471 H   0  0  0  0  0  0  0  0  0  0  0  0  # atno 11005 bound_to 11000
  146.1461  139.4530  143.0078 LP  0  0  0  0  0  0  0  0  0  0  0  0  # atno 17320 bound_to 7965
  145.6943  141.0155  143.1538 LP  0  0  0  0  0  0  0  0  0  0  0  0  # atno 17321 bound_to 7965
  139.9905  144.6365  150.7819 LP  0  0  0  0  0  0  0  0  0  0  0  0  # atno 17342 bound_to 10162
  140.7505  143.2956  151.3213 LP  0  0  0  0  0  0  0  0  0  0  0  0  # atno 17343 bound_to 10162
  157.2855  130.6771  149.6087 LP  0  0  0  0  0  0  0  0  0  0  0  0  # atno 17370 bound_to 10713
  155.9667  130.4437  150.5430 LP  0  0  0  0  0  0  0  0  0  0  0  0  # atno 17371 bound_to 10713
  140.6030  134.0154  155.7545 LP  0  0  0  0  0  0  0  0  0  0  0  0  # atno 17394 bound_to 11000
  141.1000  133.9783  157.3095 LP  0  0  0  0  0  0  0  0  0  0  0  0  # atno 17395 bound_to 11000

$$$$
