AV-unprocessed.smi:500|AV-procd|sdf|2739|dock7
  -GOLD-   2262023193D 1   1.00000     0.00000
 Structure written by MMmdl.
 44 46  0  0  0  0  0  0  0  0  2 V2000
  147.9927  140.0754  154.2212 C   0  0  0  0  0  0  0  0  0  0  0  0
  148.9731  141.2306  154.4649 C   0  0  0  0  0  0  0  0  0  0  0  0
  150.2043  140.7435  154.9732 O   0  0  0  0  0  0  0  0  0  0  0  0
  150.3950  140.9716  156.3598 C   0  0  0  0  0  0  0  0  0  0  0  0
  151.7655  140.4248  156.7832 C   0  0  0  0  0  0  0  0  0  0  0  0
  152.1100  140.8185  158.1530 N   0  0  0  0  0  0  0  0  0  0  0  0
  152.5088  140.0750  159.2331 C   0  0  0  0  0  0  0  0  0  0  0  0
  152.6998  138.5660  159.2170 C   0  0  1  0  0  0  0  0  0  0  0  0
  153.7241  138.1557  158.1500 C   0  0  0  0  0  0  0  0  0  0  0  0
  153.1325  138.0340  160.5135 N   0  5  0  0  0  0  0  0  0  0  0  0
  154.2391  138.4562  161.1876 C   0  0  0  0  0  0  0  0  0  0  0  0
  155.1534  139.2000  160.8195 O   0  0  0  0  0  0  0  0  0  0  0  0
  154.2750  137.9396  162.5745 C   0  0  0  0  0  0  0  0  0  0  0  0
  153.5644  136.9490  163.2035 C   0  0  0  0  0  0  0  0  0  0  0  0
  154.0517  136.8768  164.5377 C   0  0  0  0  0  0  0  0  0  0  0  0
  155.0328  137.8210  164.6293 C   0  0  0  0  0  0  0  0  0  0  0  0
  155.1856  138.4704  163.4436 O   0  0  0  0  0  0  0  0  0  0  0  0
  152.7658  140.7846  160.3387 N   0  0  0  0  0  0  0  0  0  0  0  0
  152.4843  142.0799  159.9625 C   0  0  0  0  0  0  0  0  0  0  0  0
  152.5495  143.2844  160.6988 C   0  0  0  0  0  0  0  0  0  0  0  0
  152.2110  144.5112  160.0917 C   0  0  0  0  0  0  0  0  0  0  0  0
  151.8045  144.5500  158.7423 C   0  0  0  0  0  0  0  0  0  0  0  0
  151.7347  143.3602  157.9925 C   0  0  0  0  0  0  0  0  0  0  0  0
  152.0728  142.1372  158.6038 C   0  0  0  0  0  0  0  0  0  0  0  0
  147.0734  140.4393  153.7625 H   0  0  0  0  0  0  0  0  0  0  0  0
  147.7213  139.5694  155.1472 H   0  0  0  0  0  0  0  0  0  0  0  0
  148.4277  139.3332  153.5513 H   0  0  0  0  0  0  0  0  0  0  0  0
  149.1806  141.7222  153.5144 H   0  0  0  0  0  0  0  0  0  0  0  0
  148.5436  141.9880  155.1223 H   0  0  0  0  0  0  0  0  0  0  0  0
  150.3357  142.0414  156.5625 H   0  0  0  0  0  0  0  0  0  0  0  0
  149.6139  140.4893  156.9481 H   0  0  0  0  0  0  0  0  0  0  0  0
  151.8070  139.3428  156.6638 H   0  0  0  0  0  0  0  0  0  0  0  0
  152.5332  140.8177  156.1161 H   0  0  0  0  0  0  0  0  0  0  0  0
  151.7506  138.1166  158.9246 H   0  0  0  0  0  0  0  0  0  0  0  0
  153.4119  138.4940  157.1618 H   0  0  0  0  0  0  0  0  0  0  0  0
  153.8368  137.0720  158.1057 H   0  0  0  0  0  0  0  0  0  0  0  0
  154.7060  138.5854  158.3525 H   0  0  0  0  0  0  0  0  0  0  0  0
  152.7867  136.3482  162.7551 H   0  0  0  0  0  0  0  0  0  0  0  0
  153.7279  136.2157  165.3277 H   0  0  0  0  0  0  0  0  0  0  0  0
  155.6925  138.1451  165.4206 H   0  0  0  0  0  0  0  0  0  0  0  0
  152.8601  143.2625  161.7329 H   0  0  0  0  0  0  0  0  0  0  0  0
  152.2639  145.4258  160.6638 H   0  0  0  0  0  0  0  0  0  0  0  0
  151.5471  145.4932  158.2836 H   0  0  0  0  0  0  0  0  0  0  0  0
  151.4235  143.3874  156.9589 H   0  0  0  0  0  0  0  0  0  0  0  0
  1  2  1  0  0  0  0
  1 25  1  0  0  0  0
  1 26  1  0  0  0  0
  1 27  1  0  0  0  0
  2  3  1  0  0  0  0
  2 28  1  0  0  0  0
  2 29  1  0  0  0  0
  3  4  1  0  0  0  0
  4  5  1  0  0  0  0
  4 30  1  0  0  0  0
  4 31  1  0  0  0  0
  5  6  1  0  0  0  0
  5 32  1  0  0  0  0
  5 33  1  0  0  0  0
  6 24  1  0  0  0  0
  6  7  1  0  0  0  0
  7  8  1  0  0  0  0
  7 18  2  0  0  0  0
  8  9  1  0  0  0  0
  8 10  1  0  0  0  0
  8 34  1  0  0  0  0
  9 35  1  0  0  0  0
  9 36  1  0  0  0  0
  9 37  1  0  0  0  0
 10 11  1  0  0  0  0
 11 12  2  0  0  0  0
 11 13  1  0  0  0  0
 13 17  1  0  0  0  0
 13 14  2  0  0  0  0
 14 15  1  0  0  0  0
 14 38  1  0  0  0  0
 15 16  2  0  0  0  0
 15 39  1  0  0  0  0
 16 17  1  0  0  0  0
 16 40  1  0  0  0  0
 18 19  1  0  0  0  0
 19 24  2  0  0  0  0
 19 20  1  0  0  0  0
 20 21  2  0  0  0  0
 20 41  1  0  0  0  0
 21 22  1  0  0  0  0
 21 42  1  0  0  0  0
 22 23  2  0  0  0  0
 22 43  1  0  0  0  0
 23 24  1  0  0  0  0
 23 44  1  0  0  0  0
M  CHG  1  10  -1
M  END
> <s_m_source_file>
AV-unprocessed.smi

> <i_m_source_file_index>
500

> <i_lp_mmshare_version>
43012

> <i_f3d_flags>
0

> <s_epik_input>
W0NIM11bQ0gyXU9bQ0gyXVtDSDJdbihjKGMxMilbY0hdW2NIXVtjSF1bY0hdMiljKG4xKVtDQEhdKFtDSDNdKVtOSF1DKD1PKWMzW2NIXVtjSF1bY0hdbzM=

> <s_epik_cmdline>
J2VwaWtfcHl0aG9uJywgJy1waCcsICc3LjAnLCAnLXRuJywgJzgnLCAnLW1hJywgJzIwMCcsICctbWV0YWxfYmluZGluZycsICctaW1hZScsICc8aW5maWxlLm1hZT4nLCAnLW9tYWUnLCAnPG91dGZpbGUubWFlPic=

> <r_epik_Ionization_Penalty>
7.31223

> <r_epik_Ionization_Penalty_Charging>
6.43826

> <r_epik_Ionization_Penalty_Neutral>
0.873973

> <r_epik_State_Penalty>
6.5378

> <r_epik_Charging_Adjusted_Penalty>
12.9761

> <i_epik_Tot_Q>
-1

> <i_epik_Tot_abs_Q>
1

> <r_epik_Metal_State_Penalty>
2.55818

> <b_epik_Metal_Only>
1

> <s_lp_Force_Field>
OPLS_2005

> <r_lp_Energy>
16.2081

> <b_lp_Chiralities_Consistent>
1

> <s_lp_Variant>
AV-unprocessed.smi:500-6

> <Gold.Version>
5.8.1

> <Gold.Id.Protein>
6NUR|6NUR_protein|mol2

> <Gold.PLP.Fitness>
52.3559

> <Gold.PLP.PLP>
-50.7651

> <Gold.PLP.part.hbond>
-1.0000

> <Gold.PLP.part.metal>
0.0000

> <Gold.PLP.part.buried>
-4.6141

> <Gold.PLP.part.nonpolar>
-44.3879

> <Gold.PLP.part.repulsive>
0.0970

> <Gold.PLP.ligand.clash>
0.0000

> <Gold.PLP.ligand.torsion>
0.5314

> <Gold.PLP.Chemscore.Hbond>
0.8160

> <Gold.PLP.Chemscore.CHOScore>
0.0000

> <Gold.PLP.Chemscore.Metal>
0.0000

> <Gold.Chemscore.Hbonds>
donor molecule, donor type, donor heavy atom, donor atom, acceptor molecule, acceptor atom, score
      P1  H  7989  7998       L1     3  0.80

> <Gold.PLP.Chemscore.Internal.Correction>
0.2057

> <Gold.Rescore>
     Score         DG    S(hbond)    S(metal)    S(lipo)     H(rot)  DE(clash)    DE(int)     intcor
     16.92     -18.64       0.74        0.00     131.60       1.84       0.05       1.68       ----

> <Gold.Chemscore.Fitness>
16.9175

> <Gold.Chemscore.DG>
-18.6421

> <Gold.Chemscore.ZeroCoef>
-5.4800

> <Gold.Chemscore.Hbond>
0.7396

> <Gold.Chemscore.Metal>
0.0000

> <Gold.Chemscore.Lipo>
131.6027

> <Gold.Chemscore.Internal_Hbond>
0.0000

> <Gold.Chemscore.DEClash>
0.0476

> <Gold.Chemscore.DEInternal>
1.6770

> <Gold.Chemscore.Rot>
1.8382

> <Gold.Chemscore.Internal.Correction>
   9.000000E+99

> <Gold.Chemscore.Hbonds>
donor molecule, donor type, donor heavy atom, donor atom, acceptor molecule, acceptor atom, score
      P1  H  7989  7998       L1     3  0.49

> <Gold.Chemscore.Hbond.Weighted>
-2.4704

> <Gold.Chemscore.Metal.Weighted>
-0.0000

> <Gold.Chemscore.Lipo.Weighted>
-15.3975

> <Gold.Chemscore.Internal_Hbond.Weighted>
0.0000

> <Gold.Chemscore.DEClash.Weighted>
0.0476

> <Gold.Chemscore.DEInternal.Weighted>
1.6770

> <Gold.Chemscore.Rot.Weighted>
4.7059

> <Gold.Chemscore.Internal.Correction.Weighted>
   9.000000E+99

> <Gold.Protein.RotatedTorsions>
[ 6907 6896 6895 6894 ] final  -89.48 input  -60.11 | X-H torsion
[ 7974 7965 7964 7962 ] final   80.60 input  175.53 | X-H torsion
[ 8008 7997 7996 7995 ] final   36.43 input   59.86 | X-H torsion
[ 10167 10162 10161 10158 ] final  -57.57 input  -65.29 | X-H torsion
[ 10718 10713 10712 10709 ] final   15.19 input   66.30 | X-H torsion
[ 10763 10752 10751 10750 ] final   11.95 input  -60.55 | X-H torsion
[ 11005 11000 10999 10996 ] final  179.76 input  -57.11 | X-H torsion

> <Gold.Protein.ActiveResidues>
 VAL166  LYS551  ARG553  GLY616  TRP617  ASP618  TYR619  PRO620  LYS621  CYS622 
 ASP623  PHE694  ASN695  SER759  ASP760  ASP761  ALA762  ILE779  LEU786  VAL792 
 PHE793  MET794  SER795  GLU796  ALA797  LYS798  CYS799  TRP800  GLU811  SER814 

> <Gold.Protein.RotatedAtoms>
  150.6874  134.2581  159.4537 H   0  0  0  0  0  0  0  0  0  0  0  0  # atno 6907 bound_to 6896
  152.0513  134.9649  160.0584 H   0  0  0  0  0  0  0  0  0  0  0  0  # atno 6908 bound_to 6896
  152.1112  133.4267  159.4669 H   0  0  0  0  0  0  0  0  0  0  0  0  # atno 6909 bound_to 6896
  145.6490  139.2443  143.1987 H   0  0  0  0  0  0  0  0  0  0  0  0  # atno 7974 bound_to 7965
  155.1873  140.3305  155.4364 H   0  0  0  0  0  0  0  0  0  0  0  0  # atno 8008 bound_to 7997
  156.2455  140.1916  156.6918 H   0  0  0  0  0  0  0  0  0  0  0  0  # atno 8009 bound_to 7997
  154.6230  140.0593  156.9625 H   0  0  0  0  0  0  0  0  0  0  0  0  # atno 8010 bound_to 7997
  140.6250  143.2434  151.5386 H   0  0  0  0  0  0  0  0  0  0  0  0  # atno 10167 bound_to 10162
  157.0500  130.6266  149.5766 H   0  0  0  0  0  0  0  0  0  0  0  0  # atno 10718 bound_to 10713
  153.1873  135.6837  153.8399 H   0  0  0  0  0  0  0  0  0  0  0  0  # atno 10763 bound_to 10752
  153.7710  135.3196  155.3353 H   0  0  0  0  0  0  0  0  0  0  0  0  # atno 10764 bound_to 10752
  154.8096  135.4726  154.0579 H   0  0  0  0  0  0  0  0  0  0  0  0  # atno 10765 bound_to 10752
  140.4097  134.6703  157.4607 H   0  0  0  0  0  0  0  0  0  0  0  0  # atno 11005 bound_to 11000
  146.1219  140.7298  142.9453 LP  0  0  0  0  0  0  0  0  0  0  0  0  # atno 17320 bound_to 7965
  144.7129  140.4106  143.7066 LP  0  0  0  0  0  0  0  0  0  0  0  0  # atno 17321 bound_to 7965
  139.5472  144.2491  152.1463 LP  0  0  0  0  0  0  0  0  0  0  0  0  # atno 17342 bound_to 10162
  140.1720  144.4927  150.6574 LP  0  0  0  0  0  0  0  0  0  0  0  0  # atno 17343 bound_to 10162
  156.0011  130.5090  150.7665 LP  0  0  0  0  0  0  0  0  0  0  0  0  # atno 17370 bound_to 10713
  157.5038  131.0920  151.0282 LP  0  0  0  0  0  0  0  0  0  0  0  0  # atno 17371 bound_to 10713
  140.0276  134.6453  155.9150 LP  0  0  0  0  0  0  0  0  0  0  0  0  # atno 17394 bound_to 11000
  141.1826  133.6549  156.5082 LP  0  0  0  0  0  0  0  0  0  0  0  0  # atno 17395 bound_to 11000

$$$$
