AV-unprocessed.smi:3310|AV-procd|sdf|12718|dock9
  -GOLD-   2272019 53D 1   1.00000     0.00000
 Structure written by MMmdl.
 45 46  0  0  0  0  0  0  0  0  2 V2000
  146.3009  142.8776  154.2541 C   0  0  0  0  0  0  0  0  0  0  0  0
  146.7590  141.7829  153.2843 C   0  0  0  0  0  0  0  0  0  0  0  0
  147.9819  141.0646  153.7641 C   0  0  0  0  0  0  0  0  0  0  0  0
  149.1334  141.6841  154.0491 N   0  0  0  0  0  0  0  0  0  0  0  0
  150.0087  140.6875  154.4307 N   0  0  0  0  0  0  0  0  0  0  0  0
  149.3015  139.5635  154.3293 C   0  0  0  0  0  0  0  0  0  0  0  0
  148.0343  139.7244  153.9179 N   0  0  0  0  0  0  0  0  0  0  0  0
  147.0223  138.7052  153.7081 C   0  0  0  0  0  0  0  0  0  0  0  0
  146.5918  138.6347  152.2366 C   0  0  0  0  0  0  0  0  0  0  0  0
  145.1449  138.3704  152.1186 N   0  3  0  0  0  0  0  0  0  0  0  0
  144.6650  137.2678  152.9756 C   0  0  0  0  0  0  0  0  0  0  0  0
  144.0677  136.1173  152.1442 C   0  0  2  0  0  0  0  0  0  0  0  0
  143.5425  134.9950  153.0616 C   0  0  0  0  0  0  0  0  0  0  0  0
  142.9539  133.8225  152.2571 C   0  0  0  0  0  0  0  0  0  0  0  0
  143.9531  133.2492  151.2331 C   0  0  2  0  0  0  0  0  0  0  0  0
  145.0714  132.4246  151.8947 C   0  0  0  0  0  0  0  0  0  0  0  0
  144.5004  134.3723  150.3307 C   0  0  0  0  0  0  0  0  0  0  0  0
  145.0882  135.5430  151.1380 C   0  0  0  0  0  0  0  0  0  0  0  0
  145.4054  143.3761  153.8829 H   0  0  0  0  0  0  0  0  0  0  0  0
  147.0736  143.6349  154.3873 H   0  0  0  0  0  0  0  0  0  0  0  0
  146.0676  142.4612  155.2346 H   0  0  0  0  0  0  0  0  0  0  0  0
  145.9583  141.0540  153.1543 H   0  0  0  0  0  0  0  0  0  0  0  0
  146.9437  142.2075  152.2978 H   0  0  0  0  0  0  0  0  0  0  0  0
  149.7205  138.5952  154.5616 H   0  0  0  0  0  0  0  0  0  0  0  0
  147.4096  137.7437  154.0465 H   0  0  0  0  0  0  0  0  0  0  0  0
  146.1659  138.9385  154.3422 H   0  0  0  0  0  0  0  0  0  0  0  0
  146.8236  139.5759  151.7358 H   0  0  0  0  0  0  0  0  0  0  0  0
  147.1443  137.8495  151.7187 H   0  0  0  0  0  0  0  0  0  0  0  0
  144.6395  139.2106  152.3615 H   0  0  0  0  0  0  0  0  0  0  0  0
  145.4850  136.8985  153.5932 H   0  0  0  0  0  0  0  0  0  0  0  0
  143.9103  137.6668  153.6547 H   0  0  0  0  0  0  0  0  0  0  0  0
  143.2169  136.5089  151.5841 H   0  0  0  0  0  0  0  0  0  0  0  0
  144.3463  134.6341  153.7045 H   0  0  0  0  0  0  0  0  0  0  0  0
  142.7762  135.3905  153.7294 H   0  0  0  0  0  0  0  0  0  0  0  0
  142.6166  133.0373  152.9346 H   0  0  0  0  0  0  0  0  0  0  0  0
  142.0634  134.1681  151.7303 H   0  0  0  0  0  0  0  0  0  0  0  0
  143.4019  132.5581  150.5939 H   0  0  0  0  0  0  0  0  0  0  0  0
  145.6875  133.0267  152.5621 H   0  0  0  0  0  0  0  0  0  0  0  0
  145.7302  131.9880  151.1437 H   0  0  0  0  0  0  0  0  0  0  0  0
  144.6570  131.6043  152.4811 H   0  0  0  0  0  0  0  0  0  0  0  0
  145.2524  133.9743  149.6482 H   0  0  0  0  0  0  0  0  0  0  0  0
  143.6925  134.7484  149.7015 H   0  0  0  0  0  0  0  0  0  0  0  0
  145.4135  136.3202  150.4461 H   0  0  0  0  0  0  0  0  0  0  0  0
  145.9841  135.2137  151.6649 H   0  0  0  0  0  0  0  0  0  0  0  0
  144.9411  138.1372  151.1573 H   0  0  0  0  0  0  0  0  0  0  0  0
  1  2  1  0  0  0  0
  1 19  1  0  0  0  0
  1 20  1  0  0  0  0
  1 21  1  0  0  0  0
  2  3  1  0  0  0  0
  2 22  1  0  0  0  0
  2 23  1  0  0  0  0
  3  7  1  0  0  0  0
  3  4  2  0  0  0  0
  4  5  1  0  0  0  0
  5  6  2  0  0  0  0
  6  7  1  0  0  0  0
  6 24  1  0  0  0  0
  7  8  1  0  0  0  0
  8  9  1  0  0  0  0
  8 25  1  0  0  0  0
  8 26  1  0  0  0  0
  9 10  1  0  0  0  0
  9 27  1  0  0  0  0
  9 28  1  0  0  0  0
 10 11  1  0  0  0  0
 10 29  1  0  0  0  0
 10 45  1  0  0  0  0
 11 12  1  0  0  0  0
 11 30  1  0  0  0  0
 11 31  1  0  0  0  0
 12 18  1  0  0  0  0
 12 13  1  0  0  0  0
 12 32  1  0  0  0  0
 13 14  1  0  0  0  0
 13 33  1  0  0  0  0
 13 34  1  0  0  0  0
 14 15  1  0  0  0  0
 14 35  1  0  0  0  0
 14 36  1  0  0  0  0
 15 16  1  0  0  0  0
 15 17  1  0  0  0  0
 15 37  1  0  0  0  0
 16 38  1  0  0  0  0
 16 39  1  0  0  0  0
 16 40  1  0  0  0  0
 17 18  1  0  0  0  0
 17 41  1  0  0  0  0
 17 42  1  0  0  0  0
 18 43  1  0  0  0  0
 18 44  1  0  0  0  0
M  CHG  1  10   1
M  END
> <s_m_source_file>
AV-unprocessed.smi

> <i_m_source_file_index>
3310

> <i_lp_mmshare_version>
43012

> <i_f3d_flags>
0

> <s_epik_input>
W0NIM11bQ0gyXWMxbm5bY0hdbjFbQ0gyXVtDSDJdW05IXVtDSDJdW0NAQEhdMltDSDJdW0NIMl1bQ0BASF0oW0NIM10pW0NIMl1bQ0gyXTI=

> <s_epik_cmdline>
J2VwaWtfcHl0aG9uJywgJy1waCcsICc3LjAnLCAnLXRuJywgJzgnLCAnLW1hJywgJzIwMCcsICctbWV0YWxfYmluZGluZycsICctaW1hZScsICc8aW5maWxlLm1hZT4nLCAnLW9tYWUnLCAnPG91dGZpbGUubWFlPic=

> <r_lp_tautomer_probability>
1

> <r_epik_Ionization_Penalty>
0.00127868

> <r_epik_Ionization_Penalty_Charging>
0.00126792

> <r_epik_Ionization_Penalty_Neutral>
1.07546e-05

> <r_epik_State_Penalty>
-0

> <r_epik_Charging_Adjusted_Penalty>
0.00126792

> <i_epik_Tot_Q>
1

> <i_epik_Tot_abs_Q>
1

> <r_epik_Metal_State_Penalty>
-0

> <b_epik_Metal_Only>
0

> <s_lp_Force_Field>
OPLS_2005

> <r_lp_Energy>
17.5761

> <b_lp_Chiralities_Consistent>
1

> <s_lp_Variant>
AV-unprocessed.smi:3310-2

> <Gold.Version>
5.8.1

> <Gold.Id.Protein>
6NUR|6NUR_protein|mol2

> <Gold.PLP.Fitness>
50.9597

> <Gold.PLP.PLP>
-39.0012

> <Gold.PLP.part.hbond>
-4.9706

> <Gold.PLP.part.metal>
0.0000

> <Gold.PLP.part.buried>
-2.9156

> <Gold.PLP.part.nonpolar>
-32.0407

> <Gold.PLP.part.repulsive>
0.3363

> <Gold.PLP.ligand.clash>
0.0000

> <Gold.PLP.ligand.torsion>
0.7027

> <Gold.PLP.Chemscore.Hbond>
4.4320

> <Gold.PLP.Chemscore.CHOScore>
0.0000

> <Gold.PLP.Chemscore.Metal>
0.0000

> <Gold.Chemscore.Hbonds>
donor molecule, donor type, donor heavy atom, donor atom, acceptor molecule, acceptor atom, score
      L1  H    10    29       P1 10175  2.00
      L1  H    10    45       P1 10171  0.83
      P1  H  7989  7998       L1     5  0.77
      P1  H  8011  8017       L1     4  0.58

> <Gold.PLP.Chemscore.Internal.Correction>
0.0679

> <Gold.Rescore>
     Score         DG    S(hbond)    S(metal)    S(lipo)     H(rot)  DE(clash)    DE(int)     intcor
     15.87     -16.75       2.53        0.00      68.50       2.03       0.10       0.78       ----

> <Gold.Chemscore.Fitness>
15.8738

> <Gold.Chemscore.DG>
-16.7497

> <Gold.Chemscore.ZeroCoef>
-5.4800

> <Gold.Chemscore.Hbond>
2.5302

> <Gold.Chemscore.Metal>
0.0000

> <Gold.Chemscore.Lipo>
68.4993

> <Gold.Chemscore.Internal_Hbond>
0.0000

> <Gold.Chemscore.DEClash>
0.0997

> <Gold.Chemscore.DEInternal>
0.7762

> <Gold.Chemscore.Rot>
2.0295

> <Gold.Chemscore.Internal.Correction>
   9.000000E+99

> <Gold.Chemscore.Hbonds>
donor molecule, donor type, donor heavy atom, donor atom, acceptor molecule, acceptor atom, score
      L1  H    10    29       P1 10175  0.97
      L1  H    10    45       P1 10171  0.81
      P1  H  7989  7998       L1     5  0.52
      P1  H  8011  8017       L1     4  0.19

> <Gold.Chemscore.Hbond.Weighted>
-8.4509

> <Gold.Chemscore.Metal.Weighted>
-0.0000

> <Gold.Chemscore.Lipo.Weighted>
-8.0144

> <Gold.Chemscore.Internal_Hbond.Weighted>
0.0000

> <Gold.Chemscore.DEClash.Weighted>
0.0997

> <Gold.Chemscore.DEInternal.Weighted>
0.7762

> <Gold.Chemscore.Rot.Weighted>
5.1956

> <Gold.Chemscore.Internal.Correction.Weighted>
   9.000000E+99

> <Gold.Protein.RotatedTorsions>
[ 6907 6896 6895 6894 ] final  101.13 input  -60.11 | X-H torsion
[ 7974 7965 7964 7962 ] final  -83.53 input  175.53 | X-H torsion
[ 8008 7997 7996 7995 ] final -132.89 input   59.86 | X-H torsion
[ 10167 10162 10161 10158 ] final  -57.30 input  -65.29 | X-H torsion
[ 10718 10713 10712 10709 ] final  103.40 input   66.30 | X-H torsion
[ 10763 10752 10751 10750 ] final   30.74 input  -60.55 | X-H torsion
[ 11005 11000 10999 10996 ] final   74.90 input  -57.11 | X-H torsion

> <Gold.Protein.ActiveResidues>
 VAL166  LYS551  ARG553  GLY616  TRP617  ASP618  TYR619  PRO620  LYS621  CYS622 
 ASP623  PHE694  ASN695  SER759  ASP760  ASP761  ALA762  ILE779  LEU786  VAL792 
 PHE793  MET794  SER795  GLU796  ALA797  LYS798  CYS799  TRP800  GLU811  SER814 

> <Gold.Protein.RotatedAtoms>
  152.5356  134.0172  159.7964 H   0  0  0  0  0  0  0  0  0  0  0  0  # atno 6907 bound_to 6896
  151.0364  133.5737  159.2662 H   0  0  0  0  0  0  0  0  0  0  0  0  # atno 6908 bound_to 6896
  151.2722  135.0695  159.9192 H   0  0  0  0  0  0  0  0  0  0  0  0  # atno 6909 bound_to 6896
  145.5187  140.9533  143.1667 H   0  0  0  0  0  0  0  0  0  0  0  0  # atno 7974 bound_to 7965
  155.3365  140.0470  157.3044 H   0  0  0  0  0  0  0  0  0  0  0  0  # atno 8008 bound_to 7997
  154.5300  140.2254  155.8786 H   0  0  0  0  0  0  0  0  0  0  0  0  # atno 8009 bound_to 7997
  156.1779  140.3081  155.9099 H   0  0  0  0  0  0  0  0  0  0  0  0  # atno 8010 bound_to 7997
  140.6266  143.2441  151.5348 H   0  0  0  0  0  0  0  0  0  0  0  0  # atno 10167 bound_to 10162
  157.6773  131.0778  150.5549 H   0  0  0  0  0  0  0  0  0  0  0  0  # atno 10718 bound_to 10713
  153.0355  135.6456  154.1091 H   0  0  0  0  0  0  0  0  0  0  0  0  # atno 10763 bound_to 10752
  154.0806  135.2873  155.3292 H   0  0  0  0  0  0  0  0  0  0  0  0  # atno 10764 bound_to 10752
  154.6532  135.5418  153.7991 H   0  0  0  0  0  0  0  0  0  0  0  0  # atno 10765 bound_to 10752
  139.9369  134.7472  156.1205 H   0  0  0  0  0  0  0  0  0  0  0  0  # atno 11005 bound_to 11000
  144.7687  139.6784  143.7204 LP  0  0  0  0  0  0  0  0  0  0  0  0  # atno 17320 bound_to 7965
  146.2120  139.5482  142.9675 LP  0  0  0  0  0  0  0  0  0  0  0  0  # atno 17321 bound_to 7965
  139.5485  144.2456  152.1488 LP  0  0  0  0  0  0  0  0  0  0  0  0  # atno 17342 bound_to 10162
  140.1689  144.4954  150.6590 LP  0  0  0  0  0  0  0  0  0  0  0  0  # atno 17343 bound_to 10162
  156.5853  130.4315  149.5959 LP  0  0  0  0  0  0  0  0  0  0  0  0  # atno 17370 bound_to 10713
  156.2627  130.6972  151.1745 LP  0  0  0  0  0  0  0  0  0  0  0  0  # atno 17371 bound_to 10713
  141.0986  133.6686  156.2702 LP  0  0  0  0  0  0  0  0  0  0  0  0  # atno 17394 bound_to 11000
  140.6053  134.5513  157.5524 LP  0  0  0  0  0  0  0  0  0  0  0  0  # atno 17395 bound_to 11000

$$$$
