AV-unprocessed.smi:415|AV-procd|sdf|2520|dock10
  -GOLD-   2262022473D 1   1.00000     0.00000
 Structure written by MMmdl.
 53 54  0  0  0  0  0  0  0  0  1 V2000
  146.7651  142.8805  159.0905 C   0  0  0  0  0  0  0  0  0  0  0  0
  146.5743  141.6260  158.4613 O   0  0  0  0  0  0  0  0  0  0  0  0
  147.7182  141.1969  157.7418 C   0  0  0  0  0  0  0  0  0  0  0  0
  147.3622  139.9915  156.8560 C   0  0  0  0  0  0  0  0  0  0  0  0
  148.5049  139.4532  156.1417 N   0  0  0  0  0  0  0  0  0  0  0  0
  148.6104  139.4766  154.7540 C   0  0  0  0  0  0  0  0  0  0  0  0
  147.6037  140.0556  154.0024 N   0  0  0  0  0  0  0  0  0  0  0  0
  149.6835  138.9544  154.1198 C   0  0  0  0  0  0  0  0  0  0  0  0
  150.7860  138.3436  154.8485 C   0  0  0  0  0  0  0  0  0  0  0  0
  151.7553  137.8317  154.2882 O   0  0  0  0  0  0  0  0  0  0  0  0
  150.6735  138.3590  156.2576 N   0  0  0  0  0  0  0  0  0  0  0  0
  151.7507  137.7390  157.0657 C   0  0  0  0  0  0  0  0  0  0  0  0
  152.6572  138.7393  157.8057 C   0  0  0  0  0  0  0  0  0  0  0  0
  153.8734  138.5535  157.8153 O   0  0  0  0  0  0  0  0  0  0  0  0
  152.0757  139.7911  158.4063 N   0  0  0  0  0  0  0  0  0  0  0  0
  152.7636  140.8808  159.0921 C   0  0  2  0  0  0  0  0  0  0  0  0
  153.3607  140.3622  160.4143 C   0  0  0  0  0  0  0  0  0  0  0  0
  154.0545  141.4872  161.1877 C   0  0  0  0  0  0  0  0  0  0  0  0
  153.0808  142.6403  161.4531 C   0  0  0  0  0  0  0  0  0  0  0  0
  152.4759  143.1951  160.1476 C   0  0  2  0  0  0  0  0  0  0  0  0
  151.5316  144.3659  160.4770 C   0  0  0  0  0  0  0  0  0  0  0  0
  151.7895  142.0677  159.3249 C   0  0  1  0  0  0  0  0  0  0  0  0
  151.2182  142.5894  157.9871 C   0  0  0  0  0  0  0  0  0  0  0  0
  149.5546  138.9087  156.9253 C   0  0  0  0  0  0  0  0  0  0  0  0
  149.5005  138.8946  158.1579 O   0  0  0  0  0  0  0  0  0  0  0  0
  145.8586  143.1632  159.6255 H   0  0  0  0  0  0  0  0  0  0  0  0
  146.9814  143.6603  158.3591 H   0  0  0  0  0  0  0  0  0  0  0  0
  147.5829  142.8391  159.8112 H   0  0  0  0  0  0  0  0  0  0  0  0
  148.0742  142.0137  157.1127 H   0  0  0  0  0  0  0  0  0  0  0  0
  148.5273  140.9401  158.4273 H   0  0  0  0  0  0  0  0  0  0  0  0
  146.8800  139.1896  157.4171 H   0  0  0  0  0  0  0  0  0  0  0  0
  146.6349  140.2729  156.0949 H   0  0  0  0  0  0  0  0  0  0  0  0
  146.7866  140.4659  154.4316 H   0  0  0  0  0  0  0  0  0  0  0  0
  147.6341  140.0720  152.9932 H   0  0  0  0  0  0  0  0  0  0  0  0
  149.7332  138.9839  153.0404 H   0  0  0  0  0  0  0  0  0  0  0  0
  151.3438  137.0455  157.8027 H   0  0  0  0  0  0  0  0  0  0  0  0
  152.3826  137.1074  156.4391 H   0  0  0  0  0  0  0  0  0  0  0  0
  151.0699  139.8599  158.3513 H   0  0  0  0  0  0  0  0  0  0  0  0
  153.5793  141.2340  158.4580 H   0  0  0  0  0  0  0  0  0  0  0  0
  152.5738  139.9268  161.0320 H   0  0  0  0  0  0  0  0  0  0  0  0
  154.0767  139.5633  160.2184 H   0  0  0  0  0  0  0  0  0  0  0  0
  154.4448  141.1045  162.1311 H   0  0  0  0  0  0  0  0  0  0  0  0
  154.9123  141.8505  160.6207 H   0  0  0  0  0  0  0  0  0  0  0  0
  152.2833  142.2971  162.1135 H   0  0  0  0  0  0  0  0  0  0  0  0
  153.6030  143.4338  161.9890 H   0  0  0  0  0  0  0  0  0  0  0  0
  153.2965  143.5960  159.5503 H   0  0  0  0  0  0  0  0  0  0  0  0
  150.6385  144.0208  160.9987 H   0  0  0  0  0  0  0  0  0  0  0  0
  151.2145  144.8986  159.5813 H   0  0  0  0  0  0  0  0  0  0  0  0
  152.0252  145.0979  161.1170 H   0  0  0  0  0  0  0  0  0  0  0  0
  150.9488  141.6951  159.9131 H   0  0  0  0  0  0  0  0  0  0  0  0
  152.0029  143.0203  157.3646 H   0  0  0  0  0  0  0  0  0  0  0  0
  150.4562  143.3521  158.1412 H   0  0  0  0  0  0  0  0  0  0  0  0
  150.7387  141.7984  157.4106 H   0  0  0  0  0  0  0  0  0  0  0  0
  1  2  1  0  0  0  0
  1 26  1  0  0  0  0
  1 27  1  0  0  0  0
  1 28  1  0  0  0  0
  2  3  1  0  0  0  0
  3  4  1  0  0  0  0
  3 29  1  0  0  0  0
  3 30  1  0  0  0  0
  4  5  1  0  0  0  0
  4 31  1  0  0  0  0
  4 32  1  0  0  0  0
  5 24  1  0  0  0  0
  5  6  1  0  0  0  0
  6  7  1  0  0  0  0
  6  8  2  0  0  0  0
  7 33  1  0  0  0  0
  7 34  1  0  0  0  0
  8  9  1  0  0  0  0
  8 35  1  0  0  0  0
  9 10  2  0  0  0  0
  9 11  1  0  0  0  0
 11 12  1  0  0  0  0
 11 24  1  0  0  0  0
 12 13  1  0  0  0  0
 12 36  1  0  0  0  0
 12 37  1  0  0  0  0
 13 14  2  0  0  0  0
 13 15  1  0  0  0  0
 15 16  1  0  0  0  0
 15 38  1  0  0  0  0
 16 22  1  0  0  0  0
 16 17  1  0  0  0  0
 16 39  1  0  0  0  0
 17 18  1  0  0  0  0
 17 40  1  0  0  0  0
 17 41  1  0  0  0  0
 18 19  1  0  0  0  0
 18 42  1  0  0  0  0
 18 43  1  0  0  0  0
 19 20  1  0  0  0  0
 19 44  1  0  0  0  0
 19 45  1  0  0  0  0
 20 21  1  0  0  0  0
 20 22  1  0  0  0  0
 20 46  1  0  0  0  0
 21 47  1  0  0  0  0
 21 48  1  0  0  0  0
 21 49  1  0  0  0  0
 22 23  1  0  0  0  0
 22 50  1  0  0  0  0
 23 51  1  0  0  0  0
 23 52  1  0  0  0  0
 23 53  1  0  0  0  0
 24 25  2  0  0  0  0
M  END
> <s_m_source_file>
AV-unprocessed.smi

> <i_m_source_file_index>
415

> <i_lp_mmshare_version>
43012

> <i_f3d_flags>
0

> <s_epik_input>
W0NIM11PW0NIMl1bQ0gyXW4xYyhbTkgyXSlbY0hdYyg9TyluKGMxPU8pW0NIMl1DKD1PKVtOSF1bQ0BASF0yW0NIMl1bQ0gyXVtDSDJdW0NAQEhdKFtDSDNdKVtDQEhdMltDSDNd

> <s_epik_cmdline>
J2VwaWtfcHl0aG9uJywgJy1waCcsICc3LjAnLCAnLXRuJywgJzgnLCAnLW1hJywgJzIwMCcsICctbWV0YWxfYmluZGluZycsICctaW1hZScsICc8aW5maWxlLm1hZT4nLCAnLW9tYWUnLCAnPG91dGZpbGUubWFlPic=

> <r_lp_tautomer_probability>
1

> <r_epik_Ionization_Penalty>
8.6647e-06

> <r_epik_Ionization_Penalty_Charging>
1.81162e-08

> <r_epik_Ionization_Penalty_Neutral>
8.64658e-06

> <r_epik_State_Penalty>
-0

> <r_epik_Charging_Adjusted_Penalty>
1.81162e-08

> <i_epik_Tot_Q>
0

> <i_epik_Tot_abs_Q>
0

> <r_epik_Metal_State_Penalty>
-0

> <b_epik_Metal_Only>
0

> <s_lp_Force_Field>
OPLS_2005

> <r_lp_Energy>
21.9512

> <b_lp_Chiralities_Consistent>
1

> <s_lp_Variant>
AV-unprocessed.smi:415-3

> <Gold.Version>
5.8.1

> <Gold.Id.Protein>
6NUR|6NUR_protein|mol2

> <Gold.PLP.Fitness>
46.4170

> <Gold.PLP.PLP>
-39.8439

> <Gold.PLP.part.hbond>
-3.0000

> <Gold.PLP.part.metal>
0.0000

> <Gold.PLP.part.buried>
-5.8592

> <Gold.PLP.part.nonpolar>
-30.4749

> <Gold.PLP.part.repulsive>
0.3416

> <Gold.PLP.ligand.clash>
0.0000

> <Gold.PLP.ligand.torsion>
0.5958

> <Gold.PLP.Chemscore.Hbond>
2.5680

> <Gold.PLP.Chemscore.CHOScore>
0.0000

> <Gold.PLP.Chemscore.Metal>
0.0000

> <Gold.Chemscore.Hbonds>
donor molecule, donor type, donor heavy atom, donor atom, acceptor molecule, acceptor atom, score
      P1  H  6934  6946       L1     2  0.01
      P1  H  7997  8010       L1    14  0.96

> <Gold.PLP.Chemscore.Internal.Correction>
0.0607

> <Gold.Rescore>
     Score         DG    S(hbond)    S(metal)    S(lipo)     H(rot)  DE(clash)    DE(int)     intcor
     16.54     -18.67       2.34        0.00      95.37       2.26       0.01       2.13       ----

> <Gold.Chemscore.Fitness>
16.5376

> <Gold.Chemscore.DG>
-18.6694

> <Gold.Chemscore.ZeroCoef>
-5.4800

> <Gold.Chemscore.Hbond>
2.3437

> <Gold.Chemscore.Metal>
0.0000

> <Gold.Chemscore.Lipo>
95.3717

> <Gold.Chemscore.Internal_Hbond>
0.0000

> <Gold.Chemscore.DEClash>
0.0060

> <Gold.Chemscore.DEInternal>
2.1259

> <Gold.Chemscore.Rot>
2.2645

> <Gold.Chemscore.Internal.Correction>
   9.000000E+99

> <Gold.Chemscore.Hbonds>
donor molecule, donor type, donor heavy atom, donor atom, acceptor molecule, acceptor atom, score
      P1  H  7997  8010       L1    14  0.84
      P1  H 10752 10765       L1    10  0.03

> <Gold.Chemscore.Hbond.Weighted>
-7.8281

> <Gold.Chemscore.Metal.Weighted>
-0.0000

> <Gold.Chemscore.Lipo.Weighted>
-11.1585

> <Gold.Chemscore.Internal_Hbond.Weighted>
0.0000

> <Gold.Chemscore.DEClash.Weighted>
0.0060

> <Gold.Chemscore.DEInternal.Weighted>
2.1259

> <Gold.Chemscore.Rot.Weighted>
5.7972

> <Gold.Chemscore.Internal.Correction.Weighted>
   9.000000E+99

> <Gold.Protein.RotatedTorsions>
[ 6907 6896 6895 6894 ] final -157.11 input  -60.11 | X-H torsion
[ 7974 7965 7964 7962 ] final -127.68 input  175.53 | X-H torsion
[ 8008 7997 7996 7995 ] final   14.00 input   59.86 | X-H torsion
[ 10167 10162 10161 10158 ] final   80.57 input  -65.29 | X-H torsion
[ 10718 10713 10712 10709 ] final  -75.29 input   66.30 | X-H torsion
[ 10763 10752 10751 10750 ] final  151.67 input  -60.55 | X-H torsion
[ 11005 11000 10999 10996 ] final -105.45 input  -57.11 | X-H torsion

> <Gold.Protein.ActiveResidues>
 VAL166  LYS551  ARG553  GLY616  TRP617  ASP618  TYR619  PRO620  LYS621  CYS622 
 ASP623  PHE694  ASN695  SER759  ASP760  ASP761  ALA762  ILE779  LEU786  VAL792 
 PHE793  MET794  SER795  GLU796  ALA797  LYS798  CYS799  TRP800  GLU811  SER814 

> <Gold.Protein.RotatedAtoms>
  151.2979  133.4135  159.2637 H   0  0  0  0  0  0  0  0  0  0  0  0  # atno 6907 bound_to 6896
  151.0221  134.9477  159.8075 H   0  0  0  0  0  0  0  0  0  0  0  0  # atno 6908 bound_to 6896
  152.5326  134.2942  159.9107 H   0  0  0  0  0  0  0  0  0  0  0  0  # atno 6909 bound_to 6896
  144.9747  140.7580  143.4649 H   0  0  0  0  0  0  0  0  0  0  0  0  # atno 7974 bound_to 7965
  154.8423  140.2916  155.5651 H   0  0  0  0  0  0  0  0  0  0  0  0  # atno 8008 bound_to 7997
  156.3012  140.2511  156.3299 H   0  0  0  0  0  0  0  0  0  0  0  0  # atno 8009 bound_to 7997
  154.9112  140.0388  157.1936 H   0  0  0  0  0  0  0  0  0  0  0  0  # atno 8010 bound_to 7997
  139.9484  144.6043  150.8184 H   0  0  0  0  0  0  0  0  0  0  0  0  # atno 10167 bound_to 10162
  156.0213  130.4437  150.3020 H   0  0  0  0  0  0  0  0  0  0  0  0  # atno 10718 bound_to 10713
  154.1076  135.2841  155.3238 H   0  0  0  0  0  0  0  0  0  0  0  0  # atno 10763 bound_to 10752
  154.6512  135.5368  153.7907 H   0  0  0  0  0  0  0  0  0  0  0  0  # atno 10764 bound_to 10752
  153.0357  135.6510  154.1236 H   0  0  0  0  0  0  0  0  0  0  0  0  # atno 10765 bound_to 10752
  141.1053  133.8809  157.1736 H   0  0  0  0  0  0  0  0  0  0  0  0  # atno 11005 bound_to 11000
  145.2508  139.2032  143.4943 LP  0  0  0  0  0  0  0  0  0  0  0  0  # atno 17320 bound_to 7965
  146.3392  140.2421  142.8596 LP  0  0  0  0  0  0  0  0  0  0  0  0  # atno 17321 bound_to 7965
  140.7590  143.3120  151.2823 LP  0  0  0  0  0  0  0  0  0  0  0  0  # atno 17342 bound_to 10162
  139.6648  144.0125  152.2716 LP  0  0  0  0  0  0  0  0  0  0  0  0  # atno 17343 bound_to 10162
  157.1123  131.0224  151.3043 LP  0  0  0  0  0  0  0  0  0  0  0  0  # atno 17370 bound_to 10713
  157.4695  130.7700  149.7310 LP  0  0  0  0  0  0  0  0  0  0  0  0  # atno 17371 bound_to 10713
  139.9920  135.0061  156.9997 LP  0  0  0  0  0  0  0  0  0  0  0  0  # atno 17394 bound_to 11000
  140.4919  134.1185  155.7234 LP  0  0  0  0  0  0  0  0  0  0  0  0  # atno 17395 bound_to 11000

$$$$
