AV-unprocessed.smi:1503|AV-procd|sdf|6070|dock10
  -GOLD-   22720 6193D 1   1.00000     0.00000
 Structure written by MMmdl.
 43 44  0  0  0  0  0  0  0  0  2 V2000
  144.6581  134.6980  150.5873 C   0  0  0  0  0  0  0  0  0  0  0  0
  145.2108  135.7702  151.1796 C   0  0  0  0  0  0  0  0  0  0  0  0
  144.4857  136.8554  151.9634 C   0  0  0  0  0  0  0  0  0  0  0  0
  145.3386  137.6104  152.8783 N   0  0  0  0  0  0  0  0  0  0  0  0
  146.4333  138.3018  152.5240 C   0  0  0  0  0  0  0  0  0  0  0  0
  146.8501  138.3560  151.3663 O   0  0  0  0  0  0  0  0  0  0  0  0
  147.1549  139.0416  153.6548 C   0  0  0  0  0  0  0  0  0  0  0  0
  148.5614  139.5358  153.2645 C   0  0  0  0  0  0  0  0  0  0  0  0
  149.2519  140.2680  154.4135 C   0  0  0  0  0  0  0  0  0  0  0  0
  148.7589  141.4050  154.9799 C   0  0  0  0  0  0  0  0  0  0  0  0
  147.4797  142.0764  154.5127 C   0  0  0  0  0  0  0  0  0  0  0  0
  149.4256  142.0298  156.0447 N   0  0  0  0  0  0  0  0  0  0  0  0
  150.5294  141.5275  156.5113 C   0  0  0  0  0  0  0  0  0  0  0  0
  151.2191  142.1163  157.5766 N   0  0  0  0  0  0  0  0  0  0  0  0
  152.1931  141.3598  158.3685 C   0  0  0  0  0  0  0  0  0  0  0  0
  152.3693  141.9682  159.7696 C   0  0  0  0  0  0  0  0  0  0  0  0
  152.7335  143.3372  159.6559 O   0  0  0  0  0  0  0  0  0  0  0  0
  151.7220  144.0865  158.9967 C   0  0  0  0  0  0  0  0  0  0  0  0
  151.5217  143.5482  157.5703 C   0  0  0  0  0  0  0  0  0  0  0  0
  151.0928  140.3705  155.9961 N   0  5  0  0  0  0  0  0  0  0  0  0
  150.5042  139.7143  154.9565 C   0  0  0  0  0  0  0  0  0  0  0  0
  150.9904  138.6938  154.4705 O   0  0  0  0  0  0  0  0  0  0  0  0
  143.5957  134.5065  150.6217 H   0  0  0  0  0  0  0  0  0  0  0  0
  145.2732  133.9889  150.0531 H   0  0  0  0  0  0  0  0  0  0  0  0
  146.2806  135.8989  151.1032 H   0  0  0  0  0  0  0  0  0  0  0  0
  143.9920  137.5291  151.2615 H   0  0  0  0  0  0  0  0  0  0  0  0
  143.6945  136.3849  152.5470 H   0  0  0  0  0  0  0  0  0  0  0  0
  145.0690  137.6189  153.8515 H   0  0  0  0  0  0  0  0  0  0  0  0
  146.5342  139.8848  153.9596 H   0  0  0  0  0  0  0  0  0  0  0  0
  147.2300  138.3809  154.5198 H   0  0  0  0  0  0  0  0  0  0  0  0
  149.1712  138.6922  152.9406 H   0  0  0  0  0  0  0  0  0  0  0  0
  148.5086  140.1963  152.3975 H   0  0  0  0  0  0  0  0  0  0  0  0
  147.4952  142.2275  153.4331 H   0  0  0  0  0  0  0  0  0  0  0  0
  147.3508  143.0516  154.9835 H   0  0  0  0  0  0  0  0  0  0  0  0
  146.6154  141.4624  154.7660 H   0  0  0  0  0  0  0  0  0  0  0  0
  151.9032  140.3145  158.4760 H   0  0  0  0  0  0  0  0  0  0  0  0
  153.1474  141.3640  157.8405 H   0  0  0  0  0  0  0  0  0  0  0  0
  151.4531  141.8682  160.3541 H   0  0  0  0  0  0  0  0  0  0  0  0
  153.1520  141.4379  160.3119 H   0  0  0  0  0  0  0  0  0  0  0  0
  150.7905  144.0407  159.5636 H   0  0  0  0  0  0  0  0  0  0  0  0
  152.0221  145.1339  158.9626 H   0  0  0  0  0  0  0  0  0  0  0  0
  152.4216  143.7158  156.9772 H   0  0  0  0  0  0  0  0  0  0  0  0
  150.7162  144.1075  157.0927 H   0  0  0  0  0  0  0  0  0  0  0  0
  1  2  2  0  0  0  0
  1 23  1  0  0  0  0
  1 24  1  0  0  0  0
  2  3  1  0  0  0  0
  2 25  1  0  0  0  0
  3  4  1  0  0  0  0
  3 26  1  0  0  0  0
  3 27  1  0  0  0  0
  4  5  1  0  0  0  0
  4 28  1  0  0  0  0
  5  6  2  0  0  0  0
  5  7  1  0  0  0  0
  7  8  1  0  0  0  0
  7 29  1  0  0  0  0
  7 30  1  0  0  0  0
  8  9  1  0  0  0  0
  8 31  1  0  0  0  0
  8 32  1  0  0  0  0
  9 21  1  0  0  0  0
  9 10  2  0  0  0  0
 10 11  1  0  0  0  0
 10 12  1  0  0  0  0
 11 33  1  0  0  0  0
 11 34  1  0  0  0  0
 11 35  1  0  0  0  0
 12 13  2  0  0  0  0
 13 14  1  0  0  0  0
 13 20  1  0  0  0  0
 14 19  1  0  0  0  0
 14 15  1  0  0  0  0
 15 16  1  0  0  0  0
 15 36  1  0  0  0  0
 15 37  1  0  0  0  0
 16 17  1  0  0  0  0
 16 38  1  0  0  0  0
 16 39  1  0  0  0  0
 17 18  1  0  0  0  0
 18 19  1  0  0  0  0
 18 40  1  0  0  0  0
 18 41  1  0  0  0  0
 19 42  1  0  0  0  0
 19 43  1  0  0  0  0
 20 21  1  0  0  0  0
 21 22  2  0  0  0  0
M  CHG  1  20  -1
M  END
> <s_m_source_file>
AV-unprocessed.smi

> <i_m_source_file_index>
1503

> <i_lp_mmshare_version>
43012

> <i_f3d_flags>
0

> <s_epik_input>
W0NIMl09W0NIXVtDSDJdW05IXUMoPU8pW0NIMl1bQ0gyXWMxYyhbQ0gzXSluYyhbbkhdYzE9TylOMltDSDJdW0NIMl1PW0NIMl1bQ0gyXTI=

> <s_epik_cmdline>
J2VwaWtfcHl0aG9uJywgJy1waCcsICc3LjAnLCAnLXRuJywgJzgnLCAnLW1hJywgJzIwMCcsICctbWV0YWxfYmluZGluZycsICctaW1hZScsICc8aW5maWxlLm1hZT4nLCAnLW9tYWUnLCAnPG91dGZpbGUubWFlPic=

> <r_lp_tautomer_probability>
1

> <r_epik_Ionization_Penalty>
5.02457

> <r_epik_Ionization_Penalty_Charging>
9.64055e-08

> <r_epik_Ionization_Penalty_Neutral>
5.02457

> <r_epik_State_Penalty>
2.56428

> <r_epik_Charging_Adjusted_Penalty>
2.56428

> <i_epik_Tot_Q>
-1

> <i_epik_Tot_abs_Q>
1

> <r_epik_Metal_State_Penalty>
0.122481

> <b_epik_Metal_Only>
0

> <s_lp_Force_Field>
OPLS_2005

> <r_lp_Energy>
26.3767

> <b_lp_Chiralities_Consistent>
1

> <s_lp_Variant>
AV-unprocessed.smi:1503-3

> <Gold.Version>
5.8.1

> <Gold.Id.Protein>
6NUR|6NUR_protein|mol2

> <Gold.PLP.Fitness>
39.2816

> <Gold.PLP.PLP>
-37.7156

> <Gold.PLP.part.hbond>
-1.1478

> <Gold.PLP.part.metal>
0.0000

> <Gold.PLP.part.buried>
1.5061

> <Gold.PLP.part.nonpolar>
-40.9782

> <Gold.PLP.part.repulsive>
3.4348

> <Gold.PLP.ligand.clash>
0.0000

> <Gold.PLP.ligand.torsion>
0.8212

> <Gold.PLP.Chemscore.Hbond>
0.9913

> <Gold.PLP.Chemscore.CHOScore>
0.0000

> <Gold.PLP.Chemscore.Metal>
0.0000

> <Gold.Chemscore.Hbonds>
donor molecule, donor type, donor heavy atom, donor atom, acceptor molecule, acceptor atom, score
      P1  H  7954  7966       L1     6  0.99

> <Gold.PLP.Chemscore.Internal.Correction>
0.2348

> <Gold.Rescore>
     Score         DG    S(hbond)    S(metal)    S(lipo)     H(rot)  DE(clash)    DE(int)     intcor
      9.97     -14.65       0.96        0.00      92.04       1.87       3.99       0.69       ----

> <Gold.Chemscore.Fitness>
9.9745

> <Gold.Chemscore.DG>
-14.6487

> <Gold.Chemscore.ZeroCoef>
-5.4800

> <Gold.Chemscore.Hbond>
0.9564

> <Gold.Chemscore.Metal>
0.0000

> <Gold.Chemscore.Lipo>
92.0385

> <Gold.Chemscore.Internal_Hbond>
0.0000

> <Gold.Chemscore.DEClash>
3.9866

> <Gold.Chemscore.DEInternal>
0.6876

> <Gold.Chemscore.Rot>
1.8727

> <Gold.Chemscore.Internal.Correction>
   9.000000E+99

> <Gold.Chemscore.Hbonds>
donor molecule, donor type, donor heavy atom, donor atom, acceptor molecule, acceptor atom, score
      P1  H  7954  7966       L1     6  0.93

> <Gold.Chemscore.Hbond.Weighted>
-3.1944

> <Gold.Chemscore.Metal.Weighted>
-0.0000

> <Gold.Chemscore.Lipo.Weighted>
-10.7685

> <Gold.Chemscore.Internal_Hbond.Weighted>
0.0000

> <Gold.Chemscore.DEClash.Weighted>
3.9866

> <Gold.Chemscore.DEInternal.Weighted>
0.6876

> <Gold.Chemscore.Rot.Weighted>
4.7942

> <Gold.Chemscore.Internal.Correction.Weighted>
   9.000000E+99

> <Gold.Protein.RotatedTorsions>
[ 6907 6896 6895 6894 ] final  -53.02 input  -60.11 | X-H torsion
[ 7974 7965 7964 7962 ] final  -91.97 input  175.53 | X-H torsion
[ 8008 7997 7996 7995 ] final   42.53 input   59.86 | X-H torsion
[ 10167 10162 10161 10158 ] final  -13.11 input  -65.29 | X-H torsion
[ 10718 10713 10712 10709 ] final  -23.07 input   66.30 | X-H torsion
[ 10763 10752 10751 10750 ] final   50.27 input  -60.55 | X-H torsion
[ 11005 11000 10999 10996 ] final -175.49 input  -57.11 | X-H torsion

> <Gold.Protein.ActiveResidues>
 VAL166  LYS551  ARG553  GLY616  TRP617  ASP618  TYR619  PRO620  LYS621  CYS622 
 ASP623  PHE694  ASN695  SER759  ASP760  ASP761  ALA762  ILE779  LEU786  VAL792 
 PHE793  MET794  SER795  GLU796  ALA797  LYS798  CYS799  TRP800  GLU811  SER814 

> <Gold.Protein.RotatedAtoms>
  150.8465  134.7775  159.6973 H   0  0  0  0  0  0  0  0  0  0  0  0  # atno 6907 bound_to 6896
  152.4540  134.5328  159.9826 H   0  0  0  0  0  0  0  0  0  0  0  0  # atno 6908 bound_to 6896
  151.5458  133.3387  159.2979 H   0  0  0  0  0  0  0  0  0  0  0  0  # atno 6909 bound_to 6896
  145.4060  140.9541  143.2260 H   0  0  0  0  0  0  0  0  0  0  0  0  # atno 7974 bound_to 7965
  155.2878  140.3377  155.4254 H   0  0  0  0  0  0  0  0  0  0  0  0  # atno 8008 bound_to 7997
  156.2060  140.1751  156.7839 H   0  0  0  0  0  0  0  0  0  0  0  0  # atno 8009 bound_to 7997
  154.5621  140.0685  156.8820 H   0  0  0  0  0  0  0  0  0  0  0  0  # atno 8010 bound_to 7997
  140.7175  143.5461  150.9354 H   0  0  0  0  0  0  0  0  0  0  0  0  # atno 10167 bound_to 10162
  156.4959  130.4577  149.6728 H   0  0  0  0  0  0  0  0  0  0  0  0  # atno 10718 bound_to 10713
  152.9785  135.5884  154.4224 H   0  0  0  0  0  0  0  0  0  0  0  0  # atno 10763 bound_to 10752
  154.3847  135.2767  155.2192 H   0  0  0  0  0  0  0  0  0  0  0  0  # atno 10764 bound_to 10752
  154.4091  135.6085  153.5996 H   0  0  0  0  0  0  0  0  0  0  0  0  # atno 10765 bound_to 10752
  140.4627  134.6239  157.4849 H   0  0  0  0  0  0  0  0  0  0  0  0  # atno 11005 bound_to 11000
  144.8341  139.5579  143.6930 LP  0  0  0  0  0  0  0  0  0  0  0  0  # atno 17320 bound_to 7965
  146.2728  139.6678  142.9284 LP  0  0  0  0  0  0  0  0  0  0  0  0  # atno 17321 bound_to 7965
  139.9185  143.6635  152.3101 LP  0  0  0  0  0  0  0  0  0  0  0  0  # atno 17342 bound_to 10162
  139.7043  144.7630  151.1220 LP  0  0  0  0  0  0  0  0  0  0  0  0  # atno 17343 bound_to 10162
  156.3380  130.7367  151.2307 LP  0  0  0  0  0  0  0  0  0  0  0  0  # atno 17370 bound_to 10713
  157.7468  131.0411  150.4632 LP  0  0  0  0  0  0  0  0  0  0  0  0  # atno 17371 bound_to 10713
  139.9935  134.6948  155.9649 LP  0  0  0  0  0  0  0  0  0  0  0  0  # atno 17394 bound_to 11000
  141.1614  133.6539  156.4330 LP  0  0  0  0  0  0  0  0  0  0  0  0  # atno 17395 bound_to 11000

$$$$
