AV-unprocessed.smi:1349|AV-procd|sdf|5519|dock1
  -GOLD-   22720 5103D 1   1.00000     0.00000
 Structure written by MMmdl.
 43 45  0  0  0  0  0  0  0  0  2 V2000
  149.0092  141.1313  153.1560 O   0  0  0  0  0  0  0  0  0  0  0  0
  148.4734  140.6219  154.3590 C   0  0  0  0  0  0  0  0  0  0  0  0
  149.0308  141.3934  155.5639 C   0  0  0  0  0  0  0  0  0  0  0  0
  150.5432  141.2002  155.7593 C   0  0  0  0  0  0  0  0  0  0  0  0
  151.0223  141.8619  157.0103 C   0  0  0  0  0  0  0  0  0  0  0  0
  150.7032  143.1227  157.4180 N   0  3  0  0  0  0  0  0  0  0  0  0
  151.3274  143.3981  158.6353 C   0  0  0  0  0  0  0  0  0  0  0  0
  151.3082  144.5384  159.4325 C   0  0  0  0  0  0  0  0  0  0  0  0
  152.0634  144.4911  160.6230 C   0  0  0  0  0  0  0  0  0  0  0  0
  152.7995  143.3425  160.9805 C   0  0  0  0  0  0  0  0  0  0  0  0
  152.8108  142.1920  160.1642 C   0  0  0  0  0  0  0  0  0  0  0  0
  152.0599  142.2470  158.9903 C   0  0  0  0  0  0  0  0  0  0  0  0
  151.8376  141.3240  157.9631 N   0  0  0  0  0  0  0  0  0  0  0  0
  152.4779  140.0024  158.0358 C   0  0  0  0  0  0  0  0  0  0  0  0
  151.9703  139.1774  159.2268 C   0  0  0  0  0  0  0  0  0  0  0  0
  150.6306  138.7752  158.9731 O   0  0  0  0  0  0  0  0  0  0  0  0
  150.4161  137.5779  158.3266 C   0  0  0  0  0  0  0  0  0  0  0  0
  149.1955  136.9216  158.5877 C   0  0  0  0  0  0  0  0  0  0  0  0
  148.8899  135.6946  157.9681 C   0  0  0  0  0  0  0  0  0  0  0  0
  149.8084  135.1087  157.0775 C   0  0  0  0  0  0  0  0  0  0  0  0
  151.0314  135.7513  156.8098 C   0  0  0  0  0  0  0  0  0  0  0  0
  151.3368  136.9790  157.4298 C   0  0  0  0  0  0  0  0  0  0  0  0
  149.2651  140.4048  152.6082 H   0  0  0  0  0  0  0  0  0  0  0  0
  147.3849  140.6799  154.3283 H   0  0  0  0  0  0  0  0  0  0  0  0
  148.7388  139.5671  154.4349 H   0  0  0  0  0  0  0  0  0  0  0  0
  148.8252  142.4554  155.4249 H   0  0  0  0  0  0  0  0  0  0  0  0
  148.4948  141.0959  156.4663 H   0  0  0  0  0  0  0  0  0  0  0  0
  150.7916  140.1395  155.8010 H   0  0  0  0  0  0  0  0  0  0  0  0
  151.0880  141.6124  154.9094 H   0  0  0  0  0  0  0  0  0  0  0  0
  150.7464  145.4196  159.1594 H   0  0  0  0  0  0  0  0  0  0  0  0
  152.0791  145.3531  161.2739 H   0  0  0  0  0  0  0  0  0  0  0  0
  153.3676  143.3433  161.8995 H   0  0  0  0  0  0  0  0  0  0  0  0
  153.3791  141.3179  160.4456 H   0  0  0  0  0  0  0  0  0  0  0  0
  152.3155  139.4767  157.0945 H   0  0  0  0  0  0  0  0  0  0  0  0
  153.5538  140.1565  158.1211 H   0  0  0  0  0  0  0  0  0  0  0  0
  152.6071  138.3022  159.3650 H   0  0  0  0  0  0  0  0  0  0  0  0
  152.0204  139.7783  160.1359 H   0  0  0  0  0  0  0  0  0  0  0  0
  148.4851  137.3645  159.2706 H   0  0  0  0  0  0  0  0  0  0  0  0
  147.9509  135.2032  158.1768 H   0  0  0  0  0  0  0  0  0  0  0  0
  149.5754  134.1678  156.6010 H   0  0  0  0  0  0  0  0  0  0  0  0
  151.7377  135.3021  156.1274 H   0  0  0  0  0  0  0  0  0  0  0  0
  152.2852  137.4409  157.2010 H   0  0  0  0  0  0  0  0  0  0  0  0
  150.1043  143.7494  156.8960 H   0  0  0  0  0  0  0  0  0  0  0  0
  1  2  1  0  0  0  0
  1 23  1  0  0  0  0
  2  3  1  0  0  0  0
  2 24  1  0  0  0  0
  2 25  1  0  0  0  0
  3  4  1  0  0  0  0
  3 26  1  0  0  0  0
  3 27  1  0  0  0  0
  4  5  1  0  0  0  0
  4 28  1  0  0  0  0
  4 29  1  0  0  0  0
  5 13  1  0  0  0  0
  5  6  2  0  0  0  0
  6  7  1  0  0  0  0
  6 43  1  0  0  0  0
  7 12  2  0  0  0  0
  7  8  1  0  0  0  0
  8  9  2  0  0  0  0
  8 30  1  0  0  0  0
  9 10  1  0  0  0  0
  9 31  1  0  0  0  0
 10 11  2  0  0  0  0
 10 32  1  0  0  0  0
 11 12  1  0  0  0  0
 11 33  1  0  0  0  0
 12 13  1  0  0  0  0
 13 14  1  0  0  0  0
 14 15  1  0  0  0  0
 14 34  1  0  0  0  0
 14 35  1  0  0  0  0
 15 16  1  0  0  0  0
 15 36  1  0  0  0  0
 15 37  1  0  0  0  0
 16 17  1  0  0  0  0
 17 22  1  0  0  0  0
 17 18  2  0  0  0  0
 18 19  1  0  0  0  0
 18 38  1  0  0  0  0
 19 20  2  0  0  0  0
 19 39  1  0  0  0  0
 20 21  1  0  0  0  0
 20 40  1  0  0  0  0
 21 22  2  0  0  0  0
 21 41  1  0  0  0  0
 22 42  1  0  0  0  0
M  CHG  1   6   1
M  END
> <s_m_source_file>
AV-unprocessed.smi

> <i_m_source_file_index>
1349

> <i_lp_mmshare_version>
43012

> <i_f3d_flags>
0

> <s_epik_input>
W09IXVtDSDJdW0NIMl1bQ0gyXWMobjEpbihjKGMxMilbY0hdW2NIXVtjSF1bY0hdMilbQ0gyXVtDSDJdT2MzW2NIXVtjSF1bY0hdW2NIXVtjSF0z

> <s_epik_cmdline>
J2VwaWtfcHl0aG9uJywgJy1waCcsICc3LjAnLCAnLXRuJywgJzgnLCAnLW1hJywgJzIwMCcsICctbWV0YWxfYmluZGluZycsICctaW1hZScsICc8aW5maWxlLm1hZT4nLCAnLW9tYWUnLCAnPG91dGZpbGUubWFlPic=

> <r_lp_tautomer_probability>
1

> <r_epik_Ionization_Penalty>
0.856072

> <r_epik_Ionization_Penalty_Charging>
0.856072

> <r_epik_Ionization_Penalty_Neutral>
1.64909e-07

> <r_epik_State_Penalty>
0.892118

> <r_epik_Charging_Adjusted_Penalty>
1.74819

> <i_epik_Tot_Q>
1

> <i_epik_Tot_abs_Q>
1

> <r_epik_Metal_State_Penalty>
4.83641

> <b_epik_Metal_Only>
0

> <s_lp_Force_Field>
OPLS_2005

> <r_lp_Energy>
19.1857

> <b_lp_Chiralities_Consistent>
1

> <s_lp_Variant>
AV-unprocessed.smi:1349-2

> <Gold.Version>
5.8.1

> <Gold.Id.Protein>
6NUR|6NUR_protein|mol2

> <Gold.PLP.Fitness>
54.4547

> <Gold.PLP.PLP>
-44.0654

> <Gold.PLP.part.hbond>
-3.6504

> <Gold.PLP.part.metal>
0.0000

> <Gold.PLP.part.buried>
-6.3321

> <Gold.PLP.part.nonpolar>
-34.1191

> <Gold.PLP.part.repulsive>
0.0046

> <Gold.PLP.ligand.clash>
0.0000

> <Gold.PLP.ligand.torsion>
0.7708

> <Gold.PLP.Chemscore.Hbond>
3.8320

> <Gold.PLP.Chemscore.CHOScore>
0.0000

> <Gold.PLP.Chemscore.Metal>
0.0000

> <Gold.Chemscore.Hbonds>
donor molecule, donor type, donor heavy atom, donor atom, acceptor molecule, acceptor atom, score
      L1  H     1    23       P1  7957  0.83
      L1  H     6    43       P1  8028  2.00
      P1  H  8011  8017       L1     1  1.00

> <Gold.PLP.Chemscore.Internal.Correction>
0.4349

> <Gold.Rescore>
     Score         DG    S(hbond)    S(metal)    S(lipo)     H(rot)  DE(clash)    DE(int)     intcor
     19.39     -20.45       2.30        0.00     117.28       2.51       0.13       0.94       ----

> <Gold.Chemscore.Fitness>
19.3907

> <Gold.Chemscore.DG>
-20.4537

> <Gold.Chemscore.ZeroCoef>
-5.4800

> <Gold.Chemscore.Hbond>
2.3006

> <Gold.Chemscore.Metal>
0.0000

> <Gold.Chemscore.Lipo>
117.2751

> <Gold.Chemscore.Internal_Hbond>
0.0000

> <Gold.Chemscore.DEClash>
0.1250

> <Gold.Chemscore.DEInternal>
0.9380

> <Gold.Chemscore.Rot>
2.5123

> <Gold.Chemscore.Internal.Correction>
   9.000000E+99

> <Gold.Chemscore.Hbonds>
donor molecule, donor type, donor heavy atom, donor atom, acceptor molecule, acceptor atom, score
      L1  H     1    23       P1  7957  0.78
      L1  H     6    43       P1  8028  0.97
      P1  H  8011  8017       L1     1  0.25

> <Gold.Chemscore.Hbond.Weighted>
-7.6839

> <Gold.Chemscore.Metal.Weighted>
-0.0000

> <Gold.Chemscore.Lipo.Weighted>
-13.7212

> <Gold.Chemscore.Internal_Hbond.Weighted>
0.0000

> <Gold.Chemscore.DEClash.Weighted>
0.1250

> <Gold.Chemscore.DEInternal.Weighted>
0.9380

> <Gold.Chemscore.Rot.Weighted>
6.4314

> <Gold.Chemscore.Internal.Correction.Weighted>
   9.000000E+99

> <Gold.Protein.RotatedTorsions>
[ 6907 6896 6895 6894 ] final -100.88 input  -60.11 | X-H torsion
[ 7974 7965 7964 7962 ] final  163.16 input  175.53 | X-H torsion
[ 8008 7997 7996 7995 ] final  -61.98 input   59.86 | X-H torsion
[ 10167 10162 10161 10158 ] final  -23.94 input  -65.29 | X-H torsion
[ 10718 10713 10712 10709 ] final   -8.55 input   66.30 | X-H torsion
[ 10763 10752 10751 10750 ] final  132.57 input  -60.55 | X-H torsion
[ 11005 11000 10999 10996 ] final -176.03 input  -57.11 | X-H torsion

> <Gold.Protein.ActiveResidues>
 VAL166  LYS551  ARG553  GLY616  TRP617  ASP618  TYR619  PRO620  LYS621  CYS622 
 ASP623  PHE694  ASN695  SER759  ASP760  ASP761  ALA762  ILE779  LEU786  VAL792 
 PHE793  MET794  SER795  GLU796  ALA797  LYS798  CYS799  TRP800  GLU811  SER814 

> <Gold.Protein.RotatedAtoms>
  150.7133  134.0820  159.3900 H   0  0  0  0  0  0  0  0  0  0  0  0  # atno 6907 bound_to 6896
  151.8804  135.0453  160.0497 H   0  0  0  0  0  0  0  0  0  0  0  0  # atno 6908 bound_to 6896
  152.2572  133.5230  159.5397 H   0  0  0  0  0  0  0  0  0  0  0  0  # atno 6909 bound_to 6896
  144.7603  139.8143  143.6335 H   0  0  0  0  0  0  0  0  0  0  0  0  # atno 7974 bound_to 7965
  154.4476  140.1006  156.6515 H   0  0  0  0  0  0  0  0  0  0  0  0  # atno 8008 bound_to 7997
  155.5392  140.3483  155.4424 H   0  0  0  0  0  0  0  0  0  0  0  0  # atno 8009 bound_to 7997
  156.0609  140.1326  156.9931 H   0  0  0  0  0  0  0  0  0  0  0  0  # atno 8010 bound_to 7997
  140.7288  143.4397  151.0675 H   0  0  0  0  0  0  0  0  0  0  0  0  # atno 10167 bound_to 10162
  156.7010  130.5093  149.5917 H   0  0  0  0  0  0  0  0  0  0  0  0  # atno 10718 bound_to 10713
  153.7929  135.3152  155.3381 H   0  0  0  0  0  0  0  0  0  0  0  0  # atno 10763 bound_to 10752
  154.8119  135.4662  154.0541 H   0  0  0  0  0  0  0  0  0  0  0  0  # atno 10764 bound_to 10752
  153.1865  135.6902  153.8495 H   0  0  0  0  0  0  0  0  0  0  0  0  # atno 10765 bound_to 10752
  140.4567  134.6293  157.4825 H   0  0  0  0  0  0  0  0  0  0  0  0  # atno 11005 bound_to 11000
  146.1658  139.4789  142.9959 LP  0  0  0  0  0  0  0  0  0  0  0  0  # atno 17320 bound_to 7965
  145.6643  141.0233  143.1692 LP  0  0  0  0  0  0  0  0  0  0  0  0  # atno 17321 bound_to 7965
  139.8063  143.8013  152.3167 LP  0  0  0  0  0  0  0  0  0  0  0  0  # atno 17342 bound_to 10162
  139.8047  144.7360  150.9777 LP  0  0  0  0  0  0  0  0  0  0  0  0  # atno 17343 bound_to 10162
  156.1729  130.6449  151.0859 LP  0  0  0  0  0  0  0  0  0  0  0  0  # atno 17370 bound_to 10713
  157.6973  131.0789  150.6930 LP  0  0  0  0  0  0  0  0  0  0  0  0  # atno 17371 bound_to 10713
  139.9972  134.6893  155.9590 LP  0  0  0  0  0  0  0  0  0  0  0  0  # atno 17394 bound_to 11000
  141.1640  133.6537  156.4415 LP  0  0  0  0  0  0  0  0  0  0  0  0  # atno 17395 bound_to 11000

$$$$
