AV-unprocessed.smi:862|AV-procd|sdf|3983|dock1
  -GOLD-   22720 1463D 1   1.00000     0.00000
 Structure written by MMmdl.
 45 47  0  0  0  0  0  0  0  0  3 V2000
  148.8132  130.6687  157.7443 N   0  0  0  0  0  0  0  0  0  0  0  0
  149.6044  131.5818  157.1727 C   0  0  0  0  0  0  0  0  0  0  0  0
  150.3120  132.3214  157.8540 O   0  0  0  0  0  0  0  0  0  0  0  0
  149.5928  131.5907  155.8156 N   0  0  0  0  0  0  0  0  0  0  0  0
  148.6443  130.8691  154.9507 C   0  0  0  0  0  0  0  0  0  0  0  0
  147.6471  131.8788  154.3525 C   0  0  0  0  0  0  0  0  0  0  0  0
  148.3813  132.9972  153.5771 C   0  0  0  0  0  0  0  0  0  0  0  0
  147.4440  134.0520  153.1284 N   0  3  0  0  0  0  0  0  0  0  0  0
  146.7037  133.7783  151.8738 C   0  0  1  0  0  0  0  0  0  0  0  0
  146.3444  132.3019  151.6834 C   0  0  0  0  0  0  0  0  0  0  0  0
  145.1738  132.3052  150.6946 C   0  0  0  0  0  0  0  0  0  0  0  0
  144.4940  133.6766  150.8310 C   0  0  0  0  0  0  0  0  0  0  0  0
  145.3302  134.4674  151.8529 C   0  0  2  0  0  0  0  0  0  0  0  0
  145.3856  135.9131  151.5792 N   0  0  0  0  0  0  0  0  0  0  0  0
  145.9397  136.5193  150.4799 C   0  0  0  0  0  0  0  0  0  0  0  0
  145.7681  137.8695  150.6458 C   0  0  0  0  0  0  0  0  0  0  0  0
  145.1168  138.0337  151.8383 N   0  3  0  0  0  0  0  0  0  0  0  0
  144.8846  136.8450  152.4041 C   0  0  0  0  0  0  0  0  0  0  0  0
  149.4909  133.6201  154.4494 C   0  0  0  0  0  0  0  0  0  0  0  0
  150.4079  132.5343  155.0406 C   0  0  0  0  0  0  0  0  0  0  0  0
  148.7790  130.5992  158.7510 H   0  0  0  0  0  0  0  0  0  0  0  0
  148.2611  130.0473  157.1717 H   0  0  0  0  0  0  0  0  0  0  0  0
  149.1967  130.3727  154.1515 H   0  0  0  0  0  0  0  0  0  0  0  0
  148.0994  130.0748  155.4603 H   0  0  0  0  0  0  0  0  0  0  0  0
  146.9496  131.3507  153.7043 H   0  0  0  0  0  0  0  0  0  0  0  0
  147.0510  132.3143  155.1559 H   0  0  0  0  0  0  0  0  0  0  0  0
  148.8657  132.5566  152.7039 H   0  0  0  0  0  0  0  0  0  0  0  0
  146.7935  134.2572  153.8736 H   0  0  0  0  0  0  0  0  0  0  0  0
  147.2949  134.1138  151.0201 H   0  0  0  0  0  0  0  0  0  0  0  0
  147.1828  131.7082  151.3183 H   0  0  0  0  0  0  0  0  0  0  0  0
  146.0155  131.8706  152.6302 H   0  0  0  0  0  0  0  0  0  0  0  0
  145.5471  132.1816  149.6771 H   0  0  0  0  0  0  0  0  0  0  0  0
  144.4833  131.4834  150.8881 H   0  0  0  0  0  0  0  0  0  0  0  0
  144.4665  134.1650  149.8560 H   0  0  0  0  0  0  0  0  0  0  0  0
  143.4609  133.5790  151.1671 H   0  0  0  0  0  0  0  0  0  0  0  0
  144.8634  134.3404  152.8318 H   0  0  0  0  0  0  0  0  0  0  0  0
  146.4077  135.9620  149.6808 H   0  0  0  0  0  0  0  0  0  0  0  0
  146.0556  138.7040  150.0222 H   0  0  0  0  0  0  0  0  0  0  0  0
  144.3943  136.6754  153.3464 H   0  0  0  0  0  0  0  0  0  0  0  0
  150.0823  134.3209  153.8590 H   0  0  0  0  0  0  0  0  0  0  0  0
  149.0476  134.1971  155.2628 H   0  0  0  0  0  0  0  0  0  0  0  0
  151.1971  132.9949  155.6367 H   0  0  0  0  0  0  0  0  0  0  0  0
  150.9199  131.9970  154.2411 H   0  0  0  0  0  0  0  0  0  0  0  0
  148.0003  134.8779  152.9600 H   0  0  0  0  0  0  0  0  0  0  0  0
  144.8533  138.9256  152.2392 H   0  0  0  0  0  0  0  0  0  0  0  0
  1  2  1  0  0  0  0
  1 21  1  0  0  0  0
  1 22  1  0  0  0  0
  2  3  2  0  0  0  0
  2  4  1  0  0  0  0
  4 20  1  0  0  0  0
  4  5  1  0  0  0  0
  5  6  1  0  0  0  0
  5 23  1  0  0  0  0
  5 24  1  0  0  0  0
  6  7  1  0  0  0  0
  6 25  1  0  0  0  0
  6 26  1  0  0  0  0
  7  8  1  0  0  0  0
  7 19  1  0  0  0  0
  7 27  1  0  0  0  0
  8  9  1  0  0  0  0
  8 28  1  0  0  0  0
  8 44  1  0  0  0  0
  9 13  1  0  0  0  0
  9 10  1  0  0  0  0
  9 29  1  0  0  0  0
 10 11  1  0  0  0  0
 10 30  1  0  0  0  0
 10 31  1  0  0  0  0
 11 12  1  0  0  0  0
 11 32  1  0  0  0  0
 11 33  1  0  0  0  0
 12 13  1  0  0  0  0
 12 34  1  0  0  0  0
 12 35  1  0  0  0  0
 13 14  1  0  0  0  0
 13 36  1  0  0  0  0
 14 18  1  0  0  0  0
 14 15  1  0  0  0  0
 15 16  2  0  0  0  0
 15 37  1  0  0  0  0
 16 17  1  0  0  0  0
 16 38  1  0  0  0  0
 17 18  2  0  0  0  0
 17 45  1  0  0  0  0
 18 39  1  0  0  0  0
 19 20  1  0  0  0  0
 19 40  1  0  0  0  0
 19 41  1  0  0  0  0
 20 42  1  0  0  0  0
 20 43  1  0  0  0  0
M  CHG  1   8   1
M  CHG  1  17   1
M  END
> <s_m_source_file>
AV-unprocessed.smi

> <i_m_source_file_index>
862

> <i_lp_mmshare_version>
43012

> <i_f3d_flags>
0

> <s_epik_input>
W05IMl1DKD1PKU4xW0NIMl1bQ0gyXVtDSF0oW0NIMl1bQ0gyXTEpW05IXVtDQEBIXTJbQ0gyXVtDSDJdW0NIMl1bQ0BIXTJuM1tjSF1bY0hdbltjSF0z

> <s_epik_cmdline>
J2VwaWtfcHl0aG9uJywgJy1waCcsICc3LjAnLCAnLXRuJywgJzgnLCAnLW1hJywgJzIwMCcsICctbWV0YWxfYmluZGluZycsICctaW1hZScsICc8aW5maWxlLm1hZT4nLCAnLW9tYWUnLCAnPG91dGZpbGUubWFlPic=

> <r_lp_tautomer_probability>
1

> <r_epik_Ionization_Penalty>
1.30217

> <r_epik_Ionization_Penalty_Charging>
0.00439521

> <r_epik_Ionization_Penalty_Neutral>
1.29777

> <r_epik_State_Penalty>
0.977606

> <r_epik_Charging_Adjusted_Penalty>
0.982001

> <i_epik_Tot_Q>
2

> <i_epik_Tot_abs_Q>
2

> <r_epik_Metal_State_Penalty>
1.03289

> <b_epik_Metal_Only>
0

> <s_lp_Force_Field>
OPLS_2005

> <r_lp_Energy>
66.2462

> <b_lp_Chiralities_Consistent>
1

> <s_lp_Variant>
AV-unprocessed.smi:862-8

> <Gold.Version>
5.8.1

> <Gold.Id.Protein>
6NUR|6NUR_protein|mol2

> <Gold.PLP.Fitness>
46.2724

> <Gold.PLP.PLP>
-29.4812

> <Gold.PLP.part.hbond>
-3.8291

> <Gold.PLP.part.metal>
0.0000

> <Gold.PLP.part.buried>
3.2819

> <Gold.PLP.part.nonpolar>
-30.0045

> <Gold.PLP.part.repulsive>
0.0426

> <Gold.PLP.ligand.clash>
0.0000

> <Gold.PLP.ligand.torsion>
0.6300

> <Gold.PLP.Chemscore.Hbond>
5.0000

> <Gold.PLP.Chemscore.CHOScore>
1.0000

> <Gold.PLP.Chemscore.Metal>
0.0000

> <Gold.Chemscore.Hbonds>
donor molecule, donor type, donor heavy atom, donor atom, acceptor molecule, acceptor atom, score
      L1  H     8    44       P1  7948  2.00
      L1  H    17    45       P1 10175  2.00
      P1  H  6896  6907       L1     3  1.00
      L1  C    15    37       P1  7921  1.00

> <Gold.PLP.Chemscore.Internal.Correction>
0.0512

> <Gold.Rescore>
     Score         DG    S(hbond)    S(metal)    S(lipo)     H(rot)  DE(clash)    DE(int)     intcor
     16.31     -19.58       2.86        0.00      75.77       1.68       2.20       1.08       ----

> <Gold.Chemscore.Fitness>
16.3058

> <Gold.Chemscore.DG>
-19.5797

> <Gold.Chemscore.ZeroCoef>
-5.4800

> <Gold.Chemscore.Hbond>
2.8558

> <Gold.Chemscore.Metal>
0.0000

> <Gold.Chemscore.Lipo>
75.7744

> <Gold.Chemscore.Internal_Hbond>
0.0000

> <Gold.Chemscore.DEClash>
2.1966

> <Gold.Chemscore.DEInternal>
1.0773

> <Gold.Chemscore.Rot>
1.6814

> <Gold.Chemscore.Internal.Correction>
   9.000000E+99

> <Gold.Chemscore.Hbonds>
donor molecule, donor type, donor heavy atom, donor atom, acceptor molecule, acceptor atom, score
      L1  H     8    44       P1  7948  0.90
      L1  H    17    45       P1 10175  0.96
      P1  H  6896  6907       L1     3  0.99

> <Gold.Chemscore.Hbond.Weighted>
-9.5384

> <Gold.Chemscore.Metal.Weighted>
-0.0000

> <Gold.Chemscore.Lipo.Weighted>
-8.8656

> <Gold.Chemscore.Internal_Hbond.Weighted>
0.0000

> <Gold.Chemscore.DEClash.Weighted>
2.1966

> <Gold.Chemscore.DEInternal.Weighted>
1.0773

> <Gold.Chemscore.Rot.Weighted>
4.3043

> <Gold.Chemscore.Internal.Correction.Weighted>
   9.000000E+99

> <Gold.Protein.RotatedTorsions>
[ 6907 6896 6895 6894 ] final -153.26 input  -60.11 | X-H torsion
[ 7974 7965 7964 7962 ] final  158.93 input  175.53 | X-H torsion
[ 8008 7997 7996 7995 ] final  -51.66 input   59.86 | X-H torsion
[ 10167 10162 10161 10158 ] final  -27.60 input  -65.29 | X-H torsion
[ 10718 10713 10712 10709 ] final  -98.16 input   66.30 | X-H torsion
[ 10763 10752 10751 10750 ] final   75.46 input  -60.55 | X-H torsion
[ 11005 11000 10999 10996 ] final  -15.13 input  -57.11 | X-H torsion

> <Gold.Protein.ActiveResidues>
 VAL166  LYS551  ARG553  GLY616  TRP617  ASP618  TYR619  PRO620  LYS621  CYS622 
 ASP623  PHE694  ASN695  SER759  ASP760  ASP761  ALA762  ILE779  LEU786  VAL792 
 PHE793  MET794  SER795  GLU796  ALA797  LYS798  CYS799  TRP800  GLU811  SER814 

> <Gold.Protein.RotatedAtoms>
  151.2399  133.4405  159.2606 H   0  0  0  0  0  0  0  0  0  0  0  0  # atno 6907 bound_to 6896
  151.0715  134.9801  159.8321 H   0  0  0  0  0  0  0  0  0  0  0  0  # atno 6908 bound_to 6896
  152.5413  134.2344  159.8890 H   0  0  0  0  0  0  0  0  0  0  0  0  # atno 6909 bound_to 6896
  144.7818  139.7546  143.6256 H   0  0  0  0  0  0  0  0  0  0  0  0  # atno 7974 bound_to 7965
  154.4088  140.1242  156.4866 H   0  0  0  0  0  0  0  0  0  0  0  0  # atno 8008 bound_to 7997
  155.7032  140.3494  155.4922 H   0  0  0  0  0  0  0  0  0  0  0  0  # atno 8009 bound_to 7997
  155.9366  140.1079  157.1079 H   0  0  0  0  0  0  0  0  0  0  0  0  # atno 8010 bound_to 7997
  140.7276  143.4080  151.1153 H   0  0  0  0  0  0  0  0  0  0  0  0  # atno 10167 bound_to 10162
  156.0101  130.5226  150.6482 H   0  0  0  0  0  0  0  0  0  0  0  0  # atno 10718 bound_to 10713
  153.0656  135.4988  154.8193 H   0  0  0  0  0  0  0  0  0  0  0  0  # atno 10763 bound_to 10752
  154.6949  135.2991  154.9429 H   0  0  0  0  0  0  0  0  0  0  0  0  # atno 10764 bound_to 10752
  154.0171  135.6747  153.4822 H   0  0  0  0  0  0  0  0  0  0  0  0  # atno 10765 bound_to 10752
  140.7934  133.8270  155.9401 H   0  0  0  0  0  0  0  0  0  0  0  0  # atno 11005 bound_to 11000
  146.2030  139.5337  142.9731 LP  0  0  0  0  0  0  0  0  0  0  0  0  # atno 17320 bound_to 7965
  145.6029  141.0352  143.2008 LP  0  0  0  0  0  0  0  0  0  0  0  0  # atno 17321 bound_to 7965
  139.7709  143.8496  152.3120 LP  0  0  0  0  0  0  0  0  0  0  0  0  # atno 17342 bound_to 10162
  139.8414  144.7208  150.9327 LP  0  0  0  0  0  0  0  0  0  0  0  0  # atno 17343 bound_to 10162
  157.4249  131.0841  151.1095 LP  0  0  0  0  0  0  0  0  0  0  0  0  # atno 17370 bound_to 10713
  157.1686  130.6257  149.5633 LP  0  0  0  0  0  0  0  0  0  0  0  0  # atno 17371 bound_to 10713
  140.9366  134.1954  157.4827 LP  0  0  0  0  0  0  0  0  0  0  0  0  # atno 17394 bound_to 11000
  139.8729  134.9855  156.5284 LP  0  0  0  0  0  0  0  0  0  0  0  0  # atno 17395 bound_to 11000

$$$$
