AV-unprocessed.smi:2390|AV-procd|sdf|9480|dock1
  -GOLD-   2272013113D 1   1.00000     0.00000
 Structure written by MMmdl.
 46 47  0  0  0  0  0  0  0  0  2 V2000
  144.2345  132.7685  150.6625 C   0  0  0  0  0  0  0  0  0  0  0  0
  144.0677  134.0124  151.5099 C   0  0  0  0  0  0  0  0  0  0  0  0
  142.8240  134.3261  152.0910 C   0  0  0  0  0  0  0  0  0  0  0  0
  142.7275  135.5023  152.8548 C   0  0  0  0  0  0  0  0  0  0  0  0
  143.8718  136.3081  153.0118 C   0  0  0  0  0  0  0  0  0  0  0  0
  145.0916  135.9088  152.4072 C   0  0  0  0  0  0  0  0  0  0  0  0
  146.2547  136.7151  152.5246 N   0  0  0  0  0  0  0  0  0  0  0  0
  146.3891  137.8918  153.1602 C   0  0  0  0  0  0  0  0  0  0  0  0
  145.4916  138.4798  153.7648 O   0  0  0  0  0  0  0  0  0  0  0  0
  147.6416  138.3618  153.0582 N   0  0  0  0  0  0  0  0  0  0  0  0
  148.1401  139.6112  153.6372 C   0  0  1  0  0  0  0  0  0  0  0  0
  147.1721  140.7528  153.2848 C   0  0  0  0  0  0  0  0  0  0  0  0
  148.4106  139.4818  155.1674 C   0  0  1  0  0  0  0  0  0  0  0  0
  147.1509  138.9977  155.9282 C   0  0  0  0  0  0  0  0  0  0  0  0
  149.6284  138.6403  155.4132 N   0  3  0  0  0  0  0  0  0  0  0  0
  149.3700  137.1878  155.2310 C   0  0  0  0  0  0  0  0  0  0  0  0
  150.5921  136.3625  155.6632 C   0  0  0  0  0  0  0  0  0  0  0  0
  151.7240  136.7634  154.9038 O   0  0  0  0  0  0  0  0  0  0  0  0
  152.0455  138.1302  155.1215 C   0  0  0  0  0  0  0  0  0  0  0  0
  150.8695  139.0229  154.6876 C   0  0  0  0  0  0  0  0  0  0  0  0
  145.1656  134.7859  151.6564 N   0  0  0  0  0  0  0  0  0  0  0  0
  143.5023  132.0087  150.9373 H   0  0  0  0  0  0  0  0  0  0  0  0
  145.2292  132.3396  150.7901 H   0  0  0  0  0  0  0  0  0  0  0  0
  144.0974  133.0117  149.6085 H   0  0  0  0  0  0  0  0  0  0  0  0
  141.9638  133.6879  151.9501 H   0  0  0  0  0  0  0  0  0  0  0  0
  141.7896  135.7870  153.3083 H   0  0  0  0  0  0  0  0  0  0  0  0
  143.7913  137.2217  153.5807 H   0  0  0  0  0  0  0  0  0  0  0  0
  147.1030  136.3007  152.1674 H   0  0  0  0  0  0  0  0  0  0  0  0
  148.3113  137.8067  152.5448 H   0  0  0  0  0  0  0  0  0  0  0  0
  149.0719  139.8671  153.1329 H   0  0  0  0  0  0  0  0  0  0  0  0
  147.5039  141.6969  153.7180 H   0  0  0  0  0  0  0  0  0  0  0  0
  146.1592  140.5595  153.6371 H   0  0  0  0  0  0  0  0  0  0  0  0
  147.1162  140.8928  152.2047 H   0  0  0  0  0  0  0  0  0  0  0  0
  148.6303  140.4777  155.5558 H   0  0  0  0  0  0  0  0  0  0  0  0
  146.2927  139.6384  155.7313 H   0  0  0  0  0  0  0  0  0  0  0  0
  147.2952  139.0237  157.0083 H   0  0  0  0  0  0  0  0  0  0  0  0
  146.8701  137.9818  155.6489 H   0  0  0  0  0  0  0  0  0  0  0  0
  148.5059  136.8695  155.8124 H   0  0  0  0  0  0  0  0  0  0  0  0
  149.1377  136.9859  154.1843 H   0  0  0  0  0  0  0  0  0  0  0  0
  150.7876  136.4826  156.7301 H   0  0  0  0  0  0  0  0  0  0  0  0
  150.4098  135.3017  155.4900 H   0  0  0  0  0  0  0  0  0  0  0  0
  152.2906  138.2948  156.1725 H   0  0  0  0  0  0  0  0  0  0  0  0
  152.9372  138.3785  154.5457 H   0  0  0  0  0  0  0  0  0  0  0  0
  150.7091  138.9381  153.6116 H   0  0  0  0  0  0  0  0  0  0  0  0
  151.1444  140.0554  154.9011 H   0  0  0  0  0  0  0  0  0  0  0  0
  149.8453  138.7667  156.3923 H   0  0  0  0  0  0  0  0  0  0  0  0
  1  2  1  0  0  0  0
  1 22  1  0  0  0  0
  1 23  1  0  0  0  0
  1 24  1  0  0  0  0
  2 21  1  0  0  0  0
  2  3  2  0  0  0  0
  3  4  1  0  0  0  0
  3 25  1  0  0  0  0
  4  5  2  0  0  0  0
  4 26  1  0  0  0  0
  5  6  1  0  0  0  0
  5 27  1  0  0  0  0
  6  7  1  0  0  0  0
  6 21  2  0  0  0  0
  7  8  1  0  0  0  0
  7 28  1  0  0  0  0
  8  9  2  0  0  0  0
  8 10  1  0  0  0  0
 10 11  1  0  0  0  0
 10 29  1  0  0  0  0
 11 12  1  0  0  0  0
 11 13  1  0  0  0  0
 11 30  1  0  0  0  0
 12 31  1  0  0  0  0
 12 32  1  0  0  0  0
 12 33  1  0  0  0  0
 13 14  1  0  0  0  0
 13 15  1  0  0  0  0
 13 34  1  0  0  0  0
 14 35  1  0  0  0  0
 14 36  1  0  0  0  0
 14 37  1  0  0  0  0
 15 20  1  0  0  0  0
 15 16  1  0  0  0  0
 15 46  1  0  0  0  0
 16 17  1  0  0  0  0
 16 38  1  0  0  0  0
 16 39  1  0  0  0  0
 17 18  1  0  0  0  0
 17 40  1  0  0  0  0
 17 41  1  0  0  0  0
 18 19  1  0  0  0  0
 19 20  1  0  0  0  0
 19 42  1  0  0  0  0
 19 43  1  0  0  0  0
 20 44  1  0  0  0  0
 20 45  1  0  0  0  0
M  CHG  1  15   1
M  END
> <s_m_source_file>
AV-unprocessed.smi

> <i_m_source_file_index>
2390

> <i_lp_mmshare_version>
43012

> <i_f3d_flags>
0

> <s_epik_input>
W0NIM11jMVtjSF1bY0hdW2NIXWMobjEpW05IXUMoPU8pW05IXVtDQEhdKFtDSDNdKVtDQEhdKFtDSDNdKU4yW0NIMl1bQ0gyXU9bQ0gyXVtDSDJdMg==

> <s_epik_cmdline>
J2VwaWtfcHl0aG9uJywgJy1waCcsICc3LjAnLCAnLXRuJywgJzgnLCAnLW1hJywgJzIwMCcsICctbWV0YWxfYmluZGluZycsICctaW1hZScsICc8aW5maWxlLm1hZT4nLCAnLW9tYWUnLCAnPG91dGZpbGUubWFlPic=

> <r_epik_Ionization_Penalty>
0.60259

> <r_epik_Ionization_Penalty_Charging>
0.602531

> <r_epik_Ionization_Penalty_Neutral>
5.9516e-05

> <r_epik_State_Penalty>
0.617039

> <r_epik_Charging_Adjusted_Penalty>
1.21957

> <i_epik_Tot_Q>
1

> <i_epik_Tot_abs_Q>
1

> <r_epik_Metal_State_Penalty>
0.617047

> <b_epik_Metal_Only>
0

> <s_lp_Force_Field>
OPLS_2005

> <r_lp_Energy>
33.8146

> <b_lp_Chiralities_Consistent>
1

> <s_lp_Variant>
AV-unprocessed.smi:2390-8

> <Gold.Version>
5.8.1

> <Gold.Id.Protein>
6NUR|6NUR_protein|mol2

> <Gold.PLP.Fitness>
37.6666

> <Gold.PLP.PLP>
-29.3226

> <Gold.PLP.part.hbond>
-3.5026

> <Gold.PLP.part.metal>
0.0000

> <Gold.PLP.part.buried>
-3.9753

> <Gold.PLP.part.nonpolar>
-23.0294

> <Gold.PLP.part.repulsive>
0.6072

> <Gold.PLP.ligand.clash>
0.0000

> <Gold.PLP.ligand.torsion>
0.4052

> <Gold.PLP.Chemscore.Hbond>
3.0000

> <Gold.PLP.Chemscore.CHOScore>
0.0000

> <Gold.PLP.Chemscore.Metal>
0.0000

> <Gold.Chemscore.Hbonds>
donor molecule, donor type, donor heavy atom, donor atom, acceptor molecule, acceptor atom, score
      L1  H     7    28       P1  7948  1.00
      L1  H    10    29       P1  7948  1.00
      P1  H 10752 10763       L1    18  1.00

> <Gold.PLP.Chemscore.Internal.Correction>
0.1544

> <Gold.Rescore>
     Score         DG    S(hbond)    S(metal)    S(lipo)     H(rot)  DE(clash)    DE(int)     intcor
     13.72     -19.21       2.88        0.00      67.46       1.48       0.10       5.39       ----

> <Gold.Chemscore.Fitness>
13.7154

> <Gold.Chemscore.DG>
-19.2066

> <Gold.Chemscore.ZeroCoef>
-5.4800

> <Gold.Chemscore.Hbond>
2.8844

> <Gold.Chemscore.Metal>
0.0000

> <Gold.Chemscore.Lipo>
67.4592

> <Gold.Chemscore.Internal_Hbond>
0.0000

> <Gold.Chemscore.DEClash>
0.1020

> <Gold.Chemscore.DEInternal>
5.3892

> <Gold.Chemscore.Rot>
1.4844

> <Gold.Chemscore.Internal.Correction>
   9.000000E+99

> <Gold.Chemscore.Hbonds>
donor molecule, donor type, donor heavy atom, donor atom, acceptor molecule, acceptor atom, score
      L1  H     7    28       P1  7948  0.98
      L1  H    10    29       P1  7948  0.98
      P1  H 10752 10763       L1    18  0.92

> <Gold.Chemscore.Hbond.Weighted>
-9.6338

> <Gold.Chemscore.Metal.Weighted>
-0.0000

> <Gold.Chemscore.Lipo.Weighted>
-7.8927

> <Gold.Chemscore.Internal_Hbond.Weighted>
0.0000

> <Gold.Chemscore.DEClash.Weighted>
0.1020

> <Gold.Chemscore.DEInternal.Weighted>
5.3892

> <Gold.Chemscore.Rot.Weighted>
3.8000

> <Gold.Chemscore.Internal.Correction.Weighted>
   9.000000E+99

> <Gold.Protein.RotatedTorsions>
[ 6907 6896 6895 6894 ] final -102.07 input  -60.11 | X-H torsion
[ 7974 7965 7964 7962 ] final   97.22 input  175.53 | X-H torsion
[ 8008 7997 7996 7995 ] final  -32.27 input   59.86 | X-H torsion
[ 10167 10162 10161 10158 ] final   74.48 input  -65.29 | X-H torsion
[ 10718 10713 10712 10709 ] final  -74.34 input   66.30 | X-H torsion
[ 10763 10752 10751 10750 ] final   40.16 input  -60.55 | X-H torsion
[ 11005 11000 10999 10996 ] final  132.47 input  -57.11 | X-H torsion

> <Gold.Protein.ActiveResidues>
 VAL166  LYS551  ARG553  GLY616  TRP617  ASP618  TYR619  PRO620  LYS621  CYS622 
 ASP623  PHE694  ASN695  SER759  ASP760  ASP761  ALA762  ILE779  LEU786  VAL792 
 PHE793  MET794  SER795  GLU796  ALA797  LYS798  CYS799  TRP800  GLU811  SER814 

> <Gold.Protein.RotatedAtoms>
  150.7181  134.0637  159.3839 H   0  0  0  0  0  0  0  0  0  0  0  0  # atno 6907 bound_to 6896
  151.8618  135.0519  160.0479 H   0  0  0  0  0  0  0  0  0  0  0  0  # atno 6908 bound_to 6896
  152.2711  133.5348  159.5476 H   0  0  0  0  0  0  0  0  0  0  0  0  # atno 6909 bound_to 6896
  145.4283  139.2313  143.3158 H   0  0  0  0  0  0  0  0  0  0  0  0  # atno 7974 bound_to 7965
  154.4185  140.1742  156.1700 H   0  0  0  0  0  0  0  0  0  0  0  0  # atno 8008 bound_to 7997
  155.9768  140.3381  155.6602 H   0  0  0  0  0  0  0  0  0  0  0  0  # atno 8009 bound_to 7997
  155.6553  140.0695  157.2563 H   0  0  0  0  0  0  0  0  0  0  0  0  # atno 8010 bound_to 7997
  140.0133  144.5597  150.7641 H   0  0  0  0  0  0  0  0  0  0  0  0  # atno 10167 bound_to 10162
  156.0246  130.4414  150.2877 H   0  0  0  0  0  0  0  0  0  0  0  0  # atno 10718 bound_to 10713
  152.9945  135.6199  154.2581 H   0  0  0  0  0  0  0  0  0  0  0  0  # atno 10763 bound_to 10752
  154.2318  135.2792  155.2889 H   0  0  0  0  0  0  0  0  0  0  0  0  # atno 10764 bound_to 10752
  154.5443  135.5752  153.6924 H   0  0  0  0  0  0  0  0  0  0  0  0  # atno 10765 bound_to 10752
  139.9792  134.9553  156.9587 H   0  0  0  0  0  0  0  0  0  0  0  0  # atno 11005 bound_to 11000
  146.2620  140.5017  142.8849 LP  0  0  0  0  0  0  0  0  0  0  0  0  # atno 17320 bound_to 7965
  144.8199  140.6532  143.6359 LP  0  0  0  0  0  0  0  0  0  0  0  0  # atno 17321 bound_to 7965
  140.7372  143.2763  151.3732 LP  0  0  0  0  0  0  0  0  0  0  0  0  # atno 17342 bound_to 10162
  139.6190  144.0945  152.2373 LP  0  0  0  0  0  0  0  0  0  0  0  0  # atno 17343 bound_to 10162
  157.0981  131.0188  151.3096 LP  0  0  0  0  0  0  0  0  0  0  0  0  # atno 17370 bound_to 10713
  157.4802  130.7760  149.7406 LP  0  0  0  0  0  0  0  0  0  0  0  0  # atno 17371 bound_to 10713
  140.5131  134.0982  155.7274 LP  0  0  0  0  0  0  0  0  0  0  0  0  # atno 17394 bound_to 11000
  141.1466  133.9044  157.2200 LP  0  0  0  0  0  0  0  0  0  0  0  0  # atno 17395 bound_to 11000

$$$$
