AV-unprocessed.smi:2069|AV-procd|sdf|8431|dock5
  -GOLD-   2272011123D 1   1.00000     0.00000
 Structure written by MMmdl.
 38 39  0  0  0  0  0  0  0  0  1 V2000
  137.7053  137.2407  154.2389 C   0  0  0  0  0  0  0  0  0  0  0  0
  139.1783  137.3865  154.4129 C   0  0  0  0  0  0  0  0  0  0  0  0
  139.8942  136.6049  155.2304 N   0  0  0  0  0  0  0  0  0  0  0  0
  141.2424  136.9341  155.2258 N   0  0  0  0  0  0  0  0  0  0  0  0
  141.5041  137.9577  154.4015 C   0  0  0  0  0  0  0  0  0  0  0  0
  142.8005  138.5024  154.2050 N   0  0  0  0  0  0  0  0  0  0  0  0
  143.9601  138.1188  154.7673 C   0  0  0  0  0  0  0  0  0  0  0  0
  144.0889  137.1967  155.5728 O   0  0  0  0  0  0  0  0  0  0  0  0
  144.9800  138.8729  154.3315 N   0  0  0  0  0  0  0  0  0  0  0  0
  146.3766  138.7328  154.7385 C   0  0  0  0  0  0  0  0  0  0  0  0
  147.1732  140.0659  154.6540 C   0  0  2  0  0  0  0  0  0  0  0  0
  147.1184  140.5999  153.1996 C   0  0  0  0  0  0  0  0  0  0  0  0
  148.5579  139.9477  155.1691 N   0  0  0  0  0  0  0  0  0  0  0  0
  149.2573  141.2372  155.2177 C   0  0  0  0  0  0  0  0  0  0  0  0
  150.7053  141.1151  155.7230 C   0  0  0  0  0  0  0  0  0  0  0  0
  151.4227  140.2009  154.9060 O   0  0  0  0  0  0  0  0  0  0  0  0
  150.8238  138.9129  154.8977 C   0  0  0  0  0  0  0  0  0  0  0  0
  149.3776  139.0172  154.3837 C   0  0  0  0  0  0  0  0  0  0  0  0
  140.1103  138.6072  153.5550 S   0  0  0  0  0  0  0  0  0  0  0  0
  137.3129  136.4716  154.9049 H   0  0  0  0  0  0  0  0  0  0  0  0
  137.4774  136.9614  153.2101 H   0  0  0  0  0  0  0  0  0  0  0  0
  137.2089  138.1845  154.4654 H   0  0  0  0  0  0  0  0  0  0  0  0
  142.8510  139.2750  153.5576 H   0  0  0  0  0  0  0  0  0  0  0  0
  144.7765  139.6049  153.6670 H   0  0  0  0  0  0  0  0  0  0  0  0
  146.3244  138.3694  155.7627 H   0  0  0  0  0  0  0  0  0  0  0  0
  146.8862  137.9568  154.1643 H   0  0  0  0  0  0  0  0  0  0  0  0
  146.6456  140.7908  155.2763 H   0  0  0  0  0  0  0  0  0  0  0  0
  146.1004  140.6619  152.8176 H   0  0  0  0  0  0  0  0  0  0  0  0
  147.6838  139.9582  152.5230 H   0  0  0  0  0  0  0  0  0  0  0  0
  147.5103  141.6121  153.1127 H   0  0  0  0  0  0  0  0  0  0  0  0
  149.2567  141.6958  154.2276 H   0  0  0  0  0  0  0  0  0  0  0  0
  148.7489  141.9273  155.8879 H   0  0  0  0  0  0  0  0  0  0  0  0
  151.1997  142.0860  155.6896 H   0  0  0  0  0  0  0  0  0  0  0  0
  150.7257  140.7813  156.7616 H   0  0  0  0  0  0  0  0  0  0  0  0
  151.4076  138.2535  154.2552 H   0  0  0  0  0  0  0  0  0  0  0  0
  150.8477  138.4848  155.9012 H   0  0  0  0  0  0  0  0  0  0  0  0
  148.9578  138.0136  154.4164 H   0  0  0  0  0  0  0  0  0  0  0  0
  149.3865  139.3246  153.3368 H   0  0  0  0  0  0  0  0  0  0  0  0
  1  2  1  0  0  0  0
  1 20  1  0  0  0  0
  1 21  1  0  0  0  0
  1 22  1  0  0  0  0
  2 19  1  0  0  0  0
  2  3  2  0  0  0  0
  3  4  1  0  0  0  0
  4  5  2  0  0  0  0
  5  6  1  0  0  0  0
  5 19  1  0  0  0  0
  6  7  1  0  0  0  0
  6 23  1  0  0  0  0
  7  8  2  0  0  0  0
  7  9  1  0  0  0  0
  9 10  1  0  0  0  0
  9 24  1  0  0  0  0
 10 11  1  0  0  0  0
 10 25  1  0  0  0  0
 10 26  1  0  0  0  0
 11 12  1  0  0  0  0
 11 13  1  0  0  0  0
 11 27  1  0  0  0  0
 12 28  1  0  0  0  0
 12 29  1  0  0  0  0
 12 30  1  0  0  0  0
 13 18  1  0  0  0  0
 13 14  1  0  0  0  0
 14 15  1  0  0  0  0
 14 31  1  0  0  0  0
 14 32  1  0  0  0  0
 15 16  1  0  0  0  0
 15 33  1  0  0  0  0
 15 34  1  0  0  0  0
 16 17  1  0  0  0  0
 17 18  1  0  0  0  0
 17 35  1  0  0  0  0
 17 36  1  0  0  0  0
 18 37  1  0  0  0  0
 18 38  1  0  0  0  0
M  END
> <s_m_source_file>
AV-unprocessed.smi

> <i_m_source_file_index>
2069

> <i_lp_mmshare_version>
43012

> <i_f3d_flags>
0

> <s_epik_input>
W0NIM11jMW5uYyhzMSlbTkhdQyg9TylbTkhdW0NIMl1bQ0BIXShbQ0gzXSlOMltDSDJdW0NIMl1PW0NIMl1bQ0gyXTI=

> <s_epik_cmdline>
J2VwaWtfcHl0aG9uJywgJy1waCcsICc3LjAnLCAnLXRuJywgJzgnLCAnLW1hJywgJzIwMCcsICctbWV0YWxfYmluZGluZycsICctaW1hZScsICc8aW5maWxlLm1hZT4nLCAnLW9tYWUnLCAnPG91dGZpbGUubWFlPic=

> <r_lp_tautomer_probability>
1

> <r_epik_Ionization_Penalty>
0.221104

> <r_epik_Ionization_Penalty_Charging>
0

> <r_epik_Ionization_Penalty_Neutral>
0.221104

> <r_epik_State_Penalty>
0.209349

> <r_epik_Charging_Adjusted_Penalty>
0.209349

> <i_epik_Tot_Q>
0

> <i_epik_Tot_abs_Q>
0

> <r_epik_Metal_State_Penalty>
0.561068

> <b_epik_Metal_Only>
0

> <s_lp_Force_Field>
OPLS_2005

> <r_lp_Energy>
28.2762

> <b_lp_Chiralities_Consistent>
1

> <s_lp_Variant>
AV-unprocessed.smi:2069-1

> <Gold.Version>
5.8.1

> <Gold.Id.Protein>
6NUR|6NUR_protein|mol2

> <Gold.PLP.Fitness>
40.8549

> <Gold.PLP.PLP>
-29.2388

> <Gold.PLP.part.hbond>
-4.1880

> <Gold.PLP.part.metal>
0.0000

> <Gold.PLP.part.buried>
-3.8685

> <Gold.PLP.part.nonpolar>
-20.9597

> <Gold.PLP.part.repulsive>
0.1794

> <Gold.PLP.ligand.clash>
0.0000

> <Gold.PLP.ligand.torsion>
0.2047

> <Gold.PLP.Chemscore.Hbond>
4.0000

> <Gold.PLP.Chemscore.CHOScore>
0.0000

> <Gold.PLP.Chemscore.Metal>
0.0000

> <Gold.Chemscore.Hbonds>
donor molecule, donor type, donor heavy atom, donor atom, acceptor molecule, acceptor atom, score
      L1  H     6    23       P1 10175  1.00
      L1  H     9    24       P1 10175  1.00
      P1  H  7989  7998       L1    16  1.00
      P1  H 11000 11005       L1     3  1.00

> <Gold.PLP.Chemscore.Internal.Correction>
0.0254

> <Gold.Rescore>
     Score         DG    S(hbond)    S(metal)    S(lipo)     H(rot)  DE(clash)    DE(int)     intcor
     17.93     -19.44       3.26        0.00      61.22       1.60       0.03       1.48       ----

> <Gold.Chemscore.Fitness>
17.9289

> <Gold.Chemscore.DG>
-19.4410

> <Gold.Chemscore.ZeroCoef>
-5.4800

> <Gold.Chemscore.Hbond>
3.2631

> <Gold.Chemscore.Metal>
0.0000

> <Gold.Chemscore.Lipo>
61.2153

> <Gold.Chemscore.Internal_Hbond>
0.0000

> <Gold.Chemscore.DEClash>
0.0310

> <Gold.Chemscore.DEInternal>
1.4811

> <Gold.Chemscore.Rot>
1.6016

> <Gold.Chemscore.Internal.Correction>
   9.000000E+99

> <Gold.Chemscore.Hbonds>
donor molecule, donor type, donor heavy atom, donor atom, acceptor molecule, acceptor atom, score
      L1  H     6    23       P1 10175  0.99
      L1  H     9    24       P1 10175  0.96
      P1  H  7989  7998       L1    16  0.58
      P1  H 11000 11005       L1     3  0.33

> <Gold.Chemscore.Hbond.Weighted>
-10.8989

> <Gold.Chemscore.Metal.Weighted>
-0.0000

> <Gold.Chemscore.Lipo.Weighted>
-7.1622

> <Gold.Chemscore.Internal_Hbond.Weighted>
0.0000

> <Gold.Chemscore.DEClash.Weighted>
0.0310

> <Gold.Chemscore.DEInternal.Weighted>
1.4811

> <Gold.Chemscore.Rot.Weighted>
4.1001

> <Gold.Chemscore.Internal.Correction.Weighted>
   9.000000E+99

> <Gold.Protein.RotatedTorsions>
[ 6907 6896 6895 6894 ] final   70.98 input  -60.11 | X-H torsion
[ 7974 7965 7964 7962 ] final    1.67 input  175.53 | X-H torsion
[ 8008 7997 7996 7995 ] final   52.19 input   59.86 | X-H torsion
[ 10167 10162 10161 10158 ] final -128.38 input  -65.29 | X-H torsion
[ 10718 10713 10712 10709 ] final -116.26 input   66.30 | X-H torsion
[ 10763 10752 10751 10750 ] final  142.33 input  -60.55 | X-H torsion
[ 11005 11000 10999 10996 ] final   79.14 input  -57.11 | X-H torsion

> <Gold.Protein.ActiveResidues>
 VAL166  LYS551  ARG553  GLY616  TRP617  ASP618  TYR619  PRO620  LYS621  CYS622 
 ASP623  PHE694  ASN695  SER759  ASP760  ASP761  ALA762  ILE779  LEU786  VAL792 
 PHE793  MET794  SER795  GLU796  ALA797  LYS798  CYS799  TRP800  GLU811  SER814 

> <Gold.Protein.RotatedAtoms>
  152.4783  134.4787  159.9658 H   0  0  0  0  0  0  0  0  0  0  0  0  # atno 6907 bound_to 6896
  151.4799  133.3543  159.2844 H   0  0  0  0  0  0  0  0  0  0  0  0  # atno 6908 bound_to 6896
  150.8836  134.8257  159.7304 H   0  0  0  0  0  0  0  0  0  0  0  0  # atno 6909 bound_to 6896
  146.2441  140.0952  142.8350 H   0  0  0  0  0  0  0  0  0  0  0  0  # atno 7974 bound_to 7965
  155.4477  140.3457  155.4297 H   0  0  0  0  0  0  0  0  0  0  0  0  # atno 8008 bound_to 7997
  156.1239  140.1495  156.9194 H   0  0  0  0  0  0  0  0  0  0  0  0  # atno 8009 bound_to 7997
  154.4844  140.0860  156.7431 H   0  0  0  0  0  0  0  0  0  0  0  0  # atno 8010 bound_to 7997
  139.9509  143.6057  152.2475 H   0  0  0  0  0  0  0  0  0  0  0  0  # atno 10167 bound_to 10162
  156.0951  130.6126  150.9013 H   0  0  0  0  0  0  0  0  0  0  0  0  # atno 10718 bound_to 10713
  153.9540  135.2967  155.3437 H   0  0  0  0  0  0  0  0  0  0  0  0  # atno 10763 bound_to 10752
  154.7411  135.5024  153.9127 H   0  0  0  0  0  0  0  0  0  0  0  0  # atno 10764 bound_to 10752
  153.0980  135.6726  153.9836 H   0  0  0  0  0  0  0  0  0  0  0  0  # atno 10765 bound_to 10752
  139.9184  134.7819  156.1740 H   0  0  0  0  0  0  0  0  0  0  0  0  # atno 11005 bound_to 11000
  145.0616  140.9092  143.4935 LP  0  0  0  0  0  0  0  0  0  0  0  0  # atno 17320 bound_to 7965
  145.1068  139.2784  143.5658 LP  0  0  0  0  0  0  0  0  0  0  0  0  # atno 17321 bound_to 7965
  139.6629  144.7662  151.1928 LP  0  0  0  0  0  0  0  0  0  0  0  0  # atno 17342 bound_to 10162
  140.7583  143.5982  150.8726 LP  0  0  0  0  0  0  0  0  0  0  0  0  # atno 17343 bound_to 10162
  157.6110  131.0936  150.8794 LP  0  0  0  0  0  0  0  0  0  0  0  0  # atno 17370 bound_to 10713
  156.8934  130.5221  149.5285 LP  0  0  0  0  0  0  0  0  0  0  0  0  # atno 17371 bound_to 10713
  141.0683  133.6809  156.2089 LP  0  0  0  0  0  0  0  0  0  0  0  0  # atno 17394 bound_to 11000
  140.6549  134.5028  157.5580 LP  0  0  0  0  0  0  0  0  0  0  0  0  # atno 17395 bound_to 11000

$$$$
