AV-unprocessed.smi:2997|AV-procd|sdf|11412|dock7
  -GOLD-   2272016333D 1   1.00000     0.00000
 Structure written by MMmdl.
 38 40  0  0  0  0  0  0  0  0  1 V2000
  152.8226  143.2571  161.1899 C   0  0  0  0  0  0  0  0  0  0  0  0
  152.2475  142.8247  159.8526 C   0  0  0  0  0  0  0  0  0  0  0  0
  152.7244  141.6383  159.2509 C   0  0  0  0  0  0  0  0  0  0  0  0
  152.2128  141.1992  158.0101 C   0  0  0  0  0  0  0  0  0  0  0  0
  152.5282  140.0851  157.2510 N   0  0  0  0  0  0  0  0  0  0  0  0
  151.7126  140.2306  156.2103 C   0  0  0  0  0  0  0  0  0  0  0  0
  150.9068  141.3100  156.2049 N   0  0  0  0  0  0  0  0  0  0  0  0
  149.9391  141.6786  155.1874 C   0  0  0  0  0  0  0  0  0  0  0  0
  149.2373  140.4533  154.5728 C   0  0  2  0  0  0  0  0  0  0  0  0
  150.1275  139.7858  153.6977 O   0  0  0  0  0  0  0  0  0  0  0  0
  147.9547  140.8449  153.8150 C   0  0  0  0  0  0  0  0  0  0  0  0
  147.2043  139.6876  153.3596 N   0  0  0  0  0  0  0  0  0  0  0  0
  147.0201  139.2439  152.0670 C   0  0  0  0  0  0  0  0  0  0  0  0
  146.2416  138.1239  152.1287 C   0  0  0  0  0  0  0  0  0  0  0  0
  145.9968  137.9588  153.5207 C   0  0  0  0  0  0  0  0  0  0  0  0
  146.5742  138.8962  154.2548 N   0  0  0  0  0  0  0  0  0  0  0  0
  151.2031  141.9860  157.3830 C   0  0  0  0  0  0  0  0  0  0  0  0
  150.7215  143.1690  157.9707 C   0  0  0  0  0  0  0  0  0  0  0  0
  151.2441  143.5938  159.2103 C   0  0  0  0  0  0  0  0  0  0  0  0
  150.7202  144.8746  159.8357 C   0  0  0  0  0  0  0  0  0  0  0  0
  153.5876  142.5623  161.5378 H   0  0  0  0  0  0  0  0  0  0  0  0
  152.0390  143.2980  161.9469 H   0  0  0  0  0  0  0  0  0  0  0  0
  153.2788  144.2438  161.1096 H   0  0  0  0  0  0  0  0  0  0  0  0
  153.4895  141.0529  159.7395 H   0  0  0  0  0  0  0  0  0  0  0  0
  151.6967  139.5095  155.4059 H   0  0  0  0  0  0  0  0  0  0  0  0
  149.2051  142.3437  155.6436 H   0  0  0  0  0  0  0  0  0  0  0  0
  150.4467  142.2579  154.4146 H   0  0  0  0  0  0  0  0  0  0  0  0
  148.9747  139.7581  155.3715 H   0  0  0  0  0  0  0  0  0  0  0  0
  149.7214  139.7253  152.8461 H   0  0  0  0  0  0  0  0  0  0  0  0
  147.3036  141.4330  154.4628 H   0  0  0  0  0  0  0  0  0  0  0  0
  148.1931  141.4770  152.9577 H   0  0  0  0  0  0  0  0  0  0  0  0
  147.4523  139.7576  151.2209 H   0  0  0  0  0  0  0  0  0  0  0  0
  145.8988  137.5153  151.3051 H   0  0  0  0  0  0  0  0  0  0  0  0
  145.4202  137.1912  154.0155 H   0  0  0  0  0  0  0  0  0  0  0  0
  149.9561  143.7437  157.4704 H   0  0  0  0  0  0  0  0  0  0  0  0
  149.9379  145.3249  159.2238 H   0  0  0  0  0  0  0  0  0  0  0  0
  151.5237  145.6039  159.9409 H   0  0  0  0  0  0  0  0  0  0  0  0
  150.3006  144.6763  160.8220 H   0  0  0  0  0  0  0  0  0  0  0  0
  1  2  1  0  0  0  0
  1 21  1  0  0  0  0
  1 22  1  0  0  0  0
  1 23  1  0  0  0  0
  2 19  1  0  0  0  0
  2  3  2  0  0  0  0
  3  4  1  0  0  0  0
  3 24  1  0  0  0  0
  4 17  2  0  0  0  0
  4  5  1  0  0  0  0
  5  6  2  0  0  0  0
  6  7  1  0  0  0  0
  6 25  1  0  0  0  0
  7  8  1  0  0  0  0
  7 17  1  0  0  0  0
  8  9  1  0  0  0  0
  8 26  1  0  0  0  0
  8 27  1  0  0  0  0
  9 10  1  0  0  0  0
  9 11  1  0  0  0  0
  9 28  1  0  0  0  0
 10 29  1  0  0  0  0
 11 12  1  0  0  0  0
 11 30  1  0  0  0  0
 11 31  1  0  0  0  0
 12 16  1  0  0  0  0
 12 13  1  0  0  0  0
 13 14  2  0  0  0  0
 13 32  1  0  0  0  0
 14 15  1  0  0  0  0
 14 33  1  0  0  0  0
 15 16  2  0  0  0  0
 15 34  1  0  0  0  0
 17 18  1  0  0  0  0
 18 19  2  0  0  0  0
 18 35  1  0  0  0  0
 19 20  1  0  0  0  0
 20 36  1  0  0  0  0
 20 37  1  0  0  0  0
 20 38  1  0  0  0  0
M  END
> <s_m_source_file>
AV-unprocessed.smi

> <i_m_source_file_index>
2997

> <i_lp_mmshare_version>
43012

> <i_f3d_flags>
0

> <s_epik_input>
W0NIM11jKFtjSF0xKWMoW0NIM10pW2NIXWMoYzEyKW4oW2NIXW4yKVtDSDJdW0NASF0oW09IXSlbQ0gyXW4zW2NIXVtjSF1bY0hdbjM=

> <s_epik_cmdline>
J2VwaWtfcHl0aG9uJywgJy1waCcsICc3LjAnLCAnLXRuJywgJzgnLCAnLW1hJywgJzIwMCcsICctbWV0YWxfYmluZGluZycsICctaW1hZScsICc8aW5maWxlLm1hZT4nLCAnLW9tYWUnLCAnPG91dGZpbGUubWFlPic=

> <r_lp_tautomer_probability>
1

> <r_epik_Ionization_Penalty>
0.102113

> <r_epik_Ionization_Penalty_Charging>
0

> <r_epik_Ionization_Penalty_Neutral>
0.102113

> <r_epik_State_Penalty>
0.0920694

> <r_epik_Charging_Adjusted_Penalty>
0.0920694

> <i_epik_Tot_Q>
0

> <i_epik_Tot_abs_Q>
0

> <r_epik_Metal_State_Penalty>
0.0784306

> <b_epik_Metal_Only>
0

> <s_lp_Force_Field>
OPLS_2005

> <r_lp_Energy>
8.0564

> <b_lp_Chiralities_Consistent>
1

> <s_lp_Variant>
AV-unprocessed.smi:2997-1

> <Gold.Version>
5.8.1

> <Gold.Id.Protein>
6NUR|6NUR_protein|mol2

> <Gold.PLP.Fitness>
55.4721

> <Gold.PLP.PLP>
-45.2304

> <Gold.PLP.part.hbond>
-3.0000

> <Gold.PLP.part.metal>
0.0000

> <Gold.PLP.part.buried>
-2.6064

> <Gold.PLP.part.nonpolar>
-39.7020

> <Gold.PLP.part.repulsive>
0.1167

> <Gold.PLP.ligand.clash>
0.0000

> <Gold.PLP.ligand.torsion>
0.5558

> <Gold.PLP.Chemscore.Hbond>
2.9120

> <Gold.PLP.Chemscore.CHOScore>
0.8696

> <Gold.PLP.Chemscore.Metal>
0.0000

> <Gold.Chemscore.Hbonds>
donor molecule, donor type, donor heavy atom, donor atom, acceptor molecule, acceptor atom, score
      L1  H    10    29       P1  7957  1.00
      P1  H  7989  7998       L1    10  0.85
      P1  H  7997  8009       L1     5  1.00
      L1  C    13    32       P1  7957  0.80

> <Gold.PLP.Chemscore.Internal.Correction>
0.0086

> <Gold.Rescore>
     Score         DG    S(hbond)    S(metal)    S(lipo)     H(rot)  DE(clash)    DE(int)     intcor
     19.65     -20.67       2.18        0.00     114.64       2.15       0.31       0.71       ----

> <Gold.Chemscore.Fitness>
19.6473

> <Gold.Chemscore.DG>
-20.6698

> <Gold.Chemscore.ZeroCoef>
-5.4800

> <Gold.Chemscore.Hbond>
2.1825

> <Gold.Chemscore.Metal>
0.0000

> <Gold.Chemscore.Lipo>
114.6422

> <Gold.Chemscore.Internal_Hbond>
0.0000

> <Gold.Chemscore.DEClash>
0.3126

> <Gold.Chemscore.DEInternal>
0.7100

> <Gold.Chemscore.Rot>
2.1534

> <Gold.Chemscore.Internal.Correction>
   9.000000E+99

> <Gold.Chemscore.Hbonds>
donor molecule, donor type, donor heavy atom, donor atom, acceptor molecule, acceptor atom, score
      L1  H    10    29       P1  7957  0.98
      P1  H  7989  7998       L1    10  0.28
      P1  H  7997  8009       L1     5  0.58

> <Gold.Chemscore.Hbond.Weighted>
-7.2894

> <Gold.Chemscore.Metal.Weighted>
-0.0000

> <Gold.Chemscore.Lipo.Weighted>
-13.4131

> <Gold.Chemscore.Internal_Hbond.Weighted>
0.0000

> <Gold.Chemscore.DEClash.Weighted>
0.3126

> <Gold.Chemscore.DEInternal.Weighted>
0.7100

> <Gold.Chemscore.Rot.Weighted>
5.5127

> <Gold.Chemscore.Internal.Correction.Weighted>
   9.000000E+99

> <Gold.Protein.RotatedTorsions>
[ 6907 6896 6895 6894 ] final  136.92 input  -60.11 | X-H torsion
[ 7974 7965 7964 7962 ] final  -35.91 input  175.53 | X-H torsion
[ 8008 7997 7996 7995 ] final -177.51 input   59.86 | X-H torsion
[ 10167 10162 10161 10158 ] final   24.53 input  -65.29 | X-H torsion
[ 10718 10713 10712 10709 ] final -150.24 input   66.30 | X-H torsion
[ 10763 10752 10751 10750 ] final  -89.90 input  -60.55 | X-H torsion
[ 11005 11000 10999 10996 ] final -107.46 input  -57.11 | X-H torsion

> <Gold.Protein.ActiveResidues>
 VAL166  LYS551  ARG553  GLY616  TRP617  ASP618  TYR619  PRO620  LYS621  CYS622 
 ASP623  PHE694  ASN695  SER759  ASP760  ASP761  ALA762  ILE779  LEU786  VAL792 
 PHE793  MET794  SER795  GLU796  ALA797  LYS798  CYS799  TRP800  GLU811  SER814 

> <Gold.Protein.RotatedAtoms>
  152.2839  133.5496  159.5514 H   0  0  0  0  0  0  0  0  0  0  0  0  # atno 6907 bound_to 6896
  150.7207  134.0525  159.3812 H   0  0  0  0  0  0  0  0  0  0  0  0  # atno 6908 bound_to 6896
  151.8434  135.0582  160.0501 H   0  0  0  0  0  0  0  0  0  0  0  0  # atno 6909 bound_to 6896
  146.0706  140.6216  142.8954 H   0  0  0  0  0  0  0  0  0  0  0  0  # atno 7974 bound_to 7965
  156.0078  140.1234  157.0484 H   0  0  0  0  0  0  0  0  0  0  0  0  # atno 8008 bound_to 7997
  154.4265  140.1094  156.5856 H   0  0  0  0  0  0  0  0  0  0  0  0  # atno 8009 bound_to 7997
  155.6122  140.3471  155.4628 H   0  0  0  0  0  0  0  0  0  0  0  0  # atno 8010 bound_to 7997
  140.5180  144.0049  150.6403 H   0  0  0  0  0  0  0  0  0  0  0  0  # atno 10167 bound_to 10162
  156.4436  130.8134  151.2364 H   0  0  0  0  0  0  0  0  0  0  0  0  # atno 10718 bound_to 10713
  154.6601  135.5324  153.8008 H   0  0  0  0  0  0  0  0  0  0  0  0  # atno 10763 bound_to 10752
  153.0437  135.6503  154.0884 H   0  0  0  0  0  0  0  0  0  0  0  0  # atno 10764 bound_to 10752
  154.0794  135.2948  155.3273 H   0  0  0  0  0  0  0  0  0  0  0  0  # atno 10765 bound_to 10752
  141.0953  133.8983  157.1979 H   0  0  0  0  0  0  0  0  0  0  0  0  # atno 11005 bound_to 11000
  144.7229  140.4433  143.6994 LP  0  0  0  0  0  0  0  0  0  0  0  0  # atno 17320 bound_to 7965
  145.6398  139.1548  143.2922 LP  0  0  0  0  0  0  0  0  0  0  0  0  # atno 17321 bound_to 7965
  140.3390  143.3031  152.0608 LP  0  0  0  0  0  0  0  0  0  0  0  0  # atno 17342 bound_to 10162
  139.4915  144.6456  151.6786 LP  0  0  0  0  0  0  0  0  0  0  0  0  # atno 17343 bound_to 10162
  157.7505  131.0160  150.3528 LP  0  0  0  0  0  0  0  0  0  0  0  0  # atno 17370 bound_to 10713
  156.3891  130.3894  149.7043 LP  0  0  0  0  0  0  0  0  0  0  0  0  # atno 17371 bound_to 10713
  139.9788  135.0105  156.9697 LP  0  0  0  0  0  0  0  0  0  0  0  0  # atno 17394 bound_to 11000
  140.5156  134.0959  155.7280 LP  0  0  0  0  0  0  0  0  0  0  0  0  # atno 17395 bound_to 11000

$$$$
