AV-unprocessed.smi:1211|AV-procd|sdf|5079|dock6
  -GOLD-   22720 4133D 1   1.00000     0.00000
 Structure written by MMmdl.
 47 49  0  0  0  0  0  0  0  0  1 V2000
  147.5207  133.1552  152.2643 C   0  0  0  0  0  0  0  0  0  0  0  0
  146.2665  133.3909  151.4385 C   0  0  0  0  0  0  0  0  0  0  0  0
  145.6373  132.2953  150.8103 C   0  0  0  0  0  0  0  0  0  0  0  0
  144.4789  132.5153  150.0458 C   0  0  0  0  0  0  0  0  0  0  0  0
  143.9952  133.8306  149.9423 C   0  0  0  0  0  0  0  0  0  0  0  0
  144.5897  134.8834  150.5397 N   0  0  0  0  0  0  0  0  0  0  0  0
  145.7097  134.6885  151.2803 C   0  0  0  0  0  0  0  0  0  0  0  0
  146.3888  135.7514  151.9397 N   0  0  0  0  0  0  0  0  0  0  0  0
  145.8803  136.6906  152.7568 C   0  0  0  0  0  0  0  0  0  0  0  0
  144.6959  136.7905  153.0786 O   0  0  0  0  0  0  0  0  0  0  0  0
  146.8385  137.5223  153.1896 N   0  0  0  0  0  0  0  0  0  0  0  0
  146.6433  138.6570  154.0916 C   0  0  0  0  0  0  0  0  0  0  0  0
  147.9694  139.4341  154.3878 C   0  0  2  0  0  0  0  0  0  0  0  0
  149.1296  138.4903  154.4192 N   0  0  0  0  0  0  0  0  0  0  0  0
  148.9822  137.3132  155.2878 C   0  0  0  0  0  0  0  0  0  0  0  0
  150.1871  136.3609  155.1959 C   0  0  0  0  0  0  0  0  0  0  0  0
  151.3822  137.0630  155.5085 O   0  0  0  0  0  0  0  0  0  0  0  0
  151.6006  138.1630  154.6361 C   0  0  0  0  0  0  0  0  0  0  0  0
  150.4135  139.1365  154.7247 C   0  0  0  0  0  0  0  0  0  0  0  0
  147.7794  140.2241  155.7154 C   0  0  0  0  0  0  0  0  0  0  0  0
  146.7937  141.3741  155.4826 C   0  0  0  0  0  0  0  0  0  0  0  0
  147.0190  141.9375  153.7790 S   0  0  0  0  0  0  0  0  0  0  0  0
  148.1136  140.5607  153.3326 C   0  0  0  0  0  0  0  0  0  0  0  0
  147.8050  132.1026  152.2629 H   0  0  0  0  0  0  0  0  0  0  0  0
  147.3586  133.4580  153.2994 H   0  0  0  0  0  0  0  0  0  0  0  0
  148.3562  133.7283  151.8616 H   0  0  0  0  0  0  0  0  0  0  0  0
  146.0353  131.2962  150.9108 H   0  0  0  0  0  0  0  0  0  0  0  0
  143.9748  131.6978  149.5520 H   0  0  0  0  0  0  0  0  0  0  0  0
  143.1079  134.0442  149.3650 H   0  0  0  0  0  0  0  0  0  0  0  0
  147.3808  135.8042  151.7627 H   0  0  0  0  0  0  0  0  0  0  0  0
  147.7846  137.3544  152.8806 H   0  0  0  0  0  0  0  0  0  0  0  0
  145.9020  139.3116  153.6357 H   0  0  0  0  0  0  0  0  0  0  0  0
  146.1530  138.3277  155.0073 H   0  0  0  0  0  0  0  0  0  0  0  0
  148.8546  137.6149  156.3267 H   0  0  0  0  0  0  0  0  0  0  0  0
  148.1075  136.7293  155.0118 H   0  0  0  0  0  0  0  0  0  0  0  0
  150.0685  135.5332  155.8951 H   0  0  0  0  0  0  0  0  0  0  0  0
  150.2609  135.9275  154.1974 H   0  0  0  0  0  0  0  0  0  0  0  0
  152.5241  138.6659  154.9229 H   0  0  0  0  0  0  0  0  0  0  0  0
  151.7335  137.8071  153.6132 H   0  0  0  0  0  0  0  0  0  0  0  0
  150.6159  139.9533  154.0358 H   0  0  0  0  0  0  0  0  0  0  0  0
  150.3839  139.5685  155.7255 H   0  0  0  0  0  0  0  0  0  0  0  0
  147.4731  139.5913  156.5481 H   0  0  0  0  0  0  0  0  0  0  0  0
  148.7051  140.7048  156.0234 H   0  0  0  0  0  0  0  0  0  0  0  0
  145.7651  141.0369  155.6100 H   0  0  0  0  0  0  0  0  0  0  0  0
  146.9541  142.1932  156.1840 H   0  0  0  0  0  0  0  0  0  0  0  0
  149.1231  140.9676  153.3176 H   0  0  0  0  0  0  0  0  0  0  0  0
  147.8960  140.2184  152.3205 H   0  0  0  0  0  0  0  0  0  0  0  0
  1  2  1  0  0  0  0
  1 24  1  0  0  0  0
  1 25  1  0  0  0  0
  1 26  1  0  0  0  0
  2  7  1  0  0  0  0
  2  3  2  0  0  0  0
  3  4  1  0  0  0  0
  3 27  1  0  0  0  0
  4  5  2  0  0  0  0
  4 28  1  0  0  0  0
  5  6  1  0  0  0  0
  5 29  1  0  0  0  0
  6  7  2  0  0  0  0
  7  8  1  0  0  0  0
  8  9  1  0  0  0  0
  8 30  1  0  0  0  0
  9 10  2  0  0  0  0
  9 11  1  0  0  0  0
 11 12  1  0  0  0  0
 11 31  1  0  0  0  0
 12 13  1  0  0  0  0
 12 32  1  0  0  0  0
 12 33  1  0  0  0  0
 13 23  1  0  0  0  0
 13 14  1  0  0  0  0
 13 20  1  0  0  0  0
 14 19  1  0  0  0  0
 14 15  1  0  0  0  0
 15 16  1  0  0  0  0
 15 34  1  0  0  0  0
 15 35  1  0  0  0  0
 16 17  1  0  0  0  0
 16 36  1  0  0  0  0
 16 37  1  0  0  0  0
 17 18  1  0  0  0  0
 18 19  1  0  0  0  0
 18 38  1  0  0  0  0
 18 39  1  0  0  0  0
 19 40  1  0  0  0  0
 19 41  1  0  0  0  0
 20 21  1  0  0  0  0
 20 42  1  0  0  0  0
 20 43  1  0  0  0  0
 21 22  1  0  0  0  0
 21 44  1  0  0  0  0
 21 45  1  0  0  0  0
 22 23  1  0  0  0  0
 23 46  1  0  0  0  0
 23 47  1  0  0  0  0
M  END
> <s_m_source_file>
AV-unprocessed.smi

> <i_m_source_file_index>
1211

> <i_lp_mmshare_version>
43012

> <i_f3d_flags>
0

> <s_epik_input>
W0NIM11jMVtjSF1bY0hdW2NIXW5jMVtOSF1DKD1PKVtOSF1bQ0gyXVtDQF0yKFtDSDJdW0NIMl1TW0NIMl0yKU4zW0NIMl1bQ0gyXU9bQ0gyXVtDSDJdMw==

> <s_epik_cmdline>
J2VwaWtfcHl0aG9uJywgJy1waCcsICc3LjAnLCAnLXRuJywgJzgnLCAnLW1hJywgJzIwMCcsICctbWV0YWxfYmluZGluZycsICctaW1hZScsICc8aW5maWxlLm1hZT4nLCAnLW9tYWUnLCAnPG91dGZpbGUubWFlPic=

> <r_epik_Ionization_Penalty>
0.0195636

> <r_epik_Ionization_Penalty_Charging>
0

> <r_epik_Ionization_Penalty_Neutral>
0.0195636

> <r_epik_State_Penalty>
0.0155843

> <r_epik_Charging_Adjusted_Penalty>
0.0155843

> <i_epik_Tot_Q>
0

> <i_epik_Tot_abs_Q>
0

> <r_epik_Metal_State_Penalty>
0.0155842

> <b_epik_Metal_Only>
0

> <s_lp_Force_Field>
OPLS_2005

> <r_lp_Energy>
55.6776

> <b_lp_Chiralities_Consistent>
1

> <s_lp_Variant>
AV-unprocessed.smi:1211-2

> <Gold.Version>
5.8.1

> <Gold.Id.Protein>
6NUR|6NUR_protein|mol2

> <Gold.PLP.Fitness>
41.2602

> <Gold.PLP.PLP>
-34.3084

> <Gold.PLP.part.hbond>
-2.2717

> <Gold.PLP.part.metal>
0.0000

> <Gold.PLP.part.buried>
-4.1118

> <Gold.PLP.part.nonpolar>
-28.6748

> <Gold.PLP.part.repulsive>
0.5765

> <Gold.PLP.ligand.clash>
0.0000

> <Gold.PLP.ligand.torsion>
0.9561

> <Gold.PLP.Chemscore.Hbond>
1.9280

> <Gold.PLP.Chemscore.CHOScore>
1.0000

> <Gold.PLP.Chemscore.Metal>
0.0000

> <Gold.Chemscore.Hbonds>
donor molecule, donor type, donor heavy atom, donor atom, acceptor molecule, acceptor atom, score
      L1  H     8    30       P1  7948  1.00
      L1  H    11    31       P1  7948  0.93
      L1  C     5    29       P1 10186  1.00

> <Gold.PLP.Chemscore.Internal.Correction>
0.0800

> <Gold.Rescore>
     Score         DG    S(hbond)    S(metal)    S(lipo)     H(rot)  DE(clash)    DE(int)     intcor
     17.44     -18.79       1.87        0.00      91.95       1.44       0.56       0.78       ----

> <Gold.Chemscore.Fitness>
17.4448

> <Gold.Chemscore.DG>
-18.7883

> <Gold.Chemscore.ZeroCoef>
-5.4800

> <Gold.Chemscore.Hbond>
1.8677

> <Gold.Chemscore.Metal>
0.0000

> <Gold.Chemscore.Lipo>
91.9476

> <Gold.Chemscore.Internal_Hbond>
0.0000

> <Gold.Chemscore.DEClash>
0.5589

> <Gold.Chemscore.DEInternal>
0.7845

> <Gold.Chemscore.Rot>
1.4405

> <Gold.Chemscore.Internal.Correction>
   9.000000E+99

> <Gold.Chemscore.Hbonds>
donor molecule, donor type, donor heavy atom, donor atom, acceptor molecule, acceptor atom, score
      L1  H     8    30       P1  7948  0.99
      L1  H    11    31       P1  7948  0.91

> <Gold.Chemscore.Hbond.Weighted>
-6.2380

> <Gold.Chemscore.Metal.Weighted>
-0.0000

> <Gold.Chemscore.Lipo.Weighted>
-10.7579

> <Gold.Chemscore.Internal_Hbond.Weighted>
0.0000

> <Gold.Chemscore.DEClash.Weighted>
0.5589

> <Gold.Chemscore.DEInternal.Weighted>
0.7845

> <Gold.Chemscore.Rot.Weighted>
3.6876

> <Gold.Chemscore.Internal.Correction.Weighted>
   9.000000E+99

> <Gold.Protein.RotatedTorsions>
[ 6907 6896 6895 6894 ] final  164.24 input  -60.11 | X-H torsion
[ 7974 7965 7964 7962 ] final    3.71 input  175.53 | X-H torsion
[ 8008 7997 7996 7995 ] final   58.77 input   59.86 | X-H torsion
[ 10167 10162 10161 10158 ] final  -76.45 input  -65.29 | X-H torsion
[ 10718 10713 10712 10709 ] final   60.12 input   66.30 | X-H torsion
[ 10763 10752 10751 10750 ] final  138.11 input  -60.55 | X-H torsion
[ 11005 11000 10999 10996 ] final    8.29 input  -57.11 | X-H torsion

> <Gold.Protein.ActiveResidues>
 VAL166  LYS551  ARG553  GLY616  TRP617  ASP618  TYR619  PRO620  LYS621  CYS622 
 ASP623  PHE694  ASN695  SER759  ASP760  ASP761  ALA762  ILE779  LEU786  VAL792 
 PHE793  MET794  SER795  GLU796  ALA797  LYS798  CYS799  TRP800  GLU811  SER814 

> <Gold.Protein.RotatedAtoms>
  151.9129  133.3566  159.3869 H   0  0  0  0  0  0  0  0  0  0  0  0  # atno 6907 bound_to 6896
  150.7054  134.4713  159.5436 H   0  0  0  0  0  0  0  0  0  0  0  0  # atno 6908 bound_to 6896
  152.2323  134.8310  160.0523 H   0  0  0  0  0  0  0  0  0  0  0  0  # atno 6909 bound_to 6896
  146.2445  140.0644  142.8366 H   0  0  0  0  0  0  0  0  0  0  0  0  # atno 7974 bound_to 7965
  155.5553  140.3487  155.4478 H   0  0  0  0  0  0  0  0  0  0  0  0  # atno 8008 bound_to 7997
  156.0553  140.1327  157.0029 H   0  0  0  0  0  0  0  0  0  0  0  0  # atno 8009 bound_to 7997
  154.4453  140.0996  156.6422 H   0  0  0  0  0  0  0  0  0  0  0  0  # atno 8010 bound_to 7997
  140.4856  143.2392  151.7989 H   0  0  0  0  0  0  0  0  0  0  0  0  # atno 10167 bound_to 10162
  157.5729  130.8921  149.9297 H   0  0  0  0  0  0  0  0  0  0  0  0  # atno 10718 bound_to 10713
  153.8842  135.3041  155.3446 H   0  0  0  0  0  0  0  0  0  0  0  0  # atno 10763 bound_to 10752
  154.7747  135.4867  153.9723 H   0  0  0  0  0  0  0  0  0  0  0  0  # atno 10764 bound_to 10752
  153.1334  135.6809  153.9239 H   0  0  0  0  0  0  0  0  0  0  0  0  # atno 10765 bound_to 10752
  140.5387  134.0395  155.7897 H   0  0  0  0  0  0  0  0  0  0  0  0  # atno 11005 bound_to 11000
  145.0871  140.9260  143.4791 LP  0  0  0  0  0  0  0  0  0  0  0  0  # atno 17320 bound_to 7965
  145.0809  139.2960  143.5784 LP  0  0  0  0  0  0  0  0  0  0  0  0  # atno 17321 bound_to 7965
  139.4841  144.4716  151.9418 LP  0  0  0  0  0  0  0  0  0  0  0  0  # atno 17342 bound_to 10162
  140.3802  144.2745  150.5909 LP  0  0  0  0  0  0  0  0  0  0  0  0  # atno 17343 bound_to 10162
  156.0774  130.3677  150.0651 LP  0  0  0  0  0  0  0  0  0  0  0  0  # atno 17370 bound_to 10713
  156.8801  130.9553  151.3600 LP  0  0  0  0  0  0  0  0  0  0  0  0  # atno 17371 bound_to 10713
  141.1240  133.9414  157.2673 LP  0  0  0  0  0  0  0  0  0  0  0  0  # atno 17394 bound_to 11000
  139.9515  135.0174  156.9008 LP  0  0  0  0  0  0  0  0  0  0  0  0  # atno 17395 bound_to 11000

$$$$
