AV-unprocessed.smi:166|AV-procd|sdf|1389|dock1
  -GOLD-   2262019123D 1   1.00000     0.00000
 Structure written by MMmdl.
 54 58  0  0  0  0  0  0  0  0  1 V2000
  148.3323  132.4478  151.7858 O   0  0  0  0  0  0  0  0  0  0  0  0
  147.2205  132.3359  152.6581 C   0  0  2  0  0  0  0  0  0  0  0  0
  147.7263  132.2627  154.1183 C   0  0  0  0  0  0  0  0  0  0  0  0
  148.5860  133.3741  154.4982 N   0  0  0  0  0  0  0  0  0  0  0  0
  149.8949  133.2948  154.9183 C   0  0  0  0  0  0  0  0  0  0  0  0
  150.4551  134.4351  155.2152 N   0  0  0  0  0  0  0  0  0  0  0  0
  149.4549  135.3737  154.9915 C   0  0  0  0  0  0  0  0  0  0  0  0
  149.3760  136.7885  155.1270 C   0  0  0  0  0  0  0  0  0  0  0  0
  150.4249  137.5442  155.5398 N   0  0  0  0  0  0  0  0  0  0  0  0
  151.3193  137.9900  154.4723 C   0  0  0  0  0  0  0  0  0  0  0  0
  152.6671  138.4540  155.0475 C   0  0  0  0  0  0  0  0  0  0  0  0
  152.4621  139.5162  156.1380 C   0  0  0  0  0  0  0  0  0  0  0  0
  151.5160  138.9904  157.2301 C   0  0  1  0  0  0  0  0  0  0  0  0
  151.3036  140.0474  158.1560 O   0  0  0  0  0  0  0  0  0  0  0  0
  152.4763  140.4881  158.8282 C   0  0  0  0  0  0  0  0  0  0  0  0
  152.1882  141.6982  159.6979 C   0  0  0  0  0  0  0  0  0  0  0  0
  152.7846  143.0525  159.3732 C   0  0  0  0  0  0  0  0  0  0  0  0
  153.2618  142.2964  160.5838 C   0  0  0  0  0  0  0  0  0  0  0  0
  150.1857  138.5206  156.6042 C   0  0  0  0  0  0  0  0  0  0  0  0
  148.1879  137.3798  154.8289 N   0  0  0  0  0  0  0  0  0  0  0  0
  147.1503  136.6426  154.4219 C   0  0  0  0  0  0  0  0  0  0  0  0
  147.0819  135.3212  154.2497 N   0  0  0  0  0  0  0  0  0  0  0  0
  148.2693  134.7209  154.5490 C   0  0  0  0  0  0  0  0  0  0  0  0
  146.4179  131.1058  152.2509 C   0  0  0  0  0  0  0  0  0  0  0  0
  145.4556  131.6599  151.2091 C   0  0  0  0  0  0  0  0  0  0  0  0
  145.0979  132.9190  151.7522 O   0  0  0  0  0  0  0  0  0  0  0  0
  146.2473  133.4972  152.3635 C   0  0  0  0  0  0  0  0  0  0  0  0
  148.6635  131.5801  151.6121 H   0  0  0  0  0  0  0  0  0  0  0  0
  146.8809  132.2322  154.8067 H   0  0  0  0  0  0  0  0  0  0  0  0
  148.2801  131.3364  154.2767 H   0  0  0  0  0  0  0  0  0  0  0  0
  150.4256  132.3570  154.9984 H   0  0  0  0  0  0  0  0  0  0  0  0
  151.4922  137.2018  153.7403 H   0  0  0  0  0  0  0  0  0  0  0  0
  150.8413  138.8122  153.9380 H   0  0  0  0  0  0  0  0  0  0  0  0
  153.1990  137.5983  155.4651 H   0  0  0  0  0  0  0  0  0  0  0  0
  153.2957  138.8518  154.2506 H   0  0  0  0  0  0  0  0  0  0  0  0
  153.4219  139.7946  156.5746 H   0  0  0  0  0  0  0  0  0  0  0  0
  152.0467  140.4215  155.6934 H   0  0  0  0  0  0  0  0  0  0  0  0
  152.0037  138.1522  157.7312 H   0  0  0  0  0  0  0  0  0  0  0  0
  152.8796  139.6979  159.4612 H   0  0  0  0  0  0  0  0  0  0  0  0
  153.2462  140.7584  158.1042 H   0  0  0  0  0  0  0  0  0  0  0  0
  151.1789  141.7092  160.1053 H   0  0  0  0  0  0  0  0  0  0  0  0
  153.4645  143.1248  158.5265 H   0  0  0  0  0  0  0  0  0  0  0  0
  152.1604  143.9275  159.5421 H   0  0  0  0  0  0  0  0  0  0  0  0
  152.9557  142.6677  161.5597 H   0  0  0  0  0  0  0  0  0  0  0  0
  154.2595  141.8638  160.5445 H   0  0  0  0  0  0  0  0  0  0  0  0
  149.6455  139.3746  156.1931 H   0  0  0  0  0  0  0  0  0  0  0  0
  149.5513  138.0736  157.3700 H   0  0  0  0  0  0  0  0  0  0  0  0
  146.2452  137.1900  154.2037 H   0  0  0  0  0  0  0  0  0  0  0  0
  147.0301  130.2846  151.8761 H   0  0  0  0  0  0  0  0  0  0  0  0
  145.8432  130.7305  153.0988 H   0  0  0  0  0  0  0  0  0  0  0  0
  145.9539  131.8013  150.2487 H   0  0  0  0  0  0  0  0  0  0  0  0
  144.5835  131.0238  151.0570 H   0  0  0  0  0  0  0  0  0  0  0  0
  145.9251  134.0109  153.2680 H   0  0  0  0  0  0  0  0  0  0  0  0
  146.6852  134.2457  151.7017 H   0  0  0  0  0  0  0  0  0  0  0  0
  1  2  1  0  0  0  0
  1 28  1  0  0  0  0
  2 27  1  0  0  0  0
  2  3  1  0  0  0  0
  2 24  1  0  0  0  0
  3  4  1  0  0  0  0
  3 29  1  0  0  0  0
  3 30  1  0  0  0  0
  4 23  1  0  0  0  0
  4  5  1  0  0  0  0
  5  6  2  0  0  0  0
  5 31  1  0  0  0  0
  6  7  1  0  0  0  0
  7 23  2  0  0  0  0
  7  8  1  0  0  0  0
  8  9  1  0  0  0  0
  8 20  2  0  0  0  0
  9 19  1  0  0  0  0
  9 10  1  0  0  0  0
 10 11  1  0  0  0  0
 10 32  1  0  0  0  0
 10 33  1  0  0  0  0
 11 12  1  0  0  0  0
 11 34  1  0  0  0  0
 11 35  1  0  0  0  0
 12 13  1  0  0  0  0
 12 36  1  0  0  0  0
 12 37  1  0  0  0  0
 13 14  1  0  0  0  0
 13 19  1  0  0  0  0
 13 38  1  0  0  0  0
 14 15  1  0  0  0  0
 15 16  1  0  0  0  0
 15 39  1  0  0  0  0
 15 40  1  0  0  0  0
 16 18  1  0  0  0  0
 16 17  1  0  0  0  0
 16 41  1  0  0  0  0
 17 18  1  0  0  0  0
 17 42  1  0  0  0  0
 17 43  1  0  0  0  0
 18 44  1  0  0  0  0
 18 45  1  0  0  0  0
 19 46  1  0  0  0  0
 19 47  1  0  0  0  0
 20 21  1  0  0  0  0
 21 22  2  0  0  0  0
 21 48  1  0  0  0  0
 22 23  1  0  0  0  0
 24 25  1  0  0  0  0
 24 49  1  0  0  0  0
 24 50  1  0  0  0  0
 25 26  1  0  0  0  0
 25 51  1  0  0  0  0
 25 52  1  0  0  0  0
 26 27  1  0  0  0  0
 27 53  1  0  0  0  0
 27 54  1  0  0  0  0
M  END
> <s_m_source_file>
AV-unprocessed.smi

> <i_m_source_file_index>
166

> <i_lp_mmshare_version>
43012

> <i_f3d_flags>
0

> <s_epik_input>
W0NIMl0xT1tDSDJdW0NIMl1bQ0BAXTEoW09IXSlbQ0gyXW4oW2NIXW4yKWMoYzIzKW5bY0hdbmMzTjRbQ0gyXVtDSDJdW0NIMl1bQ0BIXShbQ0gyXTQpT1tDSDJdW0NIXTVbQ0gyXVtDSDJdNQ==

> <s_epik_cmdline>
J2VwaWtfcHl0aG9uJywgJy1waCcsICc3LjAnLCAnLXRuJywgJzgnLCAnLW1hJywgJzIwMCcsICctbWV0YWxfYmluZGluZycsICctaW1hZScsICc8aW5maWxlLm1hZT4nLCAnLW9tYWUnLCAnPG91dGZpbGUubWFlPic=

> <r_lp_tautomer_probability>
1

> <r_epik_Ionization_Penalty>
0.00342552

> <r_epik_Ionization_Penalty_Charging>
0

> <r_epik_Ionization_Penalty_Neutral>
0.00342552

> <r_epik_State_Penalty>
0.0022204

> <r_epik_Charging_Adjusted_Penalty>
0.0022204

> <i_epik_Tot_Q>
0

> <i_epik_Tot_abs_Q>
0

> <r_epik_Metal_State_Penalty>
-0

> <b_epik_Metal_Only>
0

> <s_lp_Force_Field>
OPLS_2005

> <r_lp_Energy>
44.6649

> <b_lp_Chiralities_Consistent>
1

> <s_lp_Variant>
AV-unprocessed.smi:166-2

> <Gold.Version>
5.8.1

> <Gold.Id.Protein>
6NUR|6NUR_protein|mol2

> <Gold.PLP.Fitness>
42.9995

> <Gold.PLP.PLP>
-40.7864

> <Gold.PLP.part.hbond>
-0.9944

> <Gold.PLP.part.metal>
0.0000

> <Gold.PLP.part.buried>
-4.8791

> <Gold.PLP.part.nonpolar>
-34.9781

> <Gold.PLP.part.repulsive>
0.4511

> <Gold.PLP.ligand.clash>
0.0000

> <Gold.PLP.ligand.torsion>
0.8925

> <Gold.PLP.Chemscore.Hbond>
1.0000

> <Gold.PLP.Chemscore.CHOScore>
0.0000

> <Gold.PLP.Chemscore.Metal>
0.0000

> <Gold.Chemscore.Hbonds>
donor molecule, donor type, donor heavy atom, donor atom, acceptor molecule, acceptor atom, score
      L1  H     1    28       P1 10747  0.64

> <Gold.PLP.Chemscore.Internal.Correction>
0.9982

> <Gold.Rescore>
     Score         DG    S(hbond)    S(metal)    S(lipo)     H(rot)  DE(clash)    DE(int)     intcor
     11.94     -13.96       0.96        0.00     103.84       2.68       0.05       1.97       ----

> <Gold.Chemscore.Fitness>
11.9448

> <Gold.Chemscore.DG>
-13.9575

> <Gold.Chemscore.ZeroCoef>
-5.4800

> <Gold.Chemscore.Hbond>
0.9560

> <Gold.Chemscore.Metal>
0.0000

> <Gold.Chemscore.Lipo>
103.8415

> <Gold.Chemscore.Internal_Hbond>
0.0000

> <Gold.Chemscore.DEClash>
0.0456

> <Gold.Chemscore.DEInternal>
1.9670

> <Gold.Chemscore.Rot>
2.6817

> <Gold.Chemscore.Internal.Correction>
   9.000000E+99

> <Gold.Chemscore.Hbonds>
donor molecule, donor type, donor heavy atom, donor atom, acceptor molecule, acceptor atom, score
      L1  H     1    28       P1 10747  0.60

> <Gold.Chemscore.Hbond.Weighted>
-3.1931

> <Gold.Chemscore.Metal.Weighted>
-0.0000

> <Gold.Chemscore.Lipo.Weighted>
-12.1494

> <Gold.Chemscore.Internal_Hbond.Weighted>
0.0000

> <Gold.Chemscore.DEClash.Weighted>
0.0456

> <Gold.Chemscore.DEInternal.Weighted>
1.9670

> <Gold.Chemscore.Rot.Weighted>
6.8651

> <Gold.Chemscore.Internal.Correction.Weighted>
   9.000000E+99

> <Gold.Protein.RotatedTorsions>
[ 6907 6896 6895 6894 ] final   14.56 input  -60.11 | X-H torsion
[ 7974 7965 7964 7962 ] final   65.51 input  175.53 | X-H torsion
[ 8008 7997 7996 7995 ] final  -29.12 input   59.86 | X-H torsion
[ 10167 10162 10161 10158 ] final   35.42 input  -65.29 | X-H torsion
[ 10718 10713 10712 10709 ] final   44.53 input   66.30 | X-H torsion
[ 10763 10752 10751 10750 ] final   27.24 input  -60.55 | X-H torsion
[ 11005 11000 10999 10996 ] final  -65.91 input  -57.11 | X-H torsion

> <Gold.Protein.ActiveResidues>
 VAL166  LYS551  ARG553  GLY616  TRP617  ASP618  TYR619  PRO620  LYS621  CYS622 
 ASP623  PHE694  ASN695  SER759  ASP760  ASP761  ALA762  ILE779  LEU786  VAL792 
 PHE793  MET794  SER795  GLU796  ALA797  LYS798  CYS799  TRP800  GLU811  SER814 

> <Gold.Protein.RotatedAtoms>
  151.8041  135.0700  160.0403 H   0  0  0  0  0  0  0  0  0  0  0  0  # atno 6907 bound_to 6896
  152.3067  133.5706  159.5662 H   0  0  0  0  0  0  0  0  0  0  0  0  # atno 6908 bound_to 6896
  150.7300  134.0128  159.3717 H   0  0  0  0  0  0  0  0  0  0  0  0  # atno 6909 bound_to 6896
  145.8376  139.3176  143.0950 H   0  0  0  0  0  0  0  0  0  0  0  0  # atno 7974 bound_to 7965
  154.4303  140.1827  156.1197 H   0  0  0  0  0  0  0  0  0  0  0  0  # atno 8008 bound_to 7997
  156.0152  140.3346  155.6957 H   0  0  0  0  0  0  0  0  0  0  0  0  # atno 8009 bound_to 7997
  155.6054  140.0644  157.2712 H   0  0  0  0  0  0  0  0  0  0  0  0  # atno 8010 bound_to 7997
  140.4224  144.1441  150.6149 H   0  0  0  0  0  0  0  0  0  0  0  0  # atno 10167 bound_to 10162
  157.4278  130.8007  149.7575 H   0  0  0  0  0  0  0  0  0  0  0  0  # atno 10718 bound_to 10713
  153.0569  135.6541  154.0556 H   0  0  0  0  0  0  0  0  0  0  0  0  # atno 10763 bound_to 10752
  154.0232  135.2918  155.3379 H   0  0  0  0  0  0  0  0  0  0  0  0  # atno 10764 bound_to 10752
  154.6888  135.5291  153.8431 H   0  0  0  0  0  0  0  0  0  0  0  0  # atno 10765 bound_to 10752
  141.1468  133.6690  156.6059 H   0  0  0  0  0  0  0  0  0  0  0  0  # atno 11005 bound_to 11000
  145.9501  140.8915  143.0263 LP  0  0  0  0  0  0  0  0  0  0  0  0  # atno 17320 bound_to 7965
  144.6735  140.1668  143.7417 LP  0  0  0  0  0  0  0  0  0  0  0  0  # atno 17321 bound_to 7965
  140.4519  143.2483  151.9336 LP  0  0  0  0  0  0  0  0  0  0  0  0  # atno 17342 bound_to 10162
  139.4783  144.5553  151.8322 LP  0  0  0  0  0  0  0  0  0  0  0  0  # atno 17343 bound_to 10162
  155.9903  130.3946  150.3036 LP  0  0  0  0  0  0  0  0  0  0  0  0  # atno 17370 bound_to 10713
  157.1190  131.0241  151.3017 LP  0  0  0  0  0  0  0  0  0  0  0  0  # atno 17371 bound_to 10713
  140.3652  134.7653  157.4561 LP  0  0  0  0  0  0  0  0  0  0  0  0  # atno 17394 bound_to 11000
  140.0753  134.5805  155.8597 LP  0  0  0  0  0  0  0  0  0  0  0  0  # atno 17395 bound_to 11000

$$$$
