AV-unprocessed.smi:157|AV-procd|sdf|1291|dock6
  -GOLD-   2262018573D 1   1.00000     0.00000
 Structure written by MMmdl.
 35 37  0  0  0  0  0  0  0  0  1 V2000
  151.3805  136.9125  154.5566 O   0  0  0  0  0  0  0  0  0  0  0  0
  151.4711  138.3137  154.4122 C   0  0  0  0  0  0  0  0  0  0  0  0
  150.1763  138.9868  154.8953 C   0  0  1  0  0  0  0  0  0  0  0  0
  150.0193  138.8177  156.3073 O   0  0  0  0  0  0  0  0  0  0  0  0
  149.6197  140.0160  156.9099 C   0  0  1  0  0  0  0  0  0  0  0  0
  150.7966  140.6072  157.6368 N   0  0  0  0  0  0  0  0  0  0  0  0
  151.9747  140.0186  157.8895 C   0  0  0  0  0  0  0  0  0  0  0  0
  152.8387  140.7717  158.5480 N   0  0  0  0  0  0  0  0  0  0  0  0
  152.1496  141.9627  158.7632 C   0  0  0  0  0  0  0  0  0  0  0  0
  150.8752  141.8757  158.2217 C   0  0  0  0  0  0  0  0  0  0  0  0
  149.7733  142.7052  158.1330 N   0  0  0  0  0  0  0  0  0  0  0  0
  149.7066  143.7201  158.9358 C   0  0  0  0  0  0  0  0  0  0  0  0
  150.6299  144.1985  159.8544 N   0  0  0  0  0  0  0  0  0  0  0  0
  152.0348  144.4003  159.5445 C   0  0  0  0  0  0  0  0  0  0  0  0
  152.8373  143.0957  159.4693 C   0  0  1  0  0  0  0  0  0  0  0  0
  153.1295  142.6516  160.7784 O   0  0  0  0  0  0  0  0  0  0  0  0
  149.1866  140.9411  155.7724 C   0  0  0  0  0  0  0  0  0  0  0  0
  150.1097  140.5000  154.6562 C   0  0  2  0  0  0  0  0  0  0  0  0
  149.5610  140.8251  153.3961 O   0  0  0  0  0  0  0  0  0  0  0  0
  149.3122  138.5012  154.4380 H   0  0  0  0  0  0  0  0  0  0  0  0
  148.8653  139.8572  157.6812 H   0  0  0  0  0  0  0  0  0  0  0  0
  153.7922  143.3059  158.9868 H   0  0  0  0  0  0  0  0  0  0  0  0
  151.0916  140.9615  154.7713 H   0  0  0  0  0  0  0  0  0  0  0  0
  151.1234  136.7177  155.4448 H   0  0  0  0  0  0  0  0  0  0  0  0
  152.3165  138.6627  155.0054 H   0  0  0  0  0  0  0  0  0  0  0  0
  151.6827  138.5571  153.3714 H   0  0  0  0  0  0  0  0  0  0  0  0
  152.2144  139.0118  157.5850 H   0  0  0  0  0  0  0  0  0  0  0  0
  148.8042  144.3329  158.9212 H   0  0  0  0  0  0  0  0  0  0  0  0
  150.3144  144.8478  160.5604 H   0  0  0  0  0  0  0  0  0  0  0  0
  152.0847  144.9007  158.5763 H   0  0  0  0  0  0  0  0  0  0  0  0
  152.4791  145.0873  160.2652 H   0  0  0  0  0  0  0  0  0  0  0  0
  152.8039  143.2962  161.3882 H   0  0  0  0  0  0  0  0  0  0  0  0
  148.1448  140.7225  155.5320 H   0  0  0  0  0  0  0  0  0  0  0  0
  149.2755  141.9966  156.0306 H   0  0  0  0  0  0  0  0  0  0  0  0
  149.8462  140.1755  152.7714 H   0  0  0  0  0  0  0  0  0  0  0  0
  1  2  1  0  0  0  0
  1 24  1  0  0  0  0
  2  3  1  0  0  0  0
  2 25  1  0  0  0  0
  2 26  1  0  0  0  0
  3 20  1  0  0  0  0
  3 18  1  0  0  0  0
  3  4  1  0  0  0  0
  4  5  1  0  0  0  0
  5 21  1  0  0  0  0
  5  6  1  0  0  0  0
  5 17  1  0  0  0  0
  6 10  1  0  0  0  0
  6  7  1  0  0  0  0
  7  8  2  0  0  0  0
  7 27  1  0  0  0  0
  8  9  1  0  0  0  0
  9 15  1  0  0  0  0
  9 10  2  0  0  0  0
 10 11  1  0  0  0  0
 11 12  2  0  0  0  0
 12 13  1  0  0  0  0
 12 28  1  0  0  0  0
 13 14  1  0  0  0  0
 13 29  1  0  0  0  0
 14 15  1  0  0  0  0
 14 30  1  0  0  0  0
 14 31  1  0  0  0  0
 15 22  1  0  0  0  0
 15 16  1  0  0  0  0
 16 32  1  0  0  0  0
 17 18  1  0  0  0  0
 17 33  1  0  0  0  0
 17 34  1  0  0  0  0
 18 23  1  0  0  0  0
 18 19  1  0  0  0  0
 19 35  1  0  0  0  0
M  END
> <s_m_source_file>
AV-unprocessed.smi

> <i_m_source_file_index>
157

> <i_lp_mmshare_version>
43012

> <i_f3d_flags>
0

> <s_epik_input>
W09IXVtDSDJdW0NASF0xT1tDQEhdKFtDSDJdW0NAQEhdMVtPSF0pbihbY0hdbjIpYyhjMjMpTj1bQ0hdW05IXVtDSDJdW0NASF0zW09IXQ==

> <s_epik_cmdline>
J2VwaWtfcHl0aG9uJywgJy1waCcsICc3LjAnLCAnLXRuJywgJzgnLCAnLW1hJywgJzIwMCcsICctbWV0YWxfYmluZGluZycsICctaW1hZScsICc8aW5maWxlLm1hZT4nLCAnLW9tYWUnLCAnPG91dGZpbGUubWFlPic=

> <r_lp_tautomer_probability>
1

> <r_epik_Ionization_Penalty>
0.0357149

> <r_epik_Ionization_Penalty_Charging>
0.0355056

> <r_epik_Ionization_Penalty_Neutral>
0.000209255

> <r_epik_State_Penalty>
0.0296046

> <r_epik_Charging_Adjusted_Penalty>
0.0651102

> <i_epik_Tot_Q>
0

> <i_epik_Tot_abs_Q>
0

> <r_epik_Metal_State_Penalty>
3.03559e-05

> <b_epik_Metal_Only>
0

> <s_epik_Chemistry_Notes>
This compound has an imine and may undergo hydrolysis. This compound contains an acetal/aminal-like group ( X-CH(R)-Y where X, Y are N, S, or O) that may be acid/base labile, releasing an aldehyde.

> <s_lp_Force_Field>
OPLS_2005

> <r_lp_Energy>
41.3094

> <b_lp_Chiralities_Consistent>
1

> <s_lp_Variant>
AV-unprocessed.smi:157-1

> <Gold.Version>
5.8.1

> <Gold.Id.Protein>
6NUR|6NUR_protein|mol2

> <Gold.PLP.Fitness>
42.8607

> <Gold.PLP.PLP>
-32.2113

> <Gold.PLP.part.hbond>
-4.1752

> <Gold.PLP.part.metal>
0.0000

> <Gold.PLP.part.buried>
-3.8131

> <Gold.PLP.part.nonpolar>
-24.5109

> <Gold.PLP.part.repulsive>
0.2857

> <Gold.PLP.ligand.clash>
0.0000

> <Gold.PLP.ligand.torsion>
0.1480

> <Gold.PLP.Chemscore.Hbond>
2.6416

> <Gold.PLP.Chemscore.CHOScore>
1.0000

> <Gold.PLP.Chemscore.Metal>
0.0000

> <Gold.Chemscore.Hbonds>
donor molecule, donor type, donor heavy atom, donor atom, acceptor molecule, acceptor atom, score
      L1  H    19    35       P1  7957  0.64
      P1  H  7997  8009       L1     8  0.01
      P1  H  8011  8017       L1    19  0.95
      P1  H 10752 10763       L1     1  0.95
      L1  C    12    28       P1  8029  1.00

> <Gold.PLP.Chemscore.Internal.Correction>
0.0209

> <Gold.Rescore>
     Score         DG    S(hbond)    S(metal)    S(lipo)     H(rot)  DE(clash)    DE(int)     intcor
      8.62      -9.10       1.76        0.00      60.14       3.64       0.47       0.02       ----

> <Gold.Chemscore.Fitness>
8.6158

> <Gold.Chemscore.DG>
-9.0984

> <Gold.Chemscore.ZeroCoef>
-5.4800

> <Gold.Chemscore.Hbond>
1.7637

> <Gold.Chemscore.Metal>
0.0000

> <Gold.Chemscore.Lipo>
60.1402

> <Gold.Chemscore.Internal_Hbond>
0.0000

> <Gold.Chemscore.DEClash>
0.4660

> <Gold.Chemscore.DEInternal>
0.0166

> <Gold.Chemscore.Rot>
3.6362

> <Gold.Chemscore.Internal.Correction>
   9.000000E+99

> <Gold.Chemscore.Hbonds>
donor molecule, donor type, donor heavy atom, donor atom, acceptor molecule, acceptor atom, score
      L1  H    19    35       P1  7957  0.64
      P1  H  8011  8017       L1    19  0.21
      P1  H 10752 10763       L1     1  0.20

> <Gold.Chemscore.Hbond.Weighted>
-5.8908

> <Gold.Chemscore.Metal.Weighted>
-0.0000

> <Gold.Chemscore.Lipo.Weighted>
-7.0364

> <Gold.Chemscore.Internal_Hbond.Weighted>
0.0000

> <Gold.Chemscore.DEClash.Weighted>
0.4660

> <Gold.Chemscore.DEInternal.Weighted>
0.0166

> <Gold.Chemscore.Rot.Weighted>
9.3087

> <Gold.Chemscore.Internal.Correction.Weighted>
   9.000000E+99

> <Gold.Protein.RotatedTorsions>
[ 6907 6896 6895 6894 ] final -122.01 input  -60.11 | X-H torsion
[ 7974 7965 7964 7962 ] final  119.68 input  175.53 | X-H torsion
[ 8008 7997 7996 7995 ] final  157.77 input   59.86 | X-H torsion
[ 10167 10162 10161 10158 ] final  155.85 input  -65.29 | X-H torsion
[ 10718 10713 10712 10709 ] final   87.04 input   66.30 | X-H torsion
[ 10763 10752 10751 10750 ] final   47.07 input  -60.55 | X-H torsion
[ 11005 11000 10999 10996 ] final  111.92 input  -57.11 | X-H torsion

> <Gold.Protein.ActiveResidues>
 VAL166  LYS551  ARG553  GLY616  TRP617  ASP618  TYR619  PRO620  LYS621  CYS622 
 ASP623  PHE694  ASN695  SER759  ASP760  ASP761  ALA762  ILE779  LEU786  VAL792 
 PHE793  MET794  SER795  GLU796  ALA797  LYS798  CYS799  TRP800  GLU811  SER814 

> <Gold.Protein.RotatedAtoms>
  150.8536  133.7749  159.3016 H   0  0  0  0  0  0  0  0  0  0  0  0  # atno 6907 bound_to 6896
  151.5413  135.1067  159.9936 H   0  0  0  0  0  0  0  0  0  0  0  0  # atno 6908 bound_to 6896
  152.4572  133.7704  159.6852 H   0  0  0  0  0  0  0  0  0  0  0  0  # atno 6909 bound_to 6896
  145.1402  139.3272  143.4620 H   0  0  0  0  0  0  0  0  0  0  0  0  # atno 7974 bound_to 7965
  156.2344  140.1876  156.7159 H   0  0  0  0  0  0  0  0  0  0  0  0  # atno 8008 bound_to 7997
  154.6079  140.0626  156.9482 H   0  0  0  0  0  0  0  0  0  0  0  0  # atno 8009 bound_to 7997
  155.2065  140.3296  155.4338 H   0  0  0  0  0  0  0  0  0  0  0  0  # atno 8010 bound_to 7997
  139.4821  144.5061  151.8095 H   0  0  0  0  0  0  0  0  0  0  0  0  # atno 10167 bound_to 10162
  157.6936  131.0239  150.3063 H   0  0  0  0  0  0  0  0  0  0  0  0  # atno 10718 bound_to 10713
  152.9803  135.5988  154.3703 H   0  0  0  0  0  0  0  0  0  0  0  0  # atno 10763 bound_to 10752
  154.3377  135.2768  155.2440 H   0  0  0  0  0  0  0  0  0  0  0  0  # atno 10764 bound_to 10752
  154.4536  135.5983  153.6263 H   0  0  0  0  0  0  0  0  0  0  0  0  # atno 10765 bound_to 10752
  139.8915  134.9518  156.6505 H   0  0  0  0  0  0  0  0  0  0  0  0  # atno 11005 bound_to 11000
  146.3506  140.1436  142.8594 LP  0  0  0  0  0  0  0  0  0  0  0  0  # atno 17320 bound_to 7965
  145.0540  140.9039  143.4978 LP  0  0  0  0  0  0  0  0  0  0  0  0  # atno 17321 bound_to 7965
  140.4560  144.1789  150.5901 LP  0  0  0  0  0  0  0  0  0  0  0  0  # atno 17342 bound_to 10162
  140.4535  143.2477  151.9316 LP  0  0  0  0  0  0  0  0  0  0  0  0  # atno 17343 bound_to 10162
  156.3571  130.3840  149.7281 LP  0  0  0  0  0  0  0  0  0  0  0  0  # atno 17370 bound_to 10713
  156.4740  130.8010  151.3027 LP  0  0  0  0  0  0  0  0  0  0  0  0  # atno 17371 bound_to 10713
  140.7524  133.8886  155.8356 LP  0  0  0  0  0  0  0  0  0  0  0  0  # atno 17394 bound_to 11000
  140.9990  134.1176  157.4336 LP  0  0  0  0  0  0  0  0  0  0  0  0  # atno 17395 bound_to 11000

$$$$
