AV-unprocessed.smi:2907|AV-procd|sdf|11166|dock5
  -GOLD-   2272016 53D 1   1.00000     0.00000
 Structure written by MMmdl.
 45 46  0  0  0  0  0  0  0  0  1 V2000
  145.5426  143.8397  153.4540 C   0  0  0  0  0  0  0  0  0  0  0  0
  145.5565  143.0472  154.7693 C   0  0  0  0  0  0  0  0  0  0  0  0
  146.4725  141.8072  154.7456 C   0  0  0  0  0  0  0  0  0  0  0  0
  145.9950  140.7331  155.7430 C   0  0  0  0  0  0  0  0  0  0  0  0
  146.0720  141.1704  157.2138 C   0  0  0  0  0  0  0  0  0  0  0  0
  147.8518  142.1822  155.0534 N   0  0  0  0  0  0  0  0  0  0  0  0
  148.8793  141.3375  155.2375 C   0  0  0  0  0  0  0  0  0  0  0  0
  148.8010  140.1195  155.0798 O   0  0  0  0  0  0  0  0  0  0  0  0
  150.1965  141.9653  155.6945 C   0  0  0  0  0  0  0  0  0  0  0  0
  151.1728  140.9356  156.0159 N   0  0  0  0  0  0  0  0  0  0  0  0
  151.5329  140.0141  155.0881 N   0  0  0  0  0  0  0  0  0  0  0  0
  152.4419  139.2631  155.6376 N   0  0  0  0  0  0  0  0  0  0  0  0
  152.7092  139.6647  156.9319 N   0  0  0  0  0  0  0  0  0  0  0  0
  151.8899  140.6920  157.1246 C   0  0  0  0  0  0  0  0  0  0  0  0
  151.8199  141.5187  158.3767 C   0  0  0  0  0  0  0  0  0  0  0  0
  151.8556  143.0281  158.0686 C   0  0  0  0  0  0  0  0  0  0  0  0
  151.7545  143.8658  159.3533 C   0  0  0  0  0  0  0  0  0  0  0  0
  152.8510  143.4796  160.3587 C   0  0  0  0  0  0  0  0  0  0  0  0
  152.8106  141.9758  160.6749 C   0  0  0  0  0  0  0  0  0  0  0  0
  152.9132  141.1326  159.3933 C   0  0  0  0  0  0  0  0  0  0  0  0
  144.8321  144.6645  153.5081 H   0  0  0  0  0  0  0  0  0  0  0  0
  145.2526  143.2053  152.6161 H   0  0  0  0  0  0  0  0  0  0  0  0
  146.5214  144.2647  153.2309 H   0  0  0  0  0  0  0  0  0  0  0  0
  145.8507  143.7087  155.5852 H   0  0  0  0  0  0  0  0  0  0  0  0
  144.5363  142.7316  154.9903 H   0  0  0  0  0  0  0  0  0  0  0  0
  146.4185  141.3700  153.7470 H   0  0  0  0  0  0  0  0  0  0  0  0
  144.9696  140.4430  155.5101 H   0  0  0  0  0  0  0  0  0  0  0  0
  146.5992  139.8340  155.6174 H   0  0  0  0  0  0  0  0  0  0  0  0
  145.7695  140.3579  157.8743 H   0  0  0  0  0  0  0  0  0  0  0  0
  145.4173  142.0182  157.4180 H   0  0  0  0  0  0  0  0  0  0  0  0
  147.0883  141.4573  157.4851 H   0  0  0  0  0  0  0  0  0  0  0  0
  148.0254  143.1661  155.2020 H   0  0  0  0  0  0  0  0  0  0  0  0
  150.6031  142.6138  154.9177 H   0  0  0  0  0  0  0  0  0  0  0  0
  150.0210  142.5905  156.5714 H   0  0  0  0  0  0  0  0  0  0  0  0
  150.8643  141.3133  158.8586 H   0  0  0  0  0  0  0  0  0  0  0  0
  152.7773  143.2785  157.5415 H   0  0  0  0  0  0  0  0  0  0  0  0
  151.0350  143.2906  157.4005 H   0  0  0  0  0  0  0  0  0  0  0  0
  151.8271  144.9265  159.1114 H   0  0  0  0  0  0  0  0  0  0  0  0
  150.7739  143.7188  159.8075 H   0  0  0  0  0  0  0  0  0  0  0  0
  153.8284  143.7420  159.9519 H   0  0  0  0  0  0  0  0  0  0  0  0
  152.7330  144.0558  161.2768 H   0  0  0  0  0  0  0  0  0  0  0  0
  153.6225  141.7173  161.3553 H   0  0  0  0  0  0  0  0  0  0  0  0
  151.8826  141.7372  161.1961 H   0  0  0  0  0  0  0  0  0  0  0  0
  152.8330  140.0741  159.6437 H   0  0  0  0  0  0  0  0  0  0  0  0
  153.9000  141.2718  158.9496 H   0  0  0  0  0  0  0  0  0  0  0  0
  1  2  1  0  0  0  0
  1 21  1  0  0  0  0
  1 22  1  0  0  0  0
  1 23  1  0  0  0  0
  2  3  1  0  0  0  0
  2 24  1  0  0  0  0
  2 25  1  0  0  0  0
  3  4  1  0  0  0  0
  3  6  1  0  0  0  0
  3 26  1  0  0  0  0
  4  5  1  0  0  0  0
  4 27  1  0  0  0  0
  4 28  1  0  0  0  0
  5 29  1  0  0  0  0
  5 30  1  0  0  0  0
  5 31  1  0  0  0  0
  6  7  1  0  0  0  0
  6 32  1  0  0  0  0
  7  8  2  0  0  0  0
  7  9  1  0  0  0  0
  9 10  1  0  0  0  0
  9 33  1  0  0  0  0
  9 34  1  0  0  0  0
 10 14  1  0  0  0  0
 10 11  1  0  0  0  0
 11 12  2  0  0  0  0
 12 13  1  0  0  0  0
 13 14  2  0  0  0  0
 14 15  1  0  0  0  0
 15 20  1  0  0  0  0
 15 16  1  0  0  0  0
 15 35  1  0  0  0  0
 16 17  1  0  0  0  0
 16 36  1  0  0  0  0
 16 37  1  0  0  0  0
 17 18  1  0  0  0  0
 17 38  1  0  0  0  0
 17 39  1  0  0  0  0
 18 19  1  0  0  0  0
 18 40  1  0  0  0  0
 18 41  1  0  0  0  0
 19 20  1  0  0  0  0
 19 42  1  0  0  0  0
 19 43  1  0  0  0  0
 20 44  1  0  0  0  0
 20 45  1  0  0  0  0
M  END
> <s_m_source_file>
AV-unprocessed.smi

> <i_m_source_file_index>
2907

> <i_lp_mmshare_version>
43012

> <i_f3d_flags>
0

> <s_epik_input>
W0NIM11bQ0gyXVtDSF0oW0NIMl1bQ0gzXSlbTkhdQyg9TylbQ0gyXW4xbm5uYzFbQ0hdMltDSDJdW0NIMl1bQ0gyXVtDSDJdW0NIMl0y

> <s_epik_cmdline>
J2VwaWtfcHl0aG9uJywgJy1waCcsICc3LjAnLCAnLXRuJywgJzgnLCAnLW1hJywgJzIwMCcsICctbWV0YWxfYmluZGluZycsICctaW1hZScsICc8aW5maWxlLm1hZT4nLCAnLW9tYWUnLCAnPG91dGZpbGUubWFlPic=

> <r_lp_tautomer_probability>
1

> <r_epik_Ionization_Penalty>
4.92512e-07

> <r_epik_Ionization_Penalty_Charging>
0

> <r_epik_Ionization_Penalty_Neutral>
4.92512e-07

> <r_epik_State_Penalty>
-0

> <r_epik_Charging_Adjusted_Penalty>
0

> <i_epik_Tot_Q>
0

> <i_epik_Tot_abs_Q>
0

> <r_epik_Metal_State_Penalty>
-0

> <b_epik_Metal_Only>
0

> <s_lp_Force_Field>
OPLS_2005

> <r_lp_Energy>
10.8377

> <b_lp_Chiralities_Consistent>
1

> <s_lp_Variant>
AV-unprocessed.smi:2907-1

> <Gold.Version>
5.8.1

> <Gold.Id.Protein>
6NUR|6NUR_protein|mol2

> <Gold.PLP.Fitness>
48.8252

> <Gold.PLP.PLP>
-40.9564

> <Gold.PLP.part.hbond>
-3.5085

> <Gold.PLP.part.metal>
0.0000

> <Gold.PLP.part.buried>
-5.6737

> <Gold.PLP.part.nonpolar>
-30.7617

> <Gold.PLP.part.repulsive>
0.2559

> <Gold.PLP.ligand.clash>
0.0000

> <Gold.PLP.ligand.torsion>
0.6146

> <Gold.PLP.Chemscore.Hbond>
3.0000

> <Gold.PLP.Chemscore.CHOScore>
0.0000

> <Gold.PLP.Chemscore.Metal>
0.0000

> <Gold.Chemscore.Hbonds>
donor molecule, donor type, donor heavy atom, donor atom, acceptor molecule, acceptor atom, score
      L1  H     6    32       P1  8028  1.00
      P1  H  7989  7998       L1    11  1.00
      P1  H  7997  8008       L1    13  1.00

> <Gold.PLP.Chemscore.Internal.Correction>
0.0980

> <Gold.Rescore>
     Score         DG    S(hbond)    S(metal)    S(lipo)     H(rot)  DE(clash)    DE(int)     intcor
     15.38     -18.31       1.98        0.00      92.36       1.79       0.97       1.96       ----

> <Gold.Chemscore.Fitness>
15.3793

> <Gold.Chemscore.DG>
-18.3054

> <Gold.Chemscore.ZeroCoef>
-5.4800

> <Gold.Chemscore.Hbond>
1.9800

> <Gold.Chemscore.Metal>
0.0000

> <Gold.Chemscore.Lipo>
92.3597

> <Gold.Chemscore.Internal_Hbond>
0.0000

> <Gold.Chemscore.DEClash>
0.9656

> <Gold.Chemscore.DEInternal>
1.9606

> <Gold.Chemscore.Rot>
1.7944

> <Gold.Chemscore.Internal.Correction>
   9.000000E+99

> <Gold.Chemscore.Hbonds>
donor molecule, donor type, donor heavy atom, donor atom, acceptor molecule, acceptor atom, score
      L1  H     6    32       P1  8028  0.85
      P1  H  7989  7998       L1    11  0.59
      P1  H  7997  8008       L1    13  0.24

> <Gold.Chemscore.Hbond.Weighted>
-6.6131

> <Gold.Chemscore.Metal.Weighted>
-0.0000

> <Gold.Chemscore.Lipo.Weighted>
-10.8061

> <Gold.Chemscore.Internal_Hbond.Weighted>
0.0000

> <Gold.Chemscore.DEClash.Weighted>
0.9656

> <Gold.Chemscore.DEInternal.Weighted>
1.9606

> <Gold.Chemscore.Rot.Weighted>
4.5938

> <Gold.Chemscore.Internal.Correction.Weighted>
   9.000000E+99

> <Gold.Protein.RotatedTorsions>
[ 6907 6896 6895 6894 ] final  130.43 input  -60.11 | X-H torsion
[ 7974 7965 7964 7962 ] final -149.67 input  175.53 | X-H torsion
[ 8008 7997 7996 7995 ] final  -69.79 input   59.86 | X-H torsion
[ 10167 10162 10161 10158 ] final   63.07 input  -65.29 | X-H torsion
[ 10718 10713 10712 10709 ] final -107.14 input   66.30 | X-H torsion
[ 10763 10752 10751 10750 ] final   43.93 input  -60.55 | X-H torsion
[ 11005 11000 10999 10996 ] final   67.45 input  -57.11 | X-H torsion

> <Gold.Protein.ActiveResidues>
 VAL166  LYS551  ARG553  GLY616  TRP617  ASP618  TYR619  PRO620  LYS621  CYS622 
 ASP623  PHE694  ASN695  SER759  ASP760  ASP761  ALA762  ILE779  LEU786  VAL792 
 PHE793  MET794  SER795  GLU796  ALA797  LYS798  CYS799  TRP800  GLU811  SER814 

> <Gold.Protein.RotatedAtoms>
  152.3527  133.6199  159.5956 H   0  0  0  0  0  0  0  0  0  0  0  0  # atno 6907 bound_to 6896
  150.7548  133.9549  159.3506 H   0  0  0  0  0  0  0  0  0  0  0  0  # atno 6908 bound_to 6896
  151.7398  135.0857  160.0365 H   0  0  0  0  0  0  0  0  0  0  0  0  # atno 6909 bound_to 6896
  144.7953  140.5033  143.5744 H   0  0  0  0  0  0  0  0  0  0  0  0  # atno 7974 bound_to 7965
  154.4964  140.0847  156.7706 H   0  0  0  0  0  0  0  0  0  0  0  0  # atno 8008 bound_to 7997
  155.4106  140.3441  155.4245 H   0  0  0  0  0  0  0  0  0  0  0  0  # atno 8009 bound_to 7997
  156.1399  140.1526  156.8924 H   0  0  0  0  0  0  0  0  0  0  0  0  # atno 8010 bound_to 7997
  140.1370  144.4589  150.6832 H   0  0  0  0  0  0  0  0  0  0  0  0  # atno 10167 bound_to 10162
  156.0423  130.5648  150.7780 H   0  0  0  0  0  0  0  0  0  0  0  0  # atno 10718 bound_to 10713
  152.9851  135.6086  154.3191 H   0  0  0  0  0  0  0  0  0  0  0  0  # atno 10763 bound_to 10752
  154.2901  135.2775  155.2660 H   0  0  0  0  0  0  0  0  0  0  0  0  # atno 10764 bound_to 10752
  154.4959  135.5880  153.6551 H   0  0  0  0  0  0  0  0  0  0  0  0  # atno 10765 bound_to 10752
  139.9770  134.6806  156.0334 H   0  0  0  0  0  0  0  0  0  0  0  0  # atno 11005 bound_to 11000
  145.5689  139.1482  143.3299 LP  0  0  0  0  0  0  0  0  0  0  0  0  # atno 17320 bound_to 7965
  146.2219  140.5823  142.9013 LP  0  0  0  0  0  0  0  0  0  0  0  0  # atno 17321 bound_to 7965
  140.6783  143.2315  151.5450 LP  0  0  0  0  0  0  0  0  0  0  0  0  # atno 17342 bound_to 10162
  139.5491  144.2443  152.1497 LP  0  0  0  0  0  0  0  0  0  0  0  0  # atno 17343 bound_to 10162
  157.5256  131.0934  151.0022 LP  0  0  0  0  0  0  0  0  0  0  0  0  # atno 17370 bound_to 10713
  157.0342  130.5723  149.5347 LP  0  0  0  0  0  0  0  0  0  0  0  0  # atno 17371 bound_to 10713
  141.1446  133.6558  156.3830 LP  0  0  0  0  0  0  0  0  0  0  0  0  # atno 17394 bound_to 11000
  140.5174  134.6337  157.5306 LP  0  0  0  0  0  0  0  0  0  0  0  0  # atno 17395 bound_to 11000

$$$$
