AV-unprocessed.smi:2090|AV-procd|sdf|8537|dock6
  -GOLD-   2272011253D 1   1.00000     0.00000
 Structure written by MMmdl.
 41 42  0  0  0  0  0  0  0  0  3 V2000
  151.1527  142.4158  157.3958 C   0  0  0  0  0  0  0  0  0  0  0  0
  150.6889  141.6258  156.2203 C   0  0  0  0  0  0  0  0  0  0  0  0
  149.5093  141.5906  155.5319 C   0  0  0  0  0  0  0  0  0  0  0  0
  149.7507  140.6132  154.5299 C   0  0  0  0  0  0  0  0  0  0  0  0
  148.7429  140.2793  153.5869 N   0  0  0  0  0  0  0  0  0  0  0  0
  147.4072  140.3909  153.7058 C   0  0  0  0  0  0  0  0  0  0  0  0
  146.9069  140.8384  154.7447 O   0  0  0  0  0  0  0  0  0  0  0  0
  146.7524  139.9617  152.5911 N   0  5  0  0  0  0  0  0  0  0  0  0
  146.8548  138.6151  152.0309 C   0  0  0  0  0  0  0  0  0  0  0  0
  146.0201  137.6226  152.8663 C   0  0  0  0  0  0  0  0  0  0  0  0
  146.0971  136.2409  152.3222 N   0  3  2  0  0  0  0  0  0  0  0  0
  145.3187  136.0538  151.0662 C   0  0  0  0  0  0  0  0  0  0  0  0
  145.5608  134.6575  150.4660 C   0  0  0  0  0  0  0  0  0  0  0  0
  145.2471  133.5313  151.4681 C   0  0  2  0  0  0  0  0  0  0  0  0
  143.7368  133.3280  151.6818 C   0  0  0  0  0  0  0  0  0  0  0  0
  146.0048  133.7892  152.7833 C   0  0  0  0  0  0  0  0  0  0  0  0
  145.7568  135.2056  153.3325 C   0  0  0  0  0  0  0  0  0  0  0  0
  150.9699  140.0994  154.6006 N   0  0  0  0  0  0  0  0  0  0  0  0
  151.5766  140.7447  155.6846 O   0  0  0  0  0  0  0  0  0  0  0  0
  150.6316  143.3717  157.4506 H   0  0  0  0  0  0  0  0  0  0  0  0
  152.2219  142.6182  157.3325 H   0  0  0  0  0  0  0  0  0  0  0  0
  150.9645  141.8737  158.3228 H   0  0  0  0  0  0  0  0  0  0  0  0
  148.6176  142.1707  155.7174 H   0  0  0  0  0  0  0  0  0  0  0  0
  149.0743  139.9106  152.7079 H   0  0  0  0  0  0  0  0  0  0  0  0
  146.5252  138.5776  150.9919 H   0  0  0  0  0  0  0  0  0  0  0  0
  147.8903  138.2745  152.0164 H   0  0  0  0  0  0  0  0  0  0  0  0
  146.3998  137.6414  153.8893 H   0  0  0  0  0  0  0  0  0  0  0  0
  144.9772  137.9377  152.9299 H   0  0  0  0  0  0  0  0  0  0  0  0
  144.2571  136.2041  151.2665 H   0  0  0  0  0  0  0  0  0  0  0  0
  145.6039  136.8087  150.3329 H   0  0  0  0  0  0  0  0  0  0  0  0
  144.9696  134.5329  149.5580 H   0  0  0  0  0  0  0  0  0  0  0  0
  146.6050  134.5819  150.1589 H   0  0  0  0  0  0  0  0  0  0  0  0
  145.6264  132.5996  151.0464 H   0  0  0  0  0  0  0  0  0  0  0  0
  143.2575  134.2104  152.1050 H   0  0  0  0  0  0  0  0  0  0  0  0
  143.5476  132.4945  152.3587 H   0  0  0  0  0  0  0  0  0  0  0  0
  143.2370  133.1020  150.7394 H   0  0  0  0  0  0  0  0  0  0  0  0
  145.7300  133.0440  153.5307 H   0  0  0  0  0  0  0  0  0  0  0  0
  147.0743  133.6614  152.6095 H   0  0  0  0  0  0  0  0  0  0  0  0
  146.3693  135.3494  154.2233 H   0  0  0  0  0  0  0  0  0  0  0  0
  144.7178  135.3233  153.6430 H   0  0  0  0  0  0  0  0  0  0  0  0
  147.0691  136.0946  152.0900 H   0  0  0  0  0  0  0  0  0  0  0  0
  1  2  1  0  0  0  0
  1 20  1  0  0  0  0
  1 21  1  0  0  0  0
  1 22  1  0  0  0  0
  2 19  1  0  0  0  0
  2  3  2  0  0  0  0
  3  4  1  0  0  0  0
  3 23  1  0  0  0  0
  4  5  1  0  0  0  0
  4 18  2  0  0  0  0
  5  6  1  0  0  0  0
  5 24  1  0  0  0  0
  6  7  2  0  0  0  0
  6  8  1  0  0  0  0
  8  9  1  0  0  0  0
  9 10  1  0  0  0  0
  9 25  1  0  0  0  0
  9 26  1  0  0  0  0
 10 11  1  0  0  0  0
 10 27  1  0  0  0  0
 10 28  1  0  0  0  0
 11 17  1  0  0  0  0
 11 12  1  0  0  0  0
 11 41  1  0  0  0  0
 12 13  1  0  0  0  0
 12 29  1  0  0  0  0
 12 30  1  0  0  0  0
 13 14  1  0  0  0  0
 13 31  1  0  0  0  0
 13 32  1  0  0  0  0
 14 15  1  0  0  0  0
 14 16  1  0  0  0  0
 14 33  1  0  0  0  0
 15 34  1  0  0  0  0
 15 35  1  0  0  0  0
 15 36  1  0  0  0  0
 16 17  1  0  0  0  0
 16 37  1  0  0  0  0
 16 38  1  0  0  0  0
 17 39  1  0  0  0  0
 17 40  1  0  0  0  0
 18 19  1  0  0  0  0
M  CHG  1   8  -1
M  CHG  1  11   1
M  END
> <s_m_source_file>
AV-unprocessed.smi

> <i_m_source_file_index>
2090

> <i_lp_mmshare_version>
43012

> <i_f3d_flags>
0

> <s_epik_input>
W0NIM11jMVtjSF1jKG5vMSlbTkhdQyg9TylbTkhdW0NIMl1bQ0gyXU4yW0NIMl1bQ0gyXVtDSF0oW0NIM10pW0NIMl1bQ0gyXTI=

> <s_epik_cmdline>
J2VwaWtfcHl0aG9uJywgJy1waCcsICc3LjAnLCAnLXRuJywgJzgnLCAnLW1hJywgJzIwMCcsICctbWV0YWxfYmluZGluZycsICctaW1hZScsICc8aW5maWxlLm1hZT4nLCAnLW9tYWUnLCAnPG91dGZpbGUubWFlPic=

> <r_epik_Ionization_Penalty>
6.7721

> <r_epik_Ionization_Penalty_Charging>
6.7721

> <r_epik_Ionization_Penalty_Neutral>
5.78572e-06

> <r_epik_State_Penalty>
6.79704

> <r_epik_Charging_Adjusted_Penalty>
13.5691

> <i_epik_Tot_Q>
0

> <i_epik_Tot_abs_Q>
2

> <r_epik_Metal_State_Penalty>
2.73105

> <b_epik_Metal_Only>
1

> <s_lp_Force_Field>
OPLS_2005

> <r_lp_Energy>
13.6419

> <b_lp_Chiralities_Consistent>
1

> <s_lp_Variant>
AV-unprocessed.smi:2090-6

> <Gold.Version>
5.8.1

> <Gold.Id.Protein>
6NUR|6NUR_protein|mol2

> <Gold.PLP.Fitness>
41.1351

> <Gold.PLP.PLP>
-30.9681

> <Gold.PLP.part.hbond>
-4.0000

> <Gold.PLP.part.metal>
0.0000

> <Gold.PLP.part.buried>
0.0989

> <Gold.PLP.part.nonpolar>
-27.6186

> <Gold.PLP.part.repulsive>
0.7591

> <Gold.PLP.ligand.clash>
0.0000

> <Gold.PLP.ligand.torsion>
0.9455

> <Gold.PLP.Chemscore.Hbond>
4.0000

> <Gold.PLP.Chemscore.CHOScore>
0.0000

> <Gold.PLP.Chemscore.Metal>
0.0000

> <Gold.Chemscore.Hbonds>
donor molecule, donor type, donor heavy atom, donor atom, acceptor molecule, acceptor atom, score
      L1  H     5    24       P1  7957  1.00
      L1  H    11    41       P1  7948  2.00
      P1  H  7989  7998       L1    18  0.83

> <Gold.PLP.Chemscore.Internal.Correction>
0.0581

> <Gold.Rescore>
     Score         DG    S(hbond)    S(metal)    S(lipo)     H(rot)  DE(clash)    DE(int)     intcor
     14.69     -18.32       2.79        0.00      63.72       1.54       1.37       2.26       ----

> <Gold.Chemscore.Fitness>
14.6886

> <Gold.Chemscore.DG>
-18.3175

> <Gold.Chemscore.ZeroCoef>
-5.4800

> <Gold.Chemscore.Hbond>
2.7926

> <Gold.Chemscore.Metal>
0.0000

> <Gold.Chemscore.Lipo>
63.7174

> <Gold.Chemscore.Internal_Hbond>
0.0000

> <Gold.Chemscore.DEClash>
1.3679

> <Gold.Chemscore.DEInternal>
2.2609

> <Gold.Chemscore.Rot>
1.5409

> <Gold.Chemscore.Internal.Correction>
   9.000000E+99

> <Gold.Chemscore.Hbonds>
donor molecule, donor type, donor heavy atom, donor atom, acceptor molecule, acceptor atom, score
      L1  H     5    24       P1  7957  0.97
      L1  H    11    41       P1  7948  1.00
      P1  H  7989  7998       L1    18  0.04

> <Gold.Chemscore.Hbond.Weighted>
-9.3272

> <Gold.Chemscore.Metal.Weighted>
-0.0000

> <Gold.Chemscore.Lipo.Weighted>
-7.4549

> <Gold.Chemscore.Internal_Hbond.Weighted>
0.0000

> <Gold.Chemscore.DEClash.Weighted>
1.3679

> <Gold.Chemscore.DEInternal.Weighted>
2.2609

> <Gold.Chemscore.Rot.Weighted>
3.9446

> <Gold.Chemscore.Internal.Correction.Weighted>
   9.000000E+99

> <Gold.Protein.RotatedTorsions>
[ 6907 6896 6895 6894 ] final   20.29 input  -60.11 | X-H torsion
[ 7974 7965 7964 7962 ] final  -50.28 input  175.53 | X-H torsion
[ 8008 7997 7996 7995 ] final  125.51 input   59.86 | X-H torsion
[ 10167 10162 10161 10158 ] final  158.81 input  -65.29 | X-H torsion
[ 10718 10713 10712 10709 ] final  -62.39 input   66.30 | X-H torsion
[ 10763 10752 10751 10750 ] final  -18.89 input  -60.55 | X-H torsion
[ 11005 11000 10999 10996 ] final -177.13 input  -57.11 | X-H torsion

> <Gold.Protein.ActiveResidues>
 VAL166  LYS551  ARG553  GLY616  TRP617  ASP618  TYR619  PRO620  LYS621  CYS622 
 ASP623  PHE694  ASN695  SER759  ASP760  ASP761  ALA762  ILE779  LEU786  VAL792 
 PHE793  MET794  SER795  GLU796  ALA797  LYS798  CYS799  TRP800  GLU811  SER814 

> <Gold.Protein.RotatedAtoms>
  151.8940  135.0405  160.0500 H   0  0  0  0  0  0  0  0  0  0  0  0  # atno 6907 bound_to 6896
  152.2412  133.5133  159.5280 H   0  0  0  0  0  0  0  0  0  0  0  0  # atno 6908 bound_to 6896
  150.7054  134.1002  159.4005 H   0  0  0  0  0  0  0  0  0  0  0  0  # atno 6909 bound_to 6896
  145.9316  140.7744  142.9597 H   0  0  0  0  0  0  0  0  0  0  0  0  # atno 7974 bound_to 7965
  156.2836  140.2714  156.1961 H   0  0  0  0  0  0  0  0  0  0  0  0  # atno 8008 bound_to 7997
  155.0408  140.0386  157.2527 H   0  0  0  0  0  0  0  0  0  0  0  0  # atno 8009 bound_to 7997
  154.7276  140.2700  155.6490 H   0  0  0  0  0  0  0  0  0  0  0  0  # atno 8010 bound_to 7997
  139.4829  144.4789  151.8472 H   0  0  0  0  0  0  0  0  0  0  0  0  # atno 10167 bound_to 10162
  156.0858  130.4208  150.1129 H   0  0  0  0  0  0  0  0  0  0  0  0  # atno 10718 bound_to 10713
  153.5963  135.7001  153.5402 H   0  0  0  0  0  0  0  0  0  0  0  0  # atno 10763 bound_to 10752
  153.3135  135.4094  155.1356 H   0  0  0  0  0  0  0  0  0  0  0  0  # atno 10764 bound_to 10752
  154.8591  135.3678  154.5497 H   0  0  0  0  0  0  0  0  0  0  0  0  # atno 10765 bound_to 10752
  140.4444  134.6402  157.4772 H   0  0  0  0  0  0  0  0  0  0  0  0  # atno 11005 bound_to 11000
  144.6765  140.2136  143.7374 LP  0  0  0  0  0  0  0  0  0  0  0  0  # atno 17320 bound_to 7965
  145.8419  139.2134  143.1822 LP  0  0  0  0  0  0  0  0  0  0  0  0  # atno 17321 bound_to 7965
  140.4264  144.2175  150.5887 LP  0  0  0  0  0  0  0  0  0  0  0  0  # atno 17342 bound_to 10162
  140.4823  143.2375  151.8937 LP  0  0  0  0  0  0  0  0  0  0  0  0  # atno 17343 bound_to 10162
  156.9150  130.9664  151.3557 LP  0  0  0  0  0  0  0  0  0  0  0  0  # atno 17370 bound_to 10713
  157.5992  130.8500  149.8775 LP  0  0  0  0  0  0  0  0  0  0  0  0  # atno 17371 bound_to 10713
  140.0048  134.6780  155.9472 LP  0  0  0  0  0  0  0  0  0  0  0  0  # atno 17394 bound_to 11000
  141.1691  133.6537  156.4588 LP  0  0  0  0  0  0  0  0  0  0  0  0  # atno 17395 bound_to 11000

$$$$
