AV-unprocessed.smi:1677|AV-procd|sdf|6724|dock7
  -GOLD-   22720 7463D 1   1.00000     0.00000
 Structure written by MMmdl.
 36 37  0  0  0  0  0  0  0  0  1 V2000
  152.2451  139.9154  155.5352 C   0  0  0  0  0  0  0  0  0  0  0  0
  150.8303  140.4641  155.7646 C   0  0  2  0  0  0  0  0  0  0  0  0
  150.1751  140.9034  154.4384 C   0  0  0  0  0  0  0  0  0  0  0  0
  148.7257  140.8319  154.4806 N   0  0  0  0  0  0  0  0  0  0  0  0
  147.9027  140.0401  153.6910 C   0  0  0  0  0  0  0  0  0  0  0  0
  146.6109  140.2928  154.0933 C   0  0  0  0  0  0  0  0  0  0  0  0
  146.6146  141.2352  155.1191 N   0  0  0  0  0  0  0  0  0  0  0  0
  147.9011  141.5093  155.2913 C   0  0  0  0  0  0  0  0  0  0  0  0
  150.8996  141.5833  156.7036 N   0  0  0  0  0  0  0  0  0  0  0  0
  151.5843  141.5958  157.8589 C   0  0  0  0  0  0  0  0  0  0  0  0
  152.2770  140.6541  158.2458 O   0  0  0  0  0  0  0  0  0  0  0  0
  151.4458  142.8562  158.7215 C   0  0  2  0  0  0  0  0  0  0  0  0
  151.8573  144.1233  157.9371 C   0  0  0  0  0  0  0  0  0  0  0  0
  151.9791  145.3396  158.8378 C   0  0  0  0  0  0  0  0  0  0  0  0
  152.0621  145.2623  160.1771 C   0  0  0  0  0  0  0  0  0  0  0  0
  152.0473  143.9502  160.9414 C   0  0  0  0  0  0  0  0  0  0  0  0
  152.2689  142.7358  160.0200 C   0  0  0  0  0  0  0  0  0  0  0  0
  152.2283  139.0565  154.8639 H   0  0  0  0  0  0  0  0  0  0  0  0
  152.6964  139.5896  156.4732 H   0  0  0  0  0  0  0  0  0  0  0  0
  152.8983  140.6693  155.0941 H   0  0  0  0  0  0  0  0  0  0  0  0
  150.2383  139.6537  156.1941 H   0  0  0  0  0  0  0  0  0  0  0  0
  150.4710  141.9219  154.1821 H   0  0  0  0  0  0  0  0  0  0  0  0
  150.5162  140.2647  153.6226 H   0  0  0  0  0  0  0  0  0  0  0  0
  148.2943  139.3757  152.9351 H   0  0  0  0  0  0  0  0  0  0  0  0
  145.6865  139.8719  153.7265 H   0  0  0  0  0  0  0  0  0  0  0  0
  148.2527  142.2119  156.0328 H   0  0  0  0  0  0  0  0  0  0  0  0
  150.3602  142.4040  156.4698 H   0  0  0  0  0  0  0  0  0  0  0  0
  150.3968  142.9614  159.0056 H   0  0  0  0  0  0  0  0  0  0  0  0
  152.8142  143.9848  157.4320 H   0  0  0  0  0  0  0  0  0  0  0  0
  151.1178  144.3353  157.1641 H   0  0  0  0  0  0  0  0  0  0  0  0
  152.0124  146.3038  158.3524 H   0  0  0  0  0  0  0  0  0  0  0  0
  152.1348  146.1666  160.7634 H   0  0  0  0  0  0  0  0  0  0  0  0
  152.8156  143.9746  161.7145 H   0  0  0  0  0  0  0  0  0  0  0  0
  151.0864  143.8667  161.4503 H   0  0  0  0  0  0  0  0  0  0  0  0
  152.0196  141.8181  160.5552 H   0  0  0  0  0  0  0  0  0  0  0  0
  153.3295  142.6664  159.7723 H   0  0  0  0  0  0  0  0  0  0  0  0
  1  2  1  0  0  0  0
  1 18  1  0  0  0  0
  1 19  1  0  0  0  0
  1 20  1  0  0  0  0
  2  3  1  0  0  0  0
  2  9  1  0  0  0  0
  2 21  1  0  0  0  0
  3  4  1  0  0  0  0
  3 22  1  0  0  0  0
  3 23  1  0  0  0  0
  4  8  1  0  0  0  0
  4  5  1  0  0  0  0
  5  6  2  0  0  0  0
  5 24  1  0  0  0  0
  6  7  1  0  0  0  0
  6 25  1  0  0  0  0
  7  8  2  0  0  0  0
  8 26  1  0  0  0  0
  9 10  1  0  0  0  0
  9 27  1  0  0  0  0
 10 11  2  0  0  0  0
 10 12  1  0  0  0  0
 12 17  1  0  0  0  0
 12 13  1  0  0  0  0
 12 28  1  0  0  0  0
 13 14  1  0  0  0  0
 13 29  1  0  0  0  0
 13 30  1  0  0  0  0
 14 15  2  0  0  0  0
 14 31  1  0  0  0  0
 15 16  1  0  0  0  0
 15 32  1  0  0  0  0
 16 17  1  0  0  0  0
 16 33  1  0  0  0  0
 16 34  1  0  0  0  0
 17 35  1  0  0  0  0
 17 36  1  0  0  0  0
M  END
> <s_m_source_file>
AV-unprocessed.smi

> <i_m_source_file_index>
1677

> <i_lp_mmshare_version>
43012

> <i_f3d_flags>
0

> <s_epik_input>
W2NIXTFuW2NIXVtjSF1uMVtDSDJdW0NAQEhdKFtDSDNdKVtOSF1DKD1PKVtDQEBIXTJbQ0gyXVtDSF09W0NIXVtDSDJdW0NIMl0y

> <s_epik_cmdline>
J2VwaWtfcHl0aG9uJywgJy1waCcsICc3LjAnLCAnLXRuJywgJzgnLCAnLW1hJywgJzIwMCcsICctbWV0YWxfYmluZGluZycsICctaW1hZScsICc8aW5maWxlLm1hZT4nLCAnLW9tYWUnLCAnPG91dGZpbGUubWFlPic=

> <r_lp_tautomer_probability>
1

> <r_epik_Ionization_Penalty>
0.640435

> <r_epik_Ionization_Penalty_Charging>
0.640435

> <r_epik_Ionization_Penalty_Neutral>
2.11108e-08

> <r_epik_State_Penalty>
0.658069

> <r_epik_Charging_Adjusted_Penalty>
1.2985

> <i_epik_Tot_Q>
0

> <i_epik_Tot_abs_Q>
0

> <r_epik_Metal_State_Penalty>
0.311689

> <b_epik_Metal_Only>
0

> <s_lp_Force_Field>
OPLS_2005

> <r_lp_Energy>
9.8402

> <b_lp_Chiralities_Consistent>
1

> <s_lp_Variant>
AV-unprocessed.smi:1677-5

> <Gold.Version>
5.8.1

> <Gold.Id.Protein>
6NUR|6NUR_protein|mol2

> <Gold.PLP.Fitness>
44.9248

> <Gold.PLP.PLP>
-37.2780

> <Gold.PLP.part.hbond>
0.0000

> <Gold.PLP.part.metal>
0.0000

> <Gold.PLP.part.buried>
-0.0804

> <Gold.PLP.part.nonpolar>
-35.7673

> <Gold.PLP.part.repulsive>
0.1651

> <Gold.PLP.ligand.clash>
0.0000

> <Gold.PLP.ligand.torsion>
0.4503

> <Gold.PLP.Chemscore.Hbond>
0.0000

> <Gold.PLP.Chemscore.CHOScore>
2.8409

> <Gold.PLP.Chemscore.Metal>
0.0000

> <Gold.Chemscore.Hbonds>
donor molecule, donor type, donor heavy atom, donor atom, acceptor molecule, acceptor atom, score
      L1  C     5    24       P1  7957  0.90
      L1  C     6    25       P1 10175  1.00
      L1  C     8    26       P1  8028  0.77

> <Gold.PLP.Chemscore.Internal.Correction>
0.0248

> <Gold.Rescore>
     Score         DG    S(hbond)    S(metal)    S(lipo)     H(rot)  DE(clash)    DE(int)     intcor
     11.90     -15.82       0.86        0.00     101.99       1.75       1.65       2.27       ----

> <Gold.Chemscore.Fitness>
11.9039

> <Gold.Chemscore.DG>
-15.8157

> <Gold.Chemscore.ZeroCoef>
-5.4800

> <Gold.Chemscore.Hbond>
0.8613

> <Gold.Chemscore.Metal>
0.0000

> <Gold.Chemscore.Lipo>
101.9861

> <Gold.Chemscore.Internal_Hbond>
0.0000

> <Gold.Chemscore.DEClash>
1.6454

> <Gold.Chemscore.DEInternal>
2.2664

> <Gold.Chemscore.Rot>
1.7475

> <Gold.Chemscore.Internal.Correction>
   9.000000E+99

> <Gold.Chemscore.Hbond.Weighted>
-2.8768

> <Gold.Chemscore.Metal.Weighted>
-0.0000

> <Gold.Chemscore.Lipo.Weighted>
-11.9324

> <Gold.Chemscore.Internal_Hbond.Weighted>
0.0000

> <Gold.Chemscore.DEClash.Weighted>
1.6454

> <Gold.Chemscore.DEInternal.Weighted>
2.2664

> <Gold.Chemscore.Rot.Weighted>
4.4735

> <Gold.Chemscore.Internal.Correction.Weighted>
   9.000000E+99

> <Gold.Protein.RotatedTorsions>
[ 6907 6896 6895 6894 ] final   94.76 input  -60.11 | X-H torsion
[ 7974 7965 7964 7962 ] final -128.28 input  175.53 | X-H torsion
[ 8008 7997 7996 7995 ] final  168.39 input   59.86 | X-H torsion
[ 10167 10162 10161 10158 ] final  145.26 input  -65.29 | X-H torsion
[ 10718 10713 10712 10709 ] final -102.07 input   66.30 | X-H torsion
[ 10763 10752 10751 10750 ] final   43.02 input  -60.55 | X-H torsion
[ 11005 11000 10999 10996 ] final  172.26 input  -57.11 | X-H torsion

> <Gold.Protein.ActiveResidues>
 VAL166  LYS551  ARG553  GLY616  TRP617  ASP618  TYR619  PRO620  LYS621  CYS622 
 ASP623  PHE694  ASN695  SER759  ASP760  ASP761  ALA762  ILE779  LEU786  VAL792 
 PHE793  MET794  SER795  GLU796  ALA797  LYS798  CYS799  TRP800  GLU811  SER814 

> <Gold.Protein.RotatedAtoms>
  152.5448  134.1144  159.8371 H   0  0  0  0  0  0  0  0  0  0  0  0  # atno 6907 bound_to 6896
  151.1207  133.5099  159.2609 H   0  0  0  0  0  0  0  0  0  0  0  0  # atno 6908 bound_to 6896
  151.1782  135.0359  159.8835 H   0  0  0  0  0  0  0  0  0  0  0  0  # atno 6909 bound_to 6896
  144.9686  140.7522  143.4684 H   0  0  0  0  0  0  0  0  0  0  0  0  # atno 7974 bound_to 7965
  156.1550  140.1591  156.8707 H   0  0  0  0  0  0  0  0  0  0  0  0  # atno 8008 bound_to 7997
  154.5107  140.0802  156.8020 H   0  0  0  0  0  0  0  0  0  0  0  0  # atno 8009 bound_to 7997
  155.3820  140.3405  155.4249 H   0  0  0  0  0  0  0  0  0  0  0  0  # atno 8010 bound_to 7997
  139.4930  144.5914  151.6673 H   0  0  0  0  0  0  0  0  0  0  0  0  # atno 10167 bound_to 10162
  156.0216  130.5403  150.7055 H   0  0  0  0  0  0  0  0  0  0  0  0  # atno 10718 bound_to 10713
  152.9870  135.6114  154.3043 H   0  0  0  0  0  0  0  0  0  0  0  0  # atno 10763 bound_to 10752
  154.2762  135.2778  155.2719 H   0  0  0  0  0  0  0  0  0  0  0  0  # atno 10764 bound_to 10752
  154.5078  135.5849  153.6638 H   0  0  0  0  0  0  0  0  0  0  0  0  # atno 10765 bound_to 10752
  140.3278  134.7382  157.4112 H   0  0  0  0  0  0  0  0  0  0  0  0  # atno 11005 bound_to 11000
  145.2592  139.1999  143.4901 LP  0  0  0  0  0  0  0  0  0  0  0  0  # atno 17320 bound_to 7965
  146.3375  140.2519  142.8599 LP  0  0  0  0  0  0  0  0  0  0  0  0  # atno 17321 bound_to 7965
  140.5542  144.0376  150.6140 LP  0  0  0  0  0  0  0  0  0  0  0  0  # atno 17342 bound_to 10162
  140.3440  143.3002  152.0558 LP  0  0  0  0  0  0  0  0  0  0  0  0  # atno 17343 bound_to 10162
  157.4705  131.0892  151.0647 LP  0  0  0  0  0  0  0  0  0  0  0  0  # atno 17370 bound_to 10713
  157.1109  130.6021  149.5482 LP  0  0  0  0  0  0  0  0  0  0  0  0  # atno 17371 bound_to 10713
  140.0886  134.5632  155.8467 LP  0  0  0  0  0  0  0  0  0  0  0  0  # atno 17394 bound_to 11000
  141.2071  133.6661  156.6282 LP  0  0  0  0  0  0  0  0  0  0  0  0  # atno 17395 bound_to 11000

$$$$
