AV-unprocessed.smi:1761|AV-procd|sdf|7095|dock9
  -GOLD-   22720 8313D 1   1.00000     0.00000
 Structure written by MMmdl.
 34 35  0  0  0  0  0  0  0  0  1 V2000
  150.9917  140.7423  156.6582 O   0  0  0  0  0  0  0  0  0  0  0  0
  150.4042  141.8103  156.4836 C   0  0  0  0  0  0  0  0  0  0  0  0
  149.4001  142.0115  155.6124 N   0  0  0  0  0  0  0  0  0  0  0  0
  148.7903  141.0693  154.7417 C   0  0  0  0  0  0  0  0  0  0  0  0
  147.7184  141.5743  153.9712 C   0  0  0  0  0  0  0  0  0  0  0  0
  147.0440  140.7195  153.0781 C   0  0  0  0  0  0  0  0  0  0  0  0
  147.4588  139.3795  152.9790 C   0  0  0  0  0  0  0  0  0  0  0  0
  148.5344  138.9569  153.7816 C   0  0  0  0  0  0  0  0  0  0  0  0
  149.1824  139.7746  154.6379 N   0  0  0  0  0  0  0  0  0  0  0  0
  150.6978  142.9365  157.1499 N   0  0  0  0  0  0  0  0  0  0  0  0
  151.7428  143.0768  158.1622 C   0  0  2  0  0  0  0  0  0  0  0  0
  151.6659  141.8511  159.0959 C   0  0  0  0  0  0  0  0  0  0  0  0
  152.6265  141.9682  160.2879 C   0  0  0  0  0  0  0  0  0  0  0  0
  152.3662  143.2583  161.0765 C   0  0  0  0  0  0  0  0  0  0  0  0
  152.4903  144.4856  160.1636 C   0  0  0  0  0  0  0  0  0  0  0  0
  151.5440  144.3941  158.9509 C   0  0  1  0  0  0  0  0  0  0  0  0
  151.8185  145.5015  158.1161 O   0  0  0  0  0  0  0  0  0  0  0  0
  149.0253  142.9475  155.5694 H   0  0  0  0  0  0  0  0  0  0  0  0
  147.4126  142.6068  154.0604 H   0  0  0  0  0  0  0  0  0  0  0  0
  146.2232  141.0871  152.4802 H   0  0  0  0  0  0  0  0  0  0  0  0
  146.9659  138.6937  152.3059 H   0  0  0  0  0  0  0  0  0  0  0  0
  148.8840  137.9362  153.7357 H   0  0  0  0  0  0  0  0  0  0  0  0
  150.1641  143.7660  156.9356 H   0  0  0  0  0  0  0  0  0  0  0  0
  152.7330  143.0824  157.7017 H   0  0  0  0  0  0  0  0  0  0  0  0
  150.6481  141.7374  159.4728 H   0  0  0  0  0  0  0  0  0  0  0  0
  151.8876  140.9421  158.5353 H   0  0  0  0  0  0  0  0  0  0  0  0
  152.5141  141.1033  160.9422 H   0  0  0  0  0  0  0  0  0  0  0  0
  153.6572  141.9549  159.9312 H   0  0  0  0  0  0  0  0  0  0  0  0
  151.3693  143.2268  161.5177 H   0  0  0  0  0  0  0  0  0  0  0  0
  153.0708  143.3377  161.9048 H   0  0  0  0  0  0  0  0  0  0  0  0
  152.2800  145.3909  160.7343 H   0  0  0  0  0  0  0  0  0  0  0  0
  153.5231  144.5699  159.8216 H   0  0  0  0  0  0  0  0  0  0  0  0
  150.5117  144.4674  159.2970 H   0  0  0  0  0  0  0  0  0  0  0  0
  151.6090  146.2932  158.5880 H   0  0  0  0  0  0  0  0  0  0  0  0
  1  2  2  0  0  0  0
  2  3  1  0  0  0  0
  2 10  1  0  0  0  0
  3  4  1  0  0  0  0
  3 18  1  0  0  0  0
  4  9  1  0  0  0  0
  4  5  2  0  0  0  0
  5  6  1  0  0  0  0
  5 19  1  0  0  0  0
  6  7  2  0  0  0  0
  6 20  1  0  0  0  0
  7  8  1  0  0  0  0
  7 21  1  0  0  0  0
  8  9  2  0  0  0  0
  8 22  1  0  0  0  0
 10 11  1  0  0  0  0
 10 23  1  0  0  0  0
 11 16  1  0  0  0  0
 11 12  1  0  0  0  0
 11 24  1  0  0  0  0
 12 13  1  0  0  0  0
 12 25  1  0  0  0  0
 12 26  1  0  0  0  0
 13 14  1  0  0  0  0
 13 27  1  0  0  0  0
 13 28  1  0  0  0  0
 14 15  1  0  0  0  0
 14 29  1  0  0  0  0
 14 30  1  0  0  0  0
 15 16  1  0  0  0  0
 15 31  1  0  0  0  0
 15 32  1  0  0  0  0
 16 17  1  0  0  0  0
 16 33  1  0  0  0  0
 17 34  1  0  0  0  0
M  END
> <s_m_source_file>
AV-unprocessed.smi

> <i_m_source_file_index>
1761

> <i_lp_mmshare_version>
43012

> <i_f3d_flags>
0

> <s_epik_input>
bjFbY0hdW2NIXVtjSF1bY0hdYzFbTkhdQyg9TylbTkhdW0NAQEhdMltDSDJdW0NIMl1bQ0gyXVtDSDJdW0NASF0yW09IXQ==

> <s_epik_cmdline>
J2VwaWtfcHl0aG9uJywgJy1waCcsICc3LjAnLCAnLXRuJywgJzgnLCAnLW1hJywgJzIwMCcsICctbWV0YWxfYmluZGluZycsICctaW1hZScsICc8aW5maWxlLm1hZT4nLCAnLW9tYWUnLCAnPG91dGZpbGUubWFlPic=

> <r_lp_tautomer_probability>
1

> <r_epik_Ionization_Penalty>
4.92589e-05

> <r_epik_Ionization_Penalty_Charging>
0

> <r_epik_Ionization_Penalty_Neutral>
4.92589e-05

> <r_epik_State_Penalty>
-0

> <r_epik_Charging_Adjusted_Penalty>
0

> <i_epik_Tot_Q>
0

> <i_epik_Tot_abs_Q>
0

> <r_epik_Metal_State_Penalty>
-0

> <b_epik_Metal_Only>
0

> <s_lp_Force_Field>
OPLS_2005

> <r_lp_Energy>
12.6575

> <b_lp_Chiralities_Consistent>
1

> <s_lp_Variant>
AV-unprocessed.smi:1761-1

> <Gold.Version>
5.8.1

> <Gold.Id.Protein>
6NUR|6NUR_protein|mol2

> <Gold.PLP.Fitness>
41.9067

> <Gold.PLP.PLP>
-33.3150

> <Gold.PLP.part.hbond>
-2.7854

> <Gold.PLP.part.metal>
0.0000

> <Gold.PLP.part.buried>
0.5607

> <Gold.PLP.part.nonpolar>
-31.1868

> <Gold.PLP.part.repulsive>
0.2805

> <Gold.PLP.ligand.clash>
0.0000

> <Gold.PLP.ligand.torsion>
0.1927

> <Gold.PLP.Chemscore.Hbond>
1.9920

> <Gold.PLP.Chemscore.CHOScore>
1.0000

> <Gold.PLP.Chemscore.Metal>
0.0000

> <Gold.Chemscore.Hbonds>
donor molecule, donor type, donor heavy atom, donor atom, acceptor molecule, acceptor atom, score
      L1  H     3    18       P1  8028  1.00
      L1  H    10    23       P1  8028  0.98
      L1  C     8    22       P1  7948  1.00

> <Gold.PLP.Chemscore.Internal.Correction>
0.0011

> <Gold.Rescore>
     Score         DG    S(hbond)    S(metal)    S(lipo)     H(rot)  DE(clash)    DE(int)     intcor
     14.70     -19.38       1.97        0.00      94.64       1.47       1.75       2.94       ----

> <Gold.Chemscore.Fitness>
14.6988

> <Gold.Chemscore.DG>
-19.3836

> <Gold.Chemscore.ZeroCoef>
-5.4800

> <Gold.Chemscore.Hbond>
1.9707

> <Gold.Chemscore.Metal>
0.0000

> <Gold.Chemscore.Lipo>
94.6366

> <Gold.Chemscore.Internal_Hbond>
0.0000

> <Gold.Chemscore.DEClash>
1.7487

> <Gold.Chemscore.DEInternal>
2.9361

> <Gold.Chemscore.Rot>
1.4653

> <Gold.Chemscore.Internal.Correction>
   9.000000E+99

> <Gold.Chemscore.Hbonds>
donor molecule, donor type, donor heavy atom, donor atom, acceptor molecule, acceptor atom, score
      L1  H     3    18       P1  8028  1.00
      L1  H    10    23       P1  8028  0.87

> <Gold.Chemscore.Hbond.Weighted>
-6.5822

> <Gold.Chemscore.Metal.Weighted>
-0.0000

> <Gold.Chemscore.Lipo.Weighted>
-11.0725

> <Gold.Chemscore.Internal_Hbond.Weighted>
0.0000

> <Gold.Chemscore.DEClash.Weighted>
1.7487

> <Gold.Chemscore.DEInternal.Weighted>
2.9361

> <Gold.Chemscore.Rot.Weighted>
3.7511

> <Gold.Chemscore.Internal.Correction.Weighted>
   9.000000E+99

> <Gold.Protein.RotatedTorsions>
[ 6907 6896 6895 6894 ] final  -16.60 input  -60.11 | X-H torsion
[ 7974 7965 7964 7962 ] final   43.03 input  175.53 | X-H torsion
[ 8008 7997 7996 7995 ] final  -11.26 input   59.86 | X-H torsion
[ 10167 10162 10161 10158 ] final  120.43 input  -65.29 | X-H torsion
[ 10718 10713 10712 10709 ] final   64.28 input   66.30 | X-H torsion
[ 10763 10752 10751 10750 ] final   78.94 input  -60.55 | X-H torsion
[ 11005 11000 10999 10996 ] final   29.37 input  -57.11 | X-H torsion

> <Gold.Protein.ActiveResidues>
 VAL166  LYS551  ARG553  GLY616  TRP617  ASP618  TYR619  PRO620  LYS621  CYS622 
 ASP623  PHE694  ASN695  SER759  ASP760  ASP761  ALA762  ILE779  LEU786  VAL792 
 PHE793  MET794  SER795  GLU796  ALA797  LYS798  CYS799  TRP800  GLU811  SER814 

> <Gold.Protein.RotatedAtoms>
  151.3061  135.0782  159.9255 H   0  0  0  0  0  0  0  0  0  0  0  0  # atno 6907 bound_to 6896
  152.5287  133.9784  159.7805 H   0  0  0  0  0  0  0  0  0  0  0  0  # atno 6908 bound_to 6896
  151.0079  133.5942  159.2717 H   0  0  0  0  0  0  0  0  0  0  0  0  # atno 6909 bound_to 6896
  146.0690  139.5232  142.9610 H   0  0  0  0  0  0  0  0  0  0  0  0  # atno 7974 bound_to 7965
  154.5481  140.2307  155.8530 H   0  0  0  0  0  0  0  0  0  0  0  0  # atno 8008 bound_to 7997
  156.1921  140.3074  155.9315 H   0  0  0  0  0  0  0  0  0  0  0  0  # atno 8009 bound_to 7997
  155.3125  140.0436  157.3026 H   0  0  0  0  0  0  0  0  0  0  0  0  # atno 8010 bound_to 7997
  139.5983  144.7049  151.3124 H   0  0  0  0  0  0  0  0  0  0  0  0  # atno 10167 bound_to 10162
  157.6029  130.9151  149.9825 H   0  0  0  0  0  0  0  0  0  0  0  0  # atno 10718 bound_to 10713
  153.0913  135.4858  154.8695 H   0  0  0  0  0  0  0  0  0  0  0  0  # atno 10763 bound_to 10752
  154.7272  135.3052  154.8953 H   0  0  0  0  0  0  0  0  0  0  0  0  # atno 10764 bound_to 10752
  153.9599  135.6813  153.4798 H   0  0  0  0  0  0  0  0  0  0  0  0  # atno 10765 bound_to 10752
  140.3057  134.2706  155.7744 H   0  0  0  0  0  0  0  0  0  0  0  0  # atno 11005 bound_to 11000
  145.6426  141.0281  143.1804 LP  0  0  0  0  0  0  0  0  0  0  0  0  # atno 17320 bound_to 7965
  144.7220  139.7999  143.7378 LP  0  0  0  0  0  0  0  0  0  0  0  0  # atno 17321 bound_to 7965
  140.7229  143.7084  150.7788 LP  0  0  0  0  0  0  0  0  0  0  0  0  # atno 17342 bound_to 10162
  140.0655  143.5112  152.2606 LP  0  0  0  0  0  0  0  0  0  0  0  0  # atno 17343 bound_to 10162
  156.1107  130.3650  150.0055 LP  0  0  0  0  0  0  0  0  0  0  0  0  # atno 17370 bound_to 10713
  156.8154  130.9339  151.3643 LP  0  0  0  0  0  0  0  0  0  0  0  0  # atno 17371 bound_to 10713
  141.2119  133.7675  156.9833 LP  0  0  0  0  0  0  0  0  0  0  0  0  # atno 17394 bound_to 11000
  140.1069  134.9501  157.2008 LP  0  0  0  0  0  0  0  0  0  0  0  0  # atno 17395 bound_to 11000

$$$$
