AV-unprocessed.smi:288|AV-procd|sdf|2209|dock7
  -GOLD-   2262022 43D 1   1.00000     0.00000
 Structure written by MMmdl.
 33 34  0  0  0  0  0  0  0  0  1 V2000
  152.8376  136.7681  160.0231 O   0  0  0  0  0  0  0  0  0  0  0  0
  152.8094  137.9976  159.9448 C   0  0  0  0  0  0  0  0  0  0  0  0
  151.6719  138.7432  159.4189 C   0  0  0  0  0  0  0  0  0  0  0  0
  150.5889  138.0792  158.9803 F   0  0  0  0  0  0  0  0  0  0  0  0
  151.6820  140.0930  159.3704 C   0  0  0  0  0  0  0  0  0  0  0  0
  152.7499  140.8603  159.8127 N   0  0  0  0  0  0  0  0  0  0  0  0
  152.7684  142.3746  159.7372 C   0  0  2  0  0  0  0  0  0  0  0  0
  152.8655  143.1026  161.0813 C   0  0  0  0  0  0  0  0  0  0  0  0
  152.3208  144.4546  160.6846 C   0  0  0  0  0  0  0  0  0  0  0  0
  151.1836  144.0576  159.7443 C   0  0  0  0  0  0  0  0  0  0  0  0
  151.5618  142.8031  159.1784 O   0  0  0  0  0  0  0  0  0  0  0  0
  153.8875  140.2182  160.3527 C   0  0  0  0  0  0  0  0  0  0  0  0
  154.8348  140.8761  160.7898 O   0  0  0  0  0  0  0  0  0  0  0  0
  153.8883  138.8041  160.3808 N   0  0  0  0  0  0  0  0  0  0  0  0
  155.0573  138.1325  160.9257 C   0  0  0  0  0  0  0  0  0  0  0  0
  155.2586  138.3850  162.4368 C   0  0  2  0  0  0  0  0  0  0  0  0
  156.6415  138.5507  162.6848 O   0  0  0  0  0  0  0  0  0  0  0  0
  154.7591  137.2103  163.3007 C   0  0  0  0  0  0  0  0  0  0  0  0
  153.4647  136.9871  163.0720 F   0  0  0  0  0  0  0  0  0  0  0  0
  155.4279  136.1040  162.9745 F   0  0  0  0  0  0  0  0  0  0  0  0
  154.9488  137.4558  164.5980 F   0  0  0  0  0  0  0  0  0  0  0  0
  150.7936  140.5632  158.9821 H   0  0  0  0  0  0  0  0  0  0  0  0
  153.6033  142.6242  159.0790 H   0  0  0  0  0  0  0  0  0  0  0  0
  152.1917  142.6637  161.8172 H   0  0  0  0  0  0  0  0  0  0  0  0
  153.8868  143.1197  161.4626 H   0  0  0  0  0  0  0  0  0  0  0  0
  151.9840  145.0500  161.5336 H   0  0  0  0  0  0  0  0  0  0  0  0
  153.0799  145.0227  160.1446 H   0  0  0  0  0  0  0  0  0  0  0  0
  150.2549  143.9208  160.2997 H   0  0  0  0  0  0  0  0  0  0  0  0
  151.0086  144.8056  158.9707 H   0  0  0  0  0  0  0  0  0  0  0  0
  154.9258  137.0697  160.7165 H   0  0  0  0  0  0  0  0  0  0  0  0
  155.9316  138.4084  160.3333 H   0  0  0  0  0  0  0  0  0  0  0  0
  154.7384  139.2921  162.7471 H   0  0  0  0  0  0  0  0  0  0  0  0
  157.1236  138.0611  162.0359 H   0  0  0  0  0  0  0  0  0  0  0  0
  1  2  2  0  0  0  0
  2 14  1  0  0  0  0
  2  3  1  0  0  0  0
  3  4  1  0  0  0  0
  3  5  2  0  0  0  0
  5  6  1  0  0  0  0
  5 22  1  0  0  0  0
  6  7  1  0  0  0  0
  6 12  1  0  0  0  0
  7 11  1  0  0  0  0
  7  8  1  0  0  0  0
  7 23  1  0  0  0  0
  8  9  1  0  0  0  0
  8 24  1  0  0  0  0
  8 25  1  0  0  0  0
  9 10  1  0  0  0  0
  9 26  1  0  0  0  0
  9 27  1  0  0  0  0
 10 11  1  0  0  0  0
 10 28  1  0  0  0  0
 10 29  1  0  0  0  0
 12 13  2  0  0  0  0
 12 14  1  0  0  0  0
 14 15  1  0  0  0  0
 15 16  1  0  0  0  0
 15 30  1  0  0  0  0
 15 31  1  0  0  0  0
 16 17  1  0  0  0  0
 16 18  1  0  0  0  0
 16 32  1  0  0  0  0
 17 33  1  0  0  0  0
 18 19  1  0  0  0  0
 18 20  1  0  0  0  0
 18 21  1  0  0  0  0
M  END
> <s_m_source_file>
AV-unprocessed.smi

> <i_m_source_file_index>
288

> <i_lp_mmshare_version>
43012

> <i_f3d_flags>
0

> <s_epik_input>
TzFbQ0gyXVtDSDJdW0NIMl1bQ0BIXTFuKFtjSF1jKEYpYzI9TyljKD1PKW4yW0NIMl1bQ0BIXShbT0hdKUMoRikoRilG

> <s_epik_cmdline>
J2VwaWtfcHl0aG9uJywgJy1waCcsICc3LjAnLCAnLXRuJywgJzgnLCAnLW1hJywgJzIwMCcsICctbWV0YWxfYmluZGluZycsICctaW1hZScsICc8aW5maWxlLm1hZT4nLCAnLW9tYWUnLCAnPG91dGZpbGUubWFlPic=

> <r_lp_tautomer_probability>
1

> <r_epik_Ionization_Penalty>
0.000551119

> <r_epik_Ionization_Penalty_Charging>
2.51184e-08

> <r_epik_Ionization_Penalty_Neutral>
0.000551094

> <r_epik_State_Penalty>
0.000345115

> <r_epik_Charging_Adjusted_Penalty>
0.00034514

> <i_epik_Tot_Q>
0

> <i_epik_Tot_abs_Q>
0

> <r_epik_Metal_State_Penalty>
-0

> <b_epik_Metal_Only>
0

> <s_epik_Chemistry_Notes>
This compound contains an acetal/aminal-like group ( X-CH(R)-Y where X, Y are N, S, or O) that may be acid/base labile, releasing an aldehyde.

> <s_lp_Force_Field>
OPLS_2005

> <r_lp_Energy>
36.863

> <b_lp_Chiralities_Consistent>
1

> <s_lp_Variant>
AV-unprocessed.smi:288-1

> <Gold.Version>
5.8.1

> <Gold.Id.Protein>
6NUR|6NUR_protein|mol2

> <Gold.PLP.Fitness>
43.0587

> <Gold.PLP.PLP>
-41.2713

> <Gold.PLP.part.hbond>
-1.8431

> <Gold.PLP.part.metal>
0.0000

> <Gold.PLP.part.buried>
-6.5650

> <Gold.PLP.part.nonpolar>
-33.6528

> <Gold.PLP.part.repulsive>
0.0048

> <Gold.PLP.ligand.clash>
0.0000

> <Gold.PLP.ligand.torsion>
0.6121

> <Gold.PLP.Chemscore.Hbond>
1.0000

> <Gold.PLP.Chemscore.CHOScore>
0.0000

> <Gold.PLP.Chemscore.Metal>
0.0000

> <Gold.Chemscore.Hbonds>
donor molecule, donor type, donor heavy atom, donor atom, acceptor molecule, acceptor atom, score
      P1  H  6896  6909       L1     1  1.00

> <Gold.PLP.Chemscore.Internal.Correction>
0.0116

> <Gold.Rescore>
     Score         DG    S(hbond)    S(metal)    S(lipo)     H(rot)  DE(clash)    DE(int)     intcor
      7.22      -9.79       1.00        0.00      64.46       2.57       0.02       2.56       ----

> <Gold.Chemscore.Fitness>
7.2157

> <Gold.Chemscore.DG>
-9.7943

> <Gold.Chemscore.ZeroCoef>
-5.4800

> <Gold.Chemscore.Hbond>
1.0000

> <Gold.Chemscore.Metal>
0.0000

> <Gold.Chemscore.Lipo>
64.4640

> <Gold.Chemscore.Internal_Hbond>
0.0000

> <Gold.Chemscore.DEClash>
0.0184

> <Gold.Chemscore.DEInternal>
2.5602

> <Gold.Chemscore.Rot>
2.5656

> <Gold.Chemscore.Internal.Correction>
   9.000000E+99

> <Gold.Chemscore.Hbonds>
donor molecule, donor type, donor heavy atom, donor atom, acceptor molecule, acceptor atom, score
      P1  H  6896  6909       L1     1  1.00

> <Gold.Chemscore.Hbond.Weighted>
-3.3399

> <Gold.Chemscore.Metal.Weighted>
-0.0000

> <Gold.Chemscore.Lipo.Weighted>
-7.5423

> <Gold.Chemscore.Internal_Hbond.Weighted>
0.0000

> <Gold.Chemscore.DEClash.Weighted>
0.0184

> <Gold.Chemscore.DEInternal.Weighted>
2.5602

> <Gold.Chemscore.Rot.Weighted>
6.5679

> <Gold.Chemscore.Internal.Correction.Weighted>
   9.000000E+99

> <Gold.Protein.RotatedTorsions>
[ 6907 6896 6895 6894 ] final  153.65 input  -60.11 | X-H torsion
[ 7974 7965 7964 7962 ] final  161.07 input  175.53 | X-H torsion
[ 8008 7997 7996 7995 ] final  176.83 input   59.86 | X-H torsion
[ 10167 10162 10161 10158 ] final  140.26 input  -65.29 | X-H torsion
[ 10718 10713 10712 10709 ] final    0.58 input   66.30 | X-H torsion
[ 10763 10752 10751 10750 ] final  159.90 input  -60.55 | X-H torsion
[ 11005 11000 10999 10996 ] final  -99.69 input  -57.11 | X-H torsion

> <Gold.Protein.ActiveResidues>
 VAL166  LYS551  ARG553  GLY616  TRP617  ASP618  TYR619  PRO620  LYS621  CYS622 
 ASP623  PHE694  ASN695  SER759  ASP760  ASP761  ALA762  ILE779  LEU786  VAL792 
 PHE793  MET794  SER795  GLU796  ALA797  LYS798  CYS799  TRP800  GLU811  SER814 

> <Gold.Protein.RotatedAtoms>
  152.0697  133.4101  159.4453 H   0  0  0  0  0  0  0  0  0  0  0  0  # atno 6907 bound_to 6896
  150.6864  134.3106  159.4754 H   0  0  0  0  0  0  0  0  0  0  0  0  # atno 6908 bound_to 6896
  152.0936  134.9390  160.0622 H   0  0  0  0  0  0  0  0  0  0  0  0  # atno 6909 bound_to 6896
  144.7704  139.7847  143.6299 H   0  0  0  0  0  0  0  0  0  0  0  0  # atno 7974 bound_to 7965
  156.0722  140.1374  156.9814 H   0  0  0  0  0  0  0  0  0  0  0  0  # atno 8008 bound_to 7997
  154.4538  140.0969  156.6748 H   0  0  0  0  0  0  0  0  0  0  0  0  # atno 8009 bound_to 7997
  155.5209  140.3456  155.4409 H   0  0  0  0  0  0  0  0  0  0  0  0  # atno 8010 bound_to 7997
  139.5054  144.6245  151.5971 H   0  0  0  0  0  0  0  0  0  0  0  0  # atno 10167 bound_to 10162
  156.8356  130.5503  149.5682 H   0  0  0  0  0  0  0  0  0  0  0  0  # atno 10718 bound_to 10713
  154.2389  135.2775  155.2861 H   0  0  0  0  0  0  0  0  0  0  0  0  # atno 10763 bound_to 10752
  154.5561  135.5661  153.6969 H   0  0  0  0  0  0  0  0  0  0  0  0  # atno 10764 bound_to 10752
  153.0004  135.6286  154.2533 H   0  0  0  0  0  0  0  0  0  0  0  0  # atno 10765 bound_to 10752
  141.1299  133.8341  157.1005 H   0  0  0  0  0  0  0  0  0  0  0  0  # atno 11005 bound_to 11000
  146.1846  139.5055  142.9844 LP  0  0  0  0  0  0  0  0  0  0  0  0  # atno 17320 bound_to 7965
  145.6341  141.0298  143.1847 LP  0  0  0  0  0  0  0  0  0  0  0  0  # atno 17321 bound_to 7965
  140.5957  143.9700  150.6353 LP  0  0  0  0  0  0  0  0  0  0  0  0  # atno 17342 bound_to 10162
  140.2895  143.3334  152.1076 LP  0  0  0  0  0  0  0  0  0  0  0  0  # atno 17343 bound_to 10162
  156.0910  130.5895  150.9732 LP  0  0  0  0  0  0  0  0  0  0  0  0  # atno 17370 bound_to 10713
  157.6383  131.0913  150.8303 LP  0  0  0  0  0  0  0  0  0  0  0  0  # atno 17371 bound_to 10713
  140.0336  134.9889  157.0828 LP  0  0  0  0  0  0  0  0  0  0  0  0  # atno 17394 bound_to 11000
  140.4246  134.1845  155.7165 LP  0  0  0  0  0  0  0  0  0  0  0  0  # atno 17395 bound_to 11000

$$$$
