AV-unprocessed.smi:1395|AV-procd|sdf|5670|dock3
  -GOLD-   22720 5293D 1   1.00000     0.00000
 Structure written by MMmdl.
 43 44  0  0  0  0  0  0  0  0  2 V2000
  151.5241  140.4120  158.2921 C   0  0  0  0  0  0  0  0  0  0  0  0
  151.7802  141.9083  158.3738 C   0  0  0  0  0  0  0  0  0  0  0  0
  152.4283  142.4360  159.5109 C   0  0  0  0  0  0  0  0  0  0  0  0
  152.6639  143.8193  159.5865 C   0  0  0  0  0  0  0  0  0  0  0  0
  152.2387  144.6217  158.5141 C   0  0  0  0  0  0  0  0  0  0  0  0
  151.6196  144.1259  157.4234 N   0  0  0  0  0  0  0  0  0  0  0  0
  151.3839  142.7928  157.3348 C   0  0  0  0  0  0  0  0  0  0  0  0
  150.7375  142.2008  156.2125 N   0  0  0  0  0  0  0  0  0  0  0  0
  149.6193  141.4535  156.1912 C   0  0  0  0  0  0  0  0  0  0  0  0
  148.9588  141.1286  157.1782 O   0  0  0  0  0  0  0  0  0  0  0  0
  149.2964  141.0949  154.9396 N   0  0  0  0  0  0  0  0  0  0  0  0
  148.1361  140.2871  154.5744 C   0  0  2  0  0  0  0  0  0  0  0  0
  148.3185  138.8464  155.0792 C   0  0  0  0  0  0  0  0  0  0  0  0
  147.1514  137.9482  154.6343 C   0  0  0  0  0  0  0  0  0  0  0  0
  146.9920  137.9682  153.1576 N   0  3  1  0  0  0  0  0  0  0  0  0
  145.9686  137.0024  152.6815 C   0  0  0  0  0  0  0  0  0  0  0  0
  144.5634  137.3110  153.2094 C   0  0  0  0  0  0  0  0  0  0  0  0
  143.6609  137.7205  152.3155 N   0  0  0  0  0  0  0  0  0  0  0  0
  144.2971  137.1977  154.4046 O   0  0  0  0  0  0  0  0  0  0  0  0
  146.7705  139.3492  152.6519 C   0  0  0  0  0  0  0  0  0  0  0  0
  147.9314  140.2751  153.0478 C   0  0  0  0  0  0  0  0  0  0  0  0
  151.9009  139.8960  159.1758 H   0  0  0  0  0  0  0  0  0  0  0  0
  152.0199  139.9867  157.4191 H   0  0  0  0  0  0  0  0  0  0  0  0
  150.4549  140.2112  158.2173 H   0  0  0  0  0  0  0  0  0  0  0  0
  152.7426  141.7907  160.3181 H   0  0  0  0  0  0  0  0  0  0  0  0
  153.1574  144.2537  160.4433 H   0  0  0  0  0  0  0  0  0  0  0  0
  152.4000  145.6894  158.5310 H   0  0  0  0  0  0  0  0  0  0  0  0
  151.1759  142.3773  155.3211 H   0  0  0  0  0  0  0  0  0  0  0  0
  149.8948  141.4028  154.1870 H   0  0  0  0  0  0  0  0  0  0  0  0
  147.2476  140.7065  155.0510 H   0  0  0  0  0  0  0  0  0  0  0  0
  149.2555  138.4349  154.7006 H   0  0  0  0  0  0  0  0  0  0  0  0
  148.3947  138.8379  156.1673 H   0  0  0  0  0  0  0  0  0  0  0  0
  147.3390  136.9279  154.9710 H   0  0  0  0  0  0  0  0  0  0  0  0
  146.2226  138.2731  155.1061 H   0  0  0  0  0  0  0  0  0  0  0  0
  145.9066  137.0388  151.5929 H   0  0  0  0  0  0  0  0  0  0  0  0
  146.2624  135.9847  152.9445 H   0  0  0  0  0  0  0  0  0  0  0  0
  142.7171  137.9339  152.6051 H   0  0  0  0  0  0  0  0  0  0  0  0
  143.9246  137.8121  151.3446 H   0  0  0  0  0  0  0  0  0  0  0  0
  146.6748  139.3425  151.5660 H   0  0  0  0  0  0  0  0  0  0  0  0
  145.8308  139.7374  153.0480 H   0  0  0  0  0  0  0  0  0  0  0  0
  147.7319  141.2838  152.6838 H   0  0  0  0  0  0  0  0  0  0  0  0
  148.8448  139.9431  152.5518 H   0  0  0  0  0  0  0  0  0  0  0  0
  147.8718  137.6528  152.7735 H   0  0  0  0  0  0  0  0  0  0  0  0
  1  2  1  0  0  0  0
  1 22  1  0  0  0  0
  1 23  1  0  0  0  0
  1 24  1  0  0  0  0
  2  7  1  0  0  0  0
  2  3  2  0  0  0  0
  3  4  1  0  0  0  0
  3 25  1  0  0  0  0
  4  5  2  0  0  0  0
  4 26  1  0  0  0  0
  5  6  1  0  0  0  0
  5 27  1  0  0  0  0
  6  7  2  0  0  0  0
  7  8  1  0  0  0  0
  8  9  1  0  0  0  0
  8 28  1  0  0  0  0
  9 10  2  0  0  0  0
  9 11  1  0  0  0  0
 11 12  1  0  0  0  0
 11 29  1  0  0  0  0
 12 21  1  0  0  0  0
 12 13  1  0  0  0  0
 12 30  1  0  0  0  0
 13 14  1  0  0  0  0
 13 31  1  0  0  0  0
 13 32  1  0  0  0  0
 14 15  1  0  0  0  0
 14 33  1  0  0  0  0
 14 34  1  0  0  0  0
 15 16  1  0  0  0  0
 15 20  1  0  0  0  0
 15 43  1  0  0  0  0
 16 17  1  0  0  0  0
 16 35  1  0  0  0  0
 16 36  1  0  0  0  0
 17 18  1  0  0  0  0
 17 19  2  0  0  0  0
 18 37  1  0  0  0  0
 18 38  1  0  0  0  0
 20 21  1  0  0  0  0
 20 39  1  0  0  0  0
 20 40  1  0  0  0  0
 21 41  1  0  0  0  0
 21 42  1  0  0  0  0
M  CHG  1  15   1
M  END
> <s_m_source_file>
AV-unprocessed.smi

> <i_m_source_file_index>
1395

> <i_lp_mmshare_version>
43012

> <i_f3d_flags>
0

> <s_epik_input>
W0NIM11jMVtjSF1bY0hdW2NIXW5jMVtOSF1DKD1PKVtOSF1bQ0hdMltDSDJdW0NIMl1OKFtDSDJdW0NIMl0yKVtDSDJdQyg9TylbTkgyXQ==

> <s_epik_cmdline>
J2VwaWtfcHl0aG9uJywgJy1waCcsICc3LjAnLCAnLXRuJywgJzgnLCAnLW1hJywgJzIwMCcsICctbWV0YWxfYmluZGluZycsICctaW1hZScsICc8aW5maWxlLm1hZT4nLCAnLW9tYWUnLCAnPG91dGZpbGUubWFlPic=

> <r_epik_Ionization_Penalty>
0.83893

> <r_epik_Ionization_Penalty_Charging>
0.838844

> <r_epik_Ionization_Penalty_Neutral>
8.62421e-05

> <r_epik_State_Penalty>
0.8734

> <r_epik_Charging_Adjusted_Penalty>
1.71224

> <i_epik_Tot_Q>
1

> <i_epik_Tot_abs_Q>
1

> <r_epik_Metal_State_Penalty>
0.890705

> <b_epik_Metal_Only>
0

> <s_lp_Force_Field>
OPLS_2005

> <r_lp_Energy>
13.5717

> <b_lp_Chiralities_Consistent>
1

> <s_lp_Variant>
AV-unprocessed.smi:1395-2

> <Gold.Version>
5.8.1

> <Gold.Id.Protein>
6NUR|6NUR_protein|mol2

> <Gold.PLP.Fitness>
40.3774

> <Gold.PLP.PLP>
-32.7081

> <Gold.PLP.part.hbond>
-3.7379

> <Gold.PLP.part.metal>
0.0000

> <Gold.PLP.part.buried>
-1.3125

> <Gold.PLP.part.nonpolar>
-28.8920

> <Gold.PLP.part.repulsive>
0.6156

> <Gold.PLP.ligand.clash>
0.0000

> <Gold.PLP.ligand.torsion>
0.6820

> <Gold.PLP.Chemscore.Hbond>
3.0000

> <Gold.PLP.Chemscore.CHOScore>
0.0000

> <Gold.PLP.Chemscore.Metal>
0.0000

> <Gold.Chemscore.Hbonds>
donor molecule, donor type, donor heavy atom, donor atom, acceptor molecule, acceptor atom, score
      L1  H    15    43       P1  7948  2.00
      L1  H    18    38       P1 10171  1.00

> <Gold.PLP.Chemscore.Internal.Correction>
0.0333

> <Gold.Rescore>
     Score         DG    S(hbond)    S(metal)    S(lipo)     H(rot)  DE(clash)    DE(int)     intcor
     14.00     -16.40       1.90        0.00      82.01       1.96       1.43       0.96       ----

> <Gold.Chemscore.Fitness>
14.0028

> <Gold.Chemscore.DG>
-16.3974

> <Gold.Chemscore.ZeroCoef>
-5.4800

> <Gold.Chemscore.Hbond>
1.8998

> <Gold.Chemscore.Metal>
0.0000

> <Gold.Chemscore.Lipo>
82.0098

> <Gold.Chemscore.Internal_Hbond>
0.0000

> <Gold.Chemscore.DEClash>
1.4316

> <Gold.Chemscore.DEInternal>
0.9630

> <Gold.Chemscore.Rot>
1.9622

> <Gold.Chemscore.Internal.Correction>
   9.000000E+99

> <Gold.Chemscore.Hbonds>
donor molecule, donor type, donor heavy atom, donor atom, acceptor molecule, acceptor atom, score
      L1  H    15    43       P1  7948  0.91
      L1  H    18    38       P1 10171  0.96

> <Gold.Chemscore.Hbond.Weighted>
-6.3454

> <Gold.Chemscore.Metal.Weighted>
-0.0000

> <Gold.Chemscore.Lipo.Weighted>
-9.5951

> <Gold.Chemscore.Internal_Hbond.Weighted>
0.0000

> <Gold.Chemscore.DEClash.Weighted>
1.4316

> <Gold.Chemscore.DEInternal.Weighted>
0.9630

> <Gold.Chemscore.Rot.Weighted>
5.0232

> <Gold.Chemscore.Internal.Correction.Weighted>
   9.000000E+99

> <Gold.Protein.RotatedTorsions>
[ 6907 6896 6895 6894 ] final -116.08 input  -60.11 | X-H torsion
[ 7974 7965 7964 7962 ] final  -95.55 input  175.53 | X-H torsion
[ 8008 7997 7996 7995 ] final  129.83 input   59.86 | X-H torsion
[ 10167 10162 10161 10158 ] final   68.69 input  -65.29 | X-H torsion
[ 10718 10713 10712 10709 ] final -122.75 input   66.30 | X-H torsion
[ 10763 10752 10751 10750 ] final   77.58 input  -60.55 | X-H torsion
[ 11005 11000 10999 10996 ] final   60.05 input  -57.11 | X-H torsion

> <Gold.Protein.ActiveResidues>
 VAL166  LYS551  ARG553  GLY616  TRP617  ASP618  TYR619  PRO620  LYS621  CYS622 
 ASP623  PHE694  ASN695  SER759  ASP760  ASP761  ALA762  ILE779  LEU786  VAL792 
 PHE793  MET794  SER795  GLU796  ALA797  LYS798  CYS799  TRP800  GLU811  SER814 

> <Gold.Protein.RotatedAtoms>
  150.8028  133.8567  159.3220 H   0  0  0  0  0  0  0  0  0  0  0  0  # atno 6907 bound_to 6896
  151.6375  135.1014  160.0144 H   0  0  0  0  0  0  0  0  0  0  0  0  # atno 6908 bound_to 6896
  152.4116  133.6933  159.6438 H   0  0  0  0  0  0  0  0  0  0  0  0  # atno 6909 bound_to 6896
  145.3586  140.9488  143.2514 H   0  0  0  0  0  0  0  0  0  0  0  0  # atno 7974 bound_to 7965
  156.2943  140.2611  156.2663 H   0  0  0  0  0  0  0  0  0  0  0  0  # atno 8008 bound_to 7997
  154.9739  140.0390  157.2265 H   0  0  0  0  0  0  0  0  0  0  0  0  # atno 8009 bound_to 7997
  154.7833  140.2799  155.6051 H   0  0  0  0  0  0  0  0  0  0  0  0  # atno 8010 bound_to 7997
  140.0759  144.5112  150.7195 H   0  0  0  0  0  0  0  0  0  0  0  0  # atno 10167 bound_to 10162
  156.1445  130.6490  150.9821 H   0  0  0  0  0  0  0  0  0  0  0  0  # atno 10718 bound_to 10713
  153.0810  135.4909  154.8502 H   0  0  0  0  0  0  0  0  0  0  0  0  # atno 10763 bound_to 10752
  154.7150  135.3027  154.9140 H   0  0  0  0  0  0  0  0  0  0  0  0  # atno 10764 bound_to 10752
  153.9822  135.6788  153.4803 H   0  0  0  0  0  0  0  0  0  0  0  0  # atno 10765 bound_to 10752
  140.0259  134.6083  155.9573 H   0  0  0  0  0  0  0  0  0  0  0  0  # atno 11005 bound_to 11000
  144.8664  139.5102  143.6788 LP  0  0  0  0  0  0  0  0  0  0  0  0  # atno 17320 bound_to 7965
  146.2937  139.7215  142.9142 LP  0  0  0  0  0  0  0  0  0  0  0  0  # atno 17321 bound_to 7965
  140.7102  143.2499  151.4604 LP  0  0  0  0  0  0  0  0  0  0  0  0  # atno 17342 bound_to 10162
  139.5808  144.1714  152.1965 LP  0  0  0  0  0  0  0  0  0  0  0  0  # atno 17343 bound_to 10162
  157.6604  131.0882  150.7850 LP  0  0  0  0  0  0  0  0  0  0  0  0  # atno 17370 bound_to 10713
  156.7923  130.4894  149.5383 LP  0  0  0  0  0  0  0  0  0  0  0  0  # atno 17371 bound_to 10713
  141.1803  133.6545  156.4991 LP  0  0  0  0  0  0  0  0  0  0  0  0  # atno 17394 bound_to 11000
  140.4307  134.7105  157.4940 LP  0  0  0  0  0  0  0  0  0  0  0  0  # atno 17395 bound_to 11000

$$$$
