AV-unprocessed.smi:213|AV-procd|sdf|1648|dock3
  -GOLD-   2262020 23D 1   1.00000     0.00000
 Structure written by MMmdl.
 58 61  0  0  0  0  0  0  0  0  1 V2000
  144.1368  137.5067  153.1473 C   0  0  0  0  0  0  0  0  0  0  0  0
  145.5902  137.1523  152.7728 C   0  0  1  0  0  0  0  0  0  0  0  0
  145.7155  136.5961  151.3334 C   0  0  0  0  0  0  0  0  0  0  0  0
  145.3730  135.1827  151.1656 N   0  0  0  0  0  0  0  0  0  0  0  0
  143.9829  135.0303  150.7501 C   0  0  0  0  0  0  0  0  0  0  0  0
  143.6037  133.5554  150.5380 C   0  0  0  0  0  0  0  0  0  0  0  0
  143.8500  132.8278  151.7363 O   0  0  0  0  0  0  0  0  0  0  0  0
  145.2088  132.9070  152.1535 C   0  0  0  0  0  0  0  0  0  0  0  0
  145.6081  134.3787  152.3610 C   0  0  0  0  0  0  0  0  0  0  0  0
  146.4514  138.3239  152.9586 N   0  0  0  0  0  0  0  0  0  0  0  0
  146.5382  139.3606  151.9319 C   0  0  0  0  0  0  0  0  0  0  0  0
  147.3349  138.3854  153.9916 C   0  0  0  0  0  0  0  0  0  0  0  0
  147.5133  137.2619  154.7368 N   0  0  0  0  0  0  0  0  0  0  0  0
  148.3736  137.2512  155.7584 C   0  0  0  0  0  0  0  0  0  0  0  0
  149.1464  138.2402  156.2074 N   0  0  0  0  0  0  0  0  0  0  0  0
  148.9661  139.3772  155.4778 C   0  0  0  0  0  0  0  0  0  0  0  0
  148.0894  139.5394  154.3653 C   0  0  0  0  0  0  0  0  0  0  0  0
  148.1718  140.8486  153.9012 N   0  0  0  0  0  0  0  0  0  0  0  0
  149.0500  141.4184  154.6783 C   0  0  0  0  0  0  0  0  0  0  0  0
  149.5777  140.6061  155.6535 N   0  0  0  0  0  0  0  0  0  0  0  0
  150.5641  140.9817  156.6506 C   0  0  0  0  0  0  0  0  0  0  0  0
  149.9522  141.8050  157.8003 C   0  0  1  0  0  0  0  0  0  0  0  0
  149.1601  140.9838  158.6375 O   0  0  0  0  0  0  0  0  0  0  0  0
  151.0150  142.5623  158.6225 C   0  0  1  0  0  0  0  0  0  0  0  0
  151.8328  143.6193  157.8759 C   0  0  0  0  0  0  0  0  0  0  0  0
  152.3161  144.4770  159.0242 C   0  0  0  0  0  0  0  0  0  0  0  0
  151.0995  144.4801  159.9476 C   0  0  0  0  0  0  0  0  0  0  0  0
  150.4522  143.2251  159.7518 O   0  0  0  0  0  0  0  0  0  0  0  0
  143.4793  136.6406  153.1053 H   0  0  0  0  0  0  0  0  0  0  0  0
  143.7166  138.2592  152.4800 H   0  0  0  0  0  0  0  0  0  0  0  0
  144.0841  137.8999  154.1630 H   0  0  0  0  0  0  0  0  0  0  0  0
  145.9045  136.3845  153.4790 H   0  0  0  0  0  0  0  0  0  0  0  0
  145.1352  137.2094  150.6425 H   0  0  0  0  0  0  0  0  0  0  0  0
  146.7534  136.7179  151.0196 H   0  0  0  0  0  0  0  0  0  0  0  0
  143.3225  135.4677  151.5006 H   0  0  0  0  0  0  0  0  0  0  0  0
  143.8109  135.5805  149.8242 H   0  0  0  0  0  0  0  0  0  0  0  0
  142.5490  133.4679  150.2767 H   0  0  0  0  0  0  0  0  0  0  0  0
  144.1759  133.1232  149.7155 H   0  0  0  0  0  0  0  0  0  0  0  0
  145.3312  132.3470  153.0808 H   0  0  0  0  0  0  0  0  0  0  0  0
  145.8515  132.4364  151.4078 H   0  0  0  0  0  0  0  0  0  0  0  0
  146.6634  134.4056  152.6281 H   0  0  0  0  0  0  0  0  0  0  0  0
  145.0533  134.7935  153.2037 H   0  0  0  0  0  0  0  0  0  0  0  0
  147.5732  139.6580  151.7591 H   0  0  0  0  0  0  0  0  0  0  0  0
  145.9717  140.2412  152.2360 H   0  0  0  0  0  0  0  0  0  0  0  0
  146.1367  139.0103  150.9811 H   0  0  0  0  0  0  0  0  0  0  0  0
  148.4551  136.3158  156.2918 H   0  0  0  0  0  0  0  0  0  0  0  0
  149.3348  142.4540  154.5628 H   0  0  0  0  0  0  0  0  0  0  0  0
  151.0377  140.0768  157.0335 H   0  0  0  0  0  0  0  0  0  0  0  0
  151.3466  141.5555  156.1531 H   0  0  0  0  0  0  0  0  0  0  0  0
  149.2776  142.5468  157.3711 H   0  0  0  0  0  0  0  0  0  0  0  0
  149.5347  140.1165  158.6497 H   0  0  0  0  0  0  0  0  0  0  0  0
  151.7147  141.8299  159.0291 H   0  0  0  0  0  0  0  0  0  0  0  0
  152.6458  143.1917  157.2884 H   0  0  0  0  0  0  0  0  0  0  0  0
  151.2092  144.2186  157.2118 H   0  0  0  0  0  0  0  0  0  0  0  0
  153.1628  143.9983  159.5185 H   0  0  0  0  0  0  0  0  0  0  0  0
  152.6205  145.4775  158.7159 H   0  0  0  0  0  0  0  0  0  0  0  0
  151.3708  144.6309  160.9927 H   0  0  0  0  0  0  0  0  0  0  0  0
  150.4073  145.2725  159.6604 H   0  0  0  0  0  0  0  0  0  0  0  0
  1  2  1  0  0  0  0
  1 29  1  0  0  0  0
  1 30  1  0  0  0  0
  1 31  1  0  0  0  0
  2  3  1  0  0  0  0
  2 10  1  0  0  0  0
  2 32  1  0  0  0  0
  3  4  1  0  0  0  0
  3 33  1  0  0  0  0
  3 34  1  0  0  0  0
  4  9  1  0  0  0  0
  4  5  1  0  0  0  0
  5  6  1  0  0  0  0
  5 35  1  0  0  0  0
  5 36  1  0  0  0  0
  6  7  1  0  0  0  0
  6 37  1  0  0  0  0
  6 38  1  0  0  0  0
  7  8  1  0  0  0  0
  8  9  1  0  0  0  0
  8 39  1  0  0  0  0
  8 40  1  0  0  0  0
  9 41  1  0  0  0  0
  9 42  1  0  0  0  0
 10 11  1  0  0  0  0
 10 12  1  0  0  0  0
 11 43  1  0  0  0  0
 11 44  1  0  0  0  0
 11 45  1  0  0  0  0
 12 17  1  0  0  0  0
 12 13  2  0  0  0  0
 13 14  1  0  0  0  0
 14 15  2  0  0  0  0
 14 46  1  0  0  0  0
 15 16  1  0  0  0  0
 16 20  1  0  0  0  0
 16 17  2  0  0  0  0
 17 18  1  0  0  0  0
 18 19  2  0  0  0  0
 19 20  1  0  0  0  0
 19 47  1  0  0  0  0
 20 21  1  0  0  0  0
 21 22  1  0  0  0  0
 21 48  1  0  0  0  0
 21 49  1  0  0  0  0
 22 23  1  0  0  0  0
 22 24  1  0  0  0  0
 22 50  1  0  0  0  0
 23 51  1  0  0  0  0
 24 28  1  0  0  0  0
 24 25  1  0  0  0  0
 24 52  1  0  0  0  0
 25 26  1  0  0  0  0
 25 53  1  0  0  0  0
 25 54  1  0  0  0  0
 26 27  1  0  0  0  0
 26 55  1  0  0  0  0
 26 56  1  0  0  0  0
 27 28  1  0  0  0  0
 27 57  1  0  0  0  0
 27 58  1  0  0  0  0
M  END
> <s_m_source_file>
AV-unprocessed.smi

> <i_m_source_file_index>
213

> <i_lp_mmshare_version>
43012

> <i_f3d_flags>
0

> <s_epik_input>
W0NIMl0xW0NIMl1PW0NIMl1bQ0gyXU4xW0NIMl1bQ0BASF0oW0NIM10pTihbQ0gzXSljKG5bY0hdbjIpYyhjMjMpbltjSF1uM1tDSDJdW0NASF0oW09IXSlbQ0BASF00W0NIMl1bQ0gyXVtDSDJdTzQ=

> <s_epik_cmdline>
J2VwaWtfcHl0aG9uJywgJy1waCcsICc3LjAnLCAnLXRuJywgJzgnLCAnLW1hJywgJzIwMCcsICctbWV0YWxfYmluZGluZycsICctaW1hZScsICc8aW5maWxlLm1hZT4nLCAnLW9tYWUnLCAnPG91dGZpbGUubWFlPic=

> <r_lp_tautomer_probability>
1

> <r_epik_Ionization_Penalty>
0.423322

> <r_epik_Ionization_Penalty_Charging>
0

> <r_epik_Ionization_Penalty_Neutral>
0.423322

> <r_epik_State_Penalty>
0.569486

> <r_epik_Charging_Adjusted_Penalty>
0.569486

> <i_epik_Tot_Q>
0

> <i_epik_Tot_abs_Q>
0

> <r_epik_Metal_State_Penalty>
0.568671

> <b_epik_Metal_Only>
0

> <s_lp_Force_Field>
OPLS_2005

> <r_lp_Energy>
55.4432

> <b_lp_Chiralities_Consistent>
1

> <s_lp_Variant>
AV-unprocessed.smi:213-16

> <Gold.Version>
5.8.1

> <Gold.Id.Protein>
6NUR|6NUR_protein|mol2

> <Gold.PLP.Fitness>
47.0421

> <Gold.PLP.PLP>
-46.4324

> <Gold.PLP.part.hbond>
-0.3909

> <Gold.PLP.part.metal>
0.0000

> <Gold.PLP.part.buried>
-0.6195

> <Gold.PLP.part.nonpolar>
-48.3861

> <Gold.PLP.part.repulsive>
2.0569

> <Gold.PLP.ligand.clash>
0.0000

> <Gold.PLP.ligand.torsion>
1.4986

> <Gold.PLP.Chemscore.Hbond>
0.0000

> <Gold.PLP.Chemscore.CHOScore>
1.0000

> <Gold.PLP.Chemscore.Metal>
0.0000

> <Gold.Chemscore.Hbonds>
donor molecule, donor type, donor heavy atom, donor atom, acceptor molecule, acceptor atom, score
      L1  C    19    47       P1  8028  0.97

> <Gold.PLP.Chemscore.Internal.Correction>
0.6068

> <Gold.Rescore>
     Score         DG    S(hbond)    S(metal)    S(lipo)     H(rot)  DE(clash)    DE(int)     intcor
      7.86     -12.39       0.00        0.00     118.92       2.74       2.14       2.38       ----

> <Gold.Chemscore.Fitness>
7.8634

> <Gold.Chemscore.DG>
-12.3850

> <Gold.Chemscore.ZeroCoef>
-5.4800

> <Gold.Chemscore.Hbond>
0.0000

> <Gold.Chemscore.Metal>
0.0000

> <Gold.Chemscore.Lipo>
118.9203

> <Gold.Chemscore.Internal_Hbond>
0.0000

> <Gold.Chemscore.DEClash>
2.1416

> <Gold.Chemscore.DEInternal>
2.3800

> <Gold.Chemscore.Rot>
2.7378

> <Gold.Chemscore.Internal.Correction>
   9.000000E+99

> <Gold.Chemscore.Hbond.Weighted>
-0.0000

> <Gold.Chemscore.Metal.Weighted>
-0.0000

> <Gold.Chemscore.Lipo.Weighted>
-13.9137

> <Gold.Chemscore.Internal_Hbond.Weighted>
0.0000

> <Gold.Chemscore.DEClash.Weighted>
2.1416

> <Gold.Chemscore.DEInternal.Weighted>
2.3800

> <Gold.Chemscore.Rot.Weighted>
7.0087

> <Gold.Chemscore.Internal.Correction.Weighted>
   9.000000E+99

> <Gold.Protein.RotatedTorsions>
[ 6907 6896 6895 6894 ] final  -17.42 input  -60.11 | X-H torsion
[ 7974 7965 7964 7962 ] final   87.95 input  175.53 | X-H torsion
[ 8008 7997 7996 7995 ] final   60.12 input   59.86 | X-H torsion
[ 10167 10162 10161 10158 ] final   -1.97 input  -65.29 | X-H torsion
[ 10718 10713 10712 10709 ] final   41.60 input   66.30 | X-H torsion
[ 10763 10752 10751 10750 ] final  -95.97 input  -60.55 | X-H torsion
[ 11005 11000 10999 10996 ] final -138.23 input  -57.11 | X-H torsion

> <Gold.Protein.ActiveResidues>
 VAL166  LYS551  ARG553  GLY616  TRP617  ASP618  TYR619  PRO620  LYS621  CYS622 
 ASP623  PHE694  ASN695  SER759  ASP760  ASP761  ALA762  ILE779  LEU786  VAL792 
 PHE793  MET794  SER795  GLU796  ALA797  LYS798  CYS799  TRP800  GLU811  SER814 

> <Gold.Protein.RotatedAtoms>
  151.2935  135.0749  159.9212 H   0  0  0  0  0  0  0  0  0  0  0  0  # atno 6907 bound_to 6896
  152.5312  133.9907  159.7859 H   0  0  0  0  0  0  0  0  0  0  0  0  # atno 6908 bound_to 6896
  151.0181  133.5851  159.2705 H   0  0  0  0  0  0  0  0  0  0  0  0  # atno 6909 bound_to 6896
  145.5522  139.2296  143.2506 H   0  0  0  0  0  0  0  0  0  0  0  0  # atno 7974 bound_to 7965
  155.5772  140.3491  155.4530 H   0  0  0  0  0  0  0  0  0  0  0  0  # atno 8008 bound_to 7997
  156.0400  140.1294  157.0191 H   0  0  0  0  0  0  0  0  0  0  0  0  # atno 8009 bound_to 7997
  154.4388  140.1026  156.6209 H   0  0  0  0  0  0  0  0  0  0  0  0  # atno 8010 bound_to 7997
  140.6832  143.6713  150.8183 H   0  0  0  0  0  0  0  0  0  0  0  0  # atno 10167 bound_to 10162
  157.3954  130.7830  149.7304 H   0  0  0  0  0  0  0  0  0  0  0  0  # atno 10718 bound_to 10713
  154.7197  135.5101  153.8793 H   0  0  0  0  0  0  0  0  0  0  0  0  # atno 10763 bound_to 10752
  153.0851  135.6643  153.9974 H   0  0  0  0  0  0  0  0  0  0  0  0  # atno 10764 bound_to 10752
  153.9799  135.3030  155.3400 H   0  0  0  0  0  0  0  0  0  0  0  0  # atno 10765 bound_to 10752
  140.8636  134.2139  157.4693 H   0  0  0  0  0  0  0  0  0  0  0  0  # atno 11005 bound_to 11000
  146.1909  140.6345  142.9146 LP  0  0  0  0  0  0  0  0  0  0  0  0  # atno 17320 bound_to 7965
  144.7524  140.5224  143.6792 LP  0  0  0  0  0  0  0  0  0  0  0  0  # atno 17321 bound_to 7965
  140.0416  143.5340  152.2715 LP  0  0  0  0  0  0  0  0  0  0  0  0  # atno 17342 bound_to 10162
  139.6169  144.7621  151.2825 LP  0  0  0  0  0  0  0  0  0  0  0  0  # atno 17343 bound_to 10162
  155.9809  130.4025  150.3502 LP  0  0  0  0  0  0  0  0  0  0  0  0  # atno 17370 bound_to 10713
  157.1623  131.0348  151.2835 LP  0  0  0  0  0  0  0  0  0  0  0  0  # atno 17371 bound_to 10713
  139.8708  134.9741  156.4834 LP  0  0  0  0  0  0  0  0  0  0  0  0  # atno 17394 bound_to 11000
  140.8655  133.8028  155.9309 LP  0  0  0  0  0  0  0  0  0  0  0  0  # atno 17395 bound_to 11000

$$$$
