AV-unprocessed.smi:1830|AV-procd|sdf|7444|dock8
  -GOLD-   22720 9133D 1   1.00000     0.00000
 Structure written by MMmdl.
 54 57  0  0  0  0  0  0  0  0  3 V2000
  146.5928  137.3765  153.9032 O   0  0  0  0  0  0  0  0  0  0  0  0
  145.8678  138.2579  153.4428 C   0  0  0  0  0  0  0  0  0  0  0  0
  144.6640  138.0199  152.9062 N   0  0  0  0  0  0  0  0  0  0  0  0
  144.0635  136.6969  152.7826 C   0  0  0  0  0  0  0  0  0  0  0  0
  144.8992  135.7985  151.8596 C   0  0  2  0  0  0  0  0  0  0  0  0
  144.0168  134.7818  151.0965 C   0  0  0  0  0  0  0  0  0  0  0  0
  144.9006  133.8904  150.3239 N   0  3  2  0  0  0  0  0  0  0  0  0
  144.2850  132.8418  149.4928 C   0  0  0  0  0  0  0  0  0  0  0  0
  145.3855  131.7739  149.3298 C   0  0  0  0  0  0  0  0  0  0  0  0
  146.5353  132.2127  150.2555 C   0  0  0  0  0  0  0  0  0  0  0  0
  145.8613  133.2088  151.1940 C   0  0  1  0  0  0  0  0  0  0  0  0
  146.7365  134.2578  151.8918 C   0  0  0  0  0  0  0  0  0  0  0  0
  145.8720  135.1054  152.6513 O   0  0  0  0  0  0  0  0  0  0  0  0
  146.1612  139.5689  153.4264 N   0  0  0  0  0  0  0  0  0  0  0  0
  147.3127  140.2116  153.9637 C   0  0  0  0  0  0  0  0  0  0  0  0
  148.5627  139.5429  154.0234 C   0  0  0  0  0  0  0  0  0  0  0  0
  149.7021  140.2215  154.4947 C   0  0  0  0  0  0  0  0  0  0  0  0
  149.5797  141.5659  154.8842 C   0  0  0  0  0  0  0  0  0  0  0  0
  148.3809  142.1788  154.8028 N   0  3  0  0  0  0  0  0  0  0  0  0
  147.2443  141.5759  154.3721 C   0  0  0  0  0  0  0  0  0  0  0  0
  146.0585  142.3456  154.3511 N   0  0  0  0  0  0  0  0  0  0  0  0
  145.9511  143.5137  153.4847 C   0  0  0  0  0  0  0  0  0  0  0  0
  144.7171  144.2620  153.9808 C   0  0  0  0  0  0  0  0  0  0  0  0
  144.7668  144.0145  155.4854 C   0  0  0  0  0  0  0  0  0  0  0  0
  145.3527  142.6035  155.6025 C   0  0  0  0  0  0  0  0  0  0  0  0
  144.1325  138.7992  152.5466 H   0  0  0  0  0  0  0  0  0  0  0  0
  143.9754  136.2490  153.7734 H   0  0  0  0  0  0  0  0  0  0  0  0
  143.0527  136.7866  152.3809 H   0  0  0  0  0  0  0  0  0  0  0  0
  145.4228  136.4271  151.1365 H   0  0  0  0  0  0  0  0  0  0  0  0
  143.4120  134.1960  151.7907 H   0  0  0  0  0  0  0  0  0  0  0  0
  143.3329  135.2965  150.4205 H   0  0  0  0  0  0  0  0  0  0  0  0
  143.4220  132.4156  150.0070 H   0  0  0  0  0  0  0  0  0  0  0  0
  143.9475  133.2461  148.5382 H   0  0  0  0  0  0  0  0  0  0  0  0
  145.0042  130.7944  149.6207 H   0  0  0  0  0  0  0  0  0  0  0  0
  145.7249  131.6998  148.2962 H   0  0  0  0  0  0  0  0  0  0  0  0
  146.9945  131.3777  150.7857 H   0  0  0  0  0  0  0  0  0  0  0  0
  147.3118  132.7098  149.6722 H   0  0  0  0  0  0  0  0  0  0  0  0
  145.3092  132.6466  151.9511 H   0  0  0  0  0  0  0  0  0  0  0  0
  147.4491  133.7776  152.5624 H   0  0  0  0  0  0  0  0  0  0  0  0
  147.3089  134.8455  151.1721 H   0  0  0  0  0  0  0  0  0  0  0  0
  145.4327  140.1848  153.0963 H   0  0  0  0  0  0  0  0  0  0  0  0
  148.6717  138.5214  153.6917 H   0  0  0  0  0  0  0  0  0  0  0  0
  150.6580  139.7208  154.5437 H   0  0  0  0  0  0  0  0  0  0  0  0
  150.3986  142.1680  155.2506 H   0  0  0  0  0  0  0  0  0  0  0  0
  146.8315  144.1493  153.5903 H   0  0  0  0  0  0  0  0  0  0  0  0
  145.8564  143.2267  152.4371 H   0  0  0  0  0  0  0  0  0  0  0  0
  144.7275  145.3208  153.7201 H   0  0  0  0  0  0  0  0  0  0  0  0
  143.8145  143.8165  153.5595 H   0  0  0  0  0  0  0  0  0  0  0  0
  145.4427  144.7327  155.9516 H   0  0  0  0  0  0  0  0  0  0  0  0
  143.7925  144.1100  155.9655 H   0  0  0  0  0  0  0  0  0  0  0  0
  144.5482  141.8752  155.7070 H   0  0  0  0  0  0  0  0  0  0  0  0
  146.0065  142.5160  156.4713 H   0  0  0  0  0  0  0  0  0  0  0  0
  145.4416  134.4700  149.6981 H   0  0  0  0  0  0  0  0  0  0  0  0
  148.3255  143.1558  155.0905 H   0  0  0  0  0  0  0  0  0  0  0  0
  1  2  2  0  0  0  0
  2  3  1  0  0  0  0
  2 14  1  0  0  0  0
  3  4  1  0  0  0  0
  3 26  1  0  0  0  0
  4  5  1  0  0  0  0
  4 27  1  0  0  0  0
  4 28  1  0  0  0  0
  5 13  1  0  0  0  0
  5  6  1  0  0  0  0
  5 29  1  0  0  0  0
  6  7  1  0  0  0  0
  6 30  1  0  0  0  0
  6 31  1  0  0  0  0
  7 11  1  0  0  0  0
  7  8  1  0  0  0  0
  7 53  1  0  0  0  0
  8  9  1  0  0  0  0
  8 32  1  0  0  0  0
  8 33  1  0  0  0  0
  9 10  1  0  0  0  0
  9 34  1  0  0  0  0
  9 35  1  0  0  0  0
 10 11  1  0  0  0  0
 10 36  1  0  0  0  0
 10 37  1  0  0  0  0
 11 12  1  0  0  0  0
 11 38  1  0  0  0  0
 12 13  1  0  0  0  0
 12 39  1  0  0  0  0
 12 40  1  0  0  0  0
 14 15  1  0  0  0  0
 14 41  1  0  0  0  0
 15 20  1  0  0  0  0
 15 16  2  0  0  0  0
 16 17  1  0  0  0  0
 16 42  1  0  0  0  0
 17 18  2  0  0  0  0
 17 43  1  0  0  0  0
 18 19  1  0  0  0  0
 18 44  1  0  0  0  0
 19 20  2  0  0  0  0
 19 54  1  0  0  0  0
 20 21  1  0  0  0  0
 21 25  1  0  0  0  0
 21 22  1  0  0  0  0
 22 23  1  0  0  0  0
 22 45  1  0  0  0  0
 22 46  1  0  0  0  0
 23 24  1  0  0  0  0
 23 47  1  0  0  0  0
 23 48  1  0  0  0  0
 24 25  1  0  0  0  0
 24 49  1  0  0  0  0
 24 50  1  0  0  0  0
 25 51  1  0  0  0  0
 25 52  1  0  0  0  0
M  CHG  1   7   1
M  CHG  1  19   1
M  END
> <s_m_source_file>
AV-unprocessed.smi

> <i_m_source_file_index>
1830

> <i_lp_mmshare_version>
43012

> <i_f3d_flags>
0

> <s_epik_input>
W0NIMl0xW0NIMl1bQ0gyXVtDQEhdKE4xMilbQ0gyXU9bQ0BASF0oW0NIMl0yKVtDSDJdW05IXUMoPU8pW05IXWMzW2NIXVtjSF1bY0hdbmMzTjRbQ0gyXVtDSDJdW0NIMl1bQ0gyXTQ=

> <s_epik_cmdline>
J2VwaWtfcHl0aG9uJywgJy1waCcsICc3LjAnLCAnLXRuJywgJzgnLCAnLW1hJywgJzIwMCcsICctbWV0YWxfYmluZGluZycsICctaW1hZScsICc8aW5maWxlLm1hZT4nLCAnLW9tYWUnLCAnPG91dGZpbGUubWFlPic=

> <r_lp_tautomer_probability>
0.999994

> <r_epik_Ionization_Penalty>
1.29113

> <r_epik_Ionization_Penalty_Charging>
1.29111

> <r_epik_Ionization_Penalty_Neutral>
1.88144e-05

> <r_epik_State_Penalty>
1.32676

> <r_epik_Charging_Adjusted_Penalty>
2.61787

> <i_epik_Tot_Q>
2

> <i_epik_Tot_abs_Q>
2

> <r_epik_Metal_State_Penalty>
1.40425

> <b_epik_Metal_Only>
0

> <s_lp_Force_Field>
OPLS_2005

> <r_lp_Energy>
74.3766

> <b_lp_Chiralities_Consistent>
1

> <s_lp_Variant>
AV-unprocessed.smi:1830-13

> <Gold.Version>
5.8.1

> <Gold.Id.Protein>
6NUR|6NUR_protein|mol2

> <Gold.PLP.Fitness>
56.2061

> <Gold.PLP.PLP>
-42.6223

> <Gold.PLP.part.hbond>
-4.8097

> <Gold.PLP.part.metal>
0.0000

> <Gold.PLP.part.buried>
-0.8745

> <Gold.PLP.part.nonpolar>
-38.3127

> <Gold.PLP.part.repulsive>
0.6438

> <Gold.PLP.ligand.clash>
0.0000

> <Gold.PLP.ligand.torsion>
0.8004

> <Gold.PLP.Chemscore.Hbond>
4.9280

> <Gold.PLP.Chemscore.CHOScore>
0.0000

> <Gold.PLP.Chemscore.Metal>
0.0000

> <Gold.Chemscore.Hbonds>
donor molecule, donor type, donor heavy atom, donor atom, acceptor molecule, acceptor atom, score
      L1  H     3    26       P1 10175  1.00
      L1  H     7    53       P1  7921  0.54
      L1  H    14    41       P1 10175  1.00
      L1  H    19    54       P1  8028  2.00

> <Gold.PLP.Chemscore.Internal.Correction>
0.4006

> <Gold.Rescore>
     Score         DG    S(hbond)    S(metal)    S(lipo)     H(rot)  DE(clash)    DE(int)     intcor
     23.00     -27.07       3.79        0.00     107.74       1.43       0.60       3.47       ----

> <Gold.Chemscore.Fitness>
23.0016

> <Gold.Chemscore.DG>
-27.0738

> <Gold.Chemscore.ZeroCoef>
-5.4800

> <Gold.Chemscore.Hbond>
3.7855

> <Gold.Chemscore.Metal>
0.0000

> <Gold.Chemscore.Lipo>
107.7376

> <Gold.Chemscore.Internal_Hbond>
0.0000

> <Gold.Chemscore.DEClash>
0.6033

> <Gold.Chemscore.DEInternal>
3.4690

> <Gold.Chemscore.Rot>
1.4278

> <Gold.Chemscore.Internal.Correction>
   9.000000E+99

> <Gold.Chemscore.Hbonds>
donor molecule, donor type, donor heavy atom, donor atom, acceptor molecule, acceptor atom, score
      L1  H     3    26       P1 10175  0.98
      L1  H     7    53       P1  7921  0.48
      L1  H    14    41       P1 10175  0.95
      L1  H    19    54       P1  8028  0.98

> <Gold.Chemscore.Hbond.Weighted>
-12.6436

> <Gold.Chemscore.Metal.Weighted>
-0.0000

> <Gold.Chemscore.Lipo.Weighted>
-12.6053

> <Gold.Chemscore.Internal_Hbond.Weighted>
0.0000

> <Gold.Chemscore.DEClash.Weighted>
0.6033

> <Gold.Chemscore.DEInternal.Weighted>
3.4690

> <Gold.Chemscore.Rot.Weighted>
3.6551

> <Gold.Chemscore.Internal.Correction.Weighted>
   9.000000E+99

> <Gold.Protein.RotatedTorsions>
[ 6907 6896 6895 6894 ] final    6.81 input  -60.11 | X-H torsion
[ 7974 7965 7964 7962 ] final  131.12 input  175.53 | X-H torsion
[ 8008 7997 7996 7995 ] final  -35.59 input   59.86 | X-H torsion
[ 10167 10162 10161 10158 ] final   84.96 input  -65.29 | X-H torsion
[ 10718 10713 10712 10709 ] final -141.70 input   66.30 | X-H torsion
[ 10763 10752 10751 10750 ] final -173.40 input  -60.55 | X-H torsion
[ 11005 11000 10999 10996 ] final -104.90 input  -57.11 | X-H torsion

> <Gold.Protein.ActiveResidues>
 VAL166  LYS551  ARG553  GLY616  TRP617  ASP618  TYR619  PRO620  LYS621  CYS622 
 ASP623  PHE694  ASN695  SER759  ASP760  ASP761  ALA762  ILE779  LEU786  VAL792 
 PHE793  MET794  SER795  GLU796  ALA797  LYS798  CYS799  TRP800  GLU811  SER814 

> <Gold.Protein.RotatedAtoms>
  151.6797  135.0963  160.0213 H   0  0  0  0  0  0  0  0  0  0  0  0  # atno 6907 bound_to 6896
  152.3842  133.6584  159.6194 H   0  0  0  0  0  0  0  0  0  0  0  0  # atno 6908 bound_to 6896
  150.7772  133.8979  159.3374 H   0  0  0  0  0  0  0  0  0  0  0  0  # atno 6909 bound_to 6896
  145.0106  139.4224  143.5246 H   0  0  0  0  0  0  0  0  0  0  0  0  # atno 7974 bound_to 7965
  154.4092  140.1653  156.2236 H   0  0  0  0  0  0  0  0  0  0  0  0  # atno 8008 bound_to 7997
  155.9342  140.3412  155.6251 H   0  0  0  0  0  0  0  0  0  0  0  0  # atno 8009 bound_to 7997
  155.7068  140.0752  157.2378 H   0  0  0  0  0  0  0  0  0  0  0  0  # atno 8010 bound_to 7997
  139.9026  144.6320  150.8620 H   0  0  0  0  0  0  0  0  0  0  0  0  # atno 10167 bound_to 10162
  156.3372  130.7618  151.1747 H   0  0  0  0  0  0  0  0  0  0  0  0  # atno 10718 bound_to 10713
  154.6083  135.2862  155.0461 H   0  0  0  0  0  0  0  0  0  0  0  0  # atno 10763 bound_to 10752
  154.1700  135.6474  153.5011 H   0  0  0  0  0  0  0  0  0  0  0  0  # atno 10764 bound_to 10752
  153.0184  135.5398  154.6826 H   0  0  0  0  0  0  0  0  0  0  0  0  # atno 10765 bound_to 10752
  141.1079  133.8763  157.1669 H   0  0  0  0  0  0  0  0  0  0  0  0  # atno 11005 bound_to 11000
  146.3469  139.9548  142.8724 LP  0  0  0  0  0  0  0  0  0  0  0  0  # atno 17320 bound_to 7965
  145.2028  140.9862  143.4146 LP  0  0  0  0  0  0  0  0  0  0  0  0  # atno 17321 bound_to 7965
  140.7703  143.3425  151.2179 LP  0  0  0  0  0  0  0  0  0  0  0  0  # atno 17342 bound_to 10162
  139.7012  143.9530  152.2906 LP  0  0  0  0  0  0  0  0  0  0  0  0  # atno 17343 bound_to 10162
  157.7440  131.0465  150.4895 LP  0  0  0  0  0  0  0  0  0  0  0  0  # atno 17370 bound_to 10713
  156.5070  130.4130  149.6322 LP  0  0  0  0  0  0  0  0  0  0  0  0  # atno 17371 bound_to 10713
  139.9957  135.0047  157.0077 LP  0  0  0  0  0  0  0  0  0  0  0  0  # atno 17394 bound_to 11000
  140.4855  134.1246  155.7224 LP  0  0  0  0  0  0  0  0  0  0  0  0  # atno 17395 bound_to 11000

$$$$
