AV-unprocessed.smi:644|AV-procd|sdf|3156|dock10
  -GOLD-   22720 0 83D 1   1.00000     0.00000
 Structure written by MMmdl.
 37 39  0  0  0  0  0  0  0  0  1 V2000
  153.4158  143.2524  163.3496 C   0  0  0  0  0  0  0  0  0  0  0  0
  152.9978  142.8771  161.9388 C   0  0  0  0  0  0  0  0  0  0  0  0
  152.1579  143.7534  161.2147 C   0  0  0  0  0  0  0  0  0  0  0  0
  151.7480  143.4421  159.8998 C   0  0  0  0  0  0  0  0  0  0  0  0
  150.9406  144.1423  159.0197 N   0  0  0  0  0  0  0  0  0  0  0  0
  150.9384  143.3385  157.9601 C   0  0  0  0  0  0  0  0  0  0  0  0
  151.6468  142.1965  158.0518 N   0  0  0  0  0  0  0  0  0  0  0  0
  151.7980  141.1726  157.0337 C   0  0  0  0  0  0  0  0  0  0  0  0
  150.7101  141.2554  155.9464 C   0  0  1  0  0  0  0  0  0  0  0  0
  150.9236  140.2381  154.9862 O   0  0  0  0  0  0  0  0  0  0  0  0
  149.2987  141.1106  156.5377 C   0  0  0  0  0  0  0  0  0  0  0  0
  148.1103  140.4586  155.3236 S   0  0  0  0  0  0  0  0  0  0  0  0
  146.9096  141.7512  155.3388 C   0  0  0  0  0  0  0  0  0  0  0  0
  146.2771  142.2074  156.4298 N   0  0  0  0  0  0  0  0  0  0  0  0
  145.3875  143.2319  156.1356 N   0  0  0  0  0  0  0  0  0  0  0  0
  145.3805  143.5127  154.8305 C   0  0  0  0  0  0  0  0  0  0  0  0
  146.4607  142.5521  153.8374 S   0  0  0  0  0  0  0  0  0  0  0  0
  152.2058  142.2209  159.3245 C   0  0  0  0  0  0  0  0  0  0  0  0
  153.0413  141.3408  160.0344 C   0  0  0  0  0  0  0  0  0  0  0  0
  153.4402  141.6664  161.3476 C   0  0  0  0  0  0  0  0  0  0  0  0
  154.3410  140.7084  162.1069 C   0  0  0  0  0  0  0  0  0  0  0  0
  152.9869  144.2084  163.6512 H   0  0  0  0  0  0  0  0  0  0  0  0
  154.5006  143.3367  163.4159 H   0  0  0  0  0  0  0  0  0  0  0  0
  153.0826  142.4974  164.0618 H   0  0  0  0  0  0  0  0  0  0  0  0
  151.8209  144.6756  161.6645 H   0  0  0  0  0  0  0  0  0  0  0  0
  150.3879  143.5928  157.0659 H   0  0  0  0  0  0  0  0  0  0  0  0
  152.7902  141.2635  156.5893 H   0  0  0  0  0  0  0  0  0  0  0  0
  151.7655  140.1999  157.5263 H   0  0  0  0  0  0  0  0  0  0  0  0
  150.7838  142.2184  155.4395 H   0  0  0  0  0  0  0  0  0  0  0  0
  150.2101  139.6206  155.0403 H   0  0  0  0  0  0  0  0  0  0  0  0
  149.3205  140.4589  157.4122 H   0  0  0  0  0  0  0  0  0  0  0  0
  148.9429  142.0863  156.8709 H   0  0  0  0  0  0  0  0  0  0  0  0
  144.7362  144.2917  154.4503 H   0  0  0  0  0  0  0  0  0  0  0  0
  153.3711  140.4223  159.5720 H   0  0  0  0  0  0  0  0  0  0  0  0
  154.5708  139.8228  161.5135 H   0  0  0  0  0  0  0  0  0  0  0  0
  153.8576  140.3774  163.0262 H   0  0  0  0  0  0  0  0  0  0  0  0
  155.2830  141.1927  162.3646 H   0  0  0  0  0  0  0  0  0  0  0  0
  1  2  1  0  0  0  0
  1 22  1  0  0  0  0
  1 23  1  0  0  0  0
  1 24  1  0  0  0  0
  2 20  1  0  0  0  0
  2  3  2  0  0  0  0
  3  4  1  0  0  0  0
  3 25  1  0  0  0  0
  4 18  2  0  0  0  0
  4  5  1  0  0  0  0
  5  6  2  0  0  0  0
  6  7  1  0  0  0  0
  6 26  1  0  0  0  0
  7  8  1  0  0  0  0
  7 18  1  0  0  0  0
  8  9  1  0  0  0  0
  8 27  1  0  0  0  0
  8 28  1  0  0  0  0
  9 10  1  0  0  0  0
  9 11  1  0  0  0  0
  9 29  1  0  0  0  0
 10 30  1  0  0  0  0
 11 12  1  0  0  0  0
 11 31  1  0  0  0  0
 11 32  1  0  0  0  0
 12 13  1  0  0  0  0
 13 17  1  0  0  0  0
 13 14  2  0  0  0  0
 14 15  1  0  0  0  0
 15 16  2  0  0  0  0
 16 17  1  0  0  0  0
 16 33  1  0  0  0  0
 18 19  1  0  0  0  0
 19 20  2  0  0  0  0
 19 34  1  0  0  0  0
 20 21  1  0  0  0  0
 21 35  1  0  0  0  0
 21 36  1  0  0  0  0
 21 37  1  0  0  0  0
M  END
> <s_m_source_file>
AV-unprocessed.smi

> <i_m_source_file_index>
644

> <i_lp_mmshare_version>
43012

> <i_f3d_flags>
0

> <s_epik_input>
W0NIM11jKFtjSF0xKWMoW0NIM10pW2NIXWMoYzEyKW4oW2NIXW4yKVtDSDJdW0NASF0oW09IXSlbQ0gyXVNjM25uW2NIXXMz

> <s_epik_cmdline>
J2VwaWtfcHl0aG9uJywgJy1waCcsICc3LjAnLCAnLXRuJywgJzgnLCAnLW1hJywgJzIwMCcsICctbWV0YWxfYmluZGluZycsICctaW1hZScsICc8aW5maWxlLm1hZT4nLCAnLW9tYWUnLCAnPG91dGZpbGUubWFlPic=

> <r_lp_tautomer_probability>
1

> <r_epik_Ionization_Penalty>
0.105397

> <r_epik_Ionization_Penalty_Charging>
0

> <r_epik_Ionization_Penalty_Neutral>
0.105397

> <r_epik_State_Penalty>
0.0952713

> <r_epik_Charging_Adjusted_Penalty>
0.0952713

> <i_epik_Tot_Q>
0

> <i_epik_Tot_abs_Q>
0

> <r_epik_Metal_State_Penalty>
0.0807681

> <b_epik_Metal_Only>
0

> <s_lp_Force_Field>
OPLS_2005

> <r_lp_Energy>
7.47595

> <b_lp_Chiralities_Consistent>
1

> <s_lp_Variant>
AV-unprocessed.smi:644-2

> <Gold.Version>
5.8.1

> <Gold.Id.Protein>
6NUR|6NUR_protein|mol2

> <Gold.PLP.Fitness>
51.1761

> <Gold.PLP.PLP>
-47.0636

> <Gold.PLP.part.hbond>
-1.0000

> <Gold.PLP.part.metal>
0.0000

> <Gold.PLP.part.buried>
-8.0421

> <Gold.PLP.part.nonpolar>
-37.6145

> <Gold.PLP.part.repulsive>
0.3628

> <Gold.PLP.ligand.clash>
0.0000

> <Gold.PLP.ligand.torsion>
0.9563

> <Gold.PLP.Chemscore.Hbond>
1.0000

> <Gold.PLP.Chemscore.CHOScore>
1.0000

> <Gold.PLP.Chemscore.Metal>
0.0000

> <Gold.Chemscore.Hbonds>
donor molecule, donor type, donor heavy atom, donor atom, acceptor molecule, acceptor atom, score
      P1  H  7989  7998       L1    10  1.00
      L1  C     6    26       P1  8028  1.00

> <Gold.PLP.Chemscore.Internal.Correction>
0.0251

> <Gold.Rescore>
     Score         DG    S(hbond)    S(metal)    S(lipo)     H(rot)  DE(clash)    DE(int)     intcor
     15.68     -16.91       0.92        0.00     125.28       2.46       0.25       0.98       ----

> <Gold.Chemscore.Fitness>
15.6811

> <Gold.Chemscore.DG>
-16.9085

> <Gold.Chemscore.ZeroCoef>
-5.4800

> <Gold.Chemscore.Hbond>
0.9177

> <Gold.Chemscore.Metal>
0.0000

> <Gold.Chemscore.Lipo>
125.2822

> <Gold.Chemscore.Internal_Hbond>
0.0000

> <Gold.Chemscore.DEClash>
0.2495

> <Gold.Chemscore.DEInternal>
0.9779

> <Gold.Chemscore.Rot>
2.4588

> <Gold.Chemscore.Internal.Correction>
   9.000000E+99

> <Gold.Chemscore.Hbonds>
donor molecule, donor type, donor heavy atom, donor atom, acceptor molecule, acceptor atom, score
      P1  H  7989  7998       L1    10  0.81

> <Gold.Chemscore.Hbond.Weighted>
-3.0651

> <Gold.Chemscore.Metal.Weighted>
-0.0000

> <Gold.Chemscore.Lipo.Weighted>
-14.6580

> <Gold.Chemscore.Internal_Hbond.Weighted>
0.0000

> <Gold.Chemscore.DEClash.Weighted>
0.2495

> <Gold.Chemscore.DEInternal.Weighted>
0.9779

> <Gold.Chemscore.Rot.Weighted>
6.2946

> <Gold.Chemscore.Internal.Correction.Weighted>
   9.000000E+99

> <Gold.Protein.RotatedTorsions>
[ 6907 6896 6895 6894 ] final  171.54 input  -60.11 | X-H torsion
[ 7974 7965 7964 7962 ] final -103.91 input  175.53 | X-H torsion
[ 8008 7997 7996 7995 ] final  138.34 input   59.86 | X-H torsion
[ 10167 10162 10161 10158 ] final  127.26 input  -65.29 | X-H torsion
[ 10718 10713 10712 10709 ] final -168.27 input   66.30 | X-H torsion
[ 10763 10752 10751 10750 ] final  -40.26 input  -60.55 | X-H torsion
[ 11005 11000 10999 10996 ] final  171.35 input  -57.11 | X-H torsion

> <Gold.Protein.ActiveResidues>
 VAL166  LYS551  ARG553  GLY616  TRP617  ASP618  TYR619  PRO620  LYS621  CYS622 
 ASP623  PHE694  ASN695  SER759  ASP760  ASP761  ALA762  ILE779  LEU786  VAL792 
 PHE793  MET794  SER795  GLU796  ALA797  LYS798  CYS799  TRP800  GLU811  SER814 

> <Gold.Protein.RotatedAtoms>
  151.7985  133.3367  159.3519 H   0  0  0  0  0  0  0  0  0  0  0  0  # atno 6907 bound_to 6896
  150.7366  134.5775  159.5931 H   0  0  0  0  0  0  0  0  0  0  0  0  # atno 6908 bound_to 6896
  152.3159  134.7441  160.0376 H   0  0  0  0  0  0  0  0  0  0  0  0  # atno 6909 bound_to 6896
  145.2498  140.9234  143.3101 H   0  0  0  0  0  0  0  0  0  0  0  0  # atno 7974 bound_to 7965
  156.2998  140.2396  156.4058 H   0  0  0  0  0  0  0  0  0  0  0  0  # atno 8008 bound_to 7997
  154.8486  140.0425  157.1609 H   0  0  0  0  0  0  0  0  0  0  0  0  # atno 8009 bound_to 7997
  154.9024  140.2979  155.5314 H   0  0  0  0  0  0  0  0  0  0  0  0  # atno 8010 bound_to 7997
  139.5588  144.6867  151.4104 H   0  0  0  0  0  0  0  0  0  0  0  0  # atno 10167 bound_to 10162
  156.6945  130.9172  151.3073 H   0  0  0  0  0  0  0  0  0  0  0  0  # atno 10718 bound_to 10713
  153.9431  135.6759  153.4744 H   0  0  0  0  0  0  0  0  0  0  0  0  # atno 10763 bound_to 10752
  153.0922  135.4869  154.8707 H   0  0  0  0  0  0  0  0  0  0  0  0  # atno 10764 bound_to 10752
  154.7366  135.3150  154.8759 H   0  0  0  0  0  0  0  0  0  0  0  0  # atno 10765 bound_to 10752
  140.3181  134.7461  157.4043 H   0  0  0  0  0  0  0  0  0  0  0  0  # atno 11005 bound_to 11000
  144.9513  139.4080  143.6401 LP  0  0  0  0  0  0  0  0  0  0  0  0  # atno 17320 bound_to 7965
  146.3305  139.8521  142.8871 LP  0  0  0  0  0  0  0  0  0  0  0  0  # atno 17321 bound_to 7965
  140.6865  143.7962  150.7193 LP  0  0  0  0  0  0  0  0  0  0  0  0  # atno 17342 bound_to 10162
  140.1432  143.4423  152.2180 LP  0  0  0  0  0  0  0  0  0  0  0  0  # atno 17343 bound_to 10162
  157.6996  130.9319  150.0746 LP  0  0  0  0  0  0  0  0  0  0  0  0  # atno 17370 bound_to 10713
  156.1773  130.3648  149.9083 LP  0  0  0  0  0  0  0  0  0  0  0  0  # atno 17371 bound_to 10713
  140.0966  134.5529  155.8393 LP  0  0  0  0  0  0  0  0  0  0  0  0  # atno 17394 bound_to 11000
  141.2093  133.6682  156.6429 LP  0  0  0  0  0  0  0  0  0  0  0  0  # atno 17395 bound_to 11000

$$$$
