AV-unprocessed.smi:35|AV-procd|sdf|248|dock8
  -GOLD-   2262016 13D 1   1.00000     0.00000
 Structure written by MMmdl.
 29 30  0  0  0  0  0  0  0  0  1 V2000
  152.8728  141.4460  159.1232 O   0  0  0  0  0  0  0  0  0  0  0  0
  151.8945  141.2380  158.4089 C   0  0  0  0  0  0  0  0  0  0  0  0
  151.3769  139.9457  158.2790 N   0  0  0  0  0  0  0  0  0  0  0  0
  150.2748  139.5876  157.4994 C   0  0  0  0  0  0  0  0  0  0  0  0
  149.9190  138.4113  157.4428 O   0  0  0  0  0  0  0  0  0  0  0  0
  149.6221  140.6222  156.7917 N   0  0  0  0  0  0  0  0  0  0  0  0
  148.4220  140.2984  155.9277 C   0  0  1  0  0  0  0  0  0  0  0  0
  147.3815  141.1611  156.2761 O   0  0  0  0  0  0  0  0  0  0  0  0
  146.7038  141.5780  155.0978 C   0  0  1  0  0  0  0  0  0  0  0  0
  145.8781  142.8515  155.3530 C   0  0  0  0  0  0  0  0  0  0  0  0
  145.1005  143.1659  154.2176 O   0  0  0  0  0  0  0  0  0  0  0  0
  147.8167  141.6627  154.0430 C   0  0  1  0  0  0  0  0  0  0  0  0
  148.5051  142.8998  154.1217 O   0  0  0  0  0  0  0  0  0  0  0  0
  148.6996  140.4743  154.4174 C   0  0  1  0  0  0  0  0  0  0  0  0
  150.0602  140.6457  154.0555 O   0  0  0  0  0  0  0  0  0  0  0  0
  150.1067  141.9201  156.8830 C   0  0  0  0  0  0  0  0  0  0  0  0
  151.1798  142.2499  157.6386 C   0  0  0  0  0  0  0  0  0  0  0  0
  151.7154  144.1570  157.6301 Br  0  0  0  0  0  0  0  0  0  0  0  0
  151.8428  139.2088  158.7884 H   0  0  0  0  0  0  0  0  0  0  0  0
  148.1088  139.2842  156.1808 H   0  0  0  0  0  0  0  0  0  0  0  0
  146.0267  140.7660  154.8246 H   0  0  0  0  0  0  0  0  0  0  0  0
  145.2023  142.6914  156.1934 H   0  0  0  0  0  0  0  0  0  0  0  0
  146.5111  143.6992  155.6155 H   0  0  0  0  0  0  0  0  0  0  0  0
  144.8362  142.3593  153.8019 H   0  0  0  0  0  0  0  0  0  0  0  0
  147.4182  141.5649  153.0326 H   0  0  0  0  0  0  0  0  0  0  0  0
  148.9177  142.9586  154.9695 H   0  0  0  0  0  0  0  0  0  0  0  0
  148.3223  139.5811  153.9175 H   0  0  0  0  0  0  0  0  0  0  0  0
  150.1354  140.5461  153.1187 H   0  0  0  0  0  0  0  0  0  0  0  0
  149.6165  142.7073  156.3299 H   0  0  0  0  0  0  0  0  0  0  0  0
  1  2  2  0  0  0  0
  2 17  1  0  0  0  0
  2  3  1  0  0  0  0
  3 19  1  0  0  0  0
  3  4  1  0  0  0  0
  4  5  2  0  0  0  0
  4  6  1  0  0  0  0
  6  7  1  0  0  0  0
  6 16  1  0  0  0  0
  7 14  1  0  0  0  0
  7  8  1  0  0  0  0
  7 20  1  0  0  0  0
  8  9  1  0  0  0  0
  9 10  1  0  0  0  0
  9 12  1  0  0  0  0
  9 21  1  0  0  0  0
 10 11  1  0  0  0  0
 10 22  1  0  0  0  0
 10 23  1  0  0  0  0
 11 24  1  0  0  0  0
 12 13  1  0  0  0  0
 12 14  1  0  0  0  0
 12 25  1  0  0  0  0
 13 26  1  0  0  0  0
 14 15  1  0  0  0  0
 14 27  1  0  0  0  0
 15 28  1  0  0  0  0
 16 17  2  0  0  0  0
 16 29  1  0  0  0  0
 17 18  1  0  0  0  0
M  END
> <s_m_source_file>
AV-unprocessed.smi

> <i_m_source_file_index>
35

> <i_lp_mmshare_version>
43012

> <i_f3d_flags>
0

> <s_epik_input>
Tz1jMVtuSF1jKD1PKW4oW2NIXWMxQnIpW0NAQEhdMk9bQ0BASF0oW0NIMl1bT0hdKVtDQEBIXShbT0hdKVtDQEhdMltPSF0=

> <s_epik_cmdline>
J2VwaWtfcHl0aG9uJywgJy1waCcsICc3LjAnLCAnLXRuJywgJzgnLCAnLW1hJywgJzIwMCcsICctbWV0YWxfYmluZGluZycsICctaW1hZScsICc8aW5maWxlLm1hZT4nLCAnLW9tYWUnLCAnPG91dGZpbGUubWFlPic=

> <r_lp_tautomer_probability>
0.999537

> <r_epik_Ionization_Penalty>
0.10812

> <r_epik_Ionization_Penalty_Charging>
0.108119

> <r_epik_Ionization_Penalty_Neutral>
4.93006e-07

> <r_epik_State_Penalty>
0.0979238

> <r_epik_Charging_Adjusted_Penalty>
0.206043

> <i_epik_Tot_Q>
0

> <i_epik_Tot_abs_Q>
0

> <r_epik_Metal_State_Penalty>
3.07911

> <b_epik_Metal_Only>
0

> <s_epik_Chemistry_Notes>
This compound contains an acetal/aminal-like group ( X-CH(R)-Y where X, Y are N, S, or O) that may be acid/base labile, releasing an aldehyde.

> <s_lp_Force_Field>
OPLS_2005

> <r_lp_Energy>
38.9756

> <b_lp_Chiralities_Consistent>
1

> <s_lp_Variant>
AV-unprocessed.smi:35-2

> <Gold.Version>
5.8.1

> <Gold.Id.Protein>
6NUR|6NUR_protein|mol2

> <Gold.PLP.Fitness>
38.0185

> <Gold.PLP.PLP>
-28.7035

> <Gold.PLP.part.hbond>
-4.4561

> <Gold.PLP.part.metal>
0.0000

> <Gold.PLP.part.buried>
-3.5409

> <Gold.PLP.part.nonpolar>
-19.8809

> <Gold.PLP.part.repulsive>
0.1715

> <Gold.PLP.ligand.clash>
0.0000

> <Gold.PLP.ligand.torsion>
0.1483

> <Gold.PLP.Chemscore.Hbond>
2.1993

> <Gold.PLP.Chemscore.CHOScore>
1.0000

> <Gold.PLP.Chemscore.Metal>
0.0000

> <Gold.Chemscore.Hbonds>
donor molecule, donor type, donor heavy atom, donor atom, acceptor molecule, acceptor atom, score
      L1  H    13    26       P1  8028  0.22
      L1  H    15    28       P1  7957  0.88
      P1  H  8022  8030       L1    13  0.95
      L1  C    16    29       P1  8028  1.00

> <Gold.PLP.Chemscore.Internal.Correction>
0.0139

> <Gold.Rescore>
     Score         DG    S(hbond)    S(metal)    S(lipo)     H(rot)  DE(clash)    DE(int)     intcor
      8.00      -8.27       1.89        0.00      50.18       3.67       0.08       0.20       ----

> <Gold.Chemscore.Fitness>
7.9982

> <Gold.Chemscore.DG>
-8.2706

> <Gold.Chemscore.ZeroCoef>
-5.4800

> <Gold.Chemscore.Hbond>
1.8908

> <Gold.Chemscore.Metal>
0.0000

> <Gold.Chemscore.Lipo>
50.1778

> <Gold.Chemscore.Internal_Hbond>
0.0000

> <Gold.Chemscore.DEClash>
0.0750

> <Gold.Chemscore.DEInternal>
0.1973

> <Gold.Chemscore.Rot>
3.6701

> <Gold.Chemscore.Internal.Correction>
   9.000000E+99

> <Gold.Chemscore.Hbonds>
donor molecule, donor type, donor heavy atom, donor atom, acceptor molecule, acceptor atom, score
      L1  H    13    26       P1  8028  0.22
      L1  H    15    28       P1  7957  0.85
      P1  H  8022  8030       L1    13  0.21

> <Gold.Chemscore.Hbond.Weighted>
-6.3152

> <Gold.Chemscore.Metal.Weighted>
-0.0000

> <Gold.Chemscore.Lipo.Weighted>
-5.8708

> <Gold.Chemscore.Internal_Hbond.Weighted>
0.0000

> <Gold.Chemscore.DEClash.Weighted>
0.0750

> <Gold.Chemscore.DEInternal.Weighted>
0.1973

> <Gold.Chemscore.Rot.Weighted>
9.3955

> <Gold.Chemscore.Internal.Correction.Weighted>
   9.000000E+99

> <Gold.Protein.RotatedTorsions>
[ 6907 6896 6895 6894 ] final   35.34 input  -60.11 | X-H torsion
[ 7974 7965 7964 7962 ] final  -68.27 input  175.53 | X-H torsion
[ 8008 7997 7996 7995 ] final   67.41 input   59.86 | X-H torsion
[ 10167 10162 10161 10158 ] final  -18.04 input  -65.29 | X-H torsion
[ 10718 10713 10712 10709 ] final   -0.17 input   66.30 | X-H torsion
[ 10763 10752 10751 10750 ] final   71.06 input  -60.55 | X-H torsion
[ 11005 11000 10999 10996 ] final   18.73 input  -57.11 | X-H torsion

> <Gold.Protein.ActiveResidues>
 VAL166  LYS551  ARG553  GLY616  TRP617  ASP618  TYR619  PRO620  LYS621  CYS622 
 ASP623  PHE694  ASN695  SER759  ASP760  ASP761  ALA762  ILE779  LEU786  VAL792 
 PHE793  MET794  SER795  GLU796  ALA797  LYS798  CYS799  TRP800  GLU811  SER814 

> <Gold.Protein.RotatedAtoms>
  152.1149  134.9248  160.0565 H   0  0  0  0  0  0  0  0  0  0  0  0  # atno 6907 bound_to 6896
  152.0411  133.3973  159.4345 H   0  0  0  0  0  0  0  0  0  0  0  0  # atno 6908 bound_to 6896
  150.6845  134.3334  159.4880 H   0  0  0  0  0  0  0  0  0  0  0  0  # atno 6909 bound_to 6896
  145.7186  140.9048  143.0642 H   0  0  0  0  0  0  0  0  0  0  0  0  # atno 7974 bound_to 7965
  155.6924  140.3496  155.4899 H   0  0  0  0  0  0  0  0  0  0  0  0  # atno 8008 bound_to 7997
  155.9512  140.1119  157.0997 H   0  0  0  0  0  0  0  0  0  0  0  0  # atno 8009 bound_to 7997
  154.4122  140.1194  156.5041 H   0  0  0  0  0  0  0  0  0  0  0  0  # atno 8010 bound_to 7997
  140.7254  143.4955  150.9936 H   0  0  0  0  0  0  0  0  0  0  0  0  # atno 10167 bound_to 10162
  156.8244  130.5467  149.5693 H   0  0  0  0  0  0  0  0  0  0  0  0  # atno 10718 bound_to 10713
  153.0377  135.5151  154.7535 H   0  0  0  0  0  0  0  0  0  0  0  0  # atno 10763 bound_to 10752
  154.6498  135.2923  155.0003 H   0  0  0  0  0  0  0  0  0  0  0  0  # atno 10764 bound_to 10752
  154.0891  135.6653  153.4902 H   0  0  0  0  0  0  0  0  0  0  0  0  # atno 10765 bound_to 10752
  140.4215  134.1513  155.7673 H   0  0  0  0  0  0  0  0  0  0  0  0  # atno 11005 bound_to 11000
  144.6922  139.9172  143.7466 LP  0  0  0  0  0  0  0  0  0  0  0  0  # atno 17320 bound_to 7965
  146.0646  139.3638  143.0560 LP  0  0  0  0  0  0  0  0  0  0  0  0  # atno 17321 bound_to 7965
  139.8662  143.7251  152.3170 LP  0  0  0  0  0  0  0  0  0  0  0  0  # atno 17342 bound_to 10162
  139.7484  144.7541  151.0545 LP  0  0  0  0  0  0  0  0  0  0  0  0  # atno 17343 bound_to 10162
  156.0970  130.5940  150.9830 LP  0  0  0  0  0  0  0  0  0  0  0  0  # atno 17370 bound_to 10713
  157.6440  131.0906  150.8193 LP  0  0  0  0  0  0  0  0  0  0  0  0  # atno 17371 bound_to 10713
  141.1782  133.8470  157.1350 LP  0  0  0  0  0  0  0  0  0  0  0  0  # atno 17394 bound_to 11000
  140.0197  134.9951  157.0565 LP  0  0  0  0  0  0  0  0  0  0  0  0  # atno 17395 bound_to 11000

$$$$
