AV-unprocessed.smi:283|AV-procd|sdf|2133|dock2
  -GOLD-   2262021453D 1   1.00000     0.00000
 Structure written by MMmdl.
 48 51  0  0  0  0  0  0  0  0  1 V2000
  151.1323  140.2198  155.9994 C   0  0  0  0  0  0  0  0  0  0  0  0
  150.2032  141.0886  156.8580 C   0  0  2  0  0  0  0  0  0  0  0  0
  149.2305  141.7695  156.0049 N   0  0  0  0  0  0  0  0  0  0  0  0
  148.0339  141.2060  155.7240 C   0  0  0  0  0  0  0  0  0  0  0  0
  146.8786  141.9110  155.8430 N   0  0  0  0  0  0  0  0  0  0  0  0
  145.7095  141.3280  155.5632 C   0  0  0  0  0  0  0  0  0  0  0  0
  145.4774  140.0771  155.1614 N   0  0  0  0  0  0  0  0  0  0  0  0
  146.6331  139.3614  155.0441 C   0  0  0  0  0  0  0  0  0  0  0  0
  147.9427  139.8536  155.3049 C   0  0  0  0  0  0  0  0  0  0  0  0
  148.8771  138.8519  155.0782 N   0  0  0  0  0  0  0  0  0  0  0  0
  148.1569  137.8278  154.7069 C   0  0  0  0  0  0  0  0  0  0  0  0
  146.7974  138.0440  154.6617 N   0  0  0  0  0  0  0  0  0  0  0  0
  145.7370  137.0564  154.2918 C   0  0  2  0  0  0  0  0  0  0  0  0
  146.3479  135.8434  153.9720 O   0  0  0  0  0  0  0  0  0  0  0  0
  145.7069  135.3008  152.8290 C   0  0  2  0  0  0  0  0  0  0  0  0
  146.4959  134.1463  152.1751 C   0  0  0  0  0  0  0  0  0  0  0  0
  147.6962  133.8260  152.8465 O   0  0  0  0  0  0  0  0  0  0  0  0
  145.2571  136.5072  151.9906 C   0  0  2  0  0  0  0  0  0  0  0  0
  146.2652  136.9998  151.1307 O   0  0  0  0  0  0  0  0  0  0  0  0
  144.9420  137.5472  153.0626 C   0  0  1  0  0  0  0  0  0  0  0  0
  143.5528  137.5525  153.3273 O   0  0  0  0  0  0  0  0  0  0  0  0
  151.0209  142.0215  157.7545 C   0  0  0  0  0  0  0  0  0  0  0  0
  150.9612  143.4205  157.5548 C   0  0  0  0  0  0  0  0  0  0  0  0
  151.7099  144.2942  158.3654 C   0  0  0  0  0  0  0  0  0  0  0  0
  152.5337  143.7776  159.3813 C   0  0  0  0  0  0  0  0  0  0  0  0
  152.6093  142.3871  159.5822 C   0  0  0  0  0  0  0  0  0  0  0  0
  151.8607  141.5076  158.7746 C   0  0  0  0  0  0  0  0  0  0  0  0
  152.0028  139.8080  159.0588 Cl  0  0  0  0  0  0  0  0  0  0  0  0
  145.1312  136.9530  155.1933 H   0  0  0  0  0  0  0  0  0  0  0  0
  144.7941  134.8479  153.2212 H   0  0  0  0  0  0  0  0  0  0  0  0
  144.3919  136.2602  151.3737 H   0  0  0  0  0  0  0  0  0  0  0  0
  145.2439  138.5553  152.7720 H   0  0  0  0  0  0  0  0  0  0  0  0
  151.8119  139.6383  156.6231 H   0  0  0  0  0  0  0  0  0  0  0  0
  151.7371  140.8290  155.3268 H   0  0  0  0  0  0  0  0  0  0  0  0
  150.5628  139.5162  155.3914 H   0  0  0  0  0  0  0  0  0  0  0  0
  149.6263  140.4136  157.4894 H   0  0  0  0  0  0  0  0  0  0  0  0
  149.4510  142.7259  155.7676 H   0  0  0  0  0  0  0  0  0  0  0  0
  144.8353  141.9514  155.6782 H   0  0  0  0  0  0  0  0  0  0  0  0
  148.6016  136.8750  154.4593 H   0  0  0  0  0  0  0  0  0  0  0  0
  145.8735  133.2526  152.1226 H   0  0  0  0  0  0  0  0  0  0  0  0
  146.7498  134.4139  151.1492 H   0  0  0  0  0  0  0  0  0  0  0  0
  148.2555  134.5878  152.8429 H   0  0  0  0  0  0  0  0  0  0  0  0
  147.1026  136.8821  151.5530 H   0  0  0  0  0  0  0  0  0  0  0  0
  143.2193  138.4204  153.1586 H   0  0  0  0  0  0  0  0  0  0  0  0
  150.3382  143.8341  156.7757 H   0  0  0  0  0  0  0  0  0  0  0  0
  151.6527  145.3608  158.2061 H   0  0  0  0  0  0  0  0  0  0  0  0
  153.1097  144.4466  160.0036 H   0  0  0  0  0  0  0  0  0  0  0  0
  153.2471  141.9934  160.3600 H   0  0  0  0  0  0  0  0  0  0  0  0
  1  2  1  0  0  0  0
  1 33  1  0  0  0  0
  1 34  1  0  0  0  0
  1 35  1  0  0  0  0
  2  3  1  0  0  0  0
  2 22  1  0  0  0  0
  2 36  1  0  0  0  0
  3  4  1  0  0  0  0
  3 37  1  0  0  0  0
  4  9  1  0  0  0  0
  4  5  2  0  0  0  0
  5  6  1  0  0  0  0
  6  7  2  0  0  0  0
  6 38  1  0  0  0  0
  7  8  1  0  0  0  0
  8 12  1  0  0  0  0
  8  9  2  0  0  0  0
  9 10  1  0  0  0  0
 10 11  2  0  0  0  0
 11 12  1  0  0  0  0
 11 39  1  0  0  0  0
 12 13  1  0  0  0  0
 13 29  1  0  0  0  0
 13 20  1  0  0  0  0
 13 14  1  0  0  0  0
 14 15  1  0  0  0  0
 15 30  1  0  0  0  0
 15 16  1  0  0  0  0
 15 18  1  0  0  0  0
 16 17  1  0  0  0  0
 16 40  1  0  0  0  0
 16 41  1  0  0  0  0
 17 42  1  0  0  0  0
 18 31  1  0  0  0  0
 18 19  1  0  0  0  0
 18 20  1  0  0  0  0
 19 43  1  0  0  0  0
 20 32  1  0  0  0  0
 20 21  1  0  0  0  0
 21 44  1  0  0  0  0
 22 27  1  0  0  0  0
 22 23  2  0  0  0  0
 23 24  1  0  0  0  0
 23 45  1  0  0  0  0
 24 25  2  0  0  0  0
 24 46  1  0  0  0  0
 25 26  1  0  0  0  0
 25 47  1  0  0  0  0
 26 27  2  0  0  0  0
 26 48  1  0  0  0  0
 27 28  1  0  0  0  0
M  END
> <s_m_source_file>
AV-unprocessed.smi

> <i_m_source_file_index>
283

> <i_lp_mmshare_version>
43012

> <i_f3d_flags>
0

> <s_epik_input>
Q2xjMVtjSF1bY0hdW2NIXVtjSF1jMVtDQEhdKFtDSDNdKVtOSF1jKG5bY0hdbjIpYyhjMjMpbltjSF1uM1tDQEBIXTRPW0NASF0oW0NIMl1bT0hdKVtDQEBIXShbT0hdKVtDQEhdNFtPSF0=

> <s_epik_cmdline>
J2VwaWtfcHl0aG9uJywgJy1waCcsICc3LjAnLCAnLXRuJywgJzgnLCAnLW1hJywgJzIwMCcsICctbWV0YWxfYmluZGluZycsICctaW1hZScsICc8aW5maWxlLm1hZT4nLCAnLW9tYWUnLCAnPG91dGZpbGUubWFlPic=

> <r_lp_tautomer_probability>
1

> <r_epik_Ionization_Penalty>
0.000266407

> <r_epik_Ionization_Penalty_Charging>
0

> <r_epik_Ionization_Penalty_Neutral>
0.000266407

> <r_epik_State_Penalty>
-0

> <r_epik_Charging_Adjusted_Penalty>
0

> <i_epik_Tot_Q>
0

> <i_epik_Tot_abs_Q>
0

> <r_epik_Metal_State_Penalty>
-0

> <b_epik_Metal_Only>
0

> <s_epik_Chemistry_Notes>
This compound contains an acetal/aminal-like group ( X-CH(R)-Y where X, Y are N, S, or O) that may be acid/base labile, releasing an aldehyde.

> <s_lp_Force_Field>
OPLS_2005

> <r_lp_Energy>
46.8878

> <b_lp_Chiralities_Consistent>
1

> <s_lp_Variant>
AV-unprocessed.smi:283-9

> <Gold.Version>
5.8.1

> <Gold.Id.Protein>
6NUR|6NUR_protein|mol2

> <Gold.PLP.Fitness>
51.4559

> <Gold.PLP.PLP>
-41.0905

> <Gold.PLP.part.hbond>
-5.2559

> <Gold.PLP.part.metal>
0.0000

> <Gold.PLP.part.buried>
-1.6945

> <Gold.PLP.part.nonpolar>
-35.4073

> <Gold.PLP.part.repulsive>
0.6012

> <Gold.PLP.ligand.clash>
0.0000

> <Gold.PLP.ligand.torsion>
1.6284

> <Gold.PLP.Chemscore.Hbond>
3.7332

> <Gold.PLP.Chemscore.CHOScore>
0.7845

> <Gold.PLP.Chemscore.Metal>
0.0000

> <Gold.Chemscore.Hbonds>
donor molecule, donor type, donor heavy atom, donor atom, acceptor molecule, acceptor atom, score
      L1  H     3    37       P1  8028  0.89
      L1  H    17    42       P1  7948  0.96
      L1  H    19    43       P1  7948  1.00
      L1  H    21    44       P1 10175  0.62
      L1  C    11    39       P1  7948  0.47

> <Gold.PLP.Chemscore.Internal.Correction>
0.0691

> <Gold.Rescore>
     Score         DG    S(hbond)    S(metal)    S(lipo)     H(rot)  DE(clash)    DE(int)     intcor
     14.56     -17.69       3.15        0.00     103.95       4.10       0.05       3.08       ----

> <Gold.Chemscore.Fitness>
14.5599

> <Gold.Chemscore.DG>
-17.6879

> <Gold.Chemscore.ZeroCoef>
-5.4800

> <Gold.Chemscore.Hbond>
3.1539

> <Gold.Chemscore.Metal>
0.0000

> <Gold.Chemscore.Lipo>
103.9473

> <Gold.Chemscore.Internal_Hbond>
0.0000

> <Gold.Chemscore.DEClash>
0.0518

> <Gold.Chemscore.DEInternal>
3.0762

> <Gold.Chemscore.Rot>
4.0968

> <Gold.Chemscore.Internal.Correction>
   9.000000E+99

> <Gold.Chemscore.Hbonds>
donor molecule, donor type, donor heavy atom, donor atom, acceptor molecule, acceptor atom, score
      L1  H     3    37       P1  8028  0.81
      L1  H    17    42       P1  7948  0.40
      L1  H    19    43       P1  7948  0.98
      L1  H    21    44       P1 10175  0.60

> <Gold.Chemscore.Hbond.Weighted>
-10.5340

> <Gold.Chemscore.Metal.Weighted>
-0.0000

> <Gold.Chemscore.Lipo.Weighted>
-12.1618

> <Gold.Chemscore.Internal_Hbond.Weighted>
0.0000

> <Gold.Chemscore.DEClash.Weighted>
0.0518

> <Gold.Chemscore.DEInternal.Weighted>
3.0762

> <Gold.Chemscore.Rot.Weighted>
10.4879

> <Gold.Chemscore.Internal.Correction.Weighted>
   9.000000E+99

> <Gold.Protein.RotatedTorsions>
[ 6907 6896 6895 6894 ] final   95.73 input  -60.11 | X-H torsion
[ 7974 7965 7964 7962 ] final   24.70 input  175.53 | X-H torsion
[ 8008 7997 7996 7995 ] final   78.50 input   59.86 | X-H torsion
[ 10167 10162 10161 10158 ] final   -2.59 input  -65.29 | X-H torsion
[ 10718 10713 10712 10709 ] final   28.60 input   66.30 | X-H torsion
[ 10763 10752 10751 10750 ] final   90.76 input  -60.55 | X-H torsion
[ 11005 11000 10999 10996 ] final  148.38 input  -57.11 | X-H torsion

> <Gold.Protein.ActiveResidues>
 VAL166  LYS551  ARG553  GLY616  TRP617  ASP618  TYR619  PRO620  LYS621  CYS622 
 ASP623  PHE694  ASN695  SER759  ASP760  ASP761  ALA762  ILE779  LEU786  VAL792 
 PHE793  MET794  SER795  GLU796  ALA797  LYS798  CYS799  TRP800  GLU811  SER814 

> <Gold.Protein.RotatedAtoms>
  152.5441  134.0994  159.8311 H   0  0  0  0  0  0  0  0  0  0  0  0  # atno 6907 bound_to 6896
  151.1074  133.5191  159.2614 H   0  0  0  0  0  0  0  0  0  0  0  0  # atno 6908 bound_to 6896
  151.1923  135.0417  159.8892 H   0  0  0  0  0  0  0  0  0  0  0  0  # atno 6909 bound_to 6896
  146.1925  139.7568  142.8821 H   0  0  0  0  0  0  0  0  0  0  0  0  # atno 7974 bound_to 7965
  155.8565  140.3455  155.5728 H   0  0  0  0  0  0  0  0  0  0  0  0  # atno 8008 bound_to 7997
  155.7980  140.0881  157.1992 H   0  0  0  0  0  0  0  0  0  0  0  0  # atno 8009 bound_to 7997
  154.4010  140.1471  156.3228 H   0  0  0  0  0  0  0  0  0  0  0  0  # atno 8010 bound_to 7997
  140.6857  143.6639  150.8243 H   0  0  0  0  0  0  0  0  0  0  0  0  # atno 10167 bound_to 10162
  157.2356  130.7044  149.6334 H   0  0  0  0  0  0  0  0  0  0  0  0  # atno 10718 bound_to 10713
  153.2009  135.4422  155.0266 H   0  0  0  0  0  0  0  0  0  0  0  0  # atno 10763 bound_to 10752
  154.8146  135.3309  154.7213 H   0  0  0  0  0  0  0  0  0  0  0  0  # atno 10764 bound_to 10752
  153.7658  135.6988  153.4971 H   0  0  0  0  0  0  0  0  0  0  0  0  # atno 10765 bound_to 10752
  140.0955  134.9015  157.1716 H   0  0  0  0  0  0  0  0  0  0  0  0  # atno 11005 bound_to 11000
  145.3748  141.0349  143.3210 LP  0  0  0  0  0  0  0  0  0  0  0  0  # atno 17320 bound_to 7965
  144.8514  139.5316  143.6854 LP  0  0  0  0  0  0  0  0  0  0  0  0  # atno 17321 bound_to 7965
  140.0345  143.5409  152.2745 LP  0  0  0  0  0  0  0  0  0  0  0  0  # atno 17342 bound_to 10162
  139.6214  144.7629  151.2733 LP  0  0  0  0  0  0  0  0  0  0  0  0  # atno 17343 bound_to 10162
  155.9673  130.4474  150.5581 LP  0  0  0  0  0  0  0  0  0  0  0  0  # atno 17370 bound_to 10713
  157.3432  131.0720  151.1771 LP  0  0  0  0  0  0  0  0  0  0  0  0  # atno 17371 bound_to 10713
  140.3292  134.2828  155.7231 LP  0  0  0  0  0  0  0  0  0  0  0  0  # atno 17394 bound_to 11000
  141.2091  133.7760  157.0020 LP  0  0  0  0  0  0  0  0  0  0  0  0  # atno 17395 bound_to 11000

$$$$
