AV-unprocessed.smi:2209|AV-procd|sdf|8948|dock9
  -GOLD-   2272012163D 1   1.00000     0.00000
 Structure written by MMmdl.
 26 27  0  0  0  0  0  0  0  0  2 V2000
  153.4289  137.5858  156.7556 C   0  0  0  0  0  0  0  0  0  0  0  0
  152.6636  138.5793  157.5618 C   0  0  0  0  0  0  0  0  0  0  0  0
  151.8218  138.1966  158.5140 N   0  0  0  0  0  0  0  0  0  0  0  0
  151.3249  139.4088  159.0139 O   0  0  0  0  0  0  0  0  0  0  0  0
  151.9338  140.3829  158.2958 C   0  0  0  0  0  0  0  0  0  0  0  0
  151.6071  141.8130  158.5924 C   0  0  1  0  0  0  0  0  0  0  0  0
  152.8164  142.5769  159.1642 C   0  0  0  0  0  0  0  0  0  0  0  0
  152.4459  144.0420  159.4420 C   0  0  0  0  0  0  0  0  0  0  0  0
  151.8611  144.7095  158.1863 C   0  0  0  0  0  0  0  0  0  0  0  0
  150.6974  143.9474  157.6833 N   0  3  0  0  0  0  0  0  0  0  0  0
  151.0209  142.5389  157.3642 C   0  0  0  0  0  0  0  0  0  0  0  0
  152.7770  139.9229  157.3734 N   0  0  0  0  0  0  0  0  0  0  0  0
  153.1966  136.5667  157.0670 H   0  0  0  0  0  0  0  0  0  0  0  0
  154.5001  137.7471  156.8781 H   0  0  0  0  0  0  0  0  0  0  0  0
  153.1813  137.6877  155.6988 H   0  0  0  0  0  0  0  0  0  0  0  0
  150.8348  141.8059  159.3637 H   0  0  0  0  0  0  0  0  0  0  0  0
  153.1661  142.1006  160.0809 H   0  0  0  0  0  0  0  0  0  0  0  0
  153.6471  142.5409  158.4580 H   0  0  0  0  0  0  0  0  0  0  0  0
  151.7186  144.0888  160.2538 H   0  0  0  0  0  0  0  0  0  0  0  0
  153.3247  144.5908  159.7821 H   0  0  0  0  0  0  0  0  0  0  0  0
  151.5482  145.7295  158.4111 H   0  0  0  0  0  0  0  0  0  0  0  0
  152.6170  144.7730  157.4022 H   0  0  0  0  0  0  0  0  0  0  0  0
  149.9764  143.9603  158.3908 H   0  0  0  0  0  0  0  0  0  0  0  0
  151.7275  142.5175  156.5331 H   0  0  0  0  0  0  0  0  0  0  0  0
  150.1139  142.0385  157.0235 H   0  0  0  0  0  0  0  0  0  0  0  0
  150.3446  144.3992  156.8516 H   0  0  0  0  0  0  0  0  0  0  0  0
  1  2  1  0  0  0  0
  1 13  1  0  0  0  0
  1 14  1  0  0  0  0
  1 15  1  0  0  0  0
  2 12  1  0  0  0  0
  2  3  2  0  0  0  0
  3  4  1  0  0  0  0
  4  5  1  0  0  0  0
  5  6  1  0  0  0  0
  5 12  2  0  0  0  0
  6 11  1  0  0  0  0
  6  7  1  0  0  0  0
  6 16  1  0  0  0  0
  7  8  1  0  0  0  0
  7 17  1  0  0  0  0
  7 18  1  0  0  0  0
  8  9  1  0  0  0  0
  8 19  1  0  0  0  0
  8 20  1  0  0  0  0
  9 10  1  0  0  0  0
  9 21  1  0  0  0  0
  9 22  1  0  0  0  0
 10 11  1  0  0  0  0
 10 23  1  0  0  0  0
 10 26  1  0  0  0  0
 11 24  1  0  0  0  0
 11 25  1  0  0  0  0
M  CHG  1  10   1
M  END
> <s_m_source_file>
AV-unprocessed.smi

> <i_m_source_file_index>
2209

> <i_lp_mmshare_version>
43012

> <i_f3d_flags>
0

> <s_epik_input>
W0NIM11jMW5vYyhuMSlbQ0BASF0yW0NIMl1bQ0gyXVtDSDJdW05IXVtDSDJdMg==

> <s_epik_cmdline>
J2VwaWtfcHl0aG9uJywgJy1waCcsICc3LjAnLCAnLXRuJywgJzgnLCAnLW1hJywgJzIwMCcsICctbWV0YWxfYmluZGluZycsICctaW1hZScsICc8aW5maWxlLm1hZT4nLCAnLW9tYWUnLCAnPG91dGZpbGUubWFlPic=

> <r_lp_tautomer_probability>
1

> <r_epik_Ionization_Penalty>
0.000532935

> <r_epik_Ionization_Penalty_Charging>
0.000532935

> <r_epik_Ionization_Penalty_Neutral>
4.97553e-13

> <r_epik_State_Penalty>
0.000332992

> <r_epik_Charging_Adjusted_Penalty>
0.000865928

> <i_epik_Tot_Q>
1

> <i_epik_Tot_abs_Q>
1

> <r_epik_Metal_State_Penalty>
-0

> <b_epik_Metal_Only>
0

> <s_lp_Force_Field>
OPLS_2005

> <r_lp_Energy>
10.4199

> <b_lp_Chiralities_Consistent>
1

> <s_lp_Variant>
AV-unprocessed.smi:2209-2

> <Gold.Version>
5.8.1

> <Gold.Id.Protein>
6NUR|6NUR_protein|mol2

> <Gold.PLP.Fitness>
33.2042

> <Gold.PLP.PLP>
-24.2448

> <Gold.PLP.part.hbond>
-2.0000

> <Gold.PLP.part.metal>
0.0000

> <Gold.PLP.part.buried>
-3.3228

> <Gold.PLP.part.nonpolar>
-18.9035

> <Gold.PLP.part.repulsive>
0.0165

> <Gold.PLP.ligand.clash>
0.0000

> <Gold.PLP.ligand.torsion>
0.0371

> <Gold.PLP.Chemscore.Hbond>
3.0000

> <Gold.PLP.Chemscore.CHOScore>
0.0000

> <Gold.PLP.Chemscore.Metal>
0.0000

> <Gold.Chemscore.Hbonds>
donor molecule, donor type, donor heavy atom, donor atom, acceptor molecule, acceptor atom, score
      L1  H    10    26       P1  8028  1.98
      P1  H  7997  8009       L1    12  1.00

> <Gold.PLP.Chemscore.Internal.Correction>
0.0335

> <Gold.Rescore>
     Score         DG    S(hbond)    S(metal)    S(lipo)     H(rot)  DE(clash)    DE(int)     intcor
     16.31     -16.42       1.93        0.00      60.40       1.00       0.03       0.08       ----

> <Gold.Chemscore.Fitness>
16.3116

> <Gold.Chemscore.DG>
-16.4230

> <Gold.Chemscore.ZeroCoef>
-5.4800

> <Gold.Chemscore.Hbond>
1.9271

> <Gold.Chemscore.Metal>
0.0000

> <Gold.Chemscore.Lipo>
60.3979

> <Gold.Chemscore.Internal_Hbond>
0.0000

> <Gold.Chemscore.DEClash>
0.0270

> <Gold.Chemscore.DEInternal>
0.0845

> <Gold.Chemscore.Rot>
1.0000

> <Gold.Chemscore.Internal.Correction>
   9.000000E+99

> <Gold.Chemscore.Hbonds>
donor molecule, donor type, donor heavy atom, donor atom, acceptor molecule, acceptor atom, score
      L1  H    10    26       P1  8028  0.87
      P1  H  7997  8009       L1    12  0.39

> <Gold.Chemscore.Hbond.Weighted>
-6.4365

> <Gold.Chemscore.Metal.Weighted>
-0.0000

> <Gold.Chemscore.Lipo.Weighted>
-7.0666

> <Gold.Chemscore.Internal_Hbond.Weighted>
0.0000

> <Gold.Chemscore.DEClash.Weighted>
0.0270

> <Gold.Chemscore.DEInternal.Weighted>
0.0845

> <Gold.Chemscore.Rot.Weighted>
2.5600

> <Gold.Chemscore.Internal.Correction.Weighted>
   9.000000E+99

> <Gold.Protein.RotatedTorsions>
[ 6907 6896 6895 6894 ] final    8.63 input  -60.11 | X-H torsion
[ 7974 7965 7964 7962 ] final   63.95 input  175.53 | X-H torsion
[ 8008 7997 7996 7995 ] final  177.99 input   59.86 | X-H torsion
[ 10167 10162 10161 10158 ] final  -61.61 input  -65.29 | X-H torsion
[ 10718 10713 10712 10709 ] final  116.26 input   66.30 | X-H torsion
[ 10763 10752 10751 10750 ] final  159.58 input  -60.55 | X-H torsion
[ 11005 11000 10999 10996 ] final  -93.57 input  -57.11 | X-H torsion

> <Gold.Protein.ActiveResidues>
 VAL166  LYS551  ARG553  GLY616  TRP617  ASP618  TYR619  PRO620  LYS621  CYS622 
 ASP623  PHE694  ASN695  SER759  ASP760  ASP761  ALA762  ILE779  LEU786  VAL792 
 PHE793  MET794  SER795  GLU796  ALA797  LYS798  CYS799  TRP800  GLU811  SER814 

> <Gold.Protein.RotatedAtoms>
  151.7091  135.0916  160.0264 H   0  0  0  0  0  0  0  0  0  0  0  0  # atno 6907 bound_to 6896
  152.3673  133.6369  159.6068 H   0  0  0  0  0  0  0  0  0  0  0  0  # atno 6908 bound_to 6896
  150.7647  133.9244  159.3449 H   0  0  0  0  0  0  0  0  0  0  0  0  # atno 6909 bound_to 6896
  145.8559  139.3284  143.0847 H   0  0  0  0  0  0  0  0  0  0  0  0  # atno 7974 bound_to 7965
  156.0596  140.1344  156.9957 H   0  0  0  0  0  0  0  0  0  0  0  0  # atno 8008 bound_to 7997
  154.4475  140.0994  156.6567 H   0  0  0  0  0  0  0  0  0  0  0  0  # atno 8009 bound_to 7997
  155.5398  140.3460  155.4446 H   0  0  0  0  0  0  0  0  0  0  0  0  # atno 8010 bound_to 7997
  140.5994  143.2358  151.5962 H   0  0  0  0  0  0  0  0  0  0  0  0  # atno 10167 bound_to 10162
  157.6172  131.1023  150.7447 H   0  0  0  0  0  0  0  0  0  0  0  0  # atno 10718 bound_to 10713
  154.2340  135.2777  155.2879 H   0  0  0  0  0  0  0  0  0  0  0  0  # atno 10763 bound_to 10752
  154.5600  135.5650  153.7002 H   0  0  0  0  0  0  0  0  0  0  0  0  # atno 10764 bound_to 10752
  153.0014  135.6295  154.2483 H   0  0  0  0  0  0  0  0  0  0  0  0  # atno 10765 bound_to 10752
  141.1494  133.7896  157.0177 H   0  0  0  0  0  0  0  0  0  0  0  0  # atno 11005 bound_to 11000
  145.9304  140.9052  143.0359 LP  0  0  0  0  0  0  0  0  0  0  0  0  # atno 17320 bound_to 7965
  144.6727  140.1410  143.7437 LP  0  0  0  0  0  0  0  0  0  0  0  0  # atno 17321 bound_to 7965
  139.5280  144.2999  152.1082 LP  0  0  0  0  0  0  0  0  0  0  0  0  # atno 17342 bound_to 10162
  140.2177  144.4498  150.6356 LP  0  0  0  0  0  0  0  0  0  0  0  0  # atno 17343 bound_to 10162
  156.7812  130.4860  149.5401 LP  0  0  0  0  0  0  0  0  0  0  0  0  # atno 17370 bound_to 10713
  156.1299  130.6170  151.0318 LP  0  0  0  0  0  0  0  0  0  0  0  0  # atno 17371 bound_to 10713
  140.0836  134.9634  157.1664 LP  0  0  0  0  0  0  0  0  0  0  0  0  # atno 17394 bound_to 11000
  140.3543  134.2564  155.7194 LP  0  0  0  0  0  0  0  0  0  0  0  0  # atno 17395 bound_to 11000

$$$$
