AV-unprocessed.smi:481|AV-procd|sdf|2681|dock7
  -GOLD-   2262023103D 1   1.00000     0.00000
 Structure written by MMmdl.
 43 45  0  0  0  0  0  0  0  0  1 V2000
  146.7790  133.9861  154.3983 C   0  0  0  0  0  0  0  0  0  0  0  0
  147.3546  133.9432  155.6946 O   0  0  0  0  0  0  0  0  0  0  0  0
  148.0356  135.1335  156.0659 C   0  0  0  0  0  0  0  0  0  0  0  0
  148.7251  134.9951  157.4336 C   0  0  0  0  0  0  0  0  0  0  0  0
  149.3132  136.2589  157.8632 N   0  0  0  0  0  0  0  0  0  0  0  0
  149.0185  136.9772  158.9765 C   0  0  0  0  0  0  0  0  0  0  0  0
  148.0400  136.5039  159.8619 N   0  0  0  0  0  0  0  0  0  0  0  0
  147.6962  137.1532  160.9752 N   0  0  0  0  0  0  0  0  0  0  0  0
  146.9262  136.6229  161.8700 C   0  0  0  0  0  0  0  0  0  0  0  0
  146.4149  135.2355  161.9107 C   0  0  0  0  0  0  0  0  0  0  0  0
  145.0648  134.9277  162.2042 C   0  0  0  0  0  0  0  0  0  0  0  0
  144.6268  133.5895  162.2322 C   0  0  0  0  0  0  0  0  0  0  0  0
  145.5297  132.5463  161.9549 C   0  0  0  0  0  0  0  0  0  0  0  0
  146.8696  132.8436  161.6429 C   0  0  0  0  0  0  0  0  0  0  0  0
  147.3078  134.1821  161.6162 C   0  0  0  0  0  0  0  0  0  0  0  0
  149.7253  138.1069  159.1081 N   0  0  0  0  0  0  0  0  0  0  0  0
  150.5347  138.1052  157.9822 C   0  0  0  0  0  0  0  0  0  0  0  0
  150.3068  137.0014  157.2266 C   0  0  0  0  0  0  0  0  0  0  0  0
  151.0345  136.7336  155.9802 C   0  0  0  0  0  0  0  0  0  0  0  0
  150.8519  135.7325  155.2910 O   0  0  0  0  0  0  0  0  0  0  0  0
  151.9304  137.7026  155.6707 N   0  0  0  0  0  0  0  0  0  0  0  0
  152.2055  138.8388  156.3820 C   0  0  0  0  0  0  0  0  0  0  0  0
  153.0526  139.6318  155.9714 O   0  0  0  0  0  0  0  0  0  0  0  0
  151.5103  139.0463  157.5462 N   0  0  0  0  0  0  0  0  0  0  0  0
  151.7672  140.2432  158.3494 C   0  0  0  0  0  0  0  0  0  0  0  0
  152.4571  137.5699  154.8197 H   0  0  0  0  0  0  0  0  0  0  0  0
  146.2325  133.0612  154.2146 H   0  0  0  0  0  0  0  0  0  0  0  0
  147.5357  134.0817  153.6199 H   0  0  0  0  0  0  0  0  0  0  0  0
  146.0746  134.8136  154.3059 H   0  0  0  0  0  0  0  0  0  0  0  0
  148.7460  135.4315  155.2931 H   0  0  0  0  0  0  0  0  0  0  0  0
  147.2904  135.9276  156.1207 H   0  0  0  0  0  0  0  0  0  0  0  0
  148.0148  134.6584  158.1878 H   0  0  0  0  0  0  0  0  0  0  0  0
  149.5024  134.2326  157.4058 H   0  0  0  0  0  0  0  0  0  0  0  0
  147.8858  135.5071  159.8139 H   0  0  0  0  0  0  0  0  0  0  0  0
  146.6056  137.2713  162.6856 H   0  0  0  0  0  0  0  0  0  0  0  0
  144.3522  135.7134  162.4074 H   0  0  0  0  0  0  0  0  0  0  0  0
  143.5962  133.3642  162.4638 H   0  0  0  0  0  0  0  0  0  0  0  0
  145.1939  131.5200  161.9759 H   0  0  0  0  0  0  0  0  0  0  0  0
  147.5628  132.0447  161.4243 H   0  0  0  0  0  0  0  0  0  0  0  0
  148.3406  134.3930  161.3776 H   0  0  0  0  0  0  0  0  0  0  0  0
  152.8075  140.2672  158.6769 H   0  0  0  0  0  0  0  0  0  0  0  0
  151.1437  140.2918  159.2421 H   0  0  0  0  0  0  0  0  0  0  0  0
  151.5723  141.1445  157.7668 H   0  0  0  0  0  0  0  0  0  0  0  0
  1  2  1  0  0  0  0
  1 27  1  0  0  0  0
  1 28  1  0  0  0  0
  1 29  1  0  0  0  0
  2  3  1  0  0  0  0
  3  4  1  0  0  0  0
  3 30  1  0  0  0  0
  3 31  1  0  0  0  0
  4  5  1  0  0  0  0
  4 32  1  0  0  0  0
  4 33  1  0  0  0  0
  5 18  1  0  0  0  0
  5  6  1  0  0  0  0
  6  7  1  0  0  0  0
  6 16  2  0  0  0  0
  7  8  1  0  0  0  0
  7 34  1  0  0  0  0
  8  9  2  0  0  0  0
  9 10  1  0  0  0  0
  9 35  1  0  0  0  0
 10 15  1  0  0  0  0
 10 11  2  0  0  0  0
 11 12  1  0  0  0  0
 11 36  1  0  0  0  0
 12 13  2  0  0  0  0
 12 37  1  0  0  0  0
 13 14  1  0  0  0  0
 13 38  1  0  0  0  0
 14 15  2  0  0  0  0
 14 39  1  0  0  0  0
 15 40  1  0  0  0  0
 16 17  1  0  0  0  0
 17 24  1  0  0  0  0
 17 18  2  0  0  0  0
 18 19  1  0  0  0  0
 19 20  2  0  0  0  0
 19 21  1  0  0  0  0
 21 26  1  0  0  0  0
 21 22  1  0  0  0  0
 22 23  2  0  0  0  0
 22 24  1  0  0  0  0
 24 25  1  0  0  0  0
 25 41  1  0  0  0  0
 25 42  1  0  0  0  0
 25 43  1  0  0  0  0
M  END
> <s_m_source_file>
AV-unprocessed.smi

> <i_m_source_file_index>
481

> <i_lp_mmshare_version>
43012

> <i_f3d_flags>
0

> <s_epik_input>
W0NIM11uMWMoPU8pW25IXWMoPU8pYyhjMTIpbihbQ0gyXVtDSDJdT1tDSDNdKWMobjIpW05IXS9OPVtDSF0vYzNbY0hdW2NIXVtjSF1bY0hdW2NIXTM=

> <s_epik_cmdline>
J2VwaWtfcHl0aG9uJywgJy1waCcsICc3LjAnLCAnLXRuJywgJzgnLCAnLW1hJywgJzIwMCcsICctbWV0YWxfYmluZGluZycsICctaW1hZScsICc8aW5maWxlLm1hZT4nLCAnLW9tYWUnLCAnPG91dGZpbGUubWFlPic=

> <r_epik_Ionization_Penalty>
0.000595515

> <r_epik_Ionization_Penalty_Charging>
0.000305988

> <r_epik_Ionization_Penalty_Neutral>
0.000289528

> <r_epik_State_Penalty>
0.000184189

> <r_epik_Charging_Adjusted_Penalty>
0.000490177

> <i_epik_Tot_Q>
0

> <i_epik_Tot_abs_Q>
0

> <r_epik_Metal_State_Penalty>
0.173754

> <b_epik_Metal_Only>
0

> <s_epik_Chemistry_Notes>
This compound has an imine and may undergo hydrolysis.

> <s_lp_Force_Field>
OPLS_2005

> <r_lp_Energy>
46.456

> <b_lp_Chiralities_Consistent>
1

> <s_lp_Variant>
AV-unprocessed.smi:481-2

> <Gold.Version>
5.8.1

> <Gold.Id.Protein>
6NUR|6NUR_protein|mol2

> <Gold.PLP.Fitness>
43.5109

> <Gold.PLP.PLP>
-34.1049

> <Gold.PLP.part.hbond>
-4.4600

> <Gold.PLP.part.metal>
0.0000

> <Gold.PLP.part.buried>
-5.1765

> <Gold.PLP.part.nonpolar>
-24.3994

> <Gold.PLP.part.repulsive>
0.4059

> <Gold.PLP.ligand.clash>
0.0000

> <Gold.PLP.ligand.torsion>
0.3889

> <Gold.PLP.Chemscore.Hbond>
3.2098

> <Gold.PLP.Chemscore.CHOScore>
0.0000

> <Gold.PLP.Chemscore.Metal>
0.0000

> <Gold.Chemscore.Hbonds>
donor molecule, donor type, donor heavy atom, donor atom, acceptor molecule, acceptor atom, score
      P1  H  6931  6943       L1     8  0.90
      P1  H  6934  6947       L1     8  0.90
      P1  H  7997  8008       L1    23  0.73
      P1  H 10752 10765       L1    20  0.45

> <Gold.PLP.Chemscore.Internal.Correction>
0.5544

> <Gold.Rescore>
     Score         DG    S(hbond)    S(metal)    S(lipo)     H(rot)  DE(clash)    DE(int)     intcor
     17.22     -17.90       2.62        0.00      64.99       1.54       0.08       0.60       ----

> <Gold.Chemscore.Fitness>
17.2200

> <Gold.Chemscore.DG>
-17.9006

> <Gold.Chemscore.ZeroCoef>
-5.4800

> <Gold.Chemscore.Hbond>
2.6230

> <Gold.Chemscore.Metal>
0.0000

> <Gold.Chemscore.Lipo>
64.9885

> <Gold.Chemscore.Internal_Hbond>
0.0000

> <Gold.Chemscore.DEClash>
0.0832

> <Gold.Chemscore.DEInternal>
0.5974

> <Gold.Chemscore.Rot>
1.5406

> <Gold.Chemscore.Internal.Correction>
   9.000000E+99

> <Gold.Chemscore.Hbonds>
donor molecule, donor type, donor heavy atom, donor atom, acceptor molecule, acceptor atom, score
      P1  H  6931  6943       L1     8  0.55
      P1  H  6934  6947       L1     8  0.43
      P1  H  7997  8008       L1    23  0.73
      P1  H 10752 10765       L1    20  0.06

> <Gold.Chemscore.Hbond.Weighted>
-8.7609

> <Gold.Chemscore.Metal.Weighted>
-0.0000

> <Gold.Chemscore.Lipo.Weighted>
-7.6037

> <Gold.Chemscore.Internal_Hbond.Weighted>
0.0000

> <Gold.Chemscore.DEClash.Weighted>
0.0832

> <Gold.Chemscore.DEInternal.Weighted>
0.5974

> <Gold.Chemscore.Rot.Weighted>
3.9440

> <Gold.Chemscore.Internal.Correction.Weighted>
   9.000000E+99

> <Gold.Protein.RotatedTorsions>
[ 6907 6896 6895 6894 ] final  -70.39 input  -60.11 | X-H torsion
[ 7974 7965 7964 7962 ] final  113.16 input  175.53 | X-H torsion
[ 8008 7997 7996 7995 ] final  -43.75 input   59.86 | X-H torsion
[ 10167 10162 10161 10158 ] final   14.43 input  -65.29 | X-H torsion
[ 10718 10713 10712 10709 ] final  -48.43 input   66.30 | X-H torsion
[ 10763 10752 10751 10750 ] final -175.33 input  -60.55 | X-H torsion
[ 11005 11000 10999 10996 ] final  -81.23 input  -57.11 | X-H torsion

> <Gold.Protein.ActiveResidues>
 VAL166  LYS551  ARG553  GLY616  TRP617  ASP618  TYR619  PRO620  LYS621  CYS622 
 ASP623  PHE694  ASN695  SER759  ASP760  ASP761  ALA762  ILE779  LEU786  VAL792 
 PHE793  MET794  SER795  GLU796  ALA797  LYS798  CYS799  TRP800  GLU811  SER814 

> <Gold.Protein.RotatedAtoms>
  150.7260  134.5459  159.5770 H   0  0  0  0  0  0  0  0  0  0  0  0  # atno 6907 bound_to 6896
  152.2958  134.7665  160.0377 H   0  0  0  0  0  0  0  0  0  0  0  0  # atno 6908 bound_to 6896
  151.8263  133.3366  159.3636 H   0  0  0  0  0  0  0  0  0  0  0  0  # atno 6909 bound_to 6896
  145.2205  139.2864  143.4221 H   0  0  0  0  0  0  0  0  0  0  0  0  # atno 7974 bound_to 7965
  154.3997  140.1440  156.3569 H   0  0  0  0  0  0  0  0  0  0  0  0  # atno 8008 bound_to 7997
  155.8217  140.3469  155.5497 H   0  0  0  0  0  0  0  0  0  0  0  0  # atno 8009 bound_to 7997
  155.8281  140.0908  157.1799 H   0  0  0  0  0  0  0  0  0  0  0  0  # atno 8010 bound_to 7997
  140.5936  143.8746  150.6896 H   0  0  0  0  0  0  0  0  0  0  0  0  # atno 10167 bound_to 10162
  156.1989  130.4155  149.9268 H   0  0  0  0  0  0  0  0  0  0  0  0  # atno 10718 bound_to 10713
  154.5857  135.2840  155.0687 H   0  0  0  0  0  0  0  0  0  0  0  0  # atno 10763 bound_to 10752
  154.2007  135.6425  153.5090 H   0  0  0  0  0  0  0  0  0  0  0  0  # atno 10764 bound_to 10752
  153.0103  135.5468  154.6525 H   0  0  0  0  0  0  0  0  0  0  0  0  # atno 10765 bound_to 10752
  141.1667  133.7187  156.8391 H   0  0  0  0  0  0  0  0  0  0  0  0  # atno 11005 bound_to 11000
  146.3377  140.2509  142.8598 LP  0  0  0  0  0  0  0  0  0  0  0  0  # atno 17320 bound_to 7965
  144.9770  140.8423  143.5420 LP  0  0  0  0  0  0  0  0  0  0  0  0  # atno 17321 bound_to 7965
  140.2275  143.3761  152.1593 LP  0  0  0  0  0  0  0  0  0  0  0  0  # atno 17342 bound_to 10162
  139.5243  144.7082  151.5288 LP  0  0  0  0  0  0  0  0  0  0  0  0  # atno 17343 bound_to 10162
  156.6984  130.8923  151.3596 LP  0  0  0  0  0  0  0  0  0  0  0  0  # atno 17370 bound_to 10713
  157.6974  130.9296  150.0684 LP  0  0  0  0  0  0  0  0  0  0  0  0  # atno 17371 bound_to 10713
  140.1996  134.8907  157.3154 LP  0  0  0  0  0  0  0  0  0  0  0  0  # atno 17394 bound_to 11000
  140.2202  134.4033  155.7569 LP  0  0  0  0  0  0  0  0  0  0  0  0  # atno 17395 bound_to 11000

$$$$
