AV-unprocessed.smi:1767|AV-procd|sdf|7139|dock1
  -GOLD-   22720 8373D 1   1.00000     0.00000
 Structure written by MMmdl.
 32 34  0  0  0  0  0  0  0  0  1 V2000
  151.2831  144.0024  157.2670 O   0  0  0  0  0  0  0  0  0  0  0  0
  151.5321  142.7571  157.8862 C   0  0  2  0  0  0  0  0  0  0  0  0
  150.2530  141.9029  157.7853 C   0  0  0  0  0  0  0  0  0  0  0  0
  150.1229  141.2626  156.4886 N   0  0  0  0  0  0  0  0  0  0  0  0
  151.0197  140.4543  155.8919 C   0  0  0  0  0  0  0  0  0  0  0  0
  150.6952  139.9565  154.7022 N   0  0  0  0  0  0  0  0  0  0  0  0
  149.4410  140.5072  154.5018 C   0  0  0  0  0  0  0  0  0  0  0  0
  148.5412  140.3688  153.4209 C   0  0  0  0  0  0  0  0  0  0  0  0
  147.2969  141.0328  153.4376 C   0  0  0  0  0  0  0  0  0  0  0  0
  146.9339  141.8443  154.5321 C   0  0  0  0  0  0  0  0  0  0  0  0
  147.8145  141.9984  155.6199 C   0  0  0  0  0  0  0  0  0  0  0  0
  149.0546  141.3332  155.6002 C   0  0  0  0  0  0  0  0  0  0  0  0
  152.0112  142.9140  159.3233 C   0  0  0  0  0  0  0  0  0  0  0  0
  152.6832  141.8493  159.9619 C   0  0  0  0  0  0  0  0  0  0  0  0
  153.1024  141.9749  161.3006 C   0  0  0  0  0  0  0  0  0  0  0  0
  152.8532  143.1663  162.0082 C   0  0  0  0  0  0  0  0  0  0  0  0
  153.2545  143.2862  163.2959 F   0  0  0  0  0  0  0  0  0  0  0  0
  152.1850  144.2324  161.3766 C   0  0  0  0  0  0  0  0  0  0  0  0
  151.7646  144.1070  160.0383 C   0  0  0  0  0  0  0  0  0  0  0  0
  150.5094  143.9195  156.7308 H   0  0  0  0  0  0  0  0  0  0  0  0
  152.3227  142.2794  157.3056 H   0  0  0  0  0  0  0  0  0  0  0  0
  150.2318  141.1382  158.5629 H   0  0  0  0  0  0  0  0  0  0  0  0
  149.3714  142.5270  157.9390 H   0  0  0  0  0  0  0  0  0  0  0  0
  151.9625  140.2131  156.3609 H   0  0  0  0  0  0  0  0  0  0  0  0
  148.8084  139.7495  152.5775 H   0  0  0  0  0  0  0  0  0  0  0  0
  146.6170  140.9185  152.6061 H   0  0  0  0  0  0  0  0  0  0  0  0
  145.9785  142.3483  154.5366 H   0  0  0  0  0  0  0  0  0  0  0  0
  147.5374  142.6164  156.4608 H   0  0  0  0  0  0  0  0  0  0  0  0
  152.8705  140.9278  159.4304 H   0  0  0  0  0  0  0  0  0  0  0  0
  153.6124  141.1557  161.7856 H   0  0  0  0  0  0  0  0  0  0  0  0
  151.9914  145.1456  161.9197 H   0  0  0  0  0  0  0  0  0  0  0  0
  151.2437  144.9267  159.5655 H   0  0  0  0  0  0  0  0  0  0  0  0
  1  2  1  0  0  0  0
  1 20  1  0  0  0  0
  2  3  1  0  0  0  0
  2 13  1  0  0  0  0
  2 21  1  0  0  0  0
  3  4  1  0  0  0  0
  3 22  1  0  0  0  0
  3 23  1  0  0  0  0
  4 12  1  0  0  0  0
  4  5  1  0  0  0  0
  5  6  2  0  0  0  0
  5 24  1  0  0  0  0
  6  7  1  0  0  0  0
  7 12  2  0  0  0  0
  7  8  1  0  0  0  0
  8  9  2  0  0  0  0
  8 25  1  0  0  0  0
  9 10  1  0  0  0  0
  9 26  1  0  0  0  0
 10 11  2  0  0  0  0
 10 27  1  0  0  0  0
 11 12  1  0  0  0  0
 11 28  1  0  0  0  0
 13 19  1  0  0  0  0
 13 14  2  0  0  0  0
 14 15  1  0  0  0  0
 14 29  1  0  0  0  0
 15 16  2  0  0  0  0
 15 30  1  0  0  0  0
 16 17  1  0  0  0  0
 16 18  1  0  0  0  0
 18 19  2  0  0  0  0
 18 31  1  0  0  0  0
 19 32  1  0  0  0  0
M  END
> <s_m_source_file>
AV-unprocessed.smi

> <i_m_source_file_index>
1767

> <i_lp_mmshare_version>
43012

> <i_f3d_flags>
0

> <s_epik_input>
W2NIXTFbY0hdYyhGKVtjSF1bY0hdYzFbQ0BIXShbT0hdKVtDSDJdbihbY0hdbjIpYyhjMjMpW2NIXVtjSF1bY0hdW2NIXTM=

> <s_epik_cmdline>
J2VwaWtfcHl0aG9uJywgJy1waCcsICc3LjAnLCAnLXRuJywgJzgnLCAnLW1hJywgJzIwMCcsICctbWV0YWxfYmluZGluZycsICctaW1hZScsICc8aW5maWxlLm1hZT4nLCAnLW9tYWUnLCAnPG91dGZpbGUubWFlPic=

> <r_epik_Ionization_Penalty>
0.0696514

> <r_epik_Ionization_Penalty_Charging>
0

> <r_epik_Ionization_Penalty_Neutral>
0.0696514

> <r_epik_State_Penalty>
0.0610247

> <r_epik_Charging_Adjusted_Penalty>
0.0610247

> <i_epik_Tot_Q>
0

> <i_epik_Tot_abs_Q>
0

> <r_epik_Metal_State_Penalty>
6.42746e-05

> <b_epik_Metal_Only>
0

> <s_lp_Force_Field>
OPLS_2005

> <r_lp_Energy>
11.9132

> <b_lp_Chiralities_Consistent>
1

> <s_lp_Variant>
AV-unprocessed.smi:1767-1

> <Gold.Version>
5.8.1

> <Gold.Id.Protein>
6NUR|6NUR_protein|mol2

> <Gold.PLP.Fitness>
53.7102

> <Gold.PLP.PLP>
-49.2330

> <Gold.PLP.part.hbond>
-2.0000

> <Gold.PLP.part.metal>
0.0000

> <Gold.PLP.part.buried>
-0.3807

> <Gold.PLP.part.nonpolar>
-45.6142

> <Gold.PLP.part.repulsive>
0.0893

> <Gold.PLP.ligand.clash>
0.0000

> <Gold.PLP.ligand.torsion>
0.7812

> <Gold.PLP.Chemscore.Hbond>
2.0000

> <Gold.PLP.Chemscore.CHOScore>
0.0000

> <Gold.PLP.Chemscore.Metal>
0.0000

> <Gold.Chemscore.Hbonds>
donor molecule, donor type, donor heavy atom, donor atom, acceptor molecule, acceptor atom, score
      L1  H     1    20       P1  8028  0.86
      P1  H  7989  7998       L1     6  1.00

> <Gold.PLP.Chemscore.Internal.Correction>
0.0397

> <Gold.Rescore>
     Score         DG    S(hbond)    S(metal)    S(lipo)     H(rot)  DE(clash)    DE(int)     intcor
     17.79     -19.80       1.48        0.00     121.87       1.91       1.59       0.43       ----

> <Gold.Chemscore.Fitness>
17.7851

> <Gold.Chemscore.DG>
-19.7963

> <Gold.Chemscore.ZeroCoef>
-5.4800

> <Gold.Chemscore.Hbond>
1.4825

> <Gold.Chemscore.Metal>
0.0000

> <Gold.Chemscore.Lipo>
121.8661

> <Gold.Chemscore.Internal_Hbond>
0.0000

> <Gold.Chemscore.DEClash>
1.5854

> <Gold.Chemscore.DEInternal>
0.4259

> <Gold.Chemscore.Rot>
1.9116

> <Gold.Chemscore.Internal.Correction>
   9.000000E+99

> <Gold.Chemscore.Hbonds>
donor molecule, donor type, donor heavy atom, donor atom, acceptor molecule, acceptor atom, score
      L1  H     1    20       P1  8028  0.80
      P1  H  7989  7998       L1     6  0.15

> <Gold.Chemscore.Hbond.Weighted>
-4.9517

> <Gold.Chemscore.Metal.Weighted>
-0.0000

> <Gold.Chemscore.Lipo.Weighted>
-14.2583

> <Gold.Chemscore.Internal_Hbond.Weighted>
0.0000

> <Gold.Chemscore.DEClash.Weighted>
1.5854

> <Gold.Chemscore.DEInternal.Weighted>
0.4259

> <Gold.Chemscore.Rot.Weighted>
4.8937

> <Gold.Chemscore.Internal.Correction.Weighted>
   9.000000E+99

> <Gold.Protein.RotatedTorsions>
[ 6907 6896 6895 6894 ] final   73.31 input  -60.11 | X-H torsion
[ 7974 7965 7964 7962 ] final  -95.11 input  175.53 | X-H torsion
[ 8008 7997 7996 7995 ] final  148.96 input   59.86 | X-H torsion
[ 10167 10162 10161 10158 ] final   33.81 input  -65.29 | X-H torsion
[ 10718 10713 10712 10709 ] final   61.04 input   66.30 | X-H torsion
[ 10763 10752 10751 10750 ] final  174.84 input  -60.55 | X-H torsion
[ 11005 11000 10999 10996 ] final  -52.72 input  -57.11 | X-H torsion

> <Gold.Protein.ActiveResidues>
 VAL166  LYS551  ARG553  GLY616  TRP617  ASP618  TYR619  PRO620  LYS621  CYS622 
 ASP623  PHE694  ASN695  SER759  ASP760  ASP761  ALA762  ILE779  LEU786  VAL792 
 PHE793  MET794  SER795  GLU796  ALA797  LYS798  CYS799  TRP800  GLU811  SER814 

> <Gold.Protein.RotatedAtoms>
  152.4916  134.4440  159.9552 H   0  0  0  0  0  0  0  0  0  0  0  0  # atno 6907 bound_to 6896
  151.4426  133.3633  159.2792 H   0  0  0  0  0  0  0  0  0  0  0  0  # atno 6908 bound_to 6896
  150.9077  134.8516  159.7464 H   0  0  0  0  0  0  0  0  0  0  0  0  # atno 6909 bound_to 6896
  145.3644  140.9496  143.2482 H   0  0  0  0  0  0  0  0  0  0  0  0  # atno 7974 bound_to 7965
  156.2772  140.2114  156.5782 H   0  0  0  0  0  0  0  0  0  0  0  0  # atno 8008 bound_to 7997
  154.7080  140.0514  157.0545 H   0  0  0  0  0  0  0  0  0  0  0  0  # atno 8009 bound_to 7997
  155.0644  140.3170  155.4653 H   0  0  0  0  0  0  0  0  0  0  0  0  # atno 8010 bound_to 7997
  140.4373  144.1238  150.6168 H   0  0  0  0  0  0  0  0  0  0  0  0  # atno 10167 bound_to 10162
  157.5798  130.8972  149.9411 H   0  0  0  0  0  0  0  0  0  0  0  0  # atno 10718 bound_to 10713
  154.4595  135.2767  155.1723 H   0  0  0  0  0  0  0  0  0  0  0  0  # atno 10763 bound_to 10752
  154.3517  135.6148  153.5650 H   0  0  0  0  0  0  0  0  0  0  0  0  # atno 10764 bound_to 10752
  152.9853  135.5813  154.4954 H   0  0  0  0  0  0  0  0  0  0  0  0  # atno 10765 bound_to 10752
  141.0939  133.6628  156.4066 H   0  0  0  0  0  0  0  0  0  0  0  0  # atno 11005 bound_to 11000
  144.8622  139.5160  143.6807 LP  0  0  0  0  0  0  0  0  0  0  0  0  # atno 17320 bound_to 7965
  146.2913  139.7148  142.9159 LP  0  0  0  0  0  0  0  0  0  0  0  0  # atno 17321 bound_to 7965
  140.4359  143.2548  151.9536 LP  0  0  0  0  0  0  0  0  0  0  0  0  # atno 17342 bound_to 10162
  139.4787  144.5701  151.8102 LP  0  0  0  0  0  0  0  0  0  0  0  0  # atno 17343 bound_to 10162
  156.0843  130.3669  150.0518 LP  0  0  0  0  0  0  0  0  0  0  0  0  # atno 17370 bound_to 10713
  156.8659  130.9507  151.3614 LP  0  0  0  0  0  0  0  0  0  0  0  0  # atno 17371 bound_to 10713
  140.5187  134.6325  157.5310 LP  0  0  0  0  0  0  0  0  0  0  0  0  # atno 17394 bound_to 11000
  139.9771  134.7198  155.9929 LP  0  0  0  0  0  0  0  0  0  0  0  0  # atno 17395 bound_to 11000

$$$$
