AV-unprocessed.smi:1549|AV-procd|sdf|6222|dock3
  -GOLD-   22720 6393D 1   1.00000     0.00000
 Structure written by MMmdl.
 41 42  0  0  0  0  0  0  0  0  1 V2000
  151.7610  138.5056  155.9070 C   0  0  0  0  0  0  0  0  0  0  0  0
  151.7512  138.2789  154.3933 C   0  0  0  0  0  0  0  0  0  0  0  0
  150.4003  138.2677  153.9417 O   0  0  0  0  0  0  0  0  0  0  0  0
  149.6233  139.3926  154.1434 C   0  0  0  0  0  0  0  0  0  0  0  0
  150.1763  140.4538  154.7834 N   0  0  0  0  0  0  0  0  0  0  0  0
  149.4167  141.5500  154.9851 C   0  0  0  0  0  0  0  0  0  0  0  0
  148.0759  141.6452  154.5695 C   0  0  0  0  0  0  0  0  0  0  0  0
  147.5007  140.5466  153.9044 C   0  0  0  0  0  0  0  0  0  0  0  0
  148.2895  139.3936  153.6731 C   0  0  0  0  0  0  0  0  0  0  0  0
  147.8001  138.2198  153.0365 N   0  0  0  0  0  0  0  0  0  0  0  0
  146.5320  137.9014  152.7267 C   0  0  0  0  0  0  0  0  0  0  0  0
  145.5550  138.6299  152.8993 O   0  0  0  0  0  0  0  0  0  0  0  0
  146.4637  136.6807  152.1760 N   0  0  0  0  0  0  0  0  0  0  0  0
  145.2496  136.0202  151.7032 C   0  0  2  0  0  0  0  0  0  0  0  0
  144.4409  135.4978  152.9061 C   0  0  0  0  0  0  0  0  0  0  0  0
  143.1984  134.7143  152.4522 C   0  0  0  0  0  0  0  0  0  0  0  0
  143.5848  133.5647  151.5063 C   0  0  1  0  0  0  0  0  0  0  0  0
  142.4180  132.9064  151.0601 O   0  0  0  0  0  0  0  0  0  0  0  0
  144.3759  134.0883  150.2955 C   0  0  0  0  0  0  0  0  0  0  0  0
  145.6199  134.8722  150.7439 C   0  0  0  0  0  0  0  0  0  0  0  0
  152.7812  138.5269  156.2909 H   0  0  0  0  0  0  0  0  0  0  0  0
  151.2248  137.7104  156.4254 H   0  0  0  0  0  0  0  0  0  0  0  0
  151.2868  139.4531  156.1641 H   0  0  0  0  0  0  0  0  0  0  0  0
  152.3094  139.0761  153.9000 H   0  0  0  0  0  0  0  0  0  0  0  0
  152.2390  137.3306  154.1631 H   0  0  0  0  0  0  0  0  0  0  0  0
  149.8898  142.3735  155.4993 H   0  0  0  0  0  0  0  0  0  0  0  0
  147.4999  142.5382  154.7617 H   0  0  0  0  0  0  0  0  0  0  0  0
  146.4669  140.6044  153.6017 H   0  0  0  0  0  0  0  0  0  0  0  0
  148.5088  137.5648  152.7393 H   0  0  0  0  0  0  0  0  0  0  0  0
  147.3251  136.1645  152.0721 H   0  0  0  0  0  0  0  0  0  0  0  0
  144.6206  136.7279  151.1599 H   0  0  0  0  0  0  0  0  0  0  0  0
  145.0678  134.8520  153.5226 H   0  0  0  0  0  0  0  0  0  0  0  0
  144.1371  136.3308  153.5412 H   0  0  0  0  0  0  0  0  0  0  0  0
  142.6710  134.3232  153.3230 H   0  0  0  0  0  0  0  0  0  0  0  0
  142.5073  135.3928  151.9496 H   0  0  0  0  0  0  0  0  0  0  0  0
  144.1920  132.8390  152.0488 H   0  0  0  0  0  0  0  0  0  0  0  0
  141.9080  133.5131  150.5455 H   0  0  0  0  0  0  0  0  0  0  0  0
  144.6747  133.2579  149.6549 H   0  0  0  0  0  0  0  0  0  0  0  0
  143.7410  134.7355  149.6884 H   0  0  0  0  0  0  0  0  0  0  0  0
  146.1385  135.2684  149.8702 H   0  0  0  0  0  0  0  0  0  0  0  0
  146.3169  134.1905  151.2337 H   0  0  0  0  0  0  0  0  0  0  0  0
  1  2  1  0  0  0  0
  1 21  1  0  0  0  0
  1 22  1  0  0  0  0
  1 23  1  0  0  0  0
  2  3  1  0  0  0  0
  2 24  1  0  0  0  0
  2 25  1  0  0  0  0
  3  4  1  0  0  0  0
  4  9  1  0  0  0  0
  4  5  2  0  0  0  0
  5  6  1  0  0  0  0
  6  7  2  0  0  0  0
  6 26  1  0  0  0  0
  7  8  1  0  0  0  0
  7 27  1  0  0  0  0
  8  9  2  0  0  0  0
  8 28  1  0  0  0  0
  9 10  1  0  0  0  0
 10 11  1  0  0  0  0
 10 29  1  0  0  0  0
 11 12  2  0  0  0  0
 11 13  1  0  0  0  0
 13 14  1  0  0  0  0
 13 30  1  0  0  0  0
 14 20  1  0  0  0  0
 14 15  1  0  0  0  0
 14 31  1  0  0  0  0
 15 16  1  0  0  0  0
 15 32  1  0  0  0  0
 15 33  1  0  0  0  0
 16 17  1  0  0  0  0
 16 34  1  0  0  0  0
 16 35  1  0  0  0  0
 17 18  1  0  0  0  0
 17 19  1  0  0  0  0
 17 36  1  0  0  0  0
 18 37  1  0  0  0  0
 19 20  1  0  0  0  0
 19 38  1  0  0  0  0
 19 39  1  0  0  0  0
 20 40  1  0  0  0  0
 20 41  1  0  0  0  0
M  END
> <s_m_source_file>
AV-unprocessed.smi

> <i_m_source_file_index>
1549

> <i_lp_mmshare_version>
43012

> <i_f3d_flags>
0

> <s_epik_input>
W0NIM11bQ0gyXU9jMW5bY0hdW2NIXVtjSF1jMVtOSF1DKD1PKVtOSF1bQ0BASF0yW0NIMl1bQ0gyXVtDQEBIXShbT0hdKVtDSDJdW0NIMl0y

> <s_epik_cmdline>
J2VwaWtfcHl0aG9uJywgJy1waCcsICc3LjAnLCAnLXRuJywgJzgnLCAnLW1hJywgJzIwMCcsICctbWV0YWxfYmluZGluZycsICctaW1hZScsICc8aW5maWxlLm1hZT4nLCAnLW9tYWUnLCAnPG91dGZpbGUubWFlPic=

> <r_lp_tautomer_probability>
1

> <r_epik_Ionization_Penalty>
0.000120387

> <r_epik_Ionization_Penalty_Charging>
0

> <r_epik_Ionization_Penalty_Neutral>
0.000120387

> <r_epik_State_Penalty>
-0

> <r_epik_Charging_Adjusted_Penalty>
0

> <i_epik_Tot_Q>
0

> <i_epik_Tot_abs_Q>
0

> <r_epik_Metal_State_Penalty>
-0

> <b_epik_Metal_Only>
0

> <s_lp_Force_Field>
OPLS_2005

> <r_lp_Energy>
10.7929

> <b_lp_Chiralities_Consistent>
1

> <s_lp_Variant>
AV-unprocessed.smi:1549-1

> <Gold.Version>
5.8.1

> <Gold.Id.Protein>
6NUR|6NUR_protein|mol2

> <Gold.PLP.Fitness>
46.0258

> <Gold.PLP.PLP>
-32.1999

> <Gold.PLP.part.hbond>
-4.6420

> <Gold.PLP.part.metal>
0.0000

> <Gold.PLP.part.buried>
-1.3639

> <Gold.PLP.part.nonpolar>
-30.4181

> <Gold.PLP.part.repulsive>
3.7441

> <Gold.PLP.ligand.clash>
0.0000

> <Gold.PLP.ligand.torsion>
0.2635

> <Gold.PLP.Chemscore.Hbond>
3.8800

> <Gold.PLP.Chemscore.CHOScore>
0.9004

> <Gold.PLP.Chemscore.Metal>
0.0000

> <Gold.Chemscore.Hbonds>
donor molecule, donor type, donor heavy atom, donor atom, acceptor molecule, acceptor atom, score
      L1  H    10    29       P1  7948  1.00
      L1  H    13    30       P1  7948  0.94
      L1  H    18    37       P1 10186  1.00
      P1  H  7989  7998       L1     5  0.93
      L1  C     6    26       P1  8028  0.82

> <Gold.PLP.Chemscore.Internal.Correction>
0.0116

> <Gold.Rescore>
     Score         DG    S(hbond)    S(metal)    S(lipo)     H(rot)  DE(clash)    DE(int)     intcor
     14.67     -19.14       3.04        0.00      72.35       1.93       1.71       2.76       ----

> <Gold.Chemscore.Fitness>
14.6734

> <Gold.Chemscore.DG>
-19.1387

> <Gold.Chemscore.ZeroCoef>
-5.4800

> <Gold.Chemscore.Hbond>
3.0358

> <Gold.Chemscore.Metal>
0.0000

> <Gold.Chemscore.Lipo>
72.3467

> <Gold.Chemscore.Internal_Hbond>
0.0000

> <Gold.Chemscore.DEClash>
1.7098

> <Gold.Chemscore.DEInternal>
2.7555

> <Gold.Chemscore.Rot>
1.9318

> <Gold.Chemscore.Internal.Correction>
   9.000000E+99

> <Gold.Chemscore.Hbonds>
donor molecule, donor type, donor heavy atom, donor atom, acceptor molecule, acceptor atom, score
      L1  H    10    29       P1  7948  0.95
      L1  H    13    30       P1  7948  0.90
      L1  H    18    37       P1 10186  0.93
      P1  H  7989  7998       L1     5  0.14

> <Gold.Chemscore.Hbond.Weighted>
-10.1395

> <Gold.Chemscore.Metal.Weighted>
-0.0000

> <Gold.Chemscore.Lipo.Weighted>
-8.4646

> <Gold.Chemscore.Internal_Hbond.Weighted>
0.0000

> <Gold.Chemscore.DEClash.Weighted>
1.7098

> <Gold.Chemscore.DEInternal.Weighted>
2.7555

> <Gold.Chemscore.Rot.Weighted>
4.9454

> <Gold.Chemscore.Internal.Correction.Weighted>
   9.000000E+99

> <Gold.Protein.RotatedTorsions>
[ 6907 6896 6895 6894 ] final -107.94 input  -60.11 | X-H torsion
[ 7974 7965 7964 7962 ] final  -86.35 input  175.53 | X-H torsion
[ 8008 7997 7996 7995 ] final   77.08 input   59.86 | X-H torsion
[ 10167 10162 10161 10158 ] final  179.07 input  -65.29 | X-H torsion
[ 10718 10713 10712 10709 ] final  152.59 input   66.30 | X-H torsion
[ 10763 10752 10751 10750 ] final  -66.38 input  -60.55 | X-H torsion
[ 11005 11000 10999 10996 ] final  144.69 input  -57.11 | X-H torsion

> <Gold.Protein.ActiveResidues>
 VAL166  LYS551  ARG553  GLY616  TRP617  ASP618  TYR619  PRO620  LYS621  CYS622 
 ASP623  PHE694  ASN695  SER759  ASP760  ASP761  ALA762  ILE779  LEU786  VAL792 
 PHE793  MET794  SER795  GLU796  ALA797  LYS798  CYS799  TRP800  GLU811  SER814 

> <Gold.Protein.RotatedAtoms>
  150.7473  133.9751  159.3557 H   0  0  0  0  0  0  0  0  0  0  0  0  # atno 6907 bound_to 6896
  151.7688  135.0789  160.0366 H   0  0  0  0  0  0  0  0  0  0  0  0  # atno 6908 bound_to 6896
  152.3353  133.5968  159.5874 H   0  0  0  0  0  0  0  0  0  0  0  0  # atno 6909 bound_to 6896
  145.4811  140.9557  143.1864 H   0  0  0  0  0  0  0  0  0  0  0  0  # atno 7974 bound_to 7965
  155.8364  140.3464  155.5604 H   0  0  0  0  0  0  0  0  0  0  0  0  # atno 8008 bound_to 7997
  155.8187  140.0909  157.1881 H   0  0  0  0  0  0  0  0  0  0  0  0  # atno 8009 bound_to 7997
  154.4004  140.1434  156.3461 H   0  0  0  0  0  0  0  0  0  0  0  0  # atno 8010 bound_to 7997
  139.5320  144.2605  152.0711 H   0  0  0  0  0  0  0  0  0  0  0  0  # atno 10167 bound_to 10162
  157.2558  131.0788  151.1699 H   0  0  0  0  0  0  0  0  0  0  0  0  # atno 10718 bound_to 10713
  154.3590  135.6120  153.5681 H   0  0  0  0  0  0  0  0  0  0  0  0  # atno 10763 bound_to 10752
  152.9794  135.5810  154.4655 H   0  0  0  0  0  0  0  0  0  0  0  0  # atno 10764 bound_to 10752
  154.4390  135.2849  155.1838 H   0  0  0  0  0  0  0  0  0  0  0  0  # atno 10765 bound_to 10752
  140.0652  134.9182  157.1252 H   0  0  0  0  0  0  0  0  0  0  0  0  # atno 11005 bound_to 11000
  144.7888  139.6370  143.7122 LP  0  0  0  0  0  0  0  0  0  0  0  0  # atno 17320 bound_to 7965
  146.2340  139.5870  142.9536 LP  0  0  0  0  0  0  0  0  0  0  0  0  # atno 17321 bound_to 7965
  140.2070  144.4601  150.6404 LP  0  0  0  0  0  0  0  0  0  0  0  0  # atno 17342 bound_to 10162
  140.6505  143.2223  151.6089 LP  0  0  0  0  0  0  0  0  0  0  0  0  # atno 17343 bound_to 10162
  157.3229  130.6946  149.6279 LP  0  0  0  0  0  0  0  0  0  0  0  0  # atno 17370 bound_to 10713
  155.9665  130.4330  150.4987 LP  0  0  0  0  0  0  0  0  0  0  0  0  # atno 17371 bound_to 10713
  140.3710  134.2390  155.7178 LP  0  0  0  0  0  0  0  0  0  0  0  0  # atno 17394 bound_to 11000
  141.1990  133.8023  157.0558 LP  0  0  0  0  0  0  0  0  0  0  0  0  # atno 17395 bound_to 11000

$$$$
