AV-unprocessed.smi:937|AV-procd|sdf|4209|dock10
  -GOLD-   22720 2113D 1   1.00000     0.00000
 Structure written by MMmdl.
 45 46  0  0  0  0  0  0  0  0  1 V2000
  152.4964  141.5348  159.2099 C   0  0  0  0  0  0  0  0  0  0  0  0
  151.8563  140.8619  158.0137 C   0  0  0  0  0  0  0  0  0  0  0  0
  150.6344  141.3349  157.4911 C   0  0  0  0  0  0  0  0  0  0  0  0
  150.0791  140.6720  156.3800 C   0  0  0  0  0  0  0  0  0  0  0  0
  150.7635  139.5659  155.8365 C   0  0  0  0  0  0  0  0  0  0  0  0
  150.2031  138.8172  154.6439 C   0  0  0  0  0  0  0  0  0  0  0  0
  148.7212  139.1450  154.4017 C   0  0  0  0  0  0  0  0  0  0  0  0
  148.1119  138.1982  153.4764 N   0  0  0  0  0  0  0  0  0  0  0  0
  146.7964  138.1162  153.2151 C   0  0  0  0  0  0  0  0  0  0  0  0
  145.9537  138.8335  153.7511 O   0  0  0  0  0  0  0  0  0  0  0  0
  146.4567  137.1815  152.3097 N   0  0  0  0  0  0  0  0  0  0  0  0
  145.1239  136.8365  151.8046 C   0  0  2  0  0  0  0  0  0  0  0  0
  144.0955  136.7148  152.9499 C   0  0  0  0  0  0  0  0  0  0  0  0
  144.3568  135.4835  153.8321 C   0  0  0  0  0  0  0  0  0  0  0  0
  144.4017  134.1962  152.9942 C   0  0  0  0  0  0  0  0  0  0  0  0
  145.4536  134.2843  151.8685 C   0  0  1  0  0  0  0  0  0  0  0  0
  145.5151  132.9900  151.0313 C   0  0  0  0  0  0  0  0  0  0  0  0
  144.3685  132.7894  150.3810 F   0  0  0  0  0  0  0  0  0  0  0  0
  146.5062  133.0685  150.1433 F   0  0  0  0  0  0  0  0  0  0  0  0
  145.7498  131.9441  151.8237 F   0  0  0  0  0  0  0  0  0  0  0  0
  145.1902  135.5291  150.9895 C   0  0  0  0  0  0  0  0  0  0  0  0
  151.9783  139.1712  156.4356 C   0  0  0  0  0  0  0  0  0  0  0  0
  152.5180  139.8004  157.5018 N   0  0  0  0  0  0  0  0  0  0  0  0
  152.1866  142.5778  159.2805 H   0  0  0  0  0  0  0  0  0  0  0  0
  153.5841  141.5109  159.1352 H   0  0  0  0  0  0  0  0  0  0  0  0
  152.2028  141.0266  160.1285 H   0  0  0  0  0  0  0  0  0  0  0  0
  150.1326  142.1849  157.9299 H   0  0  0  0  0  0  0  0  0  0  0  0
  149.1437  141.0066  155.9552 H   0  0  0  0  0  0  0  0  0  0  0  0
  150.7961  139.0673  153.7631 H   0  0  0  0  0  0  0  0  0  0  0  0
  150.3286  137.7455  154.8044 H   0  0  0  0  0  0  0  0  0  0  0  0
  148.1714  139.1036  155.3424 H   0  0  0  0  0  0  0  0  0  0  0  0
  148.6107  140.1622  154.0215 H   0  0  0  0  0  0  0  0  0  0  0  0
  148.7333  137.5669  152.9922 H   0  0  0  0  0  0  0  0  0  0  0  0
  147.2169  136.6324  151.9351 H   0  0  0  0  0  0  0  0  0  0  0  0
  144.7984  137.6244  151.1235 H   0  0  0  0  0  0  0  0  0  0  0  0
  144.0899  137.6169  153.5626 H   0  0  0  0  0  0  0  0  0  0  0  0
  143.0950  136.6374  152.5227 H   0  0  0  0  0  0  0  0  0  0  0  0
  145.2984  135.6059  154.3687 H   0  0  0  0  0  0  0  0  0  0  0  0
  143.5795  135.4026  154.5924 H   0  0  0  0  0  0  0  0  0  0  0  0
  144.6197  133.3498  153.6460 H   0  0  0  0  0  0  0  0  0  0  0  0
  143.4165  134.0082  152.5657 H   0  0  0  0  0  0  0  0  0  0  0  0
  146.4303  134.4066  152.3394 H   0  0  0  0  0  0  0  0  0  0  0  0
  144.2470  135.3981  150.4576 H   0  0  0  0  0  0  0  0  0  0  0  0
  145.9580  135.6163  150.2198 H   0  0  0  0  0  0  0  0  0  0  0  0
  152.5314  138.3264  156.0519 H   0  0  0  0  0  0  0  0  0  0  0  0
  1  2  1  0  0  0  0
  1 24  1  0  0  0  0
  1 25  1  0  0  0  0
  1 26  1  0  0  0  0
  2 23  1  0  0  0  0
  2  3  2  0  0  0  0
  3  4  1  0  0  0  0
  3 27  1  0  0  0  0
  4  5  2  0  0  0  0
  4 28  1  0  0  0  0
  5  6  1  0  0  0  0
  5 22  1  0  0  0  0
  6  7  1  0  0  0  0
  6 29  1  0  0  0  0
  6 30  1  0  0  0  0
  7  8  1  0  0  0  0
  7 31  1  0  0  0  0
  7 32  1  0  0  0  0
  8  9  1  0  0  0  0
  8 33  1  0  0  0  0
  9 10  2  0  0  0  0
  9 11  1  0  0  0  0
 11 12  1  0  0  0  0
 11 34  1  0  0  0  0
 12 21  1  0  0  0  0
 12 13  1  0  0  0  0
 12 35  1  0  0  0  0
 13 14  1  0  0  0  0
 13 36  1  0  0  0  0
 13 37  1  0  0  0  0
 14 15  1  0  0  0  0
 14 38  1  0  0  0  0
 14 39  1  0  0  0  0
 15 16  1  0  0  0  0
 15 40  1  0  0  0  0
 15 41  1  0  0  0  0
 16 17  1  0  0  0  0
 16 21  1  0  0  0  0
 16 42  1  0  0  0  0
 17 18  1  0  0  0  0
 17 19  1  0  0  0  0
 17 20  1  0  0  0  0
 21 43  1  0  0  0  0
 21 44  1  0  0  0  0
 22 23  2  0  0  0  0
 22 45  1  0  0  0  0
M  END
> <s_m_source_file>
AV-unprocessed.smi

> <i_m_source_file_index>
937

> <i_lp_mmshare_version>
43012

> <i_f3d_flags>
0

> <s_epik_input>
W0NIM11jMVtjSF1bY0hdYyhbY0hdbjEpW0NIMl1bQ0gyXVtOSF1DKD1PKVtOSF1bQ0BASF0yW0NIMl1bQ0gyXVtDSDJdW0NAQEhdKEMoRikoRilGKVtDSDJdMg==

> <s_epik_cmdline>
J2VwaWtfcHl0aG9uJywgJy1waCcsICc3LjAnLCAnLXRuJywgJzgnLCAnLW1hJywgJzIwMCcsICctbWV0YWxfYmluZGluZycsICctaW1hZScsICc8aW5maWxlLm1hZT4nLCAnLW9tYWUnLCAnPG91dGZpbGUubWFlPic=

> <r_epik_Ionization_Penalty>
0.0563445

> <r_epik_Ionization_Penalty_Charging>
0

> <r_epik_Ionization_Penalty_Neutral>
0.0563445

> <r_epik_State_Penalty>
0.0485409

> <r_epik_Charging_Adjusted_Penalty>
0.0485409

> <i_epik_Tot_Q>
0

> <i_epik_Tot_abs_Q>
0

> <r_epik_Metal_State_Penalty>
0.0443056

> <b_epik_Metal_Only>
0

> <s_lp_Force_Field>
OPLS_2005

> <r_lp_Energy>
16.8022

> <b_lp_Chiralities_Consistent>
1

> <s_lp_Variant>
AV-unprocessed.smi:937-1

> <Gold.Version>
5.8.1

> <Gold.Id.Protein>
6NUR|6NUR_protein|mol2

> <Gold.PLP.Fitness>
47.9861

> <Gold.PLP.PLP>
-40.0013

> <Gold.PLP.part.hbond>
-4.0000

> <Gold.PLP.part.metal>
0.0000

> <Gold.PLP.part.buried>
-0.0360

> <Gold.PLP.part.nonpolar>
-37.1960

> <Gold.PLP.part.repulsive>
1.9686

> <Gold.PLP.ligand.clash>
0.0000

> <Gold.PLP.ligand.torsion>
0.4508

> <Gold.PLP.Chemscore.Hbond>
2.9520

> <Gold.PLP.Chemscore.CHOScore>
0.0000

> <Gold.PLP.Chemscore.Metal>
0.0000

> <Gold.Chemscore.Hbonds>
donor molecule, donor type, donor heavy atom, donor atom, acceptor molecule, acceptor atom, score
      L1  H     8    33       P1  7948  1.00
      L1  H    11    34       P1  7948  1.00
      P1  H  7997  8009       L1    23  0.88

> <Gold.PLP.Chemscore.Internal.Correction>
0.0304

> <Gold.Rescore>
     Score         DG    S(hbond)    S(metal)    S(lipo)     H(rot)  DE(clash)    DE(int)     intcor
     18.39     -20.00       2.77        0.00      79.58       1.58       0.01       1.60       ----

> <Gold.Chemscore.Fitness>
18.3902

> <Gold.Chemscore.DG>
-19.9974

> <Gold.Chemscore.ZeroCoef>
-5.4800

> <Gold.Chemscore.Hbond>
2.7735

> <Gold.Chemscore.Metal>
0.0000

> <Gold.Chemscore.Lipo>
79.5830

> <Gold.Chemscore.Internal_Hbond>
0.0000

> <Gold.Chemscore.DEClash>
0.0089

> <Gold.Chemscore.DEInternal>
1.5983

> <Gold.Chemscore.Rot>
1.5849

> <Gold.Chemscore.Internal.Correction>
   9.000000E+99

> <Gold.Chemscore.Hbonds>
donor molecule, donor type, donor heavy atom, donor atom, acceptor molecule, acceptor atom, score
      L1  H     8    33       P1  7948  0.94
      L1  H    11    34       P1  7948  0.96
      P1  H  7997  8009       L1    23  0.18

> <Gold.Chemscore.Hbond.Weighted>
-9.2636

> <Gold.Chemscore.Metal.Weighted>
-0.0000

> <Gold.Chemscore.Lipo.Weighted>
-9.3112

> <Gold.Chemscore.Internal_Hbond.Weighted>
0.0000

> <Gold.Chemscore.DEClash.Weighted>
0.0089

> <Gold.Chemscore.DEInternal.Weighted>
1.5983

> <Gold.Chemscore.Rot.Weighted>
4.0574

> <Gold.Chemscore.Internal.Correction.Weighted>
   9.000000E+99

> <Gold.Protein.RotatedTorsions>
[ 6907 6896 6895 6894 ] final  -32.37 input  -60.11 | X-H torsion
[ 7974 7965 7964 7962 ] final   66.22 input  175.53 | X-H torsion
[ 8008 7997 7996 7995 ] final  170.14 input   59.86 | X-H torsion
[ 10167 10162 10161 10158 ] final  130.11 input  -65.29 | X-H torsion
[ 10718 10713 10712 10709 ] final  159.64 input   66.30 | X-H torsion
[ 10763 10752 10751 10750 ] final   32.11 input  -60.55 | X-H torsion
[ 11005 11000 10999 10996 ] final  121.29 input  -57.11 | X-H torsion

> <Gold.Protein.ActiveResidues>
 VAL166  LYS551  ARG553  GLY616  TRP617  ASP618  TYR619  PRO620  LYS621  CYS622 
 ASP623  PHE694  ASN695  SER759  ASP760  ASP761  ALA762  ILE779  LEU786  VAL792 
 PHE793  MET794  SER795  GLU796  ALA797  LYS798  CYS799  TRP800  GLU811  SER814 

> <Gold.Protein.RotatedAtoms>
  151.0796  134.9850  159.8349 H   0  0  0  0  0  0  0  0  0  0  0  0  # atno 6907 bound_to 6896
  152.5418  134.2198  159.8793 H   0  0  0  0  0  0  0  0  0  0  0  0  # atno 6908 bound_to 6896
  151.2227  133.4450  159.2634 H   0  0  0  0  0  0  0  0  0  0  0  0  # atno 6909 bound_to 6896
  145.8292  139.3129  143.0998 H   0  0  0  0  0  0  0  0  0  0  0  0  # atno 7974 bound_to 7965
  156.1393  140.1546  156.8945 H   0  0  0  0  0  0  0  0  0  0  0  0  # atno 8008 bound_to 7997
  154.4974  140.0834  156.7764 H   0  0  0  0  0  0  0  0  0  0  0  0  # atno 8009 bound_to 7997
  155.4108  140.3419  155.4266 H   0  0  0  0  0  0  0  0  0  0  0  0  # atno 8010 bound_to 7997
  139.5445  144.6761  151.4516 H   0  0  0  0  0  0  0  0  0  0  0  0  # atno 10167 bound_to 10162
  157.1613  131.0588  151.2230 H   0  0  0  0  0  0  0  0  0  0  0  0  # atno 10718 bound_to 10713
  153.0280  135.6422  154.1303 H   0  0  0  0  0  0  0  0  0  0  0  0  # atno 10763 bound_to 10752
  154.1029  135.2858  155.3249 H   0  0  0  0  0  0  0  0  0  0  0  0  # atno 10764 bound_to 10752
  154.6385  135.5468  153.7825 H   0  0  0  0  0  0  0  0  0  0  0  0  # atno 10765 bound_to 10752
  139.9220  134.9638  156.7935 H   0  0  0  0  0  0  0  0  0  0  0  0  # atno 11005 bound_to 11000
  145.9590  140.8850  143.0220 LP  0  0  0  0  0  0  0  0  0  0  0  0  # atno 17320 bound_to 7965
  144.6741  140.1786  143.7408 LP  0  0  0  0  0  0  0  0  0  0  0  0  # atno 17321 bound_to 7965
  140.6688  143.8339  150.6974 LP  0  0  0  0  0  0  0  0  0  0  0  0  # atno 17342 bound_to 10162
  140.1756  143.4157  152.1969 LP  0  0  0  0  0  0  0  0  0  0  0  0  # atno 17343 bound_to 10162
  157.4129  130.7395  149.6853 LP  0  0  0  0  0  0  0  0  0  0  0  0  # atno 17370 bound_to 10713
  155.9753  130.4090  150.3858 LP  0  0  0  0  0  0  0  0  0  0  0  0  # atno 17371 bound_to 10713
  140.6447  133.9786  155.7725 LP  0  0  0  0  0  0  0  0  0  0  0  0  # atno 17394 bound_to 11000
  141.0748  134.0152  157.3474 LP  0  0  0  0  0  0  0  0  0  0  0  0  # atno 17395 bound_to 11000

$$$$
