AV-unprocessed.smi:2252|AV-procd|sdf|9103|dock3
  -GOLD-   2272012303D 1   1.00000     0.00000
 Structure written by MMmdl.
 46 48  0  0  0  0  0  0  0  0  3 V2000
  152.9714  142.2813  160.0019 C   0  0  0  0  0  0  0  0  0  0  0  0
  152.1724  143.2441  159.2415 N   0  0  0  0  0  0  0  0  0  0  0  0
  151.9975  144.5724  159.5343 C   0  0  0  0  0  0  0  0  0  0  0  0
  151.1846  145.0865  158.5582 C   0  0  0  0  0  0  0  0  0  0  0  0
  150.8964  144.0515  157.7107 N   0  3  0  0  0  0  0  0  0  0  0  0
  151.4914  142.9276  158.1277 C   0  0  0  0  0  0  0  0  0  0  0  0
  151.4119  141.5992  157.4424 C   0  0  0  0  0  0  0  0  0  0  0  0
  150.6364  141.6651  156.1162 C   0  0  0  0  0  0  0  0  0  0  0  0
  149.7302  140.5337  155.9587 N   0  0  0  0  0  0  0  0  0  0  0  0
  149.8628  139.5628  155.0413 C   0  0  0  0  0  0  0  0  0  0  0  0
  150.7778  139.5353  154.2174 O   0  0  0  0  0  0  0  0  0  0  0  0
  148.8119  138.4423  155.0654 C   0  0  2  0  0  0  0  0  0  0  0  0
  149.4975  137.1318  155.5078 C   0  0  0  0  0  0  0  0  0  0  0  0
  150.8569  137.1430  156.1726 C   0  0  0  0  0  0  0  0  0  0  0  0
  150.7115  136.6026  154.7734 C   0  0  0  0  0  0  0  0  0  0  0  0
  148.1396  138.2866  153.7436 N   0  3  0  0  0  0  0  0  0  0  0  0
  146.8612  137.5439  153.7685 C   0  0  0  0  0  0  0  0  0  0  0  0
  146.1196  137.9247  152.4828 C   0  0  0  0  0  0  0  0  0  0  0  0
  146.8074  139.1937  151.9699 C   0  0  0  0  0  0  0  0  0  0  0  0
  147.8410  139.5520  153.0381 C   0  0  0  0  0  0  0  0  0  0  0  0
  153.5102  142.8001  160.7954 H   0  0  0  0  0  0  0  0  0  0  0  0
  153.6882  141.7977  159.3376 H   0  0  0  0  0  0  0  0  0  0  0  0
  152.3109  141.5340  160.4425 H   0  0  0  0  0  0  0  0  0  0  0  0
  152.4544  145.0433  160.3929 H   0  0  0  0  0  0  0  0  0  0  0  0
  150.8014  146.0851  158.4062 H   0  0  0  0  0  0  0  0  0  0  0  0
  152.4299  141.2411  157.2877 H   0  0  0  0  0  0  0  0  0  0  0  0
  150.9339  140.9153  158.1449 H   0  0  0  0  0  0  0  0  0  0  0  0
  150.0762  142.5992  156.0461 H   0  0  0  0  0  0  0  0  0  0  0  0
  151.3325  141.6573  155.2772 H   0  0  0  0  0  0  0  0  0  0  0  0
  148.9561  140.4768  156.6053 H   0  0  0  0  0  0  0  0  0  0  0  0
  148.0476  138.7034  155.8004 H   0  0  0  0  0  0  0  0  0  0  0  0
  148.8011  136.3713  155.8580 H   0  0  0  0  0  0  0  0  0  0  0  0
  151.3615  138.1002  156.2874 H   0  0  0  0  0  0  0  0  0  0  0  0
  151.0282  136.4271  156.9738 H   0  0  0  0  0  0  0  0  0  0  0  0
  150.7883  135.5253  154.6401 H   0  0  0  0  0  0  0  0  0  0  0  0
  151.1208  137.2022  153.9629 H   0  0  0  0  0  0  0  0  0  0  0  0
  147.0195  136.4678  153.8463 H   0  0  0  0  0  0  0  0  0  0  0  0
  146.2734  137.8615  154.6314 H   0  0  0  0  0  0  0  0  0  0  0  0
  146.2018  137.1297  151.7405 H   0  0  0  0  0  0  0  0  0  0  0  0
  145.0581  138.0862  152.6740 H   0  0  0  0  0  0  0  0  0  0  0  0
  147.3069  138.9838  151.0231 H   0  0  0  0  0  0  0  0  0  0  0  0
  146.1030  140.0081  151.7969 H   0  0  0  0  0  0  0  0  0  0  0  0
  147.4082  140.2670  153.7397 H   0  0  0  0  0  0  0  0  0  0  0  0
  148.7340  140.0044  152.6053 H   0  0  0  0  0  0  0  0  0  0  0  0
  148.7640  137.7632  153.1464 H   0  0  0  0  0  0  0  0  0  0  0  0
  150.3170  144.1241  156.8837 H   0  0  0  0  0  0  0  0  0  0  0  0
  1  2  1  0  0  0  0
  1 21  1  0  0  0  0
  1 22  1  0  0  0  0
  1 23  1  0  0  0  0
  2  6  1  0  0  0  0
  2  3  1  0  0  0  0
  3  4  2  0  0  0  0
  3 24  1  0  0  0  0
  4  5  1  0  0  0  0
  4 25  1  0  0  0  0
  5  6  2  0  0  0  0
  5 46  1  0  0  0  0
  6  7  1  0  0  0  0
  7  8  1  0  0  0  0
  7 26  1  0  0  0  0
  7 27  1  0  0  0  0
  8  9  1  0  0  0  0
  8 28  1  0  0  0  0
  8 29  1  0  0  0  0
  9 10  1  0  0  0  0
  9 30  1  0  0  0  0
 10 11  2  0  0  0  0
 10 12  1  0  0  0  0
 12 13  1  0  0  0  0
 12 16  1  0  0  0  0
 12 31  1  0  0  0  0
 13 15  1  0  0  0  0
 13 14  1  0  0  0  0
 13 32  1  0  0  0  0
 14 15  1  0  0  0  0
 14 33  1  0  0  0  0
 14 34  1  0  0  0  0
 15 35  1  0  0  0  0
 15 36  1  0  0  0  0
 16 20  1  0  0  0  0
 16 17  1  0  0  0  0
 16 45  1  0  0  0  0
 17 18  1  0  0  0  0
 17 37  1  0  0  0  0
 17 38  1  0  0  0  0
 18 19  1  0  0  0  0
 18 39  1  0  0  0  0
 18 40  1  0  0  0  0
 19 20  1  0  0  0  0
 19 41  1  0  0  0  0
 19 42  1  0  0  0  0
 20 43  1  0  0  0  0
 20 44  1  0  0  0  0
M  CHG  1   5   1
M  CHG  1  16   1
M  END
> <s_m_source_file>
AV-unprocessed.smi

> <i_m_source_file_index>
2252

> <i_lp_mmshare_version>
43012

> <i_f3d_flags>
0

> <s_epik_input>
W0NIM11uMVtjSF1bY0hdbmMxW0NIMl1bQ0gyXVtOSF1DKD1PKVtDQEhdKFtDSF0yW0NIMl1bQ0gyXTIpTjNbQ0gyXVtDSDJdW0NIMl1bQ0gyXTM=

> <s_epik_cmdline>
J2VwaWtfcHl0aG9uJywgJy1waCcsICc3LjAnLCAnLXRuJywgJzgnLCAnLW1hJywgJzIwMCcsICctbWV0YWxfYmluZGluZycsICctaW1hZScsICc8aW5maWxlLm1hZT4nLCAnLW9tYWUnLCAnPG91dGZpbGUubWFlPic=

> <r_lp_tautomer_probability>
1

> <r_epik_Ionization_Penalty>
0.116886

> <r_epik_Ionization_Penalty_Charging>
0.00955009

> <r_epik_Ionization_Penalty_Neutral>
0.107336

> <r_epik_State_Penalty>
0.0956868

> <r_epik_Charging_Adjusted_Penalty>
0.105237

> <i_epik_Tot_Q>
2

> <i_epik_Tot_abs_Q>
2

> <r_epik_Metal_State_Penalty>
0.438836

> <b_epik_Metal_Only>
0

> <s_lp_Force_Field>
OPLS_2005

> <r_lp_Energy>
40.5803

> <b_lp_Chiralities_Consistent>
1

> <s_lp_Variant>
AV-unprocessed.smi:2252-1

> <Gold.Version>
5.8.1

> <Gold.Id.Protein>
6NUR|6NUR_protein|mol2

> <Gold.PLP.Fitness>
51.3282

> <Gold.PLP.PLP>
-37.8905

> <Gold.PLP.part.hbond>
-3.0000

> <Gold.PLP.part.metal>
0.0000

> <Gold.PLP.part.buried>
-0.6109

> <Gold.PLP.part.nonpolar>
-34.4448

> <Gold.PLP.part.repulsive>
0.2555

> <Gold.PLP.ligand.clash>
0.0000

> <Gold.PLP.ligand.torsion>
1.3703

> <Gold.PLP.Chemscore.Hbond>
5.0000

> <Gold.PLP.Chemscore.CHOScore>
0.0000

> <Gold.PLP.Chemscore.Metal>
0.0000

> <Gold.Chemscore.Hbonds>
donor molecule, donor type, donor heavy atom, donor atom, acceptor molecule, acceptor atom, score
      L1  H     5    46       P1  8028  2.00
      L1  H    16    45       P1  7948  1.89
      P1  H  7989  7998       L1    11  1.00

> <Gold.PLP.Chemscore.Internal.Correction>
1.1784

> <Gold.Rescore>
     Score         DG    S(hbond)    S(metal)    S(lipo)     H(rot)  DE(clash)    DE(int)     intcor
     17.04     -20.52       2.91        0.00      90.23       2.05       1.08       2.41       ----

> <Gold.Chemscore.Fitness>
17.0395

> <Gold.Chemscore.DG>
-20.5231

> <Gold.Chemscore.ZeroCoef>
-5.4800

> <Gold.Chemscore.Hbond>
2.9112

> <Gold.Chemscore.Metal>
0.0000

> <Gold.Chemscore.Lipo>
90.2261

> <Gold.Chemscore.Internal_Hbond>
0.0000

> <Gold.Chemscore.DEClash>
1.0754

> <Gold.Chemscore.DEInternal>
2.4082

> <Gold.Chemscore.Rot>
2.0456

> <Gold.Chemscore.Internal.Correction>
   9.000000E+99

> <Gold.Chemscore.Hbonds>
donor molecule, donor type, donor heavy atom, donor atom, acceptor molecule, acceptor atom, score
      L1  H     5    46       P1  8028  0.96
      L1  H    16    45       P1  7948  0.89
      P1  H  7989  7998       L1    11  1.00

> <Gold.Chemscore.Hbond.Weighted>
-9.7234

> <Gold.Chemscore.Metal.Weighted>
-0.0000

> <Gold.Chemscore.Lipo.Weighted>
-10.5565

> <Gold.Chemscore.Internal_Hbond.Weighted>
0.0000

> <Gold.Chemscore.DEClash.Weighted>
1.0754

> <Gold.Chemscore.DEInternal.Weighted>
2.4082

> <Gold.Chemscore.Rot.Weighted>
5.2368

> <Gold.Chemscore.Internal.Correction.Weighted>
   9.000000E+99

> <Gold.Protein.RotatedTorsions>
[ 6907 6896 6895 6894 ] final -106.75 input  -60.11 | X-H torsion
[ 7974 7965 7964 7962 ] final  175.23 input  175.53 | X-H torsion
[ 8008 7997 7996 7995 ] final   90.56 input   59.86 | X-H torsion
[ 10167 10162 10161 10158 ] final  -75.38 input  -65.29 | X-H torsion
[ 10718 10713 10712 10709 ] final  145.83 input   66.30 | X-H torsion
[ 10763 10752 10751 10750 ] final  139.69 input  -60.55 | X-H torsion
[ 11005 11000 10999 10996 ] final   96.55 input  -57.11 | X-H torsion

> <Gold.Protein.ActiveResidues>
 VAL166  LYS551  ARG553  GLY616  TRP617  ASP618  TYR619  PRO620  LYS621  CYS622 
 ASP623  PHE694  ASN695  SER759  ASP760  ASP761  ALA762  ILE779  LEU786  VAL792 
 PHE793  MET794  SER795  GLU796  ALA797  LYS798  CYS799  TRP800  GLU811  SER814 

> <Gold.Protein.RotatedAtoms>
  150.7406  133.9930  159.3612 H   0  0  0  0  0  0  0  0  0  0  0  0  # atno 6907 bound_to 6896
  151.7879  135.0742  160.0392 H   0  0  0  0  0  0  0  0  0  0  0  0  # atno 6908 bound_to 6896
  152.3228  133.5836  159.5792 H   0  0  0  0  0  0  0  0  0  0  0  0  # atno 6909 bound_to 6896
  144.7206  139.9915  143.6440 H   0  0  0  0  0  0  0  0  0  0  0  0  # atno 7974 bound_to 7965
  156.0134  140.3348  155.6964 H   0  0  0  0  0  0  0  0  0  0  0  0  # atno 8008 bound_to 7997
  155.6125  140.0667  157.2719 H   0  0  0  0  0  0  0  0  0  0  0  0  # atno 8009 bound_to 7997
  154.4289  140.1791  156.1275 H   0  0  0  0  0  0  0  0  0  0  0  0  # atno 8010 bound_to 7997
  140.4948  143.2373  151.7849 H   0  0  0  0  0  0  0  0  0  0  0  0  # atno 10167 bound_to 10162
  157.3405  131.0935  151.1086 H   0  0  0  0  0  0  0  0  0  0  0  0  # atno 10718 bound_to 10713
  153.9103  135.3012  155.3448 H   0  0  0  0  0  0  0  0  0  0  0  0  # atno 10763 bound_to 10752
  154.7626  135.4926  153.9497 H   0  0  0  0  0  0  0  0  0  0  0  0  # atno 10764 bound_to 10752
  153.1196  135.6779  153.9460 H   0  0  0  0  0  0  0  0  0  0  0  0  # atno 10765 bound_to 10752
  139.8781  134.8956  156.4175 H   0  0  0  0  0  0  0  0  0  0  0  0  # atno 11005 bound_to 11000
  146.0408  139.3419  143.0699 LP  0  0  0  0  0  0  0  0  0  0  0  0  # atno 17320 bound_to 7965
  145.8337  140.9617  143.0835 LP  0  0  0  0  0  0  0  0  0  0  0  0  # atno 17321 bound_to 7965
  139.4859  144.4602  151.9550 LP  0  0  0  0  0  0  0  0  0  0  0  0  # atno 17342 bound_to 10162
  140.3689  144.2880  150.5922 LP  0  0  0  0  0  0  0  0  0  0  0  0  # atno 17343 bound_to 10162
  157.2300  130.6521  149.5846 LP  0  0  0  0  0  0  0  0  0  0  0  0  # atno 17370 bound_to 10713
  155.9707  130.4602  150.6063 LP  0  0  0  0  0  0  0  0  0  0  0  0  # atno 17371 bound_to 10713
  140.9157  133.7680  155.9845 LP  0  0  0  0  0  0  0  0  0  0  0  0  # atno 17394 bound_to 11000
  140.8496  134.2969  157.5280 LP  0  0  0  0  0  0  0  0  0  0  0  0  # atno 17395 bound_to 11000

$$$$
