AV-unprocessed.smi:3174|AV-procd|sdf|12121|dock3
  -GOLD-   2272017563D 1   1.00000     0.00000
 Structure written by MMmdl.
 32 33  0  0  0  0  0  0  0  0  1 V2000
  151.4082  140.0899  155.6005 C   0  0  0  0  0  0  0  0  0  0  0  0
  152.7539  139.6677  155.7309 O   0  0  0  0  0  0  0  0  0  0  0  0
  152.8638  138.3087  156.1199 C   0  0  0  0  0  0  0  0  0  0  0  0
  151.9998  138.0496  157.3652 C   0  0  0  0  0  0  0  0  0  0  0  0
  152.6705  138.4877  158.5946 N   0  0  0  0  0  0  0  0  0  0  0  0
  152.6688  139.8611  158.7754 N   0  0  0  0  0  0  0  0  0  0  0  0
  153.2161  140.3804  159.8268 C   0  0  0  0  0  0  0  0  0  0  0  0
  153.2331  141.8516  160.0587 C   0  0  0  0  0  0  0  0  0  0  0  0
  153.5858  142.3352  161.1359 O   0  0  0  0  0  0  0  0  0  0  0  0
  152.8376  142.6013  159.0148 N   0  0  0  0  0  0  0  0  0  0  0  0
  152.7667  144.0263  158.9932 C   0  0  0  0  0  0  0  0  0  0  0  0
  151.9074  144.7023  160.0397 C   0  0  0  0  0  0  0  0  0  0  0  0
  151.4458  144.6574  158.6093 C   0  0  0  0  0  0  0  0  0  0  0  0
  153.8413  139.5380  160.8325 C   0  0  0  0  0  0  0  0  0  0  0  0
  153.8337  138.2004  160.6438 C   0  0  0  0  0  0  0  0  0  0  0  0
  153.2189  137.5870  159.4654 C   0  0  0  0  0  0  0  0  0  0  0  0
  153.1965  136.3712  159.2767 O   0  0  0  0  0  0  0  0  0  0  0  0
  151.3814  141.1368  155.2988 H   0  0  0  0  0  0  0  0  0  0  0  0
  150.8725  139.9979  156.5461 H   0  0  0  0  0  0  0  0  0  0  0  0
  150.8837  139.5073  154.8421 H   0  0  0  0  0  0  0  0  0  0  0  0
  152.5217  137.6716  155.3032 H   0  0  0  0  0  0  0  0  0  0  0  0
  153.9053  138.0500  156.3179 H   0  0  0  0  0  0  0  0  0  0  0  0
  151.0219  138.5196  157.2498 H   0  0  0  0  0  0  0  0  0  0  0  0
  151.7941  136.9804  157.4381 H   0  0  0  0  0  0  0  0  0  0  0  0
  152.5660  142.1207  158.1690 H   0  0  0  0  0  0  0  0  0  0  0  0
  153.6606  144.5676  158.6864 H   0  0  0  0  0  0  0  0  0  0  0  0
  151.3850  144.0703  160.7557 H   0  0  0  0  0  0  0  0  0  0  0  0
  152.2497  145.6595  160.4273 H   0  0  0  0  0  0  0  0  0  0  0  0
  151.4810  145.5844  158.0405 H   0  0  0  0  0  0  0  0  0  0  0  0
  150.6142  143.9966  158.3714 H   0  0  0  0  0  0  0  0  0  0  0  0
  154.3023  139.9628  161.7125 H   0  0  0  0  0  0  0  0  0  0  0  0
  154.2942  137.5624  161.3839 H   0  0  0  0  0  0  0  0  0  0  0  0
  1  2  1  0  0  0  0
  1 18  1  0  0  0  0
  1 19  1  0  0  0  0
  1 20  1  0  0  0  0
  2  3  1  0  0  0  0
  3  4  1  0  0  0  0
  3 21  1  0  0  0  0
  3 22  1  0  0  0  0
  4  5  1  0  0  0  0
  4 23  1  0  0  0  0
  4 24  1  0  0  0  0
  5 16  1  0  0  0  0
  5  6  1  0  0  0  0
  6  7  2  0  0  0  0
  7  8  1  0  0  0  0
  7 14  1  0  0  0  0
  8  9  2  0  0  0  0
  8 10  1  0  0  0  0
 10 11  1  0  0  0  0
 10 25  1  0  0  0  0
 11 13  1  0  0  0  0
 11 12  1  0  0  0  0
 11 26  1  0  0  0  0
 12 13  1  0  0  0  0
 12 27  1  0  0  0  0
 12 28  1  0  0  0  0
 13 29  1  0  0  0  0
 13 30  1  0  0  0  0
 14 15  2  0  0  0  0
 14 31  1  0  0  0  0
 15 16  1  0  0  0  0
 15 32  1  0  0  0  0
 16 17  2  0  0  0  0
M  END
> <s_m_source_file>
AV-unprocessed.smi

> <i_m_source_file_index>
3174

> <i_lp_mmshare_version>
43012

> <i_f3d_flags>
0

> <s_epik_input>
W0NIM11PW0NIMl1bQ0gyXW4xbmMoW2NIXVtjSF1jMT1PKUMoPU8pW05IXVtDSF0yW0NIMl1bQ0gyXTI=

> <s_epik_cmdline>
J2VwaWtfcHl0aG9uJywgJy1waCcsICc3LjAnLCAnLXRuJywgJzgnLCAnLW1hJywgJzIwMCcsICctbWV0YWxfYmluZGluZycsICctaW1hZScsICc8aW5maWxlLm1hZT4nLCAnLW9tYWUnLCAnPG91dGZpbGUubWFlPic=

> <r_lp_tautomer_probability>
1

> <r_epik_Ionization_Penalty>
5.63485e-07

> <r_epik_Ionization_Penalty_Charging>
6.67133e-09

> <r_epik_Ionization_Penalty_Neutral>
5.56814e-07

> <r_epik_State_Penalty>
-0

> <r_epik_Charging_Adjusted_Penalty>
6.67133e-09

> <i_epik_Tot_Q>
0

> <i_epik_Tot_abs_Q>
0

> <r_epik_Metal_State_Penalty>
-0

> <b_epik_Metal_Only>
0

> <s_lp_Force_Field>
OPLS_2005

> <r_lp_Energy>
37.1062

> <b_lp_Chiralities_Consistent>
1

> <s_lp_Variant>
AV-unprocessed.smi:3174-1

> <Gold.Version>
5.8.1

> <Gold.Id.Protein>
6NUR|6NUR_protein|mol2

> <Gold.PLP.Fitness>
38.7211

> <Gold.PLP.PLP>
-33.3762

> <Gold.PLP.part.hbond>
-2.0000

> <Gold.PLP.part.metal>
0.0000

> <Gold.PLP.part.buried>
-3.8412

> <Gold.PLP.part.nonpolar>
-26.8794

> <Gold.PLP.part.repulsive>
0.0611

> <Gold.PLP.ligand.clash>
0.0000

> <Gold.PLP.ligand.torsion>
0.3704

> <Gold.PLP.Chemscore.Hbond>
2.0000

> <Gold.PLP.Chemscore.CHOScore>
0.0000

> <Gold.PLP.Chemscore.Metal>
0.0000

> <Gold.Chemscore.Hbonds>
donor molecule, donor type, donor heavy atom, donor atom, acceptor molecule, acceptor atom, score
      P1  H  6896  6908       L1    17  0.99
      P1  H  7997  8008       L1     2  1.00

> <Gold.PLP.Chemscore.Internal.Correction>
0.0857

> <Gold.Rescore>
     Score         DG    S(hbond)    S(metal)    S(lipo)     H(rot)  DE(clash)    DE(int)     intcor
     16.52     -16.95       1.95        0.00      79.09       1.68       0.01       0.43       ----

> <Gold.Chemscore.Fitness>
16.5161

> <Gold.Chemscore.DG>
-16.9543

> <Gold.Chemscore.ZeroCoef>
-5.4800

> <Gold.Chemscore.Hbond>
1.9490

> <Gold.Chemscore.Metal>
0.0000

> <Gold.Chemscore.Lipo>
79.0942

> <Gold.Chemscore.Internal_Hbond>
0.0000

> <Gold.Chemscore.DEClash>
0.0060

> <Gold.Chemscore.DEInternal>
0.4323

> <Gold.Chemscore.Rot>
1.6756

> <Gold.Chemscore.Internal.Correction>
   9.000000E+99

> <Gold.Chemscore.Hbonds>
donor molecule, donor type, donor heavy atom, donor atom, acceptor molecule, acceptor atom, score
      P1  H  6896  6908       L1    17  0.93
      P1  H  7997  8008       L1     2  0.26

> <Gold.Chemscore.Hbond.Weighted>
-6.5097

> <Gold.Chemscore.Metal.Weighted>
-0.0000

> <Gold.Chemscore.Lipo.Weighted>
-9.2540

> <Gold.Chemscore.Internal_Hbond.Weighted>
0.0000

> <Gold.Chemscore.DEClash.Weighted>
0.0060

> <Gold.Chemscore.DEInternal.Weighted>
0.4323

> <Gold.Chemscore.Rot.Weighted>
4.2894

> <Gold.Chemscore.Internal.Correction.Weighted>
   9.000000E+99

> <Gold.Protein.RotatedTorsions>
[ 6907 6896 6895 6894 ] final  -73.44 input  -60.11 | X-H torsion
[ 7974 7965 7964 7962 ] final -104.69 input  175.53 | X-H torsion
[ 8008 7997 7996 7995 ] final  -20.42 input   59.86 | X-H torsion
[ 10167 10162 10161 10158 ] final   67.70 input  -65.29 | X-H torsion
[ 10718 10713 10712 10709 ] final  -77.53 input   66.30 | X-H torsion
[ 10763 10752 10751 10750 ] final   71.43 input  -60.55 | X-H torsion
[ 11005 11000 10999 10996 ] final -114.47 input  -57.11 | X-H torsion

> <Gold.Protein.ActiveResidues>
 VAL166  LYS551  ARG553  GLY616  TRP617  ASP618  TYR619  PRO620  LYS621  CYS622 
 ASP623  PHE694  ASN695  SER759  ASP760  ASP761  ALA762  ILE779  LEU786  VAL792 
 PHE793  MET794  SER795  GLU796  ALA797  LYS798  CYS799  TRP800  GLU811  SER814 

> <Gold.Protein.RotatedAtoms>
  150.7130  134.5016  159.5563 H   0  0  0  0  0  0  0  0  0  0  0  0  # atno 6907 bound_to 6896
  152.2612  134.8029  160.0439 H   0  0  0  0  0  0  0  0  0  0  0  0  # atno 6908 bound_to 6896
  151.8741  133.3446  159.3781 H   0  0  0  0  0  0  0  0  0  0  0  0  # atno 6909 bound_to 6896
  145.2399  140.9201  143.3156 H   0  0  0  0  0  0  0  0  0  0  0  0  # atno 7974 bound_to 7965
  154.4771  140.2062  155.9851 H   0  0  0  0  0  0  0  0  0  0  0  0  # atno 8008 bound_to 7997
  156.1107  140.3229  155.8038 H   0  0  0  0  0  0  0  0  0  0  0  0  # atno 8009 bound_to 7997
  155.4640  140.0526  157.2978 H   0  0  0  0  0  0  0  0  0  0  0  0  # atno 8010 bound_to 7997
  140.0867  144.5024  150.7126 H   0  0  0  0  0  0  0  0  0  0  0  0  # atno 10167 bound_to 10162
  156.0142  130.4494  150.3359 H   0  0  0  0  0  0  0  0  0  0  0  0  # atno 10718 bound_to 10713
  153.0398  135.5137  154.7591 H   0  0  0  0  0  0  0  0  0  0  0  0  # atno 10763 bound_to 10752
  154.6538  135.2929  154.9956 H   0  0  0  0  0  0  0  0  0  0  0  0  # atno 10764 bound_to 10752
  154.0831  135.6661  153.4893 H   0  0  0  0  0  0  0  0  0  0  0  0  # atno 10765 bound_to 10752
  141.0550  133.9627  157.2770 H   0  0  0  0  0  0  0  0  0  0  0  0  # atno 11005 bound_to 11000
  144.9599  139.3991  143.6361 LP  0  0  0  0  0  0  0  0  0  0  0  0  # atno 17320 bound_to 7965
  146.3331  139.8647  142.8850 LP  0  0  0  0  0  0  0  0  0  0  0  0  # atno 17321 bound_to 7965
  140.7050  143.2461  151.4753 LP  0  0  0  0  0  0  0  0  0  0  0  0  # atno 17342 bound_to 10162
  139.5748  144.1844  152.1888 LP  0  0  0  0  0  0  0  0  0  0  0  0  # atno 17343 bound_to 10162
  157.1456  131.0308  151.2908 LP  0  0  0  0  0  0  0  0  0  0  0  0  # atno 17370 bound_to 10713
  157.4435  130.7558  149.7090 LP  0  0  0  0  0  0  0  0  0  0  0  0  # atno 17371 bound_to 10713
  139.9382  135.0194  156.8624 LP  0  0  0  0  0  0  0  0  0  0  0  0  # atno 17394 bound_to 11000
  140.5982  134.0197  155.7526 LP  0  0  0  0  0  0  0  0  0  0  0  0  # atno 17395 bound_to 11000

$$$$
