AV-unprocessed.smi:1959|AV-procd|sdf|7915|dock8
  -GOLD-   2272010 83D 1   1.00000     0.00000
 Structure written by MMmdl.
 45 46  0  0  0  0  0  0  0  0  2 V2000
  154.4983  140.9708  160.9498 C   0  0  0  0  0  0  0  0  0  0  0  0
  153.6157  142.0182  160.3377 C   0  0  0  0  0  0  0  0  0  0  0  0
  153.1847  143.2502  160.9046 C   0  0  0  0  0  0  0  0  0  0  0  0
  152.4091  143.8167  159.9324 C   0  0  0  0  0  0  0  0  0  0  0  0
  151.6759  145.1181  159.9202 C   0  0  0  0  0  0  0  0  0  0  0  0
  152.4030  142.9382  158.8629 N   0  0  0  0  0  0  0  0  0  0  0  0
  151.7408  143.0644  157.5724 C   0  0  0  0  0  0  0  0  0  0  0  0
  150.9459  141.8100  157.1906 C   0  0  0  0  0  0  0  0  0  0  0  0
  151.2629  140.7006  157.6223 O   0  0  0  0  0  0  0  0  0  0  0  0
  149.9170  142.0020  156.3496 N   0  0  0  0  0  0  0  0  0  0  0  0
  149.0153  140.9654  155.8438 C   0  0  1  0  0  0  0  0  0  0  0  0
  147.5640  141.4099  156.0691 C   0  0  0  0  0  0  0  0  0  0  0  0
  149.2866  140.6614  154.3519 C   0  0  0  0  0  0  0  0  0  0  0  0
  150.2091  139.5151  154.1512 N   0  3  0  0  0  0  0  0  0  0  0  0
  151.5672  139.7412  154.7016 C   0  0  0  0  0  0  0  0  0  0  0  0
  152.4778  138.5517  154.3570 C   0  0  0  0  0  0  0  0  0  0  0  0
  151.9097  137.3553  154.8767 O   0  0  0  0  0  0  0  0  0  0  0  0
  150.6321  137.0808  154.3138 C   0  0  0  0  0  0  0  0  0  0  0  0
  149.6611  138.2288  154.6405 C   0  0  0  0  0  0  0  0  0  0  0  0
  153.1431  141.8370  159.1156 N   0  0  0  0  0  0  0  0  0  0  0  0
  154.8602  141.2837  161.9295 H   0  0  0  0  0  0  0  0  0  0  0  0
  155.3681  140.7742  160.3225 H   0  0  0  0  0  0  0  0  0  0  0  0
  153.9603  140.0313  161.0792 H   0  0  0  0  0  0  0  0  0  0  0  0
  153.4133  143.6577  161.8783 H   0  0  0  0  0  0  0  0  0  0  0  0
  151.8451  145.6688  160.8458 H   0  0  0  0  0  0  0  0  0  0  0  0
  150.6025  144.9584  159.8178 H   0  0  0  0  0  0  0  0  0  0  0  0
  152.0081  145.7455  159.0927 H   0  0  0  0  0  0  0  0  0  0  0  0
  151.0752  143.9291  157.5969 H   0  0  0  0  0  0  0  0  0  0  0  0
  152.4915  143.2636  156.8072 H   0  0  0  0  0  0  0  0  0  0  0  0
  149.7304  142.9480  156.0481 H   0  0  0  0  0  0  0  0  0  0  0  0
  149.1570  140.0529  156.4247 H   0  0  0  0  0  0  0  0  0  0  0  0
  146.8636  140.6431  155.7366 H   0  0  0  0  0  0  0  0  0  0  0  0
  147.3375  142.3264  155.5229 H   0  0  0  0  0  0  0  0  0  0  0  0
  147.3689  141.5952  157.1261 H   0  0  0  0  0  0  0  0  0  0  0  0
  148.3532  140.4797  153.8169 H   0  0  0  0  0  0  0  0  0  0  0  0
  149.7250  141.5532  153.9010 H   0  0  0  0  0  0  0  0  0  0  0  0
  151.9964  140.6571  154.2965 H   0  0  0  0  0  0  0  0  0  0  0  0
  151.5103  139.8677  155.7838 H   0  0  0  0  0  0  0  0  0  0  0  0
  152.6155  138.4665  153.2774 H   0  0  0  0  0  0  0  0  0  0  0  0
  153.4659  138.6943  154.7945 H   0  0  0  0  0  0  0  0  0  0  0  0
  150.7209  136.9414  153.2350 H   0  0  0  0  0  0  0  0  0  0  0  0
  150.2587  136.1435  154.7265 H   0  0  0  0  0  0  0  0  0  0  0  0
  149.4929  138.2870  155.7170 H   0  0  0  0  0  0  0  0  0  0  0  0
  148.6953  138.0333  154.1729 H   0  0  0  0  0  0  0  0  0  0  0  0
  150.3140  139.4125  153.1515 H   0  0  0  0  0  0  0  0  0  0  0  0
  1  2  1  0  0  0  0
  1 21  1  0  0  0  0
  1 22  1  0  0  0  0
  1 23  1  0  0  0  0
  2 20  2  0  0  0  0
  2  3  1  0  0  0  0
  3  4  2  0  0  0  0
  3 24  1  0  0  0  0
  4  5  1  0  0  0  0
  4  6  1  0  0  0  0
  5 25  1  0  0  0  0
  5 26  1  0  0  0  0
  5 27  1  0  0  0  0
  6  7  1  0  0  0  0
  6 20  1  0  0  0  0
  7  8  1  0  0  0  0
  7 28  1  0  0  0  0
  7 29  1  0  0  0  0
  8  9  2  0  0  0  0
  8 10  1  0  0  0  0
 10 11  1  0  0  0  0
 10 30  1  0  0  0  0
 11 12  1  0  0  0  0
 11 13  1  0  0  0  0
 11 31  1  0  0  0  0
 12 32  1  0  0  0  0
 12 33  1  0  0  0  0
 12 34  1  0  0  0  0
 13 14  1  0  0  0  0
 13 35  1  0  0  0  0
 13 36  1  0  0  0  0
 14 19  1  0  0  0  0
 14 15  1  0  0  0  0
 14 45  1  0  0  0  0
 15 16  1  0  0  0  0
 15 37  1  0  0  0  0
 15 38  1  0  0  0  0
 16 17  1  0  0  0  0
 16 39  1  0  0  0  0
 16 40  1  0  0  0  0
 17 18  1  0  0  0  0
 18 19  1  0  0  0  0
 18 41  1  0  0  0  0
 18 42  1  0  0  0  0
 19 43  1  0  0  0  0
 19 44  1  0  0  0  0
M  CHG  1  14   1
M  END
> <s_m_source_file>
AV-unprocessed.smi

> <i_m_source_file_index>
1959

> <i_lp_mmshare_version>
43012

> <i_f3d_flags>
0

> <s_epik_input>
W0NIM11jMVtjSF1jKFtDSDNdKW4objEpW0NIMl1DKD1PKVtOSF1bQ0BIXShbQ0gzXSlbQ0gyXU4yW0NIMl1bQ0gyXU9bQ0gyXVtDSDJdMg==

> <s_epik_cmdline>
J2VwaWtfcHl0aG9uJywgJy1waCcsICc3LjAnLCAnLXRuJywgJzgnLCAnLW1hJywgJzIwMCcsICctbWV0YWxfYmluZGluZycsICctaW1hZScsICc8aW5maWxlLm1hZT4nLCAnLW9tYWUnLCAnPG91dGZpbGUubWFlPic=

> <r_lp_tautomer_probability>
1

> <r_epik_Ionization_Penalty>
0.748605

> <r_epik_Ionization_Penalty_Charging>
0.748396

> <r_epik_Ionization_Penalty_Neutral>
0.000208859

> <r_epik_State_Penalty>
0.775162

> <r_epik_Charging_Adjusted_Penalty>
1.52356

> <i_epik_Tot_Q>
1

> <i_epik_Tot_abs_Q>
1

> <r_epik_Metal_State_Penalty>
0.775281

> <b_epik_Metal_Only>
0

> <s_lp_Force_Field>
OPLS_2005

> <r_lp_Energy>
20.6749

> <b_lp_Chiralities_Consistent>
1

> <s_lp_Variant>
AV-unprocessed.smi:1959-4

> <Gold.Version>
5.8.1

> <Gold.Id.Protein>
6NUR|6NUR_protein|mol2

> <Gold.PLP.Fitness>
47.9731

> <Gold.PLP.PLP>
-44.4642

> <Gold.PLP.part.hbond>
-2.0000

> <Gold.PLP.part.metal>
0.0000

> <Gold.PLP.part.buried>
-4.8828

> <Gold.PLP.part.nonpolar>
-38.0776

> <Gold.PLP.part.repulsive>
0.2511

> <Gold.PLP.ligand.clash>
0.0000

> <Gold.PLP.ligand.torsion>
1.0641

> <Gold.PLP.Chemscore.Hbond>
1.8580

> <Gold.PLP.Chemscore.CHOScore>
0.0000

> <Gold.PLP.Chemscore.Metal>
0.0000

> <Gold.Chemscore.Hbonds>
donor molecule, donor type, donor heavy atom, donor atom, acceptor molecule, acceptor atom, score
      L1  H    10    30       P1  8028  1.00
      L1  H    14    45       P1  7957  0.57
      P1  H 10752 10764       L1    17  0.72

> <Gold.PLP.Chemscore.Internal.Correction>
0.0631

> <Gold.Rescore>
     Score         DG    S(hbond)    S(metal)    S(lipo)     H(rot)  DE(clash)    DE(int)     intcor
     15.48     -20.74       2.07        0.00     110.24       1.77       2.53       2.73       ----

> <Gold.Chemscore.Fitness>
15.4760

> <Gold.Chemscore.DG>
-20.7354

> <Gold.Chemscore.ZeroCoef>
-5.4800

> <Gold.Chemscore.Hbond>
2.0659

> <Gold.Chemscore.Metal>
0.0000

> <Gold.Chemscore.Lipo>
110.2358

> <Gold.Chemscore.Internal_Hbond>
0.0000

> <Gold.Chemscore.DEClash>
2.5301

> <Gold.Chemscore.DEInternal>
2.7293

> <Gold.Chemscore.Rot>
1.7744

> <Gold.Chemscore.Internal.Correction>
   9.000000E+99

> <Gold.Chemscore.Hbonds>
donor molecule, donor type, donor heavy atom, donor atom, acceptor molecule, acceptor atom, score
      L1  H    10    30       P1  8028  0.96
      L1  H    14    45       P1  7957  0.51
      P1  H 10752 10764       L1    17  0.37

> <Gold.Chemscore.Hbond.Weighted>
-6.9002

> <Gold.Chemscore.Metal.Weighted>
-0.0000

> <Gold.Chemscore.Lipo.Weighted>
-12.8976

> <Gold.Chemscore.Internal_Hbond.Weighted>
0.0000

> <Gold.Chemscore.DEClash.Weighted>
2.5301

> <Gold.Chemscore.DEInternal.Weighted>
2.7293

> <Gold.Chemscore.Rot.Weighted>
4.5424

> <Gold.Chemscore.Internal.Correction.Weighted>
   9.000000E+99

> <Gold.Protein.RotatedTorsions>
[ 6907 6896 6895 6894 ] final -155.39 input  -60.11 | X-H torsion
[ 7974 7965 7964 7962 ] final  -62.22 input  175.53 | X-H torsion
[ 8008 7997 7996 7995 ] final -145.76 input   59.86 | X-H torsion
[ 10167 10162 10161 10158 ] final   59.11 input  -65.29 | X-H torsion
[ 10718 10713 10712 10709 ] final   32.07 input   66.30 | X-H torsion
[ 10763 10752 10751 10750 ] final  -50.15 input  -60.55 | X-H torsion
[ 11005 11000 10999 10996 ] final -128.25 input  -57.11 | X-H torsion

> <Gold.Protein.ActiveResidues>
 VAL166  LYS551  ARG553  GLY616  TRP617  ASP618  TYR619  PRO620  LYS621  CYS622 
 ASP623  PHE694  ASN695  SER759  ASP760  ASP761  ALA762  ILE779  LEU786  VAL792 
 PHE793  MET794  SER795  GLU796  ALA797  LYS798  CYS799  TRP800  GLU811  SER814 

> <Gold.Protein.RotatedAtoms>
  151.2718  133.4251  159.2621 H   0  0  0  0  0  0  0  0  0  0  0  0  # atno 6907 bound_to 6896
  151.0438  134.9626  159.8186 H   0  0  0  0  0  0  0  0  0  0  0  0  # atno 6908 bound_to 6896
  152.5370  134.2675  159.9011 H   0  0  0  0  0  0  0  0  0  0  0  0  # atno 6909 bound_to 6896
  145.7939  140.8694  143.0266 H   0  0  0  0  0  0  0  0  0  0  0  0  # atno 7974 bound_to 7965
  155.5484  140.0614  157.2855 H   0  0  0  0  0  0  0  0  0  0  0  0  # atno 8008 bound_to 7997
  154.4429  140.1907  156.0706 H   0  0  0  0  0  0  0  0  0  0  0  0  # atno 8009 bound_to 7997
  156.0534  140.3281  155.7381 H   0  0  0  0  0  0  0  0  0  0  0  0  # atno 8010 bound_to 7997
  140.1799  144.4192  150.6620 H   0  0  0  0  0  0  0  0  0  0  0  0  # atno 10167 bound_to 10162
  157.2806  130.7253  149.6554 H   0  0  0  0  0  0  0  0  0  0  0  0  # atno 10718 bound_to 10713
  154.1057  135.6556  153.4876 H   0  0  0  0  0  0  0  0  0  0  0  0  # atno 10763 bound_to 10752
  153.0273  135.5235  154.7242 H   0  0  0  0  0  0  0  0  0  0  0  0  # atno 10764 bound_to 10752
  154.6407  135.2988  155.0076 H   0  0  0  0  0  0  0  0  0  0  0  0  # atno 10765 bound_to 10752
  140.9532  134.1037  157.4042 H   0  0  0  0  0  0  0  0  0  0  0  0  # atno 11005 bound_to 11000
  144.6778  140.0162  143.7484 LP  0  0  0  0  0  0  0  0  0  0  0  0  # atno 17320 bound_to 7965
  145.9948  139.3044  143.0963 LP  0  0  0  0  0  0  0  0  0  0  0  0  # atno 17321 bound_to 7965
  140.6526  143.2229  151.6042 LP  0  0  0  0  0  0  0  0  0  0  0  0  # atno 17342 bound_to 10162
  139.5300  144.2943  152.1126 LP  0  0  0  0  0  0  0  0  0  0  0  0  # atno 17343 bound_to 10162
  155.9664  130.4339  150.5027 LP  0  0  0  0  0  0  0  0  0  0  0  0  # atno 17370 bound_to 10713
  157.2970  131.0637  151.2095 LP  0  0  0  0  0  0  0  0  0  0  0  0  # atno 17371 bound_to 10713
  139.8854  135.0072  156.6431 LP  0  0  0  0  0  0  0  0  0  0  0  0  # atno 17394 bound_to 11000
  140.7573  133.8847  155.8392 LP  0  0  0  0  0  0  0  0  0  0  0  0  # atno 17395 bound_to 11000

$$$$
