AV-unprocessed.smi:686|AV-procd|sdf|3347|dock2
  -GOLD-   22720 0323D 1   1.00000     0.00000
 Structure written by MMmdl.
 40 41  0  0  0  0  0  0  0  0  3 V2000
  150.6228  139.6968  155.6230 C   0  0  0  0  0  0  0  0  0  0  0  0
  149.7213  138.5616  155.1001 C   0  0  2  0  0  0  0  0  0  0  0  0
  148.8210  138.9881  153.9388 C   0  0  0  0  0  0  0  0  0  0  0  0
  147.7689  137.9505  153.8709 N   0  3  2  0  0  0  0  0  0  0  0  0
  146.5272  138.3352  153.1411 C   0  0  0  0  0  0  0  0  0  0  0  0
  145.5661  137.1384  153.0099 C   0  0  0  0  0  0  0  0  0  0  0  0
  146.8407  138.8994  151.7424 C   0  0  0  0  0  0  0  0  0  0  0  0
  147.5631  137.4497  155.2533 C   0  0  0  0  0  0  0  0  0  0  0  0
  148.7183  137.9916  156.1166 C   0  0  1  0  0  0  0  0  0  0  0  0
  149.3273  136.9478  156.9322 N   0  5  0  0  0  0  0  0  0  0  0  0
  149.3442  137.0416  158.5572 S   0  0  0  0  0  0  0  0  0  0  0  0
  150.5896  136.5415  159.1650 O   0  0  0  0  0  0  0  0  0  0  0  0
  148.8751  138.3588  159.0127 O   0  0  0  0  0  0  0  0  0  0  0  0
  148.0106  135.8499  159.0341 C   0  0  0  0  0  0  0  0  0  0  0  0
  147.6802  136.0005  160.4931 C   0  0  0  0  0  0  0  0  0  0  0  0
  147.4767  134.9826  161.4661 C   0  0  0  0  0  0  0  0  0  0  0  0
  147.2042  135.6805  162.6069 C   0  0  0  0  0  0  0  0  0  0  0  0
  147.2254  137.0151  162.3639 O   0  0  0  0  0  0  0  0  0  0  0  0
  147.5267  137.2095  161.0111 N   0  0  0  0  0  0  0  0  0  0  0  0
  150.0472  140.5546  155.9762 H   0  0  0  0  0  0  0  0  0  0  0  0
  151.2811  140.0550  154.8313 H   0  0  0  0  0  0  0  0  0  0  0  0
  151.2610  139.3618  156.4428 H   0  0  0  0  0  0  0  0  0  0  0  0
  150.3599  137.7529  154.7378 H   0  0  0  0  0  0  0  0  0  0  0  0
  148.3730  139.9688  154.1225 H   0  0  0  0  0  0  0  0  0  0  0  0
  149.3777  139.0499  153.0030 H   0  0  0  0  0  0  0  0  0  0  0  0
  146.0259  139.1158  153.7156 H   0  0  0  0  0  0  0  0  0  0  0  0
  144.6687  137.4172  152.4568 H   0  0  0  0  0  0  0  0  0  0  0  0
  145.2361  136.7673  153.9802 H   0  0  0  0  0  0  0  0  0  0  0  0
  146.0363  136.3099  152.4791 H   0  0  0  0  0  0  0  0  0  0  0  0
  145.9229  139.1323  151.2016 H   0  0  0  0  0  0  0  0  0  0  0  0
  147.4035  138.1832  151.1426 H   0  0  0  0  0  0  0  0  0  0  0  0
  147.4177  139.8226  151.7933 H   0  0  0  0  0  0  0  0  0  0  0  0
  146.6136  137.7928  155.6672 H   0  0  0  0  0  0  0  0  0  0  0  0
  147.5318  136.3592  155.2256 H   0  0  0  0  0  0  0  0  0  0  0  0
  148.3376  138.8174  156.7192 H   0  0  0  0  0  0  0  0  0  0  0  0
  147.1393  136.0496  158.4094 H   0  0  0  0  0  0  0  0  0  0  0  0
  148.3485  134.8370  158.8192 H   0  0  0  0  0  0  0  0  0  0  0  0
  147.5309  133.9107  161.3460 H   0  0  0  0  0  0  0  0  0  0  0  0
  146.9829  135.3860  163.6221 H   0  0  0  0  0  0  0  0  0  0  0  0
  148.1827  137.1803  153.3656 H   0  0  0  0  0  0  0  0  0  0  0  0
  1  2  1  0  0  0  0
  1 20  1  0  0  0  0
  1 21  1  0  0  0  0
  1 22  1  0  0  0  0
  2  9  1  0  0  0  0
  2  3  1  0  0  0  0
  2 23  1  0  0  0  0
  3  4  1  0  0  0  0
  3 24  1  0  0  0  0
  3 25  1  0  0  0  0
  4  5  1  0  0  0  0
  4  8  1  0  0  0  0
  4 40  1  0  0  0  0
  5  6  1  0  0  0  0
  5  7  1  0  0  0  0
  5 26  1  0  0  0  0
  6 27  1  0  0  0  0
  6 28  1  0  0  0  0
  6 29  1  0  0  0  0
  7 30  1  0  0  0  0
  7 31  1  0  0  0  0
  7 32  1  0  0  0  0
  8  9  1  0  0  0  0
  8 33  1  0  0  0  0
  8 34  1  0  0  0  0
  9 10  1  0  0  0  0
  9 35  1  0  0  0  0
 10 11  1  0  0  0  0
 11 12  2  0  0  0  0
 11 13  2  0  0  0  0
 11 14  1  0  0  0  0
 14 15  1  0  0  0  0
 14 36  1  0  0  0  0
 14 37  1  0  0  0  0
 15 19  2  0  0  0  0
 15 16  1  0  0  0  0
 16 17  2  0  0  0  0
 16 38  1  0  0  0  0
 17 18  1  0  0  0  0
 17 39  1  0  0  0  0
 18 19  1  0  0  0  0
M  CHG  1   4   1
M  CHG  1  10  -1
M  END
> <s_m_source_file>
AV-unprocessed.smi

> <i_m_source_file_index>
686

> <i_lp_mmshare_version>
43012

> <i_f3d_flags>
0

> <s_epik_input>
W0NIM11bQ0BASF0xW0NIMl1OKFtDSF0oW0NIM10pW0NIM10pW0NIMl1bQ0BIXTFbTkhdUyg9TykoPU8pW0NIMl1jMltjSF1bY0hdb24y

> <s_epik_cmdline>
J2VwaWtfcHl0aG9uJywgJy1waCcsICc3LjAnLCAnLXRuJywgJzgnLCAnLW1hJywgJzIwMCcsICctbWV0YWxfYmluZGluZycsICctaW1hZScsICc8aW5maWxlLm1hZT4nLCAnLW9tYWUnLCAnPG91dGZpbGUubWFlPic=

> <r_epik_Ionization_Penalty>
3.62478

> <r_epik_Ionization_Penalty_Charging>
3.62478

> <r_epik_Ionization_Penalty_Neutral>
2.03645e-10

> <r_epik_State_Penalty>
3.6247

> <r_epik_Charging_Adjusted_Penalty>
7.24949

> <i_epik_Tot_Q>
0

> <i_epik_Tot_abs_Q>
2

> <r_epik_Metal_State_Penalty>
0.530836

> <b_epik_Metal_Only>
1

> <s_lp_Force_Field>
OPLS_2005

> <r_lp_Energy>
16.7108

> <b_lp_Chiralities_Consistent>
1

> <s_lp_Variant>
AV-unprocessed.smi:686-11

> <Gold.Version>
5.8.1

> <Gold.Id.Protein>
6NUR|6NUR_protein|mol2

> <Gold.PLP.Fitness>
41.0931

> <Gold.PLP.PLP>
-30.2927

> <Gold.PLP.part.hbond>
-7.1651

> <Gold.PLP.part.metal>
0.0000

> <Gold.PLP.part.buried>
-1.3962

> <Gold.PLP.part.nonpolar>
-22.2549

> <Gold.PLP.part.repulsive>
0.0001

> <Gold.PLP.ligand.clash>
0.0000

> <Gold.PLP.ligand.torsion>
0.8848

> <Gold.PLP.Chemscore.Hbond>
3.8360

> <Gold.PLP.Chemscore.CHOScore>
0.0000

> <Gold.PLP.Chemscore.Metal>
0.0000

> <Gold.Chemscore.Hbonds>
donor molecule, donor type, donor heavy atom, donor atom, acceptor molecule, acceptor atom, score
      L1  H     4    40       P1  7948  2.00
      P1  H  6896  6907       L1    12  1.00
      P1  H  6934  6947       L1    19  0.88

> <Gold.PLP.Chemscore.Internal.Correction>
1.0620

> <Gold.Rescore>
     Score         DG    S(hbond)    S(metal)    S(lipo)     H(rot)  DE(clash)    DE(int)     intcor
     13.63     -16.48       2.25        0.00      65.03       1.61       0.28       2.57       ----

> <Gold.Chemscore.Fitness>
13.6328

> <Gold.Chemscore.DG>
-16.4813

> <Gold.Chemscore.ZeroCoef>
-5.4800

> <Gold.Chemscore.Hbond>
2.2536

> <Gold.Chemscore.Metal>
0.0000

> <Gold.Chemscore.Lipo>
65.0298

> <Gold.Chemscore.Internal_Hbond>
0.0000

> <Gold.Chemscore.DEClash>
0.2820

> <Gold.Chemscore.DEInternal>
2.5666

> <Gold.Chemscore.Rot>
1.6149

> <Gold.Chemscore.Internal.Correction>
   9.000000E+99

> <Gold.Chemscore.Hbonds>
donor molecule, donor type, donor heavy atom, donor atom, acceptor molecule, acceptor atom, score
      L1  H     4    40       P1  7948  0.98
      P1  H  6896  6907       L1    12  0.99
      P1  H  6934  6947       L1    19  0.17

> <Gold.Chemscore.Hbond.Weighted>
-7.5269

> <Gold.Chemscore.Metal.Weighted>
-0.0000

> <Gold.Chemscore.Lipo.Weighted>
-7.6085

> <Gold.Chemscore.Internal_Hbond.Weighted>
0.0000

> <Gold.Chemscore.DEClash.Weighted>
0.2820

> <Gold.Chemscore.DEInternal.Weighted>
2.5666

> <Gold.Chemscore.Rot.Weighted>
4.1341

> <Gold.Chemscore.Internal.Correction.Weighted>
   9.000000E+99

> <Gold.Protein.RotatedTorsions>
[ 6907 6896 6895 6894 ] final  -19.24 input  -60.11 | X-H torsion
[ 7974 7965 7964 7962 ] final  -80.11 input  175.53 | X-H torsion
[ 8008 7997 7996 7995 ] final -138.28 input   59.86 | X-H torsion
[ 10167 10162 10161 10158 ] final  175.13 input  -65.29 | X-H torsion
[ 10718 10713 10712 10709 ] final   89.22 input   66.30 | X-H torsion
[ 10763 10752 10751 10750 ] final -120.13 input  -60.55 | X-H torsion
[ 11005 11000 10999 10996 ] final -130.67 input  -57.11 | X-H torsion

> <Gold.Protein.ActiveResidues>
 VAL166  LYS551  ARG553  GLY616  TRP617  ASP618  TYR619  PRO620  LYS621  CYS622 
 ASP623  PHE694  ASN695  SER759  ASP760  ASP761  ALA762  ILE779  LEU786  VAL792 
 PHE793  MET794  SER795  GLU796  ALA797  LYS798  CYS799  TRP800  GLU811  SER814 

> <Gold.Protein.RotatedAtoms>
  151.2661  135.0670  159.9116 H   0  0  0  0  0  0  0  0  0  0  0  0  # atno 6907 bound_to 6896
  152.5358  134.0179  159.7978 H   0  0  0  0  0  0  0  0  0  0  0  0  # atno 6908 bound_to 6896
  151.0410  133.5656  159.2682 H   0  0  0  0  0  0  0  0  0  0  0  0  # atno 6909 bound_to 6896
  145.5643  140.9477  143.1430 H   0  0  0  0  0  0  0  0  0  0  0  0  # atno 7974 bound_to 7965
  155.4257  140.0521  157.3022 H   0  0  0  0  0  0  0  0  0  0  0  0  # atno 8008 bound_to 7997
  154.4882  140.2109  155.9565 H   0  0  0  0  0  0  0  0  0  0  0  0  # atno 8009 bound_to 7997
  156.1305  140.3172  155.8347 H   0  0  0  0  0  0  0  0  0  0  0  0  # atno 8010 bound_to 7997
  139.5166  144.3066  152.0330 H   0  0  0  0  0  0  0  0  0  0  0  0  # atno 10167 bound_to 10162
  157.6954  131.0325  150.3393 H   0  0  0  0  0  0  0  0  0  0  0  0  # atno 10718 bound_to 10713
  154.8636  135.4213  154.2411 H   0  0  0  0  0  0  0  0  0  0  0  0  # atno 10763 bound_to 10752
  153.3376  135.6992  153.6900 H   0  0  0  0  0  0  0  0  0  0  0  0  # atno 10764 bound_to 10752
  153.5891  135.3558  155.2877 H   0  0  0  0  0  0  0  0  0  0  0  0  # atno 10765 bound_to 10752
  140.9326  134.1300  157.4222 H   0  0  0  0  0  0  0  0  0  0  0  0  # atno 11005 bound_to 11000
  144.7468  139.7299  143.7289 LP  0  0  0  0  0  0  0  0  0  0  0  0  # atno 17320 bound_to 7965
  146.1829  139.5030  142.9855 LP  0  0  0  0  0  0  0  0  0  0  0  0  # atno 17321 bound_to 7965
  140.2512  144.4167  150.6221 LP  0  0  0  0  0  0  0  0  0  0  0  0  # atno 17342 bound_to 10162
  140.6223  143.2177  151.6668 LP  0  0  0  0  0  0  0  0  0  0  0  0  # atno 17343 bound_to 10162
  156.3856  130.3888  149.7068 LP  0  0  0  0  0  0  0  0  0  0  0  0  # atno 17370 bound_to 10713
  156.4435  130.7872  151.2894 LP  0  0  0  0  0  0  0  0  0  0  0  0  # atno 17371 bound_to 10713
  139.8800  135.0010  156.6042 LP  0  0  0  0  0  0  0  0  0  0  0  0  # atno 17394 bound_to 11000
  140.7842  133.8635  155.8593 LP  0  0  0  0  0  0  0  0  0  0  0  0  # atno 17395 bound_to 11000

$$$$
