AV-unprocessed.smi:86|AV-procd|sdf|815|dock8
  -GOLD-   2262017213D 1   1.00000     0.00000
 Structure written by MMmdl.
 51 55  0  0  0  0  0  0  0  0  1 V2000
  147.8617  135.6674  156.6242 O   0  0  0  0  0  0  0  0  0  0  0  0
  148.7265  136.5236  155.9052 C   0  0  0  0  0  0  0  0  0  0  0  0
  149.9757  135.7759  155.4072 C   0  0  0  0  0  0  0  0  0  0  0  0
  150.8718  136.7039  154.5600 C   0  0  0  0  0  0  0  0  0  0  0  0
  151.3020  137.9113  155.2494 N   0  0  0  0  0  0  0  0  0  0  0  0
  152.5610  138.1705  155.7399 C   0  0  0  0  0  0  0  0  0  0  0  0
  152.7028  139.3297  156.3203 N   0  0  0  0  0  0  0  0  0  0  0  0
  151.4518  139.9289  156.2121 C   0  0  0  0  0  0  0  0  0  0  0  0
  150.9010  141.1829  156.6159 C   0  0  0  0  0  0  0  0  0  0  0  0
  151.5879  142.1586  157.2653 N   0  0  0  0  0  0  0  0  0  0  0  0
  151.4209  143.5751  156.9492 C   0  0  0  0  0  0  0  0  0  0  0  0
  151.7960  144.3336  158.2316 C   0  0  1  0  0  0  0  0  0  0  0  0
  150.5439  144.6500  159.0796 C   0  0  0  0  0  0  0  0  0  0  0  0
  150.9024  145.0474  160.5176 C   0  0  0  0  0  0  0  0  0  0  0  0
  151.7037  143.9267  161.1968 C   0  0  2  0  0  0  0  0  0  0  0  0
  152.0211  144.3069  162.5190 O   0  0  0  0  0  0  0  0  0  0  0  0
  153.0005  143.6371  160.4231 C   0  0  0  0  0  0  0  0  0  0  0  0
  152.7537  143.3523  158.9288 C   0  0  1  0  0  0  0  0  0  0  0  0
  152.1583  141.9839  158.5917 C   0  0  0  0  0  0  0  0  0  0  0  0
  149.5972  141.4140  156.3090 N   0  0  0  0  0  0  0  0  0  0  0  0
  148.8761  140.4943  155.6632 C   0  0  0  0  0  0  0  0  0  0  0  0
  149.2545  139.2904  155.2338 N   0  0  0  0  0  0  0  0  0  0  0  0
  150.5614  139.0459  155.5335 C   0  0  0  0  0  0  0  0  0  0  0  0
  150.6969  134.9455  156.4780 C   0  0  0  0  0  0  0  0  0  0  0  0
  150.0769  133.7233  156.0261 O   0  0  0  0  0  0  0  0  0  0  0  0
  149.6838  134.3921  154.8091 C   0  0  0  0  0  0  0  0  0  0  0  0
  147.4440  135.0808  156.0121 H   0  0  0  0  0  0  0  0  0  0  0  0
  148.1649  136.9309  155.0636 H   0  0  0  0  0  0  0  0  0  0  0  0
  148.9892  137.3770  156.5301 H   0  0  0  0  0  0  0  0  0  0  0  0
  151.7616  136.1710  154.2224 H   0  0  0  0  0  0  0  0  0  0  0  0
  150.3540  137.0076  153.6494 H   0  0  0  0  0  0  0  0  0  0  0  0
  153.3748  137.4643  155.6602 H   0  0  0  0  0  0  0  0  0  0  0  0
  152.1042  143.8314  156.1390 H   0  0  0  0  0  0  0  0  0  0  0  0
  150.4079  143.8170  156.6247 H   0  0  0  0  0  0  0  0  0  0  0  0
  152.3092  145.2672  157.9977 H   0  0  0  0  0  0  0  0  0  0  0  0
  149.9697  145.4469  158.6063 H   0  0  0  0  0  0  0  0  0  0  0  0
  149.8849  143.7811  159.1115 H   0  0  0  0  0  0  0  0  0  0  0  0
  151.4787  145.9738  160.5108 H   0  0  0  0  0  0  0  0  0  0  0  0
  149.9903  145.2500  161.0801 H   0  0  0  0  0  0  0  0  0  0  0  0
  151.0956  143.0230  161.2485 H   0  0  0  0  0  0  0  0  0  0  0  0
  152.3857  143.5592  162.9674 H   0  0  0  0  0  0  0  0  0  0  0  0
  153.6602  144.5025  160.5027 H   0  0  0  0  0  0  0  0  0  0  0  0
  153.5373  142.8035  160.8776 H   0  0  0  0  0  0  0  0  0  0  0  0
  153.7168  143.4106  158.4184 H   0  0  0  0  0  0  0  0  0  0  0  0
  151.3703  141.7075  159.2931 H   0  0  0  0  0  0  0  0  0  0  0  0
  152.9241  141.2079  158.6027 H   0  0  0  0  0  0  0  0  0  0  0  0
  147.8496  140.7620  155.4606 H   0  0  0  0  0  0  0  0  0  0  0  0
  151.7816  134.9158  156.3609 H   0  0  0  0  0  0  0  0  0  0  0  0
  150.4235  135.2020  157.5021 H   0  0  0  0  0  0  0  0  0  0  0  0
  148.6359  134.2279  154.5554 H   0  0  0  0  0  0  0  0  0  0  0  0
  150.3330  134.1160  153.9775 H   0  0  0  0  0  0  0  0  0  0  0  0
  1  2  1  0  0  0  0
  1 27  1  0  0  0  0
  2  3  1  0  0  0  0
  2 28  1  0  0  0  0
  2 29  1  0  0  0  0
  3 26  1  0  0  0  0
  3  4  1  0  0  0  0
  3 24  1  0  0  0  0
  4  5  1  0  0  0  0
  4 30  1  0  0  0  0
  4 31  1  0  0  0  0
  5 23  1  0  0  0  0
  5  6  1  0  0  0  0
  6  7  2  0  0  0  0
  6 32  1  0  0  0  0
  7  8  1  0  0  0  0
  8 23  2  0  0  0  0
  8  9  1  0  0  0  0
  9 10  1  0  0  0  0
  9 20  2  0  0  0  0
 10 19  1  0  0  0  0
 10 11  1  0  0  0  0
 11 12  1  0  0  0  0
 11 33  1  0  0  0  0
 11 34  1  0  0  0  0
 12 18  1  0  0  0  0
 12 13  1  0  0  0  0
 12 35  1  0  0  0  0
 13 14  1  0  0  0  0
 13 36  1  0  0  0  0
 13 37  1  0  0  0  0
 14 15  1  0  0  0  0
 14 38  1  0  0  0  0
 14 39  1  0  0  0  0
 15 16  1  0  0  0  0
 15 17  1  0  0  0  0
 15 40  1  0  0  0  0
 16 41  1  0  0  0  0
 17 18  1  0  0  0  0
 17 42  1  0  0  0  0
 17 43  1  0  0  0  0
 18 19  1  0  0  0  0
 18 44  1  0  0  0  0
 19 45  1  0  0  0  0
 19 46  1  0  0  0  0
 20 21  1  0  0  0  0
 21 22  2  0  0  0  0
 21 47  1  0  0  0  0
 22 23  1  0  0  0  0
 24 25  1  0  0  0  0
 24 48  1  0  0  0  0
 24 49  1  0  0  0  0
 25 26  1  0  0  0  0
 26 50  1  0  0  0  0
 26 51  1  0  0  0  0
M  END
> <s_m_source_file>
AV-unprocessed.smi

> <i_m_source_file_index>
86

> <i_lp_mmshare_version>
43012

> <i_f3d_flags>
0

> <s_epik_input>
W0NIMl0xT1tDSDJdQzEoW0NIMl1bT0hdKVtDSDJdbihbY0hdbjIpYyhjMjMpbltjSF1uYzNOKFtDSDJdNClbQ0gyXVtDQEBIXShbQ0BIXTQ1KVtDSDJdW0NASF0oW09IXSlbQ0gyXVtDSDJdNQ==

> <s_epik_cmdline>
J2VwaWtfcHl0aG9uJywgJy1waCcsICc3LjAnLCAnLXRuJywgJzgnLCAnLW1hJywgJzIwMCcsICctbWV0YWxfYmluZGluZycsICctaW1hZScsICc8aW5maWxlLm1hZT4nLCAnLW9tYWUnLCAnPG91dGZpbGUubWFlPic=

> <r_lp_tautomer_probability>
1

> <r_epik_Ionization_Penalty>
0.00425795

> <r_epik_Ionization_Penalty_Charging>
0

> <r_epik_Ionization_Penalty_Neutral>
0.00425795

> <r_epik_State_Penalty>
0.00299946

> <r_epik_Charging_Adjusted_Penalty>
0.00299946

> <i_epik_Tot_Q>
0

> <i_epik_Tot_abs_Q>
0

> <r_epik_Metal_State_Penalty>
-0

> <b_epik_Metal_Only>
0

> <s_lp_Force_Field>
OPLS_2005

> <r_lp_Energy>
53.5729

> <b_lp_Chiralities_Consistent>
1

> <s_lp_Variant>
AV-unprocessed.smi:86-4

> <Gold.Version>
5.8.1

> <Gold.Id.Protein>
6NUR|6NUR_protein|mol2

> <Gold.PLP.Fitness>
45.3038

> <Gold.PLP.PLP>
-44.3591

> <Gold.PLP.part.hbond>
-3.0000

> <Gold.PLP.part.metal>
0.0000

> <Gold.PLP.part.buried>
-3.9413

> <Gold.PLP.part.nonpolar>
-38.2044

> <Gold.PLP.part.repulsive>
0.1512

> <Gold.PLP.ligand.clash>
0.0000

> <Gold.PLP.ligand.torsion>
1.2566

> <Gold.PLP.Chemscore.Hbond>
1.0000

> <Gold.PLP.Chemscore.CHOScore>
0.0000

> <Gold.PLP.Chemscore.Metal>
0.0000

> <Gold.Chemscore.Hbonds>
donor molecule, donor type, donor heavy atom, donor atom, acceptor molecule, acceptor atom, score
      P1  H  7997  8008       L1     7  1.00

> <Gold.PLP.Chemscore.Internal.Correction>
0.4579

> <Gold.Rescore>
     Score         DG    S(hbond)    S(metal)    S(lipo)     H(rot)  DE(clash)    DE(int)     intcor
     11.27     -15.58       0.97        0.00     119.10       2.76       1.10       3.21       ----

> <Gold.Chemscore.Fitness>
11.2660

> <Gold.Chemscore.DG>
-15.5811

> <Gold.Chemscore.ZeroCoef>
-5.4800

> <Gold.Chemscore.Hbond>
0.9699

> <Gold.Chemscore.Metal>
0.0000

> <Gold.Chemscore.Lipo>
119.1018

> <Gold.Chemscore.Internal_Hbond>
0.0000

> <Gold.Chemscore.DEClash>
1.1041

> <Gold.Chemscore.DEInternal>
3.2111

> <Gold.Chemscore.Rot>
2.7630

> <Gold.Chemscore.Internal.Correction>
   9.000000E+99

> <Gold.Chemscore.Hbonds>
donor molecule, donor type, donor heavy atom, donor atom, acceptor molecule, acceptor atom, score
      P1  H  7997  8008       L1     7  0.98

> <Gold.Chemscore.Hbond.Weighted>
-3.2396

> <Gold.Chemscore.Metal.Weighted>
-0.0000

> <Gold.Chemscore.Lipo.Weighted>
-13.9349

> <Gold.Chemscore.Internal_Hbond.Weighted>
0.0000

> <Gold.Chemscore.DEClash.Weighted>
1.1041

> <Gold.Chemscore.DEInternal.Weighted>
3.2111

> <Gold.Chemscore.Rot.Weighted>
7.0734

> <Gold.Chemscore.Internal.Correction.Weighted>
   9.000000E+99

> <Gold.Protein.RotatedTorsions>
[ 6907 6896 6895 6894 ] final   18.49 input  -60.11 | X-H torsion
[ 7974 7965 7964 7962 ] final   45.89 input  175.53 | X-H torsion
[ 8008 7997 7996 7995 ] final  -45.68 input   59.86 | X-H torsion
[ 10167 10162 10161 10158 ] final  -86.54 input  -65.29 | X-H torsion
[ 10718 10713 10712 10709 ] final    1.13 input   66.30 | X-H torsion
[ 10763 10752 10751 10750 ] final  -85.33 input  -60.55 | X-H torsion
[ 11005 11000 10999 10996 ] final  -33.64 input  -57.11 | X-H torsion

> <Gold.Protein.ActiveResidues>
 VAL166  LYS551  ARG553  GLY616  TRP617  ASP618  TYR619  PRO620  LYS621  CYS622 
 ASP623  PHE694  ASN695  SER759  ASP760  ASP761  ALA762  ILE779  LEU786  VAL792 
 PHE793  MET794  SER795  GLU796  ALA797  LYS798  CYS799  TRP800  GLU811  SER814 

> <Gold.Protein.RotatedAtoms>
  151.8661  135.0506  160.0474 H   0  0  0  0  0  0  0  0  0  0  0  0  # atno 6907 bound_to 6896
  152.2625  133.5306  159.5399 H   0  0  0  0  0  0  0  0  0  0  0  0  # atno 6908 bound_to 6896
  150.7122  134.0726  159.3912 H   0  0  0  0  0  0  0  0  0  0  0  0  # atno 6909 bound_to 6896
  146.0439  139.4915  142.9761 H   0  0  0  0  0  0  0  0  0  0  0  0  # atno 7974 bound_to 7965
  154.4002  140.1390  156.3887 H   0  0  0  0  0  0  0  0  0  0  0  0  # atno 8008 bound_to 7997
  155.7935  140.3478  155.5342 H   0  0  0  0  0  0  0  0  0  0  0  0  # atno 8009 bound_to 7997
  155.8556  140.0948  157.1637 H   0  0  0  0  0  0  0  0  0  0  0  0  # atno 8010 bound_to 7997
  140.3931  143.2696  151.9239 H   0  0  0  0  0  0  0  0  0  0  0  0  # atno 10167 bound_to 10162
  156.8436  130.5529  149.5675 H   0  0  0  0  0  0  0  0  0  0  0  0  # atno 10718 bound_to 10713
  154.6099  135.5489  153.7462 H   0  0  0  0  0  0  0  0  0  0  0  0  # atno 10763 bound_to 10752
  153.0190  135.6387  154.1593 H   0  0  0  0  0  0  0  0  0  0  0  0  # atno 10764 bound_to 10752
  154.1531  135.2901  155.3109 H   0  0  0  0  0  0  0  0  0  0  0  0  # atno 10765 bound_to 10752
  140.9651  133.7141  156.1433 H   0  0  0  0  0  0  0  0  0  0  0  0  # atno 11005 bound_to 11000
  145.6838  141.0184  143.1592 LP  0  0  0  0  0  0  0  0  0  0  0  0  # atno 17320 bound_to 7965
  144.7088  139.8452  143.7421 LP  0  0  0  0  0  0  0  0  0  0  0  0  # atno 17321 bound_to 7965
  139.4788  144.5708  151.8092 LP  0  0  0  0  0  0  0  0  0  0  0  0  # atno 17342 bound_to 10162
  140.4819  144.1438  150.5934 LP  0  0  0  0  0  0  0  0  0  0  0  0  # atno 17343 bound_to 10162
  156.0867  130.5863  150.9660 LP  0  0  0  0  0  0  0  0  0  0  0  0  # atno 17370 bound_to 10713
  157.6342  131.0918  150.8382 LP  0  0  0  0  0  0  0  0  0  0  0  0  # atno 17371 bound_to 10713
  140.7410  134.4150  157.5554 LP  0  0  0  0  0  0  0  0  0  0  0  0  # atno 17394 bound_to 11000
  139.8892  134.8837  156.2435 LP  0  0  0  0  0  0  0  0  0  0  0  0  # atno 17395 bound_to 11000

$$$$
