AV-unprocessed.smi:2076|AV-procd|sdf|8457|dock8
  -GOLD-   2272011153D 1   1.00000     0.00000
 Structure written by MMmdl.
 44 45  0  0  0  0  0  0  0  0  1 V2000
  146.0517  128.6307  152.3513 C   0  0  0  0  0  0  0  0  0  0  0  0
  145.9719  130.0808  151.9760 C   0  0  0  0  0  0  0  0  0  0  0  0
  144.9376  130.7529  151.2666 C   0  0  0  0  0  0  0  0  0  0  0  0
  145.3663  132.0481  151.1912 C   0  0  0  0  0  0  0  0  0  0  0  0
  144.7259  133.2390  150.5575 C   0  0  0  0  0  0  0  0  0  0  0  0
  146.5898  132.1040  151.8353 N   0  0  0  0  0  0  0  0  0  0  0  0
  147.4814  133.2401  152.0157 C   0  0  0  0  0  0  0  0  0  0  0  0
  147.9823  133.3137  153.4585 C   0  0  0  0  0  0  0  0  0  0  0  0
  147.7076  132.4159  154.2544 O   0  0  0  0  0  0  0  0  0  0  0  0
  148.6932  134.4035  153.7864 N   0  0  0  0  0  0  0  0  0  0  0  0
  149.1358  134.7441  155.1340 C   0  0  0  0  0  0  0  0  0  0  0  0
  148.6934  136.1699  155.5775 C   0  0  2  0  0  0  0  0  0  0  0  0
  147.1491  136.2734  155.4744 C   0  0  0  0  0  0  0  0  0  0  0  0
  149.3919  137.2523  154.8461 N   0  0  0  0  0  0  0  0  0  0  0  0
  150.8338  137.2812  155.1181 C   0  0  0  0  0  0  0  0  0  0  0  0
  151.5580  138.4254  154.3874 C   0  0  0  0  0  0  0  0  0  0  0  0
  150.9688  139.6694  154.7392 O   0  0  0  0  0  0  0  0  0  0  0  0
  149.5856  139.7132  154.4185 C   0  0  0  0  0  0  0  0  0  0  0  0
  148.8478  138.5805  155.1527 C   0  0  0  0  0  0  0  0  0  0  0  0
  146.9566  130.8957  152.3165 N   0  0  0  0  0  0  0  0  0  0  0  0
  145.2456  128.0596  151.8902 H   0  0  0  0  0  0  0  0  0  0  0  0
  145.9751  128.5009  153.4308 H   0  0  0  0  0  0  0  0  0  0  0  0
  146.9955  128.1909  152.0276 H   0  0  0  0  0  0  0  0  0  0  0  0
  144.0204  130.3445  150.8684 H   0  0  0  0  0  0  0  0  0  0  0  0
  143.7519  132.9817  150.1410 H   0  0  0  0  0  0  0  0  0  0  0  0
  145.3435  133.6273  149.7476 H   0  0  0  0  0  0  0  0  0  0  0  0
  144.5783  134.0364  151.2860 H   0  0  0  0  0  0  0  0  0  0  0  0
  148.3218  133.1470  151.3270 H   0  0  0  0  0  0  0  0  0  0  0  0
  146.9580  134.1622  151.7576 H   0  0  0  0  0  0  0  0  0  0  0  0
  148.8710  135.0852  153.0625 H   0  0  0  0  0  0  0  0  0  0  0  0
  148.7537  133.9699  155.7980 H   0  0  0  0  0  0  0  0  0  0  0  0
  150.2230  134.6676  155.1624 H   0  0  0  0  0  0  0  0  0  0  0  0
  148.9447  136.2686  156.6349 H   0  0  0  0  0  0  0  0  0  0  0  0
  146.6396  135.4563  155.9844 H   0  0  0  0  0  0  0  0  0  0  0  0
  146.8224  136.2641  154.4341 H   0  0  0  0  0  0  0  0  0  0  0  0
  146.7620  137.1773  155.9418 H   0  0  0  0  0  0  0  0  0  0  0  0
  151.0069  137.3704  156.1916 H   0  0  0  0  0  0  0  0  0  0  0  0
  151.3060  136.3556  154.7962 H   0  0  0  0  0  0  0  0  0  0  0  0
  152.6124  138.4418  154.6630 H   0  0  0  0  0  0  0  0  0  0  0  0
  151.5118  138.2843  153.3062 H   0  0  0  0  0  0  0  0  0  0  0  0
  149.1825  140.6816  154.7148 H   0  0  0  0  0  0  0  0  0  0  0  0
  149.4501  139.6272  153.3391 H   0  0  0  0  0  0  0  0  0  0  0  0
  147.8008  138.6435  154.8617 H   0  0  0  0  0  0  0  0  0  0  0  0
  148.8900  138.7588  156.2283 H   0  0  0  0  0  0  0  0  0  0  0  0
  1  2  1  0  0  0  0
  1 21  1  0  0  0  0
  1 22  1  0  0  0  0
  1 23  1  0  0  0  0
  2 20  2  0  0  0  0
  2  3  1  0  0  0  0
  3  4  2  0  0  0  0
  3 24  1  0  0  0  0
  4  5  1  0  0  0  0
  4  6  1  0  0  0  0
  5 25  1  0  0  0  0
  5 26  1  0  0  0  0
  5 27  1  0  0  0  0
  6  7  1  0  0  0  0
  6 20  1  0  0  0  0
  7  8  1  0  0  0  0
  7 28  1  0  0  0  0
  7 29  1  0  0  0  0
  8  9  2  0  0  0  0
  8 10  1  0  0  0  0
 10 11  1  0  0  0  0
 10 30  1  0  0  0  0
 11 12  1  0  0  0  0
 11 31  1  0  0  0  0
 11 32  1  0  0  0  0
 12 13  1  0  0  0  0
 12 14  1  0  0  0  0
 12 33  1  0  0  0  0
 13 34  1  0  0  0  0
 13 35  1  0  0  0  0
 13 36  1  0  0  0  0
 14 19  1  0  0  0  0
 14 15  1  0  0  0  0
 15 16  1  0  0  0  0
 15 37  1  0  0  0  0
 15 38  1  0  0  0  0
 16 17  1  0  0  0  0
 16 39  1  0  0  0  0
 16 40  1  0  0  0  0
 17 18  1  0  0  0  0
 18 19  1  0  0  0  0
 18 41  1  0  0  0  0
 18 42  1  0  0  0  0
 19 43  1  0  0  0  0
 19 44  1  0  0  0  0
M  END
> <s_m_source_file>
AV-unprocessed.smi

> <i_m_source_file_index>
2076

> <i_lp_mmshare_version>
43012

> <i_f3d_flags>
0

> <s_epik_input>
W0NIM11jMVtjSF1jKFtDSDNdKW4objEpW0NIMl1DKD1PKVtOSF1bQ0gyXVtDQEhdKFtDSDNdKU4yW0NIMl1bQ0gyXU9bQ0gyXVtDSDJdMg==

> <s_epik_cmdline>
J2VwaWtfcHl0aG9uJywgJy1waCcsICc3LjAnLCAnLXRuJywgJzgnLCAnLW1hJywgJzIwMCcsICctbWV0YWxfYmluZGluZycsICctaW1hZScsICc8aW5maWxlLm1hZT4nLCAnLW9tYWUnLCAnPG91dGZpbGUubWFlPic=

> <r_lp_tautomer_probability>
1

> <r_epik_Ionization_Penalty>
0.197284

> <r_epik_Ionization_Penalty_Charging>
0

> <r_epik_Ionization_Penalty_Neutral>
0.197284

> <r_epik_State_Penalty>
0.186684

> <r_epik_Charging_Adjusted_Penalty>
0.186684

> <i_epik_Tot_Q>
0

> <i_epik_Tot_abs_Q>
0

> <r_epik_Metal_State_Penalty>
0.186636

> <b_epik_Metal_Only>
0

> <s_lp_Force_Field>
OPLS_2005

> <r_lp_Energy>
25.7273

> <b_lp_Chiralities_Consistent>
1

> <s_lp_Variant>
AV-unprocessed.smi:2076-1

> <Gold.Version>
5.8.1

> <Gold.Id.Protein>
6NUR|6NUR_protein|mol2

> <Gold.PLP.Fitness>
38.7616

> <Gold.PLP.PLP>
-33.3690

> <Gold.PLP.part.hbond>
-2.0000

> <Gold.PLP.part.metal>
0.0000

> <Gold.PLP.part.buried>
-5.1929

> <Gold.PLP.part.nonpolar>
-26.6983

> <Gold.PLP.part.repulsive>
1.3296

> <Gold.PLP.ligand.clash>
0.0000

> <Gold.PLP.ligand.torsion>
0.3186

> <Gold.PLP.Chemscore.Hbond>
2.0000

> <Gold.PLP.Chemscore.CHOScore>
0.0000

> <Gold.PLP.Chemscore.Metal>
0.0000

> <Gold.Chemscore.Hbonds>
donor molecule, donor type, donor heavy atom, donor atom, acceptor molecule, acceptor atom, score
      L1  H    10    30       P1  7948  1.00
      P1  H  7989  7998       L1    17  1.00

> <Gold.PLP.Chemscore.Internal.Correction>
0.0298

> <Gold.Rescore>
     Score         DG    S(hbond)    S(metal)    S(lipo)     H(rot)  DE(clash)    DE(int)     intcor
     12.71     -14.72       1.21        0.00      81.59       1.70       0.06       1.95       ----

> <Gold.Chemscore.Fitness>
12.7148

> <Gold.Chemscore.DG>
-14.7241

> <Gold.Chemscore.ZeroCoef>
-5.4800

> <Gold.Chemscore.Hbond>
1.2122

> <Gold.Chemscore.Metal>
0.0000

> <Gold.Chemscore.Lipo>
81.5874

> <Gold.Chemscore.Internal_Hbond>
0.0000

> <Gold.Chemscore.DEClash>
0.0630

> <Gold.Chemscore.DEInternal>
1.9464

> <Gold.Chemscore.Rot>
1.6993

> <Gold.Chemscore.Internal.Correction>
   9.000000E+99

> <Gold.Chemscore.Hbonds>
donor molecule, donor type, donor heavy atom, donor atom, acceptor molecule, acceptor atom, score
      L1  H    10    30       P1  7948  0.30
      P1  H  7989  7998       L1    17  0.11

> <Gold.Chemscore.Hbond.Weighted>
-4.0486

> <Gold.Chemscore.Metal.Weighted>
-0.0000

> <Gold.Chemscore.Lipo.Weighted>
-9.5457

> <Gold.Chemscore.Internal_Hbond.Weighted>
0.0000

> <Gold.Chemscore.DEClash.Weighted>
0.0630

> <Gold.Chemscore.DEInternal.Weighted>
1.9464

> <Gold.Chemscore.Rot.Weighted>
4.3502

> <Gold.Chemscore.Internal.Correction.Weighted>
   9.000000E+99

> <Gold.Protein.RotatedTorsions>
[ 6907 6896 6895 6894 ] final  116.99 input  -60.11 | X-H torsion
[ 7974 7965 7964 7962 ] final   67.08 input  175.53 | X-H torsion
[ 8008 7997 7996 7995 ] final   22.80 input   59.86 | X-H torsion
[ 10167 10162 10161 10158 ] final   40.49 input  -65.29 | X-H torsion
[ 10718 10713 10712 10709 ] final -147.09 input   66.30 | X-H torsion
[ 10763 10752 10751 10750 ] final -115.19 input  -60.55 | X-H torsion
[ 11005 11000 10999 10996 ] final  131.83 input  -57.11 | X-H torsion

> <Gold.Protein.ActiveResidues>
 VAL166  LYS551  ARG553  GLY616  TRP617  ASP618  TYR619  PRO620  LYS621  CYS622 
 ASP623  PHE694  ASN695  SER759  ASP760  ASP761  ALA762  ILE779  LEU786  VAL792 
 PHE793  MET794  SER795  GLU796  ALA797  LYS798  CYS799  TRP800  GLU811  SER814 

> <Gold.Protein.RotatedAtoms>
  152.4641  133.7886  159.6889 H   0  0  0  0  0  0  0  0  0  0  0  0  # atno 6907 bound_to 6896
  150.8598  133.7650  159.3002 H   0  0  0  0  0  0  0  0  0  0  0  0  # atno 6908 bound_to 6896
  151.5219  135.1070  159.9932 H   0  0  0  0  0  0  0  0  0  0  0  0  # atno 6909 bound_to 6896
  145.8190  139.3074  143.1055 H   0  0  0  0  0  0  0  0  0  0  0  0  # atno 7974 bound_to 7965
  154.9712  140.3090  155.4987 H   0  0  0  0  0  0  0  0  0  0  0  0  # atno 8008 bound_to 7997
  156.2965  140.2283  156.4744 H   0  0  0  0  0  0  0  0  0  0  0  0  # atno 8009 bound_to 7997
  154.7875  140.0442  157.1163 H   0  0  0  0  0  0  0  0  0  0  0  0  # atno 8010 bound_to 7997
  140.3737  144.2071  150.6132 H   0  0  0  0  0  0  0  0  0  0  0  0  # atno 10167 bound_to 10162
  156.4031  130.7944  151.2156 H   0  0  0  0  0  0  0  0  0  0  0  0  # atno 10718 bound_to 10713
  154.8471  135.4390  154.1624 H   0  0  0  0  0  0  0  0  0  0  0  0  # atno 10763 bound_to 10752
  153.2757  135.6949  153.7441 H   0  0  0  0  0  0  0  0  0  0  0  0  # atno 10764 bound_to 10752
  153.6664  135.3426  155.3116 H   0  0  0  0  0  0  0  0  0  0  0  0  # atno 10765 bound_to 10752
  139.9753  134.9565  156.9495 H   0  0  0  0  0  0  0  0  0  0  0  0  # atno 11005 bound_to 11000
  145.9696  140.8771  143.0169 LP  0  0  0  0  0  0  0  0  0  0  0  0  # atno 17320 bound_to 7965
  144.6749  140.1927  143.7395 LP  0  0  0  0  0  0  0  0  0  0  0  0  # atno 17321 bound_to 7965
  140.5007  143.2318  151.8682 LP  0  0  0  0  0  0  0  0  0  0  0  0  # atno 17342 bound_to 10162
  139.4801  144.5062  151.8994 LP  0  0  0  0  0  0  0  0  0  0  0  0  # atno 17343 bound_to 10162
  157.7504  131.0281  150.4033 LP  0  0  0  0  0  0  0  0  0  0  0  0  # atno 17370 bound_to 10713
  156.4316  130.3973  149.6756 LP  0  0  0  0  0  0  0  0  0  0  0  0  # atno 17371 bound_to 10713
  140.5207  134.0910  155.7291 LP  0  0  0  0  0  0  0  0  0  0  0  0  # atno 17394 bound_to 11000
  141.1431  133.9103  157.2280 LP  0  0  0  0  0  0  0  0  0  0  0  0  # atno 17395 bound_to 11000

$$$$
