AV-unprocessed.smi:1419|AV-procd|sdf|5781|dock6
  -GOLD-   22720 5423D 1   1.00000     0.00000
 Structure written by MMmdl.
 41 42  0  0  0  0  0  0  0  0  1 V2000
  150.9769  140.4329  157.3854 C   0  0  0  0  0  0  0  0  0  0  0  0
  150.3087  141.8120  157.4651 C   0  0  1  0  0  0  0  0  0  0  0  0
  151.3300  142.9465  157.2314 C   0  0  0  0  0  0  0  0  0  0  0  0
  151.6341  143.6853  158.4442 N   0  0  0  0  0  0  0  0  0  0  0  0
  151.4190  145.0367  158.6795 C   0  0  0  0  0  0  0  0  0  0  0  0
  151.8815  145.2923  159.9506 C   0  0  0  0  0  0  0  0  0  0  0  0
  152.3754  144.1187  160.5156 N   0  0  0  0  0  0  0  0  0  0  0  0
  152.1907  143.2099  159.5673 C   0  0  0  0  0  0  0  0  0  0  0  0
  149.2332  141.8790  156.4766 N   0  0  0  0  0  0  0  0  0  0  0  0
  149.2740  141.3692  155.2329 C   0  0  0  0  0  0  0  0  0  0  0  0
  150.2979  140.8788  154.7551 O   0  0  0  0  0  0  0  0  0  0  0  0
  148.0863  141.3842  154.5799 N   0  0  0  0  0  0  0  0  0  0  0  0
  146.7808  141.7620  155.1359 C   0  0  0  0  0  0  0  0  0  0  0  0
  145.9655  140.4710  155.3470 C   0  0  1  0  0  0  0  0  0  0  0  0
  144.5590  140.7552  155.8837 C   0  0  0  0  0  0  0  0  0  0  0  0
  145.8393  139.7928  154.0966 O   0  0  0  0  0  0  0  0  0  0  0  0
  147.0877  139.4605  153.4872 C   0  0  1  0  0  0  0  0  0  0  0  0
  146.8002  138.7277  152.1729 C   0  0  0  0  0  0  0  0  0  0  0  0
  147.9042  140.7517  153.2723 C   0  0  0  0  0  0  0  0  0  0  0  0
  151.7695  140.3386  158.1281 H   0  0  0  0  0  0  0  0  0  0  0  0
  151.4191  140.2609  156.4034 H   0  0  0  0  0  0  0  0  0  0  0  0
  150.2563  139.6356  157.5713 H   0  0  0  0  0  0  0  0  0  0  0  0
  149.8970  141.9133  158.4709 H   0  0  0  0  0  0  0  0  0  0  0  0
  152.2645  142.5373  156.8459 H   0  0  0  0  0  0  0  0  0  0  0  0
  150.9607  143.6445  156.4786 H   0  0  0  0  0  0  0  0  0  0  0  0
  150.9776  145.6880  157.9397 H   0  0  0  0  0  0  0  0  0  0  0  0
  151.8976  146.2236  160.4971 H   0  0  0  0  0  0  0  0  0  0  0  0
  152.4797  142.1762  159.6880 H   0  0  0  0  0  0  0  0  0  0  0  0
  148.3563  142.2678  156.7911 H   0  0  0  0  0  0  0  0  0  0  0  0
  146.8466  142.3285  156.0650 H   0  0  0  0  0  0  0  0  0  0  0  0
  146.2676  142.4189  154.4320 H   0  0  0  0  0  0  0  0  0  0  0  0
  146.4837  139.8199  156.0531 H   0  0  0  0  0  0  0  0  0  0  0  0
  144.6022  141.2613  156.8483 H   0  0  0  0  0  0  0  0  0  0  0  0
  143.9990  139.8297  156.0188 H   0  0  0  0  0  0  0  0  0  0  0  0
  143.9955  141.3882  155.1975 H   0  0  0  0  0  0  0  0  0  0  0  0
  147.6351  138.7857  154.1486 H   0  0  0  0  0  0  0  0  0  0  0  0
  147.7261  138.4432  151.6723 H   0  0  0  0  0  0  0  0  0  0  0  0
  146.2270  139.3541  151.4887 H   0  0  0  0  0  0  0  0  0  0  0  0
  146.2268  137.8180  152.3524 H   0  0  0  0  0  0  0  0  0  0  0  0
  147.3757  141.4335  152.6040 H   0  0  0  0  0  0  0  0  0  0  0  0
  148.8499  140.5206  152.7799 H   0  0  0  0  0  0  0  0  0  0  0  0
  1  2  1  0  0  0  0
  1 20  1  0  0  0  0
  1 21  1  0  0  0  0
  1 22  1  0  0  0  0
  2  3  1  0  0  0  0
  2  9  1  0  0  0  0
  2 23  1  0  0  0  0
  3  4  1  0  0  0  0
  3 24  1  0  0  0  0
  3 25  1  0  0  0  0
  4  8  1  0  0  0  0
  4  5  1  0  0  0  0
  5  6  2  0  0  0  0
  5 26  1  0  0  0  0
  6  7  1  0  0  0  0
  6 27  1  0  0  0  0
  7  8  2  0  0  0  0
  8 28  1  0  0  0  0
  9 10  1  0  0  0  0
  9 29  1  0  0  0  0
 10 11  2  0  0  0  0
 10 12  1  0  0  0  0
 12 19  1  0  0  0  0
 12 13  1  0  0  0  0
 13 14  1  0  0  0  0
 13 30  1  0  0  0  0
 13 31  1  0  0  0  0
 14 15  1  0  0  0  0
 14 16  1  0  0  0  0
 14 32  1  0  0  0  0
 15 33  1  0  0  0  0
 15 34  1  0  0  0  0
 15 35  1  0  0  0  0
 16 17  1  0  0  0  0
 17 18  1  0  0  0  0
 17 19  1  0  0  0  0
 17 36  1  0  0  0  0
 18 37  1  0  0  0  0
 18 38  1  0  0  0  0
 18 39  1  0  0  0  0
 19 40  1  0  0  0  0
 19 41  1  0  0  0  0
M  END
> <s_m_source_file>
AV-unprocessed.smi

> <i_m_source_file_index>
1419

> <i_lp_mmshare_version>
43012

> <i_f3d_flags>
0

> <s_epik_input>
W2NIXTFuW2NIXVtjSF1uMVtDSDJdW0NAQEhdKFtDSDNdKVtOSF1DKD1PKU4yW0NIMl1bQ0BASF0oW0NIM10pT1tDQEBIXShbQ0gzXSlbQ0gyXTI=

> <s_epik_cmdline>
J2VwaWtfcHl0aG9uJywgJy1waCcsICc3LjAnLCAnLXRuJywgJzgnLCAnLW1hJywgJzIwMCcsICctbWV0YWxfYmluZGluZycsICctaW1hZScsICc8aW5maWxlLm1hZT4nLCAnLW9tYWUnLCAnPG91dGZpbGUubWFlPic=

> <r_lp_tautomer_probability>
1

> <r_epik_Ionization_Penalty>
0.625124

> <r_epik_Ionization_Penalty_Charging>
0.625093

> <r_epik_Ionization_Penalty_Neutral>
3.17415e-05

> <r_epik_State_Penalty>
0.641455

> <r_epik_Charging_Adjusted_Penalty>
1.26655

> <i_epik_Tot_Q>
0

> <i_epik_Tot_abs_Q>
0

> <r_epik_Metal_State_Penalty>
0.307717

> <b_epik_Metal_Only>
0

> <s_lp_Force_Field>
OPLS_2005

> <r_lp_Energy>
27.9017

> <b_lp_Chiralities_Consistent>
1

> <s_lp_Variant>
AV-unprocessed.smi:1419-8

> <Gold.Version>
5.8.1

> <Gold.Id.Protein>
6NUR|6NUR_protein|mol2

> <Gold.PLP.Fitness>
37.2629

> <Gold.PLP.PLP>
-36.9393

> <Gold.PLP.part.hbond>
-2.0000

> <Gold.PLP.part.metal>
0.0000

> <Gold.PLP.part.buried>
-2.3898

> <Gold.PLP.part.nonpolar>
-35.1487

> <Gold.PLP.part.repulsive>
2.4662

> <Gold.PLP.ligand.clash>
0.0000

> <Gold.PLP.ligand.torsion>
1.0255

> <Gold.PLP.Chemscore.Hbond>
0.7680

> <Gold.PLP.Chemscore.CHOScore>
0.0000

> <Gold.PLP.Chemscore.Metal>
0.0000

> <Gold.Chemscore.Hbonds>
donor molecule, donor type, donor heavy atom, donor atom, acceptor molecule, acceptor atom, score
      P1  H  7989  7998       L1    11  0.75

> <Gold.PLP.Chemscore.Internal.Correction>
0.0706

> <Gold.Rescore>
     Score         DG    S(hbond)    S(metal)    S(lipo)     H(rot)  DE(clash)    DE(int)     intcor
      9.37     -12.63       0.79        0.00      73.12       1.58       0.82       2.44       ----

> <Gold.Chemscore.Fitness>
9.3719

> <Gold.Chemscore.DG>
-12.6328

> <Gold.Chemscore.ZeroCoef>
-5.4800

> <Gold.Chemscore.Hbond>
0.7889

> <Gold.Chemscore.Metal>
0.0000

> <Gold.Chemscore.Lipo>
73.1162

> <Gold.Chemscore.Internal_Hbond>
0.0000

> <Gold.Chemscore.DEClash>
0.8184

> <Gold.Chemscore.DEInternal>
2.4424

> <Gold.Chemscore.Rot>
1.5769

> <Gold.Chemscore.Internal.Correction>
   9.000000E+99

> <Gold.Chemscore.Hbonds>
donor molecule, donor type, donor heavy atom, donor atom, acceptor molecule, acceptor atom, score
      P1  H  7989  7998       L1    11  0.76

> <Gold.Chemscore.Hbond.Weighted>
-2.6351

> <Gold.Chemscore.Metal.Weighted>
-0.0000

> <Gold.Chemscore.Lipo.Weighted>
-8.5546

> <Gold.Chemscore.Internal_Hbond.Weighted>
0.0000

> <Gold.Chemscore.DEClash.Weighted>
0.8184

> <Gold.Chemscore.DEInternal.Weighted>
2.4424

> <Gold.Chemscore.Rot.Weighted>
4.0369

> <Gold.Chemscore.Internal.Correction.Weighted>
   9.000000E+99

> <Gold.Protein.RotatedTorsions>
[ 6907 6896 6895 6894 ] final -147.41 input  -60.11 | X-H torsion
[ 7974 7965 7964 7962 ] final  125.21 input  175.53 | X-H torsion
[ 8008 7997 7996 7995 ] final  -28.84 input   59.86 | X-H torsion
[ 10167 10162 10161 10158 ] final   26.15 input  -65.29 | X-H torsion
[ 10718 10713 10712 10709 ] final  -13.85 input   66.30 | X-H torsion
[ 10763 10752 10751 10750 ] final -114.00 input  -60.55 | X-H torsion
[ 11005 11000 10999 10996 ] final  128.48 input  -57.11 | X-H torsion

> <Gold.Protein.ActiveResidues>
 VAL166  LYS551  ARG553  GLY616  TRP617  ASP618  TYR619  PRO620  LYS621  CYS622 
 ASP623  PHE694  ASN695  SER759  ASP760  ASP761  ALA762  ILE779  LEU786  VAL792 
 PHE793  MET794  SER795  GLU796  ALA797  LYS798  CYS799  TRP800  GLU811  SER814 

> <Gold.Protein.RotatedAtoms>
  151.1552  133.4881  159.2594 H   0  0  0  0  0  0  0  0  0  0  0  0  # atno 6907 bound_to 6896
  151.1511  135.0227  159.8679 H   0  0  0  0  0  0  0  0  0  0  0  0  # atno 6908 bound_to 6896
  152.5463  134.1436  159.8542 H   0  0  0  0  0  0  0  0  0  0  0  0  # atno 6909 bound_to 6896
  145.0756  139.3696  143.4935 H   0  0  0  0  0  0  0  0  0  0  0  0  # atno 7974 bound_to 7965
  154.4315  140.1834  156.1154 H   0  0  0  0  0  0  0  0  0  0  0  0  # atno 8008 bound_to 7997
  156.0185  140.3343  155.6989 H   0  0  0  0  0  0  0  0  0  0  0  0  # atno 8009 bound_to 7997
  155.6010  140.0640  157.2724 H   0  0  0  0  0  0  0  0  0  0  0  0  # atno 8010 bound_to 7997
  140.5047  144.0258  150.6347 H   0  0  0  0  0  0  0  0  0  0  0  0  # atno 10167 bound_to 10162
  156.6244  130.4884  149.6152 H   0  0  0  0  0  0  0  0  0  0  0  0  # atno 10718 bound_to 10713
  154.8421  135.4433  154.1438 H   0  0  0  0  0  0  0  0  0  0  0  0  # atno 10763 bound_to 10752
  153.2616  135.6936  153.7578 H   0  0  0  0  0  0  0  0  0  0  0  0  # atno 10764 bound_to 10752
  153.6853  135.3396  155.3164 H   0  0  0  0  0  0  0  0  0  0  0  0  # atno 10765 bound_to 10752
  139.9563  134.9612  156.9008 H   0  0  0  0  0  0  0  0  0  0  0  0  # atno 11005 bound_to 11000
  146.3530  140.0522  142.8635 LP  0  0  0  0  0  0  0  0  0  0  0  0  # atno 17320 bound_to 7965
  145.1240  140.9479  143.4584 LP  0  0  0  0  0  0  0  0  0  0  0  0  # atno 17321 bound_to 7965
  140.3564  143.2933  152.0431 LP  0  0  0  0  0  0  0  0  0  0  0  0  # atno 17342 bound_to 10162
  139.4880  144.6335  151.7021 LP  0  0  0  0  0  0  0  0  0  0  0  0  # atno 17343 bound_to 10162
  156.2286  130.6780  151.1440 LP  0  0  0  0  0  0  0  0  0  0  0  0  # atno 17370 bound_to 10713
  157.7218  131.0676  150.6102 LP  0  0  0  0  0  0  0  0  0  0  0  0  # atno 17371 bound_to 10713
  140.5602  134.0542  155.7396 LP  0  0  0  0  0  0  0  0  0  0  0  0  # atno 17394 bound_to 11000
  141.1235  133.9422  157.2683 LP  0  0  0  0  0  0  0  0  0  0  0  0  # atno 17395 bound_to 11000

$$$$
