AV-unprocessed.smi:534|AV-procd|sdf|2857|dock9
  -GOLD-   2262023353D 1   1.00000     0.00000
 Structure written by MMmdl.
 39 40  0  0  0  0  0  0  0  0  2 V2000
  152.1490  144.8268  160.4077 C   0  0  0  0  0  0  0  0  0  0  0  0
  152.8027  144.0364  159.4311 O   0  0  0  0  0  0  0  0  0  0  0  0
  152.2693  144.2280  158.1308 C   0  0  0  0  0  0  0  0  0  0  0  0
  150.7841  143.8468  158.1391 C   0  0  0  0  0  0  0  0  0  0  0  0
  150.4670  142.9310  157.0605 N   0  0  0  0  0  0  0  0  0  0  0  0
  150.8741  141.6282  156.8002 C   0  0  0  0  0  0  0  0  0  0  0  0
  151.7272  140.9374  157.5579 N   0  0  0  0  0  0  0  0  0  0  0  0
  151.8336  139.7341  156.8734 C   0  0  0  0  0  0  0  0  0  0  0  0
  151.0668  139.7360  155.7492 C   0  0  0  0  0  0  0  0  0  0  0  0
  150.9925  138.6063  154.7984 C   0  0  0  0  0  0  0  0  0  0  0  0
  150.2949  138.6727  153.7880 O   0  0  0  0  0  0  0  0  0  0  0  0
  151.7746  137.5507  155.1898 N   0  5  0  0  0  0  0  0  0  0  0  0
  152.5632  137.5020  156.3197 C   0  0  0  0  0  0  0  0  0  0  0  0
  153.2426  136.5122  156.5958 O   0  0  0  0  0  0  0  0  0  0  0  0
  152.6047  138.5770  157.1691 N   0  0  0  0  0  0  0  0  0  0  0  0
  153.4369  138.5549  158.3756 C   0  0  0  0  0  0  0  0  0  0  0  0
  150.4248  140.9757  155.7002 N   0  0  0  0  0  0  0  0  0  0  0  0
  149.5020  141.4768  154.6856 C   0  0  0  0  0  0  0  0  0  0  0  0
  148.3405  140.5033  154.4385 C   0  0  0  0  0  0  0  0  0  0  0  0
  147.3679  141.1224  153.6109 O   0  0  0  0  0  0  0  0  0  0  0  0
  146.9623  142.3883  154.0982 C   0  0  0  0  0  0  0  0  0  0  0  0
  152.6075  144.6576  161.3819 H   0  0  0  0  0  0  0  0  0  0  0  0
  151.0931  144.5636  160.4831 H   0  0  0  0  0  0  0  0  0  0  0  0
  152.2303  145.8894  160.1761 H   0  0  0  0  0  0  0  0  0  0  0  0
  152.3980  145.2615  157.8036 H   0  0  0  0  0  0  0  0  0  0  0  0
  152.8065  143.5936  157.4245 H   0  0  0  0  0  0  0  0  0  0  0  0
  150.5308  143.3646  159.0836 H   0  0  0  0  0  0  0  0  0  0  0  0
  150.1589  144.7359  158.0566 H   0  0  0  0  0  0  0  0  0  0  0  0
  149.9604  143.3650  156.3024 H   0  0  0  0  0  0  0  0  0  0  0  0
  153.1810  137.7008  159.0039 H   0  0  0  0  0  0  0  0  0  0  0  0
  153.3165  139.4501  158.9852 H   0  0  0  0  0  0  0  0  0  0  0  0
  154.4914  138.4788  158.1082 H   0  0  0  0  0  0  0  0  0  0  0  0
  149.1281  142.4534  154.9901 H   0  0  0  0  0  0  0  0  0  0  0  0
  150.0453  141.6528  153.7571 H   0  0  0  0  0  0  0  0  0  0  0  0
  148.7111  139.5933  153.9641 H   0  0  0  0  0  0  0  0  0  0  0  0
  147.8899  140.2152  155.3891 H   0  0  0  0  0  0  0  0  0  0  0  0
  146.2225  142.8195  153.4240 H   0  0  0  0  0  0  0  0  0  0  0  0
  147.8060  143.0768  154.1587 H   0  0  0  0  0  0  0  0  0  0  0  0
  146.5073  142.3025  155.0859 H   0  0  0  0  0  0  0  0  0  0  0  0
  1  2  1  0  0  0  0
  1 22  1  0  0  0  0
  1 23  1  0  0  0  0
  1 24  1  0  0  0  0
  2  3  1  0  0  0  0
  3  4  1  0  0  0  0
  3 25  1  0  0  0  0
  3 26  1  0  0  0  0
  4  5  1  0  0  0  0
  4 27  1  0  0  0  0
  4 28  1  0  0  0  0
  5  6  1  0  0  0  0
  5 29  1  0  0  0  0
  6 17  1  0  0  0  0
  6  7  2  0  0  0  0
  7  8  1  0  0  0  0
  8 15  1  0  0  0  0
  8  9  2  0  0  0  0
  9 10  1  0  0  0  0
  9 17  1  0  0  0  0
 10 11  2  0  0  0  0
 10 12  1  0  0  0  0
 12 13  1  0  0  0  0
 13 14  2  0  0  0  0
 13 15  1  0  0  0  0
 15 16  1  0  0  0  0
 16 30  1  0  0  0  0
 16 31  1  0  0  0  0
 16 32  1  0  0  0  0
 17 18  1  0  0  0  0
 18 19  1  0  0  0  0
 18 33  1  0  0  0  0
 18 34  1  0  0  0  0
 19 20  1  0  0  0  0
 19 35  1  0  0  0  0
 19 36  1  0  0  0  0
 20 21  1  0  0  0  0
 21 37  1  0  0  0  0
 21 38  1  0  0  0  0
 21 39  1  0  0  0  0
M  CHG  1  12  -1
M  END
> <s_m_source_file>
AV-unprocessed.smi

> <i_m_source_file_index>
534

> <i_lp_mmshare_version>
43012

> <i_f3d_flags>
0

> <s_epik_input>
W0NIM11PW0NIMl1bQ0gyXVtOSF1jKG4xKW4oW0NIMl1bQ0gyXU9bQ0gzXSljKGMxMiljKD1PKVtuSF1jKD1PKW4yW0NIM10=

> <s_epik_cmdline>
J2VwaWtfcHl0aG9uJywgJy1waCcsICc3LjAnLCAnLXRuJywgJzgnLCAnLW1hJywgJzIwMCcsICctbWV0YWxfYmluZGluZycsICctaW1hZScsICc8aW5maWxlLm1hZT4nLCAnLW9tYWUnLCAnPG91dGZpbGUubWFlPic=

> <r_lp_tautomer_probability>
1

> <r_epik_Ionization_Penalty>
5.88862

> <r_epik_Ionization_Penalty_Charging>
1.42184e-08

> <r_epik_Ionization_Penalty_Neutral>
5.88862

> <r_epik_State_Penalty>
5.88846

> <r_epik_Charging_Adjusted_Penalty>
5.88846

> <i_epik_Tot_Q>
-1

> <i_epik_Tot_abs_Q>
1

> <r_epik_Metal_State_Penalty>
1.85033

> <b_epik_Metal_Only>
1

> <s_lp_Force_Field>
OPLS_2005

> <r_lp_Energy>
24.5539

> <b_lp_Chiralities_Consistent>
1

> <s_lp_Variant>
AV-unprocessed.smi:534-2

> <Gold.Version>
5.8.1

> <Gold.Id.Protein>
6NUR|6NUR_protein|mol2

> <Gold.PLP.Fitness>
43.5731

> <Gold.PLP.PLP>
-38.5815

> <Gold.PLP.part.hbond>
-2.2185

> <Gold.PLP.part.metal>
0.0000

> <Gold.PLP.part.buried>
-4.6277

> <Gold.PLP.part.nonpolar>
-32.3907

> <Gold.PLP.part.repulsive>
0.6742

> <Gold.PLP.ligand.clash>
0.0000

> <Gold.PLP.ligand.torsion>
0.4650

> <Gold.PLP.Chemscore.Hbond>
1.9680

> <Gold.PLP.Chemscore.CHOScore>
0.0000

> <Gold.PLP.Chemscore.Metal>
0.0000

> <Gold.Chemscore.Hbonds>
donor molecule, donor type, donor heavy atom, donor atom, acceptor molecule, acceptor atom, score
      L1  H     5    29       P1  8028  1.00
      P1  H 10752 10763       L1    14  0.99

> <Gold.PLP.Chemscore.Internal.Correction>
0.0176

> <Gold.Rescore>
     Score         DG    S(hbond)    S(metal)    S(lipo)     H(rot)  DE(clash)    DE(int)     intcor
     12.94     -13.63       1.93        0.00      67.01       2.40       0.12       0.56       ----

> <Gold.Chemscore.Fitness>
12.9424

> <Gold.Chemscore.DG>
-13.6254

> <Gold.Chemscore.ZeroCoef>
-5.4800

> <Gold.Chemscore.Hbond>
1.9320

> <Gold.Chemscore.Metal>
0.0000

> <Gold.Chemscore.Lipo>
67.0142

> <Gold.Chemscore.Internal_Hbond>
0.0000

> <Gold.Chemscore.DEClash>
0.1184

> <Gold.Chemscore.DEInternal>
0.5646

> <Gold.Chemscore.Rot>
2.4016

> <Gold.Chemscore.Internal.Correction>
   9.000000E+99

> <Gold.Chemscore.Hbonds>
donor molecule, donor type, donor heavy atom, donor atom, acceptor molecule, acceptor atom, score
      L1  H     5    29       P1  8028  0.94
      P1  H 10752 10763       L1    14  0.89

> <Gold.Chemscore.Hbond.Weighted>
-6.4528

> <Gold.Chemscore.Metal.Weighted>
-0.0000

> <Gold.Chemscore.Lipo.Weighted>
-7.8407

> <Gold.Chemscore.Internal_Hbond.Weighted>
0.0000

> <Gold.Chemscore.DEClash.Weighted>
0.1184

> <Gold.Chemscore.DEInternal.Weighted>
0.5646

> <Gold.Chemscore.Rot.Weighted>
6.1481

> <Gold.Chemscore.Internal.Correction.Weighted>
   9.000000E+99

> <Gold.Protein.RotatedTorsions>
[ 6907 6896 6895 6894 ] final  146.82 input  -60.11 | X-H torsion
[ 7974 7965 7964 7962 ] final   43.38 input  175.53 | X-H torsion
[ 8008 7997 7996 7995 ] final  173.80 input   59.86 | X-H torsion
[ 10167 10162 10161 10158 ] final  -59.20 input  -65.29 | X-H torsion
[ 10718 10713 10712 10709 ] final  174.51 input   66.30 | X-H torsion
[ 10763 10752 10751 10750 ] final  120.72 input  -60.55 | X-H torsion
[ 11005 11000 10999 10996 ] final   64.82 input  -57.11 | X-H torsion

> <Gold.Protein.ActiveResidues>
 VAL166  LYS551  ARG553  GLY616  TRP617  ASP618  TYR619  PRO620  LYS621  CYS622 
 ASP623  PHE694  ASN695  SER759  ASP760  ASP761  ALA762  ILE779  LEU786  VAL792 
 PHE793  MET794  SER795  GLU796  ALA797  LYS798  CYS799  TRP800  GLU811  SER814 

> <Gold.Protein.RotatedAtoms>
  152.1628  133.4593  159.4869 H   0  0  0  0  0  0  0  0  0  0  0  0  # atno 6907 bound_to 6896
  150.6909  134.2050  159.4346 H   0  0  0  0  0  0  0  0  0  0  0  0  # atno 6908 bound_to 6896
  151.9953  134.9957  160.0613 H   0  0  0  0  0  0  0  0  0  0  0  0  # atno 6909 bound_to 6896
  146.0660  139.5193  142.9628 H   0  0  0  0  0  0  0  0  0  0  0  0  # atno 7974 bound_to 7965
  156.1038  140.1450  156.9431 H   0  0  0  0  0  0  0  0  0  0  0  0  # atno 8008 bound_to 7997
  154.4720  140.0906  156.7214 H   0  0  0  0  0  0  0  0  0  0  0  0  # atno 8009 bound_to 7997
  155.4714  140.3442  155.4328 H   0  0  0  0  0  0  0  0  0  0  0  0  # atno 8010 bound_to 7997
  140.6150  143.2399  151.5619 H   0  0  0  0  0  0  0  0  0  0  0  0  # atno 10167 bound_to 10162
  156.9485  131.0024  151.2953 H   0  0  0  0  0  0  0  0  0  0  0  0  # atno 10718 bound_to 10713
  153.6029  135.3444  155.2952 H   0  0  0  0  0  0  0  0  0  0  0  0  # atno 10763 bound_to 10752
  154.8633  135.4232  154.2393 H   0  0  0  0  0  0  0  0  0  0  0  0  # atno 10764 bound_to 10752
  153.3226  135.7039  153.7089 H   0  0  0  0  0  0  0  0  0  0  0  0  # atno 10765 bound_to 10752
  139.9934  134.6555  156.0051 H   0  0  0  0  0  0  0  0  0  0  0  0  # atno 11005 bound_to 11000
  145.6476  141.0270  143.1778 LP  0  0  0  0  0  0  0  0  0  0  0  0  # atno 17320 bound_to 7965
  144.7203  139.8054  143.7384 LP  0  0  0  0  0  0  0  0  0  0  0  0  # atno 17321 bound_to 7965
  139.5391  144.2697  152.1314 LP  0  0  0  0  0  0  0  0  0  0  0  0  # atno 17342 bound_to 10162
  140.1904  144.4757  150.6482 LP  0  0  0  0  0  0  0  0  0  0  0  0  # atno 17343 bound_to 10162
  157.5737  130.8328  149.8427 LP  0  0  0  0  0  0  0  0  0  0  0  0  # atno 17370 bound_to 10713
  156.0373  130.3748  150.1527 LP  0  0  0  0  0  0  0  0  0  0  0  0  # atno 17371 bound_to 10713
  141.1585  133.6540  156.4239 LP  0  0  0  0  0  0  0  0  0  0  0  0  # atno 17394 bound_to 11000
  140.4864  134.6616  157.5193 LP  0  0  0  0  0  0  0  0  0  0  0  0  # atno 17395 bound_to 11000

$$$$
