AV-unprocessed.smi:6|AV-procd|sdf|41|dock1
  -GOLD-   2262015153D 1   1.00000     0.00000
 Structure written by MMmdl.
 36 37  0  0  0  0  0  0  0  0  2 V2000
  145.7151  132.2159  149.4438 C   0  0  0  0  0  0  0  0  0  0  0  0
  145.4133  132.7164  150.8652 C   0  0  0  0  0  0  0  0  0  0  0  0
  145.0151  134.1998  150.9079 C   0  0  0  0  0  0  0  0  0  0  0  0
  146.5471  132.4028  151.8332 C   0  0  0  0  0  0  0  0  0  0  0  0
  146.7671  131.1127  152.1079 N   0  0  0  0  0  0  0  0  0  0  0  0
  147.7703  130.8345  152.9679 C   0  0  0  0  0  0  0  0  0  0  0  0
  148.5519  131.8510  153.5523 C   0  0  0  0  0  0  0  0  0  0  0  0
  148.2322  133.1772  153.1954 C   0  0  0  0  0  0  0  0  0  0  0  0
  148.9777  134.2330  153.7369 N   0  0  0  0  0  0  0  0  0  0  0  0
  150.0132  133.9470  154.7221 C   0  0  0  0  0  0  0  0  0  0  0  0
  150.4873  135.1881  155.4628 C   0  0  0  0  0  0  0  0  0  0  0  0
  150.8741  136.3074  154.8158 C   0  0  0  0  0  0  0  0  0  0  0  0
  151.2873  137.4646  155.4957 N   0  0  0  0  0  0  0  0  0  0  0  0
  151.6973  138.6268  154.7037 C   0  0  0  0  0  0  0  0  0  0  0  0
  151.2976  137.4929  156.8586 C   0  0  0  0  0  0  0  0  0  0  0  0
  151.6631  138.5220  157.4281 O   0  0  0  0  0  0  0  0  0  0  0  0
  150.9002  136.3758  157.5407 N   0  5  0  0  0  0  0  0  0  0  0  0
  150.4902  135.2253  156.9299 C   0  0  0  0  0  0  0  0  0  0  0  0
  150.1302  134.2363  157.5677 O   0  0  0  0  0  0  0  0  0  0  0  0
  147.2254  133.4435  152.3300 N   0  0  0  0  0  0  0  0  0  0  0  0
  145.9185  131.1447  149.4408 H   0  0  0  0  0  0  0  0  0  0  0  0
  146.5832  132.7214  149.0190 H   0  0  0  0  0  0  0  0  0  0  0  0
  144.8703  132.3937  148.7783 H   0  0  0  0  0  0  0  0  0  0  0  0
  144.5385  132.1577  151.2029 H   0  0  0  0  0  0  0  0  0  0  0  0
  144.7366  134.5008  151.9180 H   0  0  0  0  0  0  0  0  0  0  0  0
  144.1624  134.3961  150.2575 H   0  0  0  0  0  0  0  0  0  0  0  0
  145.8342  134.8420  150.5825 H   0  0  0  0  0  0  0  0  0  0  0  0
  147.9519  129.7935  153.1907 H   0  0  0  0  0  0  0  0  0  0  0  0
  149.3539  131.6218  154.2385 H   0  0  0  0  0  0  0  0  0  0  0  0
  149.1064  135.0537  153.1621 H   0  0  0  0  0  0  0  0  0  0  0  0
  149.6306  133.2319  155.4515 H   0  0  0  0  0  0  0  0  0  0  0  0
  150.8641  133.4752  154.2291 H   0  0  0  0  0  0  0  0  0  0  0  0
  150.8896  136.3820  153.7384 H   0  0  0  0  0  0  0  0  0  0  0  0
  152.7280  138.9005  154.9331 H   0  0  0  0  0  0  0  0  0  0  0  0
  151.0601  139.4840  154.9262 H   0  0  0  0  0  0  0  0  0  0  0  0
  151.6389  138.4453  153.6302 H   0  0  0  0  0  0  0  0  0  0  0  0
  1  2  1  0  0  0  0
  1 21  1  0  0  0  0
  1 22  1  0  0  0  0
  1 23  1  0  0  0  0
  2  3  1  0  0  0  0
  2  4  1  0  0  0  0
  2 24  1  0  0  0  0
  3 25  1  0  0  0  0
  3 26  1  0  0  0  0
  3 27  1  0  0  0  0
  4 20  1  0  0  0  0
  4  5  2  0  0  0  0
  5  6  1  0  0  0  0
  6  7  2  0  0  0  0
  6 28  1  0  0  0  0
  7  8  1  0  0  0  0
  7 29  1  0  0  0  0
  8  9  1  0  0  0  0
  8 20  2  0  0  0  0
  9 10  1  0  0  0  0
  9 30  1  0  0  0  0
 10 11  1  0  0  0  0
 10 31  1  0  0  0  0
 10 32  1  0  0  0  0
 11 18  1  0  0  0  0
 11 12  2  0  0  0  0
 12 13  1  0  0  0  0
 12 33  1  0  0  0  0
 13 14  1  0  0  0  0
 13 15  1  0  0  0  0
 14 34  1  0  0  0  0
 14 35  1  0  0  0  0
 14 36  1  0  0  0  0
 15 16  2  0  0  0  0
 15 17  1  0  0  0  0
 17 18  1  0  0  0  0
 18 19  2  0  0  0  0
M  CHG  1  17  -1
M  END
> <s_m_source_file>
AV-unprocessed.smi

> <i_m_source_file_index>
6

> <i_lp_mmshare_version>
43012

> <i_f3d_flags>
0

> <s_epik_input>
W0NIM11bQ0hdKFtDSDNdKWMxbltjSF1bY0hdYyhuMSlbTkhdW0NIMl1jMltjSF1uKFtDSDNdKWMoPU8pW25IXWMyPU8=

> <s_epik_cmdline>
J2VwaWtfcHl0aG9uJywgJy1waCcsICc3LjAnLCAnLXRuJywgJzgnLCAnLW1hJywgJzIwMCcsICctbWV0YWxfYmluZGluZycsICctaW1hZScsICc8aW5maWxlLm1hZT4nLCAnLW9tYWUnLCAnPG91dGZpbGUubWFlPic=

> <r_lp_tautomer_probability>
0.999537

> <r_epik_Ionization_Penalty>
4.10508

> <r_epik_Ionization_Penalty_Charging>
6.01221e-07

> <r_epik_Ionization_Penalty_Neutral>
4.10508

> <r_epik_State_Penalty>
4.24889

> <r_epik_Charging_Adjusted_Penalty>
4.24889

> <i_epik_Tot_Q>
-1

> <i_epik_Tot_abs_Q>
1

> <r_epik_Metal_State_Penalty>
1.04429

> <b_epik_Metal_Only>
1

> <s_lp_Force_Field>
OPLS_2005

> <r_lp_Energy>
13.2658

> <b_lp_Chiralities_Consistent>
1

> <s_lp_Variant>
AV-unprocessed.smi:6-3

> <Gold.Version>
5.8.1

> <Gold.Id.Protein>
6NUR|6NUR_protein|mol2

> <Gold.PLP.Fitness>
39.7922

> <Gold.PLP.PLP>
-31.7019

> <Gold.PLP.part.hbond>
-2.0000

> <Gold.PLP.part.metal>
0.0000

> <Gold.PLP.part.buried>
-4.4888

> <Gold.PLP.part.nonpolar>
-25.4683

> <Gold.PLP.part.repulsive>
0.6348

> <Gold.PLP.ligand.clash>
0.0000

> <Gold.PLP.ligand.torsion>
0.3786

> <Gold.PLP.Chemscore.Hbond>
2.0000

> <Gold.PLP.Chemscore.CHOScore>
0.9166

> <Gold.PLP.Chemscore.Metal>
0.0000

> <Gold.Chemscore.Hbonds>
donor molecule, donor type, donor heavy atom, donor atom, acceptor molecule, acceptor atom, score
      L1  H     9    30       P1  7948  0.80
      P1  H  6896  6908       L1    19  0.85
      L1  C    12    33       P1  7948  0.05
      L1  C    12    33       P1  7949  0.86

> <Gold.PLP.Chemscore.Internal.Correction>
0.0977

> <Gold.Rescore>
     Score         DG    S(hbond)    S(metal)    S(lipo)     H(rot)  DE(clash)    DE(int)     intcor
     13.52     -14.13       1.75        0.00      59.36       1.62       0.04       0.58       ----

> <Gold.Chemscore.Fitness>
13.5179

> <Gold.Chemscore.DG>
-14.1340

> <Gold.Chemscore.ZeroCoef>
-5.4800

> <Gold.Chemscore.Hbond>
1.7530

> <Gold.Chemscore.Metal>
0.0000

> <Gold.Chemscore.Lipo>
59.3616

> <Gold.Chemscore.Internal_Hbond>
0.0000

> <Gold.Chemscore.DEClash>
0.0358

> <Gold.Chemscore.DEInternal>
0.5802

> <Gold.Chemscore.Rot>
1.6196

> <Gold.Chemscore.Internal.Correction>
   9.000000E+99

> <Gold.Chemscore.Hbonds>
donor molecule, donor type, donor heavy atom, donor atom, acceptor molecule, acceptor atom, score
      L1  H     9    30       P1  7948  0.12
      P1  H  6896  6908       L1    19  0.80

> <Gold.Chemscore.Hbond.Weighted>
-5.8550

> <Gold.Chemscore.Metal.Weighted>
-0.0000

> <Gold.Chemscore.Lipo.Weighted>
-6.9453

> <Gold.Chemscore.Internal_Hbond.Weighted>
0.0000

> <Gold.Chemscore.DEClash.Weighted>
0.0358

> <Gold.Chemscore.DEInternal.Weighted>
0.5802

> <Gold.Chemscore.Rot.Weighted>
4.1463

> <Gold.Chemscore.Internal.Correction.Weighted>
   9.000000E+99

> <Gold.Protein.RotatedTorsions>
[ 6907 6896 6895 6894 ] final  137.68 input  -60.11 | X-H torsion
[ 7974 7965 7964 7962 ] final -110.61 input  175.53 | X-H torsion
[ 8008 7997 7996 7995 ] final   15.31 input   59.86 | X-H torsion
[ 10167 10162 10161 10158 ] final  171.28 input  -65.29 | X-H torsion
[ 10718 10713 10712 10709 ] final  -10.54 input   66.30 | X-H torsion
[ 10763 10752 10751 10750 ] final  -80.79 input  -60.55 | X-H torsion
[ 11005 11000 10999 10996 ] final   20.41 input  -57.11 | X-H torsion

> <Gold.Protein.ActiveResidues>
 VAL166  LYS551  ARG553  GLY616  TRP617  ASP618  TYR619  PRO620  LYS621  CYS622 
 ASP623  PHE694  ASN695  SER759  ASP760  ASP761  ALA762  ILE779  LEU786  VAL792 
 PHE793  MET794  SER795  GLU796  ALA797  LYS798  CYS799  TRP800  GLU811  SER814 

> <Gold.Protein.RotatedAtoms>
  152.2753  133.5420  159.5463 H   0  0  0  0  0  0  0  0  0  0  0  0  # atno 6907 bound_to 6896
  150.7174  134.0641  159.3850 H   0  0  0  0  0  0  0  0  0  0  0  0  # atno 6908 bound_to 6896
  151.8554  135.0543  160.0514 H   0  0  0  0  0  0  0  0  0  0  0  0  # atno 6909 bound_to 6896
  145.1661  140.8903  143.3562 H   0  0  0  0  0  0  0  0  0  0  0  0  # atno 7974 bound_to 7965
  154.8609  140.2944  155.5540 H   0  0  0  0  0  0  0  0  0  0  0  0  # atno 8008 bound_to 7997
  156.3019  140.2478  156.3515 H   0  0  0  0  0  0  0  0  0  0  0  0  # atno 8009 bound_to 7997
  154.8920  140.0394  157.1833 H   0  0  0  0  0  0  0  0  0  0  0  0  # atno 8010 bound_to 7997
  139.5042  144.3503  151.9929 H   0  0  0  0  0  0  0  0  0  0  0  0  # atno 10167 bound_to 10162
  156.6720  130.5012  149.5997 H   0  0  0  0  0  0  0  0  0  0  0  0  # atno 10718 bound_to 10713
  154.5555  135.5649  153.6960 H   0  0  0  0  0  0  0  0  0  0  0  0  # atno 10763 bound_to 10752
  153.0002  135.6261  154.2315 H   0  0  0  0  0  0  0  0  0  0  0  0  # atno 10764 bound_to 10752
  154.2252  135.2868  155.2890 H   0  0  0  0  0  0  0  0  0  0  0  0  # atno 10765 bound_to 10752
  140.4029  134.1699  155.7664 H   0  0  0  0  0  0  0  0  0  0  0  0  # atno 11005 bound_to 11000
  145.0281  139.3365  143.6038 LP  0  0  0  0  0  0  0  0  0  0  0  0  # atno 17320 bound_to 7965
  146.3475  139.9607  142.8717 LP  0  0  0  0  0  0  0  0  0  0  0  0  # atno 17321 bound_to 7965
  140.2940  144.3721  150.6080 LP  0  0  0  0  0  0  0  0  0  0  0  0  # atno 17342 bound_to 10162
  140.5924  143.2167  151.7227 LP  0  0  0  0  0  0  0  0  0  0  0  0  # atno 17343 bound_to 10162
  156.1931  130.6573  151.1084 LP  0  0  0  0  0  0  0  0  0  0  0  0  # atno 17370 bound_to 10713
  157.7074  131.0750  150.6621 LP  0  0  0  0  0  0  0  0  0  0  0  0  # atno 17371 bound_to 10713
  141.1850  133.8333  157.1121 LP  0  0  0  0  0  0  0  0  0  0  0  0  # atno 17394 bound_to 11000
  140.0323  134.9895  157.0804 LP  0  0  0  0  0  0  0  0  0  0  0  0  # atno 17395 bound_to 11000

$$$$
