AV-unprocessed.smi:2534|AV-procd|sdf|9975|dock4
  -GOLD-   2272014 23D 1   1.00000     0.00000
 Structure written by MMmdl.
 40 42  0  0  0  0  0  0  0  0  1 V2000
  152.6622  143.3750  162.5108 C   0  0  0  0  0  0  0  0  0  0  0  0
  152.5292  143.8028  161.0425 C   0  0  2  0  0  0  0  0  0  0  0  0
  151.1384  144.4001  160.7521 C   0  0  0  0  0  0  0  0  0  0  0  0
  151.0004  144.8145  159.2769 C   0  0  0  0  0  0  0  0  0  0  0  0
  151.2772  143.6374  158.3115 C   0  0  2  0  0  0  0  0  0  0  0  0
  151.3364  144.1841  157.0078 O   0  0  0  0  0  0  0  0  0  0  0  0
  150.1818  142.5330  158.3189 C   0  0  0  0  0  0  0  0  0  0  0  0
  150.1099  141.7399  157.0971 N   0  0  0  0  0  0  0  0  0  0  0  0
  151.2174  141.0942  156.6467 N   0  0  0  0  0  0  0  0  0  0  0  0
  150.8484  140.4726  155.5292 C   0  0  0  0  0  0  0  0  0  0  0  0
  149.4835  140.7133  155.2130 C   0  0  0  0  0  0  0  0  0  0  0  0
  148.5850  140.3050  154.1388 C   0  0  0  0  0  0  0  0  0  0  0  0
  147.3634  140.7372  154.1639 N   0  0  0  0  0  0  0  0  0  0  0  0
  146.9058  141.5752  155.1868 N   0  0  0  0  0  0  0  0  0  0  0  0
  145.5049  141.9665  155.0369 C   0  0  0  0  0  0  0  0  0  0  0  0
  147.6656  142.0121  156.2386 C   0  0  0  0  0  0  0  0  0  0  0  0
  147.2539  142.7510  157.1325 O   0  0  0  0  0  0  0  0  0  0  0  0
  149.0646  141.5181  156.2205 C   0  0  0  0  0  0  0  0  0  0  0  0
  152.6731  143.0465  158.6117 C   0  0  0  0  0  0  0  0  0  0  0  0
  152.8330  142.6331  160.0862 C   0  0  0  0  0  0  0  0  0  0  0  0
  151.9442  142.5940  162.7631 H   0  0  0  0  0  0  0  0  0  0  0  0
  152.4887  144.2161  163.1825 H   0  0  0  0  0  0  0  0  0  0  0  0
  153.6605  142.9889  162.7184 H   0  0  0  0  0  0  0  0  0  0  0  0
  153.2708  144.5821  160.8601 H   0  0  0  0  0  0  0  0  0  0  0  0
  150.3600  143.6813  161.0099 H   0  0  0  0  0  0  0  0  0  0  0  0
  150.9699  145.2696  161.3884 H   0  0  0  0  0  0  0  0  0  0  0  0
  150.0177  145.2501  159.0985 H   0  0  0  0  0  0  0  0  0  0  0  0
  151.7132  145.6174  159.0809 H   0  0  0  0  0  0  0  0  0  0  0  0
  150.4541  144.2848  156.6849 H   0  0  0  0  0  0  0  0  0  0  0  0
  150.3357  141.8568  159.1594 H   0  0  0  0  0  0  0  0  0  0  0  0
  149.1983  142.9718  158.4865 H   0  0  0  0  0  0  0  0  0  0  0  0
  151.5747  139.8810  154.9914 H   0  0  0  0  0  0  0  0  0  0  0  0
  148.9374  139.6538  153.3392 H   0  0  0  0  0  0  0  0  0  0  0  0
  145.1410  142.6203  155.8307 H   0  0  0  0  0  0  0  0  0  0  0  0
  144.8683  141.0811  155.0267 H   0  0  0  0  0  0  0  0  0  0  0  0
  145.3636  142.4923  154.0918 H   0  0  0  0  0  0  0  0  0  0  0  0
  152.8718  142.1922  157.9633 H   0  0  0  0  0  0  0  0  0  0  0  0
  153.4408  143.7858  158.3771 H   0  0  0  0  0  0  0  0  0  0  0  0
  153.8503  142.2766  160.2515 H   0  0  0  0  0  0  0  0  0  0  0  0
  152.1789  141.7899  160.3097 H   0  0  0  0  0  0  0  0  0  0  0  0
  1  2  1  0  0  0  0
  1 21  1  0  0  0  0
  1 22  1  0  0  0  0
  1 23  1  0  0  0  0
  2 20  1  0  0  0  0
  2  3  1  0  0  0  0
  2 24  1  0  0  0  0
  3  4  1  0  0  0  0
  3 25  1  0  0  0  0
  3 26  1  0  0  0  0
  4  5  1  0  0  0  0
  4 27  1  0  0  0  0
  4 28  1  0  0  0  0
  5  6  1  0  0  0  0
  5  7  1  0  0  0  0
  5 19  1  0  0  0  0
  6 29  1  0  0  0  0
  7  8  1  0  0  0  0
  7 30  1  0  0  0  0
  7 31  1  0  0  0  0
  8 18  1  0  0  0  0
  8  9  1  0  0  0  0
  9 10  2  0  0  0  0
 10 11  1  0  0  0  0
 10 32  1  0  0  0  0
 11 18  2  0  0  0  0
 11 12  1  0  0  0  0
 12 13  2  0  0  0  0
 12 33  1  0  0  0  0
 13 14  1  0  0  0  0
 14 15  1  0  0  0  0
 14 16  1  0  0  0  0
 15 34  1  0  0  0  0
 15 35  1  0  0  0  0
 15 36  1  0  0  0  0
 16 17  2  0  0  0  0
 16 18  1  0  0  0  0
 19 20  1  0  0  0  0
 19 37  1  0  0  0  0
 19 38  1  0  0  0  0
 20 39  1  0  0  0  0
 20 40  1  0  0  0  0
M  END
> <s_m_source_file>
AV-unprocessed.smi

> <i_m_source_file_index>
2534

> <i_lp_mmshare_version>
43012

> <i_f3d_flags>
0

> <s_epik_input>
W0NIMl0xW0NIMl1bQ0BIXShbQ0gzXSlbQ0gyXVtDSDJdW0NAQF0xKFtPSF0pW0NIMl1uKG5bY0hdMiljKGMyMyljKD1PKW4oW0NIM10pbltjSF0z

> <s_epik_cmdline>
J2VwaWtfcHl0aG9uJywgJy1waCcsICc3LjAnLCAnLXRuJywgJzgnLCAnLW1hJywgJzIwMCcsICctbWV0YWxfYmluZGluZycsICctaW1hZScsICc8aW5maWxlLm1hZT4nLCAnLW9tYWUnLCAnPG91dGZpbGUubWFlPic=

> <r_lp_tautomer_probability>
1

> <r_epik_Ionization_Penalty>
4.4666e-07

> <r_epik_Ionization_Penalty_Charging>
3.10141e-10

> <r_epik_Ionization_Penalty_Neutral>
4.46349e-07

> <r_epik_State_Penalty>
-0

> <r_epik_Charging_Adjusted_Penalty>
3.10141e-10

> <i_epik_Tot_Q>
0

> <i_epik_Tot_abs_Q>
0

> <r_epik_Metal_State_Penalty>
-0

> <b_epik_Metal_Only>
0

> <s_lp_Force_Field>
OPLS_2005

> <r_lp_Energy>
31.0433

> <b_lp_Chiralities_Consistent>
1

> <s_lp_Variant>
AV-unprocessed.smi:2534-2

> <Gold.Version>
5.8.1

> <Gold.Id.Protein>
6NUR|6NUR_protein|mol2

> <Gold.PLP.Fitness>
44.5183

> <Gold.PLP.PLP>
-39.2361

> <Gold.PLP.part.hbond>
-1.0000

> <Gold.PLP.part.metal>
0.0000

> <Gold.PLP.part.buried>
-2.4843

> <Gold.PLP.part.nonpolar>
-36.0957

> <Gold.PLP.part.repulsive>
1.2253

> <Gold.PLP.ligand.clash>
0.0000

> <Gold.PLP.ligand.torsion>
0.3525

> <Gold.PLP.Chemscore.Hbond>
1.0000

> <Gold.PLP.Chemscore.CHOScore>
0.9935

> <Gold.PLP.Chemscore.Metal>
0.0000

> <Gold.Chemscore.Hbonds>
donor molecule, donor type, donor heavy atom, donor atom, acceptor molecule, acceptor atom, score
      L1  H     6    29       P1  8028  1.00
      L1  C    12    33       P1  7957  1.00

> <Gold.PLP.Chemscore.Internal.Correction>
0.0069

> <Gold.Rescore>
     Score         DG    S(hbond)    S(metal)    S(lipo)     H(rot)  DE(clash)    DE(int)     intcor
     17.16     -17.58       0.98        0.00     112.19       1.68       0.07       0.35       ----

> <Gold.Chemscore.Fitness>
17.1604

> <Gold.Chemscore.DG>
-17.5819

> <Gold.Chemscore.ZeroCoef>
-5.4800

> <Gold.Chemscore.Hbond>
0.9778

> <Gold.Chemscore.Metal>
0.0000

> <Gold.Chemscore.Lipo>
112.1864

> <Gold.Chemscore.Internal_Hbond>
0.0000

> <Gold.Chemscore.DEClash>
0.0684

> <Gold.Chemscore.DEInternal>
0.3530

> <Gold.Chemscore.Rot>
1.6758

> <Gold.Chemscore.Internal.Correction>
   9.000000E+99

> <Gold.Chemscore.Hbonds>
donor molecule, donor type, donor heavy atom, donor atom, acceptor molecule, acceptor atom, score
      L1  H     6    29       P1  8028  0.99

> <Gold.Chemscore.Hbond.Weighted>
-3.2660

> <Gold.Chemscore.Metal.Weighted>
-0.0000

> <Gold.Chemscore.Lipo.Weighted>
-13.1258

> <Gold.Chemscore.Internal_Hbond.Weighted>
0.0000

> <Gold.Chemscore.DEClash.Weighted>
0.0684

> <Gold.Chemscore.DEInternal.Weighted>
0.3530

> <Gold.Chemscore.Rot.Weighted>
4.2899

> <Gold.Chemscore.Internal.Correction.Weighted>
   9.000000E+99

> <Gold.Protein.RotatedTorsions>
[ 6907 6896 6895 6894 ] final -122.22 input  -60.11 | X-H torsion
[ 7974 7965 7964 7962 ] final -141.54 input  175.53 | X-H torsion
[ 8008 7997 7996 7995 ] final   24.35 input   59.86 | X-H torsion
[ 10167 10162 10161 10158 ] final  157.38 input  -65.29 | X-H torsion
[ 10718 10713 10712 10709 ] final  135.90 input   66.30 | X-H torsion
[ 10763 10752 10751 10750 ] final   85.53 input  -60.55 | X-H torsion
[ 11005 11000 10999 10996 ] final  127.43 input  -57.11 | X-H torsion

> <Gold.Protein.ActiveResidues>
 VAL166  LYS551  ARG553  GLY616  TRP617  ASP618  TYR619  PRO620  LYS621  CYS622 
 ASP623  PHE694  ASN695  SER759  ASP760  ASP761  ALA762  ILE779  LEU786  VAL792 
 PHE793  MET794  SER795  GLU796  ALA797  LYS798  CYS799  TRP800  GLU811  SER814 

> <Gold.Protein.RotatedAtoms>
  150.8556  133.7720  159.3009 H   0  0  0  0  0  0  0  0  0  0  0  0  # atno 6907 bound_to 6896
  151.5379  135.1067  159.9928 H   0  0  0  0  0  0  0  0  0  0  0  0  # atno 6908 bound_to 6896
  152.4587  133.7733  159.6866 H   0  0  0  0  0  0  0  0  0  0  0  0  # atno 6909 bound_to 6896
  144.8512  140.6068  143.5389 H   0  0  0  0  0  0  0  0  0  0  0  0  # atno 7974 bound_to 7965
  154.9949  140.3118  155.4891 H   0  0  0  0  0  0  0  0  0  0  0  0  # atno 8008 bound_to 7997
  156.2934  140.2242  156.4996 H   0  0  0  0  0  0  0  0  0  0  0  0  # atno 8009 bound_to 7997
  154.7670  140.0455  157.1009 H   0  0  0  0  0  0  0  0  0  0  0  0  # atno 8010 bound_to 7997
  139.4823  144.4923  151.8291 H   0  0  0  0  0  0  0  0  0  0  0  0  # atno 10167 bound_to 10162
  157.4522  131.1067  151.0019 H   0  0  0  0  0  0  0  0  0  0  0  0  # atno 10718 bound_to 10713
  153.1483  135.4614  154.9599 H   0  0  0  0  0  0  0  0  0  0  0  0  # atno 10763 bound_to 10752
  154.7804  135.3187  154.8003 H   0  0  0  0  0  0  0  0  0  0  0  0  # atno 10764 bound_to 10752
  153.8513  135.6921  153.4846 H   0  0  0  0  0  0  0  0  0  0  0  0  # atno 10765 bound_to 10752
  139.9507  134.9622  156.8853 H   0  0  0  0  0  0  0  0  0  0  0  0  # atno 11005 bound_to 11000
  145.4497  139.1525  143.3925 LP  0  0  0  0  0  0  0  0  0  0  0  0  # atno 17320 bound_to 7965
  146.2786  140.4622  142.8785 LP  0  0  0  0  0  0  0  0  0  0  0  0  # atno 17321 bound_to 7965
  140.4408  144.1989  150.5891 LP  0  0  0  0  0  0  0  0  0  0  0  0  # atno 17342 bound_to 10162
  140.4685  143.2422  151.9122 LP  0  0  0  0  0  0  0  0  0  0  0  0  # atno 17343 bound_to 10162
  157.0845  130.5917  149.5427 LP  0  0  0  0  0  0  0  0  0  0  0  0  # atno 17370 bound_to 10713
  155.9992  130.5068  150.7599 LP  0  0  0  0  0  0  0  0  0  0  0  0  # atno 17371 bound_to 10713
  140.5726  134.0428  155.7436 LP  0  0  0  0  0  0  0  0  0  0  0  0  # atno 17394 bound_to 11000
  141.1169  133.9526  157.2805 LP  0  0  0  0  0  0  0  0  0  0  0  0  # atno 17395 bound_to 11000

$$$$
