AV-unprocessed.smi:285|AV-procd|sdf|2169|dock5
  -GOLD-   2262021533D 1   1.00000     0.00000
 Structure written by MMmdl.
 31 33  0  0  0  0  0  0  0  0  1 V2000
  153.4909  142.3457  161.5042 N   0  0  0  0  0  0  0  0  0  0  0  0
  152.7732  142.7565  160.4498 C   0  0  0  0  0  0  0  0  0  0  0  0
  152.3160  144.0305  160.4397 N   0  0  0  0  0  0  0  0  0  0  0  0
  151.5989  144.4656  159.3984 C   0  0  0  0  0  0  0  0  0  0  0  0
  151.2386  143.8025  158.2964 N   0  0  0  0  0  0  0  0  0  0  0  0
  151.6987  142.5163  158.3082 C   0  0  0  0  0  0  0  0  0  0  0  0
  152.4728  141.9193  159.3460 C   0  0  0  0  0  0  0  0  0  0  0  0
  152.7699  140.6003  159.0257 N   0  0  0  0  0  0  0  0  0  0  0  0
  152.1956  140.4506  157.8648 C   0  0  0  0  0  0  0  0  0  0  0  0
  152.3089  138.7893  156.9402 Br  0  0  0  0  0  0  0  0  0  0  0  0
  151.5276  141.5379  157.3489 N   0  0  0  0  0  0  0  0  0  0  0  0
  150.7822  141.6634  156.0605 C   0  0  2  0  0  0  0  0  0  0  0  0
  149.2804  141.6947  156.2919 C   0  0  0  0  0  0  0  0  0  0  0  0
  148.7707  141.2010  154.9497 C   0  0  1  0  0  0  0  0  0  0  0  0
  148.5050  142.2977  154.0963 O   0  0  0  0  0  0  0  0  0  0  0  0
  149.9320  140.3494  154.3864 C   0  0  2  0  0  0  0  0  0  0  0  0
  149.6037  138.8481  154.3339 C   0  0  0  0  0  0  0  0  0  0  0  0
  148.7297  138.5790  153.2585 O   0  0  0  0  0  0  0  0  0  0  0  0
  151.0180  140.5313  155.2956 O   0  0  0  0  0  0  0  0  0  0  0  0
  153.8440  141.4000  161.5351 H   0  0  0  0  0  0  0  0  0  0  0  0
  153.6766  142.9818  162.2660 H   0  0  0  0  0  0  0  0  0  0  0  0
  151.2661  145.4913  159.4558 H   0  0  0  0  0  0  0  0  0  0  0  0
  151.1679  142.5512  155.5594 H   0  0  0  0  0  0  0  0  0  0  0  0
  149.0147  140.9864  157.0776 H   0  0  0  0  0  0  0  0  0  0  0  0
  148.9374  142.6902  156.5767 H   0  0  0  0  0  0  0  0  0  0  0  0
  147.8489  140.6309  155.0684 H   0  0  0  0  0  0  0  0  0  0  0  0
  148.5450  143.0934  154.6047 H   0  0  0  0  0  0  0  0  0  0  0  0
  150.2200  140.7097  153.3967 H   0  0  0  0  0  0  0  0  0  0  0  0
  150.5094  138.2462  154.2492 H   0  0  0  0  0  0  0  0  0  0  0  0
  149.0934  138.5394  155.2467 H   0  0  0  0  0  0  0  0  0  0  0  0
  148.9997  137.7726  152.8466 H   0  0  0  0  0  0  0  0  0  0  0  0
  1  2  1  0  0  0  0
  1 20  1  0  0  0  0
  1 21  1  0  0  0  0
  2  7  1  0  0  0  0
  2  3  2  0  0  0  0
  3  4  1  0  0  0  0
  4  5  2  0  0  0  0
  4 22  1  0  0  0  0
  5  6  1  0  0  0  0
  6 11  1  0  0  0  0
  6  7  2  0  0  0  0
  7  8  1  0  0  0  0
  8  9  2  0  0  0  0
  9 10  1  0  0  0  0
  9 11  1  0  0  0  0
 11 12  1  0  0  0  0
 12 19  1  0  0  0  0
 12 13  1  0  0  0  0
 12 23  1  0  0  0  0
 13 14  1  0  0  0  0
 13 24  1  0  0  0  0
 13 25  1  0  0  0  0
 14 15  1  0  0  0  0
 14 16  1  0  0  0  0
 14 26  1  0  0  0  0
 15 27  1  0  0  0  0
 16 17  1  0  0  0  0
 16 19  1  0  0  0  0
 16 28  1  0  0  0  0
 17 18  1  0  0  0  0
 17 29  1  0  0  0  0
 17 30  1  0  0  0  0
 18 31  1  0  0  0  0
M  END
> <s_m_source_file>
AV-unprocessed.smi

> <i_m_source_file_index>
285

> <i_lp_mmshare_version>
43012

> <i_f3d_flags>
0

> <s_epik_input>
bjFbY0hdbmMoW05IMl0pYyhjMTIpbmMoQnIpbjJbQ0BASF0zW0NIMl1bQ0BASF0oW09IXSlbQ0BIXShPMylbQ0gyXVtPSF0=

> <s_epik_cmdline>
J2VwaWtfcHl0aG9uJywgJy1waCcsICc3LjAnLCAnLXRuJywgJzgnLCAnLW1hJywgJzIwMCcsICctbWV0YWxfYmluZGluZycsICctaW1hZScsICc8aW5maWxlLm1hZT4nLCAnLW9tYWUnLCAnPG91dGZpbGUubWFlPic=

> <r_lp_tautomer_probability>
1

> <r_epik_Ionization_Penalty>
0.000103242

> <r_epik_Ionization_Penalty_Charging>
0

> <r_epik_Ionization_Penalty_Neutral>
0.000103242

> <r_epik_State_Penalty>
-0

> <r_epik_Charging_Adjusted_Penalty>
0

> <i_epik_Tot_Q>
0

> <i_epik_Tot_abs_Q>
0

> <r_epik_Metal_State_Penalty>
-0

> <b_epik_Metal_Only>
0

> <s_epik_Chemistry_Notes>
This compound contains an acetal/aminal-like group ( X-CH(R)-Y where X, Y are N, S, or O) that may be acid/base labile, releasing an aldehyde.

> <s_lp_Force_Field>
OPLS_2005

> <r_lp_Energy>
31.1056

> <b_lp_Chiralities_Consistent>
1

> <s_lp_Variant>
AV-unprocessed.smi:285-5

> <Gold.Version>
5.8.1

> <Gold.Id.Protein>
6NUR|6NUR_protein|mol2

> <Gold.PLP.Fitness>
42.6841

> <Gold.PLP.PLP>
-36.8289

> <Gold.PLP.part.hbond>
-5.0000

> <Gold.PLP.part.metal>
0.0000

> <Gold.PLP.part.buried>
-4.6441

> <Gold.PLP.part.nonpolar>
-27.0324

> <Gold.PLP.part.repulsive>
0.2600

> <Gold.PLP.ligand.clash>
0.0000

> <Gold.PLP.ligand.torsion>
0.3196

> <Gold.PLP.Chemscore.Hbond>
2.1581

> <Gold.PLP.Chemscore.CHOScore>
0.0000

> <Gold.PLP.Chemscore.Metal>
0.0000

> <Gold.Chemscore.Hbonds>
donor molecule, donor type, donor heavy atom, donor atom, acceptor molecule, acceptor atom, score
      L1  H    15    27       P1  8028  1.00
      L1  H    18    31       P1  7948  1.00
      P1  H  8011  8017       L1    15  0.17

> <Gold.PLP.Chemscore.Internal.Correction>
0.0201

> <Gold.Rescore>
     Score         DG    S(hbond)    S(metal)    S(lipo)     H(rot)  DE(clash)    DE(int)     intcor
      7.45      -9.63       2.12        0.00      42.02       3.06       0.54       1.64       ----

> <Gold.Chemscore.Fitness>
7.4504

> <Gold.Chemscore.DG>
-9.6306

> <Gold.Chemscore.ZeroCoef>
-5.4800

> <Gold.Chemscore.Hbond>
2.1165

> <Gold.Chemscore.Metal>
0.0000

> <Gold.Chemscore.Lipo>
42.0249

> <Gold.Chemscore.Internal_Hbond>
0.0000

> <Gold.Chemscore.DEClash>
0.5412

> <Gold.Chemscore.DEInternal>
1.6390

> <Gold.Chemscore.Rot>
3.0607

> <Gold.Chemscore.Internal.Correction>
   9.000000E+99

> <Gold.Chemscore.Hbonds>
donor molecule, donor type, donor heavy atom, donor atom, acceptor molecule, acceptor atom, score
      L1  H    15    27       P1  8028  0.99
      L1  H    18    31       P1  7948  1.00
      P1  H  8011  8017       L1    15  0.11

> <Gold.Chemscore.Hbond.Weighted>
-7.0691

> <Gold.Chemscore.Metal.Weighted>
-0.0000

> <Gold.Chemscore.Lipo.Weighted>
-4.9169

> <Gold.Chemscore.Internal_Hbond.Weighted>
0.0000

> <Gold.Chemscore.DEClash.Weighted>
0.5412

> <Gold.Chemscore.DEInternal.Weighted>
1.6390

> <Gold.Chemscore.Rot.Weighted>
7.8354

> <Gold.Chemscore.Internal.Correction.Weighted>
   9.000000E+99

> <Gold.Protein.RotatedTorsions>
[ 6907 6896 6895 6894 ] final   -2.05 input  -60.11 | X-H torsion
[ 7974 7965 7964 7962 ] final  -29.06 input  175.53 | X-H torsion
[ 8008 7997 7996 7995 ] final  147.48 input   59.86 | X-H torsion
[ 10167 10162 10161 10158 ] final  146.43 input  -65.29 | X-H torsion
[ 10718 10713 10712 10709 ] final -145.41 input   66.30 | X-H torsion
[ 10763 10752 10751 10750 ] final    3.71 input  -60.55 | X-H torsion
[ 11005 11000 10999 10996 ] final  -66.33 input  -57.11 | X-H torsion

> <Gold.Protein.ActiveResidues>
 VAL166  LYS551  ARG553  GLY616  TRP617  ASP618  TYR619  PRO620  LYS621  CYS622 
 ASP623  PHE694  ASN695  SER759  ASP760  ASP761  ALA762  ILE779  LEU786  VAL792 
 PHE793  MET794  SER795  GLU796  ALA797  LYS798  CYS799  TRP800  GLU811  SER814 

> <Gold.Protein.RotatedAtoms>
  151.5361  135.1068  159.9914 H   0  0  0  0  0  0  0  0  0  0  0  0  # atno 6907 bound_to 6896
  152.4556  133.7713  159.6811 H   0  0  0  0  0  0  0  0  0  0  0  0  # atno 6908 bound_to 6896
  150.8499  133.7737  159.3054 H   0  0  0  0  0  0  0  0  0  0  0  0  # atno 6909 bound_to 6896
  146.1244  140.5363  142.8721 H   0  0  0  0  0  0  0  0  0  0  0  0  # atno 7974 bound_to 7965
  156.2823  140.2154  156.5544 H   0  0  0  0  0  0  0  0  0  0  0  0  # atno 8008 bound_to 7997
  154.7264  140.0499  157.0709 H   0  0  0  0  0  0  0  0  0  0  0  0  # atno 8009 bound_to 7997
  155.0410  140.3145  155.4727 H   0  0  0  0  0  0  0  0  0  0  0  0  # atno 8010 bound_to 7997
  139.4907  144.5830  151.6834 H   0  0  0  0  0  0  0  0  0  0  0  0  # atno 10167 bound_to 10162
  156.3821  130.7842  151.2035 H   0  0  0  0  0  0  0  0  0  0  0  0  # atno 10718 bound_to 10713
  153.2800  135.6940  153.7395 H   0  0  0  0  0  0  0  0  0  0  0  0  # atno 10763 bound_to 10752
  153.6386  135.3397  155.3065 H   0  0  0  0  0  0  0  0  0  0  0  0  # atno 10764 bound_to 10752
  154.8492  135.4426  154.1850 H   0  0  0  0  0  0  0  0  0  0  0  0  # atno 10765 bound_to 10752
  141.1479  133.6697  156.6122 H   0  0  0  0  0  0  0  0  0  0  0  0  # atno 11005 bound_to 11000
  144.7628  140.5461  143.6724 LP  0  0  0  0  0  0  0  0  0  0  0  0  # atno 17320 bound_to 7965
  145.5397  139.1475  143.3453 LP  0  0  0  0  0  0  0  0  0  0  0  0  # atno 17321 bound_to 7965
  140.5440  144.0533  150.6099 LP  0  0  0  0  0  0  0  0  0  0  0  0  # atno 17342 bound_to 10162
  140.3565  143.2933  152.0430 LP  0  0  0  0  0  0  0  0  0  0  0  0  # atno 17343 bound_to 10162
  157.7493  131.0341  150.4302 LP  0  0  0  0  0  0  0  0  0  0  0  0  # atno 17370 bound_to 10713
  156.4547  130.4019  149.6613 LP  0  0  0  0  0  0  0  0  0  0  0  0  # atno 17371 bound_to 10713
  140.3605  134.7691  157.4530 LP  0  0  0  0  0  0  0  0  0  0  0  0  # atno 17394 bound_to 11000
  140.0789  134.5759  155.8562 LP  0  0  0  0  0  0  0  0  0  0  0  0  # atno 17395 bound_to 11000

$$$$
