AV-unprocessed.smi:240|AV-procd|sdf|1837|dock8
  -GOLD-   2262020443D 1   1.00000     0.00000
 Structure written by MMmdl.
 55 59  0  0  0  0  0  0  0  0  1 V2000
  150.4657  139.9365  153.6319 O   0  0  0  0  0  0  0  0  0  0  0  0
  149.4827  139.8626  154.6497 C   0  0  1  0  0  0  0  0  0  0  0  0
  148.2842  140.7178  154.2338 C   0  0  0  0  0  0  0  0  0  0  0  0
  147.4157  139.8089  153.3584 C   0  0  0  0  0  0  0  0  0  0  0  0
  147.9300  138.3797  153.5803 C   0  0  0  0  0  0  0  0  0  0  0  0
  148.9090  138.4354  154.7726 C   0  0  1  0  0  0  0  0  0  0  0  0
  149.9711  137.2886  154.8846 C   0  0  1  0  0  0  0  0  0  0  0  0
  151.2490  137.8075  155.5975 C   0  0  0  0  0  0  0  0  0  0  0  0
  152.2179  136.7765  155.7406 O   0  0  0  0  0  0  0  0  0  0  0  0
  151.7367  135.7132  156.5470 C   0  0  0  0  0  0  0  0  0  0  0  0
  150.5212  135.0923  155.8527 C   0  0  0  0  0  0  0  0  0  0  0  0
  149.4933  136.1025  155.6186 N   0  0  0  0  0  0  0  0  0  0  0  0
  148.3706  135.5019  155.1696 C   0  0  0  0  0  0  0  0  0  0  0  0
  147.1881  136.0626  155.5233 N   0  0  0  0  0  0  0  0  0  0  0  0
  146.0414  135.5249  155.0968 C   0  0  0  0  0  0  0  0  0  0  0  0
  145.8586  134.4506  154.3258 N   0  0  0  0  0  0  0  0  0  0  0  0
  147.0479  133.8765  153.9831 C   0  0  0  0  0  0  0  0  0  0  0  0
  148.3415  134.3260  154.3673 C   0  0  0  0  0  0  0  0  0  0  0  0
  149.3134  133.4857  153.8378 N   0  0  0  0  0  0  0  0  0  0  0  0
  148.6328  132.5974  153.1663 C   0  0  0  0  0  0  0  0  0  0  0  0
  147.2664  132.7654  153.1879 N   0  0  0  0  0  0  0  0  0  0  0  0
  146.2731  131.9384  152.5210 C   0  0  0  0  0  0  0  0  0  0  0  0
  145.7632  132.5271  151.1808 C   0  0  2  0  0  0  0  0  0  0  0  0
  146.8583  133.0769  150.4713 O   0  0  0  0  0  0  0  0  0  0  0  0
  144.6800  133.5966  151.3356 C   0  0  0  0  0  0  0  0  0  0  0  0
  143.3972  132.7998  151.1554 C   0  0  0  0  0  0  0  0  0  0  0  0
  143.7375  131.9178  150.1000 O   0  0  0  0  0  0  0  0  0  0  0  0
  145.0651  131.4537  150.3204 C   0  0  0  0  0  0  0  0  0  0  0  0
  150.0532  139.7555  152.8011 H   0  0  0  0  0  0  0  0  0  0  0  0
  149.9115  140.2203  155.5864 H   0  0  0  0  0  0  0  0  0  0  0  0
  147.7204  140.9994  155.1240 H   0  0  0  0  0  0  0  0  0  0  0  0
  148.5711  141.6412  153.7287 H   0  0  0  0  0  0  0  0  0  0  0  0
  146.3644  139.9012  153.6337 H   0  0  0  0  0  0  0  0  0  0  0  0
  147.5027  140.0814  152.3059 H   0  0  0  0  0  0  0  0  0  0  0  0
  147.0975  137.6986  153.7508 H   0  0  0  0  0  0  0  0  0  0  0  0
  148.4521  138.0462  152.6829 H   0  0  0  0  0  0  0  0  0  0  0  0
  148.3094  138.4181  155.6845 H   0  0  0  0  0  0  0  0  0  0  0  0
  150.2580  136.9759  153.8802 H   0  0  0  0  0  0  0  0  0  0  0  0
  151.7229  138.6042  155.0261 H   0  0  0  0  0  0  0  0  0  0  0  0
  151.0060  138.2238  156.5766 H   0  0  0  0  0  0  0  0  0  0  0  0
  152.5247  134.9696  156.6656 H   0  0  0  0  0  0  0  0  0  0  0  0
  151.4802  136.0739  157.5443 H   0  0  0  0  0  0  0  0  0  0  0  0
  150.8287  134.6495  154.9042 H   0  0  0  0  0  0  0  0  0  0  0  0
  150.1215  134.2858  156.4697 H   0  0  0  0  0  0  0  0  0  0  0  0
  145.1417  136.0307  155.4147 H   0  0  0  0  0  0  0  0  0  0  0  0
  149.1126  131.7946  152.6256 H   0  0  0  0  0  0  0  0  0  0  0  0
  146.7058  130.9500  152.3596 H   0  0  0  0  0  0  0  0  0  0  0  0
  145.4372  131.7943  153.2069 H   0  0  0  0  0  0  0  0  0  0  0  0
  147.5068  132.4000  150.3511 H   0  0  0  0  0  0  0  0  0  0  0  0
  144.7083  134.1442  152.2763 H   0  0  0  0  0  0  0  0  0  0  0  0
  144.7469  134.3324  150.5325 H   0  0  0  0  0  0  0  0  0  0  0  0
  143.1575  132.2307  152.0550 H   0  0  0  0  0  0  0  0  0  0  0  0
  142.5421  133.4259  150.8994 H   0  0  0  0  0  0  0  0  0  0  0  0
  145.5609  131.2804  149.3643 H   0  0  0  0  0  0  0  0  0  0  0  0
  145.0184  130.4952  150.8395 H   0  0  0  0  0  0  0  0  0  0  0  0
  1  2  1  0  0  0  0
  1 29  1  0  0  0  0
  2  6  1  0  0  0  0
  2  3  1  0  0  0  0
  2 30  1  0  0  0  0
  3  4  1  0  0  0  0
  3 31  1  0  0  0  0
  3 32  1  0  0  0  0
  4  5  1  0  0  0  0
  4 33  1  0  0  0  0
  4 34  1  0  0  0  0
  5  6  1  0  0  0  0
  5 35  1  0  0  0  0
  5 36  1  0  0  0  0
  6  7  1  0  0  0  0
  6 37  1  0  0  0  0
  7 12  1  0  0  0  0
  7  8  1  0  0  0  0
  7 38  1  0  0  0  0
  8  9  1  0  0  0  0
  8 39  1  0  0  0  0
  8 40  1  0  0  0  0
  9 10  1  0  0  0  0
 10 11  1  0  0  0  0
 10 41  1  0  0  0  0
 10 42  1  0  0  0  0
 11 12  1  0  0  0  0
 11 43  1  0  0  0  0
 11 44  1  0  0  0  0
 12 13  1  0  0  0  0
 13 18  1  0  0  0  0
 13 14  2  0  0  0  0
 14 15  1  0  0  0  0
 15 16  2  0  0  0  0
 15 45  1  0  0  0  0
 16 17  1  0  0  0  0
 17 21  1  0  0  0  0
 17 18  2  0  0  0  0
 18 19  1  0  0  0  0
 19 20  2  0  0  0  0
 20 21  1  0  0  0  0
 20 46  1  0  0  0  0
 21 22  1  0  0  0  0
 22 23  1  0  0  0  0
 22 47  1  0  0  0  0
 22 48  1  0  0  0  0
 23 28  1  0  0  0  0
 23 24  1  0  0  0  0
 23 25  1  0  0  0  0
 24 49  1  0  0  0  0
 25 26  1  0  0  0  0
 25 50  1  0  0  0  0
 25 51  1  0  0  0  0
 26 27  1  0  0  0  0
 26 52  1  0  0  0  0
 26 53  1  0  0  0  0
 27 28  1  0  0  0  0
 28 54  1  0  0  0  0
 28 55  1  0  0  0  0
M  END
> <s_m_source_file>
AV-unprocessed.smi

> <i_m_source_file_index>
240

> <i_lp_mmshare_version>
43012

> <i_f3d_flags>
0

> <s_epik_input>
W09IXVtDQEBIXTFbQ0gyXVtDSDJdW0NIMl1bQ0BIXTFbQ0BASF0yW0NIMl1PW0NIMl1bQ0gyXU4yYyhuW2NIXW4zKWMoYzM0KW5bY0hdbjRbQ0gyXVtDQEBdNShbT0hdKVtDSDJdW0NIMl1PW0NIMl01

> <s_epik_cmdline>
J2VwaWtfcHl0aG9uJywgJy1waCcsICc3LjAnLCAnLXRuJywgJzgnLCAnLW1hJywgJzIwMCcsICctbWV0YWxfYmluZGluZycsICctaW1hZScsICc8aW5maWxlLm1hZT4nLCAnLW9tYWUnLCAnPG91dGZpbGUubWFlPic=

> <r_lp_tautomer_probability>
1

> <r_epik_Ionization_Penalty>
0.000130618

> <r_epik_Ionization_Penalty_Charging>
0

> <r_epik_Ionization_Penalty_Neutral>
0.000130618

> <r_epik_State_Penalty>
-0

> <r_epik_Charging_Adjusted_Penalty>
0

> <i_epik_Tot_Q>
0

> <i_epik_Tot_abs_Q>
0

> <r_epik_Metal_State_Penalty>
-0

> <b_epik_Metal_Only>
0

> <s_lp_Force_Field>
OPLS_2005

> <r_lp_Energy>
64.0442

> <b_lp_Chiralities_Consistent>
1

> <s_lp_Variant>
AV-unprocessed.smi:240-14

> <Gold.Version>
5.8.1

> <Gold.Id.Protein>
6NUR|6NUR_protein|mol2

> <Gold.PLP.Fitness>
46.7325

> <Gold.PLP.PLP>
-34.9637

> <Gold.PLP.part.hbond>
-5.3849

> <Gold.PLP.part.metal>
0.0000

> <Gold.PLP.part.buried>
-2.7474

> <Gold.PLP.part.nonpolar>
-27.6839

> <Gold.PLP.part.repulsive>
0.5545

> <Gold.PLP.ligand.clash>
0.1200

> <Gold.PLP.ligand.torsion>
1.8989

> <Gold.PLP.Chemscore.Hbond>
4.1440

> <Gold.PLP.Chemscore.CHOScore>
1.0000

> <Gold.PLP.Chemscore.Metal>
0.0000

> <Gold.Chemscore.Hbonds>
donor molecule, donor type, donor heavy atom, donor atom, acceptor molecule, acceptor atom, score
      L1  H     1    29       P1  7957  1.00
      L1  H    24    49       P1 10747  0.78
      P1  H  7989  7998       L1     1  0.76
      P1  H 10752 10763       L1     9  0.42
      P1  H 10785 10796       L1    27  0.20
      L1  C    20    46       P1 10747  1.00

> <Gold.PLP.Chemscore.Internal.Correction>
0.2546

> <Gold.Rescore>
     Score         DG    S(hbond)    S(metal)    S(lipo)     H(rot)  DE(clash)    DE(int)     intcor
     11.87     -17.20       2.69        0.00      88.98       3.00       0.73       4.60       ----

> <Gold.Chemscore.Fitness>
11.8706

> <Gold.Chemscore.DG>
-17.1993

> <Gold.Chemscore.ZeroCoef>
-5.4800

> <Gold.Chemscore.Hbond>
2.6941

> <Gold.Chemscore.Metal>
0.0000

> <Gold.Chemscore.Lipo>
88.9820

> <Gold.Chemscore.Internal_Hbond>
0.0000

> <Gold.Chemscore.DEClash>
0.7330

> <Gold.Chemscore.DEInternal>
4.5957

> <Gold.Chemscore.Rot>
3.0039

> <Gold.Chemscore.Internal.Correction>
   9.000000E+99

> <Gold.Chemscore.Hbonds>
donor molecule, donor type, donor heavy atom, donor atom, acceptor molecule, acceptor atom, score
      L1  H     1    29       P1  7957  0.98
      L1  H    24    49       P1 10747  0.77
      P1  H  7989  7998       L1     1  0.57
      P1  H 10752 10763       L1     9  0.03
      P1  H 10785 10796       L1    27  0.02

> <Gold.Chemscore.Hbond.Weighted>
-8.9983

> <Gold.Chemscore.Metal.Weighted>
-0.0000

> <Gold.Chemscore.Lipo.Weighted>
-10.4109

> <Gold.Chemscore.Internal_Hbond.Weighted>
0.0000

> <Gold.Chemscore.DEClash.Weighted>
0.7330

> <Gold.Chemscore.DEInternal.Weighted>
4.5957

> <Gold.Chemscore.Rot.Weighted>
7.6899

> <Gold.Chemscore.Internal.Correction.Weighted>
   9.000000E+99

> <Gold.Protein.RotatedTorsions>
[ 6907 6896 6895 6894 ] final   58.96 input  -60.11 | X-H torsion
[ 7974 7965 7964 7962 ] final   87.31 input  175.53 | X-H torsion
[ 8008 7997 7996 7995 ] final  -38.04 input   59.86 | X-H torsion
[ 10167 10162 10161 10158 ] final -156.60 input  -65.29 | X-H torsion
[ 10718 10713 10712 10709 ] final -131.10 input   66.30 | X-H torsion
[ 10763 10752 10751 10750 ] final   53.99 input  -60.55 | X-H torsion
[ 11005 11000 10999 10996 ] final  -38.29 input  -57.11 | X-H torsion

> <Gold.Protein.ActiveResidues>
 VAL166  LYS551  ARG553  GLY616  TRP617  ASP618  TYR619  PRO620  LYS621  CYS622 
 ASP623  PHE694  ASN695  SER759  ASP760  ASP761  ALA762  ILE779  LEU786  VAL792 
 PHE793  MET794  SER795  GLU796  ALA797  LYS798  CYS799  TRP800  GLU811  SER814 

> <Gold.Protein.RotatedAtoms>
  152.3872  134.6499  160.0120 H   0  0  0  0  0  0  0  0  0  0  0  0  # atno 6907 bound_to 6896
  151.6744  133.3307  159.3212 H   0  0  0  0  0  0  0  0  0  0  0  0  # atno 6908 bound_to 6896
  150.7795  134.6771  159.6468 H   0  0  0  0  0  0  0  0  0  0  0  0  # atno 6909 bound_to 6896
  145.5607  139.2303  143.2461 H   0  0  0  0  0  0  0  0  0  0  0  0  # atno 7974 bound_to 7965
  154.4043  140.1588  156.2635 H   0  0  0  0  0  0  0  0  0  0  0  0  # atno 8008 bound_to 7997
  155.9015  140.3433  155.6008 H   0  0  0  0  0  0  0  0  0  0  0  0  # atno 8009 bound_to 7997
  155.7442  140.0796  157.2222 H   0  0  0  0  0  0  0  0  0  0  0  0  # atno 8010 bound_to 7997
  139.6837  143.9538  152.2350 H   0  0  0  0  0  0  0  0  0  0  0  0  # atno 10167 bound_to 10162
  156.2210  130.6979  151.0756 H   0  0  0  0  0  0  0  0  0  0  0  0  # atno 10718 bound_to 10713
  152.9800  135.5760  154.4831 H   0  0  0  0  0  0  0  0  0  0  0  0  # atno 10763 bound_to 10752
  154.4377  135.2775  155.1871 H   0  0  0  0  0  0  0  0  0  0  0  0  # atno 10764 bound_to 10752
  154.3552  135.6200  153.5716 H   0  0  0  0  0  0  0  0  0  0  0  0  # atno 10765 bound_to 10752
  141.0016  133.6952  156.2033 H   0  0  0  0  0  0  0  0  0  0  0  0  # atno 11005 bound_to 11000
  146.1853  140.6431  142.9170 LP  0  0  0  0  0  0  0  0  0  0  0  0  # atno 17320 bound_to 7965
  144.7484  140.5129  143.6819 LP  0  0  0  0  0  0  0  0  0  0  0  0  # atno 17321 bound_to 7965
  139.9335  144.6727  150.8339 LP  0  0  0  0  0  0  0  0  0  0  0  0  # atno 17342 bound_to 10162
  140.7660  143.3293  151.2446 LP  0  0  0  0  0  0  0  0  0  0  0  0  # atno 17343 bound_to 10162
  157.7087  131.0744  150.6575 LP  0  0  0  0  0  0  0  0  0  0  0  0  # atno 17370 bound_to 10713
  156.6638  130.4520  149.5679 LP  0  0  0  0  0  0  0  0  0  0  0  0  # atno 17371 bound_to 10713
  140.6880  134.4697  157.5589 LP  0  0  0  0  0  0  0  0  0  0  0  0  # atno 17394 bound_to 11000
  139.9042  134.8487  156.1774 LP  0  0  0  0  0  0  0  0  0  0  0  0  # atno 17395 bound_to 11000

$$$$
