AV-unprocessed.smi:158|AV-procd|sdf|1326|dock8
  -GOLD-   2262019 23D 1   1.00000     0.00000
 Structure written by MMmdl.
 31 33  0  0  0  0  0  0  0  0  1 V2000
  154.2055  141.8233  160.9507 N   0  0  0  0  0  0  0  0  0  0  0  0
  153.2851  142.1276  160.0254 C   0  0  0  0  0  0  0  0  0  0  0  0
  152.5441  143.2474  160.1964 N   0  0  0  0  0  0  0  0  0  0  0  0
  151.6142  143.5880  159.2953 C   0  0  0  0  0  0  0  0  0  0  0  0
  150.7292  145.0323  159.6173 Cl  0  0  0  0  0  0  0  0  0  0  0  0
  151.2924  142.9334  158.1739 N   0  0  0  0  0  0  0  0  0  0  0  0
  152.0369  141.8031  158.0014 C   0  0  0  0  0  0  0  0  0  0  0  0
  153.0500  141.3324  158.8774 C   0  0  0  0  0  0  0  0  0  0  0  0
  153.5941  140.1556  158.3814 N   0  0  0  0  0  0  0  0  0  0  0  0
  152.9337  139.9472  157.2734 C   0  0  0  0  0  0  0  0  0  0  0  0
  151.9708  140.8891  156.9734 N   0  0  0  0  0  0  0  0  0  0  0  0
  151.0421  140.9649  155.8022 C   0  0  1  0  0  0  0  0  0  0  0  0
  151.2853  139.8546  154.9886 O   0  0  0  0  0  0  0  0  0  0  0  0
  150.1749  138.9556  154.9901 C   0  0  1  0  0  0  0  0  0  0  0  0
  150.6377  137.4877  154.9889 C   0  0  0  0  0  0  0  0  0  0  0  0
  151.5776  137.2781  153.9573 O   0  0  0  0  0  0  0  0  0  0  0  0
  149.3049  139.3782  156.1841 C   0  0  1  0  0  0  0  0  0  0  0  0
  149.6488  138.7124  157.3860 O   0  0  0  0  0  0  0  0  0  0  0  0
  149.5915  140.8647  156.2851 C   0  0  2  0  0  0  0  0  0  0  0  0
  148.8118  141.5399  155.4395 F   0  0  0  0  0  0  0  0  0  0  0  0
  151.2952  141.9056  155.3116 H   0  0  0  0  0  0  0  0  0  0  0  0
  149.5993  139.1585  154.0850 H   0  0  0  0  0  0  0  0  0  0  0  0
  148.2485  139.1849  155.9946 H   0  0  0  0  0  0  0  0  0  0  0  0
  149.4460  141.2914  157.2787 H   0  0  0  0  0  0  0  0  0  0  0  0
  154.7694  140.9921  160.8441 H   0  0  0  0  0  0  0  0  0  0  0  0
  154.3320  142.4227  161.7532 H   0  0  0  0  0  0  0  0  0  0  0  0
  153.1352  139.0918  156.6466 H   0  0  0  0  0  0  0  0  0  0  0  0
  151.0605  137.1973  155.9504 H   0  0  0  0  0  0  0  0  0  0  0  0
  149.7922  136.8276  154.7931 H   0  0  0  0  0  0  0  0  0  0  0  0
  151.2008  136.6892  153.3215 H   0  0  0  0  0  0  0  0  0  0  0  0
  150.5397  138.9345  157.6096 H   0  0  0  0  0  0  0  0  0  0  0  0
  1  2  1  0  0  0  0
  1 25  1  0  0  0  0
  1 26  1  0  0  0  0
  2  8  1  0  0  0  0
  2  3  2  0  0  0  0
  3  4  1  0  0  0  0
  4  5  1  0  0  0  0
  4  6  2  0  0  0  0
  6  7  1  0  0  0  0
  7 11  1  0  0  0  0
  7  8  2  0  0  0  0
  8  9  1  0  0  0  0
  9 10  2  0  0  0  0
 10 11  1  0  0  0  0
 10 27  1  0  0  0  0
 11 12  1  0  0  0  0
 12 21  1  0  0  0  0
 12 19  1  0  0  0  0
 12 13  1  0  0  0  0
 13 14  1  0  0  0  0
 14 22  1  0  0  0  0
 14 15  1  0  0  0  0
 14 17  1  0  0  0  0
 15 16  1  0  0  0  0
 15 28  1  0  0  0  0
 15 29  1  0  0  0  0
 16 30  1  0  0  0  0
 17 23  1  0  0  0  0
 17 18  1  0  0  0  0
 17 19  1  0  0  0  0
 18 31  1  0  0  0  0
 19 24  1  0  0  0  0
 19 20  1  0  0  0  0
M  END
> <s_m_source_file>
AV-unprocessed.smi

> <i_m_source_file_index>
158

> <i_lp_mmshare_version>
43012

> <i_f3d_flags>
0

> <s_epik_input>
Q2xjKG4xKW5jKFtOSDJdKWMoYzEyKW5bY0hdbjJbQ0BASF0zT1tDQEhdKFtDSDJdW09IXSlbQ0BASF0oW09IXSlbQ0BASF0zRg==

> <s_epik_cmdline>
J2VwaWtfcHl0aG9uJywgJy1waCcsICc3LjAnLCAnLXRuJywgJzgnLCAnLW1hJywgJzIwMCcsICctbWV0YWxfYmluZGluZycsICctaW1hZScsICc8aW5maWxlLm1hZT4nLCAnLW9tYWUnLCAnPG91dGZpbGUubWFlPic=

> <r_lp_tautomer_probability>
1

> <r_epik_Ionization_Penalty>
6.51543e-05

> <r_epik_Ionization_Penalty_Charging>
0

> <r_epik_Ionization_Penalty_Neutral>
6.51543e-05

> <r_epik_State_Penalty>
-0

> <r_epik_Charging_Adjusted_Penalty>
0

> <i_epik_Tot_Q>
0

> <i_epik_Tot_abs_Q>
0

> <r_epik_Metal_State_Penalty>
-0

> <b_epik_Metal_Only>
0

> <s_epik_Chemistry_Notes>
This compound contains an acetal/aminal-like group ( X-CH(R)-Y where X, Y are N, S, or O) that may be acid/base labile, releasing an aldehyde.

> <s_lp_Force_Field>
OPLS_2005

> <r_lp_Energy>
31.9678

> <b_lp_Chiralities_Consistent>
1

> <s_lp_Variant>
AV-unprocessed.smi:158-4

> <Gold.Version>
5.8.1

> <Gold.Id.Protein>
6NUR|6NUR_protein|mol2

> <Gold.PLP.Fitness>
36.2646

> <Gold.PLP.PLP>
-30.0563

> <Gold.PLP.part.hbond>
-3.1770

> <Gold.PLP.part.metal>
0.0000

> <Gold.PLP.part.buried>
-2.5158

> <Gold.PLP.part.nonpolar>
-22.8039

> <Gold.PLP.part.repulsive>
0.1241

> <Gold.PLP.ligand.clash>
0.0000

> <Gold.PLP.ligand.torsion>
0.0489

> <Gold.PLP.Chemscore.Hbond>
2.0975

> <Gold.PLP.Chemscore.CHOScore>
0.0000

> <Gold.PLP.Chemscore.Metal>
0.0000

> <Gold.Chemscore.Hbonds>
donor molecule, donor type, donor heavy atom, donor atom, acceptor molecule, acceptor atom, score
      L1  H    16    30       P1  7949  0.98
      P1  H  7989  7998       L1    13  0.70
      P1  H 10752 10764       L1    16  0.08

> <Gold.PLP.Chemscore.Internal.Correction>
0.0136

> <Gold.Rescore>
     Score         DG    S(hbond)    S(metal)    S(lipo)     H(rot)  DE(clash)    DE(int)     intcor
      6.33      -7.45       1.63        0.00      38.63       3.12       1.10       0.03       ----

> <Gold.Chemscore.Fitness>
6.3286

> <Gold.Chemscore.DG>
-7.4519

> <Gold.Chemscore.ZeroCoef>
-5.4800

> <Gold.Chemscore.Hbond>
1.6310

> <Gold.Chemscore.Metal>
0.0000

> <Gold.Chemscore.Lipo>
38.6257

> <Gold.Chemscore.Internal_Hbond>
0.0000

> <Gold.Chemscore.DEClash>
1.0956

> <Gold.Chemscore.DEInternal>
0.0277

> <Gold.Chemscore.Rot>
3.1230

> <Gold.Chemscore.Internal.Correction>
   9.000000E+99

> <Gold.Chemscore.Hbonds>
donor molecule, donor type, donor heavy atom, donor atom, acceptor molecule, acceptor atom, score
      L1  H    16    30       P1  7949  0.51
      P1  H  7989  7998       L1    13  0.07

> <Gold.Chemscore.Hbond.Weighted>
-5.4477

> <Gold.Chemscore.Metal.Weighted>
-0.0000

> <Gold.Chemscore.Lipo.Weighted>
-4.5192

> <Gold.Chemscore.Internal_Hbond.Weighted>
0.0000

> <Gold.Chemscore.DEClash.Weighted>
1.0956

> <Gold.Chemscore.DEInternal.Weighted>
0.0277

> <Gold.Chemscore.Rot.Weighted>
7.9950

> <Gold.Chemscore.Internal.Correction.Weighted>
   9.000000E+99

> <Gold.Protein.RotatedTorsions>
[ 6907 6896 6895 6894 ] final   55.72 input  -60.11 | X-H torsion
[ 7974 7965 7964 7962 ] final  171.90 input  175.53 | X-H torsion
[ 8008 7997 7996 7995 ] final   17.76 input   59.86 | X-H torsion
[ 10167 10162 10161 10158 ] final  -63.27 input  -65.29 | X-H torsion
[ 10718 10713 10712 10709 ] final  -77.22 input   66.30 | X-H torsion
[ 10763 10752 10751 10750 ] final  -82.94 input  -60.55 | X-H torsion
[ 11005 11000 10999 10996 ] final   50.07 input  -57.11 | X-H torsion

> <Gold.Protein.ActiveResidues>
 VAL166  LYS551  ARG553  GLY616  TRP617  ASP618  TYR619  PRO620  LYS621  CYS622 
 ASP623  PHE694  ASN695  SER759  ASP760  ASP761  ALA762  ILE779  LEU786  VAL792 
 PHE793  MET794  SER795  GLU796  ALA797  LYS798  CYS799  TRP800  GLU811  SER814 

> <Gold.Protein.RotatedAtoms>
  152.3566  134.6931  160.0219 H   0  0  0  0  0  0  0  0  0  0  0  0  # atno 6907 bound_to 6896
  151.7268  133.3311  159.3338 H   0  0  0  0  0  0  0  0  0  0  0  0  # atno 6908 bound_to 6896
  150.7576  134.6332  159.6242 H   0  0  0  0  0  0  0  0  0  0  0  0  # atno 6909 bound_to 6896
  144.7282  139.9418  143.6429 H   0  0  0  0  0  0  0  0  0  0  0  0  # atno 7974 bound_to 7965
  154.8962  140.2994  155.5343 H   0  0  0  0  0  0  0  0  0  0  0  0  # atno 8008 bound_to 7997
  156.3020  140.2415  156.3918 H   0  0  0  0  0  0  0  0  0  0  0  0  # atno 8009 bound_to 7997
  154.8568  140.0407  157.1628 H   0  0  0  0  0  0  0  0  0  0  0  0  # atno 8010 bound_to 7997
  140.5882  143.2337  151.6196 H   0  0  0  0  0  0  0  0  0  0  0  0  # atno 10167 bound_to 10162
  156.0151  130.4485  150.3311 H   0  0  0  0  0  0  0  0  0  0  0  0  # atno 10718 bound_to 10713
  154.5818  135.5573  153.7193 H   0  0  0  0  0  0  0  0  0  0  0  0  # atno 10763 bound_to 10752
  153.0084  135.6322  154.1971 H   0  0  0  0  0  0  0  0  0  0  0  0  # atno 10764 bound_to 10752
  154.1912  135.2882  155.3001 H   0  0  0  0  0  0  0  0  0  0  0  0  # atno 10765 bound_to 10752
  140.1049  134.5032  155.8729 H   0  0  0  0  0  0  0  0  0  0  0  0  # atno 11005 bound_to 11000
  146.0779  139.3766  143.0483 LP  0  0  0  0  0  0  0  0  0  0  0  0  # atno 17320 bound_to 7965
  145.7881  140.9827  143.1063 LP  0  0  0  0  0  0  0  0  0  0  0  0  # atno 17321 bound_to 7965
  139.5211  144.3203  152.0916 LP  0  0  0  0  0  0  0  0  0  0  0  0  # atno 17342 bound_to 10162
  140.2364  144.4315  150.6278 LP  0  0  0  0  0  0  0  0  0  0  0  0  # atno 17343 bound_to 10162
  157.1409  131.0296  151.2928 LP  0  0  0  0  0  0  0  0  0  0  0  0  # atno 17370 bound_to 10713
  157.4472  130.7578  149.7120 LP  0  0  0  0  0  0  0  0  0  0  0  0  # atno 17371 bound_to 10713
  141.2115  133.6708  156.6591 LP  0  0  0  0  0  0  0  0  0  0  0  0  # atno 17394 bound_to 11000
  140.3169  134.8039  157.4222 LP  0  0  0  0  0  0  0  0  0  0  0  0  # atno 17395 bound_to 11000

$$$$
