AV-unprocessed.smi:3021|AV-procd|sdf|11498|dock8
  -GOLD-   2272016433D 1   1.00000     0.00000
 Structure written by MMmdl.
 35 37  0  0  0  0  0  0  0  0  1 V2000
  150.0648  139.6002  153.8311 O   0  0  0  0  0  0  0  0  0  0  0  0
  149.1334  140.4126  154.5189 C   0  0  2  0  0  0  0  0  0  0  0  0
  148.0360  140.8322  153.5291 C   0  0  0  0  0  0  0  0  0  0  0  0
  146.9799  141.4395  154.2541 O   0  0  0  0  0  0  0  0  0  0  0  0
  146.8573  142.8290  153.9944 C   0  0  0  0  0  0  0  0  0  0  0  0
  145.7542  143.3631  154.8528 C   0  0  0  0  0  0  0  0  0  0  0  0
  144.6031  144.0445  154.5677 C   0  0  0  0  0  0  0  0  0  0  0  0
  143.9516  144.2756  155.8108 C   0  0  0  0  0  0  0  0  0  0  0  0
  144.7525  143.7167  156.7651 C   0  0  0  0  0  0  0  0  0  0  0  0
  145.8546  143.1552  156.1986 O   0  0  0  0  0  0  0  0  0  0  0  0
  149.8717  141.6271  155.1151 C   0  0  0  0  0  0  0  0  0  0  0  0
  150.8394  141.2442  156.1286 N   0  0  0  0  0  0  0  0  0  0  0  0
  151.5535  140.0942  155.9684 N   0  0  0  0  0  0  0  0  0  0  0  0
  152.3559  139.9579  156.9814 N   0  0  0  0  0  0  0  0  0  0  0  0
  152.1691  141.0406  157.8246 C   0  0  0  0  0  0  0  0  0  0  0  0
  152.7749  141.3953  159.0505 C   0  0  0  0  0  0  0  0  0  0  0  0
  152.3949  142.5802  159.7182 C   0  0  0  0  0  0  0  0  0  0  0  0
  153.1594  142.9804  161.2151 Cl  0  0  0  0  0  0  0  0  0  0  0  0
  151.4022  143.4250  159.1652 C   0  0  0  0  0  0  0  0  0  0  0  0
  150.9258  144.8783  159.9687 Cl  0  0  0  0  0  0  0  0  0  0  0  0
  150.7899  143.0836  157.9428 C   0  0  0  0  0  0  0  0  0  0  0  0
  151.1820  141.8999  157.2952 C   0  0  0  0  0  0  0  0  0  0  0  0
  149.7329  139.4396  152.9607 H   0  0  0  0  0  0  0  0  0  0  0  0
  148.6893  139.8339  155.3302 H   0  0  0  0  0  0  0  0  0  0  0  0
  148.4343  141.5651  152.8255 H   0  0  0  0  0  0  0  0  0  0  0  0
  147.6826  139.9805  152.9447 H   0  0  0  0  0  0  0  0  0  0  0  0
  147.7913  143.3438  154.2228 H   0  0  0  0  0  0  0  0  0  0  0  0
  146.6268  143.0011  152.9423 H   0  0  0  0  0  0  0  0  0  0  0  0
  144.2704  144.3405  153.5838 H   0  0  0  0  0  0  0  0  0  0  0  0
  143.0157  144.7854  155.9848 H   0  0  0  0  0  0  0  0  0  0  0  0
  144.6923  143.6314  157.8401 H   0  0  0  0  0  0  0  0  0  0  0  0
  150.3883  142.1837  154.3319 H   0  0  0  0  0  0  0  0  0  0  0  0
  149.1584  142.3183  155.5665 H   0  0  0  0  0  0  0  0  0  0  0  0
  153.5338  140.7559  159.4767 H   0  0  0  0  0  0  0  0  0  0  0  0
  150.0338  143.7209  157.5084 H   0  0  0  0  0  0  0  0  0  0  0  0
  1  2  1  0  0  0  0
  1 23  1  0  0  0  0
  2  3  1  0  0  0  0
  2 11  1  0  0  0  0
  2 24  1  0  0  0  0
  3  4  1  0  0  0  0
  3 25  1  0  0  0  0
  3 26  1  0  0  0  0
  4  5  1  0  0  0  0
  5  6  1  0  0  0  0
  5 27  1  0  0  0  0
  5 28  1  0  0  0  0
  6 10  1  0  0  0  0
  6  7  2  0  0  0  0
  7  8  1  0  0  0  0
  7 29  1  0  0  0  0
  8  9  2  0  0  0  0
  8 30  1  0  0  0  0
  9 10  1  0  0  0  0
  9 31  1  0  0  0  0
 11 12  1  0  0  0  0
 11 32  1  0  0  0  0
 11 33  1  0  0  0  0
 12 22  1  0  0  0  0
 12 13  1  0  0  0  0
 13 14  2  0  0  0  0
 14 15  1  0  0  0  0
 15 22  2  0  0  0  0
 15 16  1  0  0  0  0
 16 17  2  0  0  0  0
 16 34  1  0  0  0  0
 17 18  1  0  0  0  0
 17 19  1  0  0  0  0
 19 20  1  0  0  0  0
 19 21  2  0  0  0  0
 21 22  1  0  0  0  0
 21 35  1  0  0  0  0
M  END
> <s_m_source_file>
AV-unprocessed.smi

> <i_m_source_file_index>
3021

> <i_lp_mmshare_version>
43012

> <i_f3d_flags>
0

> <s_epik_input>
W2NIXTFjKENsKWMoQ2wpW2NIXWMoYzEyKW4obm4yKVtDSDJdW0NASF0oW09IXSlbQ0gyXU9bQ0gyXWMzW2NIXVtjSF1bY0hdbzM=

> <s_epik_cmdline>
J2VwaWtfcHl0aG9uJywgJy1waCcsICc3LjAnLCAnLXRuJywgJzgnLCAnLW1hJywgJzIwMCcsICctbWV0YWxfYmluZGluZycsICctaW1hZScsICc8aW5maWxlLm1hZT4nLCAnLW9tYWUnLCAnPG91dGZpbGUubWFlPic=

> <r_lp_tautomer_probability>
1

> <r_epik_Ionization_Penalty>
6.1367e-06

> <r_epik_Ionization_Penalty_Charging>
0

> <r_epik_Ionization_Penalty_Neutral>
6.1367e-06

> <r_epik_State_Penalty>
-0

> <r_epik_Charging_Adjusted_Penalty>
0

> <i_epik_Tot_Q>
0

> <i_epik_Tot_abs_Q>
0

> <r_epik_Metal_State_Penalty>
-0

> <b_epik_Metal_Only>
0

> <s_lp_Force_Field>
OPLS_2005

> <r_lp_Energy>
8.1305

> <b_lp_Chiralities_Consistent>
1

> <s_lp_Variant>
AV-unprocessed.smi:3021-1

> <Gold.Version>
5.8.1

> <Gold.Id.Protein>
6NUR|6NUR_protein|mol2

> <Gold.PLP.Fitness>
52.3926

> <Gold.PLP.PLP>
-45.0650

> <Gold.PLP.part.hbond>
-3.0000

> <Gold.PLP.part.metal>
0.0000

> <Gold.PLP.part.buried>
-4.6003

> <Gold.PLP.part.nonpolar>
-36.5379

> <Gold.PLP.part.repulsive>
0.2860

> <Gold.PLP.ligand.clash>
0.0000

> <Gold.PLP.ligand.torsion>
0.7728

> <Gold.PLP.Chemscore.Hbond>
2.9280

> <Gold.PLP.Chemscore.CHOScore>
0.0000

> <Gold.PLP.Chemscore.Metal>
0.0000

> <Gold.Chemscore.Hbonds>
donor molecule, donor type, donor heavy atom, donor atom, acceptor molecule, acceptor atom, score
      L1  H     1    23       P1  7957  0.94
      P1  H  7989  7998       L1     1  0.93
      P1  H  7997  8009       L1    14  0.94

> <Gold.PLP.Chemscore.Internal.Correction>
0.0892

> <Gold.Rescore>
     Score         DG    S(hbond)    S(metal)    S(lipo)     H(rot)  DE(clash)    DE(int)     intcor
     17.41     -20.21       2.16        0.00     118.17       2.46       0.50       2.30       ----

> <Gold.Chemscore.Fitness>
17.4121

> <Gold.Chemscore.DG>
-20.2140

> <Gold.Chemscore.ZeroCoef>
-5.4800

> <Gold.Chemscore.Hbond>
2.1609

> <Gold.Chemscore.Metal>
0.0000

> <Gold.Chemscore.Lipo>
118.1732

> <Gold.Chemscore.Internal_Hbond>
0.0000

> <Gold.Chemscore.DEClash>
0.5023

> <Gold.Chemscore.DEInternal>
2.2996

> <Gold.Chemscore.Rot>
2.4647

> <Gold.Chemscore.Internal.Correction>
   9.000000E+99

> <Gold.Chemscore.Hbonds>
donor molecule, donor type, donor heavy atom, donor atom, acceptor molecule, acceptor atom, score
      L1  H     1    23       P1  7957  0.91
      P1  H  7989  7998       L1     1  0.13
      P1  H  7997  8009       L1    14  0.22

> <Gold.Chemscore.Hbond.Weighted>
-7.2174

> <Gold.Chemscore.Metal.Weighted>
-0.0000

> <Gold.Chemscore.Lipo.Weighted>
-13.8263

> <Gold.Chemscore.Internal_Hbond.Weighted>
0.0000

> <Gold.Chemscore.DEClash.Weighted>
0.5023

> <Gold.Chemscore.DEInternal.Weighted>
2.2996

> <Gold.Chemscore.Rot.Weighted>
6.3097

> <Gold.Chemscore.Internal.Correction.Weighted>
   9.000000E+99

> <Gold.Protein.RotatedTorsions>
[ 6907 6896 6895 6894 ] final  107.97 input  -60.11 | X-H torsion
[ 7974 7965 7964 7962 ] final  143.19 input  175.53 | X-H torsion
[ 8008 7997 7996 7995 ] final  177.83 input   59.86 | X-H torsion
[ 10167 10162 10161 10158 ] final   73.14 input  -65.29 | X-H torsion
[ 10718 10713 10712 10709 ] final  153.06 input   66.30 | X-H torsion
[ 10763 10752 10751 10750 ] final  142.48 input  -60.55 | X-H torsion
[ 11005 11000 10999 10996 ] final -170.75 input  -57.11 | X-H torsion

> <Gold.Protein.ActiveResidues>
 VAL166  LYS551  ARG553  GLY616  TRP617  ASP618  TYR619  PRO620  LYS621  CYS622 
 ASP623  PHE694  ASN695  SER759  ASP760  ASP761  ALA762  ILE779  LEU786  VAL792 
 PHE793  MET794  SER795  GLU796  ALA797  LYS798  CYS799  TRP800  GLU811  SER814 

> <Gold.Protein.RotatedAtoms>
  152.5132  133.9157  159.7509 H   0  0  0  0  0  0  0  0  0  0  0  0  # atno 6907 bound_to 6896
  150.9540  133.6509  159.2773 H   0  0  0  0  0  0  0  0  0  0  0  0  # atno 6908 bound_to 6896
  151.3777  135.0939  159.9539 H   0  0  0  0  0  0  0  0  0  0  0  0  # atno 6909 bound_to 6896
  144.8942  139.5515  143.5784 H   0  0  0  0  0  0  0  0  0  0  0  0  # atno 7974 bound_to 7965
  156.0614  140.1348  156.9937 H   0  0  0  0  0  0  0  0  0  0  0  0  # atno 8008 bound_to 7997
  154.4483  140.0990  156.6593 H   0  0  0  0  0  0  0  0  0  0  0  0  # atno 8009 bound_to 7997
  155.5372  140.3460  155.4441 H   0  0  0  0  0  0  0  0  0  0  0  0  # atno 8010 bound_to 7997
  140.0277  144.5490  150.7531 H   0  0  0  0  0  0  0  0  0  0  0  0  # atno 10167 bound_to 10162
  157.2497  131.0776  151.1738 H   0  0  0  0  0  0  0  0  0  0  0  0  # atno 10718 bound_to 10713
  153.9564  135.2964  155.3436 H   0  0  0  0  0  0  0  0  0  0  0  0  # atno 10763 bound_to 10752
  154.7398  135.5030  153.9107 H   0  0  0  0  0  0  0  0  0  0  0  0  # atno 10764 bound_to 10752
  153.0968  135.6723  153.9857 H   0  0  0  0  0  0  0  0  0  0  0  0  # atno 10765 bound_to 10752
  140.5160  134.5756  157.5033 H   0  0  0  0  0  0  0  0  0  0  0  0  # atno 11005 bound_to 11000
  146.3071  139.7618  142.9048 LP  0  0  0  0  0  0  0  0  0  0  0  0  # atno 17320 bound_to 7965
  145.3730  141.0346  143.3220 LP  0  0  0  0  0  0  0  0  0  0  0  0  # atno 17321 bound_to 7965
  140.7315  143.2695  151.3934 LP  0  0  0  0  0  0  0  0  0  0  0  0  # atno 17342 bound_to 10162
  139.6097  144.1124  152.2285 LP  0  0  0  0  0  0  0  0  0  0  0  0  # atno 17343 bound_to 10162
  157.3291  130.6976  149.6314 LP  0  0  0  0  0  0  0  0  0  0  0  0  # atno 17370 bound_to 10713
  155.9666  130.4312  150.4912 LP  0  0  0  0  0  0  0  0  0  0  0  0  # atno 17371 bound_to 10713
  139.9632  134.7416  156.0192 LP  0  0  0  0  0  0  0  0  0  0  0  0  # atno 17394 bound_to 11000
  141.1360  133.6575  156.3595 LP  0  0  0  0  0  0  0  0  0  0  0  0  # atno 17395 bound_to 11000

$$$$
