AV-unprocessed.smi:72|AV-procd|sdf|742|dock2
  -GOLD-   2262017 73D 1   1.00000     0.00000
 Structure written by MMmdl.
 28 29  0  0  0  0  0  0  0  0  2 V2000
  148.2860  136.6004  161.0911 N   0  0  0  0  0  0  0  0  0  0  0  0
  148.4984  136.7301  159.8550 C   0  0  0  0  0  0  0  0  0  0  0  0
  147.9196  137.8431  159.1343 N   0  0  0  0  0  0  0  0  0  0  0  0
  148.1481  137.9225  157.8594 C   0  0  0  0  0  0  0  0  0  0  0  0
  148.9458  136.9255  157.1582 N   0  0  0  0  0  0  0  0  0  0  0  0
  149.2210  137.0356  155.6738 C   0  0  1  0  0  0  0  0  0  0  0  0
  148.5578  138.1553  155.1596 O   0  0  0  0  0  0  0  0  0  0  0  0
  149.4443  138.9212  154.3495 C   0  0  1  0  0  0  0  0  0  0  0  0
  149.0031  140.3929  154.3438 C   0  0  0  0  0  0  0  0  0  0  0  0
  148.7474  140.8209  153.0232 O   0  0  0  0  0  0  0  0  0  0  0  0
  150.7942  138.6903  155.0289 C   0  0  2  0  0  0  0  0  0  0  0  0
  151.8992  138.9967  154.1994 O   0  0  0  0  0  0  0  0  0  0  0  0
  150.7263  137.2197  155.4235 C   0  0  2  0  0  0  0  0  0  0  0  0
  151.1764  136.3534  154.3982 O   0  0  0  0  0  0  0  0  0  0  0  0
  149.5323  135.8642  157.8968 C   0  0  0  0  0  0  0  0  0  0  0  0
  150.2454  135.0612  157.2943 O   0  0  0  0  0  0  0  0  0  0  0  0
  149.2906  135.7884  159.2356 N   0  5  0  0  0  0  0  0  0  0  0  0
  148.7980  136.1392  155.2172 H   0  0  0  0  0  0  0  0  0  0  0  0
  149.4641  138.5053  153.3401 H   0  0  0  0  0  0  0  0  0  0  0  0
  150.8544  139.2965  155.9342 H   0  0  0  0  0  0  0  0  0  0  0  0
  151.3070  137.0172  156.3248 H   0  0  0  0  0  0  0  0  0  0  0  0
  148.7426  135.7899  161.4833 H   0  0  0  0  0  0  0  0  0  0  0  0
  147.7656  138.7356  157.2417 H   0  0  0  0  0  0  0  0  0  0  0  0
  148.1237  140.5452  154.9703 H   0  0  0  0  0  0  0  0  0  0  0  0
  149.7976  141.0241  154.7424 H   0  0  0  0  0  0  0  0  0  0  0  0
  148.7556  140.0654  152.4557 H   0  0  0  0  0  0  0  0  0  0  0  0
  152.6491  139.1590  154.7508 H   0  0  0  0  0  0  0  0  0  0  0  0
  150.5140  136.3220  153.7244 H   0  0  0  0  0  0  0  0  0  0  0  0
  1  2  2  0  0  0  0
  1 22  1  0  0  0  0
  2 17  1  0  0  0  0
  2  3  1  0  0  0  0
  3  4  2  0  0  0  0
  4  5  1  0  0  0  0
  4 23  1  0  0  0  0
  5  6  1  0  0  0  0
  5 15  1  0  0  0  0
  6 18  1  0  0  0  0
  6 13  1  0  0  0  0
  6  7  1  0  0  0  0
  7  8  1  0  0  0  0
  8 19  1  0  0  0  0
  8  9  1  0  0  0  0
  8 11  1  0  0  0  0
  9 10  1  0  0  0  0
  9 24  1  0  0  0  0
  9 25  1  0  0  0  0
 10 26  1  0  0  0  0
 11 20  1  0  0  0  0
 11 12  1  0  0  0  0
 11 13  1  0  0  0  0
 12 27  1  0  0  0  0
 13 21  1  0  0  0  0
 13 14  1  0  0  0  0
 14 28  1  0  0  0  0
 15 16  2  0  0  0  0
 15 17  1  0  0  0  0
M  CHG  1  17  -1
M  END
> <s_m_source_file>
AV-unprocessed.smi

> <i_m_source_file_index>
72

> <i_lp_mmshare_version>
43012

> <i_f3d_flags>
0

> <s_epik_input>
W05IMl1jMW5bY0hdbihjKD1PKW4xKVtDQEBIXTJPW0NASF0oW0NIMl1bT0hdKVtDQEBIXShbT0hdKVtDQEhdMltPSF0=

> <s_epik_cmdline>
J2VwaWtfcHl0aG9uJywgJy1waCcsICc3LjAnLCAnLXRuJywgJzgnLCAnLW1hJywgJzIwMCcsICctbWV0YWxfYmluZGluZycsICctaW1hZScsICc8aW5maWxlLm1hZT4nLCAnLW9tYWUnLCAnPG91dGZpbGUubWFlPic=

> <r_lp_tautomer_probability>
7.17554e-07

> <r_epik_Ionization_Penalty>
12.8705

> <r_epik_Ionization_Penalty_Charging>
5.64144

> <r_epik_Ionization_Penalty_Neutral>
7.22905

> <r_epik_State_Penalty>
3.30104

> <r_epik_Charging_Adjusted_Penalty>
8.94249

> <i_epik_Tot_Q>
-1

> <i_epik_Tot_abs_Q>
1

> <r_epik_Metal_State_Penalty>
0.529074

> <b_epik_Metal_Only>
1

> <s_epik_Chemistry_Notes>
This compound contains an acetal/aminal-like group ( X-CH(R)-Y where X, Y are N, S, or O) that may be acid/base labile, releasing an aldehyde.

> <s_lp_Force_Field>
OPLS_2005

> <r_lp_Energy>
36.1714

> <b_lp_Chiralities_Consistent>
1

> <s_lp_Variant>
AV-unprocessed.smi:72-80

> <Gold.Version>
5.8.1

> <Gold.Id.Protein>
6NUR|6NUR_protein|mol2

> <Gold.PLP.Fitness>
42.4546

> <Gold.PLP.PLP>
-23.2475

> <Gold.PLP.part.hbond>
-9.0483

> <Gold.PLP.part.metal>
0.0000

> <Gold.PLP.part.buried>
-1.4352

> <Gold.PLP.part.nonpolar>
-12.1410

> <Gold.PLP.part.repulsive>
0.0816

> <Gold.PLP.ligand.clash>
0.0000

> <Gold.PLP.ligand.torsion>
0.7560

> <Gold.PLP.Chemscore.Hbond>
6.8992

> <Gold.PLP.Chemscore.CHOScore>
0.0000

> <Gold.PLP.Chemscore.Metal>
0.0000

> <Gold.Chemscore.Hbonds>
donor molecule, donor type, donor heavy atom, donor atom, acceptor molecule, acceptor atom, score
      L1  H    10    26       P1  7957  0.43
      L1  H    14    28       P1  7948  0.05
      P1  H  6896  6908       L1    17  1.60
      P1  H  6931  6943       L1     1  1.00
      P1  H  6934  6947       L1     3  0.19
      P1  H  7989  7998       L1    12  0.76
      P1  H  8011  8017       L1    10  1.00
      P1  H 10752 10764       L1    14  1.00

> <Gold.PLP.Chemscore.Internal.Correction>
0.0217

> <Gold.Rescore>
     Score         DG    S(hbond)    S(metal)    S(lipo)     H(rot)  DE(clash)    DE(int)     intcor
      7.87      -9.08       3.28        0.00      25.53       4.04       0.09       1.12       ----

> <Gold.Chemscore.Fitness>
7.8730

> <Gold.Chemscore.DG>
-9.0841

> <Gold.Chemscore.ZeroCoef>
-5.4800

> <Gold.Chemscore.Hbond>
3.2816

> <Gold.Chemscore.Metal>
0.0000

> <Gold.Chemscore.Lipo>
25.5270

> <Gold.Chemscore.Internal_Hbond>
0.0000

> <Gold.Chemscore.DEClash>
0.0907

> <Gold.Chemscore.DEInternal>
1.1205

> <Gold.Chemscore.Rot>
4.0403

> <Gold.Chemscore.Internal.Correction>
   9.000000E+99

> <Gold.Chemscore.Hbonds>
donor molecule, donor type, donor heavy atom, donor atom, acceptor molecule, acceptor atom, score
      L1  H    10    26       P1  7957  0.42
      P1  H  6896  6908       L1    17  0.12
      P1  H  6931  6943       L1     1  0.30
      P1  H  6934  6947       L1     3  0.04
      P1  H  7989  7998       L1    12  0.10
      P1  H  8011  8017       L1    10  0.79
      P1  H 10752 10764       L1    14  0.93

> <Gold.Chemscore.Hbond.Weighted>
-10.9605

> <Gold.Chemscore.Metal.Weighted>
-0.0000

> <Gold.Chemscore.Lipo.Weighted>
-2.9867

> <Gold.Chemscore.Internal_Hbond.Weighted>
0.0000

> <Gold.Chemscore.DEClash.Weighted>
0.0907

> <Gold.Chemscore.DEInternal.Weighted>
1.1205

> <Gold.Chemscore.Rot.Weighted>
10.3431

> <Gold.Chemscore.Internal.Correction.Weighted>
   9.000000E+99

> <Gold.Protein.RotatedTorsions>
[ 6907 6896 6895 6894 ] final  177.54 input  -60.11 | X-H torsion
[ 7974 7965 7964 7962 ] final  171.89 input  175.53 | X-H torsion
[ 8008 7997 7996 7995 ] final  179.71 input   59.86 | X-H torsion
[ 10167 10162 10161 10158 ] final   43.08 input  -65.29 | X-H torsion
[ 10718 10713 10712 10709 ] final -123.61 input   66.30 | X-H torsion
[ 10763 10752 10751 10750 ] final  -55.91 input  -60.55 | X-H torsion
[ 11005 11000 10999 10996 ] final  -11.53 input  -57.11 | X-H torsion

> <Gold.Protein.ActiveResidues>
 VAL166  LYS551  ARG553  GLY616  TRP617  ASP618  TYR619  PRO620  LYS621  CYS622 
 ASP623  PHE694  ASN695  SER759  ASP760  ASP761  ALA762  ILE779  LEU786  VAL792 
 PHE793  MET794  SER795  GLU796  ALA797  LYS798  CYS799  TRP800  GLU811  SER814 

> <Gold.Protein.RotatedAtoms>
  151.7023  133.3311  159.3269 H   0  0  0  0  0  0  0  0  0  0  0  0  # atno 6907 bound_to 6896
  150.7730  134.6605  159.6346 H   0  0  0  0  0  0  0  0  0  0  0  0  # atno 6908 bound_to 6896
  152.3762  134.6662  160.0211 H   0  0  0  0  0  0  0  0  0  0  0  0  # atno 6909 bound_to 6896
  144.7282  139.9417  143.6429 H   0  0  0  0  0  0  0  0  0  0  0  0  # atno 7974 bound_to 7965
  156.0403  140.1302  157.0163 H   0  0  0  0  0  0  0  0  0  0  0  0  # atno 8008 bound_to 7997
  154.4388  140.1031  156.6297 H   0  0  0  0  0  0  0  0  0  0  0  0  # atno 8009 bound_to 7997
  155.5677  140.3466  155.4509 H   0  0  0  0  0  0  0  0  0  0  0  0  # atno 8010 bound_to 7997
  140.3480  144.2387  150.6148 H   0  0  0  0  0  0  0  0  0  0  0  0  # atno 10167 bound_to 10162
  156.1517  130.6539  150.9922 H   0  0  0  0  0  0  0  0  0  0  0  0  # atno 10718 bound_to 10713
  154.1982  135.6415  153.5079 H   0  0  0  0  0  0  0  0  0  0  0  0  # atno 10763 bound_to 10752
  153.0018  135.5445  154.6343 H   0  0  0  0  0  0  0  0  0  0  0  0  # atno 10764 bound_to 10752
  154.5749  135.2920  155.0763 H   0  0  0  0  0  0  0  0  0  0  0  0  # atno 10765 bound_to 10752
  140.7562  133.8551  155.9086 H   0  0  0  0  0  0  0  0  0  0  0  0  # atno 11005 bound_to 11000
  146.0779  139.3767  143.0482 LP  0  0  0  0  0  0  0  0  0  0  0  0  # atno 17320 bound_to 7965
  145.7880  140.9827  143.1064 LP  0  0  0  0  0  0  0  0  0  0  0  0  # atno 17321 bound_to 7965
  140.5246  143.2257  151.8334 LP  0  0  0  0  0  0  0  0  0  0  0  0  # atno 17342 bound_to 10162
  139.4830  144.4795  151.9325 LP  0  0  0  0  0  0  0  0  0  0  0  0  # atno 17343 bound_to 10162
  157.6662  131.0871  150.7723 LP  0  0  0  0  0  0  0  0  0  0  0  0  # atno 17370 bound_to 10713
  156.7791  130.4853  149.5404 LP  0  0  0  0  0  0  0  0  0  0  0  0  # atno 17371 bound_to 10713
  140.9705  134.1537  157.4580 LP  0  0  0  0  0  0  0  0  0  0  0  0  # atno 17394 bound_to 11000
  139.8778  134.9977  156.5859 LP  0  0  0  0  0  0  0  0  0  0  0  0  # atno 17395 bound_to 11000

$$$$
