AV-unprocessed.smi:69|AV-procd|sdf|658|dock9
  -GOLD-   2262016563D 1   1.00000     0.00000
 Structure written by MMmdl.
 32 34  0  0  0  0  0  0  0  0  1 V2000
  150.8060  144.2204  157.5791 N   0  0  0  0  0  0  0  0  0  0  0  0
  151.2863  142.9764  157.7130 C   0  0  0  0  0  0  0  0  0  0  0  0
  152.1304  142.7203  158.7399 N   0  0  0  0  0  0  0  0  0  0  0  0
  152.6247  141.4876  158.8941 C   0  0  0  0  0  0  0  0  0  0  0  0
  152.4039  140.4000  158.1509 N   0  0  0  0  0  0  0  0  0  0  0  0
  151.5515  140.6596  157.1164 C   0  0  0  0  0  0  0  0  0  0  0  0
  150.9529  141.9179  156.8304 C   0  0  0  0  0  0  0  0  0  0  0  0
  150.1469  141.8134  155.7050 N   0  0  0  0  0  0  0  0  0  0  0  0
  150.2662  140.5624  155.3486 C   0  0  0  0  0  0  0  0  0  0  0  0
  151.0891  139.7951  156.1446 N   0  0  0  0  0  0  0  0  0  0  0  0
  151.4199  138.3454  155.9877 C   0  0  1  0  0  0  0  0  0  0  0  0
  150.8725  137.6601  157.0713 O   0  0  0  0  0  0  0  0  0  0  0  0
  150.2955  136.4387  156.6259 C   0  0  1  0  0  0  0  0  0  0  0  0
  149.2163  135.9832  157.6199 C   0  0  0  0  0  0  0  0  0  0  0  0
  149.7185  136.0352  158.9382 O   0  0  0  0  0  0  0  0  0  0  0  0
  149.7407  136.8164  155.2512 C   0  0  2  0  0  0  0  0  0  0  0  0
  149.5144  135.6899  154.4238 O   0  0  0  0  0  0  0  0  0  0  0  0
  150.7976  137.7734  154.7016 C   0  0  2  0  0  0  0  0  0  0  0  0
  151.7720  137.1037  153.9213 O   0  0  0  0  0  0  0  0  0  0  0  0
  152.5102  138.3000  156.0121 H   0  0  0  0  0  0  0  0  0  0  0  0
  151.0797  135.6870  156.5138 H   0  0  0  0  0  0  0  0  0  0  0  0
  148.7986  137.3516  155.3702 H   0  0  0  0  0  0  0  0  0  0  0  0
  150.3494  138.5623  154.0957 H   0  0  0  0  0  0  0  0  0  0  0  0
  150.1751  144.4367  156.8207 H   0  0  0  0  0  0  0  0  0  0  0  0
  151.0778  144.9390  158.2341 H   0  0  0  0  0  0  0  0  0  0  0  0
  153.2915  141.3529  159.7328 H   0  0  0  0  0  0  0  0  0  0  0  0
  149.7500  140.1614  154.4883 H   0  0  0  0  0  0  0  0  0  0  0  0
  148.3137  136.5891  157.5307 H   0  0  0  0  0  0  0  0  0  0  0  0
  148.9332  134.9496  157.4193 H   0  0  0  0  0  0  0  0  0  0  0  0
  149.7529  136.9393  159.2112 H   0  0  0  0  0  0  0  0  0  0  0  0
  149.5000  135.9781  153.5237 H   0  0  0  0  0  0  0  0  0  0  0  0
  151.4247  136.9819  153.0507 H   0  0  0  0  0  0  0  0  0  0  0  0
  1  2  1  0  0  0  0
  1 24  1  0  0  0  0
  1 25  1  0  0  0  0
  2  7  1  0  0  0  0
  2  3  2  0  0  0  0
  3  4  1  0  0  0  0
  4  5  2  0  0  0  0
  4 26  1  0  0  0  0
  5  6  1  0  0  0  0
  6 10  1  0  0  0  0
  6  7  2  0  0  0  0
  7  8  1  0  0  0  0
  8  9  2  0  0  0  0
  9 10  1  0  0  0  0
  9 27  1  0  0  0  0
 10 11  1  0  0  0  0
 11 20  1  0  0  0  0
 11 18  1  0  0  0  0
 11 12  1  0  0  0  0
 12 13  1  0  0  0  0
 13 21  1  0  0  0  0
 13 14  1  0  0  0  0
 13 16  1  0  0  0  0
 14 15  1  0  0  0  0
 14 28  1  0  0  0  0
 14 29  1  0  0  0  0
 15 30  1  0  0  0  0
 16 22  1  0  0  0  0
 16 17  1  0  0  0  0
 16 18  1  0  0  0  0
 17 31  1  0  0  0  0
 18 23  1  0  0  0  0
 18 19  1  0  0  0  0
 19 32  1  0  0  0  0
M  END
> <s_m_source_file>
AV-unprocessed.smi

> <i_m_source_file_index>
69

> <i_lp_mmshare_version>
43012

> <i_f3d_flags>
0

> <s_epik_input>
bjFbY0hdbmMoW05IMl0pYyhjMTIpbltjSF1uMltDQEBIXTNPW0NASF0oW0NIMl1bT0hdKVtDQEBIXShbT0hdKVtDQEhdM1tPSF0=

> <s_epik_cmdline>
J2VwaWtfcHl0aG9uJywgJy1waCcsICc3LjAnLCAnLXRuJywgJzgnLCAnLW1hJywgJzIwMCcsICctbWV0YWxfYmluZGluZycsICctaW1hZScsICc8aW5maWxlLm1hZT4nLCAnLW9tYWUnLCAnPG91dGZpbGUubWFlPic=

> <r_lp_tautomer_probability>
1

> <r_epik_Ionization_Penalty>
0.000428445

> <r_epik_Ionization_Penalty_Charging>
0

> <r_epik_Ionization_Penalty_Neutral>
0.000428445

> <r_epik_State_Penalty>
-0

> <r_epik_Charging_Adjusted_Penalty>
0

> <i_epik_Tot_Q>
0

> <i_epik_Tot_abs_Q>
0

> <r_epik_Metal_State_Penalty>
-0

> <b_epik_Metal_Only>
0

> <s_epik_Chemistry_Notes>
This compound contains an acetal/aminal-like group ( X-CH(R)-Y where X, Y are N, S, or O) that may be acid/base labile, releasing an aldehyde.

> <s_lp_Force_Field>
OPLS_2005

> <r_lp_Energy>
38.6546

> <b_lp_Chiralities_Consistent>
1

> <s_lp_Variant>
AV-unprocessed.smi:69-16

> <Gold.Version>
5.8.1

> <Gold.Id.Protein>
6NUR|6NUR_protein|mol2

> <Gold.PLP.Fitness>
43.2891

> <Gold.PLP.PLP>
-27.2938

> <Gold.PLP.part.hbond>
-5.9373

> <Gold.PLP.part.metal>
0.0000

> <Gold.PLP.part.buried>
-4.6221

> <Gold.PLP.part.nonpolar>
-16.5276

> <Gold.PLP.part.repulsive>
0.1373

> <Gold.PLP.ligand.clash>
0.0000

> <Gold.PLP.ligand.torsion>
0.1739

> <Gold.PLP.Chemscore.Hbond>
5.4433

> <Gold.PLP.Chemscore.CHOScore>
0.0000

> <Gold.PLP.Chemscore.Metal>
0.0000

> <Gold.Chemscore.Hbonds>
donor molecule, donor type, donor heavy atom, donor atom, acceptor molecule, acceptor atom, score
      L1  H     1    24       P1  8028  1.00
      L1  H    17    31       P1  7948  1.00
      L1  H    19    32       P1  7949  1.00
      P1  H  6896  6908       L1    15  1.00
      P1  H 10752 10764       L1    19  1.00

> <Gold.PLP.Chemscore.Internal.Correction>
0.0131

> <Gold.Rescore>
     Score         DG    S(hbond)    S(metal)    S(lipo)     H(rot)  DE(clash)    DE(int)     intcor
     11.31     -11.64       4.10        0.00      23.59       4.03       0.02       0.30       ----

> <Gold.Chemscore.Fitness>
11.3121

> <Gold.Chemscore.DG>
-11.6354

> <Gold.Chemscore.ZeroCoef>
-5.4800

> <Gold.Chemscore.Hbond>
4.1035

> <Gold.Chemscore.Metal>
0.0000

> <Gold.Chemscore.Lipo>
23.5943

> <Gold.Chemscore.Internal_Hbond>
0.0000

> <Gold.Chemscore.DEClash>
0.0231

> <Gold.Chemscore.DEInternal>
0.3002

> <Gold.Chemscore.Rot>
4.0277

> <Gold.Chemscore.Internal.Correction>
   9.000000E+99

> <Gold.Chemscore.Hbonds>
donor molecule, donor type, donor heavy atom, donor atom, acceptor molecule, acceptor atom, score
      L1  H     1    24       P1  8028  0.88
      L1  H    17    31       P1  7948  0.40
      L1  H    19    32       P1  7949  0.83
      P1  H  6896  6908       L1    15  0.97
      P1  H 10752 10764       L1    19  0.30

> <Gold.Chemscore.Hbond.Weighted>
-13.7058

> <Gold.Chemscore.Metal.Weighted>
-0.0000

> <Gold.Chemscore.Lipo.Weighted>
-2.7605

> <Gold.Chemscore.Internal_Hbond.Weighted>
0.0000

> <Gold.Chemscore.DEClash.Weighted>
0.0231

> <Gold.Chemscore.DEInternal.Weighted>
0.3002

> <Gold.Chemscore.Rot.Weighted>
10.3110

> <Gold.Chemscore.Internal.Correction.Weighted>
   9.000000E+99

> <Gold.Protein.RotatedTorsions>
[ 6907 6896 6895 6894 ] final -172.74 input  -60.11 | X-H torsion
[ 7974 7965 7964 7962 ] final  146.08 input  175.53 | X-H torsion
[ 8008 7997 7996 7995 ] final  169.24 input   59.86 | X-H torsion
[ 10167 10162 10161 10158 ] final  -91.84 input  -65.29 | X-H torsion
[ 10718 10713 10712 10709 ] final   22.33 input   66.30 | X-H torsion
[ 10763 10752 10751 10750 ] final  -94.75 input  -60.55 | X-H torsion
[ 11005 11000 10999 10996 ] final -166.86 input  -57.11 | X-H torsion

> <Gold.Protein.ActiveResidues>
 VAL166  LYS551  ARG553  GLY616  TRP617  ASP618  TYR619  PRO620  LYS621  CYS622 
 ASP623  PHE694  ASN695  SER759  ASP760  ASP761  ALA762  ILE779  LEU786  VAL792 
 PHE793  MET794  SER795  GLU796  ALA797  LYS798  CYS799  TRP800  GLU811  SER814 

> <Gold.Protein.RotatedAtoms>
  151.5449  133.3426  159.2942 H   0  0  0  0  0  0  0  0  0  0  0  0  # atno 6907 bound_to 6896
  150.8513  134.7841  159.7022 H   0  0  0  0  0  0  0  0  0  0  0  0  # atno 6908 bound_to 6896
  152.4558  134.5302  159.9860 H   0  0  0  0  0  0  0  0  0  0  0  0  # atno 6909 bound_to 6896
  144.8700  139.5862  143.5891 H   0  0  0  0  0  0  0  0  0  0  0  0  # atno 7974 bound_to 7965
  156.1475  140.1569  156.8822 H   0  0  0  0  0  0  0  0  0  0  0  0  # atno 8008 bound_to 7997
  154.5042  140.0817  156.7897 H   0  0  0  0  0  0  0  0  0  0  0  0  # atno 8009 bound_to 7997
  155.3959  140.3412  155.4256 H   0  0  0  0  0  0  0  0  0  0  0  0  # atno 8010 bound_to 7997
  140.3409  143.2943  151.9836 H   0  0  0  0  0  0  0  0  0  0  0  0  # atno 10167 bound_to 10162
  157.1509  130.6674  149.6011 H   0  0  0  0  0  0  0  0  0  0  0  0  # atno 10718 bound_to 10713
  154.7085  135.5146  153.8630 H   0  0  0  0  0  0  0  0  0  0  0  0  # atno 10763 bound_to 10752
  153.0761  135.6616  154.0153 H   0  0  0  0  0  0  0  0  0  0  0  0  # atno 10764 bound_to 10752
  153.9999  135.3012  155.3383 H   0  0  0  0  0  0  0  0  0  0  0  0  # atno 10765 bound_to 10752
  140.5597  134.5346  157.5140 H   0  0  0  0  0  0  0  0  0  0  0  0  # atno 11005 bound_to 11000
  146.2923  139.7175  142.9152 LP  0  0  0  0  0  0  0  0  0  0  0  0  # atno 17320 bound_to 7965
  145.4149  141.0400  143.2996 LP  0  0  0  0  0  0  0  0  0  0  0  0  # atno 17321 bound_to 7965
  139.4841  144.6158  151.7349 LP  0  0  0  0  0  0  0  0  0  0  0  0  # atno 17342 bound_to 10162
  140.5310  144.0730  150.6053 LP  0  0  0  0  0  0  0  0  0  0  0  0  # atno 17343 bound_to 10162
  155.9771  130.4745  150.6570 LP  0  0  0  0  0  0  0  0  0  0  0  0  # atno 17370 bound_to 10713
  157.4221  131.0838  151.1120 LP  0  0  0  0  0  0  0  0  0  0  0  0  # atno 17371 bound_to 10713
  139.9414  134.7780  156.0670 LP  0  0  0  0  0  0  0  0  0  0  0  0  # atno 17394 bound_to 11000
  141.1122  133.6639  156.3006 LP  0  0  0  0  0  0  0  0  0  0  0  0  # atno 17395 bound_to 11000

$$$$
