AV-unprocessed.smi:3316|AV-procd|sdf|12759|dock1
  -GOLD-   2272019 93D 1   1.00000     0.00000
 Structure written by MMmdl.
 41 43  0  0  0  0  0  0  0  0  2 V2000
  150.9879  139.6836  155.5978 C   0  0  0  0  0  0  0  0  0  0  0  0
  149.8801  140.7305  155.4009 C   0  0  2  0  0  0  0  0  0  0  0  0
  149.3303  141.2283  156.7514 C   0  0  0  0  0  0  0  0  0  0  0  0
  150.0391  142.4381  157.2161 N   0  3  0  0  0  0  0  0  0  0  0  0
  149.6999  142.8408  158.5944 C   0  0  0  0  0  0  0  0  0  0  0  0
  150.3378  144.1962  158.9522 C   0  0  1  0  0  0  0  0  0  0  0  0
  150.3182  144.5195  160.4777 C   0  0  0  0  0  0  0  0  0  0  0  0
  151.7964  144.8558  160.7812 C   0  0  1  0  0  0  0  0  0  0  0  0
  152.5952  143.5776  160.6438 C   0  0  0  0  0  0  0  0  0  0  0  0
  152.6279  143.2681  159.3467 C   0  0  0  0  0  0  0  0  0  0  0  0
  151.8460  144.3363  158.6078 C   0  0  2  0  0  0  0  0  0  0  0  0
  152.1865  145.5547  159.4745 C   0  0  0  0  0  0  0  0  0  0  0  0
  148.7768  140.2048  154.4902 C   0  0  0  0  0  0  0  0  0  0  0  0
  147.8065  141.0816  153.9603 C   0  0  0  0  0  0  0  0  0  0  0  0
  146.8000  140.5516  153.1283 C   0  0  0  0  0  0  0  0  0  0  0  0
  146.7126  139.2419  152.8129 N   0  0  0  0  0  0  0  0  0  0  0  0
  147.6439  138.4067  153.3201 C   0  0  0  0  0  0  0  0  0  0  0  0
  148.6907  138.8343  154.1612 C   0  0  0  0  0  0  0  0  0  0  0  0
  151.4098  139.3758  154.6406 H   0  0  0  0  0  0  0  0  0  0  0  0
  150.6150  138.7906  156.1000 H   0  0  0  0  0  0  0  0  0  0  0  0
  151.8028  140.0841  156.2011 H   0  0  0  0  0  0  0  0  0  0  0  0
  150.3399  141.5851  154.9018 H   0  0  0  0  0  0  0  0  0  0  0  0
  148.2633  141.4420  156.6752 H   0  0  0  0  0  0  0  0  0  0  0  0
  149.4437  140.4472  157.5044 H   0  0  0  0  0  0  0  0  0  0  0  0
  151.0333  142.2661  157.1689 H   0  0  0  0  0  0  0  0  0  0  0  0
  148.6148  142.9171  158.6770 H   0  0  0  0  0  0  0  0  0  0  0  0
  150.0145  142.0636  159.2919 H   0  0  0  0  0  0  0  0  0  0  0  0
  149.7876  144.9811  158.4298 H   0  0  0  0  0  0  0  0  0  0  0  0
  149.6714  145.3736  160.6821 H   0  0  0  0  0  0  0  0  0  0  0  0
  149.9645  143.6842  161.0843 H   0  0  0  0  0  0  0  0  0  0  0  0
  151.9884  145.4206  161.6940 H   0  0  0  0  0  0  0  0  0  0  0  0
  153.0199  143.0236  161.4680 H   0  0  0  0  0  0  0  0  0  0  0  0
  153.0853  142.4059  158.8842 H   0  0  0  0  0  0  0  0  0  0  0  0
  152.0941  144.4378  157.5509 H   0  0  0  0  0  0  0  0  0  0  0  0
  151.5893  146.4412  159.2516 H   0  0  0  0  0  0  0  0  0  0  0  0
  153.2441  145.8242  159.4351 H   0  0  0  0  0  0  0  0  0  0  0  0
  147.8279  142.1389  154.1803 H   0  0  0  0  0  0  0  0  0  0  0  0
  146.0435  141.1970  152.7071 H   0  0  0  0  0  0  0  0  0  0  0  0
  147.5512  137.3652  153.0499 H   0  0  0  0  0  0  0  0  0  0  0  0
  149.4085  138.1215  154.5396 H   0  0  0  0  0  0  0  0  0  0  0  0
  149.8135  143.2009  156.5934 H   0  0  0  0  0  0  0  0  0  0  0  0
  1  2  1  0  0  0  0
  1 19  1  0  0  0  0
  1 20  1  0  0  0  0
  1 21  1  0  0  0  0
  2  3  1  0  0  0  0
  2 13  1  0  0  0  0
  2 22  1  0  0  0  0
  3  4  1  0  0  0  0
  3 23  1  0  0  0  0
  3 24  1  0  0  0  0
  4  5  1  0  0  0  0
  4 25  1  0  0  0  0
  4 41  1  0  0  0  0
  5  6  1  0  0  0  0
  5 26  1  0  0  0  0
  5 27  1  0  0  0  0
  6 11  1  0  0  0  0
  6  7  1  0  0  0  0
  6 28  1  0  0  0  0
  7  8  1  0  0  0  0
  7 29  1  0  0  0  0
  7 30  1  0  0  0  0
  8 12  1  0  0  0  0
  8  9  1  0  0  0  0
  8 31  1  0  0  0  0
  9 10  2  0  0  0  0
  9 32  1  0  0  0  0
 10 11  1  0  0  0  0
 10 33  1  0  0  0  0
 11 12  1  0  0  0  0
 11 34  1  0  0  0  0
 12 35  1  0  0  0  0
 12 36  1  0  0  0  0
 13 18  1  0  0  0  0
 13 14  2  0  0  0  0
 14 15  1  0  0  0  0
 14 37  1  0  0  0  0
 15 16  2  0  0  0  0
 15 38  1  0  0  0  0
 16 17  1  0  0  0  0
 17 18  2  0  0  0  0
 17 39  1  0  0  0  0
 18 40  1  0  0  0  0
M  CHG  1   4   1
M  END
> <s_m_source_file>
AV-unprocessed.smi

> <i_m_source_file_index>
3316

> <i_lp_mmshare_version>
43012

> <i_f3d_flags>
0

> <s_epik_input>
W2NIXTFbY0hdbltjSF1bY0hdYzFbQ0BIXShbQ0gzXSlbQ0gyXVtOSF1bQ0gyXVtDQEhdKFtDSDJdW0NASF0yMylbQ0BIXShbQ0gyXTMpW0NIXT1bQ0hdMg==

> <s_epik_cmdline>
J2VwaWtfcHl0aG9uJywgJy1waCcsICc3LjAnLCAnLXRuJywgJzgnLCAnLW1hJywgJzIwMCcsICctbWV0YWxfYmluZGluZycsICctaW1hZScsICc8aW5maWxlLm1hZT4nLCAnLW9tYWUnLCAnPG91dGZpbGUubWFlPic=

> <r_lp_tautomer_probability>
1

> <r_epik_Ionization_Penalty>
0.00280406

> <r_epik_Ionization_Penalty_Charging>
0.000446589

> <r_epik_Ionization_Penalty_Neutral>
0.00235747

> <r_epik_State_Penalty>
-0

> <r_epik_Charging_Adjusted_Penalty>
0.000446589

> <i_epik_Tot_Q>
1

> <i_epik_Tot_abs_Q>
1

> <r_epik_Metal_State_Penalty>
-0

> <b_epik_Metal_Only>
0

> <s_lp_Force_Field>
OPLS_2005

> <r_lp_Energy>
65.6453

> <b_lp_Chiralities_Consistent>
1

> <s_lp_Variant>
AV-unprocessed.smi:3316-7

> <Gold.Version>
5.8.1

> <Gold.Id.Protein>
6NUR|6NUR_protein|mol2

> <Gold.PLP.Fitness>
48.7745

> <Gold.PLP.PLP>
-39.3075

> <Gold.PLP.part.hbond>
-1.0000

> <Gold.PLP.part.metal>
0.0000

> <Gold.PLP.part.buried>
-2.2315

> <Gold.PLP.part.nonpolar>
-38.2952

> <Gold.PLP.part.repulsive>
0.3000

> <Gold.PLP.ligand.clash>
0.0000

> <Gold.PLP.ligand.torsion>
0.7916

> <Gold.PLP.Chemscore.Hbond>
2.0000

> <Gold.PLP.Chemscore.CHOScore>
1.6522

> <Gold.PLP.Chemscore.Metal>
0.0000

> <Gold.Chemscore.Hbonds>
donor molecule, donor type, donor heavy atom, donor atom, acceptor molecule, acceptor atom, score
      L1  H     4    41       P1  8028  2.00
      L1  C    15    38       P1 10175  0.62
      L1  C    17    39       P1  7948  0.91

> <Gold.PLP.Chemscore.Internal.Correction>
0.0938

> <Gold.Rescore>
     Score         DG    S(hbond)    S(metal)    S(lipo)     H(rot)  DE(clash)    DE(int)     intcor
     20.27     -21.67       0.99        0.00     139.94       1.36       0.68       0.72       ----

> <Gold.Chemscore.Fitness>
20.2688

> <Gold.Chemscore.DG>
-21.6693

> <Gold.Chemscore.ZeroCoef>
-5.4800

> <Gold.Chemscore.Hbond>
0.9903

> <Gold.Chemscore.Metal>
0.0000

> <Gold.Chemscore.Lipo>
139.9443

> <Gold.Chemscore.Internal_Hbond>
0.0000

> <Gold.Chemscore.DEClash>
0.6807

> <Gold.Chemscore.DEInternal>
0.7198

> <Gold.Chemscore.Rot>
1.3640

> <Gold.Chemscore.Internal.Correction>
   9.000000E+99

> <Gold.Chemscore.Hbonds>
donor molecule, donor type, donor heavy atom, donor atom, acceptor molecule, acceptor atom, score
      L1  H     4    41       P1  8028  0.95

> <Gold.Chemscore.Hbond.Weighted>
-3.3077

> <Gold.Chemscore.Metal.Weighted>
-0.0000

> <Gold.Chemscore.Lipo.Weighted>
-16.3735

> <Gold.Chemscore.Internal_Hbond.Weighted>
0.0000

> <Gold.Chemscore.DEClash.Weighted>
0.6807

> <Gold.Chemscore.DEInternal.Weighted>
0.7198

> <Gold.Chemscore.Rot.Weighted>
3.4919

> <Gold.Chemscore.Internal.Correction.Weighted>
   9.000000E+99

> <Gold.Protein.RotatedTorsions>
[ 6907 6896 6895 6894 ] final -174.91 input  -60.11 | X-H torsion
[ 7974 7965 7964 7962 ] final   88.52 input  175.53 | X-H torsion
[ 8008 7997 7996 7995 ] final   31.06 input   59.86 | X-H torsion
[ 10167 10162 10161 10158 ] final -115.36 input  -65.29 | X-H torsion
[ 10718 10713 10712 10709 ] final  136.03 input   66.30 | X-H torsion
[ 10763 10752 10751 10750 ] final  167.13 input  -60.55 | X-H torsion
[ 11005 11000 10999 10996 ] final   -2.01 input  -57.11 | X-H torsion

> <Gold.Protein.ActiveResidues>
 VAL166  LYS551  ARG553  GLY616  TRP617  ASP618  TYR619  PRO620  LYS621  CYS622 
 ASP623  PHE694  ASN695  SER759  ASP760  ASP761  ALA762  ILE779  LEU786  VAL792 
 PHE793  MET794  SER795  GLU796  ALA797  LYS798  CYS799  TRP800  GLU811  SER814 

> <Gold.Protein.RotatedAtoms>
  151.5801  133.3379  159.3006 H   0  0  0  0  0  0  0  0  0  0  0  0  # atno 6907 bound_to 6896
  150.8318  134.7578  159.6871 H   0  0  0  0  0  0  0  0  0  0  0  0  # atno 6908 bound_to 6896
  152.4401  134.5615  159.9947 H   0  0  0  0  0  0  0  0  0  0  0  0  # atno 6909 bound_to 6896
  145.5446  139.2291  143.2546 H   0  0  0  0  0  0  0  0  0  0  0  0  # atno 7974 bound_to 7965
  155.1003  140.3229  155.4549 H   0  0  0  0  0  0  0  0  0  0  0  0  # atno 8008 bound_to 7997
  156.2719  140.2062  156.6076 H   0  0  0  0  0  0  0  0  0  0  0  0  # atno 8009 bound_to 7997
  154.6834  140.0524  157.0277 H   0  0  0  0  0  0  0  0  0  0  0  0  # atno 8010 bound_to 7997
  140.0910  143.4700  152.1870 H   0  0  0  0  0  0  0  0  0  0  0  0  # atno 10167 bound_to 10162
  157.4509  131.1066  151.0034 H   0  0  0  0  0  0  0  0  0  0  0  0  # atno 10718 bound_to 10713
  154.3492  135.2753  155.2381 H   0  0  0  0  0  0  0  0  0  0  0  0  # atno 10763 bound_to 10752
  154.4617  135.5905  153.6264 H   0  0  0  0  0  0  0  0  0  0  0  0  # atno 10764 bound_to 10752
  152.9851  135.6066  154.3701 H   0  0  0  0  0  0  0  0  0  0  0  0  # atno 10765 bound_to 10752
  140.6536  133.9382  155.8394 H   0  0  0  0  0  0  0  0  0  0  0  0  # atno 11005 bound_to 11000
  146.1958  140.6267  142.9125 LP  0  0  0  0  0  0  0  0  0  0  0  0  # atno 17320 bound_to 7965
  144.7560  140.5307  143.6769 LP  0  0  0  0  0  0  0  0  0  0  0  0  # atno 17321 bound_to 7965
  139.5725  144.7470  151.3853 LP  0  0  0  0  0  0  0  0  0  0  0  0  # atno 17342 bound_to 10162
  140.7029  143.7588  150.7432 LP  0  0  0  0  0  0  0  0  0  0  0  0  # atno 17343 bound_to 10162
  157.0865  130.5924  149.5431 LP  0  0  0  0  0  0  0  0  0  0  0  0  # atno 17370 bound_to 10713
  155.9987  130.5061  150.7579 LP  0  0  0  0  0  0  0  0  0  0  0  0  # atno 17371 bound_to 10713
  141.0518  134.0474  157.3774 LP  0  0  0  0  0  0  0  0  0  0  0  0  # atno 17394 bound_to 11000
  139.9037  135.0173  156.7388 LP  0  0  0  0  0  0  0  0  0  0  0  0  # atno 17395 bound_to 11000

$$$$
