AV-unprocessed.smi:1244|AV-procd|sdf|5232|dock5
  -GOLD-   22720 4333D 1   1.00000     0.00000
 Structure written by MMmdl.
 56 58  0  0  0  0  0  0  0  0  3 V2000
  151.8492  144.4011  158.7559 C   0  0  0  0  0  0  0  0  0  0  0  0
  151.7055  142.9334  159.1739 C   0  0  1  0  0  0  0  0  0  0  0  0
  151.4135  142.0143  157.9731 C   0  0  0  0  0  0  0  0  0  0  0  0
  151.3578  140.5952  158.4031 N   0  3  1  0  0  0  0  0  0  0  0  0
  151.0363  139.6580  157.2981 C   0  0  0  0  0  0  0  0  0  0  0  0
  151.1095  138.1845  157.7427 C   0  0  0  0  0  0  0  0  0  0  0  0
  149.7956  137.6599  158.0980 N   0  0  0  0  0  0  0  0  0  0  0  0
  149.5231  136.9904  159.2273 C   0  0  0  0  0  0  0  0  0  0  0  0
  150.3543  136.7843  160.1116 O   0  0  0  0  0  0  0  0  0  0  0  0
  148.2493  136.5640  159.2520 N   0  0  0  0  0  0  0  0  0  0  0  0
  147.6265  135.7552  160.2444 C   0  0  0  0  0  0  0  0  0  0  0  0
  147.9012  135.9488  161.6225 C   0  0  0  0  0  0  0  0  0  0  0  0
  147.2908  135.1219  162.5842 C   0  0  0  0  0  0  0  0  0  0  0  0
  146.4102  134.1147  162.1539 C   0  0  0  0  0  0  0  0  0  0  0  0
  146.1538  133.9688  160.8374 N   0  3  0  0  0  0  0  0  0  0  0  0
  146.6983  134.7421  159.8649 C   0  0  0  0  0  0  0  0  0  0  0  0
  146.3285  134.4766  158.5269 N   0  0  0  0  0  0  0  0  0  0  0  0
  146.7881  133.2643  157.8593 C   0  0  0  0  0  0  0  0  0  0  0  0
  145.9296  133.1565  156.6018 C   0  0  0  0  0  0  0  0  0  0  0  0
  144.5872  133.7092  157.0720 C   0  0  0  0  0  0  0  0  0  0  0  0
  144.9734  134.7910  158.0865 C   0  0  0  0  0  0  0  0  0  0  0  0
  152.6035  140.2258  159.1160 C   0  0  0  0  0  0  0  0  0  0  0  0
  152.8649  141.1933  160.2866 C   0  0  1  0  0  0  0  0  0  0  0  0
  154.1874  140.8935  161.0008 C   0  0  0  0  0  0  0  0  0  0  0  0
  152.9235  142.5243  159.7861 O   0  0  0  0  0  0  0  0  0  0  0  0
  150.9385  144.7652  158.2795 H   0  0  0  0  0  0  0  0  0  0  0  0
  152.6710  144.5329  158.0514 H   0  0  0  0  0  0  0  0  0  0  0  0
  152.0472  145.0351  159.6205 H   0  0  0  0  0  0  0  0  0  0  0  0
  150.8943  142.8579  159.9005 H   0  0  0  0  0  0  0  0  0  0  0  0
  150.4701  142.3104  157.5157 H   0  0  0  0  0  0  0  0  0  0  0  0
  152.1876  142.1340  157.2129 H   0  0  0  0  0  0  0  0  0  0  0  0
  150.0543  139.9004  156.8892 H   0  0  0  0  0  0  0  0  0  0  0  0
  151.7508  139.8015  156.4861 H   0  0  0  0  0  0  0  0  0  0  0  0
  151.5106  137.5738  156.9334 H   0  0  0  0  0  0  0  0  0  0  0  0
  151.7834  138.0544  158.5899 H   0  0  0  0  0  0  0  0  0  0  0  0
  149.0548  137.7870  157.4237 H   0  0  0  0  0  0  0  0  0  0  0  0
  147.7093  136.7217  158.4139 H   0  0  0  0  0  0  0  0  0  0  0  0
  148.5723  136.7258  161.9570 H   0  0  0  0  0  0  0  0  0  0  0  0
  147.4982  135.2574  163.6356 H   0  0  0  0  0  0  0  0  0  0  0  0
  145.9006  133.4307  162.8171 H   0  0  0  0  0  0  0  0  0  0  0  0
  147.8509  133.3193  157.6208 H   0  0  0  0  0  0  0  0  0  0  0  0
  146.6205  132.3922  158.4929 H   0  0  0  0  0  0  0  0  0  0  0  0
  146.3384  133.7910  155.8143 H   0  0  0  0  0  0  0  0  0  0  0  0
  145.8632  132.1380  156.2182 H   0  0  0  0  0  0  0  0  0  0  0  0
  143.9752  134.0935  156.2556 H   0  0  0  0  0  0  0  0  0  0  0  0
  144.0229  132.9209  157.5725 H   0  0  0  0  0  0  0  0  0  0  0  0
  144.2678  134.8254  158.9177 H   0  0  0  0  0  0  0  0  0  0  0  0
  144.9795  135.7682  157.6031 H   0  0  0  0  0  0  0  0  0  0  0  0
  152.5218  139.2061  159.4951 H   0  0  0  0  0  0  0  0  0  0  0  0
  153.4416  140.2422  158.4168 H   0  0  0  0  0  0  0  0  0  0  0  0
  152.0541  141.1193  161.0136 H   0  0  0  0  0  0  0  0  0  0  0  0
  154.1880  139.8874  161.4208 H   0  0  0  0  0  0  0  0  0  0  0  0
  154.3559  141.5944  161.8188 H   0  0  0  0  0  0  0  0  0  0  0  0
  155.0331  140.9711  160.3170 H   0  0  0  0  0  0  0  0  0  0  0  0
  150.6113  140.5167  159.0792 H   0  0  0  0  0  0  0  0  0  0  0  0
  145.5034  133.2342  160.5576 H   0  0  0  0  0  0  0  0  0  0  0  0
  1  2  1  0  0  0  0
  1 26  1  0  0  0  0
  1 27  1  0  0  0  0
  1 28  1  0  0  0  0
  2 25  1  0  0  0  0
  2  3  1  0  0  0  0
  2 29  1  0  0  0  0
  3  4  1  0  0  0  0
  3 30  1  0  0  0  0
  3 31  1  0  0  0  0
  4  5  1  0  0  0  0
  4 22  1  0  0  0  0
  4 55  1  0  0  0  0
  5  6  1  0  0  0  0
  5 32  1  0  0  0  0
  5 33  1  0  0  0  0
  6  7  1  0  0  0  0
  6 34  1  0  0  0  0
  6 35  1  0  0  0  0
  7  8  1  0  0  0  0
  7 36  1  0  0  0  0
  8  9  2  0  0  0  0
  8 10  1  0  0  0  0
 10 11  1  0  0  0  0
 10 37  1  0  0  0  0
 11 16  1  0  0  0  0
 11 12  2  0  0  0  0
 12 13  1  0  0  0  0
 12 38  1  0  0  0  0
 13 14  2  0  0  0  0
 13 39  1  0  0  0  0
 14 15  1  0  0  0  0
 14 40  1  0  0  0  0
 15 16  2  0  0  0  0
 15 56  1  0  0  0  0
 16 17  1  0  0  0  0
 17 21  1  0  0  0  0
 17 18  1  0  0  0  0
 18 19  1  0  0  0  0
 18 41  1  0  0  0  0
 18 42  1  0  0  0  0
 19 20  1  0  0  0  0
 19 43  1  0  0  0  0
 19 44  1  0  0  0  0
 20 21  1  0  0  0  0
 20 45  1  0  0  0  0
 20 46  1  0  0  0  0
 21 47  1  0  0  0  0
 21 48  1  0  0  0  0
 22 23  1  0  0  0  0
 22 49  1  0  0  0  0
 22 50  1  0  0  0  0
 23 24  1  0  0  0  0
 23 25  1  0  0  0  0
 23 51  1  0  0  0  0
 24 52  1  0  0  0  0
 24 53  1  0  0  0  0
 24 54  1  0  0  0  0
M  CHG  1   4   1
M  CHG  1  15   1
M  END
> <s_m_source_file>
AV-unprocessed.smi

> <i_m_source_file_index>
1244

> <i_lp_mmshare_version>
43012

> <i_f3d_flags>
0

> <s_epik_input>
W0NIM11bQ0BASF0xW0NIMl1OKFtDSDJdW0NASF0oTzEpW0NIM10pW0NIMl1bQ0gyXVtOSF1DKD1PKVtOSF1jMltjSF1bY0hdW2NIXW5jMk4zW0NIMl1bQ0gyXVtDSDJdW0NIMl0z

> <s_epik_cmdline>
J2VwaWtfcHl0aG9uJywgJy1waCcsICc3LjAnLCAnLXRuJywgJzgnLCAnLW1hJywgJzIwMCcsICctbWV0YWxfYmluZGluZycsICctaW1hZScsICc8aW5maWxlLm1hZT4nLCAnLW9tYWUnLCAnPG91dGZpbGUubWFlPic=

> <r_lp_tautomer_probability>
0.999994

> <r_epik_Ionization_Penalty>
1.81601

> <r_epik_Ionization_Penalty_Charging>
1.81599

> <r_epik_Ionization_Penalty_Neutral>
2.01972e-05

> <r_epik_State_Penalty>
1.85672

> <r_epik_Charging_Adjusted_Penalty>
3.6727

> <i_epik_Tot_Q>
2

> <i_epik_Tot_abs_Q>
2

> <r_epik_Metal_State_Penalty>
1.93796

> <b_epik_Metal_Only>
0

> <s_lp_Force_Field>
OPLS_2005

> <r_lp_Energy>
51.4993

> <b_lp_Chiralities_Consistent>
1

> <s_lp_Variant>
AV-unprocessed.smi:1244-12

> <Gold.Version>
5.8.1

> <Gold.Id.Protein>
6NUR|6NUR_protein|mol2

> <Gold.PLP.Fitness>
40.1997

> <Gold.PLP.PLP>
-38.4990

> <Gold.PLP.part.hbond>
-1.8963

> <Gold.PLP.part.metal>
0.0000

> <Gold.PLP.part.buried>
-5.4159

> <Gold.PLP.part.nonpolar>
-32.6507

> <Gold.PLP.part.repulsive>
0.3839

> <Gold.PLP.ligand.clash>
0.0000

> <Gold.PLP.ligand.torsion>
0.8453

> <Gold.PLP.Chemscore.Hbond>
0.9913

> <Gold.PLP.Chemscore.CHOScore>
0.0000

> <Gold.PLP.Chemscore.Metal>
0.0000

> <Gold.Chemscore.Hbonds>
donor molecule, donor type, donor heavy atom, donor atom, acceptor molecule, acceptor atom, score
      P1  H  6896  6909       L1     9  1.00

> <Gold.PLP.Chemscore.Internal.Correction>
0.4175

> <Gold.Rescore>
     Score         DG    S(hbond)    S(metal)    S(lipo)     H(rot)  DE(clash)    DE(int)     intcor
     14.41     -16.25       0.94        0.00     100.90       1.63       0.02       1.82       ----

> <Gold.Chemscore.Fitness>
14.4121

> <Gold.Chemscore.DG>
-16.2506

> <Gold.Chemscore.ZeroCoef>
-5.4800

> <Gold.Chemscore.Hbond>
0.9391

> <Gold.Chemscore.Metal>
0.0000

> <Gold.Chemscore.Lipo>
100.8956

> <Gold.Chemscore.Internal_Hbond>
0.0000

> <Gold.Chemscore.DEClash>
0.0163

> <Gold.Chemscore.DEInternal>
1.8222

> <Gold.Chemscore.Rot>
1.6293

> <Gold.Chemscore.Internal.Correction>
   9.000000E+99

> <Gold.Chemscore.Hbonds>
donor molecule, donor type, donor heavy atom, donor atom, acceptor molecule, acceptor atom, score
      P1  H  6896  6909       L1     9  0.49

> <Gold.Chemscore.Hbond.Weighted>
-3.1367

> <Gold.Chemscore.Metal.Weighted>
-0.0000

> <Gold.Chemscore.Lipo.Weighted>
-11.8048

> <Gold.Chemscore.Internal_Hbond.Weighted>
0.0000

> <Gold.Chemscore.DEClash.Weighted>
0.0163

> <Gold.Chemscore.DEInternal.Weighted>
1.8222

> <Gold.Chemscore.Rot.Weighted>
4.1709

> <Gold.Chemscore.Internal.Correction.Weighted>
   9.000000E+99

> <Gold.Protein.RotatedTorsions>
[ 6907 6896 6895 6894 ] final   81.76 input  -60.11 | X-H torsion
[ 7974 7965 7964 7962 ] final  156.75 input  175.53 | X-H torsion
[ 8008 7997 7996 7995 ] final   61.13 input   59.86 | X-H torsion
[ 10167 10162 10161 10158 ] final  160.50 input  -65.29 | X-H torsion
[ 10718 10713 10712 10709 ] final   -6.64 input   66.30 | X-H torsion
[ 10763 10752 10751 10750 ] final    2.08 input  -60.55 | X-H torsion
[ 11005 11000 10999 10996 ] final   24.79 input  -57.11 | X-H torsion

> <Gold.Protein.ActiveResidues>
 VAL166  LYS551  ARG553  GLY616  TRP617  ASP618  TYR619  PRO620  LYS621  CYS622 
 ASP623  PHE694  ASN695  SER759  ASP760  ASP761  ALA762  ILE779  LEU786  VAL792 
 PHE793  MET794  SER795  GLU796  ALA797  LYS798  CYS799  TRP800  GLU811  SER814 

> <Gold.Protein.RotatedAtoms>
  152.5278  134.3155  159.9128 H   0  0  0  0  0  0  0  0  0  0  0  0  # atno 6907 bound_to 6896
  151.3104  133.4076  159.2654 H   0  0  0  0  0  0  0  0  0  0  0  0  # atno 6908 bound_to 6896
  151.0043  134.9364  159.8029 H   0  0  0  0  0  0  0  0  0  0  0  0  # atno 6909 bound_to 6896
  144.7944  139.7246  143.6208 H   0  0  0  0  0  0  0  0  0  0  0  0  # atno 7974 bound_to 7965
  155.5933  140.3493  155.4573 H   0  0  0  0  0  0  0  0  0  0  0  0  # atno 8008 bound_to 7997
  156.0284  140.1269  157.0309 H   0  0  0  0  0  0  0  0  0  0  0  0  # atno 8009 bound_to 7997
  154.4342  140.1048  156.6050 H   0  0  0  0  0  0  0  0  0  0  0  0  # atno 8010 bound_to 7997
  139.4840  144.4628  151.8682 H   0  0  0  0  0  0  0  0  0  0  0  0  # atno 10167 bound_to 10162
  156.7289  130.5174  149.5850 H   0  0  0  0  0  0  0  0  0  0  0  0  # atno 10718 bound_to 10713
  153.3000  135.6955  153.7212 H   0  0  0  0  0  0  0  0  0  0  0  0  # atno 10763 bound_to 10752
  153.6130  135.3441  155.2986 H   0  0  0  0  0  0  0  0  0  0  0  0  # atno 10764 bound_to 10752
  154.8548  135.4368  154.2108 H   0  0  0  0  0  0  0  0  0  0  0  0  # atno 10765 bound_to 10752
  140.3549  134.2189  155.7677 H   0  0  0  0  0  0  0  0  0  0  0  0  # atno 11005 bound_to 11000
  146.2208  139.5632  142.9620 LP  0  0  0  0  0  0  0  0  0  0  0  0  # atno 17320 bound_to 7965
  145.5710  141.0394  143.2174 LP  0  0  0  0  0  0  0  0  0  0  0  0  # atno 17321 bound_to 7965
  140.4091  144.2392  150.5889 LP  0  0  0  0  0  0  0  0  0  0  0  0  # atno 17342 bound_to 10162
  140.4983  143.2325  151.8716 LP  0  0  0  0  0  0  0  0  0  0  0  0  # atno 17343 bound_to 10162
  156.1543  130.6331  151.0636 LP  0  0  0  0  0  0  0  0  0  0  0  0  # atno 17370 bound_to 10713
  157.6867  131.0822  150.7223 LP  0  0  0  0  0  0  0  0  0  0  0  0  # atno 17371 bound_to 10713
  141.2001  133.7995  157.0503 LP  0  0  0  0  0  0  0  0  0  0  0  0  # atno 17394 bound_to 11000
  140.0673  134.9722  157.1408 LP  0  0  0  0  0  0  0  0  0  0  0  0  # atno 17395 bound_to 11000

$$$$
