AV-unprocessed.smi:1301|AV-procd|sdf|5424|dock3
  -GOLD-   22720 4583D 1   1.00000     0.00000
 Structure written by MMmdl.
 44 45  0  0  0  0  0  0  0  0  3 V2000
  147.6829  134.7175  162.0355 C   0  0  0  0  0  0  0  0  0  0  0  0
  147.6861  135.7662  160.9768 C   0  0  0  0  0  0  0  0  0  0  0  0
  148.4929  135.9943  159.8983 C   0  0  0  0  0  0  0  0  0  0  0  0
  147.9280  137.1594  159.3115 C   0  0  0  0  0  0  0  0  0  0  0  0
  148.3795  137.7925  158.2179 N   0  5  0  0  0  0  0  0  0  0  0  0
  147.8350  138.9715  157.8409 C   0  0  0  0  0  0  0  0  0  0  0  0
  146.7652  139.4441  158.2318 O   0  0  0  0  0  0  0  0  0  0  0  0
  148.5845  139.6490  156.9600 N   0  0  0  0  0  0  0  0  0  0  0  0
  148.2825  140.9635  156.3942 C   0  0  2  0  0  0  0  0  0  0  0  0
  149.3977  141.3923  155.4259 C   0  0  0  0  0  0  0  0  0  0  0  0
  150.7075  141.7181  156.1677 C   0  0  0  0  0  0  0  0  0  0  0  0
  150.4964  142.7519  157.2140 N   0  3  2  0  0  0  0  0  0  0  0  0
  151.7707  143.1721  157.8523 C   0  0  0  0  0  0  0  0  0  0  0  0
  151.5672  143.8619  159.2193 C   0  0  0  0  0  0  0  0  0  0  0  0
  151.8853  145.3654  159.1569 C   0  0  0  0  0  0  0  0  0  0  0  0
  152.4184  143.1792  160.3004 C   0  0  0  0  0  0  0  0  0  0  0  0
  149.4574  142.3359  158.1935 C   0  0  0  0  0  0  0  0  0  0  0  0
  148.1224  142.0345  157.4909 C   0  0  0  0  0  0  0  0  0  0  0  0
  146.8813  137.6081  159.9838 N   0  0  0  0  0  0  0  0  0  0  0  0
  146.7161  136.7168  161.0504 O   0  0  0  0  0  0  0  0  0  0  0  0
  148.4190  134.9467  162.8059 H   0  0  0  0  0  0  0  0  0  0  0  0
  147.9254  133.7419  161.6140 H   0  0  0  0  0  0  0  0  0  0  0  0
  146.7051  134.6448  162.5121 H   0  0  0  0  0  0  0  0  0  0  0  0
  149.3475  135.4179  159.5771 H   0  0  0  0  0  0  0  0  0  0  0  0
  149.4451  139.2120  156.6643 H   0  0  0  0  0  0  0  0  0  0  0  0
  147.3504  140.8838  155.8320 H   0  0  0  0  0  0  0  0  0  0  0  0
  149.5722  140.6142  154.6816 H   0  0  0  0  0  0  0  0  0  0  0  0
  149.0725  142.2738  154.8717 H   0  0  0  0  0  0  0  0  0  0  0  0
  151.1222  140.8174  156.6232 H   0  0  0  0  0  0  0  0  0  0  0  0
  151.4435  142.0722  155.4448 H   0  0  0  0  0  0  0  0  0  0  0  0
  152.4236  142.3033  157.9515 H   0  0  0  0  0  0  0  0  0  0  0  0
  152.2947  143.8688  157.1961 H   0  0  0  0  0  0  0  0  0  0  0  0
  150.5278  143.7523  159.5265 H   0  0  0  0  0  0  0  0  0  0  0  0
  152.9175  145.5406  158.8524 H   0  0  0  0  0  0  0  0  0  0  0  0
  151.7427  145.8363  160.1300 H   0  0  0  0  0  0  0  0  0  0  0  0
  151.2364  145.8827  158.4499 H   0  0  0  0  0  0  0  0  0  0  0  0
  153.4829  143.2550  160.0759 H   0  0  0  0  0  0  0  0  0  0  0  0
  152.1708  142.1207  160.3862 H   0  0  0  0  0  0  0  0  0  0  0  0
  152.2523  143.6337  161.2775 H   0  0  0  0  0  0  0  0  0  0  0  0
  149.8015  141.4585  158.7434 H   0  0  0  0  0  0  0  0  0  0  0  0
  149.2930  143.1205  158.9305 H   0  0  0  0  0  0  0  0  0  0  0  0
  147.7400  142.9522  157.0421 H   0  0  0  0  0  0  0  0  0  0  0  0
  147.3767  141.7282  158.2252 H   0  0  0  0  0  0  0  0  0  0  0  0
  150.1382  143.5647  156.7336 H   0  0  0  0  0  0  0  0  0  0  0  0
  1  2  1  0  0  0  0
  1 21  1  0  0  0  0
  1 22  1  0  0  0  0
  1 23  1  0  0  0  0
  2 20  1  0  0  0  0
  2  3  2  0  0  0  0
  3  4  1  0  0  0  0
  3 24  1  0  0  0  0
  4  5  1  0  0  0  0
  4 19  2  0  0  0  0
  5  6  1  0  0  0  0
  6  7  2  0  0  0  0
  6  8  1  0  0  0  0
  8  9  1  0  0  0  0
  8 25  1  0  0  0  0
  9 18  1  0  0  0  0
  9 10  1  0  0  0  0
  9 26  1  0  0  0  0
 10 11  1  0  0  0  0
 10 27  1  0  0  0  0
 10 28  1  0  0  0  0
 11 12  1  0  0  0  0
 11 29  1  0  0  0  0
 11 30  1  0  0  0  0
 12 13  1  0  0  0  0
 12 17  1  0  0  0  0
 12 44  1  0  0  0  0
 13 14  1  0  0  0  0
 13 31  1  0  0  0  0
 13 32  1  0  0  0  0
 14 15  1  0  0  0  0
 14 16  1  0  0  0  0
 14 33  1  0  0  0  0
 15 34  1  0  0  0  0
 15 35  1  0  0  0  0
 15 36  1  0  0  0  0
 16 37  1  0  0  0  0
 16 38  1  0  0  0  0
 16 39  1  0  0  0  0
 17 18  1  0  0  0  0
 17 40  1  0  0  0  0
 17 41  1  0  0  0  0
 18 42  1  0  0  0  0
 18 43  1  0  0  0  0
 19 20  1  0  0  0  0
M  CHG  1   5  -1
M  CHG  1  12   1
M  END
> <s_m_source_file>
AV-unprocessed.smi

> <i_m_source_file_index>
1301

> <i_lp_mmshare_version>
43012

> <i_f3d_flags>
0

> <s_epik_input>
W0NIM11jMVtjSF1jKG5vMSlbTkhdQyg9TylbTkhdW0NIXTJbQ0gyXVtDSDJdTihbQ0gyXVtDSDJdMilbQ0gyXVtDSF0oW0NIM10pW0NIM10=

> <s_epik_cmdline>
J2VwaWtfcHl0aG9uJywgJy1waCcsICc3LjAnLCAnLXRuJywgJzgnLCAnLW1hJywgJzIwMCcsICctbWV0YWxfYmluZGluZycsICctaW1hZScsICc8aW5maWxlLm1hZT4nLCAnLW9tYWUnLCAnPG91dGZpbGUubWFlPic=

> <r_epik_Ionization_Penalty>
6.28597

> <r_epik_Ionization_Penalty_Charging>
6.28587

> <r_epik_Ionization_Penalty_Neutral>
9.69304e-05

> <r_epik_State_Penalty>
6.28524

> <r_epik_Charging_Adjusted_Penalty>
12.5711

> <i_epik_Tot_Q>
0

> <i_epik_Tot_abs_Q>
2

> <r_epik_Metal_State_Penalty>
2.21973

> <b_epik_Metal_Only>
1

> <s_lp_Force_Field>
OPLS_2005

> <r_lp_Energy>
6.70583

> <b_lp_Chiralities_Consistent>
1

> <s_lp_Variant>
AV-unprocessed.smi:1301-4

> <Gold.Version>
5.8.1

> <Gold.Id.Protein>
6NUR|6NUR_protein|mol2

> <Gold.PLP.Fitness>
42.4152

> <Gold.PLP.PLP>
-35.2287

> <Gold.PLP.part.hbond>
-3.0000

> <Gold.PLP.part.metal>
0.0000

> <Gold.PLP.part.buried>
-5.8470

> <Gold.PLP.part.nonpolar>
-27.7481

> <Gold.PLP.part.repulsive>
0.0566

> <Gold.PLP.ligand.clash>
0.0000

> <Gold.PLP.ligand.torsion>
1.0205

> <Gold.PLP.Chemscore.Hbond>
3.0000

> <Gold.PLP.Chemscore.CHOScore>
0.0000

> <Gold.PLP.Chemscore.Metal>
0.0000

> <Gold.Chemscore.Hbonds>
donor molecule, donor type, donor heavy atom, donor atom, acceptor molecule, acceptor atom, score
      L1  H    12    44       P1  8028  2.00
      P1  H  6934  6947       L1    19  0.90

> <Gold.PLP.Chemscore.Internal.Correction>
0.2275

> <Gold.Rescore>
     Score         DG    S(hbond)    S(metal)    S(lipo)     H(rot)  DE(clash)    DE(int)     intcor
     13.49     -16.26       1.02        0.00      93.80       1.41       0.12       2.65       ----

> <Gold.Chemscore.Fitness>
13.4898

> <Gold.Chemscore.DG>
-16.2620

> <Gold.Chemscore.ZeroCoef>
-5.4800

> <Gold.Chemscore.Hbond>
1.0202

> <Gold.Chemscore.Metal>
0.0000

> <Gold.Chemscore.Lipo>
93.8023

> <Gold.Chemscore.Internal_Hbond>
0.0000

> <Gold.Chemscore.DEClash>
0.1249

> <Gold.Chemscore.DEInternal>
2.6473

> <Gold.Chemscore.Rot>
1.4063

> <Gold.Chemscore.Internal.Correction>
   9.000000E+99

> <Gold.Chemscore.Hbonds>
donor molecule, donor type, donor heavy atom, donor atom, acceptor molecule, acceptor atom, score
      L1  H    12    44       P1  8028  0.96
      P1  H  6934  6947       L1    19  0.16

> <Gold.Chemscore.Hbond.Weighted>
-3.4074

> <Gold.Chemscore.Metal.Weighted>
-0.0000

> <Gold.Chemscore.Lipo.Weighted>
-10.9749

> <Gold.Chemscore.Internal_Hbond.Weighted>
0.0000

> <Gold.Chemscore.DEClash.Weighted>
0.1249

> <Gold.Chemscore.DEInternal.Weighted>
2.6473

> <Gold.Chemscore.Rot.Weighted>
3.6002

> <Gold.Chemscore.Internal.Correction.Weighted>
   9.000000E+99

> <Gold.Protein.RotatedTorsions>
[ 6907 6896 6895 6894 ] final   32.00 input  -60.11 | X-H torsion
[ 7974 7965 7964 7962 ] final  -39.09 input  175.53 | X-H torsion
[ 8008 7997 7996 7995 ] final  107.21 input   59.86 | X-H torsion
[ 10167 10162 10161 10158 ] final -102.27 input  -65.29 | X-H torsion
[ 10718 10713 10712 10709 ] final   90.06 input   66.30 | X-H torsion
[ 10763 10752 10751 10750 ] final  170.83 input  -60.55 | X-H torsion
[ 11005 11000 10999 10996 ] final  -86.56 input  -57.11 | X-H torsion

> <Gold.Protein.ActiveResidues>
 VAL166  LYS551  ARG553  GLY616  TRP617  ASP618  TYR619  PRO620  LYS621  CYS622 
 ASP623  PHE694  ASN695  SER759  ASP760  ASP761  ALA762  ILE779  LEU786  VAL792 
 PHE793  MET794  SER795  GLU796  ALA797  LYS798  CYS799  TRP800  GLU811  SER814 

> <Gold.Protein.RotatedAtoms>
  152.0682  134.9550  160.0574 H   0  0  0  0  0  0  0  0  0  0  0  0  # atno 6907 bound_to 6896
  152.0886  133.4184  159.4542 H   0  0  0  0  0  0  0  0  0  0  0  0  # atno 6908 bound_to 6896
  150.6836  134.2817  159.4673 H   0  0  0  0  0  0  0  0  0  0  0  0  # atno 6909 bound_to 6896
  146.0427  140.6587  142.9079 H   0  0  0  0  0  0  0  0  0  0  0  0  # atno 7974 bound_to 7965
  156.1806  140.3099  155.9141 H   0  0  0  0  0  0  0  0  0  0  0  0  # atno 8008 bound_to 7997
  155.3392  140.0465  157.3061 H   0  0  0  0  0  0  0  0  0  0  0  0  # atno 8009 bound_to 7997
  154.5338  140.2239  155.8767 H   0  0  0  0  0  0  0  0  0  0  0  0  # atno 8010 bound_to 7997
  140.2324  143.3597  152.0874 H   0  0  0  0  0  0  0  0  0  0  0  0  # atno 10167 bound_to 10162
  157.6958  131.0357  150.3521 H   0  0  0  0  0  0  0  0  0  0  0  0  # atno 10718 bound_to 10713
  154.4032  135.2755  155.2083 H   0  0  0  0  0  0  0  0  0  0  0  0  # atno 10763 bound_to 10752
  154.4100  135.6024  153.5951 H   0  0  0  0  0  0  0  0  0  0  0  0  # atno 10764 bound_to 10752
  152.9831  135.5947  154.4303 H   0  0  0  0  0  0  0  0  0  0  0  0  # atno 10765 bound_to 10752
  141.1628  133.7461  156.9179 H   0  0  0  0  0  0  0  0  0  0  0  0  # atno 11005 bound_to 11000
  144.7083  140.3938  143.7101 LP  0  0  0  0  0  0  0  0  0  0  0  0  # atno 17320 bound_to 7965
  145.6857  139.1628  143.2675 LP  0  0  0  0  0  0  0  0  0  0  0  0  # atno 17321 bound_to 7965
  139.5105  144.6885  151.5822 LP  0  0  0  0  0  0  0  0  0  0  0  0  # atno 17342 bound_to 10162
  140.6175  143.9321  150.6500 LP  0  0  0  0  0  0  0  0  0  0  0  0  # atno 17343 bound_to 10162
  156.3968  130.3908  149.6989 LP  0  0  0  0  0  0  0  0  0  0  0  0  # atno 17370 bound_to 10713
  156.4320  130.7819  151.2839 LP  0  0  0  0  0  0  0  0  0  0  0  0  # atno 17371 bound_to 10713
  140.1472  134.9254  157.2545 LP  0  0  0  0  0  0  0  0  0  0  0  0  # atno 17394 bound_to 11000
  140.2766  134.3398  155.7356 LP  0  0  0  0  0  0  0  0  0  0  0  0  # atno 17395 bound_to 11000

$$$$
