AV-unprocessed.smi:1566|AV-procd|sdf|6303|dock1
  -GOLD-   22720 6503D 1   1.00000     0.00000
 Structure written by MMmdl.
 42 43  0  0  0  0  0  0  0  0  1 V2000
  145.8658  137.3383  151.8754 C   0  0  0  0  0  0  0  0  0  0  0  0
  146.5459  138.7094  151.7650 C   0  0  0  0  0  0  0  0  0  0  0  0
  147.7877  138.7561  152.5282 N   0  0  0  0  0  0  0  0  0  0  0  0
  148.0681  139.6474  153.4896 C   0  0  0  0  0  0  0  0  0  0  0  0
  147.2954  140.5420  153.8330 O   0  0  0  0  0  0  0  0  0  0  0  0
  149.2943  139.4409  154.0000 N   0  0  0  0  0  0  0  0  0  0  0  0
  149.9511  140.1582  155.0357 C   0  0  0  0  0  0  0  0  0  0  0  0
  151.1470  139.6264  155.5547 C   0  0  0  0  0  0  0  0  0  0  0  0
  151.8110  140.3080  156.5920 C   0  0  0  0  0  0  0  0  0  0  0  0
  151.2553  141.5074  157.0958 C   0  0  0  0  0  0  0  0  0  0  0  0
  151.9057  142.2098  158.1335 N   0  0  0  0  0  0  0  0  0  0  0  0
  151.3185  143.5001  158.4847 C   0  0  0  0  0  0  0  0  0  0  0  0
  152.2773  144.3003  159.3868 C   0  0  1  0  0  0  0  0  0  0  0  0
  151.6474  145.6080  159.8777 C   0  0  0  0  0  0  0  0  0  0  0  0
  152.6192  143.5135  160.5249 O   0  0  0  0  0  0  0  0  0  0  0  0
  153.2916  142.3080  160.1710 C   0  0  1  0  0  0  0  0  0  0  0  0
  153.6957  141.5851  161.4601 C   0  0  0  0  0  0  0  0  0  0  0  0
  152.3606  141.4491  159.2952 C   0  0  0  0  0  0  0  0  0  0  0  0
  150.0913  142.0060  156.6118 N   0  0  0  0  0  0  0  0  0  0  0  0
  149.4594  141.3521  155.6141 C   0  0  0  0  0  0  0  0  0  0  0  0
  144.9577  137.3077  151.2734 H   0  0  0  0  0  0  0  0  0  0  0  0
  145.5863  137.1149  152.9055 H   0  0  0  0  0  0  0  0  0  0  0  0
  146.5236  136.5421  151.5256 H   0  0  0  0  0  0  0  0  0  0  0  0
  146.7802  138.9202  150.7214 H   0  0  0  0  0  0  0  0  0  0  0  0
  145.8677  139.4976  152.0965 H   0  0  0  0  0  0  0  0  0  0  0  0
  148.4839  138.0593  152.3069 H   0  0  0  0  0  0  0  0  0  0  0  0
  149.8439  138.7195  153.5570 H   0  0  0  0  0  0  0  0  0  0  0  0
  151.5566  138.7068  155.1631 H   0  0  0  0  0  0  0  0  0  0  0  0
  152.7243  139.8977  156.9960 H   0  0  0  0  0  0  0  0  0  0  0  0
  151.0885  144.0907  157.5991 H   0  0  0  0  0  0  0  0  0  0  0  0
  150.3744  143.3243  159.0022 H   0  0  0  0  0  0  0  0  0  0  0  0
  153.1863  144.5412  158.8324 H   0  0  0  0  0  0  0  0  0  0  0  0
  151.3743  146.2504  159.0402 H   0  0  0  0  0  0  0  0  0  0  0  0
  152.3431  146.1622  160.5084 H   0  0  0  0  0  0  0  0  0  0  0  0
  150.7467  145.4177  160.4619 H   0  0  0  0  0  0  0  0  0  0  0  0
  154.1971  142.5541  159.6134 H   0  0  0  0  0  0  0  0  0  0  0  0
  154.2268  140.6585  161.2399 H   0  0  0  0  0  0  0  0  0  0  0  0
  152.8220  141.3354  162.0629 H   0  0  0  0  0  0  0  0  0  0  0  0
  154.3525  142.2083  162.0672 H   0  0  0  0  0  0  0  0  0  0  0  0
  151.4940  141.1244  159.8730 H   0  0  0  0  0  0  0  0  0  0  0  0
  152.8926  140.5532  158.9723 H   0  0  0  0  0  0  0  0  0  0  0  0
  148.5292  141.7994  155.3008 H   0  0  0  0  0  0  0  0  0  0  0  0
  1  2  1  0  0  0  0
  1 21  1  0  0  0  0
  1 22  1  0  0  0  0
  1 23  1  0  0  0  0
  2  3  1  0  0  0  0
  2 24  1  0  0  0  0
  2 25  1  0  0  0  0
  3  4  1  0  0  0  0
  3 26  1  0  0  0  0
  4  5  2  0  0  0  0
  4  6  1  0  0  0  0
  6  7  1  0  0  0  0
  6 27  1  0  0  0  0
  7 20  1  0  0  0  0
  7  8  2  0  0  0  0
  8  9  1  0  0  0  0
  8 28  1  0  0  0  0
  9 10  2  0  0  0  0
  9 29  1  0  0  0  0
 10 11  1  0  0  0  0
 10 19  1  0  0  0  0
 11 18  1  0  0  0  0
 11 12  1  0  0  0  0
 12 13  1  0  0  0  0
 12 30  1  0  0  0  0
 12 31  1  0  0  0  0
 13 14  1  0  0  0  0
 13 15  1  0  0  0  0
 13 32  1  0  0  0  0
 14 33  1  0  0  0  0
 14 34  1  0  0  0  0
 14 35  1  0  0  0  0
 15 16  1  0  0  0  0
 16 17  1  0  0  0  0
 16 18  1  0  0  0  0
 16 36  1  0  0  0  0
 17 37  1  0  0  0  0
 17 38  1  0  0  0  0
 17 39  1  0  0  0  0
 18 40  1  0  0  0  0
 18 41  1  0  0  0  0
 19 20  2  0  0  0  0
 20 42  1  0  0  0  0
M  END
> <s_m_source_file>
AV-unprocessed.smi

> <i_m_source_file_index>
1566

> <i_lp_mmshare_version>
43012

> <i_f3d_flags>
0

> <s_epik_input>
W0NIM11bQ0gyXVtOSF1DKD1PKVtOSF1jMVtjSF1bY0hdYyhuW2NIXTEpTjJbQ0gyXVtDQEBIXShbQ0gzXSlPW0NAQEhdKFtDSDNdKVtDSDJdMg==

> <s_epik_cmdline>
J2VwaWtfcHl0aG9uJywgJy1waCcsICc3LjAnLCAnLXRuJywgJzgnLCAnLW1hJywgJzIwMCcsICctbWV0YWxfYmluZGluZycsICctaW1hZScsICc8aW5maWxlLm1hZT4nLCAnLW9tYWUnLCAnPG91dGZpbGUubWFlPic=

> <r_lp_tautomer_probability>
1

> <r_epik_Ionization_Penalty>
0.0027066

> <r_epik_Ionization_Penalty_Charging>
0

> <r_epik_Ionization_Penalty_Neutral>
0.0027066

> <r_epik_State_Penalty>
0.00185803

> <r_epik_Charging_Adjusted_Penalty>
0.00185803

> <i_epik_Tot_Q>
0

> <i_epik_Tot_abs_Q>
0

> <r_epik_Metal_State_Penalty>
-0

> <b_epik_Metal_Only>
0

> <s_lp_Force_Field>
OPLS_2005

> <r_lp_Energy>
18.2391

> <b_lp_Chiralities_Consistent>
1

> <s_lp_Variant>
AV-unprocessed.smi:1566-1

> <Gold.Version>
5.8.1

> <Gold.Id.Protein>
6NUR|6NUR_protein|mol2

> <Gold.PLP.Fitness>
47.4035

> <Gold.PLP.PLP>
-44.4735

> <Gold.PLP.part.hbond>
-3.0000

> <Gold.PLP.part.metal>
0.0000

> <Gold.PLP.part.buried>
-2.3289

> <Gold.PLP.part.nonpolar>
-40.9042

> <Gold.PLP.part.repulsive>
0.5526

> <Gold.PLP.ligand.clash>
0.0000

> <Gold.PLP.ligand.torsion>
0.1972

> <Gold.PLP.Chemscore.Hbond>
1.0000

> <Gold.PLP.Chemscore.CHOScore>
0.0000

> <Gold.PLP.Chemscore.Metal>
0.0000

> <Gold.Chemscore.Hbonds>
donor molecule, donor type, donor heavy atom, donor atom, acceptor molecule, acceptor atom, score
      L1  H     3    26       P1  7948  1.00

> <Gold.PLP.Chemscore.Internal.Correction>
0.3244

> <Gold.Rescore>
     Score         DG    S(hbond)    S(metal)    S(lipo)     H(rot)  DE(clash)    DE(int)     intcor
     16.88     -18.44       0.96        0.00     109.25       1.19       0.14       1.42       ----

> <Gold.Chemscore.Fitness>
16.8777

> <Gold.Chemscore.DG>
-18.4365

> <Gold.Chemscore.ZeroCoef>
-5.4800

> <Gold.Chemscore.Hbond>
0.9621

> <Gold.Chemscore.Metal>
0.0000

> <Gold.Chemscore.Lipo>
109.2522

> <Gold.Chemscore.Internal_Hbond>
0.0000

> <Gold.Chemscore.DEClash>
0.1422

> <Gold.Chemscore.DEInternal>
1.4166

> <Gold.Chemscore.Rot>
1.1873

> <Gold.Chemscore.Internal.Correction>
   9.000000E+99

> <Gold.Chemscore.Hbonds>
donor molecule, donor type, donor heavy atom, donor atom, acceptor molecule, acceptor atom, score
      L1  H     3    26       P1  7948  0.95

> <Gold.Chemscore.Hbond.Weighted>
-3.2136

> <Gold.Chemscore.Metal.Weighted>
-0.0000

> <Gold.Chemscore.Lipo.Weighted>
-12.7825

> <Gold.Chemscore.Internal_Hbond.Weighted>
0.0000

> <Gold.Chemscore.DEClash.Weighted>
0.1422

> <Gold.Chemscore.DEInternal.Weighted>
1.4166

> <Gold.Chemscore.Rot.Weighted>
3.0396

> <Gold.Chemscore.Internal.Correction.Weighted>
   9.000000E+99

> <Gold.Protein.RotatedTorsions>
[ 6907 6896 6895 6894 ] final   66.51 input  -60.11 | X-H torsion
[ 7974 7965 7964 7962 ] final  118.06 input  175.53 | X-H torsion
[ 8008 7997 7996 7995 ] final  -49.48 input   59.86 | X-H torsion
[ 10167 10162 10161 10158 ] final  112.40 input  -65.29 | X-H torsion
[ 10718 10713 10712 10709 ] final  -90.56 input   66.30 | X-H torsion
[ 10763 10752 10751 10750 ] final  146.63 input  -60.55 | X-H torsion
[ 11005 11000 10999 10996 ] final -168.21 input  -57.11 | X-H torsion

> <Gold.Protein.ActiveResidues>
 VAL166  LYS551  ARG553  GLY616  TRP617  ASP618  TYR619  PRO620  LYS621  CYS622 
 ASP623  PHE694  ASN695  SER759  ASP760  ASP761  ALA762  ILE779  LEU786  VAL792 
 PHE793  MET794  SER795  GLU796  ALA797  LYS798  CYS799  TRP800  GLU811  SER814 

> <Gold.Protein.RotatedAtoms>
  152.4486  134.5441  159.9847 H   0  0  0  0  0  0  0  0  0  0  0  0  # atno 6907 bound_to 6896
  151.5520  133.3410  159.2963 H   0  0  0  0  0  0  0  0  0  0  0  0  # atno 6908 bound_to 6896
  150.8409  134.7732  159.6995 H   0  0  0  0  0  0  0  0  0  0  0  0  # atno 6909 bound_to 6896
  145.1597  139.3162  143.4523 H   0  0  0  0  0  0  0  0  0  0  0  0  # atno 7974 bound_to 7965
  154.4045  140.1296  156.4509 H   0  0  0  0  0  0  0  0  0  0  0  0  # atno 8008 bound_to 7997
  155.7367  140.3490  155.5065 H   0  0  0  0  0  0  0  0  0  0  0  0  # atno 8009 bound_to 7997
  155.9077  140.1030  157.1293 H   0  0  0  0  0  0  0  0  0  0  0  0  # atno 8010 bound_to 7997
  139.6538  144.7129  151.1996 H   0  0  0  0  0  0  0  0  0  0  0  0  # atno 10167 bound_to 10162
  155.9988  130.4914  150.5341 H   0  0  0  0  0  0  0  0  0  0  0  0  # atno 10718 bound_to 10713
  154.0251  135.2902  155.3376 H   0  0  0  0  0  0  0  0  0  0  0  0  # atno 10763 bound_to 10752
  154.7022  135.5184  153.8547 H   0  0  0  0  0  0  0  0  0  0  0  0  # atno 10764 bound_to 10752
  153.0664  135.6632  154.0469 H   0  0  0  0  0  0  0  0  0  0  0  0  # atno 10765 bound_to 10752
  140.5445  134.5489  157.5108 H   0  0  0  0  0  0  0  0  0  0  0  0  # atno 11005 bound_to 11000
  146.3484  140.1703  142.8589 LP  0  0  0  0  0  0  0  0  0  0  0  0  # atno 17320 bound_to 7965
  145.0343  140.8896  143.5090 LP  0  0  0  0  0  0  0  0  0  0  0  0  # atno 17321 bound_to 7965
  140.7550  143.6106  150.8610 LP  0  0  0  0  0  0  0  0  0  0  0  0  # atno 17342 bound_to 10162
  139.9756  143.6008  152.2959 LP  0  0  0  0  0  0  0  0  0  0  0  0  # atno 17343 bound_to 10162
  157.3286  131.0695  151.1878 LP  0  0  0  0  0  0  0  0  0  0  0  0  # atno 17370 bound_to 10713
  157.2766  130.6730  149.6045 LP  0  0  0  0  0  0  0  0  0  0  0  0  # atno 17371 bound_to 10713
  139.9487  134.7656  156.0501 LP  0  0  0  0  0  0  0  0  0  0  0  0  # atno 17394 bound_to 11000
  141.1208  133.6613  156.3209 LP  0  0  0  0  0  0  0  0  0  0  0  0  # atno 17395 bound_to 11000

$$$$
