AV-unprocessed.smi:2062|AV-procd|sdf|8406|dock9
  -GOLD-   2272011 93D 1   1.00000     0.00000
 Structure written by MMmdl.
 41 42  0  0  0  0  0  0  0  0  2 V2000
  152.1483  144.0545  161.2612 C   0  0  0  0  0  0  0  0  0  0  0  0
  152.1930  144.0485  159.7262 C   0  0  0  0  0  0  0  0  0  0  0  0
  151.5464  145.3252  159.1643 C   0  0  0  0  0  0  0  0  0  0  0  0
  151.5187  142.7743  159.1727 C   0  0  0  0  0  0  0  0  0  0  0  0
  152.3798  141.5967  159.0536 N   0  0  0  0  0  0  0  0  0  0  0  0
  153.2461  141.4076  160.2150 C   0  0  0  0  0  0  0  0  0  0  0  0
  154.1139  140.1449  160.0829 C   0  0  0  0  0  0  0  0  0  0  0  0
  153.2772  139.0125  159.8771 O   0  0  0  0  0  0  0  0  0  0  0  0
  152.4615  139.1295  158.7133 C   0  0  1  0  0  0  0  0  0  0  0  0
  151.6131  137.8536  158.5772 C   0  0  0  0  0  0  0  0  0  0  0  0
  150.4435  137.8841  159.4494 N   0  0  0  0  0  0  0  0  0  0  0  0
  149.4739  136.9595  159.4951 C   0  0  0  0  0  0  0  0  0  0  0  0
  149.5238  135.9782  158.7497 O   0  0  0  0  0  0  0  0  0  0  0  0
  148.5081  137.2282  160.4031 N   0  5  0  0  0  0  0  0  0  0  0  0
  147.9061  136.2245  161.0615 C   0  0  0  0  0  0  0  0  0  0  0  0
  147.6232  135.0457  160.4946 N   0  0  0  0  0  0  0  0  0  0  0  0
  146.9902  134.1513  161.3598 C   0  0  0  0  0  0  0  0  0  0  0  0
  146.7774  134.6642  162.6121 C   0  0  0  0  0  0  0  0  0  0  0  0
  147.3703  136.2954  162.7430 S   0  0  0  0  0  0  0  0  0  0  0  0
  151.5846  140.3890  158.8556 C   0  0  0  0  0  0  0  0  0  0  0  0
  151.1215  144.0615  161.6284 H   0  0  0  0  0  0  0  0  0  0  0  0
  152.6521  144.9326  161.6667 H   0  0  0  0  0  0  0  0  0  0  0  0
  152.6430  143.1742  161.6724 H   0  0  0  0  0  0  0  0  0  0  0  0
  153.2457  144.0512  159.4461 H   0  0  0  0  0  0  0  0  0  0  0  0
  150.4880  145.3789  159.4205 H   0  0  0  0  0  0  0  0  0  0  0  0
  151.6282  145.3669  158.0778 H   0  0  0  0  0  0  0  0  0  0  0  0
  152.0307  146.2178  159.5610 H   0  0  0  0  0  0  0  0  0  0  0  0
  150.6568  142.5246  159.7933 H   0  0  0  0  0  0  0  0  0  0  0  0
  151.1125  143.0159  158.1892 H   0  0  0  0  0  0  0  0  0  0  0  0
  153.9044  142.2658  160.3432 H   0  0  0  0  0  0  0  0  0  0  0  0
  152.6417  141.3361  161.1205 H   0  0  0  0  0  0  0  0  0  0  0  0
  154.8170  140.2431  159.2544 H   0  0  0  0  0  0  0  0  0  0  0  0
  154.7030  139.9931  160.9873 H   0  0  0  0  0  0  0  0  0  0  0  0
  153.1012  139.2373  157.8354 H   0  0  0  0  0  0  0  0  0  0  0  0
  151.2707  137.7397  157.5484 H   0  0  0  0  0  0  0  0  0  0  0  0
  152.2146  136.9711  158.8009 H   0  0  0  0  0  0  0  0  0  0  0  0
  150.3652  138.6687  160.0798 H   0  0  0  0  0  0  0  0  0  0  0  0
  146.7246  133.1689  160.9988 H   0  0  0  0  0  0  0  0  0  0  0  0
  146.3106  134.1865  163.4601 H   0  0  0  0  0  0  0  0  0  0  0  0
  150.8971  140.2592  159.6931 H   0  0  0  0  0  0  0  0  0  0  0  0
  150.9686  140.4980  157.9622 H   0  0  0  0  0  0  0  0  0  0  0  0
  1  2  1  0  0  0  0
  1 21  1  0  0  0  0
  1 22  1  0  0  0  0
  1 23  1  0  0  0  0
  2  3  1  0  0  0  0
  2  4  1  0  0  0  0
  2 24  1  0  0  0  0
  3 25  1  0  0  0  0
  3 26  1  0  0  0  0
  3 27  1  0  0  0  0
  4  5  1  0  0  0  0
  4 28  1  0  0  0  0
  4 29  1  0  0  0  0
  5 20  1  0  0  0  0
  5  6  1  0  0  0  0
  6  7  1  0  0  0  0
  6 30  1  0  0  0  0
  6 31  1  0  0  0  0
  7  8  1  0  0  0  0
  7 32  1  0  0  0  0
  7 33  1  0  0  0  0
  8  9  1  0  0  0  0
  9 10  1  0  0  0  0
  9 20  1  0  0  0  0
  9 34  1  0  0  0  0
 10 11  1  0  0  0  0
 10 35  1  0  0  0  0
 10 36  1  0  0  0  0
 11 12  1  0  0  0  0
 11 37  1  0  0  0  0
 12 13  2  0  0  0  0
 12 14  1  0  0  0  0
 14 15  1  0  0  0  0
 15 19  1  0  0  0  0
 15 16  2  0  0  0  0
 16 17  1  0  0  0  0
 17 18  2  0  0  0  0
 17 38  1  0  0  0  0
 18 19  1  0  0  0  0
 18 39  1  0  0  0  0
 20 40  1  0  0  0  0
 20 41  1  0  0  0  0
M  CHG  1  14  -1
M  END
> <s_m_source_file>
AV-unprocessed.smi

> <i_m_source_file_index>
2062

> <i_lp_mmshare_version>
43012

> <i_f3d_flags>
0

> <s_epik_input>
W0NIM11bQ0hdKFtDSDNdKVtDSDJdTjFbQ0gyXVtDSDJdT1tDQEhdKFtDSDJdMSlbQ0gyXVtOSF1DKD1PKVtOSF1jMm5bY0hdW2NIXXMy

> <s_epik_cmdline>
J2VwaWtfcHl0aG9uJywgJy1waCcsICc3LjAnLCAnLXRuJywgJzgnLCAnLW1hJywgJzIwMCcsICctbWV0YWxfYmluZGluZycsICctaW1hZScsICc8aW5maWxlLm1hZT4nLCAnLW9tYWUnLCAnPG91dGZpbGUubWFlPic=

> <r_lp_tautomer_probability>
0.999

> <r_epik_Ionization_Penalty>
7.76343

> <r_epik_Ionization_Penalty_Charging>
5.65212

> <r_epik_Ionization_Penalty_Neutral>
2.11131

> <r_epik_State_Penalty>
6.82229

> <r_epik_Charging_Adjusted_Penalty>
12.4744

> <i_epik_Tot_Q>
-1

> <i_epik_Tot_abs_Q>
1

> <r_epik_Metal_State_Penalty>
2.82401

> <b_epik_Metal_Only>
1

> <s_lp_Force_Field>
OPLS_2005

> <r_lp_Energy>
19.1571

> <b_lp_Chiralities_Consistent>
1

> <s_lp_Variant>
AV-unprocessed.smi:2062-11

> <Gold.Version>
5.8.1

> <Gold.Id.Protein>
6NUR|6NUR_protein|mol2

> <Gold.PLP.Fitness>
49.7518

> <Gold.PLP.PLP>
-44.2015

> <Gold.PLP.part.hbond>
-2.9383

> <Gold.PLP.part.metal>
0.0000

> <Gold.PLP.part.buried>
-6.4115

> <Gold.PLP.part.nonpolar>
-37.0546

> <Gold.PLP.part.repulsive>
0.9862

> <Gold.PLP.ligand.clash>
0.0000

> <Gold.PLP.ligand.torsion>
1.1644

> <Gold.PLP.Chemscore.Hbond>
2.6077

> <Gold.PLP.Chemscore.CHOScore>
0.0000

> <Gold.PLP.Chemscore.Metal>
0.0000

> <Gold.Chemscore.Hbonds>
donor molecule, donor type, donor heavy atom, donor atom, acceptor molecule, acceptor atom, score
      P1  H  6896  6907       L1    13  1.00
      P1  H  6931  6943       L1    14  1.28
      P1  H  6934  6947       L1    14  0.39

> <Gold.PLP.Chemscore.Internal.Correction>
0.0560

> <Gold.Rescore>
     Score         DG    S(hbond)    S(metal)    S(lipo)     H(rot)  DE(clash)    DE(int)     intcor
     14.86     -17.55       1.03        0.00     110.43       1.68       0.11       2.59       ----

> <Gold.Chemscore.Fitness>
14.8595

> <Gold.Chemscore.DG>
-17.5536

> <Gold.Chemscore.ZeroCoef>
-5.4800

> <Gold.Chemscore.Hbond>
1.0326

> <Gold.Chemscore.Metal>
0.0000

> <Gold.Chemscore.Lipo>
110.4282

> <Gold.Chemscore.Internal_Hbond>
0.0000

> <Gold.Chemscore.DEClash>
0.1078

> <Gold.Chemscore.DEInternal>
2.5862

> <Gold.Chemscore.Rot>
1.6779

> <Gold.Chemscore.Internal.Correction>
   9.000000E+99

> <Gold.Chemscore.Hbonds>
donor molecule, donor type, donor heavy atom, donor atom, acceptor molecule, acceptor atom, score
      P1  H  6896  6907       L1    13  0.39
      P1  H  6931  6943       L1    14  0.13
      P1  H  6934  6947       L1    14  0.08

> <Gold.Chemscore.Hbond.Weighted>
-3.4488

> <Gold.Chemscore.Metal.Weighted>
-0.0000

> <Gold.Chemscore.Lipo.Weighted>
-12.9201

> <Gold.Chemscore.Internal_Hbond.Weighted>
0.0000

> <Gold.Chemscore.DEClash.Weighted>
0.1078

> <Gold.Chemscore.DEInternal.Weighted>
2.5862

> <Gold.Chemscore.Rot.Weighted>
4.2953

> <Gold.Chemscore.Internal.Correction.Weighted>
   9.000000E+99

> <Gold.Protein.RotatedTorsions>
[ 6907 6896 6895 6894 ] final  -55.12 input  -60.11 | X-H torsion
[ 7974 7965 7964 7962 ] final -139.28 input  175.53 | X-H torsion
[ 8008 7997 7996 7995 ] final  -82.79 input   59.86 | X-H torsion
[ 10167 10162 10161 10158 ] final  -62.89 input  -65.29 | X-H torsion
[ 10718 10713 10712 10709 ] final  -95.64 input   66.30 | X-H torsion
[ 10763 10752 10751 10750 ] final   29.22 input  -60.55 | X-H torsion
[ 11005 11000 10999 10996 ] final  129.76 input  -57.11 | X-H torsion

> <Gold.Protein.ActiveResidues>
 VAL166  LYS551  ARG553  GLY616  TRP617  ASP618  TYR619  PRO620  LYS621  CYS622 
 ASP623  PHE694  ASN695  SER759  ASP760  ASP761  ALA762  ILE779  LEU786  VAL792 
 PHE793  MET794  SER795  GLU796  ALA797  LYS798  CYS799  TRP800  GLU811  SER814 

> <Gold.Protein.RotatedAtoms>
  150.8279  134.7518  159.6827 H   0  0  0  0  0  0  0  0  0  0  0  0  # atno 6907 bound_to 6896
  152.4387  134.5631  159.9909 H   0  0  0  0  0  0  0  0  0  0  0  0  # atno 6908 bound_to 6896
  151.5799  133.3341  159.3042 H   0  0  0  0  0  0  0  0  0  0  0  0  # atno 6909 bound_to 6896
  144.8690  140.6337  143.5279 H   0  0  0  0  0  0  0  0  0  0  0  0  # atno 7974 bound_to 7965
  154.6123  140.0628  156.9509 H   0  0  0  0  0  0  0  0  0  0  0  0  # atno 8008 bound_to 7997
  155.1953  140.3310  155.4333 H   0  0  0  0  0  0  0  0  0  0  0  0  # atno 8009 bound_to 7997
  156.2383  140.1874  156.7041 H   0  0  0  0  0  0  0  0  0  0  0  0  # atno 8010 bound_to 7997
  140.5908  143.2341  151.6143 H   0  0  0  0  0  0  0  0  0  0  0  0  # atno 10167 bound_to 10162
  156.0047  130.5117  150.6106 H   0  0  0  0  0  0  0  0  0  0  0  0  # atno 10718 bound_to 10713
  153.0444  135.6494  154.0857 H   0  0  0  0  0  0  0  0  0  0  0  0  # atno 10763 bound_to 10752
  154.0558  135.2892  155.3334 H   0  0  0  0  0  0  0  0  0  0  0  0  # atno 10764 bound_to 10752
  154.6690  135.5363  153.8179 H   0  0  0  0  0  0  0  0  0  0  0  0  # atno 10765 bound_to 10752
  139.9633  134.9597  156.9195 H   0  0  0  0  0  0  0  0  0  0  0  0  # atno 11005 bound_to 11000
  145.4167  139.1571  143.4096 LP  0  0  0  0  0  0  0  0  0  0  0  0  # atno 17320 bound_to 7965
  146.2916  140.4274  142.8737 LP  0  0  0  0  0  0  0  0  0  0  0  0  # atno 17321 bound_to 7965
  139.5226  144.3157  152.0954 LP  0  0  0  0  0  0  0  0  0  0  0  0  # atno 17342 bound_to 10162
  140.2321  144.4357  150.6295 LP  0  0  0  0  0  0  0  0  0  0  0  0  # atno 17343 bound_to 10162
  157.3939  131.0800  151.1369 LP  0  0  0  0  0  0  0  0  0  0  0  0  # atno 17370 bound_to 10713
  157.2052  130.6413  149.5753 LP  0  0  0  0  0  0  0  0  0  0  0  0  # atno 17371 bound_to 10713
  140.5451  134.0682  155.7353 LP  0  0  0  0  0  0  0  0  0  0  0  0  # atno 17394 bound_to 11000
  141.1312  133.9299  157.2532 LP  0  0  0  0  0  0  0  0  0  0  0  0  # atno 17395 bound_to 11000

$$$$
