AV-unprocessed.smi:3046|AV-procd|sdf|11615|dock2
  -GOLD-   2272016593D 1   1.00000     0.00000
 Structure written by MMmdl.
 38 38  0  0  0  0  0  0  0  0  2 V2000
  146.6502  133.7531  151.9740 C   0  0  0  0  0  0  0  0  0  0  0  0
  146.7772  133.9699  153.2915 C   0  0  0  0  0  0  0  0  0  0  0  0
  146.2483  135.1930  154.0146 C   0  0  0  0  0  0  0  0  0  0  0  0
  146.7957  136.4220  153.4530 N   0  0  0  0  0  0  0  0  0  0  0  0
  146.5053  137.6615  153.8781 C   0  0  0  0  0  0  0  0  0  0  0  0
  145.7449  137.8922  154.8191 O   0  0  0  0  0  0  0  0  0  0  0  0
  147.1796  138.8165  153.1261 C   0  0  2  0  0  0  0  0  0  0  0  0
  146.6996  138.8413  151.6668 C   0  0  0  0  0  0  0  0  0  0  0  0
  148.6565  138.6989  153.1574 N   0  3  0  0  0  0  0  0  0  0  0  0
  149.3293  139.0707  154.4268 C   0  0  1  0  0  0  0  0  0  0  0  0
  150.7482  138.4824  154.5079 C   0  0  0  0  0  0  0  0  0  0  0  0
  149.3676  140.6049  154.5717 C   0  0  0  0  0  0  0  0  0  0  0  0
  150.0468  141.0279  155.7840 N   0  0  0  0  0  0  0  0  0  0  0  0
  150.4516  142.2972  156.1408 C   0  0  0  0  0  0  0  0  0  0  0  0
  151.0546  142.2027  157.3622 C   0  0  0  0  0  0  0  0  0  0  0  0
  150.9678  140.8177  157.6768 C   0  0  0  0  0  0  0  0  0  0  0  0
  150.3664  140.1167  156.7289 N   0  0  0  0  0  0  0  0  0  0  0  0
  146.1436  134.4607  151.3337 H   0  0  0  0  0  0  0  0  0  0  0  0
  147.0536  132.8610  151.5176 H   0  0  0  0  0  0  0  0  0  0  0  0
  147.2952  133.2395  153.8964 H   0  0  0  0  0  0  0  0  0  0  0  0
  145.1586  135.2004  153.9590 H   0  0  0  0  0  0  0  0  0  0  0  0
  146.5100  135.1443  155.0720 H   0  0  0  0  0  0  0  0  0  0  0  0
  147.4369  136.3207  152.6795 H   0  0  0  0  0  0  0  0  0  0  0  0
  146.8862  139.7603  153.5889 H   0  0  0  0  0  0  0  0  0  0  0  0
  145.6162  138.9518  151.6055 H   0  0  0  0  0  0  0  0  0  0  0  0
  146.9713  137.9259  151.1390 H   0  0  0  0  0  0  0  0  0  0  0  0
  147.1423  139.6782  151.1254 H   0  0  0  0  0  0  0  0  0  0  0  0
  148.9220  137.7619  152.8883 H   0  0  0  0  0  0  0  0  0  0  0  0
  148.7450  138.6767  155.2599 H   0  0  0  0  0  0  0  0  0  0  0  0
  151.2539  138.8061  155.4181 H   0  0  0  0  0  0  0  0  0  0  0  0
  151.3583  138.7977  153.6604 H   0  0  0  0  0  0  0  0  0  0  0  0
  150.7336  137.3929  154.5244 H   0  0  0  0  0  0  0  0  0  0  0  0
  149.8923  141.0487  153.7247 H   0  0  0  0  0  0  0  0  0  0  0  0
  148.3587  141.0216  154.5637 H   0  0  0  0  0  0  0  0  0  0  0  0
  150.2807  143.1522  155.5029 H   0  0  0  0  0  0  0  0  0  0  0  0
  151.4905  143.0016  157.9438 H   0  0  0  0  0  0  0  0  0  0  0  0
  151.3227  140.3042  158.5582 H   0  0  0  0  0  0  0  0  0  0  0  0
  149.0097  139.3365  152.4576 H   0  0  0  0  0  0  0  0  0  0  0  0
  1  2  2  0  0  0  0
  1 18  1  0  0  0  0
  1 19  1  0  0  0  0
  2  3  1  0  0  0  0
  2 20  1  0  0  0  0
  3  4  1  0  0  0  0
  3 21  1  0  0  0  0
  3 22  1  0  0  0  0
  4  5  1  0  0  0  0
  4 23  1  0  0  0  0
  5  6  2  0  0  0  0
  5  7  1  0  0  0  0
  7  8  1  0  0  0  0
  7  9  1  0  0  0  0
  7 24  1  0  0  0  0
  8 25  1  0  0  0  0
  8 26  1  0  0  0  0
  8 27  1  0  0  0  0
  9 10  1  0  0  0  0
  9 28  1  0  0  0  0
  9 38  1  0  0  0  0
 10 11  1  0  0  0  0
 10 12  1  0  0  0  0
 10 29  1  0  0  0  0
 11 30  1  0  0  0  0
 11 31  1  0  0  0  0
 11 32  1  0  0  0  0
 12 13  1  0  0  0  0
 12 33  1  0  0  0  0
 12 34  1  0  0  0  0
 13 17  1  0  0  0  0
 13 14  1  0  0  0  0
 14 15  2  0  0  0  0
 14 35  1  0  0  0  0
 15 16  1  0  0  0  0
 15 36  1  0  0  0  0
 16 17  2  0  0  0  0
 16 37  1  0  0  0  0
M  CHG  1   9   1
M  END
> <s_m_source_file>
AV-unprocessed.smi

> <i_m_source_file_index>
3046

> <i_lp_mmshare_version>
43012

> <i_f3d_flags>
0

> <s_epik_input>
W0NIMl09W0NIXVtDSDJdW05IXUMoPU8pW0NASF0oW0NIM10pW05IXVtDQEhdKFtDSDNdKVtDSDJdbjFbY0hdW2NIXVtjSF1uMQ==

> <s_epik_cmdline>
J2VwaWtfcHl0aG9uJywgJy1waCcsICc3LjAnLCAnLXRuJywgJzgnLCAnLW1hJywgJzIwMCcsICctbWV0YWxfYmluZGluZycsICctaW1hZScsICc8aW5maWxlLm1hZT4nLCAnLW9tYWUnLCAnPG91dGZpbGUubWFlPic=

> <r_lp_tautomer_probability>
1

> <r_epik_Ionization_Penalty>
0.132961

> <r_epik_Ionization_Penalty_Charging>
0.132956

> <r_epik_Ionization_Penalty_Neutral>
5.00268e-06

> <r_epik_State_Penalty>
0.122332

> <r_epik_Charging_Adjusted_Penalty>
0.255288

> <i_epik_Tot_Q>
1

> <i_epik_Tot_abs_Q>
1

> <r_epik_Metal_State_Penalty>
0.122338

> <b_epik_Metal_Only>
0

> <s_lp_Force_Field>
OPLS_2005

> <r_lp_Energy>
6.26821

> <b_lp_Chiralities_Consistent>
1

> <s_lp_Variant>
AV-unprocessed.smi:3046-3

> <Gold.Version>
5.8.1

> <Gold.Id.Protein>
6NUR|6NUR_protein|mol2

> <Gold.PLP.Fitness>
45.4840

> <Gold.PLP.PLP>
-31.2087

> <Gold.PLP.part.hbond>
-2.9482

> <Gold.PLP.part.metal>
0.0000

> <Gold.PLP.part.buried>
-3.5652

> <Gold.PLP.part.nonpolar>
-26.3438

> <Gold.PLP.part.repulsive>
0.1462

> <Gold.PLP.ligand.clash>
0.0000

> <Gold.PLP.ligand.torsion>
0.4272

> <Gold.PLP.Chemscore.Hbond>
3.9920

> <Gold.PLP.Chemscore.CHOScore>
1.0000

> <Gold.PLP.Chemscore.Metal>
0.0000

> <Gold.Chemscore.Hbonds>
donor molecule, donor type, donor heavy atom, donor atom, acceptor molecule, acceptor atom, score
      L1  H     4    23       P1  7948  1.00
      L1  H     9    28       P1  7948  2.00
      L1  H     9    38       P1  7957  1.00
      L1  C    14    35       P1  8028  1.00

> <Gold.PLP.Chemscore.Internal.Correction>
0.1538

> <Gold.Rescore>
     Score         DG    S(hbond)    S(metal)    S(lipo)     H(rot)  DE(clash)    DE(int)     intcor
     16.08     -17.90       2.94        0.00      71.71       2.26       0.01       1.81       ----

> <Gold.Chemscore.Fitness>
16.0830

> <Gold.Chemscore.DG>
-17.9014

> <Gold.Chemscore.ZeroCoef>
-5.4800

> <Gold.Chemscore.Hbond>
2.9413

> <Gold.Chemscore.Metal>
0.0000

> <Gold.Chemscore.Lipo>
71.7050

> <Gold.Chemscore.Internal_Hbond>
0.0000

> <Gold.Chemscore.DEClash>
0.0069

> <Gold.Chemscore.DEInternal>
1.8114

> <Gold.Chemscore.Rot>
2.2626

> <Gold.Chemscore.Internal.Correction>
   9.000000E+99

> <Gold.Chemscore.Hbonds>
donor molecule, donor type, donor heavy atom, donor atom, acceptor molecule, acceptor atom, score
      L1  H     4    23       P1  7948  0.99
      L1  H     9    28       P1  7948  0.99
      L1  H     9    38       P1  7957  0.98

> <Gold.Chemscore.Hbond.Weighted>
-9.8241

> <Gold.Chemscore.Metal.Weighted>
-0.0000

> <Gold.Chemscore.Lipo.Weighted>
-8.3895

> <Gold.Chemscore.Internal_Hbond.Weighted>
0.0000

> <Gold.Chemscore.DEClash.Weighted>
0.0069

> <Gold.Chemscore.DEInternal.Weighted>
1.8114

> <Gold.Chemscore.Rot.Weighted>
5.7922

> <Gold.Chemscore.Internal.Correction.Weighted>
   9.000000E+99

> <Gold.Protein.RotatedTorsions>
[ 6907 6896 6895 6894 ] final   66.30 input  -60.11 | X-H torsion
[ 7974 7965 7964 7962 ] final  121.59 input  175.53 | X-H torsion
[ 8008 7997 7996 7995 ] final   17.48 input   59.86 | X-H torsion
[ 10167 10162 10161 10158 ] final -170.87 input  -65.29 | X-H torsion
[ 10718 10713 10712 10709 ] final  -94.31 input   66.30 | X-H torsion
[ 10763 10752 10751 10750 ] final  -15.53 input  -60.55 | X-H torsion
[ 11005 11000 10999 10996 ] final -160.64 input  -57.11 | X-H torsion

> <Gold.Protein.ActiveResidues>
 VAL166  LYS551  ARG553  GLY616  TRP617  ASP618  TYR619  PRO620  LYS621  CYS622 
 ASP623  PHE694  ASN695  SER759  ASP760  ASP761  ALA762  ILE779  LEU786  VAL792 
 PHE793  MET794  SER795  GLU796  ALA797  LYS798  CYS799  TRP800  GLU811  SER814 

> <Gold.Protein.RotatedAtoms>
  152.4471  134.5472  159.9856 H   0  0  0  0  0  0  0  0  0  0  0  0  # atno 6907 bound_to 6896
  151.5554  133.3405  159.2969 H   0  0  0  0  0  0  0  0  0  0  0  0  # atno 6908 bound_to 6896
  150.8390  134.7707  159.6980 H   0  0  0  0  0  0  0  0  0  0  0  0  # atno 6909 bound_to 6896
  145.1175  139.3411  143.4731 H   0  0  0  0  0  0  0  0  0  0  0  0  # atno 7974 bound_to 7965
  154.8921  140.2988  155.5365 H   0  0  0  0  0  0  0  0  0  0  0  0  # atno 8008 bound_to 7997
  156.3020  140.2422  156.3872 H   0  0  0  0  0  0  0  0  0  0  0  0  # atno 8009 bound_to 7997
  154.8608  140.0405  157.1653 H   0  0  0  0  0  0  0  0  0  0  0  0  # atno 8010 bound_to 7997
  139.5836  144.1369  152.1546 H   0  0  0  0  0  0  0  0  0  0  0  0  # atno 10167 bound_to 10162
  156.0025  130.5062  150.5907 H   0  0  0  0  0  0  0  0  0  0  0  0  # atno 10718 bound_to 10713
  153.5447  135.7012  153.5619 H   0  0  0  0  0  0  0  0  0  0  0  0  # atno 10763 bound_to 10752
  153.3570  135.3980  155.1689 H   0  0  0  0  0  0  0  0  0  0  0  0  # atno 10764 bound_to 10752
  154.8669  135.3779  154.4954 H   0  0  0  0  0  0  0  0  0  0  0  0  # atno 10765 bound_to 10752
  140.6292  134.4669  157.5228 H   0  0  0  0  0  0  0  0  0  0  0  0  # atno 11005 bound_to 11000
  146.3523  140.1120  142.8603 LP  0  0  0  0  0  0  0  0  0  0  0  0  # atno 17320 bound_to 7965
  145.0778  140.9200  143.4843 LP  0  0  0  0  0  0  0  0  0  0  0  0  # atno 17321 bound_to 7965
  140.0928  144.5606  150.7043 LP  0  0  0  0  0  0  0  0  0  0  0  0  # atno 17342 bound_to 10162
  140.7111  143.2505  151.4579 LP  0  0  0  0  0  0  0  0  0  0  0  0  # atno 17343 bound_to 10162
  157.3772  131.0775  151.1507 LP  0  0  0  0  0  0  0  0  0  0  0  0  # atno 17370 bound_to 10713
  157.2241  130.6495  149.5823 LP  0  0  0  0  0  0  0  0  0  0  0  0  # atno 17371 bound_to 10713
  139.9122  134.8320  156.1487 LP  0  0  0  0  0  0  0  0  0  0  0  0  # atno 17394 bound_to 11000
  141.0687  133.6807  156.2097 LP  0  0  0  0  0  0  0  0  0  0  0  0  # atno 17395 bound_to 11000

$$$$
