AV-unprocessed.smi:1815|AV-procd|sdf|7363|dock3
  -GOLD-   22720 9 23D 1   1.00000     0.00000
 Structure written by MMmdl.
 39 40  0  0  0  0  0  0  0  0  3 V2000
  147.4672  134.9389  154.3497 C   0  0  0  0  0  0  0  0  0  0  0  0
  146.0483  135.4710  154.0799 C   0  0  1  0  0  0  0  0  0  0  0  0
  146.0068  136.9766  153.7513 C   0  0  0  0  0  0  0  0  0  0  0  0
  146.5181  137.2417  152.3857 N   0  3  2  0  0  0  0  0  0  0  0  0
  146.5524  138.6900  152.0653 C   0  0  0  0  0  0  0  0  0  0  0  0
  147.0358  139.5374  153.2521 C   0  0  0  0  0  0  0  0  0  0  0  0
  148.4907  139.5702  153.2926 N   0  0  0  0  0  0  0  0  0  0  0  0
  149.2462  139.0141  154.2484 C   0  0  0  0  0  0  0  0  0  0  0  0
  148.7094  138.4147  155.1831 O   0  0  0  0  0  0  0  0  0  0  0  0
  150.5736  139.1874  154.0608 N   0  5  0  0  0  0  0  0  0  0  0  0
  151.4508  138.6349  154.9147 C   0  0  0  0  0  0  0  0  0  0  0  0
  151.0810  138.0264  156.0474 N   0  0  0  0  0  0  0  0  0  0  0  0
  152.1555  137.5296  156.7873 C   0  0  0  0  0  0  0  0  0  0  0  0
  153.3727  137.7733  156.2087 C   0  0  0  0  0  0  0  0  0  0  0  0
  153.2045  138.6386  154.7080 S   0  0  0  0  0  0  0  0  0  0  0  0
  145.7733  136.4308  151.3924 C   0  0  0  0  0  0  0  0  0  0  0  0
  145.8643  134.9349  151.7435 C   0  0  2  0  0  0  0  0  0  0  0  0
  145.0324  134.0697  150.7904 C   0  0  0  0  0  0  0  0  0  0  0  0
  145.3746  134.7257  153.0657 O   0  0  0  0  0  0  0  0  0  0  0  0
  147.9069  135.4353  155.2150 H   0  0  0  0  0  0  0  0  0  0  0  0
  148.1393  135.1022  153.5077 H   0  0  0  0  0  0  0  0  0  0  0  0
  147.4473  133.8694  154.5602 H   0  0  0  0  0  0  0  0  0  0  0  0
  145.4767  135.3165  154.9957 H   0  0  0  0  0  0  0  0  0  0  0  0
  144.9800  137.3398  153.8220 H   0  0  0  0  0  0  0  0  0  0  0  0
  146.5892  137.5326  154.4873 H   0  0  0  0  0  0  0  0  0  0  0  0
  147.1739  138.8619  151.1849 H   0  0  0  0  0  0  0  0  0  0  0  0
  145.5460  139.0206  151.8029 H   0  0  0  0  0  0  0  0  0  0  0  0
  146.6528  140.5557  153.1656 H   0  0  0  0  0  0  0  0  0  0  0  0
  146.6734  139.1331  154.1974 H   0  0  0  0  0  0  0  0  0  0  0  0
  148.9666  140.0523  152.5438 H   0  0  0  0  0  0  0  0  0  0  0  0
  151.9613  137.0164  157.7171 H   0  0  0  0  0  0  0  0  0  0  0  0
  154.3521  137.4996  156.5710 H   0  0  0  0  0  0  0  0  0  0  0  0
  144.7305  136.7515  151.3685 H   0  0  0  0  0  0  0  0  0  0  0  0
  146.1773  136.5884  150.3929 H   0  0  0  0  0  0  0  0  0  0  0  0
  146.9017  134.6061  151.6778 H   0  0  0  0  0  0  0  0  0  0  0  0
  145.3711  134.1832  149.7604 H   0  0  0  0  0  0  0  0  0  0  0  0
  143.9770  134.3417  150.8275 H   0  0  0  0  0  0  0  0  0  0  0  0
  145.1132  133.0143  151.0514 H   0  0  0  0  0  0  0  0  0  0  0  0
  147.4768  136.9233  152.3740 H   0  0  0  0  0  0  0  0  0  0  0  0
  1  2  1  0  0  0  0
  1 20  1  0  0  0  0
  1 21  1  0  0  0  0
  1 22  1  0  0  0  0
  2 19  1  0  0  0  0
  2  3  1  0  0  0  0
  2 23  1  0  0  0  0
  3  4  1  0  0  0  0
  3 24  1  0  0  0  0
  3 25  1  0  0  0  0
  4  5  1  0  0  0  0
  4 16  1  0  0  0  0
  4 39  1  0  0  0  0
  5  6  1  0  0  0  0
  5 26  1  0  0  0  0
  5 27  1  0  0  0  0
  6  7  1  0  0  0  0
  6 28  1  0  0  0  0
  6 29  1  0  0  0  0
  7  8  1  0  0  0  0
  7 30  1  0  0  0  0
  8  9  2  0  0  0  0
  8 10  1  0  0  0  0
 10 11  1  0  0  0  0
 11 15  1  0  0  0  0
 11 12  2  0  0  0  0
 12 13  1  0  0  0  0
 13 14  2  0  0  0  0
 13 31  1  0  0  0  0
 14 15  1  0  0  0  0
 14 32  1  0  0  0  0
 16 17  1  0  0  0  0
 16 33  1  0  0  0  0
 16 34  1  0  0  0  0
 17 18  1  0  0  0  0
 17 19  1  0  0  0  0
 17 35  1  0  0  0  0
 18 36  1  0  0  0  0
 18 37  1  0  0  0  0
 18 38  1  0  0  0  0
M  CHG  1   4   1
M  CHG  1  10  -1
M  END
> <s_m_source_file>
AV-unprocessed.smi

> <i_m_source_file_index>
1815

> <i_lp_mmshare_version>
43012

> <i_f3d_flags>
0

> <s_epik_input>
W0NIM11bQ0BASF0xW0NIMl1OKFtDSDJdW0NASF0oTzEpW0NIM10pW0NIMl1bQ0gyXVtOSF1DKD1PKVtOSF1jMm5bY0hdW2NIXXMy

> <s_epik_cmdline>
J2VwaWtfcHl0aG9uJywgJy1waCcsICc3LjAnLCAnLXRuJywgJzgnLCAnLW1hJywgJzIwMCcsICctbWV0YWxfYmluZGluZycsICctaW1hZScsICc8aW5maWxlLm1hZT4nLCAnLW9tYWUnLCAnPG91dGZpbGUubWFlPic=

> <r_lp_tautomer_probability>
0.999

> <r_epik_Ionization_Penalty>
6.71699

> <r_epik_Ionization_Penalty_Charging>
5.88592

> <r_epik_Ionization_Penalty_Neutral>
0.831074

> <r_epik_State_Penalty>
6.08365

> <r_epik_Charging_Adjusted_Penalty>
11.9696

> <i_epik_Tot_Q>
0

> <i_epik_Tot_abs_Q>
2

> <r_epik_Metal_State_Penalty>
2.0947

> <b_epik_Metal_Only>
1

> <s_lp_Force_Field>
OPLS_2005

> <r_lp_Energy>
8.63778

> <b_lp_Chiralities_Consistent>
1

> <s_lp_Variant>
AV-unprocessed.smi:1815-14

> <Gold.Version>
5.8.1

> <Gold.Id.Protein>
6NUR|6NUR_protein|mol2

> <Gold.PLP.Fitness>
37.8086

> <Gold.PLP.PLP>
-26.4085

> <Gold.PLP.part.hbond>
-2.7522

> <Gold.PLP.part.metal>
0.0000

> <Gold.PLP.part.buried>
-1.2834

> <Gold.PLP.part.nonpolar>
-23.0854

> <Gold.PLP.part.repulsive>
0.5184

> <Gold.PLP.ligand.clash>
0.0000

> <Gold.PLP.ligand.torsion>
0.2972

> <Gold.PLP.Chemscore.Hbond>
3.9833

> <Gold.PLP.Chemscore.CHOScore>
0.0000

> <Gold.PLP.Chemscore.Metal>
0.0000

> <Gold.Chemscore.Hbonds>
donor molecule, donor type, donor heavy atom, donor atom, acceptor molecule, acceptor atom, score
      L1  H     4    39       P1  7948  2.00
      L1  H     7    30       P1  7957  0.99
      P1  H  7989  7998       L1    10  0.94

> <Gold.PLP.Chemscore.Internal.Correction>
0.0446

> <Gold.Rescore>
     Score         DG    S(hbond)    S(metal)    S(lipo)     H(rot)  DE(clash)    DE(int)     intcor
     13.75     -15.86       2.29        0.00      58.34       1.61       0.14       1.97       ----

> <Gold.Chemscore.Fitness>
13.7512

> <Gold.Chemscore.DG>
-15.8555

> <Gold.Chemscore.ZeroCoef>
-5.4800

> <Gold.Chemscore.Hbond>
2.2935

> <Gold.Chemscore.Metal>
0.0000

> <Gold.Chemscore.Lipo>
58.3449

> <Gold.Chemscore.Internal_Hbond>
0.0000

> <Gold.Chemscore.DEClash>
0.1369

> <Gold.Chemscore.DEInternal>
1.9673

> <Gold.Chemscore.Rot>
1.6060

> <Gold.Chemscore.Internal.Correction>
   9.000000E+99

> <Gold.Chemscore.Hbonds>
donor molecule, donor type, donor heavy atom, donor atom, acceptor molecule, acceptor atom, score
      L1  H     4    39       P1  7948  1.00
      L1  H     7    30       P1  7957  0.87
      P1  H  7989  7998       L1    10  0.23

> <Gold.Chemscore.Hbond.Weighted>
-7.6604

> <Gold.Chemscore.Metal.Weighted>
-0.0000

> <Gold.Chemscore.Lipo.Weighted>
-6.8264

> <Gold.Chemscore.Internal_Hbond.Weighted>
0.0000

> <Gold.Chemscore.DEClash.Weighted>
0.1369

> <Gold.Chemscore.DEInternal.Weighted>
1.9673

> <Gold.Chemscore.Rot.Weighted>
4.1112

> <Gold.Chemscore.Internal.Correction.Weighted>
   9.000000E+99

> <Gold.Protein.RotatedTorsions>
[ 6907 6896 6895 6894 ] final -165.58 input  -60.11 | X-H torsion
[ 7974 7965 7964 7962 ] final -102.46 input  175.53 | X-H torsion
[ 8008 7997 7996 7995 ] final   -1.30 input   59.86 | X-H torsion
[ 10167 10162 10161 10158 ] final  -31.11 input  -65.29 | X-H torsion
[ 10718 10713 10712 10709 ] final  175.73 input   66.30 | X-H torsion
[ 10763 10752 10751 10750 ] final -159.84 input  -60.55 | X-H torsion
[ 11005 11000 10999 10996 ] final   64.06 input  -57.11 | X-H torsion

> <Gold.Protein.ActiveResidues>
 VAL166  LYS551  ARG553  GLY616  TRP617  ASP618  TYR619  PRO620  LYS621  CYS622 
 ASP623  PHE694  ASN695  SER759  ASP760  ASP761  ALA762  ILE779  LEU786  VAL792 
 PHE793  MET794  SER795  GLU796  ALA797  LYS798  CYS799  TRP800  GLU811  SER814 

> <Gold.Protein.RotatedAtoms>
  151.4299  133.3673  159.2767 H   0  0  0  0  0  0  0  0  0  0  0  0  # atno 6907 bound_to 6896
  150.9232  134.8651  159.7513 H   0  0  0  0  0  0  0  0  0  0  0  0  # atno 6908 bound_to 6896
  152.4992  134.4238  159.9541 H   0  0  0  0  0  0  0  0  0  0  0  0  # atno 6909 bound_to 6896
  145.2684  140.9291  143.3000 H   0  0  0  0  0  0  0  0  0  0  0  0  # atno 7974 bound_to 7965
  154.6484  140.2563  155.7242 H   0  0  0  0  0  0  0  0  0  0  0  0  # atno 8008 bound_to 7997
  156.2563  140.2873  156.0828 H   0  0  0  0  0  0  0  0  0  0  0  0  # atno 8009 bound_to 7997
  155.1489  140.0382  157.2806 H   0  0  0  0  0  0  0  0  0  0  0  0  # atno 8010 bound_to 7997
  140.7241  143.3796  151.1625 H   0  0  0  0  0  0  0  0  0  0  0  0  # atno 10167 bound_to 10162
  156.9306  130.9970  151.2988 H   0  0  0  0  0  0  0  0  0  0  0  0  # atno 10718 bound_to 10713
  154.7441  135.3076  154.8676 H   0  0  0  0  0  0  0  0  0  0  0  0  # atno 10763 bound_to 10752
  153.9482  135.6767  153.4748 H   0  0  0  0  0  0  0  0  0  0  0  0  # atno 10764 bound_to 10752
  153.1038  135.4899  154.8840 H   0  0  0  0  0  0  0  0  0  0  0  0  # atno 10765 bound_to 10752
  139.9983  134.6482  155.9973 H   0  0  0  0  0  0  0  0  0  0  0  0  # atno 11005 bound_to 11000
  144.9357  139.4247  143.6473 LP  0  0  0  0  0  0  0  0  0  0  0  0  # atno 17320 bound_to 7965
  146.3254  139.8291  142.8912 LP  0  0  0  0  0  0  0  0  0  0  0  0  # atno 17321 bound_to 7965
  139.7383  143.8964  152.3042 LP  0  0  0  0  0  0  0  0  0  0  0  0  # atno 17342 bound_to 10162
  139.8777  144.7034  150.8914 LP  0  0  0  0  0  0  0  0  0  0  0  0  # atno 17343 bound_to 10162
  157.5849  130.8403  149.8575 LP  0  0  0  0  0  0  0  0  0  0  0  0  # atno 17370 bound_to 10713
  156.0449  130.3730  150.1343 LP  0  0  0  0  0  0  0  0  0  0  0  0  # atno 17371 bound_to 10713
  141.1622  133.6538  156.4357 LP  0  0  0  0  0  0  0  0  0  0  0  0  # atno 17394 bound_to 11000
  140.4776  134.6695  157.5157 LP  0  0  0  0  0  0  0  0  0  0  0  0  # atno 17395 bound_to 11000

$$$$
