AV-unprocessed.smi:1592|AV-procd|sdf|6402|dock6
  -GOLD-   22720 7 43D 1   1.00000     0.00000
 Structure written by MMmdl.
 27 28  0  0  0  0  0  0  0  0  1 V2000
  152.9717  139.1632  157.2744 O   0  0  0  0  0  0  0  0  0  0  0  0
  152.1761  139.7498  156.5396 C   0  0  0  0  0  0  0  0  0  0  0  0
  151.6395  140.9562  156.8006 N   0  0  0  0  0  0  0  0  0  0  0  0
  151.8668  141.8058  157.9187 C   0  0  0  0  0  0  0  0  0  0  0  0
  152.2737  141.3449  159.1282 N   0  0  0  0  0  0  0  0  0  0  0  0
  152.4668  142.2170  160.1392 C   0  0  0  0  0  0  0  0  0  0  0  0
  152.2677  143.6028  160.0081 C   0  0  0  0  0  0  0  0  0  0  0  0
  151.8468  144.0959  158.7609 C   0  0  0  0  0  0  0  0  0  0  0  0
  151.6429  143.1895  157.7009 C   0  0  0  0  0  0  0  0  0  0  0  0
  151.2331  143.6633  156.4851 O   0  0  0  0  0  0  0  0  0  0  0  0
  151.7184  139.0924  155.2324 C   0  0  1  0  0  0  0  0  0  0  0  0
  150.9952  137.7457  155.4239 C   0  0  0  0  0  0  0  0  0  0  0  0
  149.5609  138.0482  155.0363 C   0  0  0  0  0  0  0  0  0  0  0  0
  149.7392  139.1754  154.0298 C   0  0  0  0  0  0  0  0  0  0  0  0
  150.7715  139.9574  154.6085 O   0  0  0  0  0  0  0  0  0  0  0  0
  150.9880  141.3130  156.1165 H   0  0  0  0  0  0  0  0  0  0  0  0
  152.7896  141.7968  161.0801 H   0  0  0  0  0  0  0  0  0  0  0  0
  152.4331  144.2685  160.8422 H   0  0  0  0  0  0  0  0  0  0  0  0
  151.6826  145.1543  158.6208 H   0  0  0  0  0  0  0  0  0  0  0  0
  150.4369  144.1701  156.5341 H   0  0  0  0  0  0  0  0  0  0  0  0
  152.5681  138.9561  154.5611 H   0  0  0  0  0  0  0  0  0  0  0  0
  151.4168  137.0045  154.7438 H   0  0  0  0  0  0  0  0  0  0  0  0
  151.0676  137.3373  156.4330 H   0  0  0  0  0  0  0  0  0  0  0  0
  149.0362  137.1856  154.6252 H   0  0  0  0  0  0  0  0  0  0  0  0
  149.0060  138.4071  155.9040 H   0  0  0  0  0  0  0  0  0  0  0  0
  150.0688  138.7897  153.0639 H   0  0  0  0  0  0  0  0  0  0  0  0
  148.8295  139.7571  153.8799 H   0  0  0  0  0  0  0  0  0  0  0  0
  1  2  2  0  0  0  0
  2  3  1  0  0  0  0
  2 11  1  0  0  0  0
  3  4  1  0  0  0  0
  3 16  1  0  0  0  0
  4  9  1  0  0  0  0
  4  5  2  0  0  0  0
  5  6  1  0  0  0  0
  6  7  2  0  0  0  0
  6 17  1  0  0  0  0
  7  8  1  0  0  0  0
  7 18  1  0  0  0  0
  8  9  2  0  0  0  0
  8 19  1  0  0  0  0
  9 10  1  0  0  0  0
 10 20  1  0  0  0  0
 11 15  1  0  0  0  0
 11 12  1  0  0  0  0
 11 21  1  0  0  0  0
 12 13  1  0  0  0  0
 12 22  1  0  0  0  0
 12 23  1  0  0  0  0
 13 14  1  0  0  0  0
 13 24  1  0  0  0  0
 13 25  1  0  0  0  0
 14 15  1  0  0  0  0
 14 26  1  0  0  0  0
 14 27  1  0  0  0  0
M  END
> <s_m_source_file>
AV-unprocessed.smi

> <i_m_source_file_index>
1592

> <i_lp_mmshare_version>
43012

> <i_f3d_flags>
0

> <s_epik_input>
TzFbQ0gyXVtDSDJdW0NIMl1bQ0BIXTFDKD1PKVtOSF1jMm5bY0hdW2NIXVtjSF1jMltPSF0=

> <s_epik_cmdline>
J2VwaWtfcHl0aG9uJywgJy1waCcsICc3LjAnLCAnLXRuJywgJzgnLCAnLW1hJywgJzIwMCcsICctbWV0YWxfYmluZGluZycsICctaW1hZScsICc8aW5maWxlLm1hZT4nLCAnLW9tYWUnLCAnPG91dGZpbGUubWFlPic=

> <r_lp_tautomer_probability>
0.43658

> <r_epik_Ionization_Penalty>
0.0209102

> <r_epik_Ionization_Penalty_Charging>
0

> <r_epik_Ionization_Penalty_Neutral>
0.0209102

> <r_epik_State_Penalty>
0.412899

> <r_epik_Charging_Adjusted_Penalty>
0.412899

> <i_epik_Tot_Q>
0

> <i_epik_Tot_abs_Q>
0

> <r_epik_Metal_State_Penalty>
0.372161

> <b_epik_Metal_Only>
0

> <s_lp_Force_Field>
OPLS_2005

> <r_lp_Energy>
20.3979

> <b_lp_Chiralities_Consistent>
1

> <s_lp_Variant>
AV-unprocessed.smi:1592-2

> <Gold.Version>
5.8.1

> <Gold.Id.Protein>
6NUR|6NUR_protein|mol2

> <Gold.PLP.Fitness>
38.4630

> <Gold.PLP.PLP>
-30.1952

> <Gold.PLP.part.hbond>
-2.9726

> <Gold.PLP.part.metal>
0.0000

> <Gold.PLP.part.buried>
-2.9956

> <Gold.PLP.part.nonpolar>
-23.8764

> <Gold.PLP.part.repulsive>
0.2052

> <Gold.PLP.ligand.clash>
0.0000

> <Gold.PLP.ligand.torsion>
0.1418

> <Gold.PLP.Chemscore.Hbond>
2.8480

> <Gold.PLP.Chemscore.CHOScore>
0.0000

> <Gold.PLP.Chemscore.Metal>
0.0000

> <Gold.Chemscore.Hbonds>
donor molecule, donor type, donor heavy atom, donor atom, acceptor molecule, acceptor atom, score
      L1  H    10    20       P1  8028  0.94
      P1  H  7989  7998       L1    15  1.00
      P1  H  7997  8010       L1     1  0.90

> <Gold.PLP.Chemscore.Internal.Correction>
0.0074

> <Gold.Rescore>
     Score         DG    S(hbond)    S(metal)    S(lipo)     H(rot)  DE(clash)    DE(int)     intcor
     16.57     -18.06       2.46        0.00      69.69       1.47       0.15       1.34       ----

> <Gold.Chemscore.Fitness>
16.5654

> <Gold.Chemscore.DG>
-18.0600

> <Gold.Chemscore.ZeroCoef>
-5.4800

> <Gold.Chemscore.Hbond>
2.4553

> <Gold.Chemscore.Metal>
0.0000

> <Gold.Chemscore.Lipo>
69.6861

> <Gold.Chemscore.Internal_Hbond>
0.0000

> <Gold.Chemscore.DEClash>
0.1535

> <Gold.Chemscore.DEInternal>
1.3412

> <Gold.Chemscore.Rot>
1.4742

> <Gold.Chemscore.Internal.Correction>
   9.000000E+99

> <Gold.Chemscore.Hbonds>
donor molecule, donor type, donor heavy atom, donor atom, acceptor molecule, acceptor atom, score
      L1  H    10    20       P1  8028  0.91
      P1  H  7989  7998       L1    15  0.49
      P1  H  7997  8010       L1     1  0.18

> <Gold.Chemscore.Hbond.Weighted>
-8.2006

> <Gold.Chemscore.Metal.Weighted>
-0.0000

> <Gold.Chemscore.Lipo.Weighted>
-8.1533

> <Gold.Chemscore.Internal_Hbond.Weighted>
0.0000

> <Gold.Chemscore.DEClash.Weighted>
0.1535

> <Gold.Chemscore.DEInternal.Weighted>
1.3412

> <Gold.Chemscore.Rot.Weighted>
3.7739

> <Gold.Chemscore.Internal.Correction.Weighted>
   9.000000E+99

> <Gold.Protein.RotatedTorsions>
[ 6907 6896 6895 6894 ] final  142.25 input  -60.11 | X-H torsion
[ 7974 7965 7964 7962 ] final  171.58 input  175.53 | X-H torsion
[ 8008 7997 7996 7995 ] final   50.71 input   59.86 | X-H torsion
[ 10167 10162 10161 10158 ] final  -80.64 input  -65.29 | X-H torsion
[ 10718 10713 10712 10709 ] final   -9.14 input   66.30 | X-H torsion
[ 10763 10752 10751 10750 ] final   73.12 input  -60.55 | X-H torsion
[ 11005 11000 10999 10996 ] final  159.46 input  -57.11 | X-H torsion

> <Gold.Protein.ActiveResidues>
 VAL166  LYS551  ARG553  GLY616  TRP617  ASP618  TYR619  PRO620  LYS621  CYS622 
 ASP623  PHE694  ASN695  SER759  ASP760  ASP761  ALA762  ILE779  LEU786  VAL792 
 PHE793  MET794  SER795  GLU796  ALA797  LYS798  CYS799  TRP800  GLU811  SER814 

> <Gold.Protein.RotatedAtoms>
  152.2210  133.4984  159.5162 H   0  0  0  0  0  0  0  0  0  0  0  0  # atno 6907 bound_to 6896
  150.7013  134.1342  159.4090 H   0  0  0  0  0  0  0  0  0  0  0  0  # atno 6908 bound_to 6896
  151.9263  135.0276  160.0576 H   0  0  0  0  0  0  0  0  0  0  0  0  # atno 6909 bound_to 6896
  144.7291  139.9371  143.6427 H   0  0  0  0  0  0  0  0  0  0  0  0  # atno 7974 bound_to 7965
  155.4232  140.3447  155.4273 H   0  0  0  0  0  0  0  0  0  0  0  0  # atno 8008 bound_to 7997
  156.1380  140.1534  156.8995 H   0  0  0  0  0  0  0  0  0  0  0  0  # atno 8009 bound_to 7997
  154.4948  140.0831  156.7653 H   0  0  0  0  0  0  0  0  0  0  0  0  # atno 8010 bound_to 7997
  140.4485  143.2491  151.8524 H   0  0  0  0  0  0  0  0  0  0  0  0  # atno 10167 bound_to 10162
  156.6924  130.5069  149.5940 H   0  0  0  0  0  0  0  0  0  0  0  0  # atno 10718 bound_to 10713
  153.0502  135.5074  154.7847 H   0  0  0  0  0  0  0  0  0  0  0  0  # atno 10763 bound_to 10752
  154.6715  135.2954  154.9737 H   0  0  0  0  0  0  0  0  0  0  0  0  # atno 10764 bound_to 10752
  154.0554  135.6698  153.4858 H   0  0  0  0  0  0  0  0  0  0  0  0  # atno 10765 bound_to 10752
  140.1964  134.8370  157.2969 H   0  0  0  0  0  0  0  0  0  0  0  0  # atno 11005 bound_to 11000
  146.0813  139.3801  143.0462 LP  0  0  0  0  0  0  0  0  0  0  0  0  # atno 17320 bound_to 7965
  145.7836  140.9845  143.1086 LP  0  0  0  0  0  0  0  0  0  0  0  0  # atno 17321 bound_to 7965
  139.4794  144.5148  151.8883 LP  0  0  0  0  0  0  0  0  0  0  0  0  # atno 17342 bound_to 10162
  140.4235  144.2211  150.5887 LP  0  0  0  0  0  0  0  0  0  0  0  0  # atno 17343 bound_to 10162
  156.1788  130.6485  151.0926 LP  0  0  0  0  0  0  0  0  0  0  0  0  # atno 17370 bound_to 10713
  157.7004  131.0778  150.6838 LP  0  0  0  0  0  0  0  0  0  0  0  0  # atno 17371 bound_to 10713
  140.2103  134.4147  155.7616 LP  0  0  0  0  0  0  0  0  0  0  0  0  # atno 17394 bound_to 11000
  141.2227  133.7115  156.8326 LP  0  0  0  0  0  0  0  0  0  0  0  0  # atno 17395 bound_to 11000

$$$$
