AV-unprocessed.smi:37|AV-procd|sdf|322|dock2
  -GOLD-   2262016143D 1   1.00000     0.00000
 Structure written by MMmdl.
 43 44  0  0  0  0  0  0  0  0  2 V2000
  148.1378  133.0205  152.7384 C   0  0  0  0  0  0  0  0  0  0  0  0
  149.3138  132.5569  153.6109 C   0  0  0  0  0  0  0  0  0  0  0  0
  149.4539  133.3396  154.9181 C   0  0  0  0  0  0  0  0  0  0  0  0
  150.5358  133.7830  155.3073 O   0  0  0  0  0  0  0  0  0  0  0  0
  148.2765  133.4566  155.5574 O   0  0  0  0  0  0  0  0  0  0  0  0
  148.2018  134.0093  156.8675 C   0  0  0  0  0  0  0  0  0  0  0  0
  148.9144  135.3729  156.9299 C   0  0  1  0  0  0  0  0  0  0  0  0
  148.3204  136.2631  155.9893 O   0  0  0  0  0  0  0  0  0  0  0  0
  148.4486  137.5715  156.4507 C   0  0  2  0  0  0  0  0  0  0  0  0
  149.8072  138.1077  156.0121 N   0  0  0  0  0  0  0  0  0  0  0  0
  151.0121  137.5679  156.4414 C   0  0  0  0  0  0  0  0  0  0  0  0
  152.1941  138.0450  156.0010 C   0  0  0  0  0  0  0  0  0  0  0  0
  153.3409  137.4994  156.4415 F   0  0  0  0  0  0  0  0  0  0  0  0
  152.2191  139.1502  155.0470 C   0  0  0  0  0  0  0  0  0  0  0  0
  153.3006  139.5823  154.6516 O   0  0  0  0  0  0  0  0  0  0  0  0
  151.0238  139.6584  154.6324 N   0  5  0  0  0  0  0  0  0  0  0  0
  149.8244  139.1782  155.0735 C   0  0  0  0  0  0  0  0  0  0  0  0
  148.7443  139.6325  154.6956 O   0  0  0  0  0  0  0  0  0  0  0  0
  148.2517  137.4595  157.9659 C   0  0  1  0  0  0  0  0  0  0  0  0
  146.2870  137.3877  158.3165 Br  0  0  0  0  0  0  0  0  0  0  0  0
  148.9112  136.1127  158.2854 C   0  0  1  0  0  0  0  0  0  0  0  0
  148.2615  135.4076  159.3363 O   0  0  0  0  0  0  0  0  0  0  0  0
  148.3582  135.8286  160.6089 C   0  0  0  0  0  0  0  0  0  0  0  0
  148.8318  136.9014  160.9834 O   0  0  0  0  0  0  0  0  0  0  0  0
  147.7976  134.8132  161.6012 C   0  0  0  0  0  0  0  0  0  0  0  0
  147.7452  135.3727  163.0291 C   0  0  0  0  0  0  0  0  0  0  0  0
  148.0872  132.4337  151.8211 H   0  0  0  0  0  0  0  0  0  0  0  0
  148.2414  134.0682  152.4535 H   0  0  0  0  0  0  0  0  0  0  0  0
  147.1860  132.9030  153.2576 H   0  0  0  0  0  0  0  0  0  0  0  0
  149.1985  131.4999  153.8516 H   0  0  0  0  0  0  0  0  0  0  0  0
  150.2442  132.6518  153.0508 H   0  0  0  0  0  0  0  0  0  0  0  0
  147.1727  134.1248  157.2095 H   0  0  0  0  0  0  0  0  0  0  0  0
  148.6813  133.3127  157.5557 H   0  0  0  0  0  0  0  0  0  0  0  0
  149.9533  135.2289  156.6300 H   0  0  0  0  0  0  0  0  0  0  0  0
  147.7255  138.2455  155.9882 H   0  0  0  0  0  0  0  0  0  0  0  0
  151.0422  136.7528  157.1448 H   0  0  0  0  0  0  0  0  0  0  0  0
  148.6475  138.3136  158.5142 H   0  0  0  0  0  0  0  0  0  0  0  0
  149.9554  136.2696  158.5569 H   0  0  0  0  0  0  0  0  0  0  0  0
  146.7970  134.5254  161.2779 H   0  0  0  0  0  0  0  0  0  0  0  0
  148.4109  133.9121  161.5758 H   0  0  0  0  0  0  0  0  0  0  0  0
  147.3216  134.6384  163.7141 H   0  0  0  0  0  0  0  0  0  0  0  0
  147.1285  136.2697  163.0869 H   0  0  0  0  0  0  0  0  0  0  0  0
  148.7420  135.6277  163.3902 H   0  0  0  0  0  0  0  0  0  0  0  0
  1  2  1  0  0  0  0
  1 27  1  0  0  0  0
  1 28  1  0  0  0  0
  1 29  1  0  0  0  0
  2  3  1  0  0  0  0
  2 30  1  0  0  0  0
  2 31  1  0  0  0  0
  3  4  2  0  0  0  0
  3  5  1  0  0  0  0
  5  6  1  0  0  0  0
  6  7  1  0  0  0  0
  6 32  1  0  0  0  0
  6 33  1  0  0  0  0
  7 21  1  0  0  0  0
  7  8  1  0  0  0  0
  7 34  1  0  0  0  0
  8  9  1  0  0  0  0
  9 10  1  0  0  0  0
  9 19  1  0  0  0  0
  9 35  1  0  0  0  0
 10 17  1  0  0  0  0
 10 11  1  0  0  0  0
 11 12  2  0  0  0  0
 11 36  1  0  0  0  0
 12 13  1  0  0  0  0
 12 14  1  0  0  0  0
 14 15  2  0  0  0  0
 14 16  1  0  0  0  0
 16 17  1  0  0  0  0
 17 18  2  0  0  0  0
 19 20  1  0  0  0  0
 19 21  1  0  0  0  0
 19 37  1  0  0  0  0
 21 22  1  0  0  0  0
 21 38  1  0  0  0  0
 22 23  1  0  0  0  0
 23 24  2  0  0  0  0
 23 25  1  0  0  0  0
 25 26  1  0  0  0  0
 25 39  1  0  0  0  0
 25 40  1  0  0  0  0
 26 41  1  0  0  0  0
 26 42  1  0  0  0  0
 26 43  1  0  0  0  0
M  CHG  1  16  -1
M  END
> <s_m_source_file>
AV-unprocessed.smi

> <i_m_source_file_index>
37

> <i_lp_mmshare_version>
43012

> <i_f3d_flags>
0

> <s_epik_input>
W0NIM11bQ0gyXUMoPU8pT1tDSDJdW0NAQEhdMU9bQ0BASF0objJbY0hdYyhGKWMoPU8pW25IXWMyPU8pW0NAQEhdKEJyKVtDQEhdMU9DKD1PKVtDSDJdW0NIM10=

> <s_epik_cmdline>
J2VwaWtfcHl0aG9uJywgJy1waCcsICc3LjAnLCAnLXRuJywgJzgnLCAnLW1hJywgJzIwMCcsICctbWV0YWxfYmluZGluZycsICctaW1hZScsICc8aW5maWxlLm1hZT4nLCAnLW9tYWUnLCAnPG91dGZpbGUubWFlPic=

> <r_epik_Ionization_Penalty>
1.08158

> <r_epik_Ionization_Penalty_Charging>
9.05154e-09

> <r_epik_Ionization_Penalty_Neutral>
1.08158

> <r_epik_State_Penalty>
1.13706

> <r_epik_Charging_Adjusted_Penalty>
1.13706

> <i_epik_Tot_Q>
-1

> <i_epik_Tot_abs_Q>
1

> <r_epik_Metal_State_Penalty>
0.00343535

> <b_epik_Metal_Only>
0

> <s_epik_Chemistry_Notes>
This compound has an ester and may undergo hydrolysis at high or low pH. This compound contains an acetal/aminal-like group ( X-CH(R)-Y where X, Y are N, S, or O) that may be acid/base labile, releasing an aldehyde.

> <s_lp_Force_Field>
OPLS_2005

> <r_lp_Energy>
33.8025

> <b_lp_Chiralities_Consistent>
1

> <s_lp_Variant>
AV-unprocessed.smi:37-20

> <Gold.Version>
5.8.1

> <Gold.Id.Protein>
6NUR|6NUR_protein|mol2

> <Gold.PLP.Fitness>
41.5651

> <Gold.PLP.PLP>
-33.0465

> <Gold.PLP.part.hbond>
-4.8362

> <Gold.PLP.part.metal>
0.0000

> <Gold.PLP.part.buried>
-4.9898

> <Gold.PLP.part.nonpolar>
-24.5712

> <Gold.PLP.part.repulsive>
0.3351

> <Gold.PLP.ligand.clash>
0.0000

> <Gold.PLP.ligand.torsion>
0.5056

> <Gold.PLP.Chemscore.Hbond>
3.1059

> <Gold.PLP.Chemscore.CHOScore>
0.0000

> <Gold.PLP.Chemscore.Metal>
0.0000

> <Gold.Chemscore.Hbonds>
donor molecule, donor type, donor heavy atom, donor atom, acceptor molecule, acceptor atom, score
      P1  H  6931  6943       L1    24  0.99
      P1  H  7989  7998       L1    16  0.90
      P1  H  7997  8010       L1    15  1.00

> <Gold.PLP.Chemscore.Internal.Correction>
0.2123

> <Gold.Rescore>
     Score         DG    S(hbond)    S(metal)    S(lipo)     H(rot)  DE(clash)    DE(int)     intcor
     11.00     -13.47       3.43        0.00      41.73       3.27       0.04       2.42       ----

> <Gold.Chemscore.Fitness>
10.9969

> <Gold.Chemscore.DG>
-13.4655

> <Gold.Chemscore.ZeroCoef>
-5.4800

> <Gold.Chemscore.Hbond>
3.4329

> <Gold.Chemscore.Metal>
0.0000

> <Gold.Chemscore.Lipo>
41.7342

> <Gold.Chemscore.Internal_Hbond>
0.0000

> <Gold.Chemscore.DEClash>
0.0447

> <Gold.Chemscore.DEInternal>
2.4239

> <Gold.Chemscore.Rot>
3.2669

> <Gold.Chemscore.Internal.Correction>
   9.000000E+99

> <Gold.Chemscore.Hbonds>
donor molecule, donor type, donor heavy atom, donor atom, acceptor molecule, acceptor atom, score
      P1  H  6931  6943       L1    24  0.94
      P1  H  7989  7998       L1    16  0.18
      P1  H  7997  8010       L1    15  0.96

> <Gold.Chemscore.Hbond.Weighted>
-11.4659

> <Gold.Chemscore.Metal.Weighted>
-0.0000

> <Gold.Chemscore.Lipo.Weighted>
-4.8829

> <Gold.Chemscore.Internal_Hbond.Weighted>
0.0000

> <Gold.Chemscore.DEClash.Weighted>
0.0447

> <Gold.Chemscore.DEInternal.Weighted>
2.4239

> <Gold.Chemscore.Rot.Weighted>
8.3634

> <Gold.Chemscore.Internal.Correction.Weighted>
   9.000000E+99

> <Gold.Protein.RotatedTorsions>
[ 6907 6896 6895 6894 ] final -124.67 input  -60.11 | X-H torsion
[ 7974 7965 7964 7962 ] final -178.78 input  175.53 | X-H torsion
[ 8008 7997 7996 7995 ] final  133.27 input   59.86 | X-H torsion
[ 10167 10162 10161 10158 ] final  149.98 input  -65.29 | X-H torsion
[ 10718 10713 10712 10709 ] final  105.56 input   66.30 | X-H torsion
[ 10763 10752 10751 10750 ] final  -46.87 input  -60.55 | X-H torsion
[ 11005 11000 10999 10996 ] final  -70.01 input  -57.11 | X-H torsion

> <Gold.Protein.ActiveResidues>
 VAL166  LYS551  ARG553  GLY616  TRP617  ASP618  TYR619  PRO620  LYS621  CYS622 
 ASP623  PHE694  ASN695  SER759  ASP760  ASP761  ALA762  ILE779  LEU786  VAL792 
 PHE793  MET794  SER795  GLU796  ALA797  LYS798  CYS799  TRP800  GLU811  SER814 

> <Gold.Protein.RotatedAtoms>
  150.8791  133.7397  159.2937 H   0  0  0  0  0  0  0  0  0  0  0  0  # atno 6907 bound_to 6896
  151.4985  135.1059  159.9832 H   0  0  0  0  0  0  0  0  0  0  0  0  # atno 6908 bound_to 6896
  152.4747  133.8066  159.7036 H   0  0  0  0  0  0  0  0  0  0  0  0  # atno 6909 bound_to 6896
  144.7132  140.0817  143.6425 H   0  0  0  0  0  0  0  0  0  0  0  0  # atno 7974 bound_to 7965
  156.2991  140.2525  156.3226 H   0  0  0  0  0  0  0  0  0  0  0  0  # atno 8008 bound_to 7997
  154.9221  140.0400  157.2022 H   0  0  0  0  0  0  0  0  0  0  0  0  # atno 8009 bound_to 7997
  154.8301  140.2874  155.5732 H   0  0  0  0  0  0  0  0  0  0  0  0  # atno 8010 bound_to 7997
  139.4855  144.5558  151.7320 H   0  0  0  0  0  0  0  0  0  0  0  0  # atno 10167 bound_to 10162
  157.6701  131.0830  150.5875 H   0  0  0  0  0  0  0  0  0  0  0  0  # atno 10718 bound_to 10713
  154.0520  135.6630  153.4801 H   0  0  0  0  0  0  0  0  0  0  0  0  # atno 10763 bound_to 10752
  153.0460  135.5114  154.7741 H   0  0  0  0  0  0  0  0  0  0  0  0  # atno 10764 bound_to 10752
  154.6751  135.3036  154.9656 H   0  0  0  0  0  0  0  0  0  0  0  0  # atno 10765 bound_to 10752
  141.1565  133.6779  156.6687 H   0  0  0  0  0  0  0  0  0  0  0  0  # atno 11005 bound_to 11000
  145.9696  139.2860  143.1107 LP  0  0  0  0  0  0  0  0  0  0  0  0  # atno 17320 bound_to 7965
  145.9131  140.9166  143.0443 LP  0  0  0  0  0  0  0  0  0  0  0  0  # atno 17321 bound_to 7965
  140.5120  144.1011  150.5997 LP  0  0  0  0  0  0  0  0  0  0  0  0  # atno 17342 bound_to 10162
  140.3940  143.2738  152.0027 LP  0  0  0  0  0  0  0  0  0  0  0  0  # atno 17343 bound_to 10162
  156.6176  130.4397  149.5835 LP  0  0  0  0  0  0  0  0  0  0  0  0  # atno 17370 bound_to 10713
  156.2381  130.6835  151.1529 LP  0  0  0  0  0  0  0  0  0  0  0  0  # atno 17371 bound_to 10713
  140.3191  134.8022  157.4238 LP  0  0  0  0  0  0  0  0  0  0  0  0  # atno 17394 bound_to 11000
  140.1112  134.5343  155.8264 LP  0  0  0  0  0  0  0  0  0  0  0  0  # atno 17395 bound_to 11000

$$$$
