AV-unprocessed.smi:3043|AV-procd|sdf|11604|dock6
  -GOLD-   2272016583D 1   1.00000     0.00000
 Structure written by MMmdl.
 44 45  0  0  0  0  0  0  0  0  2 V2000
  152.1811  144.2037  161.6859 C   0  0  0  0  0  0  0  0  0  0  0  0
  152.7397  143.0472  160.8538 C   0  0  0  0  0  0  0  0  0  0  0  0
  153.3898  142.1784  161.4350 O   0  0  0  0  0  0  0  0  0  0  0  0
  152.5015  143.0136  159.5203 N   0  0  0  0  0  0  0  0  0  0  0  0
  152.9461  141.9083  158.6633 C   0  0  0  0  0  0  0  0  0  0  0  0
  151.7135  141.1099  158.2026 C   0  0  0  0  0  0  0  0  0  0  0  0
  150.6959  142.0148  157.4730 C   0  0  0  0  0  0  0  0  0  0  0  0
  149.4245  141.2307  157.1010 C   0  0  0  0  0  0  0  0  0  0  0  0
  148.3971  142.1151  156.5100 N   0  3  0  0  0  0  0  0  0  0  0  0
  147.7264  141.5944  155.2976 C   0  0  1  0  0  0  0  0  0  0  0  0
  146.6342  142.5869  154.8633 C   0  0  0  0  0  0  0  0  0  0  0  0
  148.7503  141.2985  154.1768 C   0  0  0  0  0  0  0  0  0  0  0  0
  149.5323  140.1003  154.4248 N   0  0  0  0  0  0  0  0  0  0  0  0
  149.1152  138.7861  154.4035 C   0  0  0  0  0  0  0  0  0  0  0  0
  150.2005  138.0110  154.6966 C   0  0  0  0  0  0  0  0  0  0  0  0
  151.2482  138.9545  154.8881 C   0  0  0  0  0  0  0  0  0  0  0  0
  150.8448  140.2042  154.7257 N   0  0  0  0  0  0  0  0  0  0  0  0
  150.3837  143.2700  158.3224 C   0  0  0  0  0  0  0  0  0  0  0  0
  151.6745  143.9739  158.7791 C   0  0  0  0  0  0  0  0  0  0  0  0
  151.0939  144.2446  161.6121 H   0  0  0  0  0  0  0  0  0  0  0  0
  152.5964  145.1556  161.3541 H   0  0  0  0  0  0  0  0  0  0  0  0
  152.4380  144.0783  162.7382 H   0  0  0  0  0  0  0  0  0  0  0  0
  153.4782  142.3113  157.8005 H   0  0  0  0  0  0  0  0  0  0  0  0
  153.6523  141.2433  159.1624 H   0  0  0  0  0  0  0  0  0  0  0  0
  152.0276  140.2958  157.5487 H   0  0  0  0  0  0  0  0  0  0  0  0
  151.2409  140.6445  159.0691 H   0  0  0  0  0  0  0  0  0  0  0  0
  151.1699  142.3476  156.5480 H   0  0  0  0  0  0  0  0  0  0  0  0
  149.6775  140.4523  156.3816 H   0  0  0  0  0  0  0  0  0  0  0  0
  149.0207  140.7320  157.9833 H   0  0  0  0  0  0  0  0  0  0  0  0
  147.6849  142.2530  157.2127 H   0  0  0  0  0  0  0  0  0  0  0  0
  147.2251  140.6636  155.5676 H   0  0  0  0  0  0  0  0  0  0  0  0
  146.0353  142.1933  154.0417 H   0  0  0  0  0  0  0  0  0  0  0  0
  147.0661  143.5336  154.5367 H   0  0  0  0  0  0  0  0  0  0  0  0
  145.9488  142.7997  155.6843 H   0  0  0  0  0  0  0  0  0  0  0  0
  148.2388  141.1911  153.2186 H   0  0  0  0  0  0  0  0  0  0  0  0
  149.4500  142.1264  154.0626 H   0  0  0  0  0  0  0  0  0  0  0  0
  148.0935  138.5142  154.1825 H   0  0  0  0  0  0  0  0  0  0  0  0
  150.2401  136.9340  154.7654 H   0  0  0  0  0  0  0  0  0  0  0  0
  152.2825  138.7696  155.1386 H   0  0  0  0  0  0  0  0  0  0  0  0
  149.7714  143.9705  157.7537 H   0  0  0  0  0  0  0  0  0  0  0  0
  149.7978  142.9893  159.1991 H   0  0  0  0  0  0  0  0  0  0  0  0
  151.4253  144.8675  159.3493 H   0  0  0  0  0  0  0  0  0  0  0  0
  152.2315  144.3301  157.9114 H   0  0  0  0  0  0  0  0  0  0  0  0
  148.8114  143.0113  156.2969 H   0  0  0  0  0  0  0  0  0  0  0  0
  1  2  1  0  0  0  0
  1 20  1  0  0  0  0
  1 21  1  0  0  0  0
  1 22  1  0  0  0  0
  2  3  2  0  0  0  0
  2  4  1  0  0  0  0
  4 19  1  0  0  0  0
  4  5  1  0  0  0  0
  5  6  1  0  0  0  0
  5 23  1  0  0  0  0
  5 24  1  0  0  0  0
  6  7  1  0  0  0  0
  6 25  1  0  0  0  0
  6 26  1  0  0  0  0
  7  8  1  0  0  0  0
  7 18  1  0  0  0  0
  7 27  1  0  0  0  0
  8  9  1  0  0  0  0
  8 28  1  0  0  0  0
  8 29  1  0  0  0  0
  9 10  1  0  0  0  0
  9 30  1  0  0  0  0
  9 44  1  0  0  0  0
 10 11  1  0  0  0  0
 10 12  1  0  0  0  0
 10 31  1  0  0  0  0
 11 32  1  0  0  0  0
 11 33  1  0  0  0  0
 11 34  1  0  0  0  0
 12 13  1  0  0  0  0
 12 35  1  0  0  0  0
 12 36  1  0  0  0  0
 13 17  1  0  0  0  0
 13 14  1  0  0  0  0
 14 15  2  0  0  0  0
 14 37  1  0  0  0  0
 15 16  1  0  0  0  0
 15 38  1  0  0  0  0
 16 17  2  0  0  0  0
 16 39  1  0  0  0  0
 18 19  1  0  0  0  0
 18 40  1  0  0  0  0
 18 41  1  0  0  0  0
 19 42  1  0  0  0  0
 19 43  1  0  0  0  0
M  CHG  1   9   1
M  END
> <s_m_source_file>
AV-unprocessed.smi

> <i_m_source_file_index>
3043

> <i_lp_mmshare_version>
43012

> <i_f3d_flags>
0

> <s_epik_input>
W0NIM11DKD1PKU4xW0NIMl1bQ0gyXVtDSF0oW0NIMl1bQ0gyXTEpW0NIMl1bTkhdW0NASF0oW0NIM10pW0NIMl1uMltjSF1bY0hdW2NIXW4y

> <s_epik_cmdline>
J2VwaWtfcHl0aG9uJywgJy1waCcsICc3LjAnLCAnLXRuJywgJzgnLCAnLW1hJywgJzIwMCcsICctbWV0YWxfYmluZGluZycsICctaW1hZScsICc8aW5maWxlLm1hZT4nLCAnLW9tYWUnLCAnPG91dGZpbGUubWFlPic=

> <r_lp_tautomer_probability>
1

> <r_epik_Ionization_Penalty>
0.00300549

> <r_epik_Ionization_Penalty_Charging>
0.00299781

> <r_epik_Ionization_Penalty_Neutral>
7.6831e-06

> <r_epik_State_Penalty>
0.00210473

> <r_epik_Charging_Adjusted_Penalty>
0.00510254

> <i_epik_Tot_Q>
1

> <i_epik_Tot_abs_Q>
1

> <r_epik_Metal_State_Penalty>
-0

> <b_epik_Metal_Only>
0

> <s_lp_Force_Field>
OPLS_2005

> <r_lp_Energy>
28.9571

> <b_lp_Chiralities_Consistent>
1

> <s_lp_Variant>
AV-unprocessed.smi:3043-2

> <Gold.Version>
5.8.1

> <Gold.Id.Protein>
6NUR|6NUR_protein|mol2

> <Gold.PLP.Fitness>
51.2931

> <Gold.PLP.PLP>
-43.3873

> <Gold.PLP.part.hbond>
-2.0000

> <Gold.PLP.part.metal>
0.0000

> <Gold.PLP.part.buried>
-4.2112

> <Gold.PLP.part.nonpolar>
-36.2928

> <Gold.PLP.part.repulsive>
0.1024

> <Gold.PLP.ligand.clash>
0.0000

> <Gold.PLP.ligand.torsion>
0.5664

> <Gold.PLP.Chemscore.Hbond>
3.0000

> <Gold.PLP.Chemscore.CHOScore>
0.0000

> <Gold.PLP.Chemscore.Metal>
0.0000

> <Gold.Chemscore.Hbonds>
donor molecule, donor type, donor heavy atom, donor atom, acceptor molecule, acceptor atom, score
      L1  H     9    44       P1  8028  2.00
      P1  H  7989  7998       L1    17  1.00

> <Gold.PLP.Chemscore.Internal.Correction>
0.0386

> <Gold.Rescore>
     Score         DG    S(hbond)    S(metal)    S(lipo)     H(rot)  DE(clash)    DE(int)     intcor
     16.61     -18.59       1.93        0.00      94.95       1.74       0.30       1.68       ----

> <Gold.Chemscore.Fitness>
16.6091

> <Gold.Chemscore.DG>
-18.5867

> <Gold.Chemscore.ZeroCoef>
-5.4800

> <Gold.Chemscore.Hbond>
1.9334

> <Gold.Chemscore.Metal>
0.0000

> <Gold.Chemscore.Lipo>
94.9495

> <Gold.Chemscore.Internal_Hbond>
0.0000

> <Gold.Chemscore.DEClash>
0.3018

> <Gold.Chemscore.DEInternal>
1.6758

> <Gold.Chemscore.Rot>
1.7422

> <Gold.Chemscore.Internal.Correction>
   9.000000E+99

> <Gold.Chemscore.Hbonds>
donor molecule, donor type, donor heavy atom, donor atom, acceptor molecule, acceptor atom, score
      L1  H     9    44       P1  8028  0.97
      P1  H  7989  7998       L1    17  0.55

> <Gold.Chemscore.Hbond.Weighted>
-6.4575

> <Gold.Chemscore.Metal.Weighted>
-0.0000

> <Gold.Chemscore.Lipo.Weighted>
-11.1091

> <Gold.Chemscore.Internal_Hbond.Weighted>
0.0000

> <Gold.Chemscore.DEClash.Weighted>
0.3018

> <Gold.Chemscore.DEInternal.Weighted>
1.6758

> <Gold.Chemscore.Rot.Weighted>
4.4600

> <Gold.Chemscore.Internal.Correction.Weighted>
   9.000000E+99

> <Gold.Protein.RotatedTorsions>
[ 6907 6896 6895 6894 ] final  -77.06 input  -60.11 | X-H torsion
[ 7974 7965 7964 7962 ] final -137.45 input  175.53 | X-H torsion
[ 8008 7997 7996 7995 ] final -100.41 input   59.86 | X-H torsion
[ 10167 10162 10161 10158 ] final  161.81 input  -65.29 | X-H torsion
[ 10718 10713 10712 10709 ] final  -21.00 input   66.30 | X-H torsion
[ 10763 10752 10751 10750 ] final   83.24 input  -60.55 | X-H torsion
[ 11005 11000 10999 10996 ] final -164.18 input  -57.11 | X-H torsion

> <Gold.Protein.ActiveResidues>
 VAL166  LYS551  ARG553  GLY616  TRP617  ASP618  TYR619  PRO620  LYS621  CYS622 
 ASP623  PHE694  ASN695  SER759  ASP760  ASP761  ALA762  ILE779  LEU786  VAL792 
 PHE793  MET794  SER795  GLU796  ALA797  LYS798  CYS799  TRP800  GLU811  SER814 

> <Gold.Protein.RotatedAtoms>
  150.7009  134.4479  159.5322 H   0  0  0  0  0  0  0  0  0  0  0  0  # atno 6907 bound_to 6896
  152.2177  134.8439  160.0499 H   0  0  0  0  0  0  0  0  0  0  0  0  # atno 6908 bound_to 6896
  151.9301  133.3574  159.3965 H   0  0  0  0  0  0  0  0  0  0  0  0  # atno 6909 bound_to 6896
  144.8841  140.6550  143.5187 H   0  0  0  0  0  0  0  0  0  0  0  0  # atno 7974 bound_to 7965
  154.8283  140.0441  157.1459 H   0  0  0  0  0  0  0  0  0  0  0  0  # atno 8008 bound_to 7997
  154.9182  140.3023  155.5210 H   0  0  0  0  0  0  0  0  0  0  0  0  # atno 8009 bound_to 7997
  156.2985  140.2345  156.4228 H   0  0  0  0  0  0  0  0  0  0  0  0  # atno 8010 bound_to 7997
  139.4853  144.4499  151.8843 H   0  0  0  0  0  0  0  0  0  0  0  0  # atno 10167 bound_to 10162
  156.5241  130.4639  149.6581 H   0  0  0  0  0  0  0  0  0  0  0  0  # atno 10718 bound_to 10713
  153.1273  135.4698  154.9293 H   0  0  0  0  0  0  0  0  0  0  0  0  # atno 10763 bound_to 10752
  154.7632  135.3137  154.8340 H   0  0  0  0  0  0  0  0  0  0  0  0  # atno 10764 bound_to 10752
  153.8890  135.6886  153.4815 H   0  0  0  0  0  0  0  0  0  0  0  0  # atno 10765 bound_to 10752
  140.5898  134.5057  157.5191 H   0  0  0  0  0  0  0  0  0  0  0  0  # atno 11005 bound_to 11000
  145.3901  139.1618  143.4234 LP  0  0  0  0  0  0  0  0  0  0  0  0  # atno 17320 bound_to 7965
  146.3013  140.3989  142.8703 LP  0  0  0  0  0  0  0  0  0  0  0  0  # atno 17321 bound_to 7965
  140.3955  144.2560  150.5896 LP  0  0  0  0  0  0  0  0  0  0  0  0  # atno 17342 bound_to 10162
  140.5106  143.2292  151.8541 LP  0  0  0  0  0  0  0  0  0  0  0  0  # atno 17343 bound_to 10162
  156.3122  130.7235  151.2130 LP  0  0  0  0  0  0  0  0  0  0  0  0  # atno 17370 bound_to 10713
  157.7432  131.0478  150.4964 LP  0  0  0  0  0  0  0  0  0  0  0  0  # atno 17371 bound_to 10713
  139.9279  134.8020  156.1014 LP  0  0  0  0  0  0  0  0  0  0  0  0  # atno 17394 bound_to 11000
  141.0942  133.6702  156.2609 LP  0  0  0  0  0  0  0  0  0  0  0  0  # atno 17395 bound_to 11000

$$$$
