AV-unprocessed.smi:2492|AV-procd|sdf|9813|dock5
  -GOLD-   2272013443D 1   1.00000     0.00000
 Structure written by MMmdl.
 33 34  0  0  0  0  0  0  0  0  1 V2000
  144.2149  132.5976  148.9474 C   0  0  0  0  0  0  0  0  0  0  0  0
  145.8580  132.2299  149.6181 S   0  0  0  0  0  0  0  0  0  0  0  0
  145.5694  132.5577  151.3811 C   0  0  2  0  0  0  0  0  0  0  0  0
  145.0282  133.9607  151.6517 C   0  0  0  0  0  0  0  0  0  0  0  0
  145.3354  134.1999  153.1302 C   0  0  0  0  0  0  0  0  0  0  0  0
  146.6217  133.4087  153.4302 C   0  0  2  0  0  0  0  0  0  0  0  0
  147.7446  134.3166  153.6498 N   0  0  0  0  0  0  0  0  0  0  0  0
  148.4228  134.4334  154.8006 C   0  0  0  0  0  0  0  0  0  0  0  0
  148.1645  133.7774  155.8102 O   0  0  0  0  0  0  0  0  0  0  0  0
  149.4051  135.3445  154.6984 N   0  0  0  0  0  0  0  0  0  0  0  0
  150.3257  135.7421  155.7007 C   0  0  0  0  0  0  0  0  0  0  0  0
  151.3924  136.5245  155.5343 N   0  0  0  0  0  0  0  0  0  0  0  0
  151.8871  136.5565  156.8023 C   0  0  0  0  0  0  0  0  0  0  0  0
  153.1114  137.3211  157.1738 C   0  0  0  0  0  0  0  0  0  0  0  0
  151.2074  135.8645  157.7096 N   0  0  0  0  0  0  0  0  0  0  0  0
  150.1519  135.3088  156.9713 O   0  0  0  0  0  0  0  0  0  0  0  0
  146.8558  132.4949  152.2094 C   0  0  0  0  0  0  0  0  0  0  0  0
  144.2010  132.4200  147.8722 H   0  0  0  0  0  0  0  0  0  0  0  0
  143.9500  133.6395  149.1262 H   0  0  0  0  0  0  0  0  0  0  0  0
  143.4620  131.9608  149.4121 H   0  0  0  0  0  0  0  0  0  0  0  0
  144.8659  131.8190  151.7682 H   0  0  0  0  0  0  0  0  0  0  0  0
  145.5628  134.6920  151.0438 H   0  0  0  0  0  0  0  0  0  0  0  0
  143.9649  134.0539  151.4296 H   0  0  0  0  0  0  0  0  0  0  0  0
  145.4134  135.2623  153.3650 H   0  0  0  0  0  0  0  0  0  0  0  0
  144.5200  133.7993  153.7342 H   0  0  0  0  0  0  0  0  0  0  0  0
  146.4611  132.8062  154.3264 H   0  0  0  0  0  0  0  0  0  0  0  0
  148.0245  134.8918  152.8687 H   0  0  0  0  0  0  0  0  0  0  0  0
  149.5071  135.8045  153.8060 H   0  0  0  0  0  0  0  0  0  0  0  0
  153.7178  136.7532  157.8803 H   0  0  0  0  0  0  0  0  0  0  0  0
  152.8360  138.2694  157.6355 H   0  0  0  0  0  0  0  0  0  0  0  0
  153.7172  137.5290  156.2913 H   0  0  0  0  0  0  0  0  0  0  0  0
  147.1021  131.4740  152.5030 H   0  0  0  0  0  0  0  0  0  0  0  0
  147.6916  132.8661  151.6134 H   0  0  0  0  0  0  0  0  0  0  0  0
  1  2  1  0  0  0  0
  1 18  1  0  0  0  0
  1 19  1  0  0  0  0
  1 20  1  0  0  0  0
  2  3  1  0  0  0  0
  3 17  1  0  0  0  0
  3  4  1  0  0  0  0
  3 21  1  0  0  0  0
  4  5  1  0  0  0  0
  4 22  1  0  0  0  0
  4 23  1  0  0  0  0
  5  6  1  0  0  0  0
  5 24  1  0  0  0  0
  5 25  1  0  0  0  0
  6  7  1  0  0  0  0
  6 17  1  0  0  0  0
  6 26  1  0  0  0  0
  7  8  1  0  0  0  0
  7 27  1  0  0  0  0
  8  9  2  0  0  0  0
  8 10  1  0  0  0  0
 10 11  1  0  0  0  0
 10 28  1  0  0  0  0
 11 16  1  0  0  0  0
 11 12  2  0  0  0  0
 12 13  1  0  0  0  0
 13 14  1  0  0  0  0
 13 15  2  0  0  0  0
 14 29  1  0  0  0  0
 14 30  1  0  0  0  0
 14 31  1  0  0  0  0
 15 16  1  0  0  0  0
 17 32  1  0  0  0  0
 17 33  1  0  0  0  0
M  END
> <s_m_source_file>
AV-unprocessed.smi

> <i_m_source_file_index>
2492

> <i_lp_mmshare_version>
43012

> <i_f3d_flags>
0

> <s_epik_input>
W0NIM11TW0NAQEhdMVtDSDJdW0NIMl1bQ0BIXShbQ0gyXTEpW05IXUMoPU8pW05IXWMybmMoW0NIM10pbm8y

> <s_epik_cmdline>
J2VwaWtfcHl0aG9uJywgJy1waCcsICc3LjAnLCAnLXRuJywgJzgnLCAnLW1hJywgJzIwMCcsICctbWV0YWxfYmluZGluZycsICctaW1hZScsICc8aW5maWxlLm1hZT4nLCAnLW9tYWUnLCAnPG91dGZpbGUubWFlPic=

> <r_lp_tautomer_probability>
1

> <r_epik_Ionization_Penalty>
3.56659e-05

> <r_epik_Ionization_Penalty_Charging>
0

> <r_epik_Ionization_Penalty_Neutral>
3.56659e-05

> <r_epik_State_Penalty>
-0

> <r_epik_Charging_Adjusted_Penalty>
0

> <i_epik_Tot_Q>
0

> <i_epik_Tot_abs_Q>
0

> <r_epik_Metal_State_Penalty>
0.0146047

> <b_epik_Metal_Only>
0

> <s_lp_Force_Field>
OPLS_2005

> <r_lp_Energy>
15.0837

> <b_lp_Chiralities_Consistent>
1

> <s_lp_Variant>
AV-unprocessed.smi:2492-3

> <Gold.Version>
5.8.1

> <Gold.Id.Protein>
6NUR|6NUR_protein|mol2

> <Gold.PLP.Fitness>
33.2727

> <Gold.PLP.PLP>
-24.0060

> <Gold.PLP.part.hbond>
-4.0000

> <Gold.PLP.part.metal>
0.0000

> <Gold.PLP.part.buried>
-3.6122

> <Gold.PLP.part.nonpolar>
-16.1911

> <Gold.PLP.part.repulsive>
0.1242

> <Gold.PLP.ligand.clash>
0.0000

> <Gold.PLP.ligand.torsion>
0.0559

> <Gold.PLP.Chemscore.Hbond>
3.1248

> <Gold.PLP.Chemscore.CHOScore>
0.0000

> <Gold.PLP.Chemscore.Metal>
0.0000

> <Gold.Chemscore.Hbonds>
donor molecule, donor type, donor heavy atom, donor atom, acceptor molecule, acceptor atom, score
      L1  H     7    27       P1  7948  1.00
      L1  H    10    28       P1  7948  0.99
      P1  H  6896  6908       L1    15  0.17
      P1  H 10752 10765       L1    12  0.93

> <Gold.PLP.Chemscore.Internal.Correction>
0.0041

> <Gold.Rescore>
     Score         DG    S(hbond)    S(metal)    S(lipo)     H(rot)  DE(clash)    DE(int)     intcor
     15.12     -16.76       2.51        0.00      52.74       1.28       0.13       1.51       ----

> <Gold.Chemscore.Fitness>
15.1249

> <Gold.Chemscore.DG>
-16.7629

> <Gold.Chemscore.ZeroCoef>
-5.4800

> <Gold.Chemscore.Hbond>
2.5129

> <Gold.Chemscore.Metal>
0.0000

> <Gold.Chemscore.Lipo>
52.7409

> <Gold.Chemscore.Internal_Hbond>
0.0000

> <Gold.Chemscore.DEClash>
0.1263

> <Gold.Chemscore.DEInternal>
1.5117

> <Gold.Chemscore.Rot>
1.2815

> <Gold.Chemscore.Internal.Correction>
   9.000000E+99

> <Gold.Chemscore.Hbonds>
donor molecule, donor type, donor heavy atom, donor atom, acceptor molecule, acceptor atom, score
      L1  H     7    27       P1  7948  0.90
      L1  H    10    28       P1  7948  0.36
      P1  H  6896  6908       L1    15  0.06
      P1  H 10752 10765       L1    12  0.27

> <Gold.Chemscore.Hbond.Weighted>
-8.3929

> <Gold.Chemscore.Metal.Weighted>
-0.0000

> <Gold.Chemscore.Lipo.Weighted>
-6.1707

> <Gold.Chemscore.Internal_Hbond.Weighted>
0.0000

> <Gold.Chemscore.DEClash.Weighted>
0.1263

> <Gold.Chemscore.DEInternal.Weighted>
1.5117

> <Gold.Chemscore.Rot.Weighted>
3.2808

> <Gold.Chemscore.Internal.Correction.Weighted>
   9.000000E+99

> <Gold.Protein.RotatedTorsions>
[ 6907 6896 6895 6894 ] final -164.81 input  -60.11 | X-H torsion
[ 7974 7965 7964 7962 ] final -122.55 input  175.53 | X-H torsion
[ 8008 7997 7996 7995 ] final  -56.40 input   59.86 | X-H torsion
[ 10167 10162 10161 10158 ] final   68.42 input  -65.29 | X-H torsion
[ 10718 10713 10712 10709 ] final -131.36 input   66.30 | X-H torsion
[ 10763 10752 10751 10750 ] final  173.60 input  -60.55 | X-H torsion
[ 11005 11000 10999 10996 ] final    9.86 input  -57.11 | X-H torsion

> <Gold.Protein.ActiveResidues>
 VAL166  LYS551  ARG553  GLY616  TRP617  ASP618  TYR619  PRO620  LYS621  CYS622 
 ASP623  PHE694  ASN695  SER759  ASP760  ASP761  ALA762  ILE779  LEU786  VAL792 
 PHE793  MET794  SER795  GLU796  ALA797  LYS798  CYS799  TRP800  GLU811  SER814 

> <Gold.Protein.RotatedAtoms>
  151.4178  133.3707  159.2751 H   0  0  0  0  0  0  0  0  0  0  0  0  # atno 6907 bound_to 6896
  150.9316  134.8732  159.7565 H   0  0  0  0  0  0  0  0  0  0  0  0  # atno 6908 bound_to 6896
  152.5030  134.4123  159.9505 H   0  0  0  0  0  0  0  0  0  0  0  0  # atno 6909 bound_to 6896
  145.0282  140.8046  143.4339 H   0  0  0  0  0  0  0  0  0  0  0  0  # atno 7974 bound_to 7965
  154.4229  140.1130  156.5631 H   0  0  0  0  0  0  0  0  0  0  0  0  # atno 8008 bound_to 7997
  155.6290  140.3495  155.4658 H   0  0  0  0  0  0  0  0  0  0  0  0  # atno 8009 bound_to 7997
  155.9963  140.1190  157.0580 H   0  0  0  0  0  0  0  0  0  0  0  0  # atno 8010 bound_to 7997
  140.0789  144.5088  150.7176 H   0  0  0  0  0  0  0  0  0  0  0  0  # atno 10167 bound_to 10162
  156.2237  130.6994  151.0784 H   0  0  0  0  0  0  0  0  0  0  0  0  # atno 10718 bound_to 10713
  154.4423  135.2762  155.1839 H   0  0  0  0  0  0  0  0  0  0  0  0  # atno 10763 bound_to 10752
  154.3700  135.6110  153.5739 H   0  0  0  0  0  0  0  0  0  0  0  0  # atno 10764 bound_to 10752
  152.9841  135.5855  154.4752 H   0  0  0  0  0  0  0  0  0  0  0  0  # atno 10765 bound_to 10752
  140.5209  134.0559  155.7844 H   0  0  0  0  0  0  0  0  0  0  0  0  # atno 11005 bound_to 11000
  145.1805  139.2354  143.5295 LP  0  0  0  0  0  0  0  0  0  0  0  0  # atno 17320 bound_to 7965
  146.3495  140.1577  142.8591 LP  0  0  0  0  0  0  0  0  0  0  0  0  # atno 17321 bound_to 7965
  140.7088  143.2488  151.4645 LP  0  0  0  0  0  0  0  0  0  0  0  0  # atno 17342 bound_to 10162
  139.5791  144.1750  152.1944 LP  0  0  0  0  0  0  0  0  0  0  0  0  # atno 17343 bound_to 10162
  157.7100  131.0739  150.6534 LP  0  0  0  0  0  0  0  0  0  0  0  0  # atno 17370 bound_to 10713
  156.6599  130.4509  149.5691 LP  0  0  0  0  0  0  0  0  0  0  0  0  # atno 17371 bound_to 10713
  141.1334  133.9263  157.2486 LP  0  0  0  0  0  0  0  0  0  0  0  0  # atno 17394 bound_to 11000
  139.9606  135.0155  156.9250 LP  0  0  0  0  0  0  0  0  0  0  0  0  # atno 17395 bound_to 11000

$$$$
