AV-unprocessed.smi:2627|AV-procd|sdf|10242|dock3
  -GOLD-   2272014253D 1   1.00000     0.00000
 Structure written by MMmdl.
 40 42  0  0  0  0  0  0  0  0  2 V2000
  151.9660  137.6734  156.1468 C   0  0  0  0  0  0  0  0  0  0  0  0
  151.7139  137.8420  154.6427 C   0  0  1  0  0  0  0  0  0  0  0  0
  151.4570  136.5701  154.0848 O   0  0  0  0  0  0  0  0  0  0  0  0
  150.5884  138.7993  154.3967 C   0  0  0  0  0  0  0  0  0  0  0  0
  149.5057  138.5582  153.6033 N   0  3  0  0  0  0  0  0  0  0  0  0
  148.6409  139.6516  153.6334 C   0  0  0  0  0  0  0  0  0  0  0  0
  147.4234  139.8674  152.9954 C   0  0  0  0  0  0  0  0  0  0  0  0
  146.7862  141.0996  153.2488 C   0  0  0  0  0  0  0  0  0  0  0  0
  147.3597  142.0590  154.1086 C   0  0  0  0  0  0  0  0  0  0  0  0
  148.5952  141.8286  154.7491 C   0  0  0  0  0  0  0  0  0  0  0  0
  149.2210  140.6091  154.4901 C   0  0  0  0  0  0  0  0  0  0  0  0
  150.4237  140.0449  154.9327 N   0  0  0  0  0  0  0  0  0  0  0  0
  151.2714  140.8091  155.8593 C   0  0  0  0  0  0  0  0  0  0  0  0
  150.6009  140.9932  157.2256 C   0  0  0  0  0  0  0  0  0  0  0  0
  151.6099  141.2338  158.1955 O   0  0  0  0  0  0  0  0  0  0  0  0
  151.7809  142.5236  158.6512 C   0  0  0  0  0  0  0  0  0  0  0  0
  152.2647  142.6790  159.9669 C   0  0  0  0  0  0  0  0  0  0  0  0
  152.4652  143.9606  160.5152 C   0  0  0  0  0  0  0  0  0  0  0  0
  152.1821  145.1057  159.7484 C   0  0  0  0  0  0  0  0  0  0  0  0
  151.7006  144.9661  158.4337 C   0  0  0  0  0  0  0  0  0  0  0  0
  151.5011  143.6840  157.8851 C   0  0  0  0  0  0  0  0  0  0  0  0
  152.2125  138.6274  156.6135 H   0  0  0  0  0  0  0  0  0  0  0  0
  152.7974  136.9928  156.3326 H   0  0  0  0  0  0  0  0  0  0  0  0
  151.0885  137.2727  156.6555 H   0  0  0  0  0  0  0  0  0  0  0  0
  152.6201  138.2219  154.1726 H   0  0  0  0  0  0  0  0  0  0  0  0
  151.3353  136.6696  153.1526 H   0  0  0  0  0  0  0  0  0  0  0  0
  146.9811  139.1321  152.3393 H   0  0  0  0  0  0  0  0  0  0  0  0
  145.8381  141.3124  152.7762 H   0  0  0  0  0  0  0  0  0  0  0  0
  146.8413  142.9912  154.2807 H   0  0  0  0  0  0  0  0  0  0  0  0
  149.0221  142.5701  155.4080 H   0  0  0  0  0  0  0  0  0  0  0  0
  152.2173  140.2799  155.9703 H   0  0  0  0  0  0  0  0  0  0  0  0
  151.5160  141.7720  155.4102 H   0  0  0  0  0  0  0  0  0  0  0  0
  149.9050  141.8330  157.1896 H   0  0  0  0  0  0  0  0  0  0  0  0
  150.0393  140.0937  157.4816 H   0  0  0  0  0  0  0  0  0  0  0  0
  152.4831  141.8057  160.5638 H   0  0  0  0  0  0  0  0  0  0  0  0
  152.8350  144.0646  161.5245 H   0  0  0  0  0  0  0  0  0  0  0  0
  152.3335  146.0894  160.1679 H   0  0  0  0  0  0  0  0  0  0  0  0
  151.4828  145.8444  157.8441 H   0  0  0  0  0  0  0  0  0  0  0  0
  151.1314  143.6186  156.8732 H   0  0  0  0  0  0  0  0  0  0  0  0
  149.3724  137.6999  153.0836 H   0  0  0  0  0  0  0  0  0  0  0  0
  1  2  1  0  0  0  0
  1 22  1  0  0  0  0
  1 23  1  0  0  0  0
  1 24  1  0  0  0  0
  2  3  1  0  0  0  0
  2  4  1  0  0  0  0
  2 25  1  0  0  0  0
  3 26  1  0  0  0  0
  4 12  1  0  0  0  0
  4  5  2  0  0  0  0
  5  6  1  0  0  0  0
  5 40  1  0  0  0  0
  6 11  2  0  0  0  0
  6  7  1  0  0  0  0
  7  8  2  0  0  0  0
  7 27  1  0  0  0  0
  8  9  1  0  0  0  0
  8 28  1  0  0  0  0
  9 10  2  0  0  0  0
  9 29  1  0  0  0  0
 10 11  1  0  0  0  0
 10 30  1  0  0  0  0
 11 12  1  0  0  0  0
 12 13  1  0  0  0  0
 13 14  1  0  0  0  0
 13 31  1  0  0  0  0
 13 32  1  0  0  0  0
 14 15  1  0  0  0  0
 14 33  1  0  0  0  0
 14 34  1  0  0  0  0
 15 16  1  0  0  0  0
 16 21  1  0  0  0  0
 16 17  2  0  0  0  0
 17 18  1  0  0  0  0
 17 35  1  0  0  0  0
 18 19  2  0  0  0  0
 18 36  1  0  0  0  0
 19 20  1  0  0  0  0
 19 37  1  0  0  0  0
 20 21  2  0  0  0  0
 20 38  1  0  0  0  0
 21 39  1  0  0  0  0
M  CHG  1   5   1
M  END
> <s_m_source_file>
AV-unprocessed.smi

> <i_m_source_file_index>
2627

> <i_lp_mmshare_version>
43012

> <i_f3d_flags>
0

> <s_epik_input>
W2NIXTFbY0hdW2NIXVtjSF1jKGMxMiluKGMobjIpW0NASF0oW0NIM10pW09IXSlbQ0gyXVtDSDJdT2MzW2NIXVtjSF1bY0hdW2NIXVtjSF0z

> <s_epik_cmdline>
J2VwaWtfcHl0aG9uJywgJy1waCcsICc3LjAnLCAnLXRuJywgJzgnLCAnLW1hJywgJzIwMCcsICctbWV0YWxfYmluZGluZycsICctaW1hZScsICc8aW5maWxlLm1hZT4nLCAnLW9tYWUnLCAnPG91dGZpbGUubWFlPic=

> <r_lp_tautomer_probability>
1

> <r_epik_Ionization_Penalty>
1.52183

> <r_epik_Ionization_Penalty_Charging>
1.5218

> <r_epik_Ionization_Penalty_Neutral>
2.92192e-05

> <r_epik_State_Penalty>
1.61369

> <r_epik_Charging_Adjusted_Penalty>
3.13549

> <i_epik_Tot_Q>
1

> <i_epik_Tot_abs_Q>
1

> <r_epik_Metal_State_Penalty>
5.66625

> <b_epik_Metal_Only>
0

> <s_lp_Force_Field>
OPLS_2005

> <r_lp_Energy>
19.8189

> <b_lp_Chiralities_Consistent>
1

> <s_lp_Variant>
AV-unprocessed.smi:2627-4

> <Gold.Version>
5.8.1

> <Gold.Id.Protein>
6NUR|6NUR_protein|mol2

> <Gold.PLP.Fitness>
61.3274

> <Gold.PLP.PLP>
-51.2299

> <Gold.PLP.part.hbond>
-4.1317

> <Gold.PLP.part.metal>
0.0000

> <Gold.PLP.part.buried>
1.0737

> <Gold.PLP.part.nonpolar>
-47.8827

> <Gold.PLP.part.repulsive>
0.0692

> <Gold.PLP.ligand.clash>
0.0000

> <Gold.PLP.ligand.torsion>
1.0048

> <Gold.PLP.Chemscore.Hbond>
4.0000

> <Gold.PLP.Chemscore.CHOScore>
0.0000

> <Gold.PLP.Chemscore.Metal>
0.0000

> <Gold.Chemscore.Hbonds>
donor molecule, donor type, donor heavy atom, donor atom, acceptor molecule, acceptor atom, score
      L1  H     3    26       P1  7949  1.00
      L1  H     5    40       P1  7948  2.00
      P1  H 10752 10765       L1     3  0.90

> <Gold.PLP.Chemscore.Internal.Correction>
0.1070

> <Gold.Rescore>
     Score         DG    S(hbond)    S(metal)    S(lipo)     H(rot)  DE(clash)    DE(int)     intcor
     22.41     -23.60       2.34        0.00     134.58       2.13       0.37       0.82       ----

> <Gold.Chemscore.Fitness>
22.4111

> <Gold.Chemscore.DG>
-23.6037

> <Gold.Chemscore.ZeroCoef>
-5.4800

> <Gold.Chemscore.Hbond>
2.3443

> <Gold.Chemscore.Metal>
0.0000

> <Gold.Chemscore.Lipo>
134.5837

> <Gold.Chemscore.Internal_Hbond>
0.0000

> <Gold.Chemscore.DEClash>
0.3719

> <Gold.Chemscore.DEInternal>
0.8206

> <Gold.Chemscore.Rot>
2.1299

> <Gold.Chemscore.Internal.Correction>
   9.000000E+99

> <Gold.Chemscore.Hbonds>
donor molecule, donor type, donor heavy atom, donor atom, acceptor molecule, acceptor atom, score
      L1  H     3    26       P1  7949  0.71
      L1  H     5    40       P1  7948  0.94
      P1  H 10752 10765       L1     3  0.11

> <Gold.Chemscore.Hbond.Weighted>
-7.8299

> <Gold.Chemscore.Metal.Weighted>
-0.0000

> <Gold.Chemscore.Lipo.Weighted>
-15.7463

> <Gold.Chemscore.Internal_Hbond.Weighted>
0.0000

> <Gold.Chemscore.DEClash.Weighted>
0.3719

> <Gold.Chemscore.DEInternal.Weighted>
0.8206

> <Gold.Chemscore.Rot.Weighted>
5.4526

> <Gold.Chemscore.Internal.Correction.Weighted>
   9.000000E+99

> <Gold.Protein.RotatedTorsions>
[ 6907 6896 6895 6894 ] final -134.04 input  -60.11 | X-H torsion
[ 7974 7965 7964 7962 ] final   -9.54 input  175.53 | X-H torsion
[ 8008 7997 7996 7995 ] final   83.86 input   59.86 | X-H torsion
[ 10167 10162 10161 10158 ] final   93.25 input  -65.29 | X-H torsion
[ 10718 10713 10712 10709 ] final   31.28 input   66.30 | X-H torsion
[ 10763 10752 10751 10750 ] final  146.68 input  -60.55 | X-H torsion
[ 11005 11000 10999 10996 ] final -101.30 input  -57.11 | X-H torsion

> <Gold.Protein.ActiveResidues>
 VAL166  LYS551  ARG553  GLY616  TRP617  ASP618  TYR619  PRO620  LYS621  CYS622 
 ASP623  PHE694  ASN695  SER759  ASP760  ASP761  ALA762  ILE779  LEU786  VAL792 
 PHE793  MET794  SER795  GLU796  ALA797  LYS798  CYS799  TRP800  GLU811  SER814 

> <Gold.Protein.RotatedAtoms>
  150.9811  133.6244  159.2722 H   0  0  0  0  0  0  0  0  0  0  0  0  # atno 6907 bound_to 6896
  151.3499  135.0881  159.9409 H   0  0  0  0  0  0  0  0  0  0  0  0  # atno 6908 bound_to 6896
  152.5216  133.9406  159.7679 H   0  0  0  0  0  0  0  0  0  0  0  0  # atno 6909 bound_to 6896
  146.2248  140.2631  142.8353 H   0  0  0  0  0  0  0  0  0  0  0  0  # atno 7974 bound_to 7965
  155.9295  140.3416  155.6237 H   0  0  0  0  0  0  0  0  0  0  0  0  # atno 8008 bound_to 7997
  155.7175  140.0779  157.2363 H   0  0  0  0  0  0  0  0  0  0  0  0  # atno 8009 bound_to 7997
  154.4083  140.1611  156.2352 H   0  0  0  0  0  0  0  0  0  0  0  0  # atno 8010 bound_to 7997
  139.8198  144.6736  150.9534 H   0  0  0  0  0  0  0  0  0  0  0  0  # atno 10167 bound_to 10162
  157.2705  130.7205  149.6501 H   0  0  0  0  0  0  0  0  0  0  0  0  # atno 10718 bound_to 10713
  154.0258  135.2902  155.3375 H   0  0  0  0  0  0  0  0  0  0  0  0  # atno 10763 bound_to 10752
  154.7018  135.5185  153.8541 H   0  0  0  0  0  0  0  0  0  0  0  0  # atno 10764 bound_to 10752
  153.0661  135.6631  154.0476 H   0  0  0  0  0  0  0  0  0  0  0  0  # atno 10765 bound_to 10752
  141.1236  133.8467  157.1215 H   0  0  0  0  0  0  0  0  0  0  0  0  # atno 11005 bound_to 11000
  144.9324  140.7990  143.5681 LP  0  0  0  0  0  0  0  0  0  0  0  0  # atno 17320 bound_to 7965
  145.2576  139.2006  143.4909 LP  0  0  0  0  0  0  0  0  0  0  0  0  # atno 17321 bound_to 7965
  140.7814  143.4103  151.1003 LP  0  0  0  0  0  0  0  0  0  0  0  0  # atno 17342 bound_to 10162
  139.7764  143.8418  152.3130 LP  0  0  0  0  0  0  0  0  0  0  0  0  # atno 17343 bound_to 10162
  155.9663  130.4369  150.5153 LP  0  0  0  0  0  0  0  0  0  0  0  0  # atno 17370 bound_to 10713
  157.3077  131.0657  151.2023 LP  0  0  0  0  0  0  0  0  0  0  0  0  # atno 17371 bound_to 10713
  140.0214  134.9944  157.0600 LP  0  0  0  0  0  0  0  0  0  0  0  0  # atno 17394 bound_to 11000
  140.4433  134.1658  155.7175 LP  0  0  0  0  0  0  0  0  0  0  0  0  # atno 17395 bound_to 11000

$$$$
