AV-unprocessed.smi:1372|AV-procd|sdf|5584|dock2
  -GOLD-   22720 5183D 1   1.00000     0.00000
 Structure written by MMmdl.
 42 44  0  0  0  0  0  0  0  0  2 V2000
  150.7655  138.7738  153.7453 C   0  0  0  0  0  0  0  0  0  0  0  0
  152.0715  138.7467  155.0396 S   0  0  0  0  0  0  0  0  0  0  0  0
  152.7315  137.4327  155.0117 O   0  0  0  0  0  0  0  0  0  0  0  0
  152.8818  139.9676  154.9098 O   0  0  0  0  0  0  0  0  0  0  0  0
  151.0771  138.8705  156.5882 C   0  0  0  0  0  0  0  0  0  0  0  0
  151.4139  140.1311  157.3213 C   0  0  0  0  0  0  0  0  0  0  0  0
  151.1408  141.3992  156.8994 N   0  3  0  0  0  0  0  0  0  0  0  0
  151.6170  142.3227  157.8299 C   0  0  0  0  0  0  0  0  0  0  0  0
  151.5827  143.7136  157.8331 C   0  0  0  0  0  0  0  0  0  0  0  0
  152.1685  144.3582  158.9424 C   0  0  0  0  0  0  0  0  0  0  0  0
  152.7579  143.6232  159.9917 C   0  0  0  0  0  0  0  0  0  0  0  0
  152.7854  142.2130  159.9774 C   0  0  0  0  0  0  0  0  0  0  0  0
  152.2023  141.5838  158.8777 C   0  0  0  0  0  0  0  0  0  0  0  0
  152.0448  140.2380  158.5279 N   0  0  0  0  0  0  0  0  0  0  0  0
  152.5559  139.2013  159.4392 C   0  0  0  0  0  0  0  0  0  0  0  0
  154.0007  139.4722  159.9036 C   0  0  2  0  0  0  0  0  0  0  0  0
  154.9029  139.1845  158.8532 O   0  0  0  0  0  0  0  0  0  0  0  0
  154.3280  138.6954  161.1683 C   0  0  0  0  0  0  0  0  0  0  0  0
  153.5109  137.6149  161.5642 C   0  0  0  0  0  0  0  0  0  0  0  0
  153.8144  136.8858  162.7306 C   0  0  0  0  0  0  0  0  0  0  0  0
  154.9374  137.2315  163.5062 C   0  0  0  0  0  0  0  0  0  0  0  0
  155.7577  138.3067  163.1150 C   0  0  0  0  0  0  0  0  0  0  0  0
  155.4547  139.0362  161.9490 C   0  0  0  0  0  0  0  0  0  0  0  0
  151.2299  138.7078  152.7615 H   0  0  0  0  0  0  0  0  0  0  0  0
  150.1986  139.7020  153.8152 H   0  0  0  0  0  0  0  0  0  0  0  0
  150.0950  137.9259  153.8845 H   0  0  0  0  0  0  0  0  0  0  0  0
  150.0177  138.8562  156.3324 H   0  0  0  0  0  0  0  0  0  0  0  0
  151.2938  137.9966  157.2012 H   0  0  0  0  0  0  0  0  0  0  0  0
  151.1338  144.2785  157.0291 H   0  0  0  0  0  0  0  0  0  0  0  0
  152.1670  145.4376  158.9887 H   0  0  0  0  0  0  0  0  0  0  0  0
  153.1985  144.1515  160.8248 H   0  0  0  0  0  0  0  0  0  0  0  0
  153.2416  141.6599  160.7851 H   0  0  0  0  0  0  0  0  0  0  0  0
  151.8824  139.1290  160.2938 H   0  0  0  0  0  0  0  0  0  0  0  0
  152.4892  138.2412  158.9272 H   0  0  0  0  0  0  0  0  0  0  0  0
  154.1063  140.5362  160.1193 H   0  0  0  0  0  0  0  0  0  0  0  0
  154.9393  138.2471  158.7375 H   0  0  0  0  0  0  0  0  0  0  0  0
  152.6489  137.3395  160.9749 H   0  0  0  0  0  0  0  0  0  0  0  0
  153.1855  136.0604  163.0300 H   0  0  0  0  0  0  0  0  0  0  0  0
  155.1700  136.6719  164.4003 H   0  0  0  0  0  0  0  0  0  0  0  0
  156.6199  138.5713  163.7087 H   0  0  0  0  0  0  0  0  0  0  0  0
  156.0918  139.8575  161.6545 H   0  0  0  0  0  0  0  0  0  0  0  0
  150.6748  141.6145  156.0269 H   0  0  0  0  0  0  0  0  0  0  0  0
  1  2  1  0  0  0  0
  1 24  1  0  0  0  0
  1 25  1  0  0  0  0
  1 26  1  0  0  0  0
  2  3  2  0  0  0  0
  2  4  2  0  0  0  0
  2  5  1  0  0  0  0
  5  6  1  0  0  0  0
  5 27  1  0  0  0  0
  5 28  1  0  0  0  0
  6 14  1  0  0  0  0
  6  7  2  0  0  0  0
  7  8  1  0  0  0  0
  7 42  1  0  0  0  0
  8 13  2  0  0  0  0
  8  9  1  0  0  0  0
  9 10  2  0  0  0  0
  9 29  1  0  0  0  0
 10 11  1  0  0  0  0
 10 30  1  0  0  0  0
 11 12  2  0  0  0  0
 11 31  1  0  0  0  0
 12 13  1  0  0  0  0
 12 32  1  0  0  0  0
 13 14  1  0  0  0  0
 14 15  1  0  0  0  0
 15 16  1  0  0  0  0
 15 33  1  0  0  0  0
 15 34  1  0  0  0  0
 16 17  1  0  0  0  0
 16 18  1  0  0  0  0
 16 35  1  0  0  0  0
 17 36  1  0  0  0  0
 18 23  1  0  0  0  0
 18 19  2  0  0  0  0
 19 20  1  0  0  0  0
 19 37  1  0  0  0  0
 20 21  2  0  0  0  0
 20 38  1  0  0  0  0
 21 22  1  0  0  0  0
 21 39  1  0  0  0  0
 22 23  2  0  0  0  0
 22 40  1  0  0  0  0
 23 41  1  0  0  0  0
M  CHG  1   7   1
M  END
> <s_m_source_file>
AV-unprocessed.smi

> <i_m_source_file_index>
1372

> <i_lp_mmshare_version>
43012

> <i_f3d_flags>
0

> <s_epik_input>
W2NIXTFbY0hdW2NIXVtjSF1jKGMxMiluKGMobjIpW0NIMl1TKD1PKSg9TylbQ0gzXSlbQ0gyXVtDQEhdKFtPSF0pYzNbY0hdW2NIXVtjSF1bY0hdW2NIXTM=

> <s_epik_cmdline>
J2VwaWtfcHl0aG9uJywgJy1waCcsICc3LjAnLCAnLXRuJywgJzgnLCAnLW1hJywgJzIwMCcsICctbWV0YWxfYmluZGluZycsICctaW1hZScsICc8aW5maWxlLm1hZT4nLCAnLW9tYWUnLCAnPG91dGZpbGUubWFlPic=

> <r_epik_Ionization_Penalty>
2.1801

> <r_epik_Ionization_Penalty_Charging>
2.1801

> <r_epik_Ionization_Penalty_Neutral>
1.34362e-06

> <r_epik_State_Penalty>
2.32206

> <r_epik_Charging_Adjusted_Penalty>
4.50216

> <i_epik_Tot_Q>
1

> <i_epik_Tot_abs_Q>
1

> <r_epik_Metal_State_Penalty>
6.40294

> <b_epik_Metal_Only>
0

> <s_lp_Force_Field>
OPLS_2005

> <r_lp_Energy>
10.6003

> <b_lp_Chiralities_Consistent>
1

> <s_lp_Variant>
AV-unprocessed.smi:1372-3

> <Gold.Version>
5.8.1

> <Gold.Id.Protein>
6NUR|6NUR_protein|mol2

> <Gold.PLP.Fitness>
55.2151

> <Gold.PLP.PLP>
-46.8983

> <Gold.PLP.part.hbond>
-3.9936

> <Gold.PLP.part.metal>
0.0000

> <Gold.PLP.part.buried>
-5.4203

> <Gold.PLP.part.nonpolar>
-37.9969

> <Gold.PLP.part.repulsive>
0.1306

> <Gold.PLP.ligand.clash>
0.0329

> <Gold.PLP.ligand.torsion>
0.7103

> <Gold.PLP.Chemscore.Hbond>
3.1848

> <Gold.PLP.Chemscore.CHOScore>
0.0000

> <Gold.PLP.Chemscore.Metal>
0.0000

> <Gold.Chemscore.Hbonds>
donor molecule, donor type, donor heavy atom, donor atom, acceptor molecule, acceptor atom, score
      P1  H  7989  7998       L1     4  0.29
      P1  H  7997  8008       L1    17  1.00
      P1  H  7997  8009       L1     4  1.00
      P1  H 10752 10765       L1     3  0.46

> <Gold.PLP.Chemscore.Internal.Correction>
0.2159

> <Gold.Rescore>
     Score         DG    S(hbond)    S(metal)    S(lipo)     H(rot)  DE(clash)    DE(int)     intcor
     21.59     -23.43       2.83        0.00     124.89       2.40       0.01       1.83       ----

> <Gold.Chemscore.Fitness>
21.5881

> <Gold.Chemscore.DG>
-23.4290

> <Gold.Chemscore.ZeroCoef>
-5.4800

> <Gold.Chemscore.Hbond>
2.8349

> <Gold.Chemscore.Metal>
0.0000

> <Gold.Chemscore.Lipo>
124.8863

> <Gold.Chemscore.Internal_Hbond>
0.0000

> <Gold.Chemscore.DEClash>
0.0149

> <Gold.Chemscore.DEInternal>
1.8260

> <Gold.Chemscore.Rot>
2.3951

> <Gold.Chemscore.Internal.Correction>
   9.000000E+99

> <Gold.Chemscore.Hbonds>
donor molecule, donor type, donor heavy atom, donor atom, acceptor molecule, acceptor atom, score
      P1  H  7989  7998       L1     4  0.04
      P1  H  7997  8008       L1    17  0.78
      P1  H  7997  8009       L1     4  0.99
      P1  H 10752 10765       L1     3  0.46

> <Gold.Chemscore.Hbond.Weighted>
-9.4687

> <Gold.Chemscore.Metal.Weighted>
-0.0000

> <Gold.Chemscore.Lipo.Weighted>
-14.6117

> <Gold.Chemscore.Internal_Hbond.Weighted>
0.0000

> <Gold.Chemscore.DEClash.Weighted>
0.0149

> <Gold.Chemscore.DEInternal.Weighted>
1.8260

> <Gold.Chemscore.Rot.Weighted>
6.1314

> <Gold.Chemscore.Internal.Correction.Weighted>
   9.000000E+99

> <Gold.Protein.RotatedTorsions>
[ 6907 6896 6895 6894 ] final  159.86 input  -60.11 | X-H torsion
[ 7974 7965 7964 7962 ] final   79.93 input  175.53 | X-H torsion
[ 8008 7997 7996 7995 ] final -132.63 input   59.86 | X-H torsion
[ 10167 10162 10161 10158 ] final  -54.36 input  -65.29 | X-H torsion
[ 10718 10713 10712 10709 ] final  163.64 input   66.30 | X-H torsion
[ 10763 10752 10751 10750 ] final -175.86 input  -60.55 | X-H torsion
[ 11005 11000 10999 10996 ] final -121.58 input  -57.11 | X-H torsion

> <Gold.Protein.ActiveResidues>
 VAL166  LYS551  ARG553  GLY616  TRP617  ASP618  TYR619  PRO620  LYS621  CYS622 
 ASP623  PHE694  ASN695  SER759  ASP760  ASP761  ALA762  ILE779  LEU786  VAL792 
 PHE793  MET794  SER795  GLU796  ALA797  LYS798  CYS799  TRP800  GLU811  SER814 

> <Gold.Protein.RotatedAtoms>
  151.9793  133.3752  159.4100 H   0  0  0  0  0  0  0  0  0  0  0  0  # atno 6907 bound_to 6896
  150.6937  134.4056  159.5148 H   0  0  0  0  0  0  0  0  0  0  0  0  # atno 6908 bound_to 6896
  152.1772  134.8784  160.0580 H   0  0  0  0  0  0  0  0  0  0  0  0  # atno 6909 bound_to 6896
  145.6578  139.2463  143.1940 H   0  0  0  0  0  0  0  0  0  0  0  0  # atno 7974 bound_to 7965
  155.3321  140.0467  157.3043 H   0  0  0  0  0  0  0  0  0  0  0  0  # atno 8008 bound_to 7997
  154.5322  140.2261  155.8749 H   0  0  0  0  0  0  0  0  0  0  0  0  # atno 8009 bound_to 7997
  156.1800  140.3076  155.9137 H   0  0  0  0  0  0  0  0  0  0  0  0  # atno 8010 bound_to 7997
  140.6435  143.2521  151.4925 H   0  0  0  0  0  0  0  0  0  0  0  0  # atno 10167 bound_to 10162
  157.1056  131.0454  151.2479 H   0  0  0  0  0  0  0  0  0  0  0  0  # atno 10718 bound_to 10713
  154.5793  135.2835  155.0749 H   0  0  0  0  0  0  0  0  0  0  0  0  # atno 10763 bound_to 10752
  154.2091  135.6411  153.5114 H   0  0  0  0  0  0  0  0  0  0  0  0  # atno 10764 bound_to 10752
  153.0083  135.5487  154.6441 H   0  0  0  0  0  0  0  0  0  0  0  0  # atno 10765 bound_to 10752
  141.0060  134.0334  157.3477 H   0  0  0  0  0  0  0  0  0  0  0  0  # atno 11005 bound_to 11000
  146.1150  140.7380  142.9485 LP  0  0  0  0  0  0  0  0  0  0  0  0  # atno 17320 bound_to 7965
  144.7100  140.4000  143.7088 LP  0  0  0  0  0  0  0  0  0  0  0  0  # atno 17321 bound_to 7965
  139.5644  144.2077  152.1743 LP  0  0  0  0  0  0  0  0  0  0  0  0  # atno 17342 bound_to 10162
  140.1354  144.5250  150.6776 LP  0  0  0  0  0  0  0  0  0  0  0  0  # atno 17343 bound_to 10162
  157.4603  130.7649  149.7230 LP  0  0  0  0  0  0  0  0  0  0  0  0  # atno 17370 bound_to 10713
  155.9863  130.3976  150.3220 LP  0  0  0  0  0  0  0  0  0  0  0  0  # atno 17371 bound_to 10713
  139.9063  135.0180  156.7501 LP  0  0  0  0  0  0  0  0  0  0  0  0  # atno 17394 bound_to 11000
  140.6812  133.9473  155.7911 LP  0  0  0  0  0  0  0  0  0  0  0  0  # atno 17395 bound_to 11000

$$$$
