AV-unprocessed.smi:67|AV-procd|sdf|638|dock1
  -GOLD-   2262016533D 1   1.00000     0.00000
 Structure written by MMmdl.
 48 50  0  0  0  0  0  0  0  0  2 V2000
  147.4386  134.5496  153.1393 O   0  0  0  0  0  0  0  0  0  0  0  0
  148.1528  134.2078  154.3117 C   0  0  2  0  0  0  0  0  0  0  0  0
  148.1651  135.4218  155.2788 C   0  0  0  0  0  0  0  0  0  0  0  0
  148.9472  136.5983  154.8022 N   0  3  2  0  0  0  0  0  0  0  0  0
  150.1539  136.8290  155.6406 C   0  0  0  0  0  0  0  0  0  0  0  0
  151.0356  137.9556  155.0753 C   0  0  0  0  0  0  0  0  0  0  0  0
  150.2433  139.2660  154.9070 C   0  0  2  0  0  0  0  0  0  0  0  0
  149.8131  139.7793  156.1662 O   0  0  0  0  0  0  0  0  0  0  0  0
  150.7251  140.3537  157.0280 C   0  0  0  0  0  0  0  0  0  0  0  0
  151.6640  139.4853  157.6205 C   0  0  0  0  0  0  0  0  0  0  0  0
  152.6335  139.9738  158.5154 C   0  0  0  0  0  0  0  0  0  0  0  0
  152.6731  141.3438  158.8319 C   0  0  0  0  0  0  0  0  0  0  0  0
  151.7392  142.2307  158.2550 C   0  0  0  0  0  0  0  0  0  0  0  0
  151.7697  143.7170  158.5789 C   0  0  0  0  0  0  0  0  0  0  0  0
  150.6274  144.0823  159.1614 F   0  0  0  0  0  0  0  0  0  0  0  0
  152.7744  144.0224  159.4008 F   0  0  0  0  0  0  0  0  0  0  0  0
  151.9157  144.4085  157.4493 F   0  0  0  0  0  0  0  0  0  0  0  0
  150.7734  141.7329  157.3535 C   0  0  0  0  0  0  0  0  0  0  0  0
  148.9901  138.9883  154.0660 C   0  0  0  0  0  0  0  0  0  0  0  0
  148.1464  137.8431  154.6524 C   0  0  0  0  0  0  0  0  0  0  0  0
  149.5531  133.6553  153.9756 C   0  0  0  0  0  0  0  0  0  0  0  0
  149.4620  132.1569  154.2568 C   0  0  0  0  0  0  0  0  0  0  0  0
  148.4411  132.0302  155.2824 N   0  0  0  0  0  0  0  0  0  0  0  0
  147.4158  133.0003  154.9293 C   0  0  0  0  0  0  0  0  0  0  0  0
  147.8660  135.2852  152.7273 H   0  0  0  0  0  0  0  0  0  0  0  0
  147.1509  135.7258  155.5435 H   0  0  0  0  0  0  0  0  0  0  0  0
  148.6227  135.0804  156.2087 H   0  0  0  0  0  0  0  0  0  0  0  0
  149.8479  137.0670  156.6607 H   0  0  0  0  0  0  0  0  0  0  0  0
  150.7465  135.9150  155.6948 H   0  0  0  0  0  0  0  0  0  0  0  0
  151.9003  138.1025  155.7218 H   0  0  0  0  0  0  0  0  0  0  0  0
  151.4327  137.6487  154.1068 H   0  0  0  0  0  0  0  0  0  0  0  0
  150.8336  140.0105  154.3725 H   0  0  0  0  0  0  0  0  0  0  0  0
  151.6414  138.4312  157.3853 H   0  0  0  0  0  0  0  0  0  0  0  0
  153.3480  139.2965  158.9595 H   0  0  0  0  0  0  0  0  0  0  0  0
  153.4248  141.7055  159.5175 H   0  0  0  0  0  0  0  0  0  0  0  0
  150.0800  142.4370  156.9214 H   0  0  0  0  0  0  0  0  0  0  0  0
  148.3866  139.8933  153.9869 H   0  0  0  0  0  0  0  0  0  0  0  0
  149.2874  138.7306  153.0484 H   0  0  0  0  0  0  0  0  0  0  0  0
  147.3052  137.6799  153.9827 H   0  0  0  0  0  0  0  0  0  0  0  0
  147.7320  138.1322  155.6195 H   0  0  0  0  0  0  0  0  0  0  0  0
  149.8635  133.8638  152.9508 H   0  0  0  0  0  0  0  0  0  0  0  0
  150.3085  134.0831  154.6355 H   0  0  0  0  0  0  0  0  0  0  0  0
  149.1449  131.6317  153.3547 H   0  0  0  0  0  0  0  0  0  0  0  0
  150.4143  131.7306  154.5729 H   0  0  0  0  0  0  0  0  0  0  0  0
  148.8463  132.2984  156.1734 H   0  0  0  0  0  0  0  0  0  0  0  0
  146.8063  133.2704  155.7920 H   0  0  0  0  0  0  0  0  0  0  0  0
  146.7434  132.5470  154.1986 H   0  0  0  0  0  0  0  0  0  0  0  0
  149.2863  136.3579  153.8816 H   0  0  0  0  0  0  0  0  0  0  0  0
  1  2  1  0  0  0  0
  1 25  1  0  0  0  0
  2 24  1  0  0  0  0
  2  3  1  0  0  0  0
  2 21  1  0  0  0  0
  3  4  1  0  0  0  0
  3 26  1  0  0  0  0
  3 27  1  0  0  0  0
  4 20  1  0  0  0  0
  4  5  1  0  0  0  0
  4 48  1  0  0  0  0
  5  6  1  0  0  0  0
  5 28  1  0  0  0  0
  5 29  1  0  0  0  0
  6  7  1  0  0  0  0
  6 30  1  0  0  0  0
  6 31  1  0  0  0  0
  7  8  1  0  0  0  0
  7 19  1  0  0  0  0
  7 32  1  0  0  0  0
  8  9  1  0  0  0  0
  9 18  1  0  0  0  0
  9 10  2  0  0  0  0
 10 11  1  0  0  0  0
 10 33  1  0  0  0  0
 11 12  2  0  0  0  0
 11 34  1  0  0  0  0
 12 13  1  0  0  0  0
 12 35  1  0  0  0  0
 13 14  1  0  0  0  0
 13 18  2  0  0  0  0
 14 15  1  0  0  0  0
 14 16  1  0  0  0  0
 14 17  1  0  0  0  0
 18 36  1  0  0  0  0
 19 20  1  0  0  0  0
 19 37  1  0  0  0  0
 19 38  1  0  0  0  0
 20 39  1  0  0  0  0
 20 40  1  0  0  0  0
 21 22  1  0  0  0  0
 21 41  1  0  0  0  0
 21 42  1  0  0  0  0
 22 23  1  0  0  0  0
 22 43  1  0  0  0  0
 22 44  1  0  0  0  0
 23 24  1  0  0  0  0
 23 45  1  0  0  0  0
 24 46  1  0  0  0  0
 24 47  1  0  0  0  0
M  CHG  1   4   1
M  END
> <s_m_source_file>
AV-unprocessed.smi

> <i_m_source_file_index>
67

> <i_lp_mmshare_version>
43012

> <i_f3d_flags>
0

> <s_epik_input>
W0NIMl0xW05IXVtDSDJdW0NIMl1bQ0BAXTEoW09IXSlbQ0gyXU4yW0NIMl1bQ0gyXVtDSF0oW0NIMl1bQ0gyXTIpT2MzW2NIXVtjSF1bY0hdYyhDKEYpKEYpRilbY0hdMw==

> <s_epik_cmdline>
J2VwaWtfcHl0aG9uJywgJy1waCcsICc3LjAnLCAnLXRuJywgJzgnLCAnLW1hJywgJzIwMCcsICctbWV0YWxfYmluZGluZycsICctaW1hZScsICc8aW5maWxlLm1hZT4nLCAnLW9tYWUnLCAnPG91dGZpbGUubWFlPic=

> <r_epik_Ionization_Penalty>
2.37709

> <r_epik_Ionization_Penalty_Charging>
0.0305656

> <r_epik_Ionization_Penalty_Neutral>
2.34653

> <r_epik_State_Penalty>
2.56959

> <r_epik_Charging_Adjusted_Penalty>
2.60016

> <i_epik_Tot_Q>
1

> <i_epik_Tot_abs_Q>
1

> <r_epik_Metal_State_Penalty>
2.56925

> <b_epik_Metal_Only>
0

> <s_lp_Force_Field>
OPLS_2005

> <r_lp_Energy>
52.4549

> <b_lp_Chiralities_Consistent>
1

> <s_lp_Variant>
AV-unprocessed.smi:67-10

> <Gold.Version>
5.8.1

> <Gold.Id.Protein>
6NUR|6NUR_protein|mol2

> <Gold.PLP.Fitness>
48.8892

> <Gold.PLP.PLP>
-41.4443

> <Gold.PLP.part.hbond>
-2.0000

> <Gold.PLP.part.metal>
0.0000

> <Gold.PLP.part.buried>
-4.8408

> <Gold.PLP.part.nonpolar>
-34.9383

> <Gold.PLP.part.repulsive>
0.0000

> <Gold.PLP.ligand.clash>
0.3530

> <Gold.PLP.ligand.torsion>
0.9267

> <Gold.PLP.Chemscore.Hbond>
3.0000

> <Gold.PLP.Chemscore.CHOScore>
0.0000

> <Gold.PLP.Chemscore.Metal>
0.0000

> <Gold.Chemscore.Hbonds>
donor molecule, donor type, donor heavy atom, donor atom, acceptor molecule, acceptor atom, score
      L1  H     1    25       P1  7948  1.00
      L1  H     4    48       P1  7948  2.00

> <Gold.PLP.Chemscore.Internal.Correction>
0.6513

> <Gold.Rescore>
     Score         DG    S(hbond)    S(metal)    S(lipo)     H(rot)  DE(clash)    DE(int)     intcor
     16.51     -17.77       1.93        0.00      97.42       2.17       0.27       1.00       ----

> <Gold.Chemscore.Fitness>
16.5083

> <Gold.Chemscore.DG>
-17.7716

> <Gold.Chemscore.ZeroCoef>
-5.4800

> <Gold.Chemscore.Hbond>
1.9334

> <Gold.Chemscore.Metal>
0.0000

> <Gold.Chemscore.Lipo>
97.4196

> <Gold.Chemscore.Internal_Hbond>
0.0000

> <Gold.Chemscore.DEClash>
0.2650

> <Gold.Chemscore.DEInternal>
0.9982

> <Gold.Chemscore.Rot>
2.1734

> <Gold.Chemscore.Internal.Correction>
   9.000000E+99

> <Gold.Chemscore.Hbonds>
donor molecule, donor type, donor heavy atom, donor atom, acceptor molecule, acceptor atom, score
      L1  H     1    25       P1  7948  0.99
      L1  H     4    48       P1  7948  0.80

> <Gold.Chemscore.Hbond.Weighted>
-6.4575

> <Gold.Chemscore.Metal.Weighted>
-0.0000

> <Gold.Chemscore.Lipo.Weighted>
-11.3981

> <Gold.Chemscore.Internal_Hbond.Weighted>
0.0000

> <Gold.Chemscore.DEClash.Weighted>
0.2650

> <Gold.Chemscore.DEInternal.Weighted>
0.9982

> <Gold.Chemscore.Rot.Weighted>
5.5640

> <Gold.Chemscore.Internal.Correction.Weighted>
   9.000000E+99

> <Gold.Protein.RotatedTorsions>
[ 6907 6896 6895 6894 ] final -155.06 input  -60.11 | X-H torsion
[ 7974 7965 7964 7962 ] final  -35.75 input  175.53 | X-H torsion
[ 8008 7997 7996 7995 ] final   68.24 input   59.86 | X-H torsion
[ 10167 10162 10161 10158 ] final  162.74 input  -65.29 | X-H torsion
[ 10718 10713 10712 10709 ] final -134.49 input   66.30 | X-H torsion
[ 10763 10752 10751 10750 ] final  -72.90 input  -60.55 | X-H torsion
[ 11005 11000 10999 10996 ] final   10.76 input  -57.11 | X-H torsion

> <Gold.Protein.ActiveResidues>
 VAL166  LYS551  ARG553  GLY616  TRP617  ASP618  TYR619  PRO620  LYS621  CYS622 
 ASP623  PHE694  ASN695  SER759  ASP760  ASP761  ALA762  ILE779  LEU786  VAL792 
 PHE793  MET794  SER795  GLU796  ALA797  LYS798  CYS799  TRP800  GLU811  SER814 

> <Gold.Protein.RotatedAtoms>
  151.2669  133.4274  159.2618 H   0  0  0  0  0  0  0  0  0  0  0  0  # atno 6907 bound_to 6896
  151.0480  134.9654  159.8207 H   0  0  0  0  0  0  0  0  0  0  0  0  # atno 6908 bound_to 6896
  152.5377  134.2624  159.8993 H   0  0  0  0  0  0  0  0  0  0  0  0  # atno 6909 bound_to 6896
  146.0720  140.6197  142.8948 H   0  0  0  0  0  0  0  0  0  0  0  0  # atno 7974 bound_to 7965
  155.7052  140.3495  155.4950 H   0  0  0  0  0  0  0  0  0  0  0  0  # atno 8008 bound_to 7997
  155.9405  140.1100  157.1081 H   0  0  0  0  0  0  0  0  0  0  0  0  # atno 8009 bound_to 7997
  154.4102  140.1213  156.4907 H   0  0  0  0  0  0  0  0  0  0  0  0  # atno 8010 bound_to 7997
  139.4864  144.4407  151.8955 H   0  0  0  0  0  0  0  0  0  0  0  0  # atno 10167 bound_to 10162
  156.2560  130.7181  151.1098 H   0  0  0  0  0  0  0  0  0  0  0  0  # atno 10718 bound_to 10713
  154.4520  135.5915  153.6198 H   0  0  0  0  0  0  0  0  0  0  0  0  # atno 10763 bound_to 10752
  152.9814  135.6023  154.3593 H   0  0  0  0  0  0  0  0  0  0  0  0  # atno 10764 bound_to 10752
  154.3455  135.2841  155.2379 H   0  0  0  0  0  0  0  0  0  0  0  0  # atno 10765 bound_to 10752
  140.5108  134.0654  155.7818 H   0  0  0  0  0  0  0  0  0  0  0  0  # atno 11005 bound_to 11000
  144.7237  140.4458  143.6989 LP  0  0  0  0  0  0  0  0  0  0  0  0  # atno 17320 bound_to 7965
  145.6374  139.1545  143.2934 LP  0  0  0  0  0  0  0  0  0  0  0  0  # atno 17321 bound_to 7965
  140.3859  144.2677  150.5904 LP  0  0  0  0  0  0  0  0  0  0  0  0  # atno 17342 bound_to 10162
  140.5191  143.2270  151.8417 LP  0  0  0  0  0  0  0  0  0  0  0  0  # atno 17343 bound_to 10162
  157.7233  131.0667  150.6044 LP  0  0  0  0  0  0  0  0  0  0  0  0  # atno 17370 bound_to 10713
  156.6128  130.4384  149.5852 LP  0  0  0  0  0  0  0  0  0  0  0  0  # atno 17371 bound_to 10713
  141.1386  133.9177  157.2377 LP  0  0  0  0  0  0  0  0  0  0  0  0  # atno 17394 bound_to 11000
  139.9660  135.0142  156.9387 LP  0  0  0  0  0  0  0  0  0  0  0  0  # atno 17395 bound_to 11000

$$$$
