AV-unprocessed.smi:285|AV-procd|sdf|2172|dock1
  -GOLD-   2262021533D 1   1.00000     0.00000
 Structure written by MMmdl.
 31 33  0  0  0  0  0  0  0  0  1 V2000
  153.7775  137.6686  156.5376 N   0  0  0  0  0  0  0  0  0  0  0  0
  152.6326  138.0977  155.9879 C   0  0  0  0  0  0  0  0  0  0  0  0
  151.9984  137.2873  155.1085 N   0  0  0  0  0  0  0  0  0  0  0  0
  150.8561  137.6923  154.5440 C   0  0  0  0  0  0  0  0  0  0  0  0
  150.1989  138.8418  154.7185 N   0  0  0  0  0  0  0  0  0  0  0  0
  150.8370  139.6586  155.6078 C   0  0  0  0  0  0  0  0  0  0  0  0
  152.0569  139.3595  156.2831 C   0  0  0  0  0  0  0  0  0  0  0  0
  152.4203  140.4164  157.1085 N   0  0  0  0  0  0  0  0  0  0  0  0
  151.4589  141.2756  156.9148 C   0  0  0  0  0  0  0  0  0  0  0  0
  151.4739  142.9547  157.8142 Br  0  0  0  0  0  0  0  0  0  0  0  0
  150.4617  140.9171  156.0355 N   0  0  0  0  0  0  0  0  0  0  0  0
  149.2478  141.6875  155.6226 C   0  0  1  0  0  0  0  0  0  0  0  0
  149.0926  141.6927  154.1027 C   0  0  0  0  0  0  0  0  0  0  0  0
  147.5860  141.7207  153.9594 C   0  0  2  0  0  0  0  0  0  0  0  0
  147.0987  143.0478  154.0524 O   0  0  0  0  0  0  0  0  0  0  0  0
  147.1391  140.8443  155.1416 C   0  0  2  0  0  0  0  0  0  0  0  0
  145.7175  141.1158  155.6658 C   0  0  0  0  0  0  0  0  0  0  0  0
  144.8916  141.5848  154.6214 O   0  0  0  0  0  0  0  0  0  0  0  0
  148.1156  141.0721  156.1590 O   0  0  0  0  0  0  0  0  0  0  0  0
  154.2704  138.2552  157.1957 H   0  0  0  0  0  0  0  0  0  0  0  0
  154.1444  136.7602  156.2933 H   0  0  0  0  0  0  0  0  0  0  0  0
  150.4039  136.9966  153.8526 H   0  0  0  0  0  0  0  0  0  0  0  0
  149.3575  142.6841  156.0494 H   0  0  0  0  0  0  0  0  0  0  0  0
  149.6092  142.5399  153.6499 H   0  0  0  0  0  0  0  0  0  0  0  0
  149.4909  140.7680  153.6831 H   0  0  0  0  0  0  0  0  0  0  0  0
  147.2633  141.3042  153.0048 H   0  0  0  0  0  0  0  0  0  0  0  0
  146.2005  143.0604  153.7587 H   0  0  0  0  0  0  0  0  0  0  0  0
  147.2259  139.8023  154.8284 H   0  0  0  0  0  0  0  0  0  0  0  0
  145.2847  140.2240  156.1204 H   0  0  0  0  0  0  0  0  0  0  0  0
  145.7410  141.8927  156.4307 H   0  0  0  0  0  0  0  0  0  0  0  0
  144.6819  140.8587  154.0541 H   0  0  0  0  0  0  0  0  0  0  0  0
  1  2  1  0  0  0  0
  1 20  1  0  0  0  0
  1 21  1  0  0  0  0
  2  7  1  0  0  0  0
  2  3  2  0  0  0  0
  3  4  1  0  0  0  0
  4  5  2  0  0  0  0
  4 22  1  0  0  0  0
  5  6  1  0  0  0  0
  6 11  1  0  0  0  0
  6  7  2  0  0  0  0
  7  8  1  0  0  0  0
  8  9  2  0  0  0  0
  9 10  1  0  0  0  0
  9 11  1  0  0  0  0
 11 12  1  0  0  0  0
 12 19  1  0  0  0  0
 12 13  1  0  0  0  0
 12 23  1  0  0  0  0
 13 14  1  0  0  0  0
 13 24  1  0  0  0  0
 13 25  1  0  0  0  0
 14 15  1  0  0  0  0
 14 16  1  0  0  0  0
 14 26  1  0  0  0  0
 15 27  1  0  0  0  0
 16 17  1  0  0  0  0
 16 19  1  0  0  0  0
 16 28  1  0  0  0  0
 17 18  1  0  0  0  0
 17 29  1  0  0  0  0
 17 30  1  0  0  0  0
 18 31  1  0  0  0  0
M  END
> <s_m_source_file>
AV-unprocessed.smi

> <i_m_source_file_index>
285

> <i_lp_mmshare_version>
43012

> <i_f3d_flags>
0

> <s_epik_input>
bjFbY0hdbmMoW05IMl0pYyhjMTIpbmMoQnIpbjJbQ0BASF0zW0NIMl1bQ0BASF0oW09IXSlbQ0BIXShPMylbQ0gyXVtPSF0=

> <s_epik_cmdline>
J2VwaWtfcHl0aG9uJywgJy1waCcsICc3LjAnLCAnLXRuJywgJzgnLCAnLW1hJywgJzIwMCcsICctbWV0YWxfYmluZGluZycsICctaW1hZScsICc8aW5maWxlLm1hZT4nLCAnLW9tYWUnLCAnPG91dGZpbGUubWFlPic=

> <r_lp_tautomer_probability>
1

> <r_epik_Ionization_Penalty>
0.000103242

> <r_epik_Ionization_Penalty_Charging>
0

> <r_epik_Ionization_Penalty_Neutral>
0.000103242

> <r_epik_State_Penalty>
-0

> <r_epik_Charging_Adjusted_Penalty>
0

> <i_epik_Tot_Q>
0

> <i_epik_Tot_abs_Q>
0

> <r_epik_Metal_State_Penalty>
-0

> <b_epik_Metal_Only>
0

> <s_epik_Chemistry_Notes>
This compound contains an acetal/aminal-like group ( X-CH(R)-Y where X, Y are N, S, or O) that may be acid/base labile, releasing an aldehyde.

> <s_lp_Force_Field>
OPLS_2005

> <r_lp_Energy>
37.1806

> <b_lp_Chiralities_Consistent>
1

> <s_lp_Variant>
AV-unprocessed.smi:285-8

> <Gold.Version>
5.8.1

> <Gold.Id.Protein>
6NUR|6NUR_protein|mol2

> <Gold.PLP.Fitness>
36.4361

> <Gold.PLP.PLP>
-25.6638

> <Gold.PLP.part.hbond>
-4.9948

> <Gold.PLP.part.metal>
0.0000

> <Gold.PLP.part.buried>
1.6734

> <Gold.PLP.part.nonpolar>
-24.6112

> <Gold.PLP.part.repulsive>
1.7218

> <Gold.PLP.ligand.clash>
0.0000

> <Gold.PLP.ligand.torsion>
0.6526

> <Gold.PLP.Chemscore.Hbond>
3.0007

> <Gold.PLP.Chemscore.CHOScore>
1.0241

> <Gold.PLP.Chemscore.Metal>
0.0000

> <Gold.Chemscore.Hbonds>
donor molecule, donor type, donor heavy atom, donor atom, acceptor molecule, acceptor atom, score
      L1  H    18    31       P1 10175  0.78
      P1  H  7997  8008       L1     8  0.42
      P1  H  8022  8030       L1    15  0.18
      P1  H 10752 10764       L1     3  0.90
      L1  C     4    22       P1  7948  0.78
      L1  C     4    22       P1  7949  0.28

> <Gold.PLP.Chemscore.Internal.Correction>
0.0032

> <Gold.Rescore>
     Score         DG    S(hbond)    S(metal)    S(lipo)     H(rot)  DE(clash)    DE(int)     intcor
      6.01      -7.86       1.71        0.00      38.45       3.06       1.24       0.61       ----

> <Gold.Chemscore.Fitness>
6.0083

> <Gold.Chemscore.DG>
-7.8610

> <Gold.Chemscore.ZeroCoef>
-5.4800

> <Gold.Chemscore.Hbond>
1.7120

> <Gold.Chemscore.Metal>
0.0000

> <Gold.Chemscore.Lipo>
38.4479

> <Gold.Chemscore.Internal_Hbond>
0.0000

> <Gold.Chemscore.DEClash>
1.2443

> <Gold.Chemscore.DEInternal>
0.6084

> <Gold.Chemscore.Rot>
3.0607

> <Gold.Chemscore.Internal.Correction>
   9.000000E+99

> <Gold.Chemscore.Hbonds>
donor molecule, donor type, donor heavy atom, donor atom, acceptor molecule, acceptor atom, score
      L1  H    18    31       P1 10175  0.74
      P1  H  7997  8008       L1     8  0.01
      P1  H  8022  8030       L1    15  0.17
      P1  H 10752 10764       L1     3  0.78

> <Gold.Chemscore.Hbond.Weighted>
-5.7180

> <Gold.Chemscore.Metal.Weighted>
-0.0000

> <Gold.Chemscore.Lipo.Weighted>
-4.4984

> <Gold.Chemscore.Internal_Hbond.Weighted>
0.0000

> <Gold.Chemscore.DEClash.Weighted>
1.2443

> <Gold.Chemscore.DEInternal.Weighted>
0.6084

> <Gold.Chemscore.Rot.Weighted>
7.8354

> <Gold.Chemscore.Internal.Correction.Weighted>
   9.000000E+99

> <Gold.Protein.RotatedTorsions>
[ 6907 6896 6895 6894 ] final -166.47 input  -60.11 | X-H torsion
[ 7974 7965 7964 7962 ] final -173.02 input  175.53 | X-H torsion
[ 8008 7997 7996 7995 ] final  -56.22 input   59.86 | X-H torsion
[ 10167 10162 10161 10158 ] final  165.97 input  -65.29 | X-H torsion
[ 10718 10713 10712 10709 ] final  172.32 input   66.30 | X-H torsion
[ 10763 10752 10751 10750 ] final  -61.31 input  -60.55 | X-H torsion
[ 11005 11000 10999 10996 ] final  172.68 input  -57.11 | X-H torsion

> <Gold.Protein.ActiveResidues>
 VAL166  LYS551  ARG553  GLY616  TRP617  ASP618  TYR619  PRO620  LYS621  CYS622 
 ASP623  PHE694  ASN695  SER759  ASP760  ASP761  ALA762  ILE779  LEU786  VAL792 
 PHE793  MET794  SER795  GLU796  ALA797  LYS798  CYS799  TRP800  GLU811  SER814 

> <Gold.Protein.RotatedAtoms>
  151.4442  133.3635  159.2785 H   0  0  0  0  0  0  0  0  0  0  0  0  # atno 6907 bound_to 6896
  150.9136  134.8555  159.7453 H   0  0  0  0  0  0  0  0  0  0  0  0  # atno 6908 bound_to 6896
  152.4945  134.4374  159.9584 H   0  0  0  0  0  0  0  0  0  0  0  0  # atno 6909 bound_to 6896
  144.7141  140.1685  143.6369 H   0  0  0  0  0  0  0  0  0  0  0  0  # atno 7974 bound_to 7965
  154.4222  140.1135  156.5602 H   0  0  0  0  0  0  0  0  0  0  0  0  # atno 8008 bound_to 7997
  155.6319  140.3495  155.4666 H   0  0  0  0  0  0  0  0  0  0  0  0  # atno 8009 bound_to 7997
  155.9941  140.1185  157.0600 H   0  0  0  0  0  0  0  0  0  0  0  0  # atno 8010 bound_to 7997
  139.4916  144.4076  151.9337 H   0  0  0  0  0  0  0  0  0  0  0  0  # atno 10167 bound_to 10162
  156.9806  131.0118  151.2882 H   0  0  0  0  0  0  0  0  0  0  0  0  # atno 10718 bound_to 10713
  154.2826  135.6269  153.5353 H   0  0  0  0  0  0  0  0  0  0  0  0  # atno 10763 bound_to 10752
  152.9863  135.5636  154.5478 H   0  0  0  0  0  0  0  0  0  0  0  0  # atno 10764 bound_to 10752
  154.5072  135.2875  155.1348 H   0  0  0  0  0  0  0  0  0  0  0  0  # atno 10765 bound_to 10752
  140.3323  134.7347  157.4143 H   0  0  0  0  0  0  0  0  0  0  0  0  # atno 11005 bound_to 11000
  145.8965  139.2406  143.1519 LP  0  0  0  0  0  0  0  0  0  0  0  0  # atno 17320 bound_to 7965
  145.9852  140.8649  143.0094 LP  0  0  0  0  0  0  0  0  0  0  0  0  # atno 17321 bound_to 7965
  140.3517  144.3081  150.5948 LP  0  0  0  0  0  0  0  0  0  0  0  0  # atno 17342 bound_to 10162
  140.5479  143.2211  151.7976 LP  0  0  0  0  0  0  0  0  0  0  0  0  # atno 17343 bound_to 10162
  157.5528  130.8194  149.8167 LP  0  0  0  0  0  0  0  0  0  0  0  0  # atno 17370 bound_to 10713
  156.0246  130.3784  150.1862 LP  0  0  0  0  0  0  0  0  0  0  0  0  # atno 17371 bound_to 10713
  140.0850  134.5678  155.8501 LP  0  0  0  0  0  0  0  0  0  0  0  0  # atno 17394 bound_to 11000
  141.2060  133.6652  156.6216 LP  0  0  0  0  0  0  0  0  0  0  0  0  # atno 17395 bound_to 11000

$$$$
