AV-unprocessed.smi:2829|AV-procd|sdf|10903|dock8
  -GOLD-   2272015353D 1   1.00000     0.00000
 Structure written by MMmdl.
 50 53  0  0  0  0  0  0  0  0  1 V2000
  145.0666  131.6056  151.7362 C   0  0  0  0  0  0  0  0  0  0  0  0
  145.9215  132.8883  151.6255 C   0  0  0  0  0  0  0  0  0  0  0  0
  147.1035  132.7437  152.6070 C   0  0  0  0  0  0  0  0  0  0  0  0
  146.4488  132.9714  150.1778 C   0  0  0  0  0  0  0  0  0  0  0  0
  145.1202  134.1595  151.9598 C   0  0  0  0  0  0  0  0  0  0  0  0
  143.7534  134.1407  152.3183 C   0  0  0  0  0  0  0  0  0  0  0  0
  143.1327  135.3703  152.5952 C   0  0  0  0  0  0  0  0  0  0  0  0
  143.9018  136.5469  152.5014 C   0  0  0  0  0  0  0  0  0  0  0  0
  143.2058  137.7495  152.7848 N   0  0  0  0  0  0  0  0  0  0  0  0
  142.1291  137.9250  153.5755 C   0  0  0  0  0  0  0  0  0  0  0  0
  141.5022  137.0178  154.1188 O   0  0  0  0  0  0  0  0  0  0  0  0
  141.7707  139.2117  153.7309 N   0  0  0  0  0  0  0  0  0  0  0  0
  140.6546  139.7340  154.5207 C   0  0  1  0  0  0  0  0  0  0  0  0
  140.2386  141.1501  154.0789 C   0  0  2  0  0  0  0  0  0  0  0  0
  140.3811  142.3057  155.0323 C   0  0  0  0  0  0  0  0  0  0  0  0
  138.9725  142.4421  155.6169 C   0  0  0  0  0  0  0  0  0  0  0  0
  138.3782  141.1602  155.4260 O   0  0  0  0  0  0  0  0  0  0  0  0
  138.7882  140.6856  154.1471 C   0  0  2  0  0  0  0  0  0  0  0  0
  139.2584  139.2268  154.0969 C   0  0  0  0  0  0  0  0  0  0  0  0
  139.0170  138.3899  152.8258 C   0  0  0  0  0  0  0  0  0  0  0  0
  138.7504  137.1742  153.7170 C   0  0  0  0  0  0  0  0  0  0  0  0
  138.5301  138.1330  154.8909 C   0  0  0  0  0  0  0  0  0  0  0  0
  145.2116  136.4917  152.1530 N   0  0  0  0  0  0  0  0  0  0  0  0
  145.8076  135.3256  151.8880 N   0  0  0  0  0  0  0  0  0  0  0  0
  145.6538  130.7179  151.4974 H   0  0  0  0  0  0  0  0  0  0  0  0
  144.2214  131.6222  151.0469 H   0  0  0  0  0  0  0  0  0  0  0  0
  144.6766  131.4671  152.7454 H   0  0  0  0  0  0  0  0  0  0  0  0
  146.7562  132.6948  153.6398 H   0  0  0  0  0  0  0  0  0  0  0  0
  147.7966  133.5823  152.5335 H   0  0  0  0  0  0  0  0  0  0  0  0
  147.6760  131.8369  152.4093 H   0  0  0  0  0  0  0  0  0  0  0  0
  147.0055  132.0742  149.9054 H   0  0  0  0  0  0  0  0  0  0  0  0
  147.1196  133.8199  150.0384 H   0  0  0  0  0  0  0  0  0  0  0  0
  145.6304  133.0797  149.4650 H   0  0  0  0  0  0  0  0  0  0  0  0
  143.1779  133.2305  152.3838 H   0  0  0  0  0  0  0  0  0  0  0  0
  142.0885  135.4056  152.8704 H   0  0  0  0  0  0  0  0  0  0  0  0
  143.6034  138.5860  152.3840 H   0  0  0  0  0  0  0  0  0  0  0  0
  142.3257  139.8988  153.2414 H   0  0  0  0  0  0  0  0  0  0  0  0
  140.8012  139.6811  155.6018 H   0  0  0  0  0  0  0  0  0  0  0  0
  140.5327  141.3707  153.0508 H   0  0  0  0  0  0  0  0  0  0  0  0
  141.1055  142.0782  155.8151 H   0  0  0  0  0  0  0  0  0  0  0  0
  140.7010  143.2226  154.5364 H   0  0  0  0  0  0  0  0  0  0  0  0
  138.9783  142.7301  156.6682 H   0  0  0  0  0  0  0  0  0  0  0  0
  138.3977  143.1854  155.0622 H   0  0  0  0  0  0  0  0  0  0  0  0
  138.1666  141.0280  153.3188 H   0  0  0  0  0  0  0  0  0  0  0  0
  138.1249  138.7042  152.2823 H   0  0  0  0  0  0  0  0  0  0  0  0
  139.8673  138.2808  152.1530 H   0  0  0  0  0  0  0  0  0  0  0  0
  137.8726  136.5916  153.4366 H   0  0  0  0  0  0  0  0  0  0  0  0
  139.6285  136.5404  153.8437 H   0  0  0  0  0  0  0  0  0  0  0  0
  139.0242  137.8347  155.8159 H   0  0  0  0  0  0  0  0  0  0  0  0
  137.4759  138.3629  155.0535 H   0  0  0  0  0  0  0  0  0  0  0  0
  1  2  1  0  0  0  0
  1 25  1  0  0  0  0
  1 26  1  0  0  0  0
  1 27  1  0  0  0  0
  2  3  1  0  0  0  0
  2  4  1  0  0  0  0
  2  5  1  0  0  0  0
  3 28  1  0  0  0  0
  3 29  1  0  0  0  0
  3 30  1  0  0  0  0
  4 31  1  0  0  0  0
  4 32  1  0  0  0  0
  4 33  1  0  0  0  0
  5 24  1  0  0  0  0
  5  6  2  0  0  0  0
  6  7  1  0  0  0  0
  6 34  1  0  0  0  0
  7  8  2  0  0  0  0
  7 35  1  0  0  0  0
  8  9  1  0  0  0  0
  8 23  1  0  0  0  0
  9 10  1  0  0  0  0
  9 36  1  0  0  0  0
 10 11  2  0  0  0  0
 10 12  1  0  0  0  0
 12 13  1  0  0  0  0
 12 37  1  0  0  0  0
 13 19  1  0  0  0  0
 13 14  1  0  0  0  0
 13 38  1  0  0  0  0
 14 18  1  0  0  0  0
 14 15  1  0  0  0  0
 14 39  1  0  0  0  0
 15 16  1  0  0  0  0
 15 40  1  0  0  0  0
 15 41  1  0  0  0  0
 16 17  1  0  0  0  0
 16 42  1  0  0  0  0
 16 43  1  0  0  0  0
 17 18  1  0  0  0  0
 18 19  1  0  0  0  0
 18 44  1  0  0  0  0
 19 22  1  0  0  0  0
 19 20  1  0  0  0  0
 20 21  1  0  0  0  0
 20 45  1  0  0  0  0
 20 46  1  0  0  0  0
 21 22  1  0  0  0  0
 21 47  1  0  0  0  0
 21 48  1  0  0  0  0
 22 49  1  0  0  0  0
 22 50  1  0  0  0  0
 23 24  2  0  0  0  0
M  END
> <s_m_source_file>
AV-unprocessed.smi

> <i_m_source_file_index>
2829

> <i_lp_mmshare_version>
43012

> <i_f3d_flags>
0

> <s_epik_input>
W0NIM11DKFtDSDNdKShbQ0gzXSljMVtjSF1bY0hdYyhubjEpW05IXUMoPU8pW05IXVtDQEBIXTJbQ0BIXShbQ0gyXVtDSDJdTzMpW0NAQEhdM0MyNFtDSDJdW0NIMl1bQ0gyXTQ=

> <s_epik_cmdline>
J2VwaWtfcHl0aG9uJywgJy1waCcsICc3LjAnLCAnLXRuJywgJzgnLCAnLW1hJywgJzIwMCcsICctbWV0YWxfYmluZGluZycsICctaW1hZScsICc8aW5maWxlLm1hZT4nLCAnLW9tYWUnLCAnPG91dGZpbGUubWFlPic=

> <r_lp_tautomer_probability>
1

> <r_epik_Ionization_Penalty>
0.011915

> <r_epik_Ionization_Penalty_Charging>
0

> <r_epik_Ionization_Penalty_Neutral>
0.011915

> <r_epik_State_Penalty>
0.00486223

> <r_epik_Charging_Adjusted_Penalty>
0.00486223

> <i_epik_Tot_Q>
0

> <i_epik_Tot_abs_Q>
0

> <r_epik_Metal_State_Penalty>
-0

> <b_epik_Metal_Only>
0

> <s_lp_Force_Field>
OPLS_2005

> <r_lp_Energy>
59.5844

> <b_lp_Chiralities_Consistent>
1

> <s_lp_Variant>
AV-unprocessed.smi:2829-6

> <Gold.Version>
5.8.1

> <Gold.Id.Protein>
6NUR|6NUR_protein|mol2

> <Gold.PLP.Fitness>
42.5449

> <Gold.PLP.PLP>
-37.2140

> <Gold.PLP.part.hbond>
-2.8704

> <Gold.PLP.part.metal>
0.0000

> <Gold.PLP.part.buried>
-3.0842

> <Gold.PLP.part.nonpolar>
-30.3787

> <Gold.PLP.part.repulsive>
0.4676

> <Gold.PLP.ligand.clash>
0.0000

> <Gold.PLP.ligand.torsion>
0.3005

> <Gold.PLP.Chemscore.Hbond>
1.9120

> <Gold.PLP.Chemscore.CHOScore>
0.0000

> <Gold.PLP.Chemscore.Metal>
0.0000

> <Gold.Chemscore.Hbonds>
donor molecule, donor type, donor heavy atom, donor atom, acceptor molecule, acceptor atom, score
      L1  H     9    36       P1 10175  0.90
      L1  H    12    37       P1 10175  1.00

> <Gold.PLP.Chemscore.Internal.Correction>
0.1960

> <Gold.Rescore>
     Score         DG    S(hbond)    S(metal)    S(lipo)     H(rot)  DE(clash)    DE(int)     intcor
     16.21     -19.40       1.86        0.00      91.25       1.16       0.06       3.13       ----

> <Gold.Chemscore.Fitness>
16.2113

> <Gold.Chemscore.DG>
-19.3953

> <Gold.Chemscore.ZeroCoef>
-5.4800

> <Gold.Chemscore.Hbond>
1.8603

> <Gold.Chemscore.Metal>
0.0000

> <Gold.Chemscore.Lipo>
91.2487

> <Gold.Chemscore.Internal_Hbond>
0.0000

> <Gold.Chemscore.DEClash>
0.0562

> <Gold.Chemscore.DEInternal>
3.1278

> <Gold.Chemscore.Rot>
1.1618

> <Gold.Chemscore.Internal.Correction>
   9.000000E+99

> <Gold.Chemscore.Hbonds>
donor molecule, donor type, donor heavy atom, donor atom, acceptor molecule, acceptor atom, score
      L1  H     9    36       P1 10175  0.88
      L1  H    12    37       P1 10175  0.79

> <Gold.Chemscore.Hbond.Weighted>
-6.2133

> <Gold.Chemscore.Metal.Weighted>
-0.0000

> <Gold.Chemscore.Lipo.Weighted>
-10.6761

> <Gold.Chemscore.Internal_Hbond.Weighted>
0.0000

> <Gold.Chemscore.DEClash.Weighted>
0.0562

> <Gold.Chemscore.DEInternal.Weighted>
3.1278

> <Gold.Chemscore.Rot.Weighted>
2.9741

> <Gold.Chemscore.Internal.Correction.Weighted>
   9.000000E+99

> <Gold.Protein.RotatedTorsions>
[ 6907 6896 6895 6894 ] final  -29.78 input  -60.11 | X-H torsion
[ 7974 7965 7964 7962 ] final    1.59 input  175.53 | X-H torsion
[ 8008 7997 7996 7995 ] final  -75.83 input   59.86 | X-H torsion
[ 10167 10162 10161 10158 ] final  137.58 input  -65.29 | X-H torsion
[ 10718 10713 10712 10709 ] final   76.43 input   66.30 | X-H torsion
[ 10763 10752 10751 10750 ] final   85.91 input  -60.55 | X-H torsion
[ 11005 11000 10999 10996 ] final  162.46 input  -57.11 | X-H torsion

> <Gold.Protein.ActiveResidues>
 VAL166  LYS551  ARG553  GLY616  TRP617  ASP618  TYR619  PRO620  LYS621  CYS622 
 ASP623  PHE694  ASN695  SER759  ASP760  ASP761  ALA762  ILE779  LEU786  VAL792 
 PHE793  MET794  SER795  GLU796  ALA797  LYS798  CYS799  TRP800  GLU811  SER814 

> <Gold.Protein.RotatedAtoms>
  151.1145  135.0045  159.8509 H   0  0  0  0  0  0  0  0  0  0  0  0  # atno 6907 bound_to 6896
  152.5445  134.1796  159.8640 H   0  0  0  0  0  0  0  0  0  0  0  0  # atno 6908 bound_to 6896
  151.1849  133.4658  159.2627 H   0  0  0  0  0  0  0  0  0  0  0  0  # atno 6909 bound_to 6896
  146.2441  140.0964  142.8349 H   0  0  0  0  0  0  0  0  0  0  0  0  # atno 7974 bound_to 7965
  154.5451  140.0737  156.8575 H   0  0  0  0  0  0  0  0  0  0  0  0  # atno 8008 bound_to 7997
  155.3104  140.3390  155.4226 H   0  0  0  0  0  0  0  0  0  0  0  0  # atno 8009 bound_to 7997
  156.1910  140.1686  156.8077 H   0  0  0  0  0  0  0  0  0  0  0  0  # atno 8010 bound_to 7997
  139.5139  144.6402  151.5590 H   0  0  0  0  0  0  0  0  0  0  0  0  # atno 10167 bound_to 10162
  157.6673  130.9774  150.1496 H   0  0  0  0  0  0  0  0  0  0  0  0  # atno 10718 bound_to 10713
  153.1520  135.4600  154.9650 H   0  0  0  0  0  0  0  0  0  0  0  0  # atno 10763 bound_to 10752
  154.7832  135.3195  154.7947 H   0  0  0  0  0  0  0  0  0  0  0  0  # atno 10764 bound_to 10752
  153.8450  135.6926  153.4853 H   0  0  0  0  0  0  0  0  0  0  0  0  # atno 10765 bound_to 10752
  140.2260  134.8160  157.3268 H   0  0  0  0  0  0  0  0  0  0  0  0  # atno 11005 bound_to 11000
  145.0606  140.9085  143.4941 LP  0  0  0  0  0  0  0  0  0  0  0  0  # atno 17320 bound_to 7965
  145.1079  139.2777  143.5652 LP  0  0  0  0  0  0  0  0  0  0  0  0  # atno 17321 bound_to 7965
  140.6165  143.9338  150.6493 LP  0  0  0  0  0  0  0  0  0  0  0  0  # atno 17342 bound_to 10162
  140.2598  143.3532  152.1333 LP  0  0  0  0  0  0  0  0  0  0  0  0  # atno 17343 bound_to 10162
  156.2299  130.3681  149.8457 LP  0  0  0  0  0  0  0  0  0  0  0  0  # atno 17370 bound_to 10713
  156.6287  130.8656  151.3491 LP  0  0  0  0  0  0  0  0  0  0  0  0  # atno 17371 bound_to 10713
  140.1800  134.4501  155.7778 LP  0  0  0  0  0  0  0  0  0  0  0  0  # atno 17394 bound_to 11000
  141.2220  133.6979  156.7853 LP  0  0  0  0  0  0  0  0  0  0  0  0  # atno 17395 bound_to 11000

$$$$
