AV-unprocessed.smi:3331|AV-procd|sdf|12820|dock4
  -GOLD-   2272019193D 1   1.00000     0.00000
 Structure written by MMmdl.
 47 48  0  0  0  0  0  0  0  0  2 V2000
  150.6276  137.4967  156.4361 C   0  0  0  0  0  0  0  0  0  0  0  0
  151.2189  138.3259  155.2821 C   0  0  2  0  0  0  0  0  0  0  0  0
  151.6307  139.7453  155.7333 C   0  0  0  0  0  0  0  0  0  0  0  0
  150.4259  140.6996  155.8945 C   0  0  1  0  0  0  0  0  0  0  0  0
  150.8823  142.1310  156.2095 C   0  0  0  0  0  0  0  0  0  0  0  0
  149.5345  140.6523  154.6363 C   0  0  0  0  0  0  0  0  0  0  0  0
  149.1182  139.2643  154.3909 N   0  0  0  0  0  0  0  0  0  0  0  0
  147.8320  138.8530  154.5349 C   0  0  0  0  0  0  0  0  0  0  0  0
  146.9268  139.6384  154.8200 O   0  0  0  0  0  0  0  0  0  0  0  0
  147.4726  137.3692  154.3173 C   0  0  1  0  0  0  0  0  0  0  0  0
  146.5517  136.8277  155.4310 C   0  0  0  0  0  0  0  0  0  0  0  0
  146.8444  137.2025  152.9876 N   0  3  0  0  0  0  0  0  0  0  0  0
  145.9363  136.0448  152.8608 C   0  0  0  0  0  0  0  0  0  0  0  0
  145.3311  135.9762  151.4517 C   0  0  0  0  0  0  0  0  0  0  0  0
  145.2931  134.6166  150.9495 N   0  0  0  0  0  0  0  0  0  0  0  0
  144.1929  133.8517  150.6233 C   0  0  0  0  0  0  0  0  0  0  0  0
  144.6544  132.6406  150.1935 C   0  0  0  0  0  0  0  0  0  0  0  0
  146.0689  132.7632  150.2905 C   0  0  0  0  0  0  0  0  0  0  0  0
  146.4481  133.9481  150.7417 N   0  0  0  0  0  0  0  0  0  0  0  0
  150.2732  138.4137  154.0645 C   0  0  0  0  0  0  0  0  0  0  0  0
  149.7121  137.9372  156.8302 H   0  0  0  0  0  0  0  0  0  0  0  0
  151.3355  137.4166  157.2615 H   0  0  0  0  0  0  0  0  0  0  0  0
  150.3935  136.4835  156.1086 H   0  0  0  0  0  0  0  0  0  0  0  0
  152.1243  137.8094  154.9612 H   0  0  0  0  0  0  0  0  0  0  0  0
  152.2034  139.6974  156.6603 H   0  0  0  0  0  0  0  0  0  0  0  0
  152.3070  140.1608  154.9850 H   0  0  0  0  0  0  0  0  0  0  0  0
  149.8297  140.3565  156.7413 H   0  0  0  0  0  0  0  0  0  0  0  0
  151.4890  142.5412  155.4015 H   0  0  0  0  0  0  0  0  0  0  0  0
  151.4784  142.1605  157.1220 H   0  0  0  0  0  0  0  0  0  0  0  0
  150.0281  142.7932  156.3534 H   0  0  0  0  0  0  0  0  0  0  0  0
  148.6896  141.3313  154.7577 H   0  0  0  0  0  0  0  0  0  0  0  0
  150.0838  141.0228  153.7692 H   0  0  0  0  0  0  0  0  0  0  0  0
  148.3931  136.7878  154.3618 H   0  0  0  0  0  0  0  0  0  0  0  0
  146.9793  137.0074  156.4186 H   0  0  0  0  0  0  0  0  0  0  0  0
  146.4072  135.7512  155.3427 H   0  0  0  0  0  0  0  0  0  0  0  0
  145.5667  137.2956  155.4044 H   0  0  0  0  0  0  0  0  0  0  0  0
  146.3470  138.0500  152.7537 H   0  0  0  0  0  0  0  0  0  0  0  0
  146.4924  135.1305  153.0730 H   0  0  0  0  0  0  0  0  0  0  0  0
  145.1381  136.1173  153.5998 H   0  0  0  0  0  0  0  0  0  0  0  0
  144.3149  136.3729  151.4550 H   0  0  0  0  0  0  0  0  0  0  0  0
  145.9080  136.5864  150.7549 H   0  0  0  0  0  0  0  0  0  0  0  0
  143.1849  134.2268  150.7236 H   0  0  0  0  0  0  0  0  0  0  0  0
  144.0707  131.7959  149.8586 H   0  0  0  0  0  0  0  0  0  0  0  0
  146.8259  132.0318  150.0480 H   0  0  0  0  0  0  0  0  0  0  0  0
  150.8058  138.8624  153.2244 H   0  0  0  0  0  0  0  0  0  0  0  0
  150.0102  137.4155  153.7206 H   0  0  0  0  0  0  0  0  0  0  0  0
  147.5880  137.0743  152.3162 H   0  0  0  0  0  0  0  0  0  0  0  0
  1  2  1  0  0  0  0
  1 21  1  0  0  0  0
  1 22  1  0  0  0  0
  1 23  1  0  0  0  0
  2 20  1  0  0  0  0
  2  3  1  0  0  0  0
  2 24  1  0  0  0  0
  3  4  1  0  0  0  0
  3 25  1  0  0  0  0
  3 26  1  0  0  0  0
  4  5  1  0  0  0  0
  4  6  1  0  0  0  0
  4 27  1  0  0  0  0
  5 28  1  0  0  0  0
  5 29  1  0  0  0  0
  5 30  1  0  0  0  0
  6  7  1  0  0  0  0
  6 31  1  0  0  0  0
  6 32  1  0  0  0  0
  7  8  1  0  0  0  0
  7 20  1  0  0  0  0
  8  9  2  0  0  0  0
  8 10  1  0  0  0  0
 10 11  1  0  0  0  0
 10 12  1  0  0  0  0
 10 33  1  0  0  0  0
 11 34  1  0  0  0  0
 11 35  1  0  0  0  0
 11 36  1  0  0  0  0
 12 13  1  0  0  0  0
 12 37  1  0  0  0  0
 12 47  1  0  0  0  0
 13 14  1  0  0  0  0
 13 38  1  0  0  0  0
 13 39  1  0  0  0  0
 14 15  1  0  0  0  0
 14 40  1  0  0  0  0
 14 41  1  0  0  0  0
 15 19  1  0  0  0  0
 15 16  1  0  0  0  0
 16 17  2  0  0  0  0
 16 42  1  0  0  0  0
 17 18  1  0  0  0  0
 17 43  1  0  0  0  0
 18 19  2  0  0  0  0
 18 44  1  0  0  0  0
 20 45  1  0  0  0  0
 20 46  1  0  0  0  0
M  CHG  1  12   1
M  END
> <s_m_source_file>
AV-unprocessed.smi

> <i_m_source_file_index>
3331

> <i_lp_mmshare_version>
43012

> <i_f3d_flags>
0

> <s_epik_input>
W0NIM11bQ0BASF0xW0NIMl1bQ0BASF0oW0NIM10pW0NIMl1OKFtDSDJdMSlDKD1PKVtDQEhdKFtDSDNdKVtOSF1bQ0gyXVtDSDJdbjJbY0hdW2NIXVtjSF1uMg==

> <s_epik_cmdline>
J2VwaWtfcHl0aG9uJywgJy1waCcsICc3LjAnLCAnLXRuJywgJzgnLCAnLW1hJywgJzIwMCcsICctbWV0YWxfYmluZGluZycsICctaW1hZScsICc8aW5maWxlLm1hZT4nLCAnLW9tYWUnLCAnPG91dGZpbGUubWFlPic=

> <r_lp_tautomer_probability>
1

> <r_epik_Ionization_Penalty>
0.189706

> <r_epik_Ionization_Penalty_Charging>
0.189703

> <r_epik_Ionization_Penalty_Neutral>
2.45875e-06

> <r_epik_State_Penalty>
0.179341

> <r_epik_Charging_Adjusted_Penalty>
0.369044

> <i_epik_Tot_Q>
1

> <i_epik_Tot_abs_Q>
1

> <r_epik_Metal_State_Penalty>
0.179578

> <b_epik_Metal_Only>
0

> <s_lp_Force_Field>
OPLS_2005

> <r_lp_Energy>
29.8241

> <b_lp_Chiralities_Consistent>
1

> <s_lp_Variant>
AV-unprocessed.smi:3331-4

> <Gold.Version>
5.8.1

> <Gold.Id.Protein>
6NUR|6NUR_protein|mol2

> <Gold.PLP.Fitness>
43.1967

> <Gold.PLP.PLP>
-33.1922

> <Gold.PLP.part.hbond>
-1.0000

> <Gold.PLP.part.metal>
0.0000

> <Gold.PLP.part.buried>
-4.1596

> <Gold.PLP.part.nonpolar>
-28.5120

> <Gold.PLP.part.repulsive>
0.2943

> <Gold.PLP.ligand.clash>
0.0000

> <Gold.PLP.ligand.torsion>
1.0353

> <Gold.PLP.Chemscore.Hbond>
2.0000

> <Gold.PLP.Chemscore.CHOScore>
2.0000

> <Gold.PLP.Chemscore.Metal>
0.0000

> <Gold.Chemscore.Hbonds>
donor molecule, donor type, donor heavy atom, donor atom, acceptor molecule, acceptor atom, score
      L1  H    12    47       P1  7948  1.98
      L1  C    16    42       P1 10186  1.00
      L1  C    18    44       P1 10747  1.00

> <Gold.PLP.Chemscore.Internal.Correction>
0.0752

> <Gold.Rescore>
     Score         DG    S(hbond)    S(metal)    S(lipo)     H(rot)  DE(clash)    DE(int)     intcor
     12.95     -14.11       0.95        0.00      84.33       1.73       0.01       1.15       ----

> <Gold.Chemscore.Fitness>
12.9473

> <Gold.Chemscore.DG>
-14.1132

> <Gold.Chemscore.ZeroCoef>
-5.4800

> <Gold.Chemscore.Hbond>
0.9533

> <Gold.Chemscore.Metal>
0.0000

> <Gold.Chemscore.Lipo>
84.3273

> <Gold.Chemscore.Internal_Hbond>
0.0000

> <Gold.Chemscore.DEClash>
0.0111

> <Gold.Chemscore.DEInternal>
1.1547

> <Gold.Chemscore.Rot>
1.7254

> <Gold.Chemscore.Internal.Correction>
   9.000000E+99

> <Gold.Chemscore.Hbonds>
donor molecule, donor type, donor heavy atom, donor atom, acceptor molecule, acceptor atom, score
      L1  H    12    47       P1  7948  0.93

> <Gold.Chemscore.Hbond.Weighted>
-3.1839

> <Gold.Chemscore.Metal.Weighted>
-0.0000

> <Gold.Chemscore.Lipo.Weighted>
-9.8663

> <Gold.Chemscore.Internal_Hbond.Weighted>
0.0000

> <Gold.Chemscore.DEClash.Weighted>
0.0111

> <Gold.Chemscore.DEInternal.Weighted>
1.1547

> <Gold.Chemscore.Rot.Weighted>
4.4170

> <Gold.Chemscore.Internal.Correction.Weighted>
   9.000000E+99

> <Gold.Protein.RotatedTorsions>
[ 6907 6896 6895 6894 ] final    9.26 input  -60.11 | X-H torsion
[ 7974 7965 7964 7962 ] final  141.25 input  175.53 | X-H torsion
[ 8008 7997 7996 7995 ] final -122.96 input   59.86 | X-H torsion
[ 10167 10162 10161 10158 ] final   67.97 input  -65.29 | X-H torsion
[ 10718 10713 10712 10709 ] final  -56.28 input   66.30 | X-H torsion
[ 10763 10752 10751 10750 ] final -149.95 input  -60.55 | X-H torsion
[ 11005 11000 10999 10996 ] final   -8.78 input  -57.11 | X-H torsion

> <Gold.Protein.ActiveResidues>
 VAL166  LYS551  ARG553  GLY616  TRP617  ASP618  TYR619  PRO620  LYS621  CYS622 
 ASP623  PHE694  ASN695  SER759  ASP760  ASP761  ALA762  ILE779  LEU786  VAL792 
 PHE793  MET794  SER795  GLU796  ALA797  LYS798  CYS799  TRP800  GLU811  SER814 

> <Gold.Protein.RotatedAtoms>
  151.7192  135.0897  160.0280 H   0  0  0  0  0  0  0  0  0  0  0  0  # atno 6907 bound_to 6896
  152.3612  133.6295  159.6025 H   0  0  0  0  0  0  0  0  0  0  0  0  # atno 6908 bound_to 6896
  150.7606  133.9336  159.3476 H   0  0  0  0  0  0  0  0  0  0  0  0  # atno 6909 bound_to 6896
  144.9113  139.5289  143.5707 H   0  0  0  0  0  0  0  0  0  0  0  0  # atno 7974 bound_to 7965
  155.1727  140.0408  157.2866 H   0  0  0  0  0  0  0  0  0  0  0  0  # atno 8008 bound_to 7997
  154.6258  140.2512  155.7466 H   0  0  0  0  0  0  0  0  0  0  0  0  # atno 8009 bound_to 7997
  156.2458  140.2885  156.0587 H   0  0  0  0  0  0  0  0  0  0  0  0  # atno 8010 bound_to 7997
  140.0837  144.5048  150.7145 H   0  0  0  0  0  0  0  0  0  0  0  0  # atno 10167 bound_to 10162
  156.1301  130.4160  150.0284 H   0  0  0  0  0  0  0  0  0  0  0  0  # atno 10718 bound_to 10713
  154.8148  135.3296  154.7207 H   0  0  0  0  0  0  0  0  0  0  0  0  # atno 10763 bound_to 10752
  153.7850  135.6915  153.4886 H   0  0  0  0  0  0  0  0  0  0  0  0  # atno 10764 bound_to 10752
  153.1955  135.4535  155.0149 H   0  0  0  0  0  0  0  0  0  0  0  0  # atno 10765 bound_to 10752
  140.7271  133.8780  155.8864 H   0  0  0  0  0  0  0  0  0  0  0  0  # atno 11005 bound_to 11000
  146.3160  139.7922  142.8983 LP  0  0  0  0  0  0  0  0  0  0  0  0  # atno 17320 bound_to 7965
  145.3449  141.0295  143.3371 LP  0  0  0  0  0  0  0  0  0  0  0  0  # atno 17321 bound_to 7965
  140.7064  143.2471  151.4712 LP  0  0  0  0  0  0  0  0  0  0  0  0  # atno 17342 bound_to 10162
  139.5764  144.1808  152.1909 LP  0  0  0  0  0  0  0  0  0  0  0  0  # atno 17343 bound_to 10162
  156.8199  130.9355  151.3641 LP  0  0  0  0  0  0  0  0  0  0  0  0  # atno 17370 bound_to 10713
  157.6479  130.8860  149.9575 LP  0  0  0  0  0  0  0  0  0  0  0  0  # atno 17371 bound_to 10713
  140.9953  134.1223  157.4369 LP  0  0  0  0  0  0  0  0  0  0  0  0  # atno 17394 bound_to 11000
  139.8835  135.0052  156.6302 LP  0  0  0  0  0  0  0  0  0  0  0  0  # atno 17395 bound_to 11000

$$$$
