AV-unprocessed.smi:3255|AV-procd|sdf|12458|dock4
  -GOLD-   2272018353D 1   1.00000     0.00000
 Structure written by MMmdl.
 39 40  0  0  0  0  0  0  0  0  2 V2000
  148.1381  140.2950  154.0735 C   0  0  0  0  0  0  0  0  0  0  0  0
  148.8055  138.9452  154.3740 C   0  0  1  0  0  0  0  0  0  0  0  0
  148.1521  137.9001  153.5873 N   0  0  0  0  0  0  0  0  0  0  0  0
  146.8280  137.7253  153.4764 C   0  0  0  0  0  0  0  0  0  0  0  0
  145.9855  138.4526  154.0031 O   0  0  0  0  0  0  0  0  0  0  0  0
  146.5268  136.6502  152.7352 N   0  0  0  0  0  0  0  0  0  0  0  0
  145.1707  136.1866  152.4692 C   0  0  0  0  0  0  0  0  0  0  0  0
  144.9889  135.8004  150.9916 C   0  0  0  0  0  0  0  0  0  0  0  0
  145.2483  134.3779  150.7693 N   0  0  0  0  0  0  0  0  0  0  0  0
  144.3789  133.4369  150.2810 C   0  0  0  0  0  0  0  0  0  0  0  0
  145.0649  132.2495  150.2538 C   0  0  0  0  0  0  0  0  0  0  0  0
  146.3217  132.5163  150.7274 N   0  3  0  0  0  0  0  0  0  0  0  0
  146.4311  133.8114  151.0408 C   0  0  0  0  0  0  0  0  0  0  0  0
  150.3308  138.9882  154.1203 C   0  0  2  0  0  0  0  0  0  0  0  0
  151.1283  137.7503  154.5532 C   0  0  0  0  0  0  0  0  0  0  0  0
  152.4900  138.3423  154.8374 C   0  0  0  0  0  0  0  0  0  0  0  0
  152.1121  139.6754  155.4721 C   0  0  0  0  0  0  0  0  0  0  0  0
  150.9318  140.0932  154.7947 O   0  0  0  0  0  0  0  0  0  0  0  0
  148.5790  141.0918  154.6731 H   0  0  0  0  0  0  0  0  0  0  0  0
  147.0722  140.2653  154.3018 H   0  0  0  0  0  0  0  0  0  0  0  0
  148.2459  140.5699  153.0238 H   0  0  0  0  0  0  0  0  0  0  0  0
  148.6450  138.7415  155.4344 H   0  0  0  0  0  0  0  0  0  0  0  0
  148.7580  137.2464  153.1136 H   0  0  0  0  0  0  0  0  0  0  0  0
  147.2842  136.1117  152.3403 H   0  0  0  0  0  0  0  0  0  0  0  0
  144.9377  135.3409  153.1189 H   0  0  0  0  0  0  0  0  0  0  0  0
  144.4753  136.9829  152.7361 H   0  0  0  0  0  0  0  0  0  0  0  0
  143.9730  136.0160  150.6578 H   0  0  0  0  0  0  0  0  0  0  0  0
  145.6642  136.3680  150.3489 H   0  0  0  0  0  0  0  0  0  0  0  0
  143.3640  133.6754  149.9972 H   0  0  0  0  0  0  0  0  0  0  0  0
  144.7607  131.2609  149.9420 H   0  0  0  0  0  0  0  0  0  0  0  0
  147.3024  134.3031  151.4365 H   0  0  0  0  0  0  0  0  0  0  0  0
  150.5090  139.1568  153.0570 H   0  0  0  0  0  0  0  0  0  0  0  0
  150.7291  137.3099  155.4671 H   0  0  0  0  0  0  0  0  0  0  0  0
  151.1528  136.9745  153.7877 H   0  0  0  0  0  0  0  0  0  0  0  0
  153.1036  137.7187  155.4883 H   0  0  0  0  0  0  0  0  0  0  0  0
  153.0323  138.5069  153.9055 H   0  0  0  0  0  0  0  0  0  0  0  0
  151.8759  139.5401  156.5284 H   0  0  0  0  0  0  0  0  0  0  0  0
  152.9046  140.4197  155.3926 H   0  0  0  0  0  0  0  0  0  0  0  0
  147.0633  131.8342  150.8278 H   0  0  0  0  0  0  0  0  0  0  0  0
  1  2  1  0  0  0  0
  1 19  1  0  0  0  0
  1 20  1  0  0  0  0
  1 21  1  0  0  0  0
  2  3  1  0  0  0  0
  2 14  1  0  0  0  0
  2 22  1  0  0  0  0
  3  4  1  0  0  0  0
  3 23  1  0  0  0  0
  4  5  2  0  0  0  0
  4  6  1  0  0  0  0
  6  7  1  0  0  0  0
  6 24  1  0  0  0  0
  7  8  1  0  0  0  0
  7 25  1  0  0  0  0
  7 26  1  0  0  0  0
  8  9  1  0  0  0  0
  8 27  1  0  0  0  0
  8 28  1  0  0  0  0
  9 13  1  0  0  0  0
  9 10  1  0  0  0  0
 10 11  2  0  0  0  0
 10 29  1  0  0  0  0
 11 12  1  0  0  0  0
 11 30  1  0  0  0  0
 12 13  2  0  0  0  0
 12 39  1  0  0  0  0
 13 31  1  0  0  0  0
 14 18  1  0  0  0  0
 14 15  1  0  0  0  0
 14 32  1  0  0  0  0
 15 16  1  0  0  0  0
 15 33  1  0  0  0  0
 15 34  1  0  0  0  0
 16 17  1  0  0  0  0
 16 35  1  0  0  0  0
 16 36  1  0  0  0  0
 17 18  1  0  0  0  0
 17 37  1  0  0  0  0
 17 38  1  0  0  0  0
M  CHG  1  12   1
M  END
> <s_m_source_file>
AV-unprocessed.smi

> <i_m_source_file_index>
3255

> <i_lp_mmshare_version>
43012

> <i_f3d_flags>
0

> <s_epik_input>
TzFbQ0gyXVtDSDJdW0NIMl1bQ0BIXTFbQ0BIXShbQ0gzXSlbTkhdQyg9TylbTkhdW0NIMl1bQ0gyXW4yW2NIXVtjSF1uW2NIXTI=

> <s_epik_cmdline>
J2VwaWtfcHl0aG9uJywgJy1waCcsICc3LjAnLCAnLXRuJywgJzgnLCAnLW1hJywgJzIwMCcsICctbWV0YWxfYmluZGluZycsICctaW1hZScsICc8aW5maWxlLm1hZT4nLCAnLW9tYWUnLCAnPG91dGZpbGUubWFlPic=

> <r_lp_tautomer_probability>
1

> <r_epik_Ionization_Penalty>
0.256241

> <r_epik_Ionization_Penalty_Charging>
0

> <r_epik_Ionization_Penalty_Neutral>
0.256241

> <r_epik_State_Penalty>
0.247735

> <r_epik_Charging_Adjusted_Penalty>
0.247735

> <i_epik_Tot_Q>
1

> <i_epik_Tot_abs_Q>
1

> <r_epik_Metal_State_Penalty>
0.537184

> <b_epik_Metal_Only>
0

> <s_lp_Force_Field>
OPLS_2005

> <r_lp_Energy>
18.6285

> <b_lp_Chiralities_Consistent>
1

> <s_lp_Variant>
AV-unprocessed.smi:3255-2

> <Gold.Version>
5.8.1

> <Gold.Id.Protein>
6NUR|6NUR_protein|mol2

> <Gold.PLP.Fitness>
50.0682

> <Gold.PLP.PLP>
-35.0883

> <Gold.PLP.part.hbond>
-3.7033

> <Gold.PLP.part.metal>
0.0000

> <Gold.PLP.part.buried>
-3.6010

> <Gold.PLP.part.nonpolar>
-28.1092

> <Gold.PLP.part.repulsive>
0.3162

> <Gold.PLP.ligand.clash>
0.0000

> <Gold.PLP.ligand.torsion>
0.4669

> <Gold.PLP.Chemscore.Hbond>
3.4568

> <Gold.PLP.Chemscore.CHOScore>
1.8417

> <Gold.PLP.Chemscore.Metal>
0.0000

> <Gold.Chemscore.Hbonds>
donor molecule, donor type, donor heavy atom, donor atom, acceptor molecule, acceptor atom, score
      L1  H     3    23       P1  7948  0.96
      L1  H     6    24       P1  7948  0.86
      L1  H    12    39       P1 10747  0.54
      P1  H  7989  7998       L1    18  0.95
      L1  C    10    29       P1 10186  1.00
      L1  C    13    31       P1  7948  0.97

> <Gold.PLP.Chemscore.Internal.Correction>
0.0184

> <Gold.Rescore>
     Score         DG    S(hbond)    S(metal)    S(lipo)     H(rot)  DE(clash)    DE(int)     intcor
     15.69     -17.63       2.90        0.00      70.69       2.26       0.12       1.83       ----

> <Gold.Chemscore.Fitness>
15.6901

> <Gold.Chemscore.DG>
-17.6339

> <Gold.Chemscore.ZeroCoef>
-5.4800

> <Gold.Chemscore.Hbond>
2.8980

> <Gold.Chemscore.Metal>
0.0000

> <Gold.Chemscore.Lipo>
70.6862

> <Gold.Chemscore.Internal_Hbond>
0.0000

> <Gold.Chemscore.DEClash>
0.1178

> <Gold.Chemscore.DEInternal>
1.8260

> <Gold.Chemscore.Rot>
2.2640

> <Gold.Chemscore.Internal.Correction>
   9.000000E+99

> <Gold.Chemscore.Hbonds>
donor molecule, donor type, donor heavy atom, donor atom, acceptor molecule, acceptor atom, score
      L1  H     3    23       P1  7948  0.91
      L1  H     6    24       P1  7948  0.85
      L1  H    12    39       P1 10747  0.53
      P1  H  7989  7998       L1    18  0.06

> <Gold.Chemscore.Hbond.Weighted>
-9.6794

> <Gold.Chemscore.Metal.Weighted>
-0.0000

> <Gold.Chemscore.Lipo.Weighted>
-8.2703

> <Gold.Chemscore.Internal_Hbond.Weighted>
0.0000

> <Gold.Chemscore.DEClash.Weighted>
0.1178

> <Gold.Chemscore.DEInternal.Weighted>
1.8260

> <Gold.Chemscore.Rot.Weighted>
5.7958

> <Gold.Chemscore.Internal.Correction.Weighted>
   9.000000E+99

> <Gold.Protein.RotatedTorsions>
[ 6907 6896 6895 6894 ] final   97.83 input  -60.11 | X-H torsion
[ 7974 7965 7964 7962 ] final  -99.26 input  175.53 | X-H torsion
[ 8008 7997 7996 7995 ] final -159.50 input   59.86 | X-H torsion
[ 10167 10162 10161 10158 ] final  119.31 input  -65.29 | X-H torsion
[ 10718 10713 10712 10709 ] final -146.25 input   66.30 | X-H torsion
[ 10763 10752 10751 10750 ] final  -29.52 input  -60.55 | X-H torsion
[ 11005 11000 10999 10996 ] final  131.58 input  -57.11 | X-H torsion

> <Gold.Protein.ActiveResidues>
 VAL166  LYS551  ARG553  GLY616  TRP617  ASP618  TYR619  PRO620  LYS621  CYS622 
 ASP623  PHE694  ASN695  SER759  ASP760  ASP761  ALA762  ILE779  LEU786  VAL792 
 PHE793  MET794  SER795  GLU796  ALA797  LYS798  CYS799  TRP800  GLU811  SER814 

> <Gold.Protein.RotatedAtoms>
  152.5418  134.0673  159.8178 H   0  0  0  0  0  0  0  0  0  0  0  0  # atno 6907 bound_to 6896
  151.0792  133.5396  159.2629 H   0  0  0  0  0  0  0  0  0  0  0  0  # atno 6908 bound_to 6896
  151.2230  135.0534  159.9011 H   0  0  0  0  0  0  0  0  0  0  0  0  # atno 6909 bound_to 6896
  145.3098  140.9397  143.2776 H   0  0  0  0  0  0  0  0  0  0  0  0  # atno 7974 bound_to 7965
  155.7635  140.0842  157.2143 H   0  0  0  0  0  0  0  0  0  0  0  0  # atno 8008 bound_to 7997
  154.4001  140.1538  156.2917 H   0  0  0  0  0  0  0  0  0  0  0  0  # atno 8009 bound_to 7997
  155.8816  140.3420  155.5894 H   0  0  0  0  0  0  0  0  0  0  0  0  # atno 8010 bound_to 7997
  139.6054  144.7068  151.2964 H   0  0  0  0  0  0  0  0  0  0  0  0  # atno 10167 bound_to 10162
  156.3925  130.7893  151.2096 H   0  0  0  0  0  0  0  0  0  0  0  0  # atno 10718 bound_to 10713
  153.7660  135.6916  153.4916 H   0  0  0  0  0  0  0  0  0  0  0  0  # atno 10763 bound_to 10752
  153.1906  135.4472  155.0143 H   0  0  0  0  0  0  0  0  0  0  0  0  # atno 10764 bound_to 10752
  154.8135  135.3388  154.7172 H   0  0  0  0  0  0  0  0  0  0  0  0  # atno 10765 bound_to 10752
  139.9739  134.9569  156.9459 H   0  0  0  0  0  0  0  0  0  0  0  0  # atno 11005 bound_to 11000
  144.9025  139.4632  143.6626 LP  0  0  0  0  0  0  0  0  0  0  0  0  # atno 17320 bound_to 7965
  146.3122  139.7787  142.9011 LP  0  0  0  0  0  0  0  0  0  0  0  0  # atno 17321 bound_to 7965
  140.7281  143.6944  150.7895 LP  0  0  0  0  0  0  0  0  0  0  0  0  # atno 17342 bound_to 10162
  140.0529  143.5232  152.2665 LP  0  0  0  0  0  0  0  0  0  0  0  0  # atno 17343 bound_to 10162
  157.7500  131.0311  150.4167 LP  0  0  0  0  0  0  0  0  0  0  0  0  # atno 17370 bound_to 10713
  156.4431  130.3996  149.6684 LP  0  0  0  0  0  0  0  0  0  0  0  0  # atno 17371 bound_to 10713
  140.5236  134.0883  155.7298 LP  0  0  0  0  0  0  0  0  0  0  0  0  # atno 17394 bound_to 11000
  141.1417  133.9126  157.2310 LP  0  0  0  0  0  0  0  0  0  0  0  0  # atno 17395 bound_to 11000

$$$$
