AV-unprocessed.smi:1762|AV-procd|sdf|7126|dock4
  -GOLD-   22720 8363D 1   1.00000     0.00000
 Structure written by MMmdl.
 52 53  0  0  0  0  0  0  0  0  3 V2000
  152.4212  144.3886  157.8038 C   0  0  0  0  0  0  0  0  0  0  0  0
  151.3937  143.6142  158.6486 C   0  0  1  0  0  0  0  0  0  0  0  0
  150.6768  142.4961  157.8706 C   0  0  0  0  0  0  0  0  0  0  0  0
  151.5762  141.3332  157.6157 N   0  3  2  0  0  0  0  0  0  0  0  0
  150.9373  140.2677  156.7703 C   0  0  1  0  0  0  0  0  0  0  0  0
  149.6864  139.6880  157.4757 C   0  0  0  0  0  0  0  0  0  0  0  0
  148.7493  140.4512  157.7351 O   0  0  0  0  0  0  0  0  0  0  0  0
  149.8397  138.3624  157.7486 N   0  5  0  0  0  0  0  0  0  0  0  0
  149.4491  137.7385  159.0115 C   0  0  0  0  0  0  0  0  0  0  0  0
  148.4366  136.5981  158.7545 C   0  0  0  0  0  0  0  0  0  0  0  0
  147.6821  136.1352  159.9966 C   0  0  0  0  0  0  0  0  0  0  0  0
  147.0626  134.8649  160.0289 C   0  0  0  0  0  0  0  0  0  0  0  0
  146.3902  134.4710  161.2019 C   0  0  0  0  0  0  0  0  0  0  0  0
  146.3641  135.3543  162.2980 C   0  0  0  0  0  0  0  0  0  0  0  0
  147.0162  136.5970  162.1727 C   0  0  0  0  0  0  0  0  0  0  0  0
  147.6653  136.9839  161.0536 N   0  0  0  0  0  0  0  0  0  0  0  0
  150.6055  140.7083  155.3036 C   0  0  0  0  0  0  0  0  0  0  0  0
  149.4246  141.6948  155.1815 C   0  0  0  0  0  0  0  0  0  0  0  0
  150.3985  139.5155  154.3496 C   0  0  0  0  0  0  0  0  0  0  0  0
  152.1305  140.8614  158.9142 C   0  0  0  0  0  0  0  0  0  0  0  0
  152.8500  142.0029  159.6556 C   0  0  2  0  0  0  0  0  0  0  0  0
  153.3565  141.5627  161.0337 C   0  0  0  0  0  0  0  0  0  0  0  0
  151.9556  143.0923  159.8496 O   0  0  0  0  0  0  0  0  0  0  0  0
  151.9323  144.8915  156.9688 H   0  0  0  0  0  0  0  0  0  0  0  0
  153.1878  143.7386  157.3827 H   0  0  0  0  0  0  0  0  0  0  0  0
  152.9192  145.1524  158.4012 H   0  0  0  0  0  0  0  0  0  0  0  0
  150.6382  144.3356  158.9614 H   0  0  0  0  0  0  0  0  0  0  0  0
  149.8106  142.1534  158.4392 H   0  0  0  0  0  0  0  0  0  0  0  0
  150.2872  142.9217  156.9462 H   0  0  0  0  0  0  0  0  0  0  0  0
  151.6926  139.4824  156.6821 H   0  0  0  0  0  0  0  0  0  0  0  0
  150.3076  137.3468  159.5587 H   0  0  0  0  0  0  0  0  0  0  0  0
  148.9904  138.4706  159.6764 H   0  0  0  0  0  0  0  0  0  0  0  0
  147.7076  136.9160  158.0075 H   0  0  0  0  0  0  0  0  0  0  0  0
  148.9496  135.7368  158.3235 H   0  0  0  0  0  0  0  0  0  0  0  0
  147.0994  134.2083  159.1719 H   0  0  0  0  0  0  0  0  0  0  0  0
  145.9045  133.5082  161.2601 H   0  0  0  0  0  0  0  0  0  0  0  0
  145.8578  135.0861  163.2135 H   0  0  0  0  0  0  0  0  0  0  0  0
  147.0188  137.2979  162.9943 H   0  0  0  0  0  0  0  0  0  0  0  0
  151.4862  141.2102  154.9050 H   0  0  0  0  0  0  0  0  0  0  0  0
  148.4735  141.2191  155.4197 H   0  0  0  0  0  0  0  0  0  0  0  0
  149.3448  142.0755  154.1631 H   0  0  0  0  0  0  0  0  0  0  0  0
  149.5371  142.5551  155.8401 H   0  0  0  0  0  0  0  0  0  0  0  0
  149.4843  138.9655  154.5747 H   0  0  0  0  0  0  0  0  0  0  0  0
  151.2318  138.8149  154.4100 H   0  0  0  0  0  0  0  0  0  0  0  0
  150.3281  139.8515  153.3149 H   0  0  0  0  0  0  0  0  0  0  0  0
  151.3248  140.4531  159.5264 H   0  0  0  0  0  0  0  0  0  0  0  0
  152.8598  140.0670  158.7705 H   0  0  0  0  0  0  0  0  0  0  0  0
  153.7103  142.3316  159.0724 H   0  0  0  0  0  0  0  0  0  0  0  0
  154.0662  140.7394  160.9471 H   0  0  0  0  0  0  0  0  0  0  0  0
  152.5351  141.2316  161.6700 H   0  0  0  0  0  0  0  0  0  0  0  0
  153.8620  142.3835  161.5429 H   0  0  0  0  0  0  0  0  0  0  0  0
  152.3560  141.6808  157.0761 H   0  0  0  0  0  0  0  0  0  0  0  0
  1  2  1  0  0  0  0
  1 24  1  0  0  0  0
  1 25  1  0  0  0  0
  1 26  1  0  0  0  0
  2 23  1  0  0  0  0
  2  3  1  0  0  0  0
  2 27  1  0  0  0  0
  3  4  1  0  0  0  0
  3 28  1  0  0  0  0
  3 29  1  0  0  0  0
  4  5  1  0  0  0  0
  4 20  1  0  0  0  0
  4 52  1  0  0  0  0
  5  6  1  0  0  0  0
  5 17  1  0  0  0  0
  5 30  1  0  0  0  0
  6  7  2  0  0  0  0
  6  8  1  0  0  0  0
  8  9  1  0  0  0  0
  9 10  1  0  0  0  0
  9 31  1  0  0  0  0
  9 32  1  0  0  0  0
 10 11  1  0  0  0  0
 10 33  1  0  0  0  0
 10 34  1  0  0  0  0
 11 16  1  0  0  0  0
 11 12  2  0  0  0  0
 12 13  1  0  0  0  0
 12 35  1  0  0  0  0
 13 14  2  0  0  0  0
 13 36  1  0  0  0  0
 14 15  1  0  0  0  0
 14 37  1  0  0  0  0
 15 16  2  0  0  0  0
 15 38  1  0  0  0  0
 17 18  1  0  0  0  0
 17 19  1  0  0  0  0
 17 39  1  0  0  0  0
 18 40  1  0  0  0  0
 18 41  1  0  0  0  0
 18 42  1  0  0  0  0
 19 43  1  0  0  0  0
 19 44  1  0  0  0  0
 19 45  1  0  0  0  0
 20 21  1  0  0  0  0
 20 46  1  0  0  0  0
 20 47  1  0  0  0  0
 21 22  1  0  0  0  0
 21 23  1  0  0  0  0
 21 48  1  0  0  0  0
 22 49  1  0  0  0  0
 22 50  1  0  0  0  0
 22 51  1  0  0  0  0
M  CHG  1   4   1
M  CHG  1   8  -1
M  END
> <s_m_source_file>
AV-unprocessed.smi

> <i_m_source_file_index>
1762

> <i_lp_mmshare_version>
43012

> <i_f3d_flags>
0

> <s_epik_input>
W0NIM11bQ0BASF0xW0NIMl1OKFtDSDJdW0NASF0oTzEpW0NIM10pW0NAQEhdKFtDSF0oW0NIM10pW0NIM10pQyg9TylbTkhdW0NIMl1bQ0gyXWMyW2NIXVtjSF1bY0hdW2NIXW4y

> <s_epik_cmdline>
J2VwaWtfcHl0aG9uJywgJy1waCcsICc3LjAnLCAnLXRuJywgJzgnLCAnLW1hJywgJzIwMCcsICctbWV0YWxfYmluZGluZycsICctaW1hZScsICc8aW5maWxlLm1hZT4nLCAnLW9tYWUnLCAnPG91dGZpbGUubWFlPic=

> <r_epik_Ionization_Penalty>
7.82966

> <r_epik_Ionization_Penalty_Charging>
7.7461

> <r_epik_Ionization_Penalty_Neutral>
0.0835571

> <r_epik_State_Penalty>
8.52273

> <r_epik_Charging_Adjusted_Penalty>
16.2688

> <i_epik_Tot_Q>
0

> <i_epik_Tot_abs_Q>
2

> <r_epik_Metal_State_Penalty>
4.47451

> <b_epik_Metal_Only>
1

> <s_lp_Force_Field>
OPLS_2005

> <r_lp_Energy>
24.57

> <b_lp_Chiralities_Consistent>
1

> <s_lp_Variant>
AV-unprocessed.smi:1762-28

> <Gold.Version>
5.8.1

> <Gold.Id.Protein>
6NUR|6NUR_protein|mol2

> <Gold.PLP.Fitness>
52.2652

> <Gold.PLP.PLP>
-50.9020

> <Gold.PLP.part.hbond>
-1.1374

> <Gold.PLP.part.metal>
0.0000

> <Gold.PLP.part.buried>
-5.2872

> <Gold.PLP.part.nonpolar>
-44.2312

> <Gold.PLP.part.repulsive>
0.0724

> <Gold.PLP.ligand.clash>
0.0000

> <Gold.PLP.ligand.torsion>
0.9361

> <Gold.PLP.Chemscore.Hbond>
1.0000

> <Gold.PLP.Chemscore.CHOScore>
0.0000

> <Gold.PLP.Chemscore.Metal>
0.0000

> <Gold.Chemscore.Hbonds>
donor molecule, donor type, donor heavy atom, donor atom, acceptor molecule, acceptor atom, score
      P1  H  6931  6943       L1    16  0.90
      P1  H  6934  6947       L1    16  0.77

> <Gold.PLP.Chemscore.Internal.Correction>
0.2354

> <Gold.Rescore>
     Score         DG    S(hbond)    S(metal)    S(lipo)     H(rot)  DE(clash)    DE(int)     intcor
     15.56     -20.99       1.32        0.00     129.93       1.60       1.40       4.03       ----

> <Gold.Chemscore.Fitness>
15.5594

> <Gold.Chemscore.DG>
-20.9933

> <Gold.Chemscore.ZeroCoef>
-5.4800

> <Gold.Chemscore.Hbond>
1.3206

> <Gold.Chemscore.Metal>
0.0000

> <Gold.Chemscore.Lipo>
129.9270

> <Gold.Chemscore.Internal_Hbond>
0.0000

> <Gold.Chemscore.DEClash>
1.4033

> <Gold.Chemscore.DEInternal>
4.0306

> <Gold.Chemscore.Rot>
1.6012

> <Gold.Chemscore.Internal.Correction>
   9.000000E+99

> <Gold.Chemscore.Hbonds>
donor molecule, donor type, donor heavy atom, donor atom, acceptor molecule, acceptor atom, score
      P1  H  6931  6943       L1    16  0.19
      P1  H  6934  6947       L1    16  0.29

> <Gold.Chemscore.Hbond.Weighted>
-4.4108

> <Gold.Chemscore.Metal.Weighted>
-0.0000

> <Gold.Chemscore.Lipo.Weighted>
-15.2015

> <Gold.Chemscore.Internal_Hbond.Weighted>
0.0000

> <Gold.Chemscore.DEClash.Weighted>
1.4033

> <Gold.Chemscore.DEInternal.Weighted>
4.0306

> <Gold.Chemscore.Rot.Weighted>
4.0990

> <Gold.Chemscore.Internal.Correction.Weighted>
   9.000000E+99

> <Gold.Protein.RotatedTorsions>
[ 6907 6896 6895 6894 ] final  -88.20 input  -60.11 | X-H torsion
[ 7974 7965 7964 7962 ] final   53.39 input  175.53 | X-H torsion
[ 8008 7997 7996 7995 ] final  136.83 input   59.86 | X-H torsion
[ 10167 10162 10161 10158 ] final  110.27 input  -65.29 | X-H torsion
[ 10718 10713 10712 10709 ] final  165.87 input   66.30 | X-H torsion
[ 10763 10752 10751 10750 ] final  117.04 input  -60.55 | X-H torsion
[ 11005 11000 10999 10996 ] final -167.06 input  -57.11 | X-H torsion

> <Gold.Protein.ActiveResidues>
 VAL166  LYS551  ARG553  GLY616  TRP617  ASP618  TYR619  PRO620  LYS621  CYS622 
 ASP623  PHE694  ASN695  SER759  ASP760  ASP761  ALA762  ILE779  LEU786  VAL792 
 PHE793  MET794  SER795  GLU796  ALA797  LYS798  CYS799  TRP800  GLU811  SER814 

> <Gold.Protein.RotatedAtoms>
  150.6868  134.2779  159.4614 H   0  0  0  0  0  0  0  0  0  0  0  0  # atno 6907 bound_to 6896
  152.0695  134.9540  160.0584 H   0  0  0  0  0  0  0  0  0  0  0  0  # atno 6908 bound_to 6896
  152.0935  133.4178  159.4591 H   0  0  0  0  0  0  0  0  0  0  0  0  # atno 6909 bound_to 6896
  145.9717  139.4155  143.0186 H   0  0  0  0  0  0  0  0  0  0  0  0  # atno 7974 bound_to 7965
  156.3003  140.2435  156.3809 H   0  0  0  0  0  0  0  0  0  0  0  0  # atno 8008 bound_to 7997
  154.8702  140.0416  157.1739 H   0  0  0  0  0  0  0  0  0  0  0  0  # atno 8009 bound_to 7997
  154.8804  140.2948  155.5432 H   0  0  0  0  0  0  0  0  0  0  0  0  # atno 8010 bound_to 7997
  139.6701  144.7125  151.1703 H   0  0  0  0  0  0  0  0  0  0  0  0  # atno 10167 bound_to 10162
  157.0739  131.0374  151.2601 H   0  0  0  0  0  0  0  0  0  0  0  0  # atno 10718 bound_to 10713
  153.5464  135.3548  155.2740 H   0  0  0  0  0  0  0  0  0  0  0  0  # atno 10763 bound_to 10752
  154.8712  135.4103  154.2986 H   0  0  0  0  0  0  0  0  0  0  0  0  # atno 10764 bound_to 10752
  153.3704  135.7064  153.6711 H   0  0  0  0  0  0  0  0  0  0  0  0  # atno 10765 bound_to 10752
  140.5575  134.5366  157.5136 H   0  0  0  0  0  0  0  0  0  0  0  0  # atno 11005 bound_to 11000
  145.7897  140.9820  143.1055 LP  0  0  0  0  0  0  0  0  0  0  0  0  # atno 17320 bound_to 7965
  144.6838  139.9667  143.7481 LP  0  0  0  0  0  0  0  0  0  0  0  0  # atno 17321 bound_to 7965
  140.7615  143.5857  150.8848 LP  0  0  0  0  0  0  0  0  0  0  0  0  # atno 17342 bound_to 10162
  139.9522  143.6259  152.3026 LP  0  0  0  0  0  0  0  0  0  0  0  0  # atno 17343 bound_to 10162
  157.4855  130.7791  149.7456 LP  0  0  0  0  0  0  0  0  0  0  0  0  # atno 17370 bound_to 10713
  155.9942  130.3919  150.2867 LP  0  0  0  0  0  0  0  0  0  0  0  0  # atno 17371 bound_to 10713
  139.9424  134.7763  156.0645 LP  0  0  0  0  0  0  0  0  0  0  0  0  # atno 17394 bound_to 11000
  141.1134  133.6635  156.3035 LP  0  0  0  0  0  0  0  0  0  0  0  0  # atno 17395 bound_to 11000

$$$$
