AV-unprocessed.smi:1137|AV-procd|sdf|4864|dock8
  -GOLD-   22720 3433D 1   1.00000     0.00000
 Structure written by MMmdl.
 17 17  0  0  0  0  0  0  0  0  2 V2000
  151.0242  140.0862  155.1482 O   0  0  0  0  0  0  0  0  0  0  0  0
  151.4535  140.7418  156.1233 C   0  0  0  0  0  0  0  0  0  0  0  0
  152.3734  140.3750  156.8893 O   0  5  0  0  0  0  0  0  0  0  0  0
  150.8038  142.1113  156.3726 C   0  0  1  0  0  0  0  0  0  0  0  0
  149.3908  142.0148  156.3403 O   0  0  0  0  0  0  0  0  0  0  0  0
  151.3373  142.6314  157.7009 C   0  0  0  0  0  0  0  0  0  0  0  0
  151.9724  143.8891  157.8021 C   0  0  0  0  0  0  0  0  0  0  0  0
  152.4398  144.3168  159.0598 C   0  0  0  0  0  0  0  0  0  0  0  0
  152.2499  143.4692  160.1687 C   0  0  0  0  0  0  0  0  0  0  0  0
  151.6419  142.2665  160.0878 N   0  0  0  0  0  0  0  0  0  0  0  0
  151.1950  141.8648  158.8780 C   0  0  0  0  0  0  0  0  0  0  0  0
  151.1015  142.7923  155.5739 H   0  0  0  0  0  0  0  0  0  0  0  0
  149.0496  142.7836  155.9111 H   0  0  0  0  0  0  0  0  0  0  0  0
  152.0973  144.5186  156.9332 H   0  0  0  0  0  0  0  0  0  0  0  0
  152.9292  145.2728  159.1715 H   0  0  0  0  0  0  0  0  0  0  0  0
  152.5954  143.7658  161.1479 H   0  0  0  0  0  0  0  0  0  0  0  0
  150.7099  140.9002  158.8497 H   0  0  0  0  0  0  0  0  0  0  0  0
  1  2  2  0  0  0  0
  2  3  1  0  0  0  0
  2  4  1  0  0  0  0
  4  5  1  0  0  0  0
  4  6  1  0  0  0  0
  4 12  1  0  0  0  0
  5 13  1  0  0  0  0
  6 11  1  0  0  0  0
  6  7  2  0  0  0  0
  7  8  1  0  0  0  0
  7 14  1  0  0  0  0
  8  9  2  0  0  0  0
  8 15  1  0  0  0  0
  9 10  1  0  0  0  0
  9 16  1  0  0  0  0
 10 11  2  0  0  0  0
 11 17  1  0  0  0  0
M  CHG  1   3  -1
M  END
> <s_m_source_file>
AV-unprocessed.smi

> <i_m_source_file_index>
1137

> <i_lp_mmshare_version>
43012

> <i_f3d_flags>
0

> <s_epik_input>
Tz1DKFtPSF0pW0NASF0oW09IXSljMVtjSF1bY0hdW2NIXW5bY0hdMQ==

> <s_epik_cmdline>
J2VwaWtfcHl0aG9uJywgJy1waCcsICc3LjAnLCAnLXRuJywgJzgnLCAnLW1hJywgJzIwMCcsICctbWV0YWxfYmluZGluZycsICctaW1hZScsICc8aW5maWxlLm1hZT4nLCAnLW9tYWUnLCAnPG91dGZpbGUubWFlPic=

> <r_epik_Ionization_Penalty>
0.0193563

> <r_epik_Ionization_Penalty_Charging>
9.29916e-05

> <r_epik_Ionization_Penalty_Neutral>
0.0192633

> <r_epik_State_Penalty>
0.0153745

> <r_epik_Charging_Adjusted_Penalty>
0.0154675

> <i_epik_Tot_Q>
-1

> <i_epik_Tot_abs_Q>
1

> <r_epik_Metal_State_Penalty>
1.55756e-05

> <b_epik_Metal_Only>
0

> <s_lp_Force_Field>
OPLS_2005

> <r_lp_Energy>
6.08913

> <b_lp_Chiralities_Consistent>
1

> <s_lp_Variant>
AV-unprocessed.smi:1137-2

> <Gold.Version>
5.8.1

> <Gold.Id.Protein>
6NUR|6NUR_protein|mol2

> <Gold.PLP.Fitness>
36.9817

> <Gold.PLP.PLP>
-25.6138

> <Gold.PLP.part.hbond>
-3.9751

> <Gold.PLP.part.metal>
0.0000

> <Gold.PLP.part.buried>
-2.3097

> <Gold.PLP.part.nonpolar>
-19.5408

> <Gold.PLP.part.repulsive>
0.0531

> <Gold.PLP.ligand.clash>
0.0000

> <Gold.PLP.ligand.torsion>
0.2569

> <Gold.PLP.Chemscore.Hbond>
3.9520

> <Gold.PLP.Chemscore.CHOScore>
0.0000

> <Gold.PLP.Chemscore.Metal>
0.0000

> <Gold.Chemscore.Hbonds>
donor molecule, donor type, donor heavy atom, donor atom, acceptor molecule, acceptor atom, score
      L1  H     5    13       P1  8028  1.00
      P1  H  7989  7998       L1     1  1.00
      P1  H  7997  8010       L1     3  1.95

> <Gold.PLP.Chemscore.Internal.Correction>
0.0256

> <Gold.Rescore>
     Score         DG    S(hbond)    S(metal)    S(lipo)     H(rot)  DE(clash)    DE(int)     intcor
     15.28     -17.15       2.84        0.00      64.70       2.10       0.37       1.50       ----

> <Gold.Chemscore.Fitness>
15.2837

> <Gold.Chemscore.DG>
-17.1548

> <Gold.Chemscore.ZeroCoef>
-5.4800

> <Gold.Chemscore.Hbond>
2.8373

> <Gold.Chemscore.Metal>
0.0000

> <Gold.Chemscore.Lipo>
64.7016

> <Gold.Chemscore.Internal_Hbond>
0.0000

> <Gold.Chemscore.DEClash>
0.3704

> <Gold.Chemscore.DEInternal>
1.5008

> <Gold.Chemscore.Rot>
2.0984

> <Gold.Chemscore.Internal.Correction>
   9.000000E+99

> <Gold.Chemscore.Hbonds>
donor molecule, donor type, donor heavy atom, donor atom, acceptor molecule, acceptor atom, score
      L1  H     5    13       P1  8028  0.96
      P1  H  7989  7998       L1     1  0.74
      P1  H  7997  8010       L1     3  0.88

> <Gold.Chemscore.Hbond.Weighted>
-9.4767

> <Gold.Chemscore.Metal.Weighted>
-0.0000

> <Gold.Chemscore.Lipo.Weighted>
-7.5701

> <Gold.Chemscore.Internal_Hbond.Weighted>
0.0000

> <Gold.Chemscore.DEClash.Weighted>
0.3704

> <Gold.Chemscore.DEInternal.Weighted>
1.5008

> <Gold.Chemscore.Rot.Weighted>
5.3719

> <Gold.Chemscore.Internal.Correction.Weighted>
   9.000000E+99

> <Gold.Protein.RotatedTorsions>
[ 6907 6896 6895 6894 ] final  137.71 input  -60.11 | X-H torsion
[ 7974 7965 7964 7962 ] final  -47.85 input  175.53 | X-H torsion
[ 8008 7997 7996 7995 ] final   69.71 input   59.86 | X-H torsion
[ 10167 10162 10161 10158 ] final -120.01 input  -65.29 | X-H torsion
[ 10718 10713 10712 10709 ] final -156.87 input   66.30 | X-H torsion
[ 10763 10752 10751 10750 ] final  -91.62 input  -60.55 | X-H torsion
[ 11005 11000 10999 10996 ] final  107.15 input  -57.11 | X-H torsion

> <Gold.Protein.ActiveResidues>
 VAL166  LYS551  ARG553  GLY616  TRP617  ASP618  TYR619  PRO620  LYS621  CYS622 
 ASP623  PHE694  ASN695  SER759  ASP760  ASP761  ALA762  ILE779  LEU786  VAL792 
 PHE793  MET794  SER795  GLU796  ALA797  LYS798  CYS799  TRP800  GLU811  SER814 

> <Gold.Protein.RotatedAtoms>
  152.2750  133.5417  159.5461 H   0  0  0  0  0  0  0  0  0  0  0  0  # atno 6907 bound_to 6896
  150.7173  134.0645  159.3851 H   0  0  0  0  0  0  0  0  0  0  0  0  # atno 6908 bound_to 6896
  151.8558  135.0542  160.0515 H   0  0  0  0  0  0  0  0  0  0  0  0  # atno 6909 bound_to 6896
  145.9573  140.7514  142.9475 H   0  0  0  0  0  0  0  0  0  0  0  0  # atno 7974 bound_to 7965
  155.7278  140.3492  155.5045 H   0  0  0  0  0  0  0  0  0  0  0  0  # atno 8008 bound_to 7997
  155.9211  140.1067  157.1228 H   0  0  0  0  0  0  0  0  0  0  0  0  # atno 8009 bound_to 7997
  154.4070  140.1249  156.4667 H   0  0  0  0  0  0  0  0  0  0  0  0  # atno 8010 bound_to 7997
  140.0404  143.5159  152.2133 H   0  0  0  0  0  0  0  0  0  0  0  0  # atno 10167 bound_to 10162
  156.5324  130.8527  151.2721 H   0  0  0  0  0  0  0  0  0  0  0  0  # atno 10718 bound_to 10713
  154.6779  135.5261  153.8224 H   0  0  0  0  0  0  0  0  0  0  0  0  # atno 10763 bound_to 10752
  153.0544  135.6545  154.0622 H   0  0  0  0  0  0  0  0  0  0  0  0  # atno 10764 bound_to 10752
  154.0513  135.2969  155.3320 H   0  0  0  0  0  0  0  0  0  0  0  0  # atno 10765 bound_to 10752
  139.8824  134.9392  156.5775 H   0  0  0  0  0  0  0  0  0  0  0  0  # atno 11005 bound_to 11000
  144.6807  140.2533  143.7329 LP  0  0  0  0  0  0  0  0  0  0  0  0  # atno 17320 bound_to 7965
  145.8089  139.1995  143.2005 LP  0  0  0  0  0  0  0  0  0  0  0  0  # atno 17321 bound_to 7965
  139.6017  144.7584  151.3156 LP  0  0  0  0  0  0  0  0  0  0  0  0  # atno 17342 bound_to 10162
  140.7262  143.6995  150.7856 LP  0  0  0  0  0  0  0  0  0  0  0  0  # atno 17343 bound_to 10162
  157.7419  130.9880  150.2480 LP  0  0  0  0  0  0  0  0  0  0  0  0  # atno 17370 bound_to 10713
  156.3047  130.3763  149.7717 LP  0  0  0  0  0  0  0  0  0  0  0  0  # atno 17371 bound_to 10713
  140.8052  133.8473  155.8761 LP  0  0  0  0  0  0  0  0  0  0  0  0  # atno 17394 bound_to 11000
  140.9556  134.1722  157.4694 LP  0  0  0  0  0  0  0  0  0  0  0  0  # atno 17395 bound_to 11000

$$$$
