AV-unprocessed.smi:2465|AV-procd|sdf|9722|dock2
  -GOLD-   2272013363D 1   1.00000     0.00000
 Structure written by MMmdl.
 40 41  0  0  0  0  0  0  0  0  1 V2000
  146.5016  142.0646  153.8527 C   0  0  0  0  0  0  0  0  0  0  0  0
  147.6254  141.0823  154.1319 C   0  0  0  0  0  0  0  0  0  0  0  0
  148.8771  141.5580  154.5741 C   0  0  0  0  0  0  0  0  0  0  0  0
  149.9039  140.6278  154.8226 C   0  0  0  0  0  0  0  0  0  0  0  0
  149.7542  139.2987  154.6523 N   0  0  0  0  0  0  0  0  0  0  0  0
  148.5550  138.8445  154.2304 C   0  0  0  0  0  0  0  0  0  0  0  0
  147.4466  139.6876  153.9635 C   0  0  0  0  0  0  0  0  0  0  0  0
  146.1905  139.2056  153.4974 N   0  0  0  0  0  0  0  0  0  0  0  0
  145.7417  137.9395  153.4486 C   0  0  0  0  0  0  0  0  0  0  0  0
  146.3571  136.9487  153.8418 O   0  0  0  0  0  0  0  0  0  0  0  0
  144.5071  137.8841  152.9293 N   0  0  0  0  0  0  0  0  0  0  0  0
  143.7314  136.6629  152.7451 C   0  0  0  0  0  0  0  0  0  0  0  0
  144.4473  135.6728  151.8130 C   0  0  0  0  0  0  0  0  0  0  0  0
  143.9607  134.2283  152.0095 C   0  0  0  0  0  0  0  0  0  0  0  0
  144.7928  133.2804  151.2745 N   0  0  0  0  0  0  0  0  0  0  0  0
  144.2812  132.6036  150.0948 C   0  0  0  0  0  0  0  0  0  0  0  0
  145.4970  131.8880  149.4890 C   0  0  0  0  0  0  0  0  0  0  0  0
  146.5735  131.9024  150.5797 C   0  0  0  0  0  0  0  0  0  0  0  0
  146.0401  132.9082  151.5859 C   0  0  0  0  0  0  0  0  0  0  0  0
  146.6976  133.3048  152.5470 O   0  0  0  0  0  0  0  0  0  0  0  0
  146.8222  143.0931  154.0211 H   0  0  0  0  0  0  0  0  0  0  0  0
  145.6516  141.8648  154.5057 H   0  0  0  0  0  0  0  0  0  0  0  0
  146.1705  141.9808  152.8172 H   0  0  0  0  0  0  0  0  0  0  0  0
  149.0527  142.6135  154.7205 H   0  0  0  0  0  0  0  0  0  0  0  0
  150.8733  140.9614  155.1622 H   0  0  0  0  0  0  0  0  0  0  0  0
  148.5085  137.7765  154.0873 H   0  0  0  0  0  0  0  0  0  0  0  0
  145.5324  139.9179  153.2176 H   0  0  0  0  0  0  0  0  0  0  0  0
  144.0724  138.7476  152.6385 H   0  0  0  0  0  0  0  0  0  0  0  0
  143.5799  136.2073  153.7239 H   0  0  0  0  0  0  0  0  0  0  0  0
  142.7402  136.9055  152.3584 H   0  0  0  0  0  0  0  0  0  0  0  0
  144.2875  135.9646  150.7741 H   0  0  0  0  0  0  0  0  0  0  0  0
  145.5230  135.7276  151.9863 H   0  0  0  0  0  0  0  0  0  0  0  0
  143.9637  133.9694  153.0694 H   0  0  0  0  0  0  0  0  0  0  0  0
  142.9273  134.1353  151.6728 H   0  0  0  0  0  0  0  0  0  0  0  0
  143.5148  131.8876  150.3946 H   0  0  0  0  0  0  0  0  0  0  0  0
  143.8354  133.3097  149.3929 H   0  0  0  0  0  0  0  0  0  0  0  0
  145.2514  130.8748  149.1689 H   0  0  0  0  0  0  0  0  0  0  0  0
  145.8524  132.4319  148.6129 H   0  0  0  0  0  0  0  0  0  0  0  0
  146.6698  130.9271  151.0576 H   0  0  0  0  0  0  0  0  0  0  0  0
  147.5481  132.2026  150.1938 H   0  0  0  0  0  0  0  0  0  0  0  0
  1  2  1  0  0  0  0
  1 21  1  0  0  0  0
  1 22  1  0  0  0  0
  1 23  1  0  0  0  0
  2  7  1  0  0  0  0
  2  3  2  0  0  0  0
  3  4  1  0  0  0  0
  3 24  1  0  0  0  0
  4  5  2  0  0  0  0
  4 25  1  0  0  0  0
  5  6  1  0  0  0  0
  6  7  2  0  0  0  0
  6 26  1  0  0  0  0
  7  8  1  0  0  0  0
  8  9  1  0  0  0  0
  8 27  1  0  0  0  0
  9 10  2  0  0  0  0
  9 11  1  0  0  0  0
 11 12  1  0  0  0  0
 11 28  1  0  0  0  0
 12 13  1  0  0  0  0
 12 29  1  0  0  0  0
 12 30  1  0  0  0  0
 13 14  1  0  0  0  0
 13 31  1  0  0  0  0
 13 32  1  0  0  0  0
 14 15  1  0  0  0  0
 14 33  1  0  0  0  0
 14 34  1  0  0  0  0
 15 19  1  0  0  0  0
 15 16  1  0  0  0  0
 16 17  1  0  0  0  0
 16 35  1  0  0  0  0
 16 36  1  0  0  0  0
 17 18  1  0  0  0  0
 17 37  1  0  0  0  0
 17 38  1  0  0  0  0
 18 19  1  0  0  0  0
 18 39  1  0  0  0  0
 18 40  1  0  0  0  0
 19 20  2  0  0  0  0
M  END
> <s_m_source_file>
AV-unprocessed.smi

> <i_m_source_file_index>
2465

> <i_lp_mmshare_version>
43012

> <i_f3d_flags>
0

> <s_epik_input>
W0NIM11jMVtjSF1bY0hdbltjSF1jMVtOSF1DKD1PKVtOSF1bQ0gyXVtDSDJdW0NIMl1OMltDSDJdW0NIMl1bQ0gyXUMyPU8=

> <s_epik_cmdline>
J2VwaWtfcHl0aG9uJywgJy1waCcsICc3LjAnLCAnLXRuJywgJzgnLCAnLW1hJywgJzIwMCcsICctbWV0YWxfYmluZGluZycsICctaW1hZScsICc8aW5maWxlLm1hZT4nLCAnLW9tYWUnLCAnPG91dGZpbGUubWFlPic=

> <r_epik_Ionization_Penalty>
0.0211997

> <r_epik_Ionization_Penalty_Charging>
0

> <r_epik_Ionization_Penalty_Neutral>
0.0211997

> <r_epik_State_Penalty>
0.0170047

> <r_epik_Charging_Adjusted_Penalty>
0.0170047

> <i_epik_Tot_Q>
0

> <i_epik_Tot_abs_Q>
0

> <r_epik_Metal_State_Penalty>
0.0163833

> <b_epik_Metal_Only>
0

> <s_lp_Force_Field>
OPLS_2005

> <r_lp_Energy>
19.6331

> <b_lp_Chiralities_Consistent>
1

> <s_lp_Variant>
AV-unprocessed.smi:2465-1

> <Gold.Version>
5.8.1

> <Gold.Id.Protein>
6NUR|6NUR_protein|mol2

> <Gold.PLP.Fitness>
45.5217

> <Gold.PLP.PLP>
-37.0746

> <Gold.PLP.part.hbond>
-2.7939

> <Gold.PLP.part.metal>
0.0000

> <Gold.PLP.part.buried>
-3.0361

> <Gold.PLP.part.nonpolar>
-33.3761

> <Gold.PLP.part.repulsive>
0.4225

> <Gold.PLP.ligand.clash>
0.0000

> <Gold.PLP.ligand.torsion>
0.2878

> <Gold.PLP.Chemscore.Hbond>
1.9760

> <Gold.PLP.Chemscore.CHOScore>
1.0000

> <Gold.PLP.Chemscore.Metal>
0.0000

> <Gold.Chemscore.Hbonds>
donor molecule, donor type, donor heavy atom, donor atom, acceptor molecule, acceptor atom, score
      L1  H     8    27       P1 10175  0.89
      L1  H    11    28       P1 10175  1.00
      L1  C     6    26       P1  7948  0.49

> <Gold.PLP.Chemscore.Internal.Correction>
0.0946

> <Gold.Rescore>
     Score         DG    S(hbond)    S(metal)    S(lipo)     H(rot)  DE(clash)    DE(int)     intcor
     16.31     -17.90       1.93        0.00      89.20       1.74       0.09       1.49       ----

> <Gold.Chemscore.Fitness>
16.3145

> <Gold.Chemscore.DG>
-17.8983

> <Gold.Chemscore.ZeroCoef>
-5.4800

> <Gold.Chemscore.Hbond>
1.9280

> <Gold.Chemscore.Metal>
0.0000

> <Gold.Chemscore.Lipo>
89.1954

> <Gold.Chemscore.Internal_Hbond>
0.0000

> <Gold.Chemscore.DEClash>
0.0941

> <Gold.Chemscore.DEInternal>
1.4898

> <Gold.Chemscore.Rot>
1.7410

> <Gold.Chemscore.Internal.Correction>
   9.000000E+99

> <Gold.Chemscore.Hbonds>
donor molecule, donor type, donor heavy atom, donor atom, acceptor molecule, acceptor atom, score
      L1  H     8    27       P1 10175  0.83
      L1  H    11    28       P1 10175  1.00

> <Gold.Chemscore.Hbond.Weighted>
-6.4395

> <Gold.Chemscore.Metal.Weighted>
-0.0000

> <Gold.Chemscore.Lipo.Weighted>
-10.4359

> <Gold.Chemscore.Internal_Hbond.Weighted>
0.0000

> <Gold.Chemscore.DEClash.Weighted>
0.0941

> <Gold.Chemscore.DEInternal.Weighted>
1.4898

> <Gold.Chemscore.Rot.Weighted>
4.4571

> <Gold.Chemscore.Internal.Correction.Weighted>
   9.000000E+99

> <Gold.Protein.RotatedTorsions>
[ 6907 6896 6895 6894 ] final  106.17 input  -60.11 | X-H torsion
[ 7974 7965 7964 7962 ] final   46.78 input  175.53 | X-H torsion
[ 8008 7997 7996 7995 ] final   28.28 input   59.86 | X-H torsion
[ 10167 10162 10161 10158 ] final -135.16 input  -65.29 | X-H torsion
[ 10718 10713 10712 10709 ] final   79.30 input   66.30 | X-H torsion
[ 10763 10752 10751 10750 ] final -134.68 input  -60.55 | X-H torsion
[ 11005 11000 10999 10996 ] final   -9.79 input  -57.11 | X-H torsion

> <Gold.Protein.ActiveResidues>
 VAL166  LYS551  ARG553  GLY616  TRP617  ASP618  TYR619  PRO620  LYS621  CYS622 
 ASP623  PHE694  ASN695  SER759  ASP760  ASP761  ALA762  ILE779  LEU786  VAL792 
 PHE793  MET794  SER795  GLU796  ALA797  LYS798  CYS799  TRP800  GLU811  SER814 

> <Gold.Protein.RotatedAtoms>
  152.5203  133.9420  159.7630 H   0  0  0  0  0  0  0  0  0  0  0  0  # atno 6907 bound_to 6896
  150.9748  133.6298  159.2739 H   0  0  0  0  0  0  0  0  0  0  0  0  # atno 6908 bound_to 6896
  151.3496  135.0887  159.9451 H   0  0  0  0  0  0  0  0  0  0  0  0  # atno 6909 bound_to 6896
  146.0358  139.4819  142.9809 H   0  0  0  0  0  0  0  0  0  0  0  0  # atno 7974 bound_to 7965
  155.0562  140.3185  155.4675 H   0  0  0  0  0  0  0  0  0  0  0  0  # atno 8008 bound_to 7997
  156.2823  140.2137  156.5632 H   0  0  0  0  0  0  0  0  0  0  0  0  # atno 8009 bound_to 7997
  154.7170  140.0493  157.0591 H   0  0  0  0  0  0  0  0  0  0  0  0  # atno 8010 bound_to 7997
  139.8807  143.6842  152.2627 H   0  0  0  0  0  0  0  0  0  0  0  0  # atno 10167 bound_to 10162
  157.6772  130.9908  150.1912 H   0  0  0  0  0  0  0  0  0  0  0  0  # atno 10718 bound_to 10713
  154.8715  135.3727  154.4775 H   0  0  0  0  0  0  0  0  0  0  0  0  # atno 10763 bound_to 10752
  153.5430  135.7026  153.5632 H   0  0  0  0  0  0  0  0  0  0  0  0  # atno 10764 bound_to 10752
  153.3785  135.4003  155.1804 H   0  0  0  0  0  0  0  0  0  0  0  0  # atno 10765 bound_to 10752
  140.7379  133.8695  155.8944 H   0  0  0  0  0  0  0  0  0  0  0  0  # atno 11005 bound_to 11000
  145.6966  141.0148  143.1526 LP  0  0  0  0  0  0  0  0  0  0  0  0  # atno 17320 bound_to 7965
  144.7051  139.8595  143.7432 LP  0  0  0  0  0  0  0  0  0  0  0  0  # atno 17321 bound_to 7965
  139.7198  144.7605  151.0973 LP  0  0  0  0  0  0  0  0  0  0  0  0  # atno 17342 bound_to 10162
  140.7745  143.5222  150.9523 LP  0  0  0  0  0  0  0  0  0  0  0  0  # atno 17343 bound_to 10162
  156.2623  130.3712  149.8117 LP  0  0  0  0  0  0  0  0  0  0  0  0  # atno 17370 bound_to 10713
  156.5859  130.8485  151.3395 LP  0  0  0  0  0  0  0  0  0  0  0  0  # atno 17371 bound_to 10713
  140.9863  134.1338  157.4449 LP  0  0  0  0  0  0  0  0  0  0  0  0  # atno 17394 bound_to 11000
  139.8812  135.0026  156.6139 LP  0  0  0  0  0  0  0  0  0  0  0  0  # atno 17395 bound_to 11000

$$$$
