AV-unprocessed.smi:100|AV-procd|sdf|902|dock1
  -GOLD-   2262017403D 1   1.00000     0.00000
 Structure written by MMmdl.
 31 33  0  0  0  0  0  0  0  0  1 V2000
  148.9881  132.4941  157.5092 N   0  0  0  0  0  0  0  0  0  0  0  0
  149.1174  132.6507  156.1845 C   0  0  0  0  0  0  0  0  0  0  0  0
  150.3647  132.7368  155.6664 N   0  0  0  0  0  0  0  0  0  0  0  0
  150.5192  132.8958  154.3483 C   0  0  0  0  0  0  0  0  0  0  0  0
  149.5809  132.9891  153.4028 N   0  0  0  0  0  0  0  0  0  0  0  0
  148.3218  132.8979  153.9246 C   0  0  0  0  0  0  0  0  0  0  0  0
  148.0096  132.7311  155.3031 C   0  0  0  0  0  0  0  0  0  0  0  0
  146.6333  132.6851  155.4763 N   0  0  0  0  0  0  0  0  0  0  0  0
  146.1618  132.8176  154.2661 C   0  0  0  0  0  0  0  0  0  0  0  0
  147.1053  132.9465  153.2695 N   0  0  0  0  0  0  0  0  0  0  0  0
  146.8510  133.1036  151.7989 C   0  0  1  0  0  0  0  0  0  0  0  0
  145.9645  132.1063  151.3858 O   0  0  0  0  0  0  0  0  0  0  0  0
  144.9590  132.6803  150.5572 C   0  0  1  0  0  0  0  0  0  0  0  0
  143.6968  131.8039  150.5415 C   0  0  0  0  0  0  0  0  0  0  0  0
  142.8333  132.2103  149.5012 O   0  0  0  0  0  0  0  0  0  0  0  0
  144.7795  134.0917  151.1234 C   0  0  1  0  0  0  0  0  0  0  0  0
  144.0358  134.0483  152.2311 F   0  0  0  0  0  0  0  0  0  0  0  0
  146.2169  134.4661  151.4447 C   0  0  1  0  0  0  0  0  0  0  0  0
  146.3046  135.4711  152.4396 O   0  0  0  0  0  0  0  0  0  0  0  0
  148.0678  132.4281  157.9196 H   0  0  0  0  0  0  0  0  0  0  0  0
  149.8099  132.4405  158.0931 H   0  0  0  0  0  0  0  0  0  0  0  0
  151.5398  132.9570  154.0004 H   0  0  0  0  0  0  0  0  0  0  0  0
  145.1008  132.8191  154.0634 H   0  0  0  0  0  0  0  0  0  0  0  0
  147.8297  132.9594  151.3393 H   0  0  0  0  0  0  0  0  0  0  0  0
  145.3708  132.7473  149.5484 H   0  0  0  0  0  0  0  0  0  0  0  0
  143.9689  130.7617  150.3736 H   0  0  0  0  0  0  0  0  0  0  0  0
  143.1705  131.8458  151.4955 H   0  0  0  0  0  0  0  0  0  0  0  0
  142.4719  133.0544  149.7246 H   0  0  0  0  0  0  0  0  0  0  0  0
  144.2980  134.7793  150.4277 H   0  0  0  0  0  0  0  0  0  0  0  0
  146.7031  134.8263  150.5372 H   0  0  0  0  0  0  0  0  0  0  0  0
  147.0592  136.0098  152.2580 H   0  0  0  0  0  0  0  0  0  0  0  0
  1  2  1  0  0  0  0
  1 20  1  0  0  0  0
  1 21  1  0  0  0  0
  2  7  1  0  0  0  0
  2  3  2  0  0  0  0
  3  4  1  0  0  0  0
  4  5  2  0  0  0  0
  4 22  1  0  0  0  0
  5  6  1  0  0  0  0
  6 10  1  0  0  0  0
  6  7  2  0  0  0  0
  7  8  1  0  0  0  0
  8  9  2  0  0  0  0
  9 10  1  0  0  0  0
  9 23  1  0  0  0  0
 10 11  1  0  0  0  0
 11 18  1  0  0  0  0
 11 12  1  0  0  0  0
 11 24  1  0  0  0  0
 12 13  1  0  0  0  0
 13 14  1  0  0  0  0
 13 16  1  0  0  0  0
 13 25  1  0  0  0  0
 14 15  1  0  0  0  0
 14 26  1  0  0  0  0
 14 27  1  0  0  0  0
 15 28  1  0  0  0  0
 16 17  1  0  0  0  0
 16 18  1  0  0  0  0
 16 29  1  0  0  0  0
 18 19  1  0  0  0  0
 18 30  1  0  0  0  0
 19 31  1  0  0  0  0
M  END
> <s_m_source_file>
AV-unprocessed.smi

> <i_m_source_file_index>
100

> <i_lp_mmshare_version>
43012

> <i_f3d_flags>
0

> <s_epik_input>
bjFbY0hdbmMoW05IMl0pYyhjMTIpbltjSF1uMltDQEBIXTNPW0NAQEhdKFtDSDJdW09IXSlbQ0BIXShGKVtDQEhdM1tPSF0=

> <s_epik_cmdline>
J2VwaWtfcHl0aG9uJywgJy1waCcsICc3LjAnLCAnLXRuJywgJzgnLCAnLW1hJywgJzIwMCcsICctbWV0YWxfYmluZGluZycsICctaW1hZScsICc8aW5maWxlLm1hZT4nLCAnLW9tYWUnLCAnPG91dGZpbGUubWFlPic=

> <r_lp_tautomer_probability>
1

> <r_epik_Ionization_Penalty>
0.000750324

> <r_epik_Ionization_Penalty_Charging>
0

> <r_epik_Ionization_Penalty_Neutral>
0.000750324

> <r_epik_State_Penalty>
-0

> <r_epik_Charging_Adjusted_Penalty>
0

> <i_epik_Tot_Q>
0

> <i_epik_Tot_abs_Q>
0

> <r_epik_Metal_State_Penalty>
-0

> <b_epik_Metal_Only>
0

> <s_epik_Chemistry_Notes>
This compound contains an acetal/aminal-like group ( X-CH(R)-Y where X, Y are N, S, or O) that may be acid/base labile, releasing an aldehyde.

> <s_lp_Force_Field>
OPLS_2005

> <r_lp_Energy>
37.3061

> <b_lp_Chiralities_Consistent>
1

> <s_lp_Variant>
AV-unprocessed.smi:100-6

> <Gold.Version>
5.8.1

> <Gold.Id.Protein>
6NUR|6NUR_protein|mol2

> <Gold.PLP.Fitness>
34.2294

> <Gold.PLP.PLP>
-25.7839

> <Gold.PLP.part.hbond>
-3.8956

> <Gold.PLP.part.metal>
0.0000

> <Gold.PLP.part.buried>
-6.9016

> <Gold.PLP.part.nonpolar>
-16.7623

> <Gold.PLP.part.repulsive>
0.4114

> <Gold.PLP.ligand.clash>
0.0000

> <Gold.PLP.ligand.torsion>
0.2605

> <Gold.PLP.Chemscore.Hbond>
2.1310

> <Gold.PLP.Chemscore.CHOScore>
0.8570

> <Gold.PLP.Chemscore.Metal>
0.0000

> <Gold.Chemscore.Hbonds>
donor molecule, donor type, donor heavy atom, donor atom, acceptor molecule, acceptor atom, score
      L1  H    15    28       P1 10186  0.99
      L1  H    19    31       P1  7948  1.00
      P1  H 10785 10796       L1    15  0.10
      L1  C     9    23       P1 10957  0.49

> <Gold.PLP.Chemscore.Internal.Correction>
0.0026

> <Gold.Rescore>
     Score         DG    S(hbond)    S(metal)    S(lipo)     H(rot)  DE(clash)    DE(int)     intcor
      7.27      -7.47       1.88        0.00      33.03       3.19       0.01       0.18       ----

> <Gold.Chemscore.Fitness>
7.2727

> <Gold.Chemscore.DG>
-7.4693

> <Gold.Chemscore.ZeroCoef>
-5.4800

> <Gold.Chemscore.Hbond>
1.8838

> <Gold.Chemscore.Metal>
0.0000

> <Gold.Chemscore.Lipo>
33.0262

> <Gold.Chemscore.Internal_Hbond>
0.0000

> <Gold.Chemscore.DEClash>
0.0126

> <Gold.Chemscore.DEInternal>
0.1840

> <Gold.Chemscore.Rot>
3.1901

> <Gold.Chemscore.Internal.Correction>
   9.000000E+99

> <Gold.Chemscore.Hbonds>
donor molecule, donor type, donor heavy atom, donor atom, acceptor molecule, acceptor atom, score
      L1  H    15    28       P1 10186  0.89
      L1  H    19    31       P1  7948  0.95

> <Gold.Chemscore.Hbond.Weighted>
-6.2919

> <Gold.Chemscore.Metal.Weighted>
-0.0000

> <Gold.Chemscore.Lipo.Weighted>
-3.8641

> <Gold.Chemscore.Internal_Hbond.Weighted>
0.0000

> <Gold.Chemscore.DEClash.Weighted>
0.0126

> <Gold.Chemscore.DEInternal.Weighted>
0.1840

> <Gold.Chemscore.Rot.Weighted>
8.1667

> <Gold.Chemscore.Internal.Correction.Weighted>
   9.000000E+99

> <Gold.Protein.RotatedTorsions>
[ 6907 6896 6895 6894 ] final  112.06 input  -60.11 | X-H torsion
[ 7974 7965 7964 7962 ] final   50.27 input  175.53 | X-H torsion
[ 8008 7997 7996 7995 ] final  -25.53 input   59.86 | X-H torsion
[ 10167 10162 10161 10158 ] final  -11.78 input  -65.29 | X-H torsion
[ 10718 10713 10712 10709 ] final   27.69 input   66.30 | X-H torsion
[ 10763 10752 10751 10750 ] final  -55.12 input  -60.55 | X-H torsion
[ 11005 11000 10999 10996 ] final -132.32 input  -57.11 | X-H torsion

> <Gold.Protein.ActiveResidues>
 VAL166  LYS551  ARG553  GLY616  TRP617  ASP618  TYR619  PRO620  LYS621  CYS622 
 ASP623  PHE694  ASN695  SER759  ASP760  ASP761  ALA762  ILE779  LEU786  VAL792 
 PHE793  MET794  SER795  GLU796  ALA797  LYS798  CYS799  TRP800  GLU811  SER814 

> <Gold.Protein.RotatedAtoms>
  152.4936  133.8569  159.7230 H   0  0  0  0  0  0  0  0  0  0  0  0  # atno 6907 bound_to 6896
  150.9091  133.7011  159.2866 H   0  0  0  0  0  0  0  0  0  0  0  0  # atno 6908 bound_to 6896
  151.4426  135.1026  159.9727 H   0  0  0  0  0  0  0  0  0  0  0  0  # atno 6909 bound_to 6896
  146.0028  139.4457  143.0004 H   0  0  0  0  0  0  0  0  0  0  0  0  # atno 7974 bound_to 7965
  154.4471  140.1924  156.0634 H   0  0  0  0  0  0  0  0  0  0  0  0  # atno 8008 bound_to 7997
  156.0565  140.3302  155.7385 H   0  0  0  0  0  0  0  0  0  0  0  0  # atno 8009 bound_to 7997
  155.5477  140.0592  157.2847 H   0  0  0  0  0  0  0  0  0  0  0  0  # atno 8010 bound_to 7997
  140.7146  143.5603  150.9203 H   0  0  0  0  0  0  0  0  0  0  0  0  # atno 10167 bound_to 10162
  157.2235  130.6990  149.6281 H   0  0  0  0  0  0  0  0  0  0  0  0  # atno 10718 bound_to 10713
  154.1857  135.6436  153.5046 H   0  0  0  0  0  0  0  0  0  0  0  0  # atno 10763 bound_to 10752
  153.0048  135.5416  154.6468 H   0  0  0  0  0  0  0  0  0  0  0  0  # atno 10764 bound_to 10752
  154.5843  135.2928  155.0673 H   0  0  0  0  0  0  0  0  0  0  0  0  # atno 10765 bound_to 10752
  140.9181  134.1481  157.4336 H   0  0  0  0  0  0  0  0  0  0  0  0  # atno 11005 bound_to 11000
  145.7462  140.9990  143.1275 LP  0  0  0  0  0  0  0  0  0  0  0  0  # atno 17320 bound_to 7965
  144.6925  139.9159  143.7465 LP  0  0  0  0  0  0  0  0  0  0  0  0  # atno 17321 bound_to 7965
  139.9328  143.6473  152.3072 LP  0  0  0  0  0  0  0  0  0  0  0  0  # atno 17342 bound_to 10162
  139.6930  144.7644  151.1406 LP  0  0  0  0  0  0  0  0  0  0  0  0  # atno 17343 bound_to 10162
  155.9680  130.4512  150.5726 LP  0  0  0  0  0  0  0  0  0  0  0  0  # atno 17370 bound_to 10713
  157.3551  131.0740  151.1682 LP  0  0  0  0  0  0  0  0  0  0  0  0  # atno 17371 bound_to 10713
  139.8770  134.9961  156.5777 LP  0  0  0  0  0  0  0  0  0  0  0  0  # atno 17394 bound_to 11000
  140.8024  133.8495  155.8738 LP  0  0  0  0  0  0  0  0  0  0  0  0  # atno 17395 bound_to 11000

$$$$
