AV-unprocessed.smi:1976|AV-procd|sdf|7984|dock8
  -GOLD-   2272010163D 1   1.00000     0.00000
 Structure written by MMmdl.
 45 47  0  0  0  0  0  0  0  0  2 V2000
  148.0051  140.8181  155.9067 O   0  0  0  0  0  0  0  0  0  0  0  0
  148.7656  140.8075  154.9382 C   0  0  0  0  0  0  0  0  0  0  0  0
  150.1951  141.3536  155.0579 C   0  0  0  0  0  0  0  0  0  0  0  0
  150.6192  141.5439  156.4549 N   0  0  0  0  0  0  0  0  0  0  0  0
  150.8658  142.8649  156.8782 C   0  0  0  0  0  0  0  0  0  0  0  0
  151.2608  143.1719  158.1289 C   0  0  0  0  0  0  0  0  0  0  0  0
  151.4541  144.6125  158.5768 C   0  0  0  0  0  0  0  0  0  0  0  0
  151.8035  144.6721  159.8621 F   0  0  0  0  0  0  0  0  0  0  0  0
  152.4188  145.1846  157.8579 F   0  0  0  0  0  0  0  0  0  0  0  0
  150.3376  145.3232  158.4128 F   0  0  0  0  0  0  0  0  0  0  0  0
  151.3977  142.0627  159.0525 C   0  0  0  0  0  0  0  0  0  0  0  0
  151.1521  140.7950  158.6675 C   0  0  0  0  0  0  0  0  0  0  0  0
  150.7367  140.4761  157.2998 C   0  0  0  0  0  0  0  0  0  0  0  0
  150.5059  139.3224  156.9359 O   0  0  0  0  0  0  0  0  0  0  0  0
  148.4040  140.3519  153.7295 N   0  0  0  0  0  0  0  0  0  0  0  0
  147.0931  139.7924  153.4090 C   0  0  1  0  0  0  0  0  0  0  0  0
  146.8989  139.4688  151.9125 C   0  0  0  0  0  0  0  0  0  0  0  0
  146.1858  138.1127  151.8955 C   0  0  0  0  0  0  0  0  0  0  0  0
  146.7174  137.4457  153.0899 N   0  3  2  0  0  0  0  0  0  0  0  0
  146.0691  136.2011  153.5509 C   0  0  0  0  0  0  0  0  0  0  0  0
  146.9077  135.6110  154.7056 C   0  0  0  0  0  0  0  0  0  0  0  0
  147.1752  136.6438  155.8245 C   0  0  0  0  0  0  0  0  0  0  0  0
  147.7366  137.9671  155.2604 C   0  0  0  0  0  0  0  0  0  0  0  0
  146.8003  138.4682  154.1470 C   0  0  1  0  0  0  0  0  0  0  0  0
  150.8896  140.6881  154.5412 H   0  0  0  0  0  0  0  0  0  0  0  0
  150.2448  142.2962  154.5113 H   0  0  0  0  0  0  0  0  0  0  0  0
  150.6990  143.6173  156.1209 H   0  0  0  0  0  0  0  0  0  0  0  0
  151.7055  142.2507  160.0705 H   0  0  0  0  0  0  0  0  0  0  0  0
  151.2659  139.9935  159.3827 H   0  0  0  0  0  0  0  0  0  0  0  0
  149.0878  140.3798  152.9869 H   0  0  0  0  0  0  0  0  0  0  0  0
  146.3358  140.5166  153.7163 H   0  0  0  0  0  0  0  0  0  0  0  0
  146.3376  140.2415  151.3863 H   0  0  0  0  0  0  0  0  0  0  0  0
  147.8665  139.3719  151.4173 H   0  0  0  0  0  0  0  0  0  0  0  0
  145.1072  138.2447  151.9954 H   0  0  0  0  0  0  0  0  0  0  0  0
  146.3839  137.5433  150.9870 H   0  0  0  0  0  0  0  0  0  0  0  0
  145.0484  136.4072  153.8767 H   0  0  0  0  0  0  0  0  0  0  0  0
  146.0091  135.4893  152.7267 H   0  0  0  0  0  0  0  0  0  0  0  0
  146.4096  134.7333  155.1183 H   0  0  0  0  0  0  0  0  0  0  0  0
  147.8627  135.2623  154.3102 H   0  0  0  0  0  0  0  0  0  0  0  0
  146.2438  136.8456  156.3553 H   0  0  0  0  0  0  0  0  0  0  0  0
  147.8634  136.2284  156.5612 H   0  0  0  0  0  0  0  0  0  0  0  0
  147.8155  138.7088  156.0561 H   0  0  0  0  0  0  0  0  0  0  0  0
  148.7430  137.8079  154.8708 H   0  0  0  0  0  0  0  0  0  0  0  0
  145.8009  138.5737  154.5753 H   0  0  0  0  0  0  0  0  0  0  0  0
  147.6706  137.2038  152.8595 H   0  0  0  0  0  0  0  0  0  0  0  0
  1  2  2  0  0  0  0
  2  3  1  0  0  0  0
  2 15  1  0  0  0  0
  3  4  1  0  0  0  0
  3 25  1  0  0  0  0
  3 26  1  0  0  0  0
  4 13  1  0  0  0  0
  4  5  1  0  0  0  0
  5  6  2  0  0  0  0
  5 27  1  0  0  0  0
  6  7  1  0  0  0  0
  6 11  1  0  0  0  0
  7  8  1  0  0  0  0
  7  9  1  0  0  0  0
  7 10  1  0  0  0  0
 11 12  2  0  0  0  0
 11 28  1  0  0  0  0
 12 13  1  0  0  0  0
 12 29  1  0  0  0  0
 13 14  2  0  0  0  0
 15 16  1  0  0  0  0
 15 30  1  0  0  0  0
 16 24  1  0  0  0  0
 16 17  1  0  0  0  0
 16 31  1  0  0  0  0
 17 18  1  0  0  0  0
 17 32  1  0  0  0  0
 17 33  1  0  0  0  0
 18 19  1  0  0  0  0
 18 34  1  0  0  0  0
 18 35  1  0  0  0  0
 19 24  1  0  0  0  0
 19 20  1  0  0  0  0
 19 45  1  0  0  0  0
 20 21  1  0  0  0  0
 20 36  1  0  0  0  0
 20 37  1  0  0  0  0
 21 22  1  0  0  0  0
 21 38  1  0  0  0  0
 21 39  1  0  0  0  0
 22 23  1  0  0  0  0
 22 40  1  0  0  0  0
 22 41  1  0  0  0  0
 23 24  1  0  0  0  0
 23 42  1  0  0  0  0
 23 43  1  0  0  0  0
 24 44  1  0  0  0  0
M  CHG  1  19   1
M  END
> <s_m_source_file>
AV-unprocessed.smi

> <i_m_source_file_index>
1976

> <i_lp_mmshare_version>
43012

> <i_f3d_flags>
0

> <s_epik_input>
W0NIMl0xW0NIMl1bQ0gyXVtDSDJdW0NASF0oTjEyKVtDQEBIXShbQ0gyXVtDSDJdMilbTkhdQyg9TylbQ0gyXW4zW2NIXWMoQyhGKShGKUYpW2NIXVtjSF1jMz1P

> <s_epik_cmdline>
J2VwaWtfcHl0aG9uJywgJy1waCcsICc3LjAnLCAnLXRuJywgJzgnLCAnLW1hJywgJzIwMCcsICctbWV0YWxfYmluZGluZycsICctaW1hZScsICc8aW5maWxlLm1hZT4nLCAnLW9tYWUnLCAnPG91dGZpbGUubWFlPic=

> <r_lp_tautomer_probability>
1

> <r_epik_Ionization_Penalty>
0.00171506

> <r_epik_Ionization_Penalty_Charging>
0.00171498

> <r_epik_Ionization_Penalty_Neutral>
7.81737e-08

> <r_epik_State_Penalty>
0.00115937

> <r_epik_Charging_Adjusted_Penalty>
0.00287436

> <i_epik_Tot_Q>
1

> <i_epik_Tot_abs_Q>
1

> <r_epik_Metal_State_Penalty>
-0

> <b_epik_Metal_Only>
0

> <s_lp_Force_Field>
OPLS_2005

> <r_lp_Energy>
52.9518

> <b_lp_Chiralities_Consistent>
1

> <s_lp_Variant>
AV-unprocessed.smi:1976-2

> <Gold.Version>
5.8.1

> <Gold.Id.Protein>
6NUR|6NUR_protein|mol2

> <Gold.PLP.Fitness>
52.6765

> <Gold.PLP.PLP>
-41.6880

> <Gold.PLP.part.hbond>
-2.0000

> <Gold.PLP.part.metal>
0.0000

> <Gold.PLP.part.buried>
-0.1826

> <Gold.PLP.part.nonpolar>
-40.2631

> <Gold.PLP.part.repulsive>
0.1787

> <Gold.PLP.ligand.clash>
0.0000

> <Gold.PLP.ligand.torsion>
0.2311

> <Gold.PLP.Chemscore.Hbond>
2.9920

> <Gold.PLP.Chemscore.CHOScore>
0.8023

> <Gold.PLP.Chemscore.Metal>
0.0000

> <Gold.Chemscore.Hbonds>
donor molecule, donor type, donor heavy atom, donor atom, acceptor molecule, acceptor atom, score
      L1  H    15    30       P1  7957  1.00
      L1  H    19    45       P1  7948  2.00
      L1  C     5    27       P1  8028  1.00

> <Gold.PLP.Chemscore.Internal.Correction>
0.0676

> <Gold.Rescore>
     Score         DG    S(hbond)    S(metal)    S(lipo)     H(rot)  DE(clash)    DE(int)     intcor
     15.18     -16.42       1.62        0.00      81.87       1.58       0.76       0.49       ----

> <Gold.Chemscore.Fitness>
15.1764

> <Gold.Chemscore.DG>
-16.4235

> <Gold.Chemscore.ZeroCoef>
-5.4800

> <Gold.Chemscore.Hbond>
1.6220

> <Gold.Chemscore.Metal>
0.0000

> <Gold.Chemscore.Lipo>
81.8661

> <Gold.Chemscore.Internal_Hbond>
0.0000

> <Gold.Chemscore.DEClash>
0.7604

> <Gold.Chemscore.DEInternal>
0.4867

> <Gold.Chemscore.Rot>
1.5830

> <Gold.Chemscore.Internal.Correction>
   9.000000E+99

> <Gold.Chemscore.Hbonds>
donor molecule, donor type, donor heavy atom, donor atom, acceptor molecule, acceptor atom, score
      L1  H    15    30       P1  7957  0.95
      L1  H    19    45       P1  7948  0.96

> <Gold.Chemscore.Hbond.Weighted>
-5.4176

> <Gold.Chemscore.Metal.Weighted>
-0.0000

> <Gold.Chemscore.Lipo.Weighted>
-9.5783

> <Gold.Chemscore.Internal_Hbond.Weighted>
0.0000

> <Gold.Chemscore.DEClash.Weighted>
0.7604

> <Gold.Chemscore.DEInternal.Weighted>
0.4867

> <Gold.Chemscore.Rot.Weighted>
4.0524

> <Gold.Chemscore.Internal.Correction.Weighted>
   9.000000E+99

> <Gold.Protein.RotatedTorsions>
[ 6907 6896 6895 6894 ] final   37.24 input  -60.11 | X-H torsion
[ 7974 7965 7964 7962 ] final -128.24 input  175.53 | X-H torsion
[ 8008 7997 7996 7995 ] final   81.75 input   59.86 | X-H torsion
[ 10167 10162 10161 10158 ] final   66.00 input  -65.29 | X-H torsion
[ 10718 10713 10712 10709 ] final   -7.57 input   66.30 | X-H torsion
[ 10763 10752 10751 10750 ] final  -71.24 input  -60.55 | X-H torsion
[ 11005 11000 10999 10996 ] final  174.71 input  -57.11 | X-H torsion

> <Gold.Protein.ActiveResidues>
 VAL166  LYS551  ARG553  GLY616  TRP617  ASP618  TYR619  PRO620  LYS621  CYS622 
 ASP623  PHE694  ASN695  SER759  ASP760  ASP761  ALA762  ILE779  LEU786  VAL792 
 PHE793  MET794  SER795  GLU796  ALA797  LYS798  CYS799  TRP800  GLU811  SER814 

> <Gold.Protein.RotatedAtoms>
  152.1405  134.9066  160.0553 H   0  0  0  0  0  0  0  0  0  0  0  0  # atno 6907 bound_to 6896
  152.0136  133.3866  159.4238 H   0  0  0  0  0  0  0  0  0  0  0  0  # atno 6908 bound_to 6896
  150.6864  134.3625  159.5000 H   0  0  0  0  0  0  0  0  0  0  0  0  # atno 6909 bound_to 6896
  144.9690  140.7526  143.4682 H   0  0  0  0  0  0  0  0  0  0  0  0  # atno 7974 bound_to 7965
  155.9014  140.3433  155.6029 H   0  0  0  0  0  0  0  0  0  0  0  0  # atno 8008 bound_to 7997
  155.7495  140.0818  157.2226 H   0  0  0  0  0  0  0  0  0  0  0  0  # atno 8009 bound_to 7997
  154.4044  140.1556  156.2695 H   0  0  0  0  0  0  0  0  0  0  0  0  # atno 8010 bound_to 7997
  140.1051  144.4868  150.7013 H   0  0  0  0  0  0  0  0  0  0  0  0  # atno 10167 bound_to 10162
  156.7153  130.5134  149.5882 H   0  0  0  0  0  0  0  0  0  0  0  0  # atno 10718 bound_to 10713
  154.4290  135.5968  153.6056 H   0  0  0  0  0  0  0  0  0  0  0  0  # atno 10763 bound_to 10752
  152.9798  135.5970  154.3863 H   0  0  0  0  0  0  0  0  0  0  0  0  # atno 10764 bound_to 10752
  154.3698  135.2841  155.2251 H   0  0  0  0  0  0  0  0  0  0  0  0  # atno 10765 bound_to 10752
  140.3542  134.7168  157.4288 H   0  0  0  0  0  0  0  0  0  0  0  0  # atno 11005 bound_to 11000
  145.2587  139.2001  143.4904 LP  0  0  0  0  0  0  0  0  0  0  0  0  # atno 17320 bound_to 7965
  146.3376  140.2513  142.8598 LP  0  0  0  0  0  0  0  0  0  0  0  0  # atno 17321 bound_to 7965
  140.6956  143.2402  151.5009 LP  0  0  0  0  0  0  0  0  0  0  0  0  # atno 17342 bound_to 10162
  139.5650  144.2065  152.1750 LP  0  0  0  0  0  0  0  0  0  0  0  0  # atno 17343 bound_to 10162
  156.1632  130.6388  151.0746 LP  0  0  0  0  0  0  0  0  0  0  0  0  # atno 17370 bound_to 10713
  157.6920  131.0807  150.7080 LP  0  0  0  0  0  0  0  0  0  0  0  0  # atno 17371 bound_to 10713
  140.0678  134.5905  155.8675 LP  0  0  0  0  0  0  0  0  0  0  0  0  # atno 17394 bound_to 11000
  141.2003  133.6612  156.5890 LP  0  0  0  0  0  0  0  0  0  0  0  0  # atno 17395 bound_to 11000

$$$$
