AV-unprocessed.smi:1669|AV-procd|sdf|6688|dock3
  -GOLD-   22720 7413D 1   1.00000     0.00000
 Structure written by MMmdl.
 47 49  0  0  0  0  0  0  0  0  1 V2000
  147.5478  137.3794  158.1972 C   0  0  0  0  0  0  0  0  0  0  0  0
  148.8520  136.8003  158.5072 N   0  0  0  0  0  0  0  0  0  0  0  0
  149.1909  137.0133  159.9190 C   0  0  0  0  0  0  0  0  0  0  0  0
  148.3533  136.1941  160.8863 C   0  0  0  0  0  0  0  0  0  0  0  0
  147.7559  136.8100  162.0066 C   0  0  0  0  0  0  0  0  0  0  0  0
  146.9781  136.0495  162.9014 C   0  0  0  0  0  0  0  0  0  0  0  0
  146.7933  134.6714  162.6784 C   0  0  0  0  0  0  0  0  0  0  0  0
  147.3854  134.0540  161.5597 C   0  0  0  0  0  0  0  0  0  0  0  0
  148.1628  134.8140  160.6641 C   0  0  0  0  0  0  0  0  0  0  0  0
  149.8680  137.3609  157.6145 C   0  0  0  0  0  0  0  0  0  0  0  0
  151.2945  137.4480  158.2038 C   0  0  1  0  0  0  0  0  0  0  0  0
  151.8336  136.1436  158.2447 O   0  0  0  0  0  0  0  0  0  0  0  0
  152.2524  138.3228  157.3703 C   0  0  0  0  0  0  0  0  0  0  0  0
  151.8678  139.7288  157.3558 N   0  0  0  0  0  0  0  0  0  0  0  0
  151.1462  140.3909  156.4155 C   0  0  0  0  0  0  0  0  0  0  0  0
  150.6165  139.6940  155.1933 C   0  0  0  0  0  0  0  0  0  0  0  0
  151.6204  139.2823  154.2873 O   0  0  0  0  0  0  0  0  0  0  0  0
  150.9523  141.6912  156.6491 N   0  0  0  0  0  0  0  0  0  0  0  0
  151.5965  141.8871  157.8540 C   0  0  0  0  0  0  0  0  0  0  0  0
  151.7514  143.0561  158.6328 C   0  0  0  0  0  0  0  0  0  0  0  0
  152.4638  143.0145  159.8491 C   0  0  0  0  0  0  0  0  0  0  0  0
  153.0301  141.8059  160.3030 C   0  0  0  0  0  0  0  0  0  0  0  0
  152.8884  140.6300  159.5416 C   0  0  0  0  0  0  0  0  0  0  0  0
  152.1765  140.6768  158.3275 C   0  0  0  0  0  0  0  0  0  0  0  0
  147.2854  137.2070  157.1530 H   0  0  0  0  0  0  0  0  0  0  0  0
  147.5423  138.4558  158.3747 H   0  0  0  0  0  0  0  0  0  0  0  0
  146.7604  136.9308  158.8033 H   0  0  0  0  0  0  0  0  0  0  0  0
  150.2273  136.7425  160.1121 H   0  0  0  0  0  0  0  0  0  0  0  0
  149.1057  138.0727  160.1668 H   0  0  0  0  0  0  0  0  0  0  0  0
  147.8951  137.8667  162.1825 H   0  0  0  0  0  0  0  0  0  0  0  0
  146.5232  136.5232  163.7589 H   0  0  0  0  0  0  0  0  0  0  0  0
  146.1977  134.0880  163.3650 H   0  0  0  0  0  0  0  0  0  0  0  0
  147.2435  132.9970  161.3886 H   0  0  0  0  0  0  0  0  0  0  0  0
  148.6140  134.3333  159.8084 H   0  0  0  0  0  0  0  0  0  0  0  0
  149.9219  136.7704  156.6983 H   0  0  0  0  0  0  0  0  0  0  0  0
  149.5332  138.3493  157.3002 H   0  0  0  0  0  0  0  0  0  0  0  0
  151.2795  137.8276  159.2228 H   0  0  0  0  0  0  0  0  0  0  0  0
  151.3981  135.6221  157.5874 H   0  0  0  0  0  0  0  0  0  0  0  0
  153.2716  138.2411  157.7484 H   0  0  0  0  0  0  0  0  0  0  0  0
  152.2881  137.9625  156.3415 H   0  0  0  0  0  0  0  0  0  0  0  0
  150.0490  138.8158  155.4999 H   0  0  0  0  0  0  0  0  0  0  0  0
  149.9362  140.3578  154.6602 H   0  0  0  0  0  0  0  0  0  0  0  0
  151.2371  139.2072  153.4270 H   0  0  0  0  0  0  0  0  0  0  0  0
  151.3211  143.9866  158.2930 H   0  0  0  0  0  0  0  0  0  0  0  0
  152.5767  143.9142  160.4362 H   0  0  0  0  0  0  0  0  0  0  0  0
  153.5744  141.7821  161.2357 H   0  0  0  0  0  0  0  0  0  0  0  0
  153.3253  139.7045  159.8862 H   0  0  0  0  0  0  0  0  0  0  0  0
  1  2  1  0  0  0  0
  1 25  1  0  0  0  0
  1 26  1  0  0  0  0
  1 27  1  0  0  0  0
  2  3  1  0  0  0  0
  2 10  1  0  0  0  0
  3  4  1  0  0  0  0
  3 28  1  0  0  0  0
  3 29  1  0  0  0  0
  4  9  1  0  0  0  0
  4  5  2  0  0  0  0
  5  6  1  0  0  0  0
  5 30  1  0  0  0  0
  6  7  2  0  0  0  0
  6 31  1  0  0  0  0
  7  8  1  0  0  0  0
  7 32  1  0  0  0  0
  8  9  2  0  0  0  0
  8 33  1  0  0  0  0
  9 34  1  0  0  0  0
 10 11  1  0  0  0  0
 10 35  1  0  0  0  0
 10 36  1  0  0  0  0
 11 12  1  0  0  0  0
 11 13  1  0  0  0  0
 11 37  1  0  0  0  0
 12 38  1  0  0  0  0
 13 14  1  0  0  0  0
 13 39  1  0  0  0  0
 13 40  1  0  0  0  0
 14 24  1  0  0  0  0
 14 15  1  0  0  0  0
 15 16  1  0  0  0  0
 15 18  2  0  0  0  0
 16 17  1  0  0  0  0
 16 41  1  0  0  0  0
 16 42  1  0  0  0  0
 17 43  1  0  0  0  0
 18 19  1  0  0  0  0
 19 24  2  0  0  0  0
 19 20  1  0  0  0  0
 20 21  2  0  0  0  0
 20 44  1  0  0  0  0
 21 22  1  0  0  0  0
 21 45  1  0  0  0  0
 22 23  2  0  0  0  0
 22 46  1  0  0  0  0
 23 24  1  0  0  0  0
 23 47  1  0  0  0  0
M  END
> <s_m_source_file>
AV-unprocessed.smi

> <i_m_source_file_index>
1669

> <i_lp_mmshare_version>
43012

> <i_f3d_flags>
0

> <s_epik_input>
W2NIXTFbY0hdW2NIXVtjSF1bY0hdYzFbQ0gyXU4oW0NIM10pW0NIMl1bQ0BIXShbT0hdKVtDSDJdbihjKG4yKVtDSDJdW09IXSljKGMyMylbY0hdW2NIXVtjSF1bY0hdMw==

> <s_epik_cmdline>
J2VwaWtfcHl0aG9uJywgJy1waCcsICc3LjAnLCAnLXRuJywgJzgnLCAnLW1hJywgJzIwMCcsICctbWV0YWxfYmluZGluZycsICctaW1hZScsICc8aW5maWxlLm1hZT4nLCAnLW9tYWUnLCAnPG91dGZpbGUubWFlPic=

> <r_epik_Ionization_Penalty>
1.56301

> <r_epik_Ionization_Penalty_Charging>
0

> <r_epik_Ionization_Penalty_Neutral>
1.56301

> <r_epik_State_Penalty>
1.64771

> <r_epik_Charging_Adjusted_Penalty>
1.64771

> <i_epik_Tot_Q>
0

> <i_epik_Tot_abs_Q>
0

> <r_epik_Metal_State_Penalty>
1.61258

> <b_epik_Metal_Only>
0

> <s_lp_Force_Field>
OPLS_2005

> <r_lp_Energy>
25.3744

> <b_lp_Chiralities_Consistent>
1

> <s_lp_Variant>
AV-unprocessed.smi:1669-6

> <Gold.Version>
5.8.1

> <Gold.Id.Protein>
6NUR|6NUR_protein|mol2

> <Gold.PLP.Fitness>
48.9673

> <Gold.PLP.PLP>
-44.9090

> <Gold.PLP.part.hbond>
-2.0563

> <Gold.PLP.part.metal>
0.0000

> <Gold.PLP.part.buried>
-4.5581

> <Gold.PLP.part.nonpolar>
-37.9806

> <Gold.PLP.part.repulsive>
0.1033

> <Gold.PLP.ligand.clash>
0.0436

> <Gold.PLP.ligand.torsion>
1.1051

> <Gold.PLP.Chemscore.Hbond>
2.0000

> <Gold.PLP.Chemscore.CHOScore>
0.0000

> <Gold.PLP.Chemscore.Metal>
0.0000

> <Gold.Chemscore.Hbonds>
donor molecule, donor type, donor heavy atom, donor atom, acceptor molecule, acceptor atom, score
      P1  H  6896  6907       L1    12  0.03

> <Gold.PLP.Chemscore.Internal.Correction>
0.3121

> <Gold.Rescore>
     Score         DG    S(hbond)    S(metal)    S(lipo)     H(rot)  DE(clash)    DE(int)     intcor
     15.09     -16.08       1.51        0.00     114.55       3.06       0.05       0.95       ----

> <Gold.Chemscore.Fitness>
15.0856

> <Gold.Chemscore.DG>
-16.0769

> <Gold.Chemscore.ZeroCoef>
-5.4800

> <Gold.Chemscore.Hbond>
1.5060

> <Gold.Chemscore.Metal>
0.0000

> <Gold.Chemscore.Lipo>
114.5517

> <Gold.Chemscore.Internal_Hbond>
0.0000

> <Gold.Chemscore.DEClash>
0.0458

> <Gold.Chemscore.DEInternal>
0.9455

> <Gold.Chemscore.Rot>
3.0609

> <Gold.Chemscore.Internal.Correction>
   9.000000E+99

> <Gold.Chemscore.Hbonds>
donor molecule, donor type, donor heavy atom, donor atom, acceptor molecule, acceptor atom, score
      P1  H  6896  6907       L1    12  0.03

> <Gold.Chemscore.Hbond.Weighted>
-5.0302

> <Gold.Chemscore.Metal.Weighted>
-0.0000

> <Gold.Chemscore.Lipo.Weighted>
-13.4025

> <Gold.Chemscore.Internal_Hbond.Weighted>
0.0000

> <Gold.Chemscore.DEClash.Weighted>
0.0458

> <Gold.Chemscore.DEInternal.Weighted>
0.9455

> <Gold.Chemscore.Rot.Weighted>
7.8358

> <Gold.Chemscore.Internal.Correction.Weighted>
   9.000000E+99

> <Gold.Protein.RotatedTorsions>
[ 6907 6896 6895 6894 ] final   46.42 input  -60.11 | X-H torsion
[ 7974 7965 7964 7962 ] final   81.11 input  175.53 | X-H torsion
[ 8008 7997 7996 7995 ] final -156.90 input   59.86 | X-H torsion
[ 10167 10162 10161 10158 ] final   99.21 input  -65.29 | X-H torsion
[ 10718 10713 10712 10709 ] final -171.70 input   66.30 | X-H torsion
[ 10763 10752 10751 10750 ] final  124.43 input  -60.55 | X-H torsion
[ 11005 11000 10999 10996 ] final   53.17 input  -57.11 | X-H torsion

> <Gold.Protein.ActiveResidues>
 VAL166  LYS551  ARG553  GLY616  TRP617  ASP618  TYR619  PRO620  LYS621  CYS622 
 ASP623  PHE694  ASN695  SER759  ASP760  ASP761  ALA762  ILE779  LEU786  VAL792 
 PHE793  MET794  SER795  GLU796  ALA797  LYS798  CYS799  TRP800  GLU811  SER814 

> <Gold.Protein.RotatedAtoms>
  152.2561  134.8082  160.0437 H   0  0  0  0  0  0  0  0  0  0  0  0  # atno 6907 bound_to 6896
  151.8745  133.3477  159.3754 H   0  0  0  0  0  0  0  0  0  0  0  0  # atno 6908 bound_to 6896
  150.7100  134.5007  159.5604 H   0  0  0  0  0  0  0  0  0  0  0  0  # atno 6909 bound_to 6896
  145.6424  139.2428  143.2023 H   0  0  0  0  0  0  0  0  0  0  0  0  # atno 7974 bound_to 7965
  155.7242  140.0794  157.2317 H   0  0  0  0  0  0  0  0  0  0  0  0  # atno 8008 bound_to 7997
  154.4041  140.1607  156.2490 H   0  0  0  0  0  0  0  0  0  0  0  0  # atno 8009 bound_to 7997
  155.9168  140.3400  155.6144 H   0  0  0  0  0  0  0  0  0  0  0  0  # atno 8010 bound_to 7997
  139.7638  144.6945  151.0254 H   0  0  0  0  0  0  0  0  0  0  0  0  # atno 10167 bound_to 10162
  156.7447  130.9355  151.3112 H   0  0  0  0  0  0  0  0  0  0  0  0  # atno 10718 bound_to 10713
  153.6612  135.3346  155.3128 H   0  0  0  0  0  0  0  0  0  0  0  0  # atno 10763 bound_to 10752
  154.8514  135.4364  154.1802 H   0  0  0  0  0  0  0  0  0  0  0  0  # atno 10764 bound_to 10752
  153.2769  135.7005  153.7499 H   0  0  0  0  0  0  0  0  0  0  0  0  # atno 10765 bound_to 10752
  140.0789  134.5366  155.8967 H   0  0  0  0  0  0  0  0  0  0  0  0  # atno 11005 bound_to 11000
  146.1270  140.7235  142.9430 LP  0  0  0  0  0  0  0  0  0  0  0  0  # atno 17320 bound_to 7965
  144.7152  140.4185  143.7049 LP  0  0  0  0  0  0  0  0  0  0  0  0  # atno 17321 bound_to 7965
  140.7809  143.4666  151.0204 LP  0  0  0  0  0  0  0  0  0  0  0  0  # atno 17342 bound_to 10162
  139.8352  143.7638  152.3180 LP  0  0  0  0  0  0  0  0  0  0  0  0  # atno 17343 bound_to 10162
  157.6803  130.9134  150.0251 LP  0  0  0  0  0  0  0  0  0  0  0  0  # atno 17370 bound_to 10713
  156.1441  130.3642  149.9537 LP  0  0  0  0  0  0  0  0  0  0  0  0  # atno 17371 bound_to 10713
  141.2039  133.6635  156.6092 LP  0  0  0  0  0  0  0  0  0  0  0  0  # atno 17394 bound_to 11000
  140.3517  134.7763  157.4471 LP  0  0  0  0  0  0  0  0  0  0  0  0  # atno 17395 bound_to 11000

$$$$
