AV-unprocessed.smi:2837|AV-procd|sdf|10922|dock5
  -GOLD-   2272015373D 1   1.00000     0.00000
 Structure written by MMmdl.
 32 34  0  0  0  0  0  0  0  0  1 V2000
  153.6705  142.2552  162.7432 F   0  0  0  0  0  0  0  0  0  0  0  0
  152.7563  142.5811  161.7968 C   0  0  0  0  0  0  0  0  0  0  0  0
  152.4589  143.8938  161.9502 F   0  0  0  0  0  0  0  0  0  0  0  0
  153.2627  142.3670  160.5534 O   0  0  0  0  0  0  0  0  0  0  0  0
  152.4022  142.2910  159.4820 C   0  0  0  0  0  0  0  0  0  0  0  0
  152.1615  141.1039  158.7510 C   0  0  0  0  0  0  0  0  0  0  0  0
  151.2702  141.1406  157.6615 C   0  0  0  0  0  0  0  0  0  0  0  0
  150.6512  142.3627  157.3287 C   0  0  0  0  0  0  0  0  0  0  0  0
  149.7596  142.3897  156.2469 N   0  0  0  0  0  0  0  0  0  0  0  0
  149.1406  141.1661  155.7459 C   0  0  2  0  0  0  0  0  0  0  0  0
  149.2437  141.0231  154.2256 C   0  0  0  0  0  0  0  0  0  0  0  0
  147.7767  140.8081  153.8282 C   0  0  2  0  0  0  0  0  0  0  0  0
  146.9739  142.1128  153.9120 C   0  0  0  0  0  0  0  0  0  0  0  0
  146.8452  142.3014  155.4223 C   0  0  0  0  0  0  0  0  0  0  0  0
  147.6156  141.0843  155.9619 C   0  0  1  0  0  0  0  0  0  0  0  0
  147.2848  140.1266  154.9701 O   0  0  0  0  0  0  0  0  0  0  0  0
  150.8842  143.5036  158.0184 N   0  0  0  0  0  0  0  0  0  0  0  0
  151.7410  143.4620  159.0606 C   0  0  0  0  0  0  0  0  0  0  0  0
  151.8419  142.0109  161.9633 H   0  0  0  0  0  0  0  0  0  0  0  0
  152.6492  140.1755  159.0079 H   0  0  0  0  0  0  0  0  0  0  0  0
  151.0712  140.2443  157.0920 H   0  0  0  0  0  0  0  0  0  0  0  0
  149.3776  143.2752  155.9478 H   0  0  0  0  0  0  0  0  0  0  0  0
  149.6213  140.3019  156.2069 H   0  0  0  0  0  0  0  0  0  0  0  0
  149.6788  141.8914  153.7284 H   0  0  0  0  0  0  0  0  0  0  0  0
  149.8472  140.1514  153.9701 H   0  0  0  0  0  0  0  0  0  0  0  0
  147.6472  140.2688  152.8895 H   0  0  0  0  0  0  0  0  0  0  0  0
  147.4816  142.9449  153.4229 H   0  0  0  0  0  0  0  0  0  0  0  0
  145.9904  141.9953  153.4562 H   0  0  0  0  0  0  0  0  0  0  0  0
  147.2472  143.2532  155.7703 H   0  0  0  0  0  0  0  0  0  0  0  0
  145.7975  142.2526  155.7210 H   0  0  0  0  0  0  0  0  0  0  0  0
  147.3262  140.7935  156.9720 H   0  0  0  0  0  0  0  0  0  0  0  0
  151.9012  144.3953  159.5801 H   0  0  0  0  0  0  0  0  0  0  0  0
  1  2  1  0  0  0  0
  2  3  1  0  0  0  0
  2  4  1  0  0  0  0
  2 19  1  0  0  0  0
  4  5  1  0  0  0  0
  5 18  1  0  0  0  0
  5  6  2  0  0  0  0
  6  7  1  0  0  0  0
  6 20  1  0  0  0  0
  7  8  2  0  0  0  0
  7 21  1  0  0  0  0
  8  9  1  0  0  0  0
  8 17  1  0  0  0  0
  9 10  1  0  0  0  0
  9 22  1  0  0  0  0
 10 15  1  0  0  0  0
 10 11  1  0  0  0  0
 10 23  1  0  0  0  0
 11 12  1  0  0  0  0
 11 24  1  0  0  0  0
 11 25  1  0  0  0  0
 12 16  1  0  0  0  0
 12 13  1  0  0  0  0
 12 26  1  0  0  0  0
 13 14  1  0  0  0  0
 13 27  1  0  0  0  0
 13 28  1  0  0  0  0
 14 15  1  0  0  0  0
 14 29  1  0  0  0  0
 14 30  1  0  0  0  0
 15 16  1  0  0  0  0
 15 31  1  0  0  0  0
 17 18  2  0  0  0  0
 18 32  1  0  0  0  0
M  END
> <s_m_source_file>
AV-unprocessed.smi

> <i_m_source_file_index>
2837

> <i_lp_mmshare_version>
43012

> <i_f3d_flags>
0

> <s_epik_input>
RltDSF0oRilPYzFbY0hdW2NIXWMobltjSF0xKVtOSF1bQ0BIXShbQ0gyXVtDQEBIXTIzKVtDQEBIXShPMylbQ0gyXVtDSDJdMg==

> <s_epik_cmdline>
J2VwaWtfcHl0aG9uJywgJy1waCcsICc3LjAnLCAnLXRuJywgJzgnLCAnLW1hJywgJzIwMCcsICctbWV0YWxfYmluZGluZycsICctaW1hZScsICc8aW5maWxlLm1hZT4nLCAnLW9tYWUnLCAnPG91dGZpbGUubWFlPic=

> <r_lp_tautomer_probability>
1

> <r_epik_Ionization_Penalty>
0.0124072

> <r_epik_Ionization_Penalty_Charging>
0

> <r_epik_Ionization_Penalty_Neutral>
0.0124072

> <r_epik_State_Penalty>
0.00959565

> <r_epik_Charging_Adjusted_Penalty>
0.00959565

> <i_epik_Tot_Q>
0

> <i_epik_Tot_abs_Q>
0

> <r_epik_Metal_State_Penalty>
9.67369e-06

> <b_epik_Metal_Only>
0

> <s_lp_Force_Field>
OPLS_2005

> <r_lp_Energy>
39.9144

> <b_lp_Chiralities_Consistent>
1

> <s_lp_Variant>
AV-unprocessed.smi:2837-3

> <Gold.Version>
5.8.1

> <Gold.Id.Protein>
6NUR|6NUR_protein|mol2

> <Gold.PLP.Fitness>
41.9239

> <Gold.PLP.PLP>
-39.6952

> <Gold.PLP.part.hbond>
-1.0000

> <Gold.PLP.part.metal>
0.0000

> <Gold.PLP.part.buried>
-4.6608

> <Gold.PLP.part.nonpolar>
-33.6027

> <Gold.PLP.part.repulsive>
0.2897

> <Gold.PLP.ligand.clash>
0.0000

> <Gold.PLP.ligand.torsion>
0.3982

> <Gold.PLP.Chemscore.Hbond>
1.0000

> <Gold.PLP.Chemscore.CHOScore>
0.0000

> <Gold.PLP.Chemscore.Metal>
0.0000

> <Gold.Chemscore.Hbonds>
donor molecule, donor type, donor heavy atom, donor atom, acceptor molecule, acceptor atom, score
      L1  H     9    22       P1  8028  1.00

> <Gold.PLP.Chemscore.Internal.Correction>
0.0251

> <Gold.Rescore>
     Score         DG    S(hbond)    S(metal)    S(lipo)     H(rot)  DE(clash)    DE(int)     intcor
     14.47     -15.10       0.99        0.00      82.81       1.32       0.07       0.55       ----

> <Gold.Chemscore.Fitness>
14.4700

> <Gold.Chemscore.DG>
-15.0955

> <Gold.Chemscore.ZeroCoef>
-5.4800

> <Gold.Chemscore.Hbond>
0.9909

> <Gold.Chemscore.Metal>
0.0000

> <Gold.Chemscore.Lipo>
82.8077

> <Gold.Chemscore.Internal_Hbond>
0.0000

> <Gold.Chemscore.DEClash>
0.0721

> <Gold.Chemscore.DEInternal>
0.5534

> <Gold.Chemscore.Rot>
1.3213

> <Gold.Chemscore.Internal.Correction>
   9.000000E+99

> <Gold.Chemscore.Hbonds>
donor molecule, donor type, donor heavy atom, donor atom, acceptor molecule, acceptor atom, score
      L1  H     9    22       P1  8028  0.95

> <Gold.Chemscore.Hbond.Weighted>
-3.3095

> <Gold.Chemscore.Metal.Weighted>
-0.0000

> <Gold.Chemscore.Lipo.Weighted>
-9.6885

> <Gold.Chemscore.Internal_Hbond.Weighted>
0.0000

> <Gold.Chemscore.DEClash.Weighted>
0.0721

> <Gold.Chemscore.DEInternal.Weighted>
0.5534

> <Gold.Chemscore.Rot.Weighted>
3.3825

> <Gold.Chemscore.Internal.Correction.Weighted>
   9.000000E+99

> <Gold.Protein.RotatedTorsions>
[ 6907 6896 6895 6894 ] final   62.97 input  -60.11 | X-H torsion
[ 7974 7965 7964 7962 ] final  -87.24 input  175.53 | X-H torsion
[ 8008 7997 7996 7995 ] final -143.57 input   59.86 | X-H torsion
[ 10167 10162 10161 10158 ] final   83.25 input  -65.29 | X-H torsion
[ 10718 10713 10712 10709 ] final   31.85 input   66.30 | X-H torsion
[ 10763 10752 10751 10750 ] final  -44.49 input  -60.55 | X-H torsion
[ 11005 11000 10999 10996 ] final -109.65 input  -57.11 | X-H torsion

> <Gold.Protein.ActiveResidues>
 VAL166  LYS551  ARG553  GLY616  TRP617  ASP618  TYR619  PRO620  LYS621  CYS622 
 ASP623  PHE694  ASN695  SER759  ASP760  ASP761  ALA762  ILE779  LEU786  VAL792 
 PHE793  MET794  SER795  GLU796  ALA797  LYS798  CYS799  TRP800  GLU811  SER814 

> <Gold.Protein.RotatedAtoms>
  152.4216  134.5945  159.9983 H   0  0  0  0  0  0  0  0  0  0  0  0  # atno 6907 bound_to 6896
  151.6093  133.3343  159.3072 H   0  0  0  0  0  0  0  0  0  0  0  0  # atno 6908 bound_to 6896
  150.8104  134.7293  159.6748 H   0  0  0  0  0  0  0  0  0  0  0  0  # atno 6909 bound_to 6896
  145.4692  140.9560  143.1926 H   0  0  0  0  0  0  0  0  0  0  0  0  # atno 7974 bound_to 7965
  155.5127  140.0585  157.2920 H   0  0  0  0  0  0  0  0  0  0  0  0  # atno 8008 bound_to 7997
  154.4546  140.1966  156.0365 H   0  0  0  0  0  0  0  0  0  0  0  0  # atno 8009 bound_to 7997
  156.0773  140.3252  155.7654 H   0  0  0  0  0  0  0  0  0  0  0  0  # atno 8010 bound_to 7997
  139.9203  144.6216  150.8446 H   0  0  0  0  0  0  0  0  0  0  0  0  # atno 10167 bound_to 10162
  157.2777  130.7239  149.6539 H   0  0  0  0  0  0  0  0  0  0  0  0  # atno 10718 bound_to 10713
  154.0128  135.6679  153.4766 H   0  0  0  0  0  0  0  0  0  0  0  0  # atno 10763 bound_to 10752
  153.0613  135.5026  154.8096 H   0  0  0  0  0  0  0  0  0  0  0  0  # atno 10764 bound_to 10752
  154.6985  135.3074  154.9340 H   0  0  0  0  0  0  0  0  0  0  0  0  # atno 10765 bound_to 10752
  141.0836  133.9178  157.2236 H   0  0  0  0  0  0  0  0  0  0  0  0  # atno 11005 bound_to 11000
  144.7955  139.6242  143.7094 LP  0  0  0  0  0  0  0  0  0  0  0  0  # atno 17320 bound_to 7965
  146.2406  139.5994  142.9494 LP  0  0  0  0  0  0  0  0  0  0  0  0  # atno 17321 bound_to 7965
  140.7664  143.3301  151.2428 LP  0  0  0  0  0  0  0  0  0  0  0  0  # atno 17342 bound_to 10162
  139.6867  143.9762  152.2838 LP  0  0  0  0  0  0  0  0  0  0  0  0  # atno 17343 bound_to 10162
  155.9664  130.4347  150.5063 LP  0  0  0  0  0  0  0  0  0  0  0  0  # atno 17370 bound_to 10713
  157.3000  131.0643  151.2075 LP  0  0  0  0  0  0  0  0  0  0  0  0  # atno 17371 bound_to 10713
  139.9651  135.0144  156.9366 LP  0  0  0  0  0  0  0  0  0  0  0  0  # atno 17394 bound_to 11000
  140.5414  134.0716  155.7342 LP  0  0  0  0  0  0  0  0  0  0  0  0  # atno 17395 bound_to 11000

$$$$
