AV-unprocessed.smi:1414|AV-procd|sdf|5760|dock5
  -GOLD-   22720 5393D 1   1.00000     0.00000
 Structure written by MMmdl.
 45 46  0  0  0  0  0  0  0  0  1 V2000
  153.5368  140.7256  159.2997 C   0  0  0  0  0  0  0  0  0  0  0  0
  152.0136  140.9139  159.4030 C   0  0  2  0  0  0  0  0  0  0  0  0
  151.1849  139.9643  158.5052 C   0  0  0  0  0  0  0  0  0  0  0  0
  150.9512  140.4941  157.1489 N   0  0  0  0  0  0  0  0  0  0  0  0
  151.3322  139.5590  155.7342 S   0  0  0  0  0  0  0  0  0  0  0  0
  150.8247  140.3003  154.5693 O   0  0  0  0  0  0  0  0  0  0  0  0
  152.7557  139.1953  155.8092 O   0  0  0  0  0  0  0  0  0  0  0  0
  150.3141  138.0323  155.9304 C   0  0  0  0  0  0  0  0  0  0  0  0
  151.0263  136.7885  155.3742 C   0  0  0  0  0  0  0  0  0  0  0  0
  150.1506  136.0159  154.5016 N   0  0  0  0  0  0  0  0  0  0  0  0
  149.9017  134.7051  154.6278 C   0  0  0  0  0  0  0  0  0  0  0  0
  150.4001  134.0006  155.5049 O   0  0  0  0  0  0  0  0  0  0  0  0
  149.0663  134.2737  153.6679 N   0  0  0  0  0  0  0  0  0  0  0  0
  148.5273  132.9713  153.4922 C   0  0  0  0  0  0  0  0  0  0  0  0
  147.4282  132.8191  152.6221 C   0  0  0  0  0  0  0  0  0  0  0  0
  146.8618  131.5421  152.4496 C   0  0  0  0  0  0  0  0  0  0  0  0
  147.4142  130.4626  153.1651 C   0  0  0  0  0  0  0  0  0  0  0  0
  148.4560  130.5928  154.0133 N   0  0  0  0  0  0  0  0  0  0  0  0
  148.9959  131.8203  154.1728 C   0  0  0  0  0  0  0  0  0  0  0  0
  150.6757  141.9341  157.0561 C   0  0  0  0  0  0  0  0  0  0  0  0
  151.6867  142.7363  157.8870 C   0  0  1  0  0  0  0  0  0  0  0  0
  151.3725  144.2359  157.8830 C   0  0  0  0  0  0  0  0  0  0  0  0
  151.6404  142.2788  159.2323 O   0  0  0  0  0  0  0  0  0  0  0  0
  153.8167  139.6922  159.5050 H   0  0  0  0  0  0  0  0  0  0  0  0
  154.0510  141.3549  160.0264 H   0  0  0  0  0  0  0  0  0  0  0  0
  153.9272  140.9811  158.3187 H   0  0  0  0  0  0  0  0  0  0  0  0
  151.7584  140.6697  160.4347 H   0  0  0  0  0  0  0  0  0  0  0  0
  151.6515  138.9806  158.4591 H   0  0  0  0  0  0  0  0  0  0  0  0
  150.2070  139.8141  158.9637 H   0  0  0  0  0  0  0  0  0  0  0  0
  150.0444  137.9257  156.9781 H   0  0  0  0  0  0  0  0  0  0  0  0
  149.3872  138.1923  155.3795 H   0  0  0  0  0  0  0  0  0  0  0  0
  151.8987  137.0870  154.7930 H   0  0  0  0  0  0  0  0  0  0  0  0
  151.3955  136.1576  156.1826 H   0  0  0  0  0  0  0  0  0  0  0  0
  149.7058  136.5149  153.7450 H   0  0  0  0  0  0  0  0  0  0  0  0
  148.8189  134.9457  152.9566 H   0  0  0  0  0  0  0  0  0  0  0  0
  147.0244  133.6677  152.0890 H   0  0  0  0  0  0  0  0  0  0  0  0
  146.0230  131.3939  151.7858 H   0  0  0  0  0  0  0  0  0  0  0  0
  147.0046  129.4691  153.0577 H   0  0  0  0  0  0  0  0  0  0  0  0
  149.8062  131.8675  154.8836 H   0  0  0  0  0  0  0  0  0  0  0  0
  150.6954  142.2588  156.0163 H   0  0  0  0  0  0  0  0  0  0  0  0
  149.6642  142.1149  157.4209 H   0  0  0  0  0  0  0  0  0  0  0  0
  152.6871  142.6051  157.4783 H   0  0  0  0  0  0  0  0  0  0  0  0
  151.4022  144.6395  156.8705 H   0  0  0  0  0  0  0  0  0  0  0  0
  152.0987  144.7871  158.4809 H   0  0  0  0  0  0  0  0  0  0  0  0
  150.3824  144.4342  158.2943 H   0  0  0  0  0  0  0  0  0  0  0  0
  1  2  1  0  0  0  0
  1 24  1  0  0  0  0
  1 25  1  0  0  0  0
  1 26  1  0  0  0  0
  2 23  1  0  0  0  0
  2  3  1  0  0  0  0
  2 27  1  0  0  0  0
  3  4  1  0  0  0  0
  3 28  1  0  0  0  0
  3 29  1  0  0  0  0
  4  5  1  0  0  0  0
  4 20  1  0  0  0  0
  5  6  2  0  0  0  0
  5  7  2  0  0  0  0
  5  8  1  0  0  0  0
  8  9  1  0  0  0  0
  8 30  1  0  0  0  0
  8 31  1  0  0  0  0
  9 10  1  0  0  0  0
  9 32  1  0  0  0  0
  9 33  1  0  0  0  0
 10 11  1  0  0  0  0
 10 34  1  0  0  0  0
 11 12  2  0  0  0  0
 11 13  1  0  0  0  0
 13 14  1  0  0  0  0
 13 35  1  0  0  0  0
 14 19  1  0  0  0  0
 14 15  2  0  0  0  0
 15 16  1  0  0  0  0
 15 36  1  0  0  0  0
 16 17  2  0  0  0  0
 16 37  1  0  0  0  0
 17 18  1  0  0  0  0
 17 38  1  0  0  0  0
 18 19  2  0  0  0  0
 19 39  1  0  0  0  0
 20 21  1  0  0  0  0
 20 40  1  0  0  0  0
 20 41  1  0  0  0  0
 21 22  1  0  0  0  0
 21 23  1  0  0  0  0
 21 42  1  0  0  0  0
 22 43  1  0  0  0  0
 22 44  1  0  0  0  0
 22 45  1  0  0  0  0
M  END
> <s_m_source_file>
AV-unprocessed.smi

> <i_m_source_file_index>
1414

> <i_lp_mmshare_version>
43012

> <i_f3d_flags>
0

> <s_epik_input>
W0NIM11bQ0BASF0xW0NIMl1OKFtDSDJdW0NASF0oTzEpW0NIM10pUyg9TykoPU8pW0NIMl1bQ0gyXVtOSF1DKD1PKVtOSF1jMltjSF1bY0hdW2NIXW5bY0hdMg==

> <s_epik_cmdline>
J2VwaWtfcHl0aG9uJywgJy1waCcsICc3LjAnLCAnLXRuJywgJzgnLCAnLW1hJywgJzIwMCcsICctbWV0YWxfYmluZGluZycsICctaW1hZScsICc8aW5maWxlLm1hZT4nLCAnLW9tYWUnLCAnPG91dGZpbGUubWFlPic=

> <r_epik_Ionization_Penalty>
0.00437531

> <r_epik_Ionization_Penalty_Charging>
0

> <r_epik_Ionization_Penalty_Neutral>
0.00437531

> <r_epik_State_Penalty>
0.00312896

> <r_epik_Charging_Adjusted_Penalty>
0.00312896

> <i_epik_Tot_Q>
0

> <i_epik_Tot_abs_Q>
0

> <r_epik_Metal_State_Penalty>
-0

> <b_epik_Metal_Only>
0

> <s_lp_Force_Field>
OPLS_2005

> <r_lp_Energy>
6.94025

> <b_lp_Chiralities_Consistent>
1

> <s_lp_Variant>
AV-unprocessed.smi:1414-1

> <Gold.Version>
5.8.1

> <Gold.Id.Protein>
6NUR|6NUR_protein|mol2

> <Gold.PLP.Fitness>
47.6973

> <Gold.PLP.PLP>
-38.5199

> <Gold.PLP.part.hbond>
-4.1373

> <Gold.PLP.part.metal>
0.0000

> <Gold.PLP.part.buried>
-5.9962

> <Gold.PLP.part.nonpolar>
-29.3129

> <Gold.PLP.part.repulsive>
0.2373

> <Gold.PLP.ligand.clash>
0.0000

> <Gold.PLP.ligand.torsion>
2.0207

> <Gold.PLP.Chemscore.Hbond>
3.7020

> <Gold.PLP.Chemscore.CHOScore>
0.0000

> <Gold.PLP.Chemscore.Metal>
0.0000

> <Gold.Chemscore.Hbonds>
donor molecule, donor type, donor heavy atom, donor atom, acceptor molecule, acceptor atom, score
      L1  H    10    34       P1  7948  0.82
      L1  H    13    35       P1  7948  0.95
      P1  H  7989  7998       L1     6  0.81
      P1  H  7997  8009       L1     7  1.00

> <Gold.PLP.Chemscore.Internal.Correction>
2.1129

> <Gold.Rescore>
     Score         DG    S(hbond)    S(metal)    S(lipo)     H(rot)  DE(clash)    DE(int)     intcor
     18.57     -21.86       3.22        0.00      82.30       1.57       0.01       3.28       ----

> <Gold.Chemscore.Fitness>
18.5717

> <Gold.Chemscore.DG>
-21.8575

> <Gold.Chemscore.ZeroCoef>
-5.4800

> <Gold.Chemscore.Hbond>
3.2228

> <Gold.Chemscore.Metal>
0.0000

> <Gold.Chemscore.Lipo>
82.3008

> <Gold.Chemscore.Internal_Hbond>
0.0000

> <Gold.Chemscore.DEClash>
0.0075

> <Gold.Chemscore.DEInternal>
3.2783

> <Gold.Chemscore.Rot>
1.5687

> <Gold.Chemscore.Internal.Correction>
   9.000000E+99

> <Gold.Chemscore.Hbonds>
donor molecule, donor type, donor heavy atom, donor atom, acceptor molecule, acceptor atom, score
      L1  H    10    34       P1  7948  0.43
      L1  H    13    35       P1  7948  0.21
      P1  H  7989  7998       L1     6  0.80
      P1  H  7997  8009       L1     7  0.98

> <Gold.Chemscore.Hbond.Weighted>
-10.7642

> <Gold.Chemscore.Metal.Weighted>
-0.0000

> <Gold.Chemscore.Lipo.Weighted>
-9.6292

> <Gold.Chemscore.Internal_Hbond.Weighted>
0.0000

> <Gold.Chemscore.DEClash.Weighted>
0.0075

> <Gold.Chemscore.DEInternal.Weighted>
3.2783

> <Gold.Chemscore.Rot.Weighted>
4.0160

> <Gold.Chemscore.Internal.Correction.Weighted>
   9.000000E+99

> <Gold.Protein.RotatedTorsions>
[ 6907 6896 6895 6894 ] final   77.68 input  -60.11 | X-H torsion
[ 7974 7965 7964 7962 ] final   75.78 input  175.53 | X-H torsion
[ 8008 7997 7996 7995 ] final -170.96 input   59.86 | X-H torsion
[ 10167 10162 10161 10158 ] final  156.60 input  -65.29 | X-H torsion
[ 10718 10713 10712 10709 ] final  -45.37 input   66.30 | X-H torsion
[ 10763 10752 10751 10750 ] final  150.00 input  -60.55 | X-H torsion
[ 11005 11000 10999 10996 ] final -133.86 input  -57.11 | X-H torsion

> <Gold.Protein.ActiveResidues>
 VAL166  LYS551  ARG553  GLY616  TRP617  ASP618  TYR619  PRO620  LYS621  CYS622 
 ASP623  PHE694  ASN695  SER759  ASP760  ASP761  ALA762  ILE779  LEU786  VAL792 
 PHE793  MET794  SER795  GLU796  ALA797  LYS798  CYS799  TRP800  GLU811  SER814 

> <Gold.Protein.RotatedAtoms>
  152.5128  134.3780  159.9341 H   0  0  0  0  0  0  0  0  0  0  0  0  # atno 6907 bound_to 6896
  151.3736  133.3839  159.2710 H   0  0  0  0  0  0  0  0  0  0  0  0  # atno 6908 bound_to 6896
  150.9558  134.8972  159.7759 H   0  0  0  0  0  0  0  0  0  0  0  0  # atno 6909 bound_to 6896
  145.7113  139.2615  143.1649 H   0  0  0  0  0  0  0  0  0  0  0  0  # atno 7974 bound_to 7965
  155.9252  140.1081  157.1175 H   0  0  0  0  0  0  0  0  0  0  0  0  # atno 8008 bound_to 7997
  154.4061  140.1248  156.4797 H   0  0  0  0  0  0  0  0  0  0  0  0  # atno 8009 bound_to 7997
  155.7147  140.3470  155.4991 H   0  0  0  0  0  0  0  0  0  0  0  0  # atno 8010 bound_to 7997
  139.4821  144.4994  151.8191 H   0  0  0  0  0  0  0  0  0  0  0  0  # atno 10167 bound_to 10162
  156.2291  130.4171  149.8897 H   0  0  0  0  0  0  0  0  0  0  0  0  # atno 10718 bound_to 10713
  154.0803  135.2860  155.3291 H   0  0  0  0  0  0  0  0  0  0  0  0  # atno 10763 bound_to 10752
  154.6688  135.5307  153.8114 H   0  0  0  0  0  0  0  0  0  0  0  0  # atno 10764 bound_to 10752
  153.0451  135.6552  154.0979 H   0  0  0  0  0  0  0  0  0  0  0  0  # atno 10765 bound_to 10752
  140.9043  134.1651  157.4438 H   0  0  0  0  0  0  0  0  0  0  0  0  # atno 11005 bound_to 11000
  146.0710  140.7869  142.9688 LP  0  0  0  0  0  0  0  0  0  0  0  0  # atno 17320 bound_to 7965
  144.6941  140.3342  143.7210 LP  0  0  0  0  0  0  0  0  0  0  0  0  # atno 17321 bound_to 7965
  140.4486  144.1887  150.5896 LP  0  0  0  0  0  0  0  0  0  0  0  0  # atno 17342 bound_to 10162
  140.4609  143.2449  151.9221 LP  0  0  0  0  0  0  0  0  0  0  0  0  # atno 17343 bound_to 10162
  156.6518  130.8746  151.3532 LP  0  0  0  0  0  0  0  0  0  0  0  0  # atno 17370 bound_to 10713
  157.7124  130.9456  150.1136 LP  0  0  0  0  0  0  0  0  0  0  0  0  # atno 17371 bound_to 10713
  139.8747  134.9910  156.5530 LP  0  0  0  0  0  0  0  0  0  0  0  0  # atno 17394 bound_to 11000
  140.8191  133.8368  155.8879 LP  0  0  0  0  0  0  0  0  0  0  0  0  # atno 17395 bound_to 11000

$$$$
