AV-unprocessed.smi:1994|AV-procd|sdf|8075|dock2
  -GOLD-   2272010283D 1   1.00000     0.00000
 Structure written by MMmdl.
 40 42  0  0  0  0  0  0  0  0  2 V2000
  146.7390  139.1103  152.3752 C   0  0  0  0  0  0  0  0  0  0  0  0
  147.9630  139.2899  153.2091 C   0  0  0  0  0  0  0  0  0  0  0  0
  148.9726  138.3859  153.3560 N   0  3  0  0  0  0  0  0  0  0  0  0
  149.9449  138.8990  154.2163 C   0  0  0  0  0  0  0  0  0  0  0  0
  151.1437  138.3546  154.6665 C   0  0  0  0  0  0  0  0  0  0  0  0
  151.9081  139.1487  155.5468 C   0  0  0  0  0  0  0  0  0  0  0  0
  151.4730  140.4290  155.9468 C   0  0  0  0  0  0  0  0  0  0  0  0
  150.2550  140.9701  155.4844 C   0  0  0  0  0  0  0  0  0  0  0  0
  149.5069  140.1788  154.6134 C   0  0  0  0  0  0  0  0  0  0  0  0
  148.2835  140.3788  153.9651 N   0  0  0  0  0  0  0  0  0  0  0  0
  147.5568  141.6392  154.1795 C   0  0  0  0  0  0  0  0  0  0  0  0
  146.7827  141.6695  155.5132 C   0  0  1  0  0  0  0  0  0  0  0  0
  147.4198  142.5507  156.4161 O   0  0  0  0  0  0  0  0  0  0  0  0
  145.3266  142.1202  155.3322 C   0  0  0  0  0  0  0  0  0  0  0  0
  145.3138  143.3200  154.5704 O   0  0  0  0  0  0  0  0  0  0  0  0
  144.3630  144.2734  154.8659 C   0  0  0  0  0  0  0  0  0  0  0  0
  143.5377  144.2428  156.0189 C   0  0  0  0  0  0  0  0  0  0  0  0
  142.5898  145.2598  156.2448 C   0  0  0  0  0  0  0  0  0  0  0  0
  142.4533  146.3159  155.3251 C   0  0  0  0  0  0  0  0  0  0  0  0
  143.2667  146.3538  154.1778 C   0  0  0  0  0  0  0  0  0  0  0  0
  144.2152  145.3378  153.9509 C   0  0  0  0  0  0  0  0  0  0  0  0
  144.9936  145.3869  152.8433 F   0  0  0  0  0  0  0  0  0  0  0  0
  146.8125  138.2017  151.7770 H   0  0  0  0  0  0  0  0  0  0  0  0
  146.6114  139.9581  151.7018 H   0  0  0  0  0  0  0  0  0  0  0  0
  145.8580  139.0362  153.0130 H   0  0  0  0  0  0  0  0  0  0  0  0
  151.4788  137.3739  154.3620 H   0  0  0  0  0  0  0  0  0  0  0  0
  152.8470  138.7683  155.9227 H   0  0  0  0  0  0  0  0  0  0  0  0
  152.0857  141.0085  156.6221 H   0  0  0  0  0  0  0  0  0  0  0  0
  149.9294  141.9517  155.7966 H   0  0  0  0  0  0  0  0  0  0  0  0
  148.2829  142.4525  154.1444 H   0  0  0  0  0  0  0  0  0  0  0  0
  146.8852  141.7933  153.3338 H   0  0  0  0  0  0  0  0  0  0  0  0
  146.7888  140.6786  155.9679 H   0  0  0  0  0  0  0  0  0  0  0  0
  148.0059  143.1074  155.9273 H   0  0  0  0  0  0  0  0  0  0  0  0
  144.7655  141.3474  154.8035 H   0  0  0  0  0  0  0  0  0  0  0  0
  144.8584  142.2744  156.3061 H   0  0  0  0  0  0  0  0  0  0  0  0
  143.6114  143.4483  156.7458 H   0  0  0  0  0  0  0  0  0  0  0  0
  141.9659  145.2288  157.1259 H   0  0  0  0  0  0  0  0  0  0  0  0
  141.7259  147.0951  155.4993 H   0  0  0  0  0  0  0  0  0  0  0  0
  143.1637  147.1633  153.4703 H   0  0  0  0  0  0  0  0  0  0  0  0
  148.9915  137.4822  152.9010 H   0  0  0  0  0  0  0  0  0  0  0  0
  1  2  1  0  0  0  0
  1 23  1  0  0  0  0
  1 24  1  0  0  0  0
  1 25  1  0  0  0  0
  2 10  1  0  0  0  0
  2  3  2  0  0  0  0
  3  4  1  0  0  0  0
  3 40  1  0  0  0  0
  4  9  2  0  0  0  0
  4  5  1  0  0  0  0
  5  6  2  0  0  0  0
  5 26  1  0  0  0  0
  6  7  1  0  0  0  0
  6 27  1  0  0  0  0
  7  8  2  0  0  0  0
  7 28  1  0  0  0  0
  8  9  1  0  0  0  0
  8 29  1  0  0  0  0
  9 10  1  0  0  0  0
 10 11  1  0  0  0  0
 11 12  1  0  0  0  0
 11 30  1  0  0  0  0
 11 31  1  0  0  0  0
 12 13  1  0  0  0  0
 12 14  1  0  0  0  0
 12 32  1  0  0  0  0
 13 33  1  0  0  0  0
 14 15  1  0  0  0  0
 14 34  1  0  0  0  0
 14 35  1  0  0  0  0
 15 16  1  0  0  0  0
 16 21  1  0  0  0  0
 16 17  2  0  0  0  0
 17 18  1  0  0  0  0
 17 36  1  0  0  0  0
 18 19  2  0  0  0  0
 18 37  1  0  0  0  0
 19 20  1  0  0  0  0
 19 38  1  0  0  0  0
 20 21  2  0  0  0  0
 20 39  1  0  0  0  0
 21 22  1  0  0  0  0
M  CHG  1   3   1
M  END
> <s_m_source_file>
AV-unprocessed.smi

> <i_m_source_file_index>
1994

> <i_lp_mmshare_version>
43012

> <i_f3d_flags>
0

> <s_epik_input>
W2NIXTFbY0hdW2NIXVtjSF1jKGMxMiluKGMobjIpW0NIM10pW0NIMl1bQ0BIXShbT0hdKVtDSDJdT2MzW2NIXVtjSF1bY0hdW2NIXWMzRg==

> <s_epik_cmdline>
J2VwaWtfcHl0aG9uJywgJy1waCcsICc3LjAnLCAnLXRuJywgJzgnLCAnLW1hJywgJzIwMCcsICctbWV0YWxfYmluZGluZycsICctaW1hZScsICc8aW5maWxlLm1hZT4nLCAnLW9tYWUnLCAnPG91dGZpbGUubWFlPic=

> <r_lp_tautomer_probability>
1

> <r_epik_Ionization_Penalty>
1.03916

> <r_epik_Ionization_Penalty_Charging>
1.03916

> <r_epik_Ionization_Penalty_Neutral>
2.3993e-06

> <r_epik_State_Penalty>
1.09101

> <r_epik_Charging_Adjusted_Penalty>
2.13018

> <i_epik_Tot_Q>
1

> <i_epik_Tot_abs_Q>
1

> <r_epik_Metal_State_Penalty>
5.08156

> <b_epik_Metal_Only>
0

> <s_lp_Force_Field>
OPLS_2005

> <r_lp_Energy>
18.0159

> <b_lp_Chiralities_Consistent>
1

> <s_lp_Variant>
AV-unprocessed.smi:1994-4

> <Gold.Version>
5.8.1

> <Gold.Id.Protein>
6NUR|6NUR_protein|mol2

> <Gold.PLP.Fitness>
52.8459

> <Gold.PLP.PLP>
-46.5550

> <Gold.PLP.part.hbond>
-3.0000

> <Gold.PLP.part.metal>
0.0000

> <Gold.PLP.part.buried>
1.3125

> <Gold.PLP.part.nonpolar>
-44.6220

> <Gold.PLP.part.repulsive>
0.2769

> <Gold.PLP.ligand.clash>
0.0000

> <Gold.PLP.ligand.torsion>
1.3699

> <Gold.PLP.Chemscore.Hbond>
3.0000

> <Gold.PLP.Chemscore.CHOScore>
0.0000

> <Gold.PLP.Chemscore.Metal>
0.0000

> <Gold.Chemscore.Hbonds>
donor molecule, donor type, donor heavy atom, donor atom, acceptor molecule, acceptor atom, score
      L1  H     3    40       P1  7948  2.00
      L1  H    13    33       P1  8028  1.00

> <Gold.PLP.Chemscore.Internal.Correction>
0.0307

> <Gold.Rescore>
     Score         DG    S(hbond)    S(metal)    S(lipo)     H(rot)  DE(clash)    DE(int)     intcor
     14.14     -17.19       1.58        0.00     104.64       2.27       1.67       1.38       ----

> <Gold.Chemscore.Fitness>
14.1402

> <Gold.Chemscore.DG>
-17.1852

> <Gold.Chemscore.ZeroCoef>
-5.4800

> <Gold.Chemscore.Hbond>
1.5794

> <Gold.Chemscore.Metal>
0.0000

> <Gold.Chemscore.Lipo>
104.6382

> <Gold.Chemscore.Internal_Hbond>
0.0000

> <Gold.Chemscore.DEClash>
1.6699

> <Gold.Chemscore.DEInternal>
1.3751

> <Gold.Chemscore.Rot>
2.2706

> <Gold.Chemscore.Internal.Correction>
   9.000000E+99

> <Gold.Chemscore.Hbonds>
donor molecule, donor type, donor heavy atom, donor atom, acceptor molecule, acceptor atom, score
      L1  H     3    40       P1  7948  0.99
      L1  H    13    33       P1  8028  0.53

> <Gold.Chemscore.Hbond.Weighted>
-5.2753

> <Gold.Chemscore.Metal.Weighted>
-0.0000

> <Gold.Chemscore.Lipo.Weighted>
-12.2427

> <Gold.Chemscore.Internal_Hbond.Weighted>
0.0000

> <Gold.Chemscore.DEClash.Weighted>
1.6699

> <Gold.Chemscore.DEInternal.Weighted>
1.3751

> <Gold.Chemscore.Rot.Weighted>
5.8128

> <Gold.Chemscore.Internal.Correction.Weighted>
   9.000000E+99

> <Gold.Protein.RotatedTorsions>
[ 6907 6896 6895 6894 ] final -131.99 input  -60.11 | X-H torsion
[ 7974 7965 7964 7962 ] final -105.30 input  175.53 | X-H torsion
[ 8008 7997 7996 7995 ] final    2.27 input   59.86 | X-H torsion
[ 10167 10162 10161 10158 ] final  120.47 input  -65.29 | X-H torsion
[ 10718 10713 10712 10709 ] final -148.27 input   66.30 | X-H torsion
[ 10763 10752 10751 10750 ] final  -16.28 input  -60.55 | X-H torsion
[ 11005 11000 10999 10996 ] final  155.33 input  -57.11 | X-H torsion

> <Gold.Protein.ActiveResidues>
 VAL166  LYS551  ARG553  GLY616  TRP617  ASP618  TYR619  PRO620  LYS621  CYS622 
 ASP623  PHE694  ASN695  SER759  ASP760  ASP761  ALA762  ILE779  LEU786  VAL792 
 PHE793  MET794  SER795  GLU796  ALA797  LYS798  CYS799  TRP800  GLU811  SER814 

> <Gold.Protein.RotatedAtoms>
  150.9573  133.6483  159.2760 H   0  0  0  0  0  0  0  0  0  0  0  0  # atno 6907 bound_to 6896
  151.3818  135.0940  159.9508 H   0  0  0  0  0  0  0  0  0  0  0  0  # atno 6908 bound_to 6896
  152.5134  133.9106  159.7540 H   0  0  0  0  0  0  0  0  0  0  0  0  # atno 6909 bound_to 6896
  145.2321  140.9174  143.3198 H   0  0  0  0  0  0  0  0  0  0  0  0  # atno 7974 bound_to 7965
  154.6897  140.2650  155.6825 H   0  0  0  0  0  0  0  0  0  0  0  0  # atno 8008 bound_to 7997
  156.2727  140.2793  156.1393 H   0  0  0  0  0  0  0  0  0  0  0  0  # atno 8009 bound_to 7997
  155.0915  140.0373  157.2660 H   0  0  0  0  0  0  0  0  0  0  0  0  # atno 8010 bound_to 7997
  139.5980  144.7048  151.3130 H   0  0  0  0  0  0  0  0  0  0  0  0  # atno 10167 bound_to 10162
  156.4182  130.8015  151.2237 H   0  0  0  0  0  0  0  0  0  0  0  0  # atno 10718 bound_to 10713
  153.5562  135.7010  153.5568 H   0  0  0  0  0  0  0  0  0  0  0  0  # atno 10763 bound_to 10752
  153.3470  135.4005  155.1616 H   0  0  0  0  0  0  0  0  0  0  0  0  # atno 10764 bound_to 10752
  154.8654  135.3756  154.5076 H   0  0  0  0  0  0  0  0  0  0  0  0  # atno 10765 bound_to 10752
  140.1571  134.8635  157.2528 H   0  0  0  0  0  0  0  0  0  0  0  0  # atno 11005 bound_to 11000
  144.9666  139.3923  143.6329 LP  0  0  0  0  0  0  0  0  0  0  0  0  # atno 17320 bound_to 7965
  146.3350  139.8745  142.8834 LP  0  0  0  0  0  0  0  0  0  0  0  0  # atno 17321 bound_to 7965
  140.7227  143.7090  150.7784 LP  0  0  0  0  0  0  0  0  0  0  0  0  # atno 17342 bound_to 10162
  140.0660  143.5107  152.2604 LP  0  0  0  0  0  0  0  0  0  0  0  0  # atno 17343 bound_to 10162
  157.7508  131.0236  150.3842 LP  0  0  0  0  0  0  0  0  0  0  0  0  # atno 17370 bound_to 10713
  156.4154  130.3942  149.6862 LP  0  0  0  0  0  0  0  0  0  0  0  0  # atno 17371 bound_to 10713
  140.2534  134.3656  155.7433 LP  0  0  0  0  0  0  0  0  0  0  0  0  # atno 17394 bound_to 11000
  141.2205  133.7329  156.8970 LP  0  0  0  0  0  0  0  0  0  0  0  0  # atno 17395 bound_to 11000

$$$$
