AV-unprocessed.smi:16|AV-procd|sdf|98|dock2
  -GOLD-   2262015243D 1   1.00000     0.00000
 Structure written by MMmdl.
 59 63  0  0  0  0  0  0  0  0  1 V2000
  151.0357  136.3231  155.5176 C   0  0  0  0  0  0  0  0  0  0  0  0
  151.6052  137.7506  155.4747 C   0  0  0  0  0  0  0  0  0  0  0  0
  150.5499  138.7582  155.3826 N   0  0  0  0  0  0  0  0  0  0  0  0
  151.1290  140.0870  155.5905 C   0  0  0  0  0  0  0  0  0  0  0  0
  150.0170  141.1475  155.6270 C   0  0  0  0  0  0  0  0  0  0  0  0
  149.2234  141.1426  154.3079 C   0  0  2  0  0  0  0  0  0  0  0  0
  148.1505  142.0878  154.2934 O   0  0  0  0  0  0  0  0  0  0  0  0
  147.0439  141.7481  155.1261 C   0  0  0  0  0  0  0  0  0  0  0  0
  146.5025  140.3649  154.7393 C   0  0  0  0  0  0  0  0  0  0  0  0
  147.5693  139.3759  154.8126 N   0  0  0  0  0  0  0  0  0  0  0  0
  147.1169  138.1090  154.6967 C   0  0  0  0  0  0  0  0  0  0  0  0
  147.1792  137.2608  155.7564 N   0  0  0  0  0  0  0  0  0  0  0  0
  146.6913  136.0214  155.6429 C   0  0  0  0  0  0  0  0  0  0  0  0
  146.1131  135.4443  154.5865 N   0  0  0  0  0  0  0  0  0  0  0  0
  146.0592  136.2958  153.5214 C   0  0  0  0  0  0  0  0  0  0  0  0
  146.5348  137.6353  153.4936 C   0  0  0  0  0  0  0  0  0  0  0  0
  146.2960  138.2044  152.2499 N   0  0  0  0  0  0  0  0  0  0  0  0
  145.7024  137.2548  151.5797 C   0  0  0  0  0  0  0  0  0  0  0  0
  145.5445  136.0661  152.2573 N   0  0  0  0  0  0  0  0  0  0  0  0
  144.8900  134.8864  151.7748 C   0  0  0  0  0  0  0  0  0  0  0  0
  144.9975  133.5566  152.5241 C   0  0  0  0  0  0  0  0  0  0  0  0
  144.9201  132.8014  151.1781 C   0  0  0  0  0  0  0  0  0  0  0  0
  145.8735  131.6040  151.0353 C   0  0  0  0  0  0  0  0  0  0  0  0
  146.4011  131.5234  149.7268 O   0  0  0  0  0  0  0  0  0  0  0  0
  143.5033  132.3763  150.7427 C   0  0  0  0  0  0  0  0  0  0  0  0
  143.4814  131.9556  149.3937 O   0  0  0  0  0  0  0  0  0  0  0  0
  145.4268  134.1237  150.5611 C   0  0  0  0  0  0  0  0  0  0  0  0
  148.7223  139.7209  153.9754 C   0  0  2  0  0  0  0  0  0  0  0  0
  149.8901  138.7045  154.0721 C   0  0  0  0  0  0  0  0  0  0  0  0
  149.9084  141.4503  153.5169 H   0  0  0  0  0  0  0  0  0  0  0  0
  148.3704  139.7258  152.9426 H   0  0  0  0  0  0  0  0  0  0  0  0
  151.8357  135.6009  155.6801 H   0  0  0  0  0  0  0  0  0  0  0  0
  150.5354  136.0435  154.5912 H   0  0  0  0  0  0  0  0  0  0  0  0
  150.3218  136.2088  156.3335 H   0  0  0  0  0  0  0  0  0  0  0  0
  152.1666  137.9065  156.3969 H   0  0  0  0  0  0  0  0  0  0  0  0
  152.3156  137.8629  154.6542 H   0  0  0  0  0  0  0  0  0  0  0  0
  151.6686  140.1082  156.5382 H   0  0  0  0  0  0  0  0  0  0  0  0
  151.8517  140.3133  154.8049 H   0  0  0  0  0  0  0  0  0  0  0  0
  149.3688  140.9420  156.4786 H   0  0  0  0  0  0  0  0  0  0  0  0
  150.4489  142.1340  155.7966 H   0  0  0  0  0  0  0  0  0  0  0  0
  147.3273  141.7742  156.1781 H   0  0  0  0  0  0  0  0  0  0  0  0
  146.2664  142.5011  154.9975 H   0  0  0  0  0  0  0  0  0  0  0  0
  145.6857  140.0854  155.4062 H   0  0  0  0  0  0  0  0  0  0  0  0
  146.0977  140.3949  153.7265 H   0  0  0  0  0  0  0  0  0  0  0  0
  146.7729  135.4045  156.5256 H   0  0  0  0  0  0  0  0  0  0  0  0
  145.3645  137.3971  150.5635 H   0  0  0  0  0  0  0  0  0  0  0  0
  143.8446  135.1624  151.6277 H   0  0  0  0  0  0  0  0  0  0  0  0
  145.9597  133.4392  153.0265 H   0  0  0  0  0  0  0  0  0  0  0  0
  144.1746  133.3628  153.2130 H   0  0  0  0  0  0  0  0  0  0  0  0
  146.7125  131.6929  151.7260 H   0  0  0  0  0  0  0  0  0  0  0  0
  145.3778  130.6637  151.2775 H   0  0  0  0  0  0  0  0  0  0  0  0
  147.3322  131.3737  149.7878 H   0  0  0  0  0  0  0  0  0  0  0  0
  143.1342  131.5520  151.3529 H   0  0  0  0  0  0  0  0  0  0  0  0
  142.7867  133.1882  150.8690 H   0  0  0  0  0  0  0  0  0  0  0  0
  144.2304  132.3259  148.9522 H   0  0  0  0  0  0  0  0  0  0  0  0
  144.9609  134.3958  149.6134 H   0  0  0  0  0  0  0  0  0  0  0  0
  146.5152  134.1676  150.4877 H   0  0  0  0  0  0  0  0  0  0  0  0
  150.6248  138.9292  153.2974 H   0  0  0  0  0  0  0  0  0  0  0  0
  149.5302  137.7000  153.8567 H   0  0  0  0  0  0  0  0  0  0  0  0
  1  2  1  0  0  0  0
  1 32  1  0  0  0  0
  1 33  1  0  0  0  0
  1 34  1  0  0  0  0
  2  3  1  0  0  0  0
  2 35  1  0  0  0  0
  2 36  1  0  0  0  0
  3 29  1  0  0  0  0
  3  4  1  0  0  0  0
  4  5  1  0  0  0  0
  4 37  1  0  0  0  0
  4 38  1  0  0  0  0
  5  6  1  0  0  0  0
  5 39  1  0  0  0  0
  5 40  1  0  0  0  0
  6 30  1  0  0  0  0
  6 28  1  0  0  0  0
  6  7  1  0  0  0  0
  7  8  1  0  0  0  0
  8  9  1  0  0  0  0
  8 41  1  0  0  0  0
  8 42  1  0  0  0  0
  9 10  1  0  0  0  0
  9 43  1  0  0  0  0
  9 44  1  0  0  0  0
 10 11  1  0  0  0  0
 10 28  1  0  0  0  0
 11 16  1  0  0  0  0
 11 12  2  0  0  0  0
 12 13  1  0  0  0  0
 13 14  2  0  0  0  0
 13 45  1  0  0  0  0
 14 15  1  0  0  0  0
 15 19  1  0  0  0  0
 15 16  2  0  0  0  0
 16 17  1  0  0  0  0
 17 18  2  0  0  0  0
 18 19  1  0  0  0  0
 18 46  1  0  0  0  0
 19 20  1  0  0  0  0
 20 27  1  0  0  0  0
 20 21  1  0  0  0  0
 20 47  1  0  0  0  0
 21 22  1  0  0  0  0
 21 48  1  0  0  0  0
 21 49  1  0  0  0  0
 22 23  1  0  0  0  0
 22 25  1  0  0  0  0
 22 27  1  0  0  0  0
 23 24  1  0  0  0  0
 23 50  1  0  0  0  0
 23 51  1  0  0  0  0
 24 52  1  0  0  0  0
 25 26  1  0  0  0  0
 25 53  1  0  0  0  0
 25 54  1  0  0  0  0
 26 55  1  0  0  0  0
 27 56  1  0  0  0  0
 27 57  1  0  0  0  0
 28 31  1  0  0  0  0
 28 29  1  0  0  0  0
 29 58  1  0  0  0  0
 29 59  1  0  0  0  0
M  END
> <s_m_source_file>
AV-unprocessed.smi

> <i_m_source_file_index>
16

> <i_lp_mmshare_version>
43012

> <i_f3d_flags>
0

> <s_epik_input>
W0NIM11bQ0gyXU4oW0NIMl1bQ0gyXTEpW0NIMl1bQ0BASF0oW0NAQEhdMTIpTihbQ0gyXVtDSDJdTzIpYyhuW2NIXW4zKWMoYzM0KW5bY0hdbjRbQ0hdKFtDSDJdNSlbQ0gyXUM1KFtDSDJdW09IXSlbQ0gyXVtPSF0=

> <s_epik_cmdline>
J2VwaWtfcHl0aG9uJywgJy1waCcsICc3LjAnLCAnLXRuJywgJzgnLCAnLW1hJywgJzIwMCcsICctbWV0YWxfYmluZGluZycsICctaW1hZScsICc8aW5maWxlLm1hZT4nLCAnLW9tYWUnLCAnPG91dGZpbGUubWFlPic=

> <r_lp_tautomer_probability>
1

> <r_epik_Ionization_Penalty>
2.27341

> <r_epik_Ionization_Penalty_Charging>
0

> <r_epik_Ionization_Penalty_Neutral>
2.27341

> <r_epik_State_Penalty>
2.41121

> <r_epik_Charging_Adjusted_Penalty>
2.41121

> <i_epik_Tot_Q>
0

> <i_epik_Tot_abs_Q>
0

> <r_epik_Metal_State_Penalty>
2.40177

> <b_epik_Metal_Only>
0

> <s_lp_Force_Field>
OPLS_2005

> <r_lp_Energy>
60.9337

> <b_lp_Chiralities_Consistent>
1

> <s_lp_Variant>
AV-unprocessed.smi:16-12

> <Gold.Version>
5.8.1

> <Gold.Id.Protein>
6NUR|6NUR_protein|mol2

> <Gold.PLP.Fitness>
48.4148

> <Gold.PLP.PLP>
-40.4127

> <Gold.PLP.part.hbond>
-3.3556

> <Gold.PLP.part.metal>
0.0000

> <Gold.PLP.part.buried>
-2.0624

> <Gold.PLP.part.nonpolar>
-36.1285

> <Gold.PLP.part.repulsive>
1.3037

> <Gold.PLP.ligand.clash>
0.0000

> <Gold.PLP.ligand.torsion>
0.8368

> <Gold.PLP.Chemscore.Hbond>
2.0000

> <Gold.PLP.Chemscore.CHOScore>
1.0000

> <Gold.PLP.Chemscore.Metal>
0.0000

> <Gold.Chemscore.Hbonds>
donor molecule, donor type, donor heavy atom, donor atom, acceptor molecule, acceptor atom, score
      L1  H    24    52       P1 10747  1.00
      P1  H 10785 10796       L1    26  1.00
      L1  C    18    46       P1 10171  1.00

> <Gold.PLP.Chemscore.Internal.Correction>
0.6757

> <Gold.Rescore>
     Score         DG    S(hbond)    S(metal)    S(lipo)     H(rot)  DE(clash)    DE(int)     intcor
     11.43     -14.57       1.79        0.00      98.39       3.28       1.34       1.80       ----

> <Gold.Chemscore.Fitness>
11.4342

> <Gold.Chemscore.DG>
-14.5715

> <Gold.Chemscore.ZeroCoef>
-5.4800

> <Gold.Chemscore.Hbond>
1.7874

> <Gold.Chemscore.Metal>
0.0000

> <Gold.Chemscore.Lipo>
98.3948

> <Gold.Chemscore.Internal_Hbond>
0.0000

> <Gold.Chemscore.DEClash>
1.3359

> <Gold.Chemscore.DEInternal>
1.8013

> <Gold.Chemscore.Rot>
3.2776

> <Gold.Chemscore.Internal.Correction>
   9.000000E+99

> <Gold.Chemscore.Hbonds>
donor molecule, donor type, donor heavy atom, donor atom, acceptor molecule, acceptor atom, score
      L1  H    24    52       P1 10747  1.00
      P1  H 10785 10796       L1    26  0.65

> <Gold.Chemscore.Hbond.Weighted>
-5.9700

> <Gold.Chemscore.Metal.Weighted>
-0.0000

> <Gold.Chemscore.Lipo.Weighted>
-11.5122

> <Gold.Chemscore.Internal_Hbond.Weighted>
0.0000

> <Gold.Chemscore.DEClash.Weighted>
1.3359

> <Gold.Chemscore.DEInternal.Weighted>
1.8013

> <Gold.Chemscore.Rot.Weighted>
8.3907

> <Gold.Chemscore.Internal.Correction.Weighted>
   9.000000E+99

> <Gold.Protein.RotatedTorsions>
[ 6907 6896 6895 6894 ] final -159.69 input  -60.11 | X-H torsion
[ 7974 7965 7964 7962 ] final  127.34 input  175.53 | X-H torsion
[ 8008 7997 7996 7995 ] final -135.45 input   59.86 | X-H torsion
[ 10167 10162 10161 10158 ] final  123.97 input  -65.29 | X-H torsion
[ 10718 10713 10712 10709 ] final  -35.14 input   66.30 | X-H torsion
[ 10763 10752 10751 10750 ] final   32.74 input  -60.55 | X-H torsion
[ 11005 11000 10999 10996 ] final   31.72 input  -57.11 | X-H torsion

> <Gold.Protein.ActiveResidues>
 VAL166  LYS551  ARG553  GLY616  TRP617  ASP618  TYR619  PRO620  LYS621  CYS622 
 ASP623  PHE694  ASN695  SER759  ASP760  ASP761  ALA762  ILE779  LEU786  VAL792 
 PHE793  MET794  SER795  GLU796  ALA797  LYS798  CYS799  TRP800  GLU811  SER814 

> <Gold.Protein.RotatedAtoms>
  151.3374  133.3976  159.2667 H   0  0  0  0  0  0  0  0  0  0  0  0  # atno 6907 bound_to 6896
  150.9906  134.9242  159.7907 H   0  0  0  0  0  0  0  0  0  0  0  0  # atno 6908 bound_to 6896
  152.5246  134.3339  159.9245 H   0  0  0  0  0  0  0  0  0  0  0  0  # atno 6909 bound_to 6896
  145.0516  139.3878  143.5051 H   0  0  0  0  0  0  0  0  0  0  0  0  # atno 7974 bound_to 7965
  155.3789  140.0493  157.3044 H   0  0  0  0  0  0  0  0  0  0  0  0  # atno 8008 bound_to 7997
  154.5092  140.2185  155.9152 H   0  0  0  0  0  0  0  0  0  0  0  0  # atno 8009 bound_to 7997
  156.1562  140.3126  155.8736 H   0  0  0  0  0  0  0  0  0  0  0  0  # atno 8010 bound_to 7997
  139.5768  144.6967  151.3631 H   0  0  0  0  0  0  0  0  0  0  0  0  # atno 10167 bound_to 10162
  156.3421  130.4295  149.7778 H   0  0  0  0  0  0  0  0  0  0  0  0  # atno 10718 bound_to 10713
  153.0247  135.6405  154.1402 H   0  0  0  0  0  0  0  0  0  0  0  0  # atno 10763 bound_to 10752
  154.1132  135.2851  155.3227 H   0  0  0  0  0  0  0  0  0  0  0  0  # atno 10764 bound_to 10752
  154.6316  135.5490  153.7750 H   0  0  0  0  0  0  0  0  0  0  0  0  # atno 10765 bound_to 10752
  140.2810  134.2973  155.7801 H   0  0  0  0  0  0  0  0  0  0  0  0  # atno 11005 bound_to 11000
  146.3518  140.0169  142.8662 LP  0  0  0  0  0  0  0  0  0  0  0  0  # atno 17320 bound_to 7965
  145.1520  140.9628  143.4427 LP  0  0  0  0  0  0  0  0  0  0  0  0  # atno 17321 bound_to 7965
  140.7050  143.7536  150.7467 LP  0  0  0  0  0  0  0  0  0  0  0  0  # atno 17342 bound_to 10162
  140.1058  143.4745  152.2399 LP  0  0  0  0  0  0  0  0  0  0  0  0  # atno 17343 bound_to 10162
  156.5010  130.8129  151.3132 LP  0  0  0  0  0  0  0  0  0  0  0  0  # atno 17370 bound_to 10713
  157.7448  130.9944  150.2708 LP  0  0  0  0  0  0  0  0  0  0  0  0  # atno 17371 bound_to 10713
  141.2162  133.7525  156.9480 LP  0  0  0  0  0  0  0  0  0  0  0  0  # atno 17394 bound_to 11000
  140.1283  134.9372  157.2302 LP  0  0  0  0  0  0  0  0  0  0  0  0  # atno 17395 bound_to 11000

$$$$
