AV-unprocessed.smi:1745|AV-procd|sdf|7030|dock1
  -GOLD-   22720 8243D 1   1.00000     0.00000
 Structure written by MMmdl.
 47 49  0  0  0  0  0  0  0  0  1 V2000
  144.5619  137.1788  153.0406 C   0  0  0  0  0  0  0  0  0  0  0  0
  145.5720  137.2749  151.8881 C   0  0  1  0  0  0  0  0  0  0  0  0
  146.8953  137.5630  152.4393 N   0  0  0  0  0  0  0  0  0  0  0  0
  147.1953  138.5507  153.2953 C   0  0  0  0  0  0  0  0  0  0  0  0
  146.3694  139.3542  153.7271 O   0  0  0  0  0  0  0  0  0  0  0  0
  148.5002  138.5273  153.6167 N   0  0  0  0  0  0  0  0  0  0  0  0
  149.2113  139.3737  154.5101 C   0  0  0  0  0  0  0  0  0  0  0  0
  150.6063  139.2006  154.6092 C   0  0  0  0  0  0  0  0  0  0  0  0
  151.3426  140.0278  155.4774 C   0  0  0  0  0  0  0  0  0  0  0  0
  150.6546  141.0154  156.2184 C   0  0  0  0  0  0  0  0  0  0  0  0
  151.3252  141.8672  157.1064 N   0  0  0  0  0  0  0  0  0  0  0  0
  151.0408  143.2783  156.8799 C   0  0  0  0  0  0  0  0  0  0  0  0
  151.9060  144.1458  157.8106 C   0  0  0  0  0  0  0  0  0  0  0  0
  151.6897  143.7565  159.1643 O   0  0  0  0  0  0  0  0  0  0  0  0
  152.0452  142.3956  159.3923 C   0  0  0  0  0  0  0  0  0  0  0  0
  151.1824  141.4821  158.5048 C   0  0  0  0  0  0  0  0  0  0  0  0
  149.3205  141.1996  156.1181 N   0  0  0  0  0  0  0  0  0  0  0  0
  148.6195  140.4022  155.2836 C   0  0  0  0  0  0  0  0  0  0  0  0
  145.6158  135.9802  151.0532 C   0  0  2  0  0  0  0  0  0  0  0  0
  144.2477  135.4028  150.6868 C   0  0  0  0  0  0  0  0  0  0  0  0
  144.5334  133.9264  150.4629 C   0  0  0  0  0  0  0  0  0  0  0  0
  145.9026  133.7074  151.1132 C   0  0  0  0  0  0  0  0  0  0  0  0
  146.1906  134.9184  151.7984 O   0  0  0  0  0  0  0  0  0  0  0  0
  143.5550  136.9932  152.6660 H   0  0  0  0  0  0  0  0  0  0  0  0
  144.5314  138.1058  153.6139 H   0  0  0  0  0  0  0  0  0  0  0  0
  144.8157  136.3700  153.7265 H   0  0  0  0  0  0  0  0  0  0  0  0
  145.2509  138.0898  151.2370 H   0  0  0  0  0  0  0  0  0  0  0  0
  147.6450  136.9561  152.1419 H   0  0  0  0  0  0  0  0  0  0  0  0
  149.0361  137.7665  153.2259 H   0  0  0  0  0  0  0  0  0  0  0  0
  151.1092  138.4386  154.0318 H   0  0  0  0  0  0  0  0  0  0  0  0
  152.4114  139.9016  155.5706 H   0  0  0  0  0  0  0  0  0  0  0  0
  151.2403  143.5331  155.8381 H   0  0  0  0  0  0  0  0  0  0  0  0
  149.9847  143.4784  157.0656 H   0  0  0  0  0  0  0  0  0  0  0  0
  152.9636  144.0518  157.5589 H   0  0  0  0  0  0  0  0  0  0  0  0
  151.6436  145.1976  157.6968 H   0  0  0  0  0  0  0  0  0  0  0  0
  153.1070  142.2469  159.1884 H   0  0  0  0  0  0  0  0  0  0  0  0
  151.8860  142.1574  160.4441 H   0  0  0  0  0  0  0  0  0  0  0  0
  150.1369  141.5570  158.8062 H   0  0  0  0  0  0  0  0  0  0  0  0
  151.4829  140.4416  158.6333 H   0  0  0  0  0  0  0  0  0  0  0  0
  147.5646  140.6218  155.2361 H   0  0  0  0  0  0  0  0  0  0  0  0
  146.2052  136.1328  150.1466 H   0  0  0  0  0  0  0  0  0  0  0  0
  143.5555  135.5182  151.5221 H   0  0  0  0  0  0  0  0  0  0  0  0
  143.8055  135.8860  149.8149 H   0  0  0  0  0  0  0  0  0  0  0  0
  143.7625  133.3051  150.9200 H   0  0  0  0  0  0  0  0  0  0  0  0
  144.5724  133.6855  149.4000 H   0  0  0  0  0  0  0  0  0  0  0  0
  145.9100  132.8601  151.7993 H   0  0  0  0  0  0  0  0  0  0  0  0
  146.6651  133.5357  150.3520 H   0  0  0  0  0  0  0  0  0  0  0  0
  1  2  1  0  0  0  0
  1 24  1  0  0  0  0
  1 25  1  0  0  0  0
  1 26  1  0  0  0  0
  2  3  1  0  0  0  0
  2 19  1  0  0  0  0
  2 27  1  0  0  0  0
  3  4  1  0  0  0  0
  3 28  1  0  0  0  0
  4  5  2  0  0  0  0
  4  6  1  0  0  0  0
  6  7  1  0  0  0  0
  6 29  1  0  0  0  0
  7 18  1  0  0  0  0
  7  8  2  0  0  0  0
  8  9  1  0  0  0  0
  8 30  1  0  0  0  0
  9 10  2  0  0  0  0
  9 31  1  0  0  0  0
 10 11  1  0  0  0  0
 10 17  1  0  0  0  0
 11 16  1  0  0  0  0
 11 12  1  0  0  0  0
 12 13  1  0  0  0  0
 12 32  1  0  0  0  0
 12 33  1  0  0  0  0
 13 14  1  0  0  0  0
 13 34  1  0  0  0  0
 13 35  1  0  0  0  0
 14 15  1  0  0  0  0
 15 16  1  0  0  0  0
 15 36  1  0  0  0  0
 15 37  1  0  0  0  0
 16 38  1  0  0  0  0
 16 39  1  0  0  0  0
 17 18  2  0  0  0  0
 18 40  1  0  0  0  0
 19 23  1  0  0  0  0
 19 20  1  0  0  0  0
 19 41  1  0  0  0  0
 20 21  1  0  0  0  0
 20 42  1  0  0  0  0
 20 43  1  0  0  0  0
 21 22  1  0  0  0  0
 21 44  1  0  0  0  0
 21 45  1  0  0  0  0
 22 23  1  0  0  0  0
 22 46  1  0  0  0  0
 22 47  1  0  0  0  0
M  END
> <s_m_source_file>
AV-unprocessed.smi

> <i_m_source_file_index>
1745

> <i_lp_mmshare_version>
43012

> <i_f3d_flags>
0

> <s_epik_input>
TzFbQ0gyXVtDSDJdW0NIMl1bQ0BIXTFbQ0BIXShbQ0gzXSlbTkhdQyg9TylbTkhdYzJbY0hdW2NIXWMobltjSF0yKU4zW0NIMl1bQ0gyXU9bQ0gyXVtDSDJdMw==

> <s_epik_cmdline>
J2VwaWtfcHl0aG9uJywgJy1waCcsICc3LjAnLCAnLXRuJywgJzgnLCAnLW1hJywgJzIwMCcsICctbWV0YWxfYmluZGluZycsICctaW1hZScsICc8aW5maWxlLm1hZT4nLCAnLW9tYWUnLCAnPG91dGZpbGUubWFlPic=

> <r_lp_tautomer_probability>
1

> <r_epik_Ionization_Penalty>
0.00206005

> <r_epik_Ionization_Penalty_Charging>
0

> <r_epik_Ionization_Penalty_Neutral>
0.00206005

> <r_epik_State_Penalty>
0.00138459

> <r_epik_Charging_Adjusted_Penalty>
0.00138459

> <i_epik_Tot_Q>
0

> <i_epik_Tot_abs_Q>
0

> <r_epik_Metal_State_Penalty>
-0

> <b_epik_Metal_Only>
0

> <s_lp_Force_Field>
OPLS_2005

> <r_lp_Energy>
36.4473

> <b_lp_Chiralities_Consistent>
1

> <s_lp_Variant>
AV-unprocessed.smi:1745-2

> <Gold.Version>
5.8.1

> <Gold.Id.Protein>
6NUR|6NUR_protein|mol2

> <Gold.PLP.Fitness>
43.4432

> <Gold.PLP.PLP>
-38.6235

> <Gold.PLP.part.hbond>
-2.7941

> <Gold.PLP.part.metal>
0.0000

> <Gold.PLP.part.buried>
-1.3486

> <Gold.PLP.part.nonpolar>
-37.2525

> <Gold.PLP.part.repulsive>
1.2350

> <Gold.PLP.ligand.clash>
0.0000

> <Gold.PLP.ligand.torsion>
0.5025

> <Gold.PLP.Chemscore.Hbond>
1.8873

> <Gold.PLP.Chemscore.CHOScore>
0.0000

> <Gold.PLP.Chemscore.Metal>
0.0000

> <Gold.Chemscore.Hbonds>
donor molecule, donor type, donor heavy atom, donor atom, acceptor molecule, acceptor atom, score
      L1  H     3    28       P1  7948  0.94
      L1  H     6    29       P1  7948  0.87

> <Gold.PLP.Chemscore.Internal.Correction>
0.1630

> <Gold.Rescore>
     Score         DG    S(hbond)    S(metal)    S(lipo)     H(rot)  DE(clash)    DE(int)     intcor
     16.60     -19.58       1.84        0.00      98.61       1.40       0.25       2.73       ----

> <Gold.Chemscore.Fitness>
16.5979

> <Gold.Chemscore.DG>
-19.5773

> <Gold.Chemscore.ZeroCoef>
-5.4800

> <Gold.Chemscore.Hbond>
1.8357

> <Gold.Chemscore.Metal>
0.0000

> <Gold.Chemscore.Lipo>
98.6099

> <Gold.Chemscore.Internal_Hbond>
0.0000

> <Gold.Chemscore.DEClash>
0.2470

> <Gold.Chemscore.DEInternal>
2.7324

> <Gold.Chemscore.Rot>
1.3950

> <Gold.Chemscore.Internal.Correction>
   9.000000E+99

> <Gold.Chemscore.Hbonds>
donor molecule, donor type, donor heavy atom, donor atom, acceptor molecule, acceptor atom, score
      L1  H     3    28       P1  7948  0.90
      L1  H     6    29       P1  7948  0.81

> <Gold.Chemscore.Hbond.Weighted>
-6.1312

> <Gold.Chemscore.Metal.Weighted>
-0.0000

> <Gold.Chemscore.Lipo.Weighted>
-11.5374

> <Gold.Chemscore.Internal_Hbond.Weighted>
0.0000

> <Gold.Chemscore.DEClash.Weighted>
0.2470

> <Gold.Chemscore.DEInternal.Weighted>
2.7324

> <Gold.Chemscore.Rot.Weighted>
3.5712

> <Gold.Chemscore.Internal.Correction.Weighted>
   9.000000E+99

> <Gold.Protein.RotatedTorsions>
[ 6907 6896 6895 6894 ] final    4.57 input  -60.11 | X-H torsion
[ 7974 7965 7964 7962 ] final   54.56 input  175.53 | X-H torsion
[ 8008 7997 7996 7995 ] final -156.98 input   59.86 | X-H torsion
[ 10167 10162 10161 10158 ] final  166.98 input  -65.29 | X-H torsion
[ 10718 10713 10712 10709 ] final  157.21 input   66.30 | X-H torsion
[ 10763 10752 10751 10750 ] final   12.20 input  -60.55 | X-H torsion
[ 11005 11000 10999 10996 ] final  164.36 input  -57.11 | X-H torsion

> <Gold.Protein.ActiveResidues>
 VAL166  LYS551  ARG553  GLY616  TRP617  ASP618  TYR619  PRO620  LYS621  CYS622 
 ASP623  PHE694  ASN695  SER759  ASP760  ASP761  ALA762  ILE779  LEU786  VAL792 
 PHE793  MET794  SER795  GLU796  ALA797  LYS798  CYS799  TRP800  GLU811  SER814 

> <Gold.Protein.RotatedAtoms>
  151.6435  135.1010  160.0145 H   0  0  0  0  0  0  0  0  0  0  0  0  # atno 6907 bound_to 6896
  152.4041  133.6858  159.6349 H   0  0  0  0  0  0  0  0  0  0  0  0  # atno 6908 bound_to 6896
  150.7937  133.8657  159.3285 H   0  0  0  0  0  0  0  0  0  0  0  0  # atno 6909 bound_to 6896
  145.9596  139.4046  143.0256 H   0  0  0  0  0  0  0  0  0  0  0  0  # atno 7974 bound_to 7965
  155.7255  140.0795  157.2312 H   0  0  0  0  0  0  0  0  0  0  0  0  # atno 8008 bound_to 7997
  154.4039  140.1605  156.2504 H   0  0  0  0  0  0  0  0  0  0  0  0  # atno 8009 bound_to 7997
  155.9157  140.3401  155.6136 H   0  0  0  0  0  0  0  0  0  0  0  0  # atno 8010 bound_to 7997
  139.4936  144.3970  151.9453 H   0  0  0  0  0  0  0  0  0  0  0  0  # atno 10167 bound_to 10162
  157.1945  131.0662  151.2060 H   0  0  0  0  0  0  0  0  0  0  0  0  # atno 10718 bound_to 10713
  153.1847  135.6833  153.8431 H   0  0  0  0  0  0  0  0  0  0  0  0  # atno 10763 bound_to 10752
  153.7750  135.3190  155.3358 H   0  0  0  0  0  0  0  0  0  0  0  0  # atno 10764 bound_to 10752
  154.8081  135.4735  154.0542 H   0  0  0  0  0  0  0  0  0  0  0  0  # atno 10765 bound_to 10752
  140.2452  134.8020  157.3449 H   0  0  0  0  0  0  0  0  0  0  0  0  # atno 11005 bound_to 11000
  145.8059  140.9749  143.0974 LP  0  0  0  0  0  0  0  0  0  0  0  0  # atno 17320 bound_to 7965
  144.6812  139.9860  143.7484 LP  0  0  0  0  0  0  0  0  0  0  0  0  # atno 17321 bound_to 7965
  140.3408  144.3206  150.5967 LP  0  0  0  0  0  0  0  0  0  0  0  0  # atno 17342 bound_to 10162
  140.5567  143.2198  151.7835 LP  0  0  0  0  0  0  0  0  0  0  0  0  # atno 17343 bound_to 10162
  157.3827  130.7240  149.6642 LP  0  0  0  0  0  0  0  0  0  0  0  0  # atno 17370 bound_to 10713
  155.9707  130.4168  150.4247 LP  0  0  0  0  0  0  0  0  0  0  0  0  # atno 17371 bound_to 10713
  140.1613  134.4725  155.7892 LP  0  0  0  0  0  0  0  0  0  0  0  0  # atno 17394 bound_to 11000
  141.2207  133.6902  156.7549 LP  0  0  0  0  0  0  0  0  0  0  0  0  # atno 17395 bound_to 11000

$$$$
