AV-unprocessed.smi:2061|AV-procd|sdf|8390|dock4
  -GOLD-   2272011 73D 1   1.00000     0.00000
 Structure written by MMmdl.
 45 46  0  0  0  0  0  0  0  0  3 V2000
  152.3033  144.4318  160.3261 C   0  0  0  0  0  0  0  0  0  0  0  0
  152.0337  143.2460  159.4651 C   0  0  0  0  0  0  0  0  0  0  0  0
  151.6851  143.1109  158.1509 C   0  0  0  0  0  0  0  0  0  0  0  0
  151.5887  141.7033  157.9868 C   0  0  0  0  0  0  0  0  0  0  0  0
  151.2439  141.1438  156.7283 N   0  0  0  0  0  0  0  0  0  0  0  0
  151.7495  140.0532  156.1237 C   0  0  0  0  0  0  0  0  0  0  0  0
  152.6151  139.3725  156.6865 O   0  0  0  0  0  0  0  0  0  0  0  0
  151.1958  139.8416  154.8985 N   0  5  0  0  0  0  0  0  0  0  0  0
  150.7438  138.5419  154.4022 C   0  0  0  0  0  0  0  0  0  0  0  0
  149.2237  138.3616  154.6559 C   0  0  2  0  0  0  0  0  0  0  0  0
  148.7266  138.9518  155.9997 C   0  0  0  0  0  0  0  0  0  0  0  0
  148.8303  136.9307  154.4682 N   0  3  1  0  0  0  0  0  0  0  0  0
  149.5105  135.9313  155.3377 C   0  0  0  0  0  0  0  0  0  0  0  0
  149.1558  134.4995  154.8962 C   0  0  2  0  0  0  0  0  0  0  0  0
  149.8263  134.0810  153.5756 C   0  0  0  0  0  0  0  0  0  0  0  0
  147.7371  134.3372  154.8625 O   0  0  0  0  0  0  0  0  0  0  0  0
  147.0435  135.2699  154.0361 C   0  0  1  0  0  0  0  0  0  0  0  0
  145.5453  134.9604  154.1301 C   0  0  0  0  0  0  0  0  0  0  0  0
  147.3651  136.7061  154.4877 C   0  0  0  0  0  0  0  0  0  0  0  0
  151.8568  141.0397  159.1018 N   0  0  0  0  0  0  0  0  0  0  0  0
  152.1434  142.0247  160.0544 O   0  0  0  0  0  0  0  0  0  0  0  0
  152.0219  145.3541  159.8176 H   0  0  0  0  0  0  0  0  0  0  0  0
  153.3623  144.4932  160.5775 H   0  0  0  0  0  0  0  0  0  0  0  0
  151.7363  144.3722  161.2553 H   0  0  0  0  0  0  0  0  0  0  0  0
  151.5248  143.8938  157.4247 H   0  0  0  0  0  0  0  0  0  0  0  0
  150.5278  141.6355  156.2149 H   0  0  0  0  0  0  0  0  0  0  0  0
  150.9236  138.4377  153.3307 H   0  0  0  0  0  0  0  0  0  0  0  0
  151.2864  137.7198  154.8697 H   0  0  0  0  0  0  0  0  0  0  0  0
  148.7270  138.9254  153.8643 H   0  0  0  0  0  0  0  0  0  0  0  0
  148.8878  140.0300  156.0535 H   0  0  0  0  0  0  0  0  0  0  0  0
  149.2210  138.5078  156.8654 H   0  0  0  0  0  0  0  0  0  0  0  0
  147.6545  138.7940  156.1190 H   0  0  0  0  0  0  0  0  0  0  0  0
  150.5925  136.0656  155.3176 H   0  0  0  0  0  0  0  0  0  0  0  0
  149.1942  136.0702  156.3724 H   0  0  0  0  0  0  0  0  0  0  0  0
  149.5188  133.8159  155.6642 H   0  0  0  0  0  0  0  0  0  0  0  0
  150.9120  134.0928  153.6742 H   0  0  0  0  0  0  0  0  0  0  0  0
  149.5714  134.7463  152.7509 H   0  0  0  0  0  0  0  0  0  0  0  0
  149.5324  133.0698  153.2937 H   0  0  0  0  0  0  0  0  0  0  0  0
  147.3499  135.1374  152.9983 H   0  0  0  0  0  0  0  0  0  0  0  0
  144.9636  135.6411  153.5080 H   0  0  0  0  0  0  0  0  0  0  0  0
  145.1859  135.0538  155.1553 H   0  0  0  0  0  0  0  0  0  0  0  0
  145.3358  133.9444  153.7950 H   0  0  0  0  0  0  0  0  0  0  0  0
  146.9784  136.8900  155.4912 H   0  0  0  0  0  0  0  0  0  0  0  0
  146.8687  137.4096  153.8178 H   0  0  0  0  0  0  0  0  0  0  0  0
  149.1158  136.7173  153.5229 H   0  0  0  0  0  0  0  0  0  0  0  0
  1  2  1  0  0  0  0
  1 22  1  0  0  0  0
  1 23  1  0  0  0  0
  1 24  1  0  0  0  0
  2 21  1  0  0  0  0
  2  3  2  0  0  0  0
  3  4  1  0  0  0  0
  3 25  1  0  0  0  0
  4  5  1  0  0  0  0
  4 20  2  0  0  0  0
  5  6  1  0  0  0  0
  5 26  1  0  0  0  0
  6  7  2  0  0  0  0
  6  8  1  0  0  0  0
  8  9  1  0  0  0  0
  9 10  1  0  0  0  0
  9 27  1  0  0  0  0
  9 28  1  0  0  0  0
 10 11  1  0  0  0  0
 10 12  1  0  0  0  0
 10 29  1  0  0  0  0
 11 30  1  0  0  0  0
 11 31  1  0  0  0  0
 11 32  1  0  0  0  0
 12 19  1  0  0  0  0
 12 13  1  0  0  0  0
 12 45  1  0  0  0  0
 13 14  1  0  0  0  0
 13 33  1  0  0  0  0
 13 34  1  0  0  0  0
 14 15  1  0  0  0  0
 14 16  1  0  0  0  0
 14 35  1  0  0  0  0
 15 36  1  0  0  0  0
 15 37  1  0  0  0  0
 15 38  1  0  0  0  0
 16 17  1  0  0  0  0
 17 18  1  0  0  0  0
 17 19  1  0  0  0  0
 17 39  1  0  0  0  0
 18 40  1  0  0  0  0
 18 41  1  0  0  0  0
 18 42  1  0  0  0  0
 19 43  1  0  0  0  0
 19 44  1  0  0  0  0
 20 21  1  0  0  0  0
M  CHG  1   8  -1
M  CHG  1  12   1
M  END
> <s_m_source_file>
AV-unprocessed.smi

> <i_m_source_file_index>
2061

> <i_lp_mmshare_version>
43012

> <i_f3d_flags>
0

> <s_epik_input>
W0NIM11jMVtjSF1jKG5vMSlbTkhdQyg9TylbTkhdW0NIMl1bQ0BIXShbQ0gzXSlOMltDSDJdW0NAQEhdKFtDSDNdKU9bQ0BASF0oW0NIM10pW0NIMl0y

> <s_epik_cmdline>
J2VwaWtfcHl0aG9uJywgJy1waCcsICc3LjAnLCAnLXRuJywgJzgnLCAnLW1hJywgJzIwMCcsICctbWV0YWxfYmluZGluZycsICctaW1hZScsICc8aW5maWxlLm1hZT4nLCAnLW9tYWUnLCAnPG91dGZpbGUubWFlPic=

> <r_epik_Ionization_Penalty>
6.8073

> <r_epik_Ionization_Penalty_Charging>
6.80729

> <r_epik_Ionization_Penalty_Neutral>
5.65391e-06

> <r_epik_State_Penalty>
7.47323

> <r_epik_Charging_Adjusted_Penalty>
14.2805

> <i_epik_Tot_Q>
0

> <i_epik_Tot_abs_Q>
2

> <r_epik_Metal_State_Penalty>
3.40035

> <b_epik_Metal_Only>
1

> <s_lp_Force_Field>
OPLS_2005

> <r_lp_Energy>
19.801

> <b_lp_Chiralities_Consistent>
1

> <s_lp_Variant>
AV-unprocessed.smi:2061-31

> <Gold.Version>
5.8.1

> <Gold.Id.Protein>
6NUR|6NUR_protein|mol2

> <Gold.PLP.Fitness>
42.0602

> <Gold.PLP.PLP>
-32.0375

> <Gold.PLP.part.hbond>
-3.0000

> <Gold.PLP.part.metal>
0.0000

> <Gold.PLP.part.buried>
-6.4236

> <Gold.PLP.part.nonpolar>
-22.9561

> <Gold.PLP.part.repulsive>
0.2376

> <Gold.PLP.ligand.clash>
0.0000

> <Gold.PLP.ligand.torsion>
1.0675

> <Gold.PLP.Chemscore.Hbond>
4.0000

> <Gold.PLP.Chemscore.CHOScore>
0.0000

> <Gold.PLP.Chemscore.Metal>
0.0000

> <Gold.Chemscore.Hbonds>
donor molecule, donor type, donor heavy atom, donor atom, acceptor molecule, acceptor atom, score
      L1  H    12    45       P1  7948  2.00
      P1  H  7989  7998       L1     8  1.00
      P1  H  7997  8010       L1     7  1.00

> <Gold.PLP.Chemscore.Internal.Correction>
0.1578

> <Gold.Rescore>
     Score         DG    S(hbond)    S(metal)    S(lipo)     H(rot)  DE(clash)    DE(int)     intcor
     17.07     -18.50       2.70        0.00      68.29       1.56       0.10       1.32       ----

> <Gold.Chemscore.Fitness>
17.0721

> <Gold.Chemscore.DG>
-18.4965

> <Gold.Chemscore.ZeroCoef>
-5.4800

> <Gold.Chemscore.Hbond>
2.6967

> <Gold.Chemscore.Metal>
0.0000

> <Gold.Chemscore.Lipo>
68.2926

> <Gold.Chemscore.Internal_Hbond>
0.0000

> <Gold.Chemscore.DEClash>
0.1007

> <Gold.Chemscore.DEInternal>
1.3237

> <Gold.Chemscore.Rot>
1.5550

> <Gold.Chemscore.Internal.Correction>
   9.000000E+99

> <Gold.Chemscore.Hbonds>
donor molecule, donor type, donor heavy atom, donor atom, acceptor molecule, acceptor atom, score
      L1  H    12    45       P1  7948  0.99
      P1  H  7989  7998       L1     8  0.69
      P1  H  7997  8010       L1     7  0.64

> <Gold.Chemscore.Hbond.Weighted>
-9.0071

> <Gold.Chemscore.Metal.Weighted>
-0.0000

> <Gold.Chemscore.Lipo.Weighted>
-7.9902

> <Gold.Chemscore.Internal_Hbond.Weighted>
0.0000

> <Gold.Chemscore.DEClash.Weighted>
0.1007

> <Gold.Chemscore.DEInternal.Weighted>
1.3237

> <Gold.Chemscore.Rot.Weighted>
3.9809

> <Gold.Chemscore.Internal.Correction.Weighted>
   9.000000E+99

> <Gold.Protein.RotatedTorsions>
[ 6907 6896 6895 6894 ] final  129.50 input  -60.11 | X-H torsion
[ 7974 7965 7964 7962 ] final  165.31 input  175.53 | X-H torsion
[ 8008 7997 7996 7995 ] final   83.39 input   59.86 | X-H torsion
[ 10167 10162 10161 10158 ] final  -47.26 input  -65.29 | X-H torsion
[ 10718 10713 10712 10709 ] final   -7.14 input   66.30 | X-H torsion
[ 10763 10752 10751 10750 ] final    0.65 input  -60.55 | X-H torsion
[ 11005 11000 10999 10996 ] final   38.56 input  -57.11 | X-H torsion

> <Gold.Protein.ActiveResidues>
 VAL166  LYS551  ARG553  GLY616  TRP617  ASP618  TYR619  PRO620  LYS621  CYS622 
 ASP623  PHE694  ASN695  SER759  ASP760  ASP761  ALA762  ILE779  LEU786  VAL792 
 PHE793  MET794  SER795  GLU796  ALA797  LYS798  CYS799  TRP800  GLU811  SER814 

> <Gold.Protein.RotatedAtoms>
  152.3618  133.6306  159.6020 H   0  0  0  0  0  0  0  0  0  0  0  0  # atno 6907 bound_to 6896
  150.7606  133.9411  159.3465 H   0  0  0  0  0  0  0  0  0  0  0  0  # atno 6908 bound_to 6896
  151.7248  135.0888  160.0341 H   0  0  0  0  0  0  0  0  0  0  0  0  # atno 6909 bound_to 6896
  144.7508  139.8452  143.6367 H   0  0  0  0  0  0  0  0  0  0  0  0  # atno 7974 bound_to 7965
  155.9233  140.3420  155.6190 H   0  0  0  0  0  0  0  0  0  0  0  0  # atno 8008 bound_to 7997
  155.7247  140.0788  157.2334 H   0  0  0  0  0  0  0  0  0  0  0  0  # atno 8009 bound_to 7997
  154.4073  140.1599  156.2428 H   0  0  0  0  0  0  0  0  0  0  0  0  # atno 8010 bound_to 7997
  140.6783  143.2793  151.3901 H   0  0  0  0  0  0  0  0  0  0  0  0  # atno 10167 bound_to 10162
  156.7216  130.5152  149.5867 H   0  0  0  0  0  0  0  0  0  0  0  0  # atno 10718 bound_to 10713
  153.3180  135.6967  153.7056 H   0  0  0  0  0  0  0  0  0  0  0  0  # atno 10763 bound_to 10752
  153.5907  135.3480  155.2910 H   0  0  0  0  0  0  0  0  0  0  0  0  # atno 10764 bound_to 10752
  154.8591  135.4317  154.2337 H   0  0  0  0  0  0  0  0  0  0  0  0  # atno 10765 bound_to 10752
  140.2114  134.3750  155.8047 H   0  0  0  0  0  0  0  0  0  0  0  0  # atno 11005 bound_to 11000
  146.1455  139.4523  143.0082 LP  0  0  0  0  0  0  0  0  0  0  0  0  # atno 17320 bound_to 7965
  145.6952  141.0152  143.1534 LP  0  0  0  0  0  0  0  0  0  0  0  0  # atno 17321 bound_to 7965
  139.6088  144.1141  152.2277 LP  0  0  0  0  0  0  0  0  0  0  0  0  # atno 17342 bound_to 10162
  140.0548  144.5903  150.7308 LP  0  0  0  0  0  0  0  0  0  0  0  0  # atno 17343 bound_to 10162
  156.1591  130.6361  151.0695 LP  0  0  0  0  0  0  0  0  0  0  0  0  # atno 17370 bound_to 10713
  157.6896  131.0814  150.7146 LP  0  0  0  0  0  0  0  0  0  0  0  0  # atno 17371 bound_to 10713
  141.2226  133.7145  156.8425 LP  0  0  0  0  0  0  0  0  0  0  0  0  # atno 17394 bound_to 11000
  140.1946  134.8941  157.3100 LP  0  0  0  0  0  0  0  0  0  0  0  0  # atno 17395 bound_to 11000

$$$$
