AV-unprocessed.smi:1727|AV-procd|sdf|6965|dock7
  -GOLD-   22720 8183D 1   1.00000     0.00000
 Structure written by MMmdl.
 49 51  0  0  0  0  0  0  0  0  1 V2000
  143.9785  135.1664  162.7098 C   0  0  0  0  0  0  0  0  0  0  0  0
  145.1302  134.2564  162.2766 C   0  0  0  0  0  0  0  0  0  0  0  0
  144.8684  133.0866  161.9966 O   0  0  0  0  0  0  0  0  0  0  0  0
  146.3859  134.7613  162.2127 N   0  0  0  0  0  0  0  0  0  0  0  0
  147.5333  133.9765  161.7420 C   0  0  0  0  0  0  0  0  0  0  0  0
  147.9741  134.5144  160.3688 C   0  0  0  0  0  0  0  0  0  0  0  0
  148.2924  136.0234  160.4330 C   0  0  0  0  0  0  0  0  0  0  0  0
  148.5287  136.5322  159.0857 N   0  0  0  0  0  0  0  0  0  0  0  0
  149.7211  136.8995  158.5960 C   0  0  0  0  0  0  0  0  0  0  0  0
  150.7696  136.8453  159.2394 O   0  0  0  0  0  0  0  0  0  0  0  0
  149.6102  137.3488  157.3350 N   0  0  0  0  0  0  0  0  0  0  0  0
  150.6387  137.8731  156.5034 C   0  0  0  0  0  0  0  0  0  0  0  0
  151.9927  137.4993  156.6845 C   0  0  0  0  0  0  0  0  0  0  0  0
  152.9670  137.9837  155.7952 C   0  0  0  0  0  0  0  0  0  0  0  0
  152.5503  138.8149  154.7424 C   0  0  0  0  0  0  0  0  0  0  0  0
  151.2642  139.1693  154.5484 N   0  0  0  0  0  0  0  0  0  0  0  0
  150.3140  138.7222  155.4065 C   0  0  0  0  0  0  0  0  0  0  0  0
  148.9857  139.1419  155.1633 N   0  0  0  0  0  0  0  0  0  0  0  0
  148.2703  138.6867  153.9755 C   0  0  0  0  0  0  0  0  0  0  0  0
  147.0746  139.6262  153.8493 C   0  0  0  0  0  0  0  0  0  0  0  0
  147.6504  140.9524  154.3352 C   0  0  0  0  0  0  0  0  0  0  0  0
  148.6463  140.5381  155.4232 C   0  0  0  0  0  0  0  0  0  0  0  0
  147.1531  136.8112  161.1200 C   0  0  0  0  0  0  0  0  0  0  0  0
  146.7523  136.1620  162.4566 C   0  0  0  0  0  0  0  0  0  0  0  0
  143.8867  136.0208  162.0387 H   0  0  0  0  0  0  0  0  0  0  0  0
  144.1327  135.5277  163.7268 H   0  0  0  0  0  0  0  0  0  0  0  0
  143.0323  134.6245  162.6895 H   0  0  0  0  0  0  0  0  0  0  0  0
  148.3505  134.0640  162.4594 H   0  0  0  0  0  0  0  0  0  0  0  0
  147.3153  132.9101  161.6698 H   0  0  0  0  0  0  0  0  0  0  0  0
  148.8455  133.9622  160.0155 H   0  0  0  0  0  0  0  0  0  0  0  0
  147.1785  134.3333  159.6440 H   0  0  0  0  0  0  0  0  0  0  0  0
  149.2008  136.1433  161.0263 H   0  0  0  0  0  0  0  0  0  0  0  0
  147.7225  136.6149  158.4839 H   0  0  0  0  0  0  0  0  0  0  0  0
  148.6725  137.4314  156.9698 H   0  0  0  0  0  0  0  0  0  0  0  0
  152.2938  136.8304  157.4765 H   0  0  0  0  0  0  0  0  0  0  0  0
  154.0063  137.7135  155.9102 H   0  0  0  0  0  0  0  0  0  0  0  0
  153.2669  139.2015  154.0331 H   0  0  0  0  0  0  0  0  0  0  0  0
  148.8964  138.7767  153.0868 H   0  0  0  0  0  0  0  0  0  0  0  0
  147.9592  137.6462  154.0734 H   0  0  0  0  0  0  0  0  0  0  0  0
  146.6779  139.6768  152.8350 H   0  0  0  0  0  0  0  0  0  0  0  0
  146.2723  139.3021  154.5136 H   0  0  0  0  0  0  0  0  0  0  0  0
  148.1825  141.4412  153.5179 H   0  0  0  0  0  0  0  0  0  0  0  0
  146.8877  141.6410  154.6991 H   0  0  0  0  0  0  0  0  0  0  0  0
  148.1738  140.6080  156.4033 H   0  0  0  0  0  0  0  0  0  0  0  0
  149.5262  141.1829  155.4245 H   0  0  0  0  0  0  0  0  0  0  0  0
  147.4578  137.8449  161.2878 H   0  0  0  0  0  0  0  0  0  0  0  0
  146.2810  136.8487  160.4653 H   0  0  0  0  0  0  0  0  0  0  0  0
  145.9634  136.7451  162.9291 H   0  0  0  0  0  0  0  0  0  0  0  0
  147.5926  136.1959  163.1516 H   0  0  0  0  0  0  0  0  0  0  0  0
  1  2  1  0  0  0  0
  1 25  1  0  0  0  0
  1 26  1  0  0  0  0
  1 27  1  0  0  0  0
  2  3  2  0  0  0  0
  2  4  1  0  0  0  0
  4 24  1  0  0  0  0
  4  5  1  0  0  0  0
  5  6  1  0  0  0  0
  5 28  1  0  0  0  0
  5 29  1  0  0  0  0
  6  7  1  0  0  0  0
  6 30  1  0  0  0  0
  6 31  1  0  0  0  0
  7  8  1  0  0  0  0
  7 23  1  0  0  0  0
  7 32  1  0  0  0  0
  8  9  1  0  0  0  0
  8 33  1  0  0  0  0
  9 10  2  0  0  0  0
  9 11  1  0  0  0  0
 11 12  1  0  0  0  0
 11 34  1  0  0  0  0
 12 17  1  0  0  0  0
 12 13  2  0  0  0  0
 13 14  1  0  0  0  0
 13 35  1  0  0  0  0
 14 15  2  0  0  0  0
 14 36  1  0  0  0  0
 15 16  1  0  0  0  0
 15 37  1  0  0  0  0
 16 17  2  0  0  0  0
 17 18  1  0  0  0  0
 18 22  1  0  0  0  0
 18 19  1  0  0  0  0
 19 20  1  0  0  0  0
 19 38  1  0  0  0  0
 19 39  1  0  0  0  0
 20 21  1  0  0  0  0
 20 40  1  0  0  0  0
 20 41  1  0  0  0  0
 21 22  1  0  0  0  0
 21 42  1  0  0  0  0
 21 43  1  0  0  0  0
 22 44  1  0  0  0  0
 22 45  1  0  0  0  0
 23 24  1  0  0  0  0
 23 46  1  0  0  0  0
 23 47  1  0  0  0  0
 24 48  1  0  0  0  0
 24 49  1  0  0  0  0
M  END
> <s_m_source_file>
AV-unprocessed.smi

> <i_m_source_file_index>
1727

> <i_lp_mmshare_version>
43012

> <i_f3d_flags>
0

> <s_epik_input>
W0NIM11DKD1PKU4xW0NIMl1bQ0gyXVtDSF0oW0NIMl1bQ0gyXTEpW05IXUMoPU8pW05IXWMyW2NIXVtjSF1bY0hdbmMyTjNbQ0gyXVtDSDJdW0NIMl1bQ0gyXTM=

> <s_epik_cmdline>
J2VwaWtfcHl0aG9uJywgJy1waCcsICc3LjAnLCAnLXRuJywgJzgnLCAnLW1hJywgJzIwMCcsICctbWV0YWxfYmluZGluZycsICctaW1hZScsICc8aW5maWxlLm1hZT4nLCAnLW9tYWUnLCAnPG91dGZpbGUubWFlPic=

> <r_lp_tautomer_probability>
1

> <r_epik_Ionization_Penalty>
0.102256

> <r_epik_Ionization_Penalty_Charging>
0

> <r_epik_Ionization_Penalty_Neutral>
0.102256

> <r_epik_State_Penalty>
0.0916633

> <r_epik_Charging_Adjusted_Penalty>
0.0916633

> <i_epik_Tot_Q>
0

> <i_epik_Tot_abs_Q>
0

> <r_epik_Metal_State_Penalty>
0.0781079

> <b_epik_Metal_Only>
0

> <s_lp_Force_Field>
OPLS_2005

> <r_lp_Energy>
49.5361

> <b_lp_Chiralities_Consistent>
1

> <s_lp_Variant>
AV-unprocessed.smi:1727-1

> <Gold.Version>
5.8.1

> <Gold.Id.Protein>
6NUR|6NUR_protein|mol2

> <Gold.PLP.Fitness>
43.2429

> <Gold.PLP.PLP>
-37.6922

> <Gold.PLP.part.hbond>
-2.0000

> <Gold.PLP.part.metal>
0.0000

> <Gold.PLP.part.buried>
-4.9553

> <Gold.PLP.part.nonpolar>
-31.5155

> <Gold.PLP.part.repulsive>
0.3898

> <Gold.PLP.ligand.clash>
0.0000

> <Gold.PLP.ligand.torsion>
0.3960

> <Gold.PLP.Chemscore.Hbond>
2.0000

> <Gold.PLP.Chemscore.CHOScore>
0.0000

> <Gold.PLP.Chemscore.Metal>
0.0000

> <Gold.Chemscore.Hbonds>
donor molecule, donor type, donor heavy atom, donor atom, acceptor molecule, acceptor atom, score
      P1  H  6896  6909       L1    10  1.00
      P1  H  7989  7998       L1    16  0.80

> <Gold.PLP.Chemscore.Internal.Correction>
0.3427

> <Gold.Rescore>
     Score         DG    S(hbond)    S(metal)    S(lipo)     H(rot)  DE(clash)    DE(int)     intcor
     16.86     -18.67       1.86        0.00      86.22       1.21       0.11       1.71       ----

> <Gold.Chemscore.Fitness>
16.8611

> <Gold.Chemscore.DG>
-18.6749

> <Gold.Chemscore.ZeroCoef>
-5.4800

> <Gold.Chemscore.Hbond>
1.8591

> <Gold.Chemscore.Metal>
0.0000

> <Gold.Chemscore.Lipo>
86.2180

> <Gold.Chemscore.Internal_Hbond>
0.0000

> <Gold.Chemscore.DEClash>
0.1076

> <Gold.Chemscore.DEInternal>
1.7063

> <Gold.Chemscore.Rot>
1.2117

> <Gold.Chemscore.Internal.Correction>
   9.000000E+99

> <Gold.Chemscore.Hbonds>
donor molecule, donor type, donor heavy atom, donor atom, acceptor molecule, acceptor atom, score
      P1  H  6896  6909       L1    10  0.59
      P1  H  7989  7998       L1    16  0.11

> <Gold.Chemscore.Hbond.Weighted>
-6.2093

> <Gold.Chemscore.Metal.Weighted>
-0.0000

> <Gold.Chemscore.Lipo.Weighted>
-10.0875

> <Gold.Chemscore.Internal_Hbond.Weighted>
0.0000

> <Gold.Chemscore.DEClash.Weighted>
0.1076

> <Gold.Chemscore.DEInternal.Weighted>
1.7063

> <Gold.Chemscore.Rot.Weighted>
3.1019

> <Gold.Chemscore.Internal.Correction.Weighted>
   9.000000E+99

> <Gold.Protein.RotatedTorsions>
[ 6907 6896 6895 6894 ] final   83.13 input  -60.11 | X-H torsion
[ 7974 7965 7964 7962 ] final -153.73 input  175.53 | X-H torsion
[ 8008 7997 7996 7995 ] final  118.14 input   59.86 | X-H torsion
[ 10167 10162 10161 10158 ] final -174.30 input  -65.29 | X-H torsion
[ 10718 10713 10712 10709 ] final -133.61 input   66.30 | X-H torsion
[ 10763 10752 10751 10750 ] final -173.46 input  -60.55 | X-H torsion
[ 11005 11000 10999 10996 ] final -168.55 input  -57.11 | X-H torsion

> <Gold.Protein.ActiveResidues>
 VAL166  LYS551  ARG553  GLY616  TRP617  ASP618  TYR619  PRO620  LYS621  CYS622 
 ASP623  PHE694  ASN695  SER759  ASP760  ASP761  ALA762  ILE779  LEU786  VAL792 
 PHE793  MET794  SER795  GLU796  ALA797  LYS798  CYS799  TRP800  GLU811  SER814 

> <Gold.Protein.RotatedAtoms>
  152.5319  134.2943  159.9054 H   0  0  0  0  0  0  0  0  0  0  0  0  # atno 6907 bound_to 6896
  151.2894  133.4166  159.2640 H   0  0  0  0  0  0  0  0  0  0  0  0  # atno 6908 bound_to 6896
  151.0214  134.9487  159.8118 H   0  0  0  0  0  0  0  0  0  0  0  0  # atno 6909 bound_to 6896
  144.7725  140.4486  143.5896 H   0  0  0  0  0  0  0  0  0  0  0  0  # atno 7974 bound_to 7965
  156.2531  140.2881  156.0789 H   0  0  0  0  0  0  0  0  0  0  0  0  # atno 8008 bound_to 7997
  155.1589  140.0399  157.2855 H   0  0  0  0  0  0  0  0  0  0  0  0  # atno 8009 bound_to 7997
  154.6407  140.2521  155.7332 H   0  0  0  0  0  0  0  0  0  0  0  0  # atno 8010 bound_to 7997
  139.5641  144.1797  152.1285 H   0  0  0  0  0  0  0  0  0  0  0  0  # atno 10167 bound_to 10162
  156.2467  130.7129  151.1012 H   0  0  0  0  0  0  0  0  0  0  0  0  # atno 10718 bound_to 10713
  154.6076  135.2861  155.0467 H   0  0  0  0  0  0  0  0  0  0  0  0  # atno 10763 bound_to 10752
  154.1709  135.6472  153.5013 H   0  0  0  0  0  0  0  0  0  0  0  0  # atno 10764 bound_to 10752
  153.0182  135.5400  154.6818 H   0  0  0  0  0  0  0  0  0  0  0  0  # atno 10765 bound_to 10752
  140.5407  134.5525  157.5099 H   0  0  0  0  0  0  0  0  0  0  0  0  # atno 11005 bound_to 11000
  145.6280  139.1532  143.2985 LP  0  0  0  0  0  0  0  0  0  0  0  0  # atno 17320 bound_to 7965
  146.1883  140.6386  142.9157 LP  0  0  0  0  0  0  0  0  0  0  0  0  # atno 17321 bound_to 7965
  140.1317  144.5282  150.6798 LP  0  0  0  0  0  0  0  0  0  0  0  0  # atno 17342 bound_to 10162
  140.6924  143.2383  151.5096 LP  0  0  0  0  0  0  0  0  0  0  0  0  # atno 17343 bound_to 10162
  157.7198  131.0688  150.6182 LP  0  0  0  0  0  0  0  0  0  0  0  0  # atno 17370 bound_to 10713
  156.6259  130.4418  149.5804 LP  0  0  0  0  0  0  0  0  0  0  0  0  # atno 17371 bound_to 10713
  139.9505  134.7625  156.0459 LP  0  0  0  0  0  0  0  0  0  0  0  0  # atno 17394 bound_to 11000
  141.1229  133.6607  156.3260 LP  0  0  0  0  0  0  0  0  0  0  0  0  # atno 17395 bound_to 11000

$$$$
