AV-unprocessed.smi:1186|AV-procd|sdf|4975|dock6
  -GOLD-   22720 3573D 1   1.00000     0.00000
 Structure written by MMmdl.
 39 40  0  0  0  0  0  0  0  0  1 V2000
  144.7143  136.9790  152.4407 O   0  0  0  0  0  0  0  0  0  0  0  0
  145.9137  136.8072  152.2238 C   0  0  0  0  0  0  0  0  0  0  0  0
  146.7918  137.8018  152.0349 N   0  0  0  0  0  0  0  0  0  0  0  0
  146.4593  139.2228  152.0719 C   0  0  0  0  0  0  0  0  0  0  0  0
  147.2748  140.0453  153.0618 C   0  0  0  0  0  0  0  0  0  0  0  0
  146.9377  141.3759  153.3917 C   0  0  0  0  0  0  0  0  0  0  0  0
  147.7483  142.0630  154.3137 C   0  0  0  0  0  0  0  0  0  0  0  0
  148.8259  141.5108  154.9084 N   0  0  0  0  0  0  0  0  0  0  0  0
  149.1509  140.2279  154.6134 C   0  0  0  0  0  0  0  0  0  0  0  0
  150.2740  139.6576  155.2506 N   0  0  0  0  0  0  0  0  0  0  0  0
  151.2423  138.9438  154.4206 C   0  0  0  0  0  0  0  0  0  0  0  0
  152.2309  138.1626  155.3024 C   0  0  0  0  0  0  0  0  0  0  0  0
  152.8513  139.0494  156.2272 O   0  0  0  0  0  0  0  0  0  0  0  0
  151.9017  139.6534  157.0996 C   0  0  0  0  0  0  0  0  0  0  0  0
  150.8948  140.4826  156.2838 C   0  0  0  0  0  0  0  0  0  0  0  0
  148.3959  139.4653  153.6904 C   0  0  0  0  0  0  0  0  0  0  0  0
  146.5021  135.6054  152.1581 N   0  0  0  0  0  0  0  0  0  0  0  0
  145.8252  134.3300  152.3692 C   0  0  0  0  0  0  0  0  0  0  0  0
  144.5861  134.1821  151.4703 C   0  0  0  0  0  0  0  0  0  0  0  0
  143.5463  134.7715  152.0589 F   0  0  0  0  0  0  0  0  0  0  0  0
  144.7989  134.7694  150.2925 F   0  0  0  0  0  0  0  0  0  0  0  0
  144.2909  132.8975  151.2727 F   0  0  0  0  0  0  0  0  0  0  0  0
  147.7579  137.5636  151.8655 H   0  0  0  0  0  0  0  0  0  0  0  0
  146.6203  139.6336  151.0752 H   0  0  0  0  0  0  0  0  0  0  0  0
  145.3958  139.3428  152.2860 H   0  0  0  0  0  0  0  0  0  0  0  0
  146.0843  141.8698  152.9518 H   0  0  0  0  0  0  0  0  0  0  0  0
  147.5232  143.0842  154.5837 H   0  0  0  0  0  0  0  0  0  0  0  0
  150.7279  138.2515  153.7525 H   0  0  0  0  0  0  0  0  0  0  0  0
  151.7827  139.6584  153.7983 H   0  0  0  0  0  0  0  0  0  0  0  0
  151.7241  137.3575  155.8368 H   0  0  0  0  0  0  0  0  0  0  0  0
  152.9996  137.6992  154.6839 H   0  0  0  0  0  0  0  0  0  0  0  0
  151.3902  138.8872  157.6844 H   0  0  0  0  0  0  0  0  0  0  0  0
  152.4284  140.2940  157.8070 H   0  0  0  0  0  0  0  0  0  0  0  0
  151.4033  141.3205  155.8051 H   0  0  0  0  0  0  0  0  0  0  0  0
  150.1545  140.9067  156.9608 H   0  0  0  0  0  0  0  0  0  0  0  0
  148.6759  138.4506  153.4488 H   0  0  0  0  0  0  0  0  0  0  0  0
  147.4947  135.5683  151.9780 H   0  0  0  0  0  0  0  0  0  0  0  0
  146.5129  133.4980  152.2087 H   0  0  0  0  0  0  0  0  0  0  0  0
  145.5260  134.2812  153.4166 H   0  0  0  0  0  0  0  0  0  0  0  0
  1  2  2  0  0  0  0
  2  3  1  0  0  0  0
  2 17  1  0  0  0  0
  3  4  1  0  0  0  0
  3 23  1  0  0  0  0
  4  5  1  0  0  0  0
  4 24  1  0  0  0  0
  4 25  1  0  0  0  0
  5 16  1  0  0  0  0
  5  6  2  0  0  0  0
  6  7  1  0  0  0  0
  6 26  1  0  0  0  0
  7  8  2  0  0  0  0
  7 27  1  0  0  0  0
  8  9  1  0  0  0  0
  9 10  1  0  0  0  0
  9 16  2  0  0  0  0
 10 15  1  0  0  0  0
 10 11  1  0  0  0  0
 11 12  1  0  0  0  0
 11 28  1  0  0  0  0
 11 29  1  0  0  0  0
 12 13  1  0  0  0  0
 12 30  1  0  0  0  0
 12 31  1  0  0  0  0
 13 14  1  0  0  0  0
 14 15  1  0  0  0  0
 14 32  1  0  0  0  0
 14 33  1  0  0  0  0
 15 34  1  0  0  0  0
 15 35  1  0  0  0  0
 16 36  1  0  0  0  0
 17 18  1  0  0  0  0
 17 37  1  0  0  0  0
 18 19  1  0  0  0  0
 18 38  1  0  0  0  0
 18 39  1  0  0  0  0
 19 20  1  0  0  0  0
 19 21  1  0  0  0  0
 19 22  1  0  0  0  0
M  END
> <s_m_source_file>
AV-unprocessed.smi

> <i_m_source_file_index>
1186

> <i_lp_mmshare_version>
43012

> <i_f3d_flags>
0

> <s_epik_input>
RkMoRikoRilbQ0gyXVtOSF1DKD1PKVtOSF1bQ0gyXWMxW2NIXVtjSF1uYyhbY0hdMSlOMltDSDJdW0NIMl1PW0NIMl1bQ0gyXTI=

> <s_epik_cmdline>
J2VwaWtfcHl0aG9uJywgJy1waCcsICc3LjAnLCAnLXRuJywgJzgnLCAnLW1hJywgJzIwMCcsICctbWV0YWxfYmluZGluZycsICctaW1hZScsICc8aW5maWxlLm1hZT4nLCAnLW9tYWUnLCAnPG91dGZpbGUubWFlPic=

> <r_lp_tautomer_probability>
1

> <r_epik_Ionization_Penalty>
0.00300827

> <r_epik_Ionization_Penalty_Charging>
0

> <r_epik_Ionization_Penalty_Neutral>
0.00300827

> <r_epik_State_Penalty>
0.0020903

> <r_epik_Charging_Adjusted_Penalty>
0.0020903

> <i_epik_Tot_Q>
0

> <i_epik_Tot_abs_Q>
0

> <r_epik_Metal_State_Penalty>
-0

> <b_epik_Metal_Only>
0

> <s_lp_Force_Field>
OPLS_2005

> <r_lp_Energy>
10.4369

> <b_lp_Chiralities_Consistent>
1

> <s_lp_Variant>
AV-unprocessed.smi:1186-1

> <Gold.Version>
5.8.1

> <Gold.Id.Protein>
6NUR|6NUR_protein|mol2

> <Gold.PLP.Fitness>
48.4467

> <Gold.PLP.PLP>
-37.5206

> <Gold.PLP.part.hbond>
-3.0000

> <Gold.PLP.part.metal>
0.0000

> <Gold.PLP.part.buried>
-0.5266

> <Gold.PLP.part.nonpolar>
-34.1213

> <Gold.PLP.part.repulsive>
0.4610

> <Gold.PLP.ligand.clash>
0.0000

> <Gold.PLP.ligand.torsion>
0.7183

> <Gold.PLP.Chemscore.Hbond>
3.0000

> <Gold.PLP.Chemscore.CHOScore>
1.0000

> <Gold.PLP.Chemscore.Metal>
0.0000

> <Gold.Chemscore.Hbonds>
donor molecule, donor type, donor heavy atom, donor atom, acceptor molecule, acceptor atom, score
      L1  H     3    23       P1  7948  0.91
      L1  H    17    37       P1  7948  1.00
      P1  H  7997  8008       L1    13  1.00
      L1  C     7    27       P1  8028  1.00

> <Gold.PLP.Chemscore.Internal.Correction>
0.3627

> <Gold.Rescore>
     Score         DG    S(hbond)    S(metal)    S(lipo)     H(rot)  DE(clash)    DE(int)     intcor
     15.28     -17.76       2.87        0.00      68.78       2.09       0.26       2.22       ----

> <Gold.Chemscore.Fitness>
15.2778

> <Gold.Chemscore.DG>
-17.7592

> <Gold.Chemscore.ZeroCoef>
-5.4800

> <Gold.Chemscore.Hbond>
2.8689

> <Gold.Chemscore.Metal>
0.0000

> <Gold.Chemscore.Lipo>
68.7816

> <Gold.Chemscore.Internal_Hbond>
0.0000

> <Gold.Chemscore.DEClash>
0.2576

> <Gold.Chemscore.DEInternal>
2.2239

> <Gold.Chemscore.Rot>
2.0899

> <Gold.Chemscore.Internal.Correction>
   9.000000E+99

> <Gold.Chemscore.Hbonds>
donor molecule, donor type, donor heavy atom, donor atom, acceptor molecule, acceptor atom, score
      L1  H     3    23       P1  7948  0.90
      L1  H    17    37       P1  7948  0.95
      P1  H  7997  8008       L1    13  0.40

> <Gold.Chemscore.Hbond.Weighted>
-9.5820

> <Gold.Chemscore.Metal.Weighted>
-0.0000

> <Gold.Chemscore.Lipo.Weighted>
-8.0474

> <Gold.Chemscore.Internal_Hbond.Weighted>
0.0000

> <Gold.Chemscore.DEClash.Weighted>
0.2576

> <Gold.Chemscore.DEInternal.Weighted>
2.2239

> <Gold.Chemscore.Rot.Weighted>
5.3502

> <Gold.Chemscore.Internal.Correction.Weighted>
   9.000000E+99

> <Gold.Protein.RotatedTorsions>
[ 6907 6896 6895 6894 ] final -169.38 input  -60.11 | X-H torsion
[ 7974 7965 7964 7962 ] final   31.08 input  175.53 | X-H torsion
[ 8008 7997 7996 7995 ] final  -51.08 input   59.86 | X-H torsion
[ 10167 10162 10161 10158 ] final  110.92 input  -65.29 | X-H torsion
[ 10718 10713 10712 10709 ] final   10.18 input   66.30 | X-H torsion
[ 10763 10752 10751 10750 ] final -101.41 input  -60.55 | X-H torsion
[ 11005 11000 10999 10996 ] final -112.86 input  -57.11 | X-H torsion

> <Gold.Protein.ActiveResidues>
 VAL166  LYS551  ARG553  GLY616  TRP617  ASP618  TYR619  PRO620  LYS621  CYS622 
 ASP623  PHE694  ASN695  SER759  ASP760  ASP761  ALA762  ILE779  LEU786  VAL792 
 PHE793  MET794  SER795  GLU796  ALA797  LYS798  CYS799  TRP800  GLU811  SER814 

> <Gold.Protein.RotatedAtoms>
  151.4907  133.3525  159.2852 H   0  0  0  0  0  0  0  0  0  0  0  0  # atno 6907 bound_to 6896
  150.8836  134.8233  159.7254 H   0  0  0  0  0  0  0  0  0  0  0  0  # atno 6908 bound_to 6896
  152.4779  134.4808  159.9717 H   0  0  0  0  0  0  0  0  0  0  0  0  # atno 6909 bound_to 6896
  146.1572  139.6704  142.9058 H   0  0  0  0  0  0  0  0  0  0  0  0  # atno 7974 bound_to 7965
  154.4075  140.1256  156.4770 H   0  0  0  0  0  0  0  0  0  0  0  0  # atno 8008 bound_to 7997
  155.7122  140.3493  155.4959 H   0  0  0  0  0  0  0  0  0  0  0  0  # atno 8009 bound_to 7997
  155.9290  140.1066  157.1138 H   0  0  0  0  0  0  0  0  0  0  0  0  # atno 8010 bound_to 7997
  139.6651  144.7127  151.1792 H   0  0  0  0  0  0  0  0  0  0  0  0  # atno 10167 bound_to 10162
  156.9772  130.5992  149.5673 H   0  0  0  0  0  0  0  0  0  0  0  0  # atno 10718 bound_to 10713
  154.7656  135.4899  153.9547 H   0  0  0  0  0  0  0  0  0  0  0  0  # atno 10763 bound_to 10752
  153.1303  135.6751  153.9196 H   0  0  0  0  0  0  0  0  0  0  0  0  # atno 10764 bound_to 10752
  153.8902  135.3122  155.3426 H   0  0  0  0  0  0  0  0  0  0  0  0  # atno 10765 bound_to 10752
  141.0649  133.9475  157.2597 H   0  0  0  0  0  0  0  0  0  0  0  0  # atno 11005 bound_to 11000
  145.4678  141.0435  143.2715 LP  0  0  0  0  0  0  0  0  0  0  0  0  # atno 17320 bound_to 7965
  144.7979  139.6197  143.7084 LP  0  0  0  0  0  0  0  0  0  0  0  0  # atno 17321 bound_to 7965
  140.7596  143.5932  150.8775 LP  0  0  0  0  0  0  0  0  0  0  0  0  # atno 17342 bound_to 10162
  139.9593  143.6182  152.3007 LP  0  0  0  0  0  0  0  0  0  0  0  0  # atno 17343 bound_to 10162
  156.0259  130.5352  150.8404 LP  0  0  0  0  0  0  0  0  0  0  0  0  # atno 17370 bound_to 10713
  157.5551  131.0945  150.9640 LP  0  0  0  0  0  0  0  0  0  0  0  0  # atno 17371 bound_to 10713
  139.9467  135.0183  156.8873 LP  0  0  0  0  0  0  0  0  0  0  0  0  # atno 17394 bound_to 11000
  140.5793  134.0368  155.7458 LP  0  0  0  0  0  0  0  0  0  0  0  0  # atno 17395 bound_to 11000

$$$$
