AV-unprocessed.smi:2547|AV-procd|sdf|10003|dock10
  -GOLD-   2272014 53D 1   1.00000     0.00000
 Structure written by MMmdl.
 45 46  0  0  0  0  0  0  0  0  3 V2000
  143.8273  132.6190  148.8094 C   0  0  0  0  0  0  0  0  0  0  0  0
  144.7196  133.5094  149.5822 N   0  3  2  0  0  0  0  0  0  0  0  0
  145.1941  132.8801  150.8398 C   0  0  0  0  0  0  0  0  0  0  0  0
  146.2161  133.7785  151.5571 C   0  0  0  0  0  0  0  0  0  0  0  0
  145.6316  135.1737  151.8326 C   0  0  1  0  0  0  0  0  0  0  0  0
  146.6485  136.0281  152.4396 N   0  0  0  0  0  0  0  0  0  0  0  0
  146.4823  137.3221  152.7495 C   0  0  0  0  0  0  0  0  0  0  0  0
  145.4372  137.9394  152.5451 O   0  0  0  0  0  0  0  0  0  0  0  0
  147.6001  137.8452  153.2823 N   0  0  0  0  0  0  0  0  0  0  0  0
  147.8148  139.1745  153.7332 C   0  0  0  0  0  0  0  0  0  0  0  0
  146.9790  140.2691  153.4069 C   0  0  0  0  0  0  0  0  0  0  0  0
  147.2773  141.5439  153.9254 C   0  0  0  0  0  0  0  0  0  0  0  0
  148.3962  141.7075  154.7653 C   0  0  0  0  0  0  0  0  0  0  0  0
  149.2030  140.5882  155.0836 C   0  0  0  0  0  0  0  0  0  0  0  0
  150.3373  140.6668  155.9205 N   0  0  0  0  0  0  0  0  0  0  0  0
  151.2755  139.5531  155.9761 C   0  0  0  0  0  0  0  0  0  0  0  0
  150.6072  141.8943  156.6609 C   0  0  0  0  0  0  0  0  0  0  0  0
  148.8669  139.3846  154.5564 N   0  3  0  0  0  0  0  0  0  0  0  0
  145.1144  135.7855  150.5170 C   0  0  0  0  0  0  0  0  0  0  0  0
  144.1165  134.8441  149.8217 C   0  0  0  0  0  0  0  0  0  0  0  0
  142.9152  132.3996  149.3660 H   0  0  0  0  0  0  0  0  0  0  0  0
  144.3262  131.6759  148.5840 H   0  0  0  0  0  0  0  0  0  0  0  0
  143.5478  133.0811  147.8620 H   0  0  0  0  0  0  0  0  0  0  0  0
  144.3435  132.6826  151.4942 H   0  0  0  0  0  0  0  0  0  0  0  0
  145.6520  131.9158  150.6160 H   0  0  0  0  0  0  0  0  0  0  0  0
  146.5244  133.3102  152.4926 H   0  0  0  0  0  0  0  0  0  0  0  0
  147.1145  133.8657  150.9438 H   0  0  0  0  0  0  0  0  0  0  0  0
  144.7961  135.0628  152.5269 H   0  0  0  0  0  0  0  0  0  0  0  0
  147.5419  135.6018  152.6390 H   0  0  0  0  0  0  0  0  0  0  0  0
  148.4077  137.2400  153.3066 H   0  0  0  0  0  0  0  0  0  0  0  0
  146.1087  140.1522  152.7787 H   0  0  0  0  0  0  0  0  0  0  0  0
  146.6499  142.3891  153.6837 H   0  0  0  0  0  0  0  0  0  0  0  0
  148.6139  142.6910  155.1544 H   0  0  0  0  0  0  0  0  0  0  0  0
  151.6831  139.3458  154.9862 H   0  0  0  0  0  0  0  0  0  0  0  0
  150.7822  138.6538  156.3463 H   0  0  0  0  0  0  0  0  0  0  0  0
  152.1109  139.7712  156.6414 H   0  0  0  0  0  0  0  0  0  0  0  0
  149.7774  142.1311  157.3278 H   0  0  0  0  0  0  0  0  0  0  0  0
  150.7525  142.7307  155.9766 H   0  0  0  0  0  0  0  0  0  0  0  0
  151.5066  141.8013  157.2700 H   0  0  0  0  0  0  0  0  0  0  0  0
  144.6364  136.7470  150.7085 H   0  0  0  0  0  0  0  0  0  0  0  0
  145.9515  135.9854  149.8461 H   0  0  0  0  0  0  0  0  0  0  0  0
  143.8067  135.2815  148.8719 H   0  0  0  0  0  0  0  0  0  0  0  0
  143.2170  134.7353  150.4298 H   0  0  0  0  0  0  0  0  0  0  0  0
  145.5372  133.6618  149.0089 H   0  0  0  0  0  0  0  0  0  0  0  0
  149.4536  138.5844  154.7921 H   0  0  0  0  0  0  0  0  0  0  0  0
  1  2  1  0  0  0  0
  1 21  1  0  0  0  0
  1 22  1  0  0  0  0
  1 23  1  0  0  0  0
  2 20  1  0  0  0  0
  2  3  1  0  0  0  0
  2 44  1  0  0  0  0
  3  4  1  0  0  0  0
  3 24  1  0  0  0  0
  3 25  1  0  0  0  0
  4  5  1  0  0  0  0
  4 26  1  0  0  0  0
  4 27  1  0  0  0  0
  5  6  1  0  0  0  0
  5 19  1  0  0  0  0
  5 28  1  0  0  0  0
  6  7  1  0  0  0  0
  6 29  1  0  0  0  0
  7  8  2  0  0  0  0
  7  9  1  0  0  0  0
  9 10  1  0  0  0  0
  9 30  1  0  0  0  0
 10 18  1  0  0  0  0
 10 11  2  0  0  0  0
 11 12  1  0  0  0  0
 11 31  1  0  0  0  0
 12 13  2  0  0  0  0
 12 32  1  0  0  0  0
 13 14  1  0  0  0  0
 13 33  1  0  0  0  0
 14 15  1  0  0  0  0
 14 18  2  0  0  0  0
 15 16  1  0  0  0  0
 15 17  1  0  0  0  0
 16 34  1  0  0  0  0
 16 35  1  0  0  0  0
 16 36  1  0  0  0  0
 17 37  1  0  0  0  0
 17 38  1  0  0  0  0
 17 39  1  0  0  0  0
 18 45  1  0  0  0  0
 19 20  1  0  0  0  0
 19 40  1  0  0  0  0
 19 41  1  0  0  0  0
 20 42  1  0  0  0  0
 20 43  1  0  0  0  0
M  CHG  1   2   1
M  CHG  1  18   1
M  END
> <s_m_source_file>
AV-unprocessed.smi

> <i_m_source_file_index>
2547

> <i_lp_mmshare_version>
43012

> <i_f3d_flags>
0

> <s_epik_input>
W0NIM11OMVtDSDJdW0NIMl1bQ0hdKFtDSDJdW0NIMl0xKVtOSF1DKD1PKVtOSF1jMltjSF1bY0hdW2NIXWMobjIpTihbQ0gzXSlbQ0gzXQ==

> <s_epik_cmdline>
J2VwaWtfcHl0aG9uJywgJy1waCcsICc3LjAnLCAnLXRuJywgJzgnLCAnLW1hJywgJzIwMCcsICctbWV0YWxfYmluZGluZycsICctaW1hZScsICc8aW5maWxlLm1hZT4nLCAnLW9tYWUnLCAnPG91dGZpbGUubWFlPic=

> <r_lp_tautomer_probability>
0.999994

> <r_epik_Ionization_Penalty>
2.17028

> <r_epik_Ionization_Penalty_Charging>
2.10368

> <r_epik_Ionization_Penalty_Neutral>
0.0666017

> <r_epik_State_Penalty>
2.2357

> <r_epik_Charging_Adjusted_Penalty>
4.33938

> <i_epik_Tot_Q>
2

> <i_epik_Tot_abs_Q>
2

> <r_epik_Metal_State_Penalty>
2.25749

> <b_epik_Metal_Only>
0

> <s_lp_Force_Field>
OPLS_2005

> <r_lp_Energy>
26.2357

> <b_lp_Chiralities_Consistent>
1

> <s_lp_Variant>
AV-unprocessed.smi:2547-3

> <Gold.Version>
5.8.1

> <Gold.Id.Protein>
6NUR|6NUR_protein|mol2

> <Gold.PLP.Fitness>
41.7447

> <Gold.PLP.PLP>
-35.7473

> <Gold.PLP.part.hbond>
-1.9164

> <Gold.PLP.part.metal>
0.0000

> <Gold.PLP.part.buried>
2.5350

> <Gold.PLP.part.nonpolar>
-37.3083

> <Gold.PLP.part.repulsive>
0.6604

> <Gold.PLP.ligand.clash>
0.0000

> <Gold.PLP.ligand.torsion>
0.1343

> <Gold.PLP.Chemscore.Hbond>
2.0870

> <Gold.PLP.Chemscore.CHOScore>
0.0000

> <Gold.PLP.Chemscore.Metal>
0.0000

> <Gold.Chemscore.Hbonds>
donor molecule, donor type, donor heavy atom, donor atom, acceptor molecule, acceptor atom, score
      L1  H     2    44       P1  7921  0.80
      L1  H     6    29       P1  7948  0.38
      L1  H     9    30       P1  7948  0.46

> <Gold.PLP.Chemscore.Internal.Correction>
0.0049

> <Gold.Rescore>
     Score         DG    S(hbond)    S(metal)    S(lipo)     H(rot)  DE(clash)    DE(int)     intcor
     14.70     -19.28       2.03        0.00      81.86       1.00       1.89       2.69       ----

> <Gold.Chemscore.Fitness>
14.7003

> <Gold.Chemscore.DG>
-19.2787

> <Gold.Chemscore.ZeroCoef>
-5.4800

> <Gold.Chemscore.Hbond>
2.0303

> <Gold.Chemscore.Metal>
0.0000

> <Gold.Chemscore.Lipo>
81.8596

> <Gold.Chemscore.Internal_Hbond>
0.0000

> <Gold.Chemscore.DEClash>
1.8916

> <Gold.Chemscore.DEInternal>
2.6868

> <Gold.Chemscore.Rot>
1.0000

> <Gold.Chemscore.Internal.Correction>
   9.000000E+99

> <Gold.Chemscore.Hbonds>
donor molecule, donor type, donor heavy atom, donor atom, acceptor molecule, acceptor atom, score
      L1  H     2    44       P1  7921  0.32
      L1  H     6    29       P1  7948  0.38
      L1  H     9    30       P1  7948  0.46

> <Gold.Chemscore.Hbond.Weighted>
-6.7811

> <Gold.Chemscore.Metal.Weighted>
-0.0000

> <Gold.Chemscore.Lipo.Weighted>
-9.5776

> <Gold.Chemscore.Internal_Hbond.Weighted>
0.0000

> <Gold.Chemscore.DEClash.Weighted>
1.8916

> <Gold.Chemscore.DEInternal.Weighted>
2.6868

> <Gold.Chemscore.Rot.Weighted>
2.5600

> <Gold.Chemscore.Internal.Correction.Weighted>
   9.000000E+99

> <Gold.Protein.RotatedTorsions>
[ 6907 6896 6895 6894 ] final   92.75 input  -60.11 | X-H torsion
[ 7974 7965 7964 7962 ] final  -58.00 input  175.53 | X-H torsion
[ 8008 7997 7996 7995 ] final  -41.26 input   59.86 | X-H torsion
[ 10167 10162 10161 10158 ] final  -11.80 input  -65.29 | X-H torsion
[ 10718 10713 10712 10709 ] final  -70.05 input   66.30 | X-H torsion
[ 10763 10752 10751 10750 ] final   -6.61 input  -60.55 | X-H torsion
[ 11005 11000 10999 10996 ] final  -36.97 input  -57.11 | X-H torsion

> <Gold.Protein.ActiveResidues>
 VAL166  LYS551  ARG553  GLY616  TRP617  ASP618  TYR619  PRO620  LYS621  CYS622 
 ASP623  PHE694  ASN695  SER759  ASP760  ASP761  ALA762  ILE779  LEU786  VAL792 
 PHE793  MET794  SER795  GLU796  ALA797  LYS798  CYS799  TRP800  GLU811  SER814 

> <Gold.Protein.RotatedAtoms>
  152.5453  134.1454  159.8495 H   0  0  0  0  0  0  0  0  0  0  0  0  # atno 6907 bound_to 6896
  151.1486  133.4916  159.2603 H   0  0  0  0  0  0  0  0  0  0  0  0  # atno 6908 bound_to 6896
  151.1497  135.0231  159.8717 H   0  0  0  0  0  0  0  0  0  0  0  0  # atno 6909 bound_to 6896
  145.8444  140.8395  143.0017 H   0  0  0  0  0  0  0  0  0  0  0  0  # atno 7974 bound_to 7965
  154.4005  140.1504  156.3162 H   0  0  0  0  0  0  0  0  0  0  0  0  # atno 8008 bound_to 7997
  155.8571  140.3455  155.5710 H   0  0  0  0  0  0  0  0  0  0  0  0  # atno 8009 bound_to 7997
  155.7921  140.0858  157.1994 H   0  0  0  0  0  0  0  0  0  0  0  0  # atno 8010 bound_to 7997
  140.7147  143.5600  150.9206 H   0  0  0  0  0  0  0  0  0  0  0  0  # atno 10167 bound_to 10162
  156.0426  130.4324  150.2239 H   0  0  0  0  0  0  0  0  0  0  0  0  # atno 10718 bound_to 10713
  153.4148  135.7008  153.6334 H   0  0  0  0  0  0  0  0  0  0  0  0  # atno 10763 bound_to 10752
  153.4813  135.3693  155.2444 H   0  0  0  0  0  0  0  0  0  0  0  0  # atno 10764 bound_to 10752
  154.8719  135.4067  154.3506 H   0  0  0  0  0  0  0  0  0  0  0  0  # atno 10765 bound_to 10752
  140.9916  133.7002  156.1859 H   0  0  0  0  0  0  0  0  0  0  0  0  # atno 11005 bound_to 11000
  144.6732  140.0861  143.7467 LP  0  0  0  0  0  0  0  0  0  0  0  0  # atno 17320 bound_to 7965
  145.9428  139.2680  143.1258 LP  0  0  0  0  0  0  0  0  0  0  0  0  # atno 17321 bound_to 7965
  139.9325  143.6476  152.3073 LP  0  0  0  0  0  0  0  0  0  0  0  0  # atno 17342 bound_to 10162
  139.6932  144.7644  151.1402 LP  0  0  0  0  0  0  0  0  0  0  0  0  # atno 17343 bound_to 10162
  157.0332  131.0013  151.3306 LP  0  0  0  0  0  0  0  0  0  0  0  0  # atno 17370 bound_to 10713
  157.5262  130.8029  149.7865 LP  0  0  0  0  0  0  0  0  0  0  0  0  # atno 17371 bound_to 10713
  140.7031  134.4542  157.5585 LP  0  0  0  0  0  0  0  0  0  0  0  0  # atno 17394 bound_to 11000
  139.8995  134.8590  156.1958 LP  0  0  0  0  0  0  0  0  0  0  0  0  # atno 17395 bound_to 11000

$$$$
