AV-unprocessed.smi:276|AV-procd|sdf|2072|dock9
  -GOLD-   2262021333D 1   1.00000     0.00000
 Structure written by MMmdl.
 57 61  0  0  0  0  0  0  0  0  1 V2000
  152.6441  142.5305  160.2109 C   0  0  0  0  0  0  0  0  0  0  0  0
  152.2130  141.4075  159.4622 O   0  0  0  0  0  0  0  0  0  0  0  0
  151.7027  141.7648  158.1878 C   0  0  2  0  0  0  0  0  0  0  0  0
  150.3652  142.5120  158.2312 C   0  0  0  0  0  0  0  0  0  0  0  0
  149.9678  141.7112  156.9843 C   0  0  2  0  0  0  0  0  0  0  0  0
  148.5490  141.3470  156.9673 N   0  0  0  0  0  0  0  0  0  0  0  0
  147.6043  142.4435  157.1415 C   0  0  0  0  0  0  0  0  0  0  0  0
  148.1476  140.5389  155.9598 C   0  0  0  0  0  0  0  0  0  0  0  0
  149.0999  140.1356  155.0818 N   0  0  0  0  0  0  0  0  0  0  0  0
  148.7746  139.3435  154.0562 C   0  0  0  0  0  0  0  0  0  0  0  0
  147.5802  138.8428  153.7347 N   0  0  0  0  0  0  0  0  0  0  0  0
  146.6245  139.2284  154.6277 C   0  0  0  0  0  0  0  0  0  0  0  0
  146.8189  140.0620  155.7652 C   0  0  0  0  0  0  0  0  0  0  0  0
  145.6170  140.2138  156.4476 N   0  0  0  0  0  0  0  0  0  0  0  0
  144.7593  139.5266  155.7444 C   0  0  0  0  0  0  0  0  0  0  0  0
  145.2801  138.9020  154.6348 N   0  0  0  0  0  0  0  0  0  0  0  0
  144.5553  138.0751  153.6862 C   0  0  0  0  0  0  0  0  0  0  0  0
  145.4958  137.3410  152.7115 C   0  0  2  0  0  0  0  0  0  0  0  0
  146.0938  138.2550  151.8117 O   0  0  0  0  0  0  0  0  0  0  0  0
  144.7920  136.2018  151.9464 C   0  0  2  0  0  0  0  0  0  0  0  0
  144.0132  135.1895  152.7908 C   0  0  0  0  0  0  0  0  0  0  0  0
  143.9754  133.9992  151.8590 C   0  0  0  0  0  0  0  0  0  0  0  0
  145.3611  134.0597  151.2201 C   0  0  0  0  0  0  0  0  0  0  0  0
  145.7028  135.4421  151.1556 O   0  0  0  0  0  0  0  0  0  0  0  0
  150.9634  140.6212  157.4659 C   0  0  0  0  0  0  0  0  0  0  0  0
  151.7117  139.7152  156.4790 C   0  0  0  0  0  0  0  0  0  0  0  0
  150.9168  138.5178  157.0100 C   0  0  0  0  0  0  0  0  0  0  0  0
  150.5251  139.3559  158.2319 C   0  0  0  0  0  0  0  0  0  0  0  0
  153.0290  142.2013  161.1760 H   0  0  0  0  0  0  0  0  0  0  0  0
  151.8232  143.2242  160.3964 H   0  0  0  0  0  0  0  0  0  0  0  0
  153.4425  143.0641  159.6939 H   0  0  0  0  0  0  0  0  0  0  0  0
  152.4396  142.2466  157.5410 H   0  0  0  0  0  0  0  0  0  0  0  0
  149.7724  142.2671  159.1149 H   0  0  0  0  0  0  0  0  0  0  0  0
  150.4392  143.5889  158.0783 H   0  0  0  0  0  0  0  0  0  0  0  0
  150.3128  142.2149  156.0805 H   0  0  0  0  0  0  0  0  0  0  0  0
  147.6987  143.1660  156.3301 H   0  0  0  0  0  0  0  0  0  0  0  0
  147.7871  142.9624  158.0821 H   0  0  0  0  0  0  0  0  0  0  0  0
  146.5750  142.0825  157.1618 H   0  0  0  0  0  0  0  0  0  0  0  0
  149.5875  139.0737  153.3981 H   0  0  0  0  0  0  0  0  0  0  0  0
  143.7172  139.4519  156.0199 H   0  0  0  0  0  0  0  0  0  0  0  0
  143.9604  137.3553  154.2495 H   0  0  0  0  0  0  0  0  0  0  0  0
  143.8489  138.7029  153.1417 H   0  0  0  0  0  0  0  0  0  0  0  0
  146.3101  136.8987  153.2870 H   0  0  0  0  0  0  0  0  0  0  0  0
  145.6159  138.2300  150.9968 H   0  0  0  0  0  0  0  0  0  0  0  0
  144.0918  136.6503  151.2396 H   0  0  0  0  0  0  0  0  0  0  0  0
  144.5522  134.9221  153.7002 H   0  0  0  0  0  0  0  0  0  0  0  0
  143.0218  135.5443  153.0738 H   0  0  0  0  0  0  0  0  0  0  0  0
  143.7827  133.0568  152.3725 H   0  0  0  0  0  0  0  0  0  0  0  0
  143.2041  134.1408  151.1008 H   0  0  0  0  0  0  0  0  0  0  0  0
  146.0921  133.5535  151.8519 H   0  0  0  0  0  0  0  0  0  0  0  0
  145.3873  133.5960  150.2339 H   0  0  0  0  0  0  0  0  0  0  0  0
  151.5384  139.9409  155.4272 H   0  0  0  0  0  0  0  0  0  0  0  0
  152.7768  139.6417  156.7026 H   0  0  0  0  0  0  0  0  0  0  0  0
  150.0674  138.2578  156.3783 H   0  0  0  0  0  0  0  0  0  0  0  0
  151.5239  137.6422  157.2406 H   0  0  0  0  0  0  0  0  0  0  0  0
  151.1548  139.1325  159.0935 H   0  0  0  0  0  0  0  0  0  0  0  0
  149.4697  139.3051  158.4974 H   0  0  0  0  0  0  0  0  0  0  0  0
  1  2  1  0  0  0  0
  1 29  1  0  0  0  0
  1 30  1  0  0  0  0
  1 31  1  0  0  0  0
  2  3  1  0  0  0  0
  3 25  1  0  0  0  0
  3  4  1  0  0  0  0
  3 32  1  0  0  0  0
  4  5  1  0  0  0  0
  4 33  1  0  0  0  0
  4 34  1  0  0  0  0
  5  6  1  0  0  0  0
  5 25  1  0  0  0  0
  5 35  1  0  0  0  0
  6  7  1  0  0  0  0
  6  8  1  0  0  0  0
  7 36  1  0  0  0  0
  7 37  1  0  0  0  0
  7 38  1  0  0  0  0
  8 13  1  0  0  0  0
  8  9  2  0  0  0  0
  9 10  1  0  0  0  0
 10 11  2  0  0  0  0
 10 39  1  0  0  0  0
 11 12  1  0  0  0  0
 12 16  1  0  0  0  0
 12 13  2  0  0  0  0
 13 14  1  0  0  0  0
 14 15  2  0  0  0  0
 15 16  1  0  0  0  0
 15 40  1  0  0  0  0
 16 17  1  0  0  0  0
 17 18  1  0  0  0  0
 17 41  1  0  0  0  0
 17 42  1  0  0  0  0
 18 19  1  0  0  0  0
 18 20  1  0  0  0  0
 18 43  1  0  0  0  0
 19 44  1  0  0  0  0
 20 24  1  0  0  0  0
 20 21  1  0  0  0  0
 20 45  1  0  0  0  0
 21 22  1  0  0  0  0
 21 46  1  0  0  0  0
 21 47  1  0  0  0  0
 22 23  1  0  0  0  0
 22 48  1  0  0  0  0
 22 49  1  0  0  0  0
 23 24  1  0  0  0  0
 23 50  1  0  0  0  0
 23 51  1  0  0  0  0
 25 28  1  0  0  0  0
 25 26  1  0  0  0  0
 26 27  1  0  0  0  0
 26 52  1  0  0  0  0
 26 53  1  0  0  0  0
 27 28  1  0  0  0  0
 27 54  1  0  0  0  0
 27 55  1  0  0  0  0
 28 56  1  0  0  0  0
 28 57  1  0  0  0  0
M  END
> <s_m_source_file>
AV-unprocessed.smi

> <i_m_source_file_index>
276

> <i_lp_mmshare_version>
43012

> <i_f3d_flags>
0

> <s_epik_input>
W0NIMl0xW0NIMl1bQ0gyXUMxMltDQEhdKE9bQ0gzXSlbQ0gyXVtDQEhdMk4oW0NIM10pYyhuW2NIXW4zKWMoYzM0KW5bY0hdbjRbQ0gyXVtDQEhdKFtPSF0pW0NAQEhdNVtDSDJdW0NIMl1bQ0gyXU81

> <s_epik_cmdline>
J2VwaWtfcHl0aG9uJywgJy1waCcsICc3LjAnLCAnLXRuJywgJzgnLCAnLW1hJywgJzIwMCcsICctbWV0YWxfYmluZGluZycsICctaW1hZScsICc8aW5maWxlLm1hZT4nLCAnLW9tYWUnLCAnPG91dGZpbGUubWFlPic=

> <r_lp_tautomer_probability>
1

> <r_epik_Ionization_Penalty>
0.00204117

> <r_epik_Ionization_Penalty_Charging>
0

> <r_epik_Ionization_Penalty_Neutral>
0.00204117

> <r_epik_State_Penalty>
0.00127401

> <r_epik_Charging_Adjusted_Penalty>
0.00127401

> <i_epik_Tot_Q>
0

> <i_epik_Tot_abs_Q>
0

> <r_epik_Metal_State_Penalty>
-0

> <b_epik_Metal_Only>
0

> <s_lp_Force_Field>
OPLS_2005

> <r_lp_Energy>
58.4332

> <b_lp_Chiralities_Consistent>
1

> <s_lp_Variant>
AV-unprocessed.smi:276-3

> <Gold.Version>
5.8.1

> <Gold.Id.Protein>
6NUR|6NUR_protein|mol2

> <Gold.PLP.Fitness>
38.0862

> <Gold.PLP.PLP>
-32.7836

> <Gold.PLP.part.hbond>
-2.0000

> <Gold.PLP.part.metal>
0.0000

> <Gold.PLP.part.buried>
-5.7007

> <Gold.PLP.part.nonpolar>
-25.3976

> <Gold.PLP.part.repulsive>
0.5691

> <Gold.PLP.ligand.clash>
0.0000

> <Gold.PLP.ligand.torsion>
0.6965

> <Gold.PLP.Chemscore.Hbond>
1.0000

> <Gold.PLP.Chemscore.CHOScore>
1.0000

> <Gold.PLP.Chemscore.Metal>
0.0000

> <Gold.Chemscore.Hbonds>
donor molecule, donor type, donor heavy atom, donor atom, acceptor molecule, acceptor atom, score
      L1  H    19    44       P1 10171  0.75
      L1  C    10    39       P1  7957  0.77

> <Gold.PLP.Chemscore.Internal.Correction>
0.6957

> <Gold.Rescore>
     Score         DG    S(hbond)    S(metal)    S(lipo)     H(rot)  DE(clash)    DE(int)     intcor
      8.57     -11.08       1.00        0.00      78.83       2.72       0.11       2.40       ----

> <Gold.Chemscore.Fitness>
8.5717

> <Gold.Chemscore.DG>
-11.0802

> <Gold.Chemscore.ZeroCoef>
-5.4800

> <Gold.Chemscore.Hbond>
0.9978

> <Gold.Chemscore.Metal>
0.0000

> <Gold.Chemscore.Lipo>
78.8326

> <Gold.Chemscore.Internal_Hbond>
0.0000

> <Gold.Chemscore.DEClash>
0.1103

> <Gold.Chemscore.DEInternal>
2.3982

> <Gold.Chemscore.Rot>
2.7172

> <Gold.Chemscore.Internal.Correction>
   9.000000E+99

> <Gold.Chemscore.Hbonds>
donor molecule, donor type, donor heavy atom, donor atom, acceptor molecule, acceptor atom, score
      L1  H    19    44       P1 10171  0.72

> <Gold.Chemscore.Hbond.Weighted>
-3.3327

> <Gold.Chemscore.Metal.Weighted>
-0.0000

> <Gold.Chemscore.Lipo.Weighted>
-9.2234

> <Gold.Chemscore.Internal_Hbond.Weighted>
0.0000

> <Gold.Chemscore.DEClash.Weighted>
0.1103

> <Gold.Chemscore.DEInternal.Weighted>
2.3982

> <Gold.Chemscore.Rot.Weighted>
6.9560

> <Gold.Chemscore.Internal.Correction.Weighted>
   9.000000E+99

> <Gold.Protein.RotatedTorsions>
[ 6907 6896 6895 6894 ] final  -56.77 input  -60.11 | X-H torsion
[ 7974 7965 7964 7962 ] final -136.02 input  175.53 | X-H torsion
[ 8008 7997 7996 7995 ] final  -55.48 input   59.86 | X-H torsion
[ 10167 10162 10161 10158 ] final -165.92 input  -65.29 | X-H torsion
[ 10718 10713 10712 10709 ] final  -84.06 input   66.30 | X-H torsion
[ 10763 10752 10751 10750 ] final  -65.22 input  -60.55 | X-H torsion
[ 11005 11000 10999 10996 ] final  -80.60 input  -57.11 | X-H torsion

> <Gold.Protein.ActiveResidues>
 VAL166  LYS551  ARG553  GLY616  TRP617  ASP618  TYR619  PRO620  LYS621  CYS622 
 ASP623  PHE694  ASN695  SER759  ASP760  ASP761  ALA762  ILE779  LEU786  VAL792 
 PHE793  MET794  SER795  GLU796  ALA797  LYS798  CYS799  TRP800  GLU811  SER814 

> <Gold.Protein.RotatedAtoms>
  150.8140  134.7312  159.6713 H   0  0  0  0  0  0  0  0  0  0  0  0  # atno 6907 bound_to 6896
  152.4259  134.5865  159.9972 H   0  0  0  0  0  0  0  0  0  0  0  0  # atno 6908 bound_to 6896
  151.6067  133.3314  159.3095 H   0  0  0  0  0  0  0  0  0  0  0  0  # atno 6909 bound_to 6896
  144.8963  140.6711  143.5113 H   0  0  0  0  0  0  0  0  0  0  0  0  # atno 7974 bound_to 7965
  154.4196  140.1152  156.5483 H   0  0  0  0  0  0  0  0  0  0  0  0  # atno 8008 bound_to 7997
  155.6436  140.3496  155.4704 H   0  0  0  0  0  0  0  0  0  0  0  0  # atno 8009 bound_to 7997
  155.9850  140.1168  157.0681 H   0  0  0  0  0  0  0  0  0  0  0  0  # atno 8010 bound_to 7997
  139.6149  144.0740  152.1878 H   0  0  0  0  0  0  0  0  0  0  0  0  # atno 10167 bound_to 10162
  156.0010  130.4685  150.4352 H   0  0  0  0  0  0  0  0  0  0  0  0  # atno 10718 bound_to 10713
  154.3417  135.6155  153.5600 H   0  0  0  0  0  0  0  0  0  0  0  0  # atno 10763 bound_to 10752
  152.9804  135.5771  154.4845 H   0  0  0  0  0  0  0  0  0  0  0  0  # atno 10764 bound_to 10752
  154.4550  135.2854  155.1731 H   0  0  0  0  0  0  0  0  0  0  0  0  # atno 10765 bound_to 10752
  141.1668  133.7158  156.8298 H   0  0  0  0  0  0  0  0  0  0  0  0  # atno 11005 bound_to 11000
  145.3695  139.1662  143.4340 LP  0  0  0  0  0  0  0  0  0  0  0  0  # atno 17320 bound_to 7965
  146.3083  140.3765  142.8679 LP  0  0  0  0  0  0  0  0  0  0  0  0  # atno 17321 bound_to 7965
  140.0367  144.6039  150.7444 LP  0  0  0  0  0  0  0  0  0  0  0  0  # atno 17342 bound_to 10162
  140.7344  143.2729  151.3833 LP  0  0  0  0  0  0  0  0  0  0  0  0  # atno 17343 bound_to 10162
  157.2398  131.0523  151.2443 LP  0  0  0  0  0  0  0  0  0  0  0  0  # atno 17370 bound_to 10713
  157.3631  130.7142  149.6515 LP  0  0  0  0  0  0  0  0  0  0  0  0  # atno 17371 bound_to 10713
  140.2059  134.8863  157.3221 LP  0  0  0  0  0  0  0  0  0  0  0  0  # atno 17394 bound_to 11000
  140.2137  134.4107  155.7599 LP  0  0  0  0  0  0  0  0  0  0  0  0  # atno 17395 bound_to 11000

$$$$
