AV-unprocessed.smi:2015|AV-procd|sdf|8165|dock3
  -GOLD-   2272010413D 1   1.00000     0.00000
 Structure written by MMmdl.
 47 48  0  0  0  0  0  0  0  0  1 V2000
  144.6657  134.6748  150.5545 C   0  0  0  0  0  0  0  0  0  0  0  0
  144.6548  135.7014  151.5305 O   0  0  0  0  0  0  0  0  0  0  0  0
  145.6560  136.6797  151.3028 C   0  0  0  0  0  0  0  0  0  0  0  0
  145.8769  137.4902  152.5863 C   0  0  0  0  0  0  0  0  0  0  0  0
  146.6159  138.8168  152.3301 C   0  0  0  0  0  0  0  0  0  0  0  0
  147.1429  139.4647  153.6140 C   0  0  0  0  0  0  0  0  0  0  0  0
  146.3870  139.6242  154.5717 O   0  0  0  0  0  0  0  0  0  0  0  0
  148.4338  139.8450  153.5821 N   0  0  0  0  0  0  0  0  0  0  0  0
  149.2191  140.4586  154.5967 C   0  0  0  0  0  0  0  0  0  0  0  0
  150.6025  140.2376  154.7936 C   0  0  0  0  0  0  0  0  0  0  0  0
  151.2630  140.9246  155.8301 C   0  0  0  0  0  0  0  0  0  0  0  0
  150.5329  141.8237  156.6426 C   0  0  0  0  0  0  0  0  0  0  0  0
  151.1771  142.5232  157.6861 N   0  0  0  0  0  0  0  0  0  0  0  0
  152.2365  141.7970  158.3794 C   0  0  0  0  0  0  0  0  0  0  0  0
  152.5904  142.4991  159.7029 C   0  0  1  0  0  0  0  0  0  0  0  0
  153.7889  141.8422  160.3961 C   0  0  0  0  0  0  0  0  0  0  0  0
  152.9222  143.8634  159.4480 O   0  0  0  0  0  0  0  0  0  0  0  0
  151.8961  144.6169  158.7979 C   0  0  2  0  0  0  0  0  0  0  0  0
  150.7053  144.9035  159.7299 C   0  0  0  0  0  0  0  0  0  0  0  0
  151.4909  143.9351  157.4761 C   0  0  0  0  0  0  0  0  0  0  0  0
  149.2081  142.0352  156.4488 N   0  0  0  0  0  0  0  0  0  0  0  0
  148.5791  141.3754  155.4542 C   0  0  0  0  0  0  0  0  0  0  0  0
  143.8899  133.9440  150.7831 H   0  0  0  0  0  0  0  0  0  0  0  0
  145.6244  134.1544  150.5382 H   0  0  0  0  0  0  0  0  0  0  0  0
  144.4677  135.0761  149.5598 H   0  0  0  0  0  0  0  0  0  0  0  0
  146.5867  136.1901  151.0123 H   0  0  0  0  0  0  0  0  0  0  0  0
  145.3656  137.3406  150.4844 H   0  0  0  0  0  0  0  0  0  0  0  0
  144.9128  137.6776  153.0612 H   0  0  0  0  0  0  0  0  0  0  0  0
  146.4533  136.8861  153.2885 H   0  0  0  0  0  0  0  0  0  0  0  0
  147.4452  138.6437  151.6426 H   0  0  0  0  0  0  0  0  0  0  0  0
  145.9493  139.5272  151.8402 H   0  0  0  0  0  0  0  0  0  0  0  0
  148.9066  139.7072  152.7005 H   0  0  0  0  0  0  0  0  0  0  0  0
  151.1757  139.5673  154.1733 H   0  0  0  0  0  0  0  0  0  0  0  0
  152.3152  140.7459  155.9948 H   0  0  0  0  0  0  0  0  0  0  0  0
  151.9516  140.7670  158.5883 H   0  0  0  0  0  0  0  0  0  0  0  0
  153.1123  141.7558  157.7304 H   0  0  0  0  0  0  0  0  0  0  0  0
  151.7396  142.4479  160.3827 H   0  0  0  0  0  0  0  0  0  0  0  0
  153.5830  140.7972  160.6288 H   0  0  0  0  0  0  0  0  0  0  0  0
  154.0243  142.3506  161.3314 H   0  0  0  0  0  0  0  0  0  0  0  0
  154.6779  141.8766  159.7655 H   0  0  0  0  0  0  0  0  0  0  0  0
  152.3392  145.5816  158.5495 H   0  0  0  0  0  0  0  0  0  0  0  0
  150.0043  145.5923  159.2583 H   0  0  0  0  0  0  0  0  0  0  0  0
  151.0413  145.3613  160.6603 H   0  0  0  0  0  0  0  0  0  0  0  0
  150.1495  144.0006  159.9815 H   0  0  0  0  0  0  0  0  0  0  0  0
  152.3114  144.0076  156.7607 H   0  0  0  0  0  0  0  0  0  0  0  0
  150.6380  144.4582  157.0417 H   0  0  0  0  0  0  0  0  0  0  0  0
  147.5257  141.5872  155.3425 H   0  0  0  0  0  0  0  0  0  0  0  0
  1  2  1  0  0  0  0
  1 23  1  0  0  0  0
  1 24  1  0  0  0  0
  1 25  1  0  0  0  0
  2  3  1  0  0  0  0
  3  4  1  0  0  0  0
  3 26  1  0  0  0  0
  3 27  1  0  0  0  0
  4  5  1  0  0  0  0
  4 28  1  0  0  0  0
  4 29  1  0  0  0  0
  5  6  1  0  0  0  0
  5 30  1  0  0  0  0
  5 31  1  0  0  0  0
  6  7  2  0  0  0  0
  6  8  1  0  0  0  0
  8  9  1  0  0  0  0
  8 32  1  0  0  0  0
  9 22  1  0  0  0  0
  9 10  2  0  0  0  0
 10 11  1  0  0  0  0
 10 33  1  0  0  0  0
 11 12  2  0  0  0  0
 11 34  1  0  0  0  0
 12 13  1  0  0  0  0
 12 21  1  0  0  0  0
 13 20  1  0  0  0  0
 13 14  1  0  0  0  0
 14 15  1  0  0  0  0
 14 35  1  0  0  0  0
 14 36  1  0  0  0  0
 15 16  1  0  0  0  0
 15 17  1  0  0  0  0
 15 37  1  0  0  0  0
 16 38  1  0  0  0  0
 16 39  1  0  0  0  0
 16 40  1  0  0  0  0
 17 18  1  0  0  0  0
 18 19  1  0  0  0  0
 18 20  1  0  0  0  0
 18 41  1  0  0  0  0
 19 42  1  0  0  0  0
 19 43  1  0  0  0  0
 19 44  1  0  0  0  0
 20 45  1  0  0  0  0
 20 46  1  0  0  0  0
 21 22  2  0  0  0  0
 22 47  1  0  0  0  0
M  END
> <s_m_source_file>
AV-unprocessed.smi

> <i_m_source_file_index>
2015

> <i_lp_mmshare_version>
43012

> <i_f3d_flags>
0

> <s_epik_input>
W0NIM11PW0NIMl1bQ0gyXVtDSDJdQyg9TylbTkhdYzFbY0hdW2NIXWMobltjSF0xKU4yW0NIMl1bQ0BASF0oW0NIM10pT1tDQEBIXShbQ0gzXSlbQ0gyXTI=

> <s_epik_cmdline>
J2VwaWtfcHl0aG9uJywgJy1waCcsICc3LjAnLCAnLXRuJywgJzgnLCAnLW1hJywgJzIwMCcsICctbWV0YWxfYmluZGluZycsICctaW1hZScsICc8aW5maWxlLm1hZT4nLCAnLW9tYWUnLCAnPG91dGZpbGUubWFlPic=

> <r_lp_tautomer_probability>
1

> <r_epik_Ionization_Penalty>
0.000816358

> <r_epik_Ionization_Penalty_Charging>
0

> <r_epik_Ionization_Penalty_Neutral>
0.000816358

> <r_epik_State_Penalty>
0.000521115

> <r_epik_Charging_Adjusted_Penalty>
0.000521115

> <i_epik_Tot_Q>
0

> <i_epik_Tot_abs_Q>
0

> <r_epik_Metal_State_Penalty>
-0

> <b_epik_Metal_Only>
0

> <s_lp_Force_Field>
OPLS_2005

> <r_lp_Energy>
24.6812

> <b_lp_Chiralities_Consistent>
1

> <s_lp_Variant>
AV-unprocessed.smi:2015-3

> <Gold.Version>
5.8.1

> <Gold.Id.Protein>
6NUR|6NUR_protein|mol2

> <Gold.PLP.Fitness>
47.8728

> <Gold.PLP.PLP>
-46.6930

> <Gold.PLP.part.hbond>
-1.0000

> <Gold.PLP.part.metal>
0.0000

> <Gold.PLP.part.buried>
-2.6947

> <Gold.PLP.part.nonpolar>
-45.7359

> <Gold.PLP.part.repulsive>
2.8646

> <Gold.PLP.ligand.clash>
0.0000

> <Gold.PLP.ligand.torsion>
1.0873

> <Gold.PLP.Chemscore.Hbond>
0.9920

> <Gold.PLP.Chemscore.CHOScore>
0.0000

> <Gold.PLP.Chemscore.Metal>
0.0000

> <Gold.Chemscore.Hbonds>
donor molecule, donor type, donor heavy atom, donor atom, acceptor molecule, acceptor atom, score
      L1  H     8    32       P1  7957  1.00

> <Gold.PLP.Chemscore.Internal.Correction>
0.3783

> <Gold.Rescore>
     Score         DG    S(hbond)    S(metal)    S(lipo)     H(rot)  DE(clash)    DE(int)     intcor
     15.27     -17.68       0.94        0.00     114.27       1.68       0.27       2.14       ----

> <Gold.Chemscore.Fitness>
15.2657

> <Gold.Chemscore.DG>
-17.6814

> <Gold.Chemscore.ZeroCoef>
-5.4800

> <Gold.Chemscore.Hbond>
0.9399

> <Gold.Chemscore.Metal>
0.0000

> <Gold.Chemscore.Lipo>
114.2730

> <Gold.Chemscore.Internal_Hbond>
0.0000

> <Gold.Chemscore.DEClash>
0.2743

> <Gold.Chemscore.DEInternal>
2.1414

> <Gold.Chemscore.Rot>
1.6827

> <Gold.Chemscore.Internal.Correction>
   9.000000E+99

> <Gold.Chemscore.Hbonds>
donor molecule, donor type, donor heavy atom, donor atom, acceptor molecule, acceptor atom, score
      L1  H     8    32       P1  7957  1.00

> <Gold.Chemscore.Hbond.Weighted>
-3.1393

> <Gold.Chemscore.Metal.Weighted>
-0.0000

> <Gold.Chemscore.Lipo.Weighted>
-13.3699

> <Gold.Chemscore.Internal_Hbond.Weighted>
0.0000

> <Gold.Chemscore.DEClash.Weighted>
0.2743

> <Gold.Chemscore.DEInternal.Weighted>
2.1414

> <Gold.Chemscore.Rot.Weighted>
4.3078

> <Gold.Chemscore.Internal.Correction.Weighted>
   9.000000E+99

> <Gold.Protein.RotatedTorsions>
[ 6907 6896 6895 6894 ] final   57.41 input  -60.11 | X-H torsion
[ 7974 7965 7964 7962 ] final -106.57 input  175.53 | X-H torsion
[ 8008 7997 7996 7995 ] final   93.43 input   59.86 | X-H torsion
[ 10167 10162 10161 10158 ] final  -91.02 input  -65.29 | X-H torsion
[ 10718 10713 10712 10709 ] final  109.87 input   66.30 | X-H torsion
[ 10763 10752 10751 10750 ] final  -23.55 input  -60.55 | X-H torsion
[ 11005 11000 10999 10996 ] final   63.51 input  -57.11 | X-H torsion

> <Gold.Protein.ActiveResidues>
 VAL166  LYS551  ARG553  GLY616  TRP617  ASP618  TYR619  PRO620  LYS621  CYS622 
 ASP623  PHE694  ASN695  SER759  ASP760  ASP761  ALA762  ILE779  LEU786  VAL792 
 PHE793  MET794  SER795  GLU796  ALA797  LYS798  CYS799  TRP800  GLU811  SER814 

> <Gold.Protein.RotatedAtoms>
  152.3729  134.6707  160.0169 H   0  0  0  0  0  0  0  0  0  0  0  0  # atno 6907 bound_to 6896
  151.6994  133.3305  159.3271 H   0  0  0  0  0  0  0  0  0  0  0  0  # atno 6908 bound_to 6896
  150.7687  134.6564  159.6360 H   0  0  0  0  0  0  0  0  0  0  0  0  # atno 6909 bound_to 6896
  145.2162  140.9116  143.3286 H   0  0  0  0  0  0  0  0  0  0  0  0  # atno 7974 bound_to 7965
  156.0467  140.3313  155.7304 H   0  0  0  0  0  0  0  0  0  0  0  0  # atno 8008 bound_to 7997
  155.5663  140.0623  157.2834 H   0  0  0  0  0  0  0  0  0  0  0  0  # atno 8009 bound_to 7997
  154.4417  140.1868  156.0822 H   0  0  0  0  0  0  0  0  0  0  0  0  # atno 8010 bound_to 7997
  140.3491  143.2901  151.9747 H   0  0  0  0  0  0  0  0  0  0  0  0  # atno 10167 bound_to 10162
  157.6521  131.0922  150.6517 H   0  0  0  0  0  0  0  0  0  0  0  0  # atno 10718 bound_to 10713
  153.6696  135.6972  153.5151 H   0  0  0  0  0  0  0  0  0  0  0  0  # atno 10763 bound_to 10752
  153.2568  135.4257  155.0853 H   0  0  0  0  0  0  0  0  0  0  0  0  # atno 10764 bound_to 10752
  154.8430  135.3545  154.6240 H   0  0  0  0  0  0  0  0  0  0  0  0  # atno 10765 bound_to 10752
  140.0020  134.6428  155.9916 H   0  0  0  0  0  0  0  0  0  0  0  0  # atno 11005 bound_to 11000
  144.9808  139.3785  143.6263 LP  0  0  0  0  0  0  0  0  0  0  0  0  # atno 17320 bound_to 7965
  146.3386  139.8949  142.8803 LP  0  0  0  0  0  0  0  0  0  0  0  0  # atno 17321 bound_to 7965
  139.4829  144.6091  151.7466 LP  0  0  0  0  0  0  0  0  0  0  0  0  # atno 17342 bound_to 10162
  140.5236  144.0841  150.6030 LP  0  0  0  0  0  0  0  0  0  0  0  0  # atno 17343 bound_to 10162
  156.6827  130.4572  149.5623 LP  0  0  0  0  0  0  0  0  0  0  0  0  # atno 17370 bound_to 10713
  156.1917  130.6564  151.1069 LP  0  0  0  0  0  0  0  0  0  0  0  0  # atno 17371 bound_to 10713
  141.1649  133.6537  156.4444 LP  0  0  0  0  0  0  0  0  0  0  0  0  # atno 17394 bound_to 11000
  140.4711  134.6752  157.5129 LP  0  0  0  0  0  0  0  0  0  0  0  0  # atno 17395 bound_to 11000

$$$$
