AV-unprocessed.smi:1920|AV-procd|sdf|7781|dock1
  -GOLD-   22720 9523D 1   1.00000     0.00000
 Structure written by MMmdl.
 36 37  0  0  0  0  0  0  0  0  1 V2000
  148.3884  141.5827  154.2801 C   0  0  0  0  0  0  0  0  0  0  0  0
  149.6433  141.2527  155.1052 C   0  0  2  0  0  0  0  0  0  0  0  0
  149.5852  139.8545  155.7594 C   0  0  0  0  0  0  0  0  0  0  0  0
  150.6779  138.9957  155.3430 N   0  0  0  0  0  0  0  0  0  0  0  0
  152.0295  139.1763  155.6068 C   0  0  0  0  0  0  0  0  0  0  0  0
  152.6887  138.1176  155.0239 C   0  0  0  0  0  0  0  0  0  0  0  0
  151.7676  137.2747  154.4062 N   0  0  0  0  0  0  0  0  0  0  0  0
  150.5987  137.8571  154.6404 C   0  0  0  0  0  0  0  0  0  0  0  0
  149.8299  142.2829  156.1231 N   0  0  0  0  0  0  0  0  0  0  0  0
  150.7078  142.2243  157.1367 C   0  0  0  0  0  0  0  0  0  0  0  0
  151.4652  141.2715  157.3216 O   0  0  0  0  0  0  0  0  0  0  0  0
  150.7359  143.4263  158.0872 C   0  0  0  0  0  0  0  0  0  0  0  0
  151.9931  143.4774  158.9827 C   0  0  2  0  0  0  0  0  0  0  0  0
  152.2072  142.2238  159.7967 C   0  0  0  0  0  0  0  0  0  0  0  0
  152.3322  142.4707  161.0986 C   0  0  0  0  0  0  0  0  0  0  0  0
  152.2267  143.9356  161.4199 C   0  0  0  0  0  0  0  0  0  0  0  0
  151.9324  144.5963  160.0544 C   0  0  0  0  0  0  0  0  0  0  0  0
  148.2618  140.8891  153.4486 H   0  0  0  0  0  0  0  0  0  0  0  0
  148.4504  142.5855  153.8563 H   0  0  0  0  0  0  0  0  0  0  0  0
  147.4879  141.5351  154.8931 H   0  0  0  0  0  0  0  0  0  0  0  0
  150.4974  141.2849  154.4260 H   0  0  0  0  0  0  0  0  0  0  0  0
  149.6218  139.9365  156.8464 H   0  0  0  0  0  0  0  0  0  0  0  0
  148.6425  139.3620  155.5158 H   0  0  0  0  0  0  0  0  0  0  0  0
  152.3990  140.0210  156.1695 H   0  0  0  0  0  0  0  0  0  0  0  0
  153.7461  137.8983  155.0039 H   0  0  0  0  0  0  0  0  0  0  0  0
  149.6631  137.4468  154.2893 H   0  0  0  0  0  0  0  0  0  0  0  0
  149.2486  143.1052  156.0494 H   0  0  0  0  0  0  0  0  0  0  0  0
  150.6815  144.3320  157.4825 H   0  0  0  0  0  0  0  0  0  0  0  0
  149.8406  143.4195  158.7112 H   0  0  0  0  0  0  0  0  0  0  0  0
  152.8803  143.6218  158.3642 H   0  0  0  0  0  0  0  0  0  0  0  0
  152.2649  141.2440  159.3452 H   0  0  0  0  0  0  0  0  0  0  0  0
  152.5025  141.7247  161.8607 H   0  0  0  0  0  0  0  0  0  0  0  0
  151.4258  144.1138  162.1380 H   0  0  0  0  0  0  0  0  0  0  0  0
  153.1647  144.2912  161.8470 H   0  0  0  0  0  0  0  0  0  0  0  0
  152.6532  145.3852  159.8371 H   0  0  0  0  0  0  0  0  0  0  0  0
  150.9475  145.0649  160.0770 H   0  0  0  0  0  0  0  0  0  0  0  0
  1  2  1  0  0  0  0
  1 18  1  0  0  0  0
  1 19  1  0  0  0  0
  1 20  1  0  0  0  0
  2  3  1  0  0  0  0
  2  9  1  0  0  0  0
  2 21  1  0  0  0  0
  3  4  1  0  0  0  0
  3 22  1  0  0  0  0
  3 23  1  0  0  0  0
  4  8  1  0  0  0  0
  4  5  1  0  0  0  0
  5  6  2  0  0  0  0
  5 24  1  0  0  0  0
  6  7  1  0  0  0  0
  6 25  1  0  0  0  0
  7  8  2  0  0  0  0
  8 26  1  0  0  0  0
  9 10  1  0  0  0  0
  9 27  1  0  0  0  0
 10 11  2  0  0  0  0
 10 12  1  0  0  0  0
 12 13  1  0  0  0  0
 12 28  1  0  0  0  0
 12 29  1  0  0  0  0
 13 17  1  0  0  0  0
 13 14  1  0  0  0  0
 13 30  1  0  0  0  0
 14 15  2  0  0  0  0
 14 31  1  0  0  0  0
 15 16  1  0  0  0  0
 15 32  1  0  0  0  0
 16 17  1  0  0  0  0
 16 33  1  0  0  0  0
 16 34  1  0  0  0  0
 17 35  1  0  0  0  0
 17 36  1  0  0  0  0
M  END
> <s_m_source_file>
AV-unprocessed.smi

> <i_m_source_file_index>
1920

> <i_lp_mmshare_version>
43012

> <i_f3d_flags>
0

> <s_epik_input>
W2NIXTFuW2NIXVtjSF1uMVtDSDJdW0NAQEhdKFtDSDNdKVtOSF1DKD1PKVtDSDJdW0NAQEhdMltDSF09W0NIXVtDSDJdW0NIMl0y

> <s_epik_cmdline>
J2VwaWtfcHl0aG9uJywgJy1waCcsICc3LjAnLCAnLXRuJywgJzgnLCAnLW1hJywgJzIwMCcsICctbWV0YWxfYmluZGluZycsICctaW1hZScsICc8aW5maWxlLm1hZT4nLCAnLW9tYWUnLCAnPG91dGZpbGUubWFlPic=

> <r_lp_tautomer_probability>
1

> <r_epik_Ionization_Penalty>
0.635367

> <r_epik_Ionization_Penalty_Charging>
0.635367

> <r_epik_Ionization_Penalty_Neutral>
2.1249e-08

> <r_epik_State_Penalty>
0.65258

> <r_epik_Charging_Adjusted_Penalty>
1.28795

> <i_epik_Tot_Q>
0

> <i_epik_Tot_abs_Q>
0

> <r_epik_Metal_State_Penalty>
0.310403

> <b_epik_Metal_Only>
0

> <s_lp_Force_Field>
OPLS_2005

> <r_lp_Energy>
18.8766

> <b_lp_Chiralities_Consistent>
1

> <s_lp_Variant>
AV-unprocessed.smi:1920-5

> <Gold.Version>
5.8.1

> <Gold.Id.Protein>
6NUR|6NUR_protein|mol2

> <Gold.PLP.Fitness>
50.2534

> <Gold.PLP.PLP>
-44.4541

> <Gold.PLP.part.hbond>
-2.0000

> <Gold.PLP.part.metal>
0.0000

> <Gold.PLP.part.buried>
-3.7618

> <Gold.PLP.part.nonpolar>
-40.1757

> <Gold.PLP.part.repulsive>
0.6231

> <Gold.PLP.ligand.clash>
0.0000

> <Gold.PLP.ligand.torsion>
1.1196

> <Gold.PLP.Chemscore.Hbond>
1.9600

> <Gold.PLP.Chemscore.CHOScore>
0.6663

> <Gold.PLP.Chemscore.Metal>
0.0000

> <Gold.Chemscore.Hbonds>
donor molecule, donor type, donor heavy atom, donor atom, acceptor molecule, acceptor atom, score
      L1  H     9    27       P1  8028  1.00
      P1  H 10752 10765       L1     7  0.85
      L1  C     8    26       P1  7948  0.38

> <Gold.PLP.Chemscore.Internal.Correction>
0.1597

> <Gold.Rescore>
     Score         DG    S(hbond)    S(metal)    S(lipo)     H(rot)  DE(clash)    DE(int)     intcor
     13.33     -18.49       1.68        0.00     105.55       1.93       0.05       5.12       ----

> <Gold.Chemscore.Fitness>
13.3337

> <Gold.Chemscore.DG>
-18.4942

> <Gold.Chemscore.ZeroCoef>
-5.4800

> <Gold.Chemscore.Hbond>
1.6789

> <Gold.Chemscore.Metal>
0.0000

> <Gold.Chemscore.Lipo>
105.5481

> <Gold.Chemscore.Internal_Hbond>
0.0000

> <Gold.Chemscore.DEClash>
0.0451

> <Gold.Chemscore.DEInternal>
5.1154

> <Gold.Chemscore.Rot>
1.9306

> <Gold.Chemscore.Internal.Correction>
   9.000000E+99

> <Gold.Chemscore.Hbonds>
donor molecule, donor type, donor heavy atom, donor atom, acceptor molecule, acceptor atom, score
      L1  H     9    27       P1  8028  0.98
      P1  H 10752 10765       L1     7  0.13

> <Gold.Chemscore.Hbond.Weighted>
-5.6075

> <Gold.Chemscore.Metal.Weighted>
-0.0000

> <Gold.Chemscore.Lipo.Weighted>
-12.3491

> <Gold.Chemscore.Internal_Hbond.Weighted>
0.0000

> <Gold.Chemscore.DEClash.Weighted>
0.0451

> <Gold.Chemscore.DEInternal.Weighted>
5.1154

> <Gold.Chemscore.Rot.Weighted>
4.9424

> <Gold.Chemscore.Internal.Correction.Weighted>
   9.000000E+99

> <Gold.Protein.RotatedTorsions>
[ 6907 6896 6895 6894 ] final  127.93 input  -60.11 | X-H torsion
[ 7974 7965 7964 7962 ] final   -9.97 input  175.53 | X-H torsion
[ 8008 7997 7996 7995 ] final  126.02 input   59.86 | X-H torsion
[ 10167 10162 10161 10158 ] final   81.18 input  -65.29 | X-H torsion
[ 10718 10713 10712 10709 ] final -154.80 input   66.30 | X-H torsion
[ 10763 10752 10751 10750 ] final  152.50 input  -60.55 | X-H torsion
[ 11005 11000 10999 10996 ] final   31.41 input  -57.11 | X-H torsion

> <Gold.Protein.ActiveResidues>
 VAL166  LYS551  ARG553  GLY616  TRP617  ASP618  TYR619  PRO620  LYS621  CYS622 
 ASP623  PHE694  ASN695  SER759  ASP760  ASP761  ALA762  ILE779  LEU786  VAL792 
 PHE793  MET794  SER795  GLU796  ALA797  LYS798  CYS799  TRP800  GLU811  SER814 

> <Gold.Protein.RotatedAtoms>
  152.3767  133.6490  159.6128 H   0  0  0  0  0  0  0  0  0  0  0  0  # atno 6907 bound_to 6896
  150.7709  133.9182  159.3399 H   0  0  0  0  0  0  0  0  0  0  0  0  # atno 6908 bound_to 6896
  151.6995  135.0934  160.0299 H   0  0  0  0  0  0  0  0  0  0  0  0  # atno 6909 bound_to 6896
  146.2235  140.2695  142.8356 H   0  0  0  0  0  0  0  0  0  0  0  0  # atno 7974 bound_to 7965
  156.2851  140.2702  156.2043 H   0  0  0  0  0  0  0  0  0  0  0  0  # atno 8008 bound_to 7997
  155.0329  140.0386  157.2499 H   0  0  0  0  0  0  0  0  0  0  0  0  # atno 8009 bound_to 7997
  154.7339  140.2712  155.6437 H   0  0  0  0  0  0  0  0  0  0  0  0  # atno 8010 bound_to 7997
  139.9420  144.6084  150.8243 H   0  0  0  0  0  0  0  0  0  0  0  0  # atno 10167 bound_to 10162
  156.5043  130.8405  151.2621 H   0  0  0  0  0  0  0  0  0  0  0  0  # atno 10718 bound_to 10713
  154.1210  135.2833  155.3208 H   0  0  0  0  0  0  0  0  0  0  0  0  # atno 10763 bound_to 10752
  154.6423  135.5398  153.7807 H   0  0  0  0  0  0  0  0  0  0  0  0  # atno 10764 bound_to 10752
  153.0313  135.6489  154.1364 H   0  0  0  0  0  0  0  0  0  0  0  0  # atno 10765 bound_to 10752
  140.2842  134.2938  155.7792 H   0  0  0  0  0  0  0  0  0  0  0  0  # atno 11005 bound_to 11000
  144.9279  140.7942  143.5708 LP  0  0  0  0  0  0  0  0  0  0  0  0  # atno 17320 bound_to 7965
  145.2636  139.1982  143.4879 LP  0  0  0  0  0  0  0  0  0  0  0  0  # atno 17321 bound_to 7965
  140.7608  143.3160  151.2733 LP  0  0  0  0  0  0  0  0  0  0  0  0  # atno 17342 bound_to 10162
  139.6697  144.0042  152.2745 LP  0  0  0  0  0  0  0  0  0  0  0  0  # atno 17343 bound_to 10162
  157.7459  130.9971  150.2804 LP  0  0  0  0  0  0  0  0  0  0  0  0  # atno 17370 bound_to 10713
  156.3302  130.3799  149.7497 LP  0  0  0  0  0  0  0  0  0  0  0  0  # atno 17371 bound_to 10713
  141.2157  133.7544  156.9526 LP  0  0  0  0  0  0  0  0  0  0  0  0  # atno 17394 bound_to 11000
  140.1255  134.9389  157.2264 LP  0  0  0  0  0  0  0  0  0  0  0  0  # atno 17395 bound_to 11000

$$$$
