AV-unprocessed.smi:1208|AV-procd|sdf|5062|dock8
  -GOLD-   22720 4103D 1   1.00000     0.00000
 Structure written by MMmdl.
 35 36  0  0  0  0  0  0  0  0  2 V2000
  153.7225  141.0638  161.1378 C   0  0  0  0  0  0  0  0  0  0  0  0
  153.4102  141.7150  159.7829 C   0  0  1  0  0  0  0  0  0  0  0  0
  152.1883  141.1233  159.2436 N   0  0  0  0  0  0  0  0  0  0  0  0
  152.1145  140.2763  158.2050 C   0  0  0  0  0  0  0  0  0  0  0  0
  153.1005  139.8220  157.6237 O   0  0  0  0  0  0  0  0  0  0  0  0
  150.7032  139.8874  157.7529 C   0  0  0  0  0  0  0  0  0  0  0  0
  150.7158  138.6203  157.0113 N   0  0  0  0  0  0  0  0  0  0  0  0
  150.4107  137.4583  157.8430 N   0  5  0  0  0  0  0  0  0  0  0  0
  150.2869  136.2384  157.2568 C   0  0  0  0  0  0  0  0  0  0  0  0
  149.9927  135.2242  157.8852 O   0  0  0  0  0  0  0  0  0  0  0  0
  150.5207  136.1408  155.8257 C   0  0  0  0  0  0  0  0  0  0  0  0
  150.8375  137.2238  155.0890 C   0  0  0  0  0  0  0  0  0  0  0  0
  150.9525  138.5562  155.6699 C   0  0  0  0  0  0  0  0  0  0  0  0
  151.2289  139.5505  154.9991 O   0  0  0  0  0  0  0  0  0  0  0  0
  153.2492  143.2454  159.9048 C   0  0  2  0  0  0  0  0  0  0  0  0
  152.1578  143.7125  160.8719 C   0  0  0  0  0  0  0  0  0  0  0  0
  151.8564  145.0960  160.3461 C   0  0  0  0  0  0  0  0  0  0  0  0
  151.9554  144.8822  158.8386 C   0  0  0  0  0  0  0  0  0  0  0  0
  152.8808  143.8140  158.6496 O   0  0  0  0  0  0  0  0  0  0  0  0
  154.6474  141.4576  161.5596 H   0  0  0  0  0  0  0  0  0  0  0  0
  153.8427  139.9848  161.0361 H   0  0  0  0  0  0  0  0  0  0  0  0
  152.9250  141.2448  161.8593 H   0  0  0  0  0  0  0  0  0  0  0  0
  154.2483  141.5071  159.1154 H   0  0  0  0  0  0  0  0  0  0  0  0
  151.3178  141.4386  159.6469 H   0  0  0  0  0  0  0  0  0  0  0  0
  150.0558  139.8218  158.6289 H   0  0  0  0  0  0  0  0  0  0  0  0
  150.2754  140.6809  157.1367 H   0  0  0  0  0  0  0  0  0  0  0  0
  150.4422  135.1776  155.3433 H   0  0  0  0  0  0  0  0  0  0  0  0
  151.0048  137.1038  154.0289 H   0  0  0  0  0  0  0  0  0  0  0  0
  154.1967  143.6966  160.2051 H   0  0  0  0  0  0  0  0  0  0  0  0
  151.2714  143.0817  160.7888 H   0  0  0  0  0  0  0  0  0  0  0  0
  152.4811  143.7126  161.9138 H   0  0  0  0  0  0  0  0  0  0  0  0
  150.8841  145.4749  160.6619 H   0  0  0  0  0  0  0  0  0  0  0  0
  152.6228  145.7968  160.6799 H   0  0  0  0  0  0  0  0  0  0  0  0
  150.9905  144.5768  158.4324 H   0  0  0  0  0  0  0  0  0  0  0  0
  152.2740  145.7828  158.3132 H   0  0  0  0  0  0  0  0  0  0  0  0
  1  2  1  0  0  0  0
  1 20  1  0  0  0  0
  1 21  1  0  0  0  0
  1 22  1  0  0  0  0
  2  3  1  0  0  0  0
  2 15  1  0  0  0  0
  2 23  1  0  0  0  0
  3  4  1  0  0  0  0
  3 24  1  0  0  0  0
  4  5  2  0  0  0  0
  4  6  1  0  0  0  0
  6 25  1  0  0  0  0
  6 26  1  0  0  0  0
  6  7  1  0  0  0  0
  7  8  1  0  0  0  0
  7 13  1  0  0  0  0
  8  9  1  0  0  0  0
  9 10  2  0  0  0  0
  9 11  1  0  0  0  0
 11 27  1  0  0  0  0
 11 12  2  0  0  0  0
 12 28  1  0  0  0  0
 12 13  1  0  0  0  0
 13 14  2  0  0  0  0
 15 19  1  0  0  0  0
 15 16  1  0  0  0  0
 15 29  1  0  0  0  0
 16 17  1  0  0  0  0
 16 30  1  0  0  0  0
 16 31  1  0  0  0  0
 17 18  1  0  0  0  0
 17 32  1  0  0  0  0
 17 33  1  0  0  0  0
 18 19  1  0  0  0  0
 18 34  1  0  0  0  0
 18 35  1  0  0  0  0
M  CHG  1   8  -1
M  END
> <s_m_source_file>
AV-unprocessed.smi

> <i_m_source_file_index>
1208

> <i_lp_mmshare_version>
43012

> <i_f3d_flags>
0

> <s_epik_input>
TzFbQ0gyXVtDSDJdW0NIMl1bQ0BIXTFbQ0BIXShbQ0gzXSlbTkhdQyg9TylbQ0gyXW4yW25IXWMoPU8pW2NIXVtjSF1jMj1P

> <s_epik_cmdline>
J2VwaWtfcHl0aG9uJywgJy1waCcsICc3LjAnLCAnLXRuJywgJzgnLCAnLW1hJywgJzIwMCcsICctbWV0YWxfYmluZGluZycsICctaW1hZScsICc8aW5maWxlLm1hZT4nLCAnLW9tYWUnLCAnPG91dGZpbGUubWFlPic=

> <r_lp_tautomer_probability>
1

> <r_epik_Ionization_Penalty>
0.0975494

> <r_epik_Ionization_Penalty_Charging>
0.0975494

> <r_epik_Ionization_Penalty_Neutral>
2.30132e-08

> <r_epik_State_Penalty>
0.034345

> <r_epik_Charging_Adjusted_Penalty>
0.131894

> <i_epik_Tot_Q>
-1

> <i_epik_Tot_abs_Q>
1

> <r_epik_Metal_State_Penalty>
0.034345

> <b_epik_Metal_Only>
0

> <s_lp_Force_Field>
OPLS_2005

> <r_lp_Energy>
33.0818

> <b_lp_Chiralities_Consistent>
1

> <s_lp_Variant>
AV-unprocessed.smi:1208-2

> <Gold.Version>
5.8.1

> <Gold.Id.Protein>
6NUR|6NUR_protein|mol2

> <Gold.PLP.Fitness>
43.5061

> <Gold.PLP.PLP>
-36.4254

> <Gold.PLP.part.hbond>
-3.0000

> <Gold.PLP.part.metal>
0.0000

> <Gold.PLP.part.buried>
-5.6090

> <Gold.PLP.part.nonpolar>
-28.3523

> <Gold.PLP.part.repulsive>
0.1741

> <Gold.PLP.ligand.clash>
0.0000

> <Gold.PLP.ligand.torsion>
0.7847

> <Gold.PLP.Chemscore.Hbond>
2.8800

> <Gold.PLP.Chemscore.CHOScore>
0.0000

> <Gold.PLP.Chemscore.Metal>
0.0000

> <Gold.Chemscore.Hbonds>
donor molecule, donor type, donor heavy atom, donor atom, acceptor molecule, acceptor atom, score
      P1  H  6896  6908       L1    10  0.86
      P1  H  7989  7998       L1    14  0.99
      P1  H  7997  8009       L1     5  1.00

> <Gold.PLP.Chemscore.Internal.Correction>
0.0101

> <Gold.Rescore>
     Score         DG    S(hbond)    S(metal)    S(lipo)     H(rot)  DE(clash)    DE(int)     intcor
     18.75     -19.53       2.81        0.00      83.40       1.99       0.00       0.77       ----

> <Gold.Chemscore.Fitness>
18.7538

> <Gold.Chemscore.DG>
-19.5280

> <Gold.Chemscore.ZeroCoef>
-5.4800

> <Gold.Chemscore.Hbond>
2.8130

> <Gold.Chemscore.Metal>
0.0000

> <Gold.Chemscore.Lipo>
83.3965

> <Gold.Chemscore.Internal_Hbond>
0.0000

> <Gold.Chemscore.DEClash>
0.0038

> <Gold.Chemscore.DEInternal>
0.7704

> <Gold.Chemscore.Rot>
1.9940

> <Gold.Chemscore.Internal.Correction>
   9.000000E+99

> <Gold.Chemscore.Hbonds>
donor molecule, donor type, donor heavy atom, donor atom, acceptor molecule, acceptor atom, score
      P1  H  6896  6908       L1    10  0.85
      P1  H  7989  7998       L1    14  0.92
      P1  H  7997  8009       L1     5  0.98

> <Gold.Chemscore.Hbond.Weighted>
-9.3953

> <Gold.Chemscore.Metal.Weighted>
-0.0000

> <Gold.Chemscore.Lipo.Weighted>
-9.7574

> <Gold.Chemscore.Internal_Hbond.Weighted>
0.0000

> <Gold.Chemscore.DEClash.Weighted>
0.0038

> <Gold.Chemscore.DEInternal.Weighted>
0.7704

> <Gold.Chemscore.Rot.Weighted>
5.1047

> <Gold.Chemscore.Internal.Correction.Weighted>
   9.000000E+99

> <Gold.Protein.RotatedTorsions>
[ 6907 6896 6895 6894 ] final  158.16 input  -60.11 | X-H torsion
[ 7974 7965 7964 7962 ] final  -36.54 input  175.53 | X-H torsion
[ 8008 7997 7996 7995 ] final  158.71 input   59.86 | X-H torsion
[ 10167 10162 10161 10158 ] final  -61.68 input  -65.29 | X-H torsion
[ 10718 10713 10712 10709 ] final -176.12 input   66.30 | X-H torsion
[ 10763 10752 10751 10750 ] final  179.99 input  -60.55 | X-H torsion
[ 11005 11000 10999 10996 ] final  -11.64 input  -57.11 | X-H torsion

> <Gold.Protein.ActiveResidues>
 VAL166  LYS551  ARG553  GLY616  TRP617  ASP618  TYR619  PRO620  LYS621  CYS622 
 ASP623  PHE694  ASN695  SER759  ASP760  ASP761  ALA762  ILE779  LEU786  VAL792 
 PHE793  MET794  SER795  GLU796  ALA797  LYS798  CYS799  TRP800  GLU811  SER814 

> <Gold.Protein.RotatedAtoms>
  152.0045  133.3838  159.4194 H   0  0  0  0  0  0  0  0  0  0  0  0  # atno 6907 bound_to 6896
  150.6906  134.3797  159.5038 H   0  0  0  0  0  0  0  0  0  0  0  0  # atno 6908 bound_to 6896
  152.1549  134.8958  160.0596 H   0  0  0  0  0  0  0  0  0  0  0  0  # atno 6909 bound_to 6896
  146.0653  140.6290  142.8978 H   0  0  0  0  0  0  0  0  0  0  0  0  # atno 7974 bound_to 7965
  156.2285  140.1851  156.7302 H   0  0  0  0  0  0  0  0  0  0  0  0  # atno 8008 bound_to 7997
  154.5982  140.0640  156.9360 H   0  0  0  0  0  0  0  0  0  0  0  0  # atno 8009 bound_to 7997
  155.2219  140.3308  155.4317 H   0  0  0  0  0  0  0  0  0  0  0  0  # atno 8010 bound_to 7997
  140.5989  143.2357  151.5973 H   0  0  0  0  0  0  0  0  0  0  0  0  # atno 10167 bound_to 10162
  156.8099  130.9582  151.3116 H   0  0  0  0  0  0  0  0  0  0  0  0  # atno 10718 bound_to 10713
  154.5277  135.2798  155.1207 H   0  0  0  0  0  0  0  0  0  0  0  0  # atno 10763 bound_to 10752
  154.2739  135.6298  153.5324 H   0  0  0  0  0  0  0  0  0  0  0  0  # atno 10764 bound_to 10752
  152.9950  135.5635  154.5783 H   0  0  0  0  0  0  0  0  0  0  0  0  # atno 10765 bound_to 10752
  140.7573  133.8543  155.9095 H   0  0  0  0  0  0  0  0  0  0  0  0  # atno 11005 bound_to 11000
  144.7198  140.4336  143.7016 LP  0  0  0  0  0  0  0  0  0  0  0  0  # atno 17320 bound_to 7965
  145.6489  139.1561  143.2873 LP  0  0  0  0  0  0  0  0  0  0  0  0  # atno 17321 bound_to 7965
  139.5277  144.3008  152.1075 LP  0  0  0  0  0  0  0  0  0  0  0  0  # atno 17342 bound_to 10162
  140.2185  144.4490  150.6352 LP  0  0  0  0  0  0  0  0  0  0  0  0  # atno 17343 bound_to 10162
  157.6511  130.8885  149.9635 LP  0  0  0  0  0  0  0  0  0  0  0  0  # atno 17370 bound_to 10713
  156.1050  130.3653  150.0149 LP  0  0  0  0  0  0  0  0  0  0  0  0  # atno 17371 bound_to 10713
  140.9695  134.1550  157.4588 LP  0  0  0  0  0  0  0  0  0  0  0  0  # atno 17394 bound_to 11000
  139.8777  134.9973  156.5842 LP  0  0  0  0  0  0  0  0  0  0  0  0  # atno 17395 bound_to 11000

$$$$
