AV-unprocessed.smi:581|AV-procd|sdf|2992|dock8
  -GOLD-   2262023493D 1   1.00000     0.00000
 Structure written by MMmdl.
 35 36  0  0  0  0  0  0  0  0  2 V2000
  153.0333  138.0533  158.0015 C   0  0  0  0  0  0  0  0  0  0  0  0
  152.3202  139.1991  157.3041 C   0  0  0  0  0  0  0  0  0  0  0  0
  152.3175  140.3827  158.0188 N   0  0  0  0  0  0  0  0  0  0  0  0
  151.6853  141.4971  157.4842 C   0  0  0  0  0  0  0  0  0  0  0  0
  151.7624  142.6374  158.2808 N   0  0  0  0  0  0  0  0  0  0  0  0
  152.8358  142.7720  159.2642 C   0  0  0  0  0  0  0  0  0  0  0  0
  152.4838  143.8213  160.3320 C   0  0  0  0  0  0  0  0  0  0  0  0
  152.1860  145.0615  159.7036 O   0  0  0  0  0  0  0  0  0  0  0  0
  151.0685  144.9488  158.8321 C   0  0  0  0  0  0  0  0  0  0  0  0
  151.3782  143.9321  157.7203 C   0  0  0  0  0  0  0  0  0  0  0  0
  151.0784  141.4862  156.3333 N   0  0  0  0  0  0  0  0  0  0  0  0
  151.0368  140.3132  155.5644 C   0  0  0  0  0  0  0  0  0  0  0  0
  150.4401  140.3019  154.4889 O   0  0  0  0  0  0  0  0  0  0  0  0
  151.7215  139.1111  156.0912 C   0  0  0  0  0  0  0  0  0  0  0  0
  151.6854  137.8160  155.2729 C   0  0  0  0  0  0  0  0  0  0  0  0
  150.6189  136.7931  155.7257 C   0  0  0  0  0  0  0  0  0  0  0  0
  151.0933  135.9258  156.8941 C   0  0  0  0  0  0  0  0  0  0  0  0
  152.1328  135.2528  156.7188 O   0  0  0  0  0  0  0  0  0  0  0  0
  150.4085  135.9523  157.9397 O   0  5  0  0  0  0  0  0  0  0  0  0
  152.7918  140.3971  158.9094 H   0  0  0  0  0  0  0  0  0  0  0  0
  153.9209  137.7569  157.4437 H   0  0  0  0  0  0  0  0  0  0  0  0
  152.3753  137.1895  158.0964 H   0  0  0  0  0  0  0  0  0  0  0  0
  153.3543  138.3352  159.0051 H   0  0  0  0  0  0  0  0  0  0  0  0
  153.7551  143.0568  158.7506 H   0  0  0  0  0  0  0  0  0  0  0  0
  153.0247  141.8129  159.7489 H   0  0  0  0  0  0  0  0  0  0  0  0
  151.6358  143.4927  160.9354 H   0  0  0  0  0  0  0  0  0  0  0  0
  153.3238  143.9609  161.0124 H   0  0  0  0  0  0  0  0  0  0  0  0
  150.1814  144.6518  159.3936 H   0  0  0  0  0  0  0  0  0  0  0  0
  150.8578  145.9263  158.3983 H   0  0  0  0  0  0  0  0  0  0  0  0
  150.5081  143.8347  157.0702 H   0  0  0  0  0  0  0  0  0  0  0  0
  152.1950  144.3003  157.0979 H   0  0  0  0  0  0  0  0  0  0  0  0
  152.6663  137.3393  155.2655 H   0  0  0  0  0  0  0  0  0  0  0  0
  151.5016  138.0728  154.2302 H   0  0  0  0  0  0  0  0  0  0  0  0
  149.6951  137.2976  156.0067 H   0  0  0  0  0  0  0  0  0  0  0  0
  150.3632  136.1392  154.8915 H   0  0  0  0  0  0  0  0  0  0  0  0
  1 21  1  0  0  0  0
  1 22  1  0  0  0  0
  1 23  1  0  0  0  0
  1  2  1  0  0  0  0
  2 14  2  0  0  0  0
  2  3  1  0  0  0  0
  3 20  1  0  0  0  0
  3  4  1  0  0  0  0
  4  5  1  0  0  0  0
  4 11  2  0  0  0  0
  5 10  1  0  0  0  0
  5  6  1  0  0  0  0
  6  7  1  0  0  0  0
  6 24  1  0  0  0  0
  6 25  1  0  0  0  0
  7  8  1  0  0  0  0
  7 26  1  0  0  0  0
  7 27  1  0  0  0  0
  8  9  1  0  0  0  0
  9 10  1  0  0  0  0
  9 28  1  0  0  0  0
  9 29  1  0  0  0  0
 10 30  1  0  0  0  0
 10 31  1  0  0  0  0
 11 12  1  0  0  0  0
 12 13  2  0  0  0  0
 12 14  1  0  0  0  0
 14 15  1  0  0  0  0
 15 16  1  0  0  0  0
 15 32  1  0  0  0  0
 15 33  1  0  0  0  0
 16 17  1  0  0  0  0
 16 34  1  0  0  0  0
 16 35  1  0  0  0  0
 17 18  2  0  0  0  0
 17 19  1  0  0  0  0
M  CHG  1  19  -1
M  END
> <s_m_source_file>
AV-unprocessed.smi

> <i_m_source_file_index>
581

> <i_lp_mmshare_version>
43012

> <i_f3d_flags>
0

> <s_epik_input>
W0NIMl0xW0NIMl1PW0NIMl1bQ0gyXU4xYyhuYzJbQ0gzXSlbbkhdYyg9TyljMltDSDJdW0NIMl1DKD1PKVtPSF0=

> <s_epik_cmdline>
J2VwaWtfcHl0aG9uJywgJy1waCcsICc3LjAnLCAnLXRuJywgJzgnLCAnLW1hJywgJzIwMCcsICctbWV0YWxfYmluZGluZycsICctaW1hZScsICc8aW5maWxlLm1hZT4nLCAnLW9tYWUnLCAnPG91dGZpbGUubWFlPic=

> <r_lp_tautomer_probability>
0.108306

> <r_epik_Ionization_Penalty>
0.0702858

> <r_epik_Ionization_Penalty_Charging>
0.050334

> <r_epik_Ionization_Penalty_Neutral>
0.0199519

> <r_epik_State_Penalty>
1.38976

> <r_epik_Charging_Adjusted_Penalty>
1.44009

> <i_epik_Tot_Q>
-1

> <i_epik_Tot_abs_Q>
1

> <r_epik_Metal_State_Penalty>
1.61644

> <b_epik_Metal_Only>
0

> <s_lp_Force_Field>
OPLS_2005

> <r_lp_Energy>
27.984

> <b_lp_Chiralities_Consistent>
1

> <s_lp_Variant>
AV-unprocessed.smi:581-2

> <Gold.Version>
5.8.1

> <Gold.Id.Protein>
6NUR|6NUR_protein|mol2

> <Gold.PLP.Fitness>
46.2196

> <Gold.PLP.PLP>
-33.8082

> <Gold.PLP.part.hbond>
-3.0000

> <Gold.PLP.part.metal>
0.0000

> <Gold.PLP.part.buried>
-5.3482

> <Gold.PLP.part.nonpolar>
-25.8730

> <Gold.PLP.part.repulsive>
0.3110

> <Gold.PLP.ligand.clash>
0.2223

> <Gold.PLP.ligand.torsion>
0.5619

> <Gold.PLP.Chemscore.Hbond>
4.4720

> <Gold.PLP.Chemscore.CHOScore>
0.0000

> <Gold.PLP.Chemscore.Metal>
0.0000

> <Gold.Chemscore.Hbonds>
donor molecule, donor type, donor heavy atom, donor atom, acceptor molecule, acceptor atom, score
      P1  H  6896  6908       L1    19  1.24
      P1  H  7989  7998       L1    13  1.00
      P1  H 10752 10765       L1    18  2.00

> <Gold.PLP.Chemscore.Internal.Correction>
0.3415

> <Gold.Rescore>
     Score         DG    S(hbond)    S(metal)    S(lipo)     H(rot)  DE(clash)    DE(int)     intcor
     16.81     -17.44       2.49        0.00      72.55       1.89       0.00       0.63       ----

> <Gold.Chemscore.Fitness>
16.8062

> <Gold.Chemscore.DG>
-17.4417

> <Gold.Chemscore.ZeroCoef>
-5.4800

> <Gold.Chemscore.Hbond>
2.4879

> <Gold.Chemscore.Metal>
0.0000

> <Gold.Chemscore.Lipo>
72.5471

> <Gold.Chemscore.Internal_Hbond>
0.0000

> <Gold.Chemscore.DEClash>
0.0029

> <Gold.Chemscore.DEInternal>
0.6326

> <Gold.Chemscore.Rot>
1.8890

> <Gold.Chemscore.Internal.Correction>
   9.000000E+99

> <Gold.Chemscore.Hbonds>
donor molecule, donor type, donor heavy atom, donor atom, acceptor molecule, acceptor atom, score
      P1  H  6896  6908       L1    19  0.60
      P1  H  7989  7998       L1    13  0.25
      P1  H 10752 10765       L1    18  0.96

> <Gold.Chemscore.Hbond.Weighted>
-8.3095

> <Gold.Chemscore.Metal.Weighted>
-0.0000

> <Gold.Chemscore.Lipo.Weighted>
-8.4880

> <Gold.Chemscore.Internal_Hbond.Weighted>
0.0000

> <Gold.Chemscore.DEClash.Weighted>
0.0029

> <Gold.Chemscore.DEInternal.Weighted>
0.6326

> <Gold.Chemscore.Rot.Weighted>
4.8357

> <Gold.Chemscore.Internal.Correction.Weighted>
   9.000000E+99

> <Gold.Protein.RotatedTorsions>
[ 6907 6896 6895 6894 ] final -175.33 input  -60.11 | X-H torsion
[ 7974 7965 7964 7962 ] final  138.26 input  175.53 | X-H torsion
[ 8008 7997 7996 7995 ] final  100.12 input   59.86 | X-H torsion
[ 10167 10162 10161 10158 ] final  -90.35 input  -65.29 | X-H torsion
[ 10718 10713 10712 10709 ] final -110.71 input   66.30 | X-H torsion
[ 10763 10752 10751 10750 ] final -147.31 input  -60.55 | X-H torsion
[ 11005 11000 10999 10996 ] final  140.44 input  -57.11 | X-H torsion

> <Gold.Protein.ActiveResidues>
 VAL166  LYS551  ARG553  GLY616  TRP617  ASP618  TYR619  PRO620  LYS621  CYS622 
 ASP623  PHE694  ASN695  SER759  ASP760  ASP761  ALA762  ILE779  LEU786  VAL792 
 PHE793  MET794  SER795  GLU796  ALA797  LYS798  CYS799  TRP800  GLU811  SER814 

> <Gold.Protein.RotatedAtoms>
  151.5869  133.3371  159.3019 H   0  0  0  0  0  0  0  0  0  0  0  0  # atno 6907 bound_to 6896
  150.8282  134.7526  159.6842 H   0  0  0  0  0  0  0  0  0  0  0  0  # atno 6908 bound_to 6896
  152.4369  134.5675  159.9963 H   0  0  0  0  0  0  0  0  0  0  0  0  # atno 6909 bound_to 6896
  144.9389  139.4955  143.5581 H   0  0  0  0  0  0  0  0  0  0  0  0  # atno 7974 bound_to 7965
  156.1172  140.3218  155.8156 H   0  0  0  0  0  0  0  0  0  0  0  0  # atno 8008 bound_to 7997
  155.4569  140.0536  157.3012 H   0  0  0  0  0  0  0  0  0  0  0  0  # atno 8009 bound_to 7997
  154.4801  140.2049  155.9797 H   0  0  0  0  0  0  0  0  0  0  0  0  # atno 8010 bound_to 7997
  140.3557  143.2868  151.9674 H   0  0  0  0  0  0  0  0  0  0  0  0  # atno 10167 bound_to 10162
  156.0606  130.5829  150.8274 H   0  0  0  0  0  0  0  0  0  0  0  0  # atno 10718 bound_to 10713
  154.8292  135.3363  154.6798 H   0  0  0  0  0  0  0  0  0  0  0  0  # atno 10763 bound_to 10752
  153.7420  135.6945  153.4969 H   0  0  0  0  0  0  0  0  0  0  0  0  # atno 10764 bound_to 10752
  153.2237  135.4440  155.0469 H   0  0  0  0  0  0  0  0  0  0  0  0  # atno 10765 bound_to 10752
  140.0327  134.9344  157.0694 H   0  0  0  0  0  0  0  0  0  0  0  0  # atno 11005 bound_to 11000
  146.3278  139.8394  142.8893 LP  0  0  0  0  0  0  0  0  0  0  0  0  # atno 17320 bound_to 7965
  145.3022  141.0197  143.3602 LP  0  0  0  0  0  0  0  0  0  0  0  0  # atno 17321 bound_to 7965
  139.4820  144.6037  151.7560 LP  0  0  0  0  0  0  0  0  0  0  0  0  # atno 17342 bound_to 10162
  140.5176  144.0929  150.6013 LP  0  0  0  0  0  0  0  0  0  0  0  0  # atno 17343 bound_to 10162
  157.5611  131.0946  150.9557 LP  0  0  0  0  0  0  0  0  0  0  0  0  # atno 17370 bound_to 10713
  156.9795  130.5521  149.5295 LP  0  0  0  0  0  0  0  0  0  0  0  0  # atno 17371 bound_to 10713
  140.4198  134.1893  155.7164 LP  0  0  0  0  0  0  0  0  0  0  0  0  # atno 17394 bound_to 11000
  141.1840  133.8352  157.1154 LP  0  0  0  0  0  0  0  0  0  0  0  0  # atno 17395 bound_to 11000

$$$$
