AV-unprocessed.smi:2442|AV-procd|sdf|9624|dock7
  -GOLD-   2272013253D 1   1.00000     0.00000
 Structure written by MMmdl.
 46 47  0  0  0  0  0  0  0  0  1 V2000
  145.5348  136.3897  151.8918 C   0  0  0  0  0  0  0  0  0  0  0  0
  145.2011  135.3067  151.0379 O   0  0  0  0  0  0  0  0  0  0  0  0
  144.9222  134.0873  151.7200 C   0  0  1  0  0  0  0  0  0  0  0  0
  143.8035  133.3031  151.0013 C   0  0  0  0  0  0  0  0  0  0  0  0
  144.2412  132.8294  149.6054 C   0  0  0  0  0  0  0  0  0  0  0  0
  145.5306  131.9979  149.6789 C   0  0  0  0  0  0  0  0  0  0  0  0
  146.6547  132.7757  150.3810 C   0  0  0  0  0  0  0  0  0  0  0  0
  146.2221  133.2495  151.7823 C   0  0  1  0  0  0  0  0  0  0  0  0
  147.3078  133.9997  152.4089 N   0  0  0  0  0  0  0  0  0  0  0  0
  147.8780  133.6989  153.5835 C   0  0  0  0  0  0  0  0  0  0  0  0
  147.5590  132.7342  154.2795 O   0  0  0  0  0  0  0  0  0  0  0  0
  148.8308  134.5809  153.9156 N   0  0  0  0  0  0  0  0  0  0  0  0
  149.6055  134.5359  155.1497 C   0  0  0  0  0  0  0  0  0  0  0  0
  149.2868  135.7371  156.0551 C   0  0  0  0  0  0  0  0  0  0  0  0
  149.9854  137.0053  155.5917 C   0  0  0  0  0  0  0  0  0  0  0  0
  149.3591  137.8358  154.6386 C   0  0  0  0  0  0  0  0  0  0  0  0
  150.0236  139.0042  154.2173 C   0  0  0  0  0  0  0  0  0  0  0  0
  151.2356  139.3748  154.6794 N   0  0  0  0  0  0  0  0  0  0  0  0
  151.8335  138.5777  155.5898 C   0  0  0  0  0  0  0  0  0  0  0  0
  151.2604  137.3843  156.0804 C   0  0  0  0  0  0  0  0  0  0  0  0
  152.0117  136.5513  157.1041 C   0  0  0  0  0  0  0  0  0  0  0  0
  145.7468  137.2730  151.2897 H   0  0  0  0  0  0  0  0  0  0  0  0
  146.4257  136.1670  152.4804 H   0  0  0  0  0  0  0  0  0  0  0  0
  144.7193  136.6385  152.5704 H   0  0  0  0  0  0  0  0  0  0  0  0
  144.6013  134.3056  152.7401 H   0  0  0  0  0  0  0  0  0  0  0  0
  143.5371  132.4338  151.6037 H   0  0  0  0  0  0  0  0  0  0  0  0
  142.8957  133.9004  150.9242 H   0  0  0  0  0  0  0  0  0  0  0  0
  143.4458  132.2408  149.1476 H   0  0  0  0  0  0  0  0  0  0  0  0
  144.3979  133.6929  148.9574 H   0  0  0  0  0  0  0  0  0  0  0  0
  145.3369  131.0696  150.2179 H   0  0  0  0  0  0  0  0  0  0  0  0
  145.8465  131.7126  148.6750 H   0  0  0  0  0  0  0  0  0  0  0  0
  147.5414  132.1454  150.4562 H   0  0  0  0  0  0  0  0  0  0  0  0
  146.9374  133.6334  149.7690 H   0  0  0  0  0  0  0  0  0  0  0  0
  146.0304  132.3608  152.3869 H   0  0  0  0  0  0  0  0  0  0  0  0
  147.6356  134.8175  151.9162 H   0  0  0  0  0  0  0  0  0  0  0  0
  149.0222  135.3421  153.2807 H   0  0  0  0  0  0  0  0  0  0  0  0
  149.4144  133.5975  155.6731 H   0  0  0  0  0  0  0  0  0  0  0  0
  150.6649  134.5337  154.8922 H   0  0  0  0  0  0  0  0  0  0  0  0
  148.2101  135.9122  156.0661 H   0  0  0  0  0  0  0  0  0  0  0  0
  149.5593  135.5222  157.0882 H   0  0  0  0  0  0  0  0  0  0  0  0
  148.3895  137.5839  154.2348 H   0  0  0  0  0  0  0  0  0  0  0  0
  149.5689  139.6589  153.4885 H   0  0  0  0  0  0  0  0  0  0  0  0
  152.8026  138.9049  155.9369 H   0  0  0  0  0  0  0  0  0  0  0  0
  153.0239  136.9283  157.2533 H   0  0  0  0  0  0  0  0  0  0  0  0
  152.0876  135.5134  156.7803 H   0  0  0  0  0  0  0  0  0  0  0  0
  151.4978  136.5780  158.0651 H   0  0  0  0  0  0  0  0  0  0  0  0
  1  2  1  0  0  0  0
  1 22  1  0  0  0  0
  1 23  1  0  0  0  0
  1 24  1  0  0  0  0
  2  3  1  0  0  0  0
  3  8  1  0  0  0  0
  3  4  1  0  0  0  0
  3 25  1  0  0  0  0
  4  5  1  0  0  0  0
  4 26  1  0  0  0  0
  4 27  1  0  0  0  0
  5  6  1  0  0  0  0
  5 28  1  0  0  0  0
  5 29  1  0  0  0  0
  6  7  1  0  0  0  0
  6 30  1  0  0  0  0
  6 31  1  0  0  0  0
  7  8  1  0  0  0  0
  7 32  1  0  0  0  0
  7 33  1  0  0  0  0
  8  9  1  0  0  0  0
  8 34  1  0  0  0  0
  9 10  1  0  0  0  0
  9 35  1  0  0  0  0
 10 11  2  0  0  0  0
 10 12  1  0  0  0  0
 12 13  1  0  0  0  0
 12 36  1  0  0  0  0
 13 14  1  0  0  0  0
 13 37  1  0  0  0  0
 13 38  1  0  0  0  0
 14 15  1  0  0  0  0
 14 39  1  0  0  0  0
 14 40  1  0  0  0  0
 15 20  1  0  0  0  0
 15 16  2  0  0  0  0
 16 17  1  0  0  0  0
 16 41  1  0  0  0  0
 17 18  2  0  0  0  0
 17 42  1  0  0  0  0
 18 19  1  0  0  0  0
 19 20  2  0  0  0  0
 19 43  1  0  0  0  0
 20 21  1  0  0  0  0
 21 44  1  0  0  0  0
 21 45  1  0  0  0  0
 21 46  1  0  0  0  0
M  END
> <s_m_source_file>
AV-unprocessed.smi

> <i_m_source_file_index>
2442

> <i_lp_mmshare_version>
43012

> <i_f3d_flags>
0

> <s_epik_input>
W0NIM11PW0NAQEhdMVtDSDJdW0NIMl1bQ0gyXVtDSDJdW0NASF0xW05IXUMoPU8pW05IXVtDSDJdW0NIMl1jMltjSF1bY0hdbltjSF1jMltDSDNd

> <s_epik_cmdline>
J2VwaWtfcHl0aG9uJywgJy1waCcsICc3LjAnLCAnLXRuJywgJzgnLCAnLW1hJywgJzIwMCcsICctbWV0YWxfYmluZGluZycsICctaW1hZScsICc8aW5maWxlLm1hZT4nLCAnLW9tYWUnLCAnPG91dGZpbGUubWFlPic=

> <r_epik_Ionization_Penalty>
0.106136

> <r_epik_Ionization_Penalty_Charging>
0

> <r_epik_Ionization_Penalty_Neutral>
0.106136

> <r_epik_State_Penalty>
0.0959393

> <r_epik_Charging_Adjusted_Penalty>
0.0959393

> <i_epik_Tot_Q>
0

> <i_epik_Tot_abs_Q>
0

> <r_epik_Metal_State_Penalty>
0.0812517

> <b_epik_Metal_Only>
0

> <s_lp_Force_Field>
OPLS_2005

> <r_lp_Energy>
9.97505

> <b_lp_Chiralities_Consistent>
1

> <s_lp_Variant>
AV-unprocessed.smi:2442-2

> <Gold.Version>
5.8.1

> <Gold.Id.Protein>
6NUR|6NUR_protein|mol2

> <Gold.PLP.Fitness>
44.3310

> <Gold.PLP.PLP>
-34.4097

> <Gold.PLP.part.hbond>
-3.0000

> <Gold.PLP.part.metal>
0.0000

> <Gold.PLP.part.buried>
-3.6572

> <Gold.PLP.part.nonpolar>
-28.6583

> <Gold.PLP.part.repulsive>
0.3646

> <Gold.PLP.ligand.clash>
0.0000

> <Gold.PLP.ligand.torsion>
0.9596

> <Gold.PLP.Chemscore.Hbond>
2.9280

> <Gold.PLP.Chemscore.CHOScore>
1.0000

> <Gold.PLP.Chemscore.Metal>
0.0000

> <Gold.Chemscore.Hbonds>
donor molecule, donor type, donor heavy atom, donor atom, acceptor molecule, acceptor atom, score
      L1  H     9    35       P1  7948  0.93
      L1  H    12    36       P1  7948  1.00
      P1  H  7989  7998       L1    18  1.00
      L1  C    17    42       P1  7957  1.00

> <Gold.PLP.Chemscore.Internal.Correction>
0.0564

> <Gold.Rescore>
     Score         DG    S(hbond)    S(metal)    S(lipo)     H(rot)  DE(clash)    DE(int)     intcor
     17.89     -18.95       2.16        0.00      89.23       1.64       0.01       1.05       ----

> <Gold.Chemscore.Fitness>
17.8923

> <Gold.Chemscore.DG>
-18.9462

> <Gold.Chemscore.ZeroCoef>
-5.4800

> <Gold.Chemscore.Hbond>
2.1614

> <Gold.Chemscore.Metal>
0.0000

> <Gold.Chemscore.Lipo>
89.2349

> <Gold.Chemscore.Internal_Hbond>
0.0000

> <Gold.Chemscore.DEClash>
0.0067

> <Gold.Chemscore.DEInternal>
1.0472

> <Gold.Chemscore.Rot>
1.6380

> <Gold.Chemscore.Internal.Correction>
   9.000000E+99

> <Gold.Chemscore.Hbonds>
donor molecule, donor type, donor heavy atom, donor atom, acceptor molecule, acceptor atom, score
      L1  H     9    35       P1  7948  0.58
      L1  H    12    36       P1  7948  0.44
      P1  H  7989  7998       L1    18  0.30

> <Gold.Chemscore.Hbond.Weighted>
-7.2191

> <Gold.Chemscore.Metal.Weighted>
-0.0000

> <Gold.Chemscore.Lipo.Weighted>
-10.4405

> <Gold.Chemscore.Internal_Hbond.Weighted>
0.0000

> <Gold.Chemscore.DEClash.Weighted>
0.0067

> <Gold.Chemscore.DEInternal.Weighted>
1.0472

> <Gold.Chemscore.Rot.Weighted>
4.1934

> <Gold.Chemscore.Internal.Correction.Weighted>
   9.000000E+99

> <Gold.Protein.RotatedTorsions>
[ 6907 6896 6895 6894 ] final -135.86 input  -60.11 | X-H torsion
[ 7974 7965 7964 7962 ] final -149.09 input  175.53 | X-H torsion
[ 8008 7997 7996 7995 ] final  -79.17 input   59.86 | X-H torsion
[ 10167 10162 10161 10158 ] final -167.26 input  -65.29 | X-H torsion
[ 10718 10713 10712 10709 ] final  -73.29 input   66.30 | X-H torsion
[ 10763 10752 10751 10750 ] final   79.83 input  -60.55 | X-H torsion
[ 11005 11000 10999 10996 ] final   60.36 input  -57.11 | X-H torsion

> <Gold.Protein.ActiveResidues>
 VAL166  LYS551  ARG553  GLY616  TRP617  ASP618  TYR619  PRO620  LYS621  CYS622 
 ASP623  PHE694  ASN695  SER759  ASP760  ASP761  ALA762  ILE779  LEU786  VAL792 
 PHE793  MET794  SER795  GLU796  ALA797  LYS798  CYS799  TRP800  GLU811  SER814 

> <Gold.Protein.RotatedAtoms>
  151.0030  133.6038  159.2692 H   0  0  0  0  0  0  0  0  0  0  0  0  # atno 6907 bound_to 6896
  151.3217  135.0819  159.9318 H   0  0  0  0  0  0  0  0  0  0  0  0  # atno 6908 bound_to 6896
  152.5279  133.9676  159.7801 H   0  0  0  0  0  0  0  0  0  0  0  0  # atno 6909 bound_to 6896
  144.7989  140.5111  143.5721 H   0  0  0  0  0  0  0  0  0  0  0  0  # atno 7974 bound_to 7965
  154.5759  140.0682  156.9033 H   0  0  0  0  0  0  0  0  0  0  0  0  # atno 8008 bound_to 7997
  155.2550  140.3354  155.4260 H   0  0  0  0  0  0  0  0  0  0  0  0  # atno 8009 bound_to 7997
  156.2153  140.1776  156.7587 H   0  0  0  0  0  0  0  0  0  0  0  0  # atno 8010 bound_to 7997
  139.6061  144.0910  152.1794 H   0  0  0  0  0  0  0  0  0  0  0  0  # atno 10167 bound_to 10162
  156.0286  130.4391  150.2720 H   0  0  0  0  0  0  0  0  0  0  0  0  # atno 10718 bound_to 10713
  153.0984  135.4825  154.8821 H   0  0  0  0  0  0  0  0  0  0  0  0  # atno 10763 bound_to 10752
  154.7351  135.3069  154.8828 H   0  0  0  0  0  0  0  0  0  0  0  0  # atno 10764 bound_to 10752
  153.9452  135.6829  153.4797 H   0  0  0  0  0  0  0  0  0  0  0  0  # atno 10765 bound_to 10752
  140.0237  134.6114  155.9602 H   0  0  0  0  0  0  0  0  0  0  0  0  # atno 11005 bound_to 11000
  145.5603  139.1479  143.3345 LP  0  0  0  0  0  0  0  0  0  0  0  0  # atno 17320 bound_to 7965
  146.2265  140.5739  142.8994 LP  0  0  0  0  0  0  0  0  0  0  0  0  # atno 17321 bound_to 7965
  140.0518  144.5927  150.7330 LP  0  0  0  0  0  0  0  0  0  0  0  0  # atno 17342 bound_to 10162
  140.7286  143.2663  151.4034 LP  0  0  0  0  0  0  0  0  0  0  0  0  # atno 17343 bound_to 10162
  157.0823  131.0147  151.3152 LP  0  0  0  0  0  0  0  0  0  0  0  0  # atno 17370 bound_to 10713
  157.4918  130.7826  149.7515 LP  0  0  0  0  0  0  0  0  0  0  0  0  # atno 17371 bound_to 10713
  141.1790  133.6544  156.4942 LP  0  0  0  0  0  0  0  0  0  0  0  0  # atno 17394 bound_to 11000
  140.4342  134.7074  157.4958 LP  0  0  0  0  0  0  0  0  0  0  0  0  # atno 17395 bound_to 11000

$$$$
