AV-unprocessed.smi:2113|AV-procd|sdf|8615|dock3
  -GOLD-   2272011353D 1   1.00000     0.00000
 Structure written by MMmdl.
 44 45  0  0  0  0  0  0  0  0  1 V2000
  146.8353  133.4219  154.1735 C   0  0  0  0  0  0  0  0  0  0  0  0
  148.2506  133.9773  154.0027 C   0  0  0  0  0  0  0  0  0  0  0  0
  148.6968  134.4883  155.2540 O   0  0  0  0  0  0  0  0  0  0  0  0
  150.0068  135.0524  155.2585 C   0  0  2  0  0  0  0  0  0  0  0  0
  150.7236  134.5491  156.5198 C   0  0  0  0  0  0  0  0  0  0  0  0
  149.9275  136.5870  155.2339 C   0  0  0  0  0  0  0  0  0  0  0  0
  149.3197  137.1922  156.1175 O   0  0  0  0  0  0  0  0  0  0  0  0
  150.5184  137.1992  154.1959 N   0  0  0  0  0  0  0  0  0  0  0  0
  150.4593  138.6328  153.9340 C   0  0  0  0  0  0  0  0  0  0  0  0
  150.9405  139.4704  155.1078 C   0  0  0  0  0  0  0  0  0  0  0  0
  150.2300  140.6105  155.5341 C   0  0  0  0  0  0  0  0  0  0  0  0
  150.7064  141.3382  156.6406 C   0  0  0  0  0  0  0  0  0  0  0  0
  151.8860  140.9079  157.2938 C   0  0  0  0  0  0  0  0  0  0  0  0
  152.3713  141.6123  158.4171 N   0  0  0  0  0  0  0  0  0  0  0  0
  152.5487  140.8715  159.6649 C   0  0  0  0  0  0  0  0  0  0  0  0
  153.3316  141.7165  160.6838 C   0  0  0  0  0  0  0  0  0  0  0  0
  152.6739  142.9642  160.8774 O   0  0  0  0  0  0  0  0  0  0  0  0
  152.6092  143.7196  159.6725 C   0  0  0  0  0  0  0  0  0  0  0  0
  151.8062  142.9455  158.6128 C   0  0  0  0  0  0  0  0  0  0  0  0
  152.5773  139.8218  156.8667 N   0  0  0  0  0  0  0  0  0  0  0  0
  152.1148  139.1261  155.8063 C   0  0  0  0  0  0  0  0  0  0  0  0
  146.4603  133.0162  153.2338 H   0  0  0  0  0  0  0  0  0  0  0  0
  146.1470  134.2022  154.4994 H   0  0  0  0  0  0  0  0  0  0  0  0
  146.8142  132.6235  154.9155 H   0  0  0  0  0  0  0  0  0  0  0  0
  148.9197  133.1871  153.6593 H   0  0  0  0  0  0  0  0  0  0  0  0
  148.2404  134.7562  153.2404 H   0  0  0  0  0  0  0  0  0  0  0  0
  150.5566  134.6958  154.3852 H   0  0  0  0  0  0  0  0  0  0  0  0
  151.7335  134.9543  156.5907 H   0  0  0  0  0  0  0  0  0  0  0  0
  150.8054  133.4620  156.5089 H   0  0  0  0  0  0  0  0  0  0  0  0
  150.1853  134.8283  157.4266 H   0  0  0  0  0  0  0  0  0  0  0  0
  150.9990  136.6276  153.5164 H   0  0  0  0  0  0  0  0  0  0  0  0
  151.0320  138.8722  153.0364 H   0  0  0  0  0  0  0  0  0  0  0  0
  149.4242  138.9003  153.7211 H   0  0  0  0  0  0  0  0  0  0  0  0
  149.3298  140.9237  155.0257 H   0  0  0  0  0  0  0  0  0  0  0  0
  150.1705  142.2170  156.9667 H   0  0  0  0  0  0  0  0  0  0  0  0
  151.5713  140.6086  160.0719 H   0  0  0  0  0  0  0  0  0  0  0  0
  153.0863  139.9410  159.4785 H   0  0  0  0  0  0  0  0  0  0  0  0
  153.3906  141.1941  161.6385 H   0  0  0  0  0  0  0  0  0  0  0  0
  154.3563  141.8814  160.3467 H   0  0  0  0  0  0  0  0  0  0  0  0
  152.1300  144.6763  159.8796 H   0  0  0  0  0  0  0  0  0  0  0  0
  153.6159  143.9388  159.3134 H   0  0  0  0  0  0  0  0  0  0  0  0
  151.7963  143.5207  157.6881 H   0  0  0  0  0  0  0  0  0  0  0  0
  150.7684  142.8434  158.9334 H   0  0  0  0  0  0  0  0  0  0  0  0
  152.6969  138.2640  155.5149 H   0  0  0  0  0  0  0  0  0  0  0  0
  1  2  1  0  0  0  0
  1 22  1  0  0  0  0
  1 23  1  0  0  0  0
  1 24  1  0  0  0  0
  2  3  1  0  0  0  0
  2 25  1  0  0  0  0
  2 26  1  0  0  0  0
  3  4  1  0  0  0  0
  4  5  1  0  0  0  0
  4  6  1  0  0  0  0
  4 27  1  0  0  0  0
  5 28  1  0  0  0  0
  5 29  1  0  0  0  0
  5 30  1  0  0  0  0
  6  7  2  0  0  0  0
  6  8  1  0  0  0  0
  8  9  1  0  0  0  0
  8 31  1  0  0  0  0
  9 10  1  0  0  0  0
  9 32  1  0  0  0  0
  9 33  1  0  0  0  0
 10 21  1  0  0  0  0
 10 11  2  0  0  0  0
 11 12  1  0  0  0  0
 11 34  1  0  0  0  0
 12 13  2  0  0  0  0
 12 35  1  0  0  0  0
 13 14  1  0  0  0  0
 13 20  1  0  0  0  0
 14 19  1  0  0  0  0
 14 15  1  0  0  0  0
 15 16  1  0  0  0  0
 15 36  1  0  0  0  0
 15 37  1  0  0  0  0
 16 17  1  0  0  0  0
 16 38  1  0  0  0  0
 16 39  1  0  0  0  0
 17 18  1  0  0  0  0
 18 19  1  0  0  0  0
 18 40  1  0  0  0  0
 18 41  1  0  0  0  0
 19 42  1  0  0  0  0
 19 43  1  0  0  0  0
 20 21  2  0  0  0  0
 21 44  1  0  0  0  0
M  END
> <s_m_source_file>
AV-unprocessed.smi

> <i_m_source_file_index>
2113

> <i_lp_mmshare_version>
43012

> <i_f3d_flags>
0

> <s_epik_input>
W0NIM11bQ0gyXU9bQ0BIXShbQ0gzXSlDKD1PKVtOSF1bQ0gyXWMxW2NIXVtjSF1jKG5bY0hdMSlOMltDSDJdW0NIMl1PW0NIMl1bQ0gyXTI=

> <s_epik_cmdline>
J2VwaWtfcHl0aG9uJywgJy1waCcsICc3LjAnLCAnLXRuJywgJzgnLCAnLW1hJywgJzIwMCcsICctbWV0YWxfYmluZGluZycsICctaW1hZScsICc8aW5maWxlLm1hZT4nLCAnLW9tYWUnLCAnPG91dGZpbGUubWFlPic=

> <r_lp_tautomer_probability>
1

> <r_epik_Ionization_Penalty>
0.00454344

> <r_epik_Ionization_Penalty_Charging>
0

> <r_epik_Ionization_Penalty_Neutral>
0.00454344

> <r_epik_State_Penalty>
0.00328127

> <r_epik_Charging_Adjusted_Penalty>
0.00328127

> <i_epik_Tot_Q>
0

> <i_epik_Tot_abs_Q>
0

> <r_epik_Metal_State_Penalty>
-0

> <b_epik_Metal_Only>
0

> <s_lp_Force_Field>
OPLS_2005

> <r_lp_Energy>
17.3889

> <b_lp_Chiralities_Consistent>
1

> <s_lp_Variant>
AV-unprocessed.smi:2113-1

> <Gold.Version>
5.8.1

> <Gold.Id.Protein>
6NUR|6NUR_protein|mol2

> <Gold.PLP.Fitness>
42.7420

> <Gold.PLP.PLP>
-38.4335

> <Gold.PLP.part.hbond>
-3.0000

> <Gold.PLP.part.metal>
0.0000

> <Gold.PLP.part.buried>
-3.1435

> <Gold.PLP.part.nonpolar>
-31.0821

> <Gold.PLP.part.repulsive>
0.2380

> <Gold.PLP.ligand.clash>
0.0000

> <Gold.PLP.ligand.torsion>
1.0230

> <Gold.PLP.Chemscore.Hbond>
1.9760

> <Gold.PLP.Chemscore.CHOScore>
0.0000

> <Gold.PLP.Chemscore.Metal>
0.0000

> <Gold.Chemscore.Hbonds>
donor molecule, donor type, donor heavy atom, donor atom, acceptor molecule, acceptor atom, score
      L1  H     8    31       P1  7949  0.72
      P1  H  7997  8010       L1    20  1.00

> <Gold.PLP.Chemscore.Internal.Correction>
0.4266

> <Gold.Rescore>
     Score         DG    S(hbond)    S(metal)    S(lipo)     H(rot)  DE(clash)    DE(int)     intcor
     14.88     -16.92       1.41        0.00      99.15       1.90       0.27       1.78       ----

> <Gold.Chemscore.Fitness>
14.8786

> <Gold.Chemscore.DG>
-16.9248

> <Gold.Chemscore.ZeroCoef>
-5.4800

> <Gold.Chemscore.Hbond>
1.4060

> <Gold.Chemscore.Metal>
0.0000

> <Gold.Chemscore.Lipo>
99.1482

> <Gold.Chemscore.Internal_Hbond>
0.0000

> <Gold.Chemscore.DEClash>
0.2695

> <Gold.Chemscore.DEInternal>
1.7767

> <Gold.Chemscore.Rot>
1.8952

> <Gold.Chemscore.Internal.Correction>
   9.000000E+99

> <Gold.Chemscore.Hbonds>
donor molecule, donor type, donor heavy atom, donor atom, acceptor molecule, acceptor atom, score
      L1  H     8    31       P1  7949  0.18
      P1  H  7997  8010       L1    20  0.55

> <Gold.Chemscore.Hbond.Weighted>
-4.6960

> <Gold.Chemscore.Metal.Weighted>
-0.0000

> <Gold.Chemscore.Lipo.Weighted>
-11.6003

> <Gold.Chemscore.Internal_Hbond.Weighted>
0.0000

> <Gold.Chemscore.DEClash.Weighted>
0.2695

> <Gold.Chemscore.DEInternal.Weighted>
1.7767

> <Gold.Chemscore.Rot.Weighted>
4.8516

> <Gold.Chemscore.Internal.Correction.Weighted>
   9.000000E+99

> <Gold.Protein.RotatedTorsions>
[ 6907 6896 6895 6894 ] final  -47.39 input  -60.11 | X-H torsion
[ 7974 7965 7964 7962 ] final   22.62 input  175.53 | X-H torsion
[ 8008 7997 7996 7995 ] final   64.03 input   59.86 | X-H torsion
[ 10167 10162 10161 10158 ] final -145.80 input  -65.29 | X-H torsion
[ 10718 10713 10712 10709 ] final  -69.72 input   66.30 | X-H torsion
[ 10763 10752 10751 10750 ] final -166.35 input  -60.55 | X-H torsion
[ 11005 11000 10999 10996 ] final    6.81 input  -57.11 | X-H torsion

> <Gold.Protein.ActiveResidues>
 VAL166  LYS551  ARG553  GLY616  TRP617  ASP618  TYR619  PRO620  LYS621  CYS622 
 ASP623  PHE694  ASN695  SER759  ASP760  ASP761  ALA762  ILE779  LEU786  VAL792 
 PHE793  MET794  SER795  GLU796  ALA797  LYS798  CYS799  TRP800  GLU811  SER814 

> <Gold.Protein.RotatedAtoms>
  150.9013  134.8425  159.7361 H   0  0  0  0  0  0  0  0  0  0  0  0  # atno 6907 bound_to 6896
  152.4894  134.4499  159.9581 H   0  0  0  0  0  0  0  0  0  0  0  0  # atno 6908 bound_to 6896
  151.4550  133.3568  159.2836 H   0  0  0  0  0  0  0  0  0  0  0  0  # atno 6909 bound_to 6896
  146.2021  139.7859  142.8754 H   0  0  0  0  0  0  0  0  0  0  0  0  # atno 7974 bound_to 7965
  155.6396  140.3496  155.4710 H   0  0  0  0  0  0  0  0  0  0  0  0  # atno 8008 bound_to 7997
  155.9937  140.1199  157.0637 H   0  0  0  0  0  0  0  0  0  0  0  0  # atno 8009 bound_to 7997
  154.4227  140.1114  156.5587 H   0  0  0  0  0  0  0  0  0  0  0  0  # atno 8010 bound_to 7997
  139.7772  143.8153  152.2633 H   0  0  0  0  0  0  0  0  0  0  0  0  # atno 10167 bound_to 10162
  156.0441  130.4318  150.2190 H   0  0  0  0  0  0  0  0  0  0  0  0  # atno 10718 bound_to 10713
  154.6841  135.2959  154.9571 H   0  0  0  0  0  0  0  0  0  0  0  0  # atno 10763 bound_to 10752
  154.0556  135.6638  153.4809 H   0  0  0  0  0  0  0  0  0  0  0  0  # atno 10764 bound_to 10752
  153.0567  135.5140  154.7900 H   0  0  0  0  0  0  0  0  0  0  0  0  # atno 10765 bound_to 10752
  140.5553  134.0244  155.7951 H   0  0  0  0  0  0  0  0  0  0  0  0  # atno 11005 bound_to 11000
  145.3449  141.0295  143.3371 LP  0  0  0  0  0  0  0  0  0  0  0  0  # atno 17320 bound_to 7965
  144.8706  139.5043  143.6769 LP  0  0  0  0  0  0  0  0  0  0  0  0  # atno 17321 bound_to 7965
  139.8205  144.7298  150.9579 LP  0  0  0  0  0  0  0  0  0  0  0  0  # atno 17342 bound_to 10162
  140.7817  143.4164  151.0911 LP  0  0  0  0  0  0  0  0  0  0  0  0  # atno 17343 bound_to 10162
  157.0282  130.9999  151.3320 LP  0  0  0  0  0  0  0  0  0  0  0  0  # atno 17370 bound_to 10713
  157.5296  130.8050  149.7902 LP  0  0  0  0  0  0  0  0  0  0  0  0  # atno 17371 bound_to 10713
  141.1147  133.9559  157.2844 LP  0  0  0  0  0  0  0  0  0  0  0  0  # atno 17394 bound_to 11000
  139.9435  135.0187  156.8780 LP  0  0  0  0  0  0  0  0  0  0  0  0  # atno 17395 bound_to 11000

$$$$
