AV-unprocessed.smi:245|AV-procd|sdf|1878|dock3
  -GOLD-   2262020523D 1   1.00000     0.00000
 Structure written by MMmdl.
 54 58  0  0  0  0  0  0  0  0  1 V2000
  153.2717  139.4379  157.8264 O   0  0  0  0  0  0  0  0  0  0  0  0
  152.4782  140.3127  158.1652 C   0  0  0  0  0  0  0  0  0  0  0  0
  151.0956  140.3822  157.4929 C   0  0  0  0  0  0  0  0  0  0  0  0
  150.2324  141.4912  157.9343 N   0  0  0  0  0  0  0  0  0  0  0  0
  149.2043  141.6676  157.0699 C   0  0  0  0  0  0  0  0  0  0  0  0
  149.3861  141.4576  155.7390 N   0  0  0  0  0  0  0  0  0  0  0  0
  148.3621  141.6060  154.8929 C   0  0  0  0  0  0  0  0  0  0  0  0
  147.0978  141.9396  155.1622 N   0  0  0  0  0  0  0  0  0  0  0  0
  146.9107  142.1357  156.4993 C   0  0  0  0  0  0  0  0  0  0  0  0
  147.9026  142.0232  157.5126 C   0  0  0  0  0  0  0  0  0  0  0  0
  147.3510  142.3077  158.7551 N   0  0  0  0  0  0  0  0  0  0  0  0
  146.1022  142.5804  158.4903 C   0  0  0  0  0  0  0  0  0  0  0  0
  145.7453  142.4750  157.1640 N   0  0  0  0  0  0  0  0  0  0  0  0
  144.4603  142.7461  156.5897 C   0  0  0  0  0  0  0  0  0  0  0  0
  144.2798  142.9410  155.0817 C   0  0  0  0  0  0  0  0  0  0  0  0
  143.1353  143.9431  155.3572 C   0  0  0  0  0  0  0  0  0  0  0  0
  143.1309  145.1743  154.4335 C   0  0  0  0  0  0  0  0  0  0  0  0
  142.7690  144.8411  153.1092 O   0  0  0  0  0  0  0  0  0  0  0  0
  141.7313  143.3020  155.3583 C   0  0  0  0  0  0  0  0  0  0  0  0
  141.2668  143.0275  154.0529 O   0  0  0  0  0  0  0  0  0  0  0  0
  143.8115  144.1232  156.7361 C   0  0  0  0  0  0  0  0  0  0  0  0
  150.8805  142.6838  158.4941 C   0  0  1  0  0  0  0  0  0  0  0  0
  149.8898  143.7093  159.1006 C   0  0  0  0  0  0  0  0  0  0  0  0
  150.6349  144.9222  159.6848 C   0  0  0  0  0  0  0  0  0  0  0  0
  151.6807  144.4961  160.7273 C   0  0  0  0  0  0  0  0  0  0  0  0
  152.6500  143.4509  160.1528 C   0  0  0  0  0  0  0  0  0  0  0  0
  151.8778  142.2456  159.5897 C   0  0  2  0  0  0  0  0  0  0  0  0
  152.7938  141.2244  159.0978 N   0  0  0  0  0  0  0  0  0  0  0  0
  151.2581  140.4387  156.4145 H   0  0  0  0  0  0  0  0  0  0  0  0
  150.5821  139.4392  157.6846 H   0  0  0  0  0  0  0  0  0  0  0  0
  148.5866  141.4289  153.8514 H   0  0  0  0  0  0  0  0  0  0  0  0
  145.4030  142.8612  159.2645 H   0  0  0  0  0  0  0  0  0  0  0  0
  143.7942  141.9659  156.9621 H   0  0  0  0  0  0  0  0  0  0  0  0
  145.1508  143.4035  154.6138 H   0  0  0  0  0  0  0  0  0  0  0  0
  143.9832  142.0401  154.5434 H   0  0  0  0  0  0  0  0  0  0  0  0
  142.4176  145.9202  154.7855 H   0  0  0  0  0  0  0  0  0  0  0  0
  144.1046  145.6649  154.4213 H   0  0  0  0  0  0  0  0  0  0  0  0
  142.9648  143.9282  152.9642 H   0  0  0  0  0  0  0  0  0  0  0  0
  141.7222  142.3762  155.9339 H   0  0  0  0  0  0  0  0  0  0  0  0
  141.0004  143.9570  155.8326 H   0  0  0  0  0  0  0  0  0  0  0  0
  141.9968  142.7361  153.5284 H   0  0  0  0  0  0  0  0  0  0  0  0
  143.1278  144.2113  157.5807 H   0  0  0  0  0  0  0  0  0  0  0  0
  144.5464  144.9305  156.7457 H   0  0  0  0  0  0  0  0  0  0  0  0
  151.4372  143.1698  157.6898 H   0  0  0  0  0  0  0  0  0  0  0  0
  149.1812  144.0680  158.3550 H   0  0  0  0  0  0  0  0  0  0  0  0
  149.2963  143.2326  159.8820 H   0  0  0  0  0  0  0  0  0  0  0  0
  151.1266  145.4684  158.8787 H   0  0  0  0  0  0  0  0  0  0  0  0
  149.9228  145.6138  160.1359 H   0  0  0  0  0  0  0  0  0  0  0  0
  152.2356  145.3673  161.0765 H   0  0  0  0  0  0  0  0  0  0  0  0
  151.1749  144.0818  161.6005 H   0  0  0  0  0  0  0  0  0  0  0  0
  153.2567  143.9042  159.3674 H   0  0  0  0  0  0  0  0  0  0  0  0
  153.3409  143.1257  160.9315 H   0  0  0  0  0  0  0  0  0  0  0  0
  151.3196  141.7854  160.4073 H   0  0  0  0  0  0  0  0  0  0  0  0
  153.7099  141.1804  159.5201 H   0  0  0  0  0  0  0  0  0  0  0  0
  1  2  2  0  0  0  0
  2 28  1  0  0  0  0
  2  3  1  0  0  0  0
  3  4  1  0  0  0  0
  3 29  1  0  0  0  0
  3 30  1  0  0  0  0
  4  5  1  0  0  0  0
  4 22  1  0  0  0  0
  5 10  1  0  0  0  0
  5  6  2  0  0  0  0
  6  7  1  0  0  0  0
  7  8  2  0  0  0  0
  7 31  1  0  0  0  0
  8  9  1  0  0  0  0
  9 13  1  0  0  0  0
  9 10  2  0  0  0  0
 10 11  1  0  0  0  0
 11 12  2  0  0  0  0
 12 13  1  0  0  0  0
 12 32  1  0  0  0  0
 13 14  1  0  0  0  0
 14 21  1  0  0  0  0
 14 15  1  0  0  0  0
 14 33  1  0  0  0  0
 15 16  1  0  0  0  0
 15 34  1  0  0  0  0
 15 35  1  0  0  0  0
 16 17  1  0  0  0  0
 16 19  1  0  0  0  0
 16 21  1  0  0  0  0
 17 18  1  0  0  0  0
 17 36  1  0  0  0  0
 17 37  1  0  0  0  0
 18 38  1  0  0  0  0
 19 20  1  0  0  0  0
 19 39  1  0  0  0  0
 19 40  1  0  0  0  0
 20 41  1  0  0  0  0
 21 42  1  0  0  0  0
 21 43  1  0  0  0  0
 22 27  1  0  0  0  0
 22 23  1  0  0  0  0
 22 44  1  0  0  0  0
 23 24  1  0  0  0  0
 23 45  1  0  0  0  0
 23 46  1  0  0  0  0
 24 25  1  0  0  0  0
 24 47  1  0  0  0  0
 24 48  1  0  0  0  0
 25 26  1  0  0  0  0
 25 49  1  0  0  0  0
 25 50  1  0  0  0  0
 26 27  1  0  0  0  0
 26 51  1  0  0  0  0
 26 52  1  0  0  0  0
 27 28  1  0  0  0  0
 27 53  1  0  0  0  0
 28 54  1  0  0  0  0
M  END
> <s_m_source_file>
AV-unprocessed.smi

> <i_m_source_file_index>
245

> <i_lp_mmshare_version>
43012

> <i_f3d_flags>
0

> <s_epik_input>
W0NIMl0xW0NIMl1bQ0gyXVtDSDJdW0NASF0oW0NASF0xMilbTkhdQyg9TylbQ0gyXU4yYyhuW2NIXW4zKWMoYzM0KW5bY0hdbjRbQ0hdKFtDSDJdNSlbQ0gyXUM1KFtDSDJdW09IXSlbQ0gyXVtPSF0=

> <s_epik_cmdline>
J2VwaWtfcHl0aG9uJywgJy1waCcsICc3LjAnLCAnLXRuJywgJzgnLCAnLW1hJywgJzIwMCcsICctbWV0YWxfYmluZGluZycsICctaW1hZScsICc8aW5maWxlLm1hZT4nLCAnLW9tYWUnLCAnPG91dGZpbGUubWFlPic=

> <r_lp_tautomer_probability>
1

> <r_epik_Ionization_Penalty>
0.000702616

> <r_epik_Ionization_Penalty_Charging>
0

> <r_epik_Ionization_Penalty_Neutral>
0.000702616

> <r_epik_State_Penalty>
0.000343985

> <r_epik_Charging_Adjusted_Penalty>
0.000343985

> <i_epik_Tot_Q>
0

> <i_epik_Tot_abs_Q>
0

> <r_epik_Metal_State_Penalty>
-0

> <b_epik_Metal_Only>
0

> <s_lp_Force_Field>
OPLS_2005

> <r_lp_Energy>
49.1986

> <b_lp_Chiralities_Consistent>
1

> <s_lp_Variant>
AV-unprocessed.smi:245-3

> <Gold.Version>
5.8.1

> <Gold.Id.Protein>
6NUR|6NUR_protein|mol2

> <Gold.PLP.Fitness>
52.4369

> <Gold.PLP.PLP>
-42.9261

> <Gold.PLP.part.hbond>
-3.5128

> <Gold.PLP.part.metal>
0.0000

> <Gold.PLP.part.buried>
-8.5019

> <Gold.PLP.part.nonpolar>
-32.2368

> <Gold.PLP.part.repulsive>
0.5029

> <Gold.PLP.ligand.clash>
0.0000

> <Gold.PLP.ligand.torsion>
0.8719

> <Gold.PLP.Chemscore.Hbond>
3.4576

> <Gold.PLP.Chemscore.CHOScore>
0.0000

> <Gold.PLP.Chemscore.Metal>
0.0000

> <Gold.Chemscore.Hbonds>
donor molecule, donor type, donor heavy atom, donor atom, acceptor molecule, acceptor atom, score
      L1  H    18    38       P1 10174  0.98
      L1  H    20    41       P1 10174  0.99
      P1  H  7997  8010       L1     1  1.00
      P1  H 10162 10167       L1    20  0.36

> <Gold.PLP.Chemscore.Internal.Correction>
0.8817

> <Gold.Rescore>
     Score         DG    S(hbond)    S(metal)    S(lipo)     H(rot)  DE(clash)    DE(int)     intcor
     10.22     -16.66       2.80        0.00      87.40       3.28       2.06       4.38       ----

> <Gold.Chemscore.Fitness>
10.2228

> <Gold.Chemscore.DG>
-16.6640

> <Gold.Chemscore.ZeroCoef>
-5.4800

> <Gold.Chemscore.Hbond>
2.7975

> <Gold.Chemscore.Metal>
0.0000

> <Gold.Chemscore.Lipo>
87.4032

> <Gold.Chemscore.Internal_Hbond>
0.0000

> <Gold.Chemscore.DEClash>
2.0609

> <Gold.Chemscore.DEInternal>
4.3802

> <Gold.Chemscore.Rot>
3.2758

> <Gold.Chemscore.Internal.Correction>
   9.000000E+99

> <Gold.Chemscore.Hbonds>
donor molecule, donor type, donor heavy atom, donor atom, acceptor molecule, acceptor atom, score
      L1  H    18    38       P1 10174  0.92
      L1  H    20    41       P1 10174  0.90
      P1  H  7997  8010       L1     1  0.85
      P1  H 10162 10167       L1    20  0.04

> <Gold.Chemscore.Hbond.Weighted>
-9.3438

> <Gold.Chemscore.Metal.Weighted>
-0.0000

> <Gold.Chemscore.Lipo.Weighted>
-10.2262

> <Gold.Chemscore.Internal_Hbond.Weighted>
0.0000

> <Gold.Chemscore.DEClash.Weighted>
2.0609

> <Gold.Chemscore.DEInternal.Weighted>
4.3802

> <Gold.Chemscore.Rot.Weighted>
8.3859

> <Gold.Chemscore.Internal.Correction.Weighted>
   9.000000E+99

> <Gold.Protein.RotatedTorsions>
[ 6907 6896 6895 6894 ] final  179.99 input  -60.11 | X-H torsion
[ 7974 7965 7964 7962 ] final -121.63 input  175.53 | X-H torsion
[ 8008 7997 7996 7995 ] final   37.23 input   59.86 | X-H torsion
[ 10167 10162 10161 10158 ] final -128.39 input  -65.29 | X-H torsion
[ 10718 10713 10712 10709 ] final  -90.51 input   66.30 | X-H torsion
[ 10763 10752 10751 10750 ] final  -62.38 input  -60.55 | X-H torsion
[ 11005 11000 10999 10996 ] final -103.72 input  -57.11 | X-H torsion

> <Gold.Protein.ActiveResidues>
 VAL166  LYS551  ARG553  GLY616  TRP617  ASP618  TYR619  PRO620  LYS621  CYS622 
 ASP623  PHE694  ASN695  SER759  ASP760  ASP761  ALA762  ILE779  LEU786  VAL792 
 PHE793  MET794  SER795  GLU796  ALA797  LYS798  CYS799  TRP800  GLU811  SER814 

> <Gold.Protein.RotatedAtoms>
  151.6628  133.3316  159.3177 H   0  0  0  0  0  0  0  0  0  0  0  0  # atno 6907 bound_to 6896
  150.7905  134.6929  159.6516 H   0  0  0  0  0  0  0  0  0  0  0  0  # atno 6908 bound_to 6896
  152.3984  134.6331  160.0132 H   0  0  0  0  0  0  0  0  0  0  0  0  # atno 6909 bound_to 6896
  145.0382  140.8123  143.4282 H   0  0  0  0  0  0  0  0  0  0  0  0  # atno 7974 bound_to 7965
  155.2003  140.3315  155.4344 H   0  0  0  0  0  0  0  0  0  0  0  0  # atno 8008 bound_to 7997
  156.2409  140.1895  156.7040 H   0  0  0  0  0  0  0  0  0  0  0  0  # atno 8009 bound_to 7997
  154.6146  140.0604  156.9523 H   0  0  0  0  0  0  0  0  0  0  0  0  # atno 8010 bound_to 7997
  139.9508  143.6058  152.2476 H   0  0  0  0  0  0  0  0  0  0  0  0  # atno 10167 bound_to 10162
  155.9988  130.4912  150.5334 H   0  0  0  0  0  0  0  0  0  0  0  0  # atno 10718 bound_to 10713
  154.2990  135.6238  153.5417 H   0  0  0  0  0  0  0  0  0  0  0  0  # atno 10763 bound_to 10752
  152.9843  135.5674  154.5305 H   0  0  0  0  0  0  0  0  0  0  0  0  # atno 10764 bound_to 10752
  154.4931  135.2868  155.1456 H   0  0  0  0  0  0  0  0  0  0  0  0  # atno 10765 bound_to 10752
  141.1133  133.8664  157.1522 H   0  0  0  0  0  0  0  0  0  0  0  0  # atno 11005 bound_to 11000
  145.1682  139.2419  143.5356 LP  0  0  0  0  0  0  0  0  0  0  0  0  # atno 17320 bound_to 7965
  146.3506  140.1426  142.8594 LP  0  0  0  0  0  0  0  0  0  0  0  0  # atno 17321 bound_to 7965
  139.6630  144.7662  151.1927 LP  0  0  0  0  0  0  0  0  0  0  0  0  # atno 17342 bound_to 10162
  140.7583  143.5981  150.8727 LP  0  0  0  0  0  0  0  0  0  0  0  0  # atno 17343 bound_to 10162
  157.3280  131.0694  151.1882 LP  0  0  0  0  0  0  0  0  0  0  0  0  # atno 17370 bound_to 10713
  157.2772  130.6733  149.6048 LP  0  0  0  0  0  0  0  0  0  0  0  0  # atno 17371 bound_to 10713
  140.0039  135.0016  157.0250 LP  0  0  0  0  0  0  0  0  0  0  0  0  # atno 17394 bound_to 11000
  140.4716  134.1381  155.7204 LP  0  0  0  0  0  0  0  0  0  0  0  0  # atno 17395 bound_to 11000

$$$$
