AV-unprocessed.smi:1564|AV-procd|sdf|6296|dock9
  -GOLD-   22720 6493D 1   1.00000     0.00000
 Structure written by MMmdl.
 43 44  0  0  0  0  0  0  0  0  2 V2000
  152.5185  140.1737  158.5050 C   0  0  0  0  0  0  0  0  0  0  0  0
  152.4790  140.2804  157.0862 O   0  0  0  0  0  0  0  0  0  0  0  0
  151.7890  139.3190  156.3767 C   0  0  0  0  0  0  0  0  0  0  0  0
  151.4806  138.1013  157.0143 C   0  0  0  0  0  0  0  0  0  0  0  0
  150.7811  137.1164  156.2921 C   0  0  0  0  0  0  0  0  0  0  0  0
  150.4150  137.3708  154.9548 C   0  0  0  0  0  0  0  0  0  0  0  0
  149.6989  136.3581  154.2595 N   0  0  0  0  0  0  0  0  0  0  0  0
  149.3364  135.1365  154.6876 C   0  0  0  0  0  0  0  0  0  0  0  0
  149.5635  134.6722  155.8043 O   0  0  0  0  0  0  0  0  0  0  0  0
  148.6662  134.4696  153.7377 N   0  0  0  0  0  0  0  0  0  0  0  0
  148.1354  133.1189  153.8882 C   0  0  1  0  0  0  0  0  0  0  0  0
  147.0361  132.7421  152.9029 C   0  0  0  0  0  0  0  0  0  0  0  0
  147.0562  131.2170  153.0004 C   0  0  0  0  0  0  0  0  0  0  0  0
  148.4793  130.8332  153.1789 N   0  3  2  0  0  0  0  0  0  0  0  0
  148.7234  129.5988  153.9791 C   0  0  0  0  0  0  0  0  0  0  0  0
  150.2244  129.4217  154.2807 C   0  0  0  0  0  0  0  0  0  0  0  0
  148.2043  128.3370  153.2600 C   0  0  0  0  0  0  0  0  0  0  0  0
  149.2016  132.0490  153.6366 C   0  0  0  0  0  0  0  0  0  0  0  0
  150.7590  138.6319  154.4083 C   0  0  0  0  0  0  0  0  0  0  0  0
  151.4298  139.5804  155.0957 N   0  0  0  0  0  0  0  0  0  0  0  0
  153.0977  141.0020  158.9128 H   0  0  0  0  0  0  0  0  0  0  0  0
  152.9979  139.2470  158.8234 H   0  0  0  0  0  0  0  0  0  0  0  0
  151.5176  140.2259  158.9362 H   0  0  0  0  0  0  0  0  0  0  0  0
  151.7768  137.9258  158.0380 H   0  0  0  0  0  0  0  0  0  0  0  0
  150.5337  136.1753  156.7619 H   0  0  0  0  0  0  0  0  0  0  0  0
  149.3821  136.6150  153.3361 H   0  0  0  0  0  0  0  0  0  0  0  0
  148.5194  134.9258  152.8490 H   0  0  0  0  0  0  0  0  0  0  0  0
  147.7554  132.9968  154.9049 H   0  0  0  0  0  0  0  0  0  0  0  0
  146.0657  133.1687  153.1592 H   0  0  0  0  0  0  0  0  0  0  0  0
  147.2962  133.0620  151.8926 H   0  0  0  0  0  0  0  0  0  0  0  0
  146.4789  130.9178  153.8770 H   0  0  0  0  0  0  0  0  0  0  0  0
  146.6158  130.7376  152.1258 H   0  0  0  0  0  0  0  0  0  0  0  0
  148.1873  129.6960  154.9245 H   0  0  0  0  0  0  0  0  0  0  0  0
  150.4006  128.5127  154.8565 H   0  0  0  0  0  0  0  0  0  0  0  0
  150.6356  130.2456  154.8626 H   0  0  0  0  0  0  0  0  0  0  0  0
  150.8045  129.3442  153.3607 H   0  0  0  0  0  0  0  0  0  0  0  0
  148.4440  127.4376  153.8284 H   0  0  0  0  0  0  0  0  0  0  0  0
  148.6543  128.2304  152.2723 H   0  0  0  0  0  0  0  0  0  0  0  0
  147.1217  128.3468  153.1356 H   0  0  0  0  0  0  0  0  0  0  0  0
  149.8848  132.3528  152.8420 H   0  0  0  0  0  0  0  0  0  0  0  0
  149.7926  131.8874  154.5384 H   0  0  0  0  0  0  0  0  0  0  0  0
  150.4863  138.9185  153.4052 H   0  0  0  0  0  0  0  0  0  0  0  0
  148.8299  130.6414  152.2511 H   0  0  0  0  0  0  0  0  0  0  0  0
  1  2  1  0  0  0  0
  1 21  1  0  0  0  0
  1 22  1  0  0  0  0
  1 23  1  0  0  0  0
  2  3  1  0  0  0  0
  3 20  1  0  0  0  0
  3  4  2  0  0  0  0
  4  5  1  0  0  0  0
  4 24  1  0  0  0  0
  5  6  2  0  0  0  0
  5 25  1  0  0  0  0
  6  7  1  0  0  0  0
  6 19  1  0  0  0  0
  7  8  1  0  0  0  0
  7 26  1  0  0  0  0
  8  9  2  0  0  0  0
  8 10  1  0  0  0  0
 10 11  1  0  0  0  0
 10 27  1  0  0  0  0
 11 18  1  0  0  0  0
 11 12  1  0  0  0  0
 11 28  1  0  0  0  0
 12 13  1  0  0  0  0
 12 29  1  0  0  0  0
 12 30  1  0  0  0  0
 13 14  1  0  0  0  0
 13 31  1  0  0  0  0
 13 32  1  0  0  0  0
 14 15  1  0  0  0  0
 14 18  1  0  0  0  0
 14 43  1  0  0  0  0
 15 16  1  0  0  0  0
 15 17  1  0  0  0  0
 15 33  1  0  0  0  0
 16 34  1  0  0  0  0
 16 35  1  0  0  0  0
 16 36  1  0  0  0  0
 17 37  1  0  0  0  0
 17 38  1  0  0  0  0
 17 39  1  0  0  0  0
 18 40  1  0  0  0  0
 18 41  1  0  0  0  0
 19 20  2  0  0  0  0
 19 42  1  0  0  0  0
M  CHG  1  14   1
M  END
> <s_m_source_file>
AV-unprocessed.smi

> <i_m_source_file_index>
1564

> <i_lp_mmshare_version>
43012

> <i_f3d_flags>
0

> <s_epik_input>
W0NIM11PYzFbY0hdW2NIXWMoW2NIXW4xKVtOSF1DKD1PKVtOSF1bQ0BASF0yW0NIMl1bQ0gyXU4oW0NIMl0yKVtDSF0oW0NIM10pW0NIM10=

> <s_epik_cmdline>
J2VwaWtfcHl0aG9uJywgJy1waCcsICc3LjAnLCAnLXRuJywgJzgnLCAnLW1hJywgJzIwMCcsICctbWV0YWxfYmluZGluZycsICctaW1hZScsICc8aW5maWxlLm1hZT4nLCAnLW9tYWUnLCAnPG91dGZpbGUubWFlPic=

> <r_lp_tautomer_probability>
1

> <r_epik_Ionization_Penalty>
0.000679474

> <r_epik_Ionization_Penalty_Charging>
0.000606352

> <r_epik_Ionization_Penalty_Neutral>
7.31222e-05

> <r_epik_State_Penalty>
0.000382168

> <r_epik_Charging_Adjusted_Penalty>
0.00098852

> <i_epik_Tot_Q>
1

> <i_epik_Tot_abs_Q>
1

> <r_epik_Metal_State_Penalty>
-0

> <b_epik_Metal_Only>
0

> <s_lp_Force_Field>
OPLS_2005

> <r_lp_Energy>
33.6805

> <b_lp_Chiralities_Consistent>
1

> <s_lp_Variant>
AV-unprocessed.smi:1564-4

> <Gold.Version>
5.8.1

> <Gold.Id.Protein>
6NUR|6NUR_protein|mol2

> <Gold.PLP.Fitness>
43.0014

> <Gold.PLP.PLP>
-27.8986

> <Gold.PLP.part.hbond>
-5.5808

> <Gold.PLP.part.metal>
0.0000

> <Gold.PLP.part.buried>
0.2247

> <Gold.PLP.part.nonpolar>
-21.3667

> <Gold.PLP.part.repulsive>
0.1334

> <Gold.PLP.ligand.clash>
0.0000

> <Gold.PLP.ligand.torsion>
0.6655

> <Gold.PLP.Chemscore.Hbond>
4.7200

> <Gold.PLP.Chemscore.CHOScore>
0.7480

> <Gold.PLP.Chemscore.Metal>
0.0000

> <Gold.Chemscore.Hbonds>
donor molecule, donor type, donor heavy atom, donor atom, acceptor molecule, acceptor atom, score
      L1  H     7    26       P1  7948  1.00
      L1  H    10    27       P1  7948  0.91
      L1  H    14    43       P1 10747  1.00
      P1  H  7989  7998       L1    20  0.74
      P1  H  7997  8008       L1     2  1.00
      L1  C    19    42       P1  7957  0.72

> <Gold.PLP.Chemscore.Internal.Correction>
0.0298

> <Gold.Rescore>
     Score         DG    S(hbond)    S(metal)    S(lipo)     H(rot)  DE(clash)    DE(int)     intcor
     18.23     -20.40       3.41        0.00      61.76       1.44       0.02       2.14       ----

> <Gold.Chemscore.Fitness>
18.2317

> <Gold.Chemscore.DG>
-20.3961

> <Gold.Chemscore.ZeroCoef>
-5.4800

> <Gold.Chemscore.Hbond>
3.4096

> <Gold.Chemscore.Metal>
0.0000

> <Gold.Chemscore.Lipo>
61.7597

> <Gold.Chemscore.Internal_Hbond>
0.0000

> <Gold.Chemscore.DEClash>
0.0249

> <Gold.Chemscore.DEInternal>
2.1394

> <Gold.Chemscore.Rot>
1.4445

> <Gold.Chemscore.Internal.Correction>
   9.000000E+99

> <Gold.Chemscore.Hbonds>
donor molecule, donor type, donor heavy atom, donor atom, acceptor molecule, acceptor atom, score
      L1  H     7    26       P1  7948  0.78
      L1  H    10    27       P1  7948  0.45
      L1  H    14    43       P1 10747  0.49
      P1  H  7989  7998       L1    20  0.10
      P1  H  7997  8008       L1     2  0.20

> <Gold.Chemscore.Hbond.Weighted>
-11.3881

> <Gold.Chemscore.Metal.Weighted>
-0.0000

> <Gold.Chemscore.Lipo.Weighted>
-7.2259

> <Gold.Chemscore.Internal_Hbond.Weighted>
0.0000

> <Gold.Chemscore.DEClash.Weighted>
0.0249

> <Gold.Chemscore.DEInternal.Weighted>
2.1394

> <Gold.Chemscore.Rot.Weighted>
3.6979

> <Gold.Chemscore.Internal.Correction.Weighted>
   9.000000E+99

> <Gold.Protein.RotatedTorsions>
[ 6907 6896 6895 6894 ] final  -32.69 input  -60.11 | X-H torsion
[ 7974 7965 7964 7962 ] final   71.41 input  175.53 | X-H torsion
[ 8008 7997 7996 7995 ] final  -57.72 input   59.86 | X-H torsion
[ 10167 10162 10161 10158 ] final   78.30 input  -65.29 | X-H torsion
[ 10718 10713 10712 10709 ] final  127.98 input   66.30 | X-H torsion
[ 10763 10752 10751 10750 ] final  120.27 input  -60.55 | X-H torsion
[ 11005 11000 10999 10996 ] final  -41.36 input  -57.11 | X-H torsion

> <Gold.Protein.ActiveResidues>
 VAL166  LYS551  ARG553  GLY616  TRP617  ASP618  TYR619  PRO620  LYS621  CYS622 
 ASP623  PHE694  ASN695  SER759  ASP760  ASP761  ALA762  ILE779  LEU786  VAL792 
 PHE793  MET794  SER795  GLU796  ALA797  LYS798  CYS799  TRP800  GLU811  SER814 

> <Gold.Protein.RotatedAtoms>
  151.0754  134.9825  159.8329 H   0  0  0  0  0  0  0  0  0  0  0  0  # atno 6907 bound_to 6896
  152.5413  134.2247  159.8811 H   0  0  0  0  0  0  0  0  0  0  0  0  # atno 6908 bound_to 6896
  151.2274  133.4425  159.2636 H   0  0  0  0  0  0  0  0  0  0  0  0  # atno 6909 bound_to 6896
  145.7662  139.2822  143.1348 H   0  0  0  0  0  0  0  0  0  0  0  0  # atno 7974 bound_to 7965
  154.4279  140.1100  156.5843 H   0  0  0  0  0  0  0  0  0  0  0  0  # atno 8008 bound_to 7997
  155.6080  140.3494  155.4594 H   0  0  0  0  0  0  0  0  0  0  0  0  # atno 8009 bound_to 7997
  156.0122  140.1221  157.0432 H   0  0  0  0  0  0  0  0  0  0  0  0  # atno 8010 bound_to 7997
  139.9724  144.5885  150.7973 H   0  0  0  0  0  0  0  0  0  0  0  0  # atno 10167 bound_to 10162
  157.5285  131.1098  150.9045 H   0  0  0  0  0  0  0  0  0  0  0  0  # atno 10718 bound_to 10713
  153.5959  135.3457  155.2928 H   0  0  0  0  0  0  0  0  0  0  0  0  # atno 10763 bound_to 10752
  154.8644  135.4216  154.2465 H   0  0  0  0  0  0  0  0  0  0  0  0  # atno 10764 bound_to 10752
  153.3283  135.7042  153.7041 H   0  0  0  0  0  0  0  0  0  0  0  0  # atno 10765 bound_to 10752
  141.0241  133.6849  156.2447 H   0  0  0  0  0  0  0  0  0  0  0  0  # atno 11005 bound_to 11000
  146.0215  140.8343  142.9921 LP  0  0  0  0  0  0  0  0  0  0  0  0  # atno 17320 bound_to 7965
  144.6821  140.2636  143.7315 LP  0  0  0  0  0  0  0  0  0  0  0  0  # atno 17321 bound_to 7965
  140.7517  143.2977  151.3160 LP  0  0  0  0  0  0  0  0  0  0  0  0  # atno 17342 bound_to 10162
  139.6471  144.0431  152.2599 LP  0  0  0  0  0  0  0  0  0  0  0  0  # atno 17343 bound_to 10162
  156.9633  130.5463  149.5287 LP  0  0  0  0  0  0  0  0  0  0  0  0  # atno 17370 bound_to 10713
  156.0405  130.5488  150.8759 LP  0  0  0  0  0  0  0  0  0  0  0  0  # atno 17371 bound_to 10713
  140.6523  134.5055  157.5578 LP  0  0  0  0  0  0  0  0  0  0  0  0  # atno 17394 bound_to 11000
  139.9164  134.8237  156.1352 LP  0  0  0  0  0  0  0  0  0  0  0  0  # atno 17395 bound_to 11000

$$$$
