AV-unprocessed.smi:36|AV-procd|sdf|296|dock5
  -GOLD-   2262016 93D 1   1.00000     0.00000
 Structure written by MMmdl.
 63 66  0  0  0  0  0  0  0  0  2 V2000
  150.1612  135.0172  160.4274 C   0  0  0  0  0  0  0  0  0  0  0  0
  149.4068  134.1470  161.4467 C   0  0  0  0  0  0  0  0  0  0  0  0
  150.2632  133.9613  162.7102 C   0  0  0  0  0  0  0  0  0  0  0  0
  148.0728  134.8155  161.8185 C   0  0  0  0  0  0  0  0  0  0  0  0
  149.0491  132.4342  160.6788 Si  0  0  0  0  0  0  0  0  0  0  0  0
  150.6652  131.5048  160.3107 C   0  0  0  0  0  0  0  0  0  0  0  0
  147.9538  131.3850  161.8233 C   0  0  0  0  0  0  0  0  0  0  0  0
  148.2104  132.6779  159.2280 O   0  0  0  0  0  0  0  0  0  0  0  0
  148.8222  133.0695  158.0158 C   0  0  0  0  0  0  0  0  0  0  0  0
  147.9117  134.0708  157.2868 C   0  0  1  0  0  0  0  0  0  0  0  0
  147.8112  135.3054  157.9951 O   0  0  0  0  0  0  0  0  0  0  0  0
  147.7697  136.3877  157.1130 C   0  0  1  0  0  0  0  0  0  0  0  0
  149.0207  137.1884  157.2934 N   0  0  0  0  0  0  0  0  0  0  0  0
  149.9727  137.0931  158.2454 C   0  0  0  0  0  0  0  0  0  0  0  0
  150.9971  137.9415  158.1765 N   0  0  0  0  0  0  0  0  0  0  0  0
  150.6765  138.6764  157.0446 C   0  0  0  0  0  0  0  0  0  0  0  0
  151.3303  139.7495  156.3786 C   0  0  0  0  0  0  0  0  0  0  0  0
  152.4868  140.2765  156.8092 N   0  5  0  0  0  0  0  0  0  0  0  0
  152.7742  140.2887  158.1355 C   0  0  0  0  0  0  0  0  0  0  0  0
  153.3712  139.4301  158.7886 O   0  0  0  0  0  0  0  0  0  0  0  0
  152.3489  141.5584  158.8239 C   0  0  0  0  0  0  0  0  0  0  0  0
  152.9293  141.9106  160.0641 C   0  0  0  0  0  0  0  0  0  0  0  0
  152.5305  143.0830  160.7350 C   0  0  0  0  0  0  0  0  0  0  0  0
  151.5389  143.9119  160.1774 C   0  0  0  0  0  0  0  0  0  0  0  0
  150.9430  143.5645  158.9506 C   0  0  0  0  0  0  0  0  0  0  0  0
  151.3415  142.3921  158.2791 C   0  0  0  0  0  0  0  0  0  0  0  0
  150.7179  140.2528  155.2763 N   0  0  0  0  0  0  0  0  0  0  0  0
  149.5600  139.7352  154.8495 C   0  0  0  0  0  0  0  0  0  0  0  0
  148.8455  138.7315  155.3680 N   0  0  0  0  0  0  0  0  0  0  0  0
  149.4481  138.2237  156.4823 C   0  0  0  0  0  0  0  0  0  0  0  0
  147.7109  135.8177  155.6930 C   0  0  0  0  0  0  0  0  0  0  0  0
  148.3261  134.4406  155.8554 C   0  0  1  0  0  0  0  0  0  0  0  0
  149.7306  134.4816  155.6832 O   0  0  0  0  0  0  0  0  0  0  0  0
  150.3806  136.0045  160.8353 H   0  0  0  0  0  0  0  0  0  0  0  0
  149.5777  135.1607  159.5178 H   0  0  0  0  0  0  0  0  0  0  0  0
  151.1099  134.5622  160.1418 H   0  0  0  0  0  0  0  0  0  0  0  0
  151.2191  133.4914  162.4776 H   0  0  0  0  0  0  0  0  0  0  0  0
  149.7569  133.3315  163.4424 H   0  0  0  0  0  0  0  0  0  0  0  0
  150.4760  134.9175  163.1893 H   0  0  0  0  0  0  0  0  0  0  0  0
  148.2322  135.7904  162.2807 H   0  0  0  0  0  0  0  0  0  0  0  0
  147.5074  134.2049  162.5235 H   0  0  0  0  0  0  0  0  0  0  0  0
  147.4458  134.9683  160.9397 H   0  0  0  0  0  0  0  0  0  0  0  0
  151.2571  131.3562  161.2131 H   0  0  0  0  0  0  0  0  0  0  0  0
  151.2871  132.0471  159.5989 H   0  0  0  0  0  0  0  0  0  0  0  0
  150.4725  130.5202  159.8865 H   0  0  0  0  0  0  0  0  0  0  0  0
  148.4298  131.2149  162.7888 H   0  0  0  0  0  0  0  0  0  0  0  0
  147.7440  130.4077  161.3892 H   0  0  0  0  0  0  0  0  0  0  0  0
  146.9952  131.8671  162.0132 H   0  0  0  0  0  0  0  0  0  0  0  0
  149.8136  133.4877  158.1922 H   0  0  0  0  0  0  0  0  0  0  0  0
  148.9542  132.1728  157.4101 H   0  0  0  0  0  0  0  0  0  0  0  0
  146.9026  133.6585  157.2358 H   0  0  0  0  0  0  0  0  0  0  0  0
  146.9614  137.0794  157.3532 H   0  0  0  0  0  0  0  0  0  0  0  0
  149.9170  136.3578  159.0334 H   0  0  0  0  0  0  0  0  0  0  0  0
  153.6912  141.2846  160.5065 H   0  0  0  0  0  0  0  0  0  0  0  0
  152.9856  143.3452  161.6787 H   0  0  0  0  0  0  0  0  0  0  0  0
  151.2328  144.8108  160.6919 H   0  0  0  0  0  0  0  0  0  0  0  0
  150.1775  144.1959  158.5242 H   0  0  0  0  0  0  0  0  0  0  0  0
  150.8640  142.1386  157.3434 H   0  0  0  0  0  0  0  0  0  0  0  0
  149.1448  140.1934  153.9643 H   0  0  0  0  0  0  0  0  0  0  0  0
  146.6613  135.7258  155.4112 H   0  0  0  0  0  0  0  0  0  0  0  0
  148.2098  136.4582  154.9638 H   0  0  0  0  0  0  0  0  0  0  0  0
  147.9220  133.7344  155.1296 H   0  0  0  0  0  0  0  0  0  0  0  0
  149.9219  134.4592  154.7581 H   0  0  0  0  0  0  0  0  0  0  0  0
  1  2  1  0  0  0  0
  1 34  1  0  0  0  0
  1 35  1  0  0  0  0
  1 36  1  0  0  0  0
  2  3  1  0  0  0  0
  2  4  1  0  0  0  0
  2  5  1  0  0  0  0
  3 37  1  0  0  0  0
  3 38  1  0  0  0  0
  3 39  1  0  0  0  0
  4 40  1  0  0  0  0
  4 41  1  0  0  0  0
  4 42  1  0  0  0  0
  5  6  1  0  0  0  0
  5  7  1  0  0  0  0
  5  8  1  0  0  0  0
  6 43  1  0  0  0  0
  6 44  1  0  0  0  0
  6 45  1  0  0  0  0
  7 46  1  0  0  0  0
  7 47  1  0  0  0  0
  7 48  1  0  0  0  0
  8  9  1  0  0  0  0
  9 10  1  0  0  0  0
  9 49  1  0  0  0  0
  9 50  1  0  0  0  0
 10 32  1  0  0  0  0
 10 11  1  0  0  0  0
 10 51  1  0  0  0  0
 11 12  1  0  0  0  0
 12 13  1  0  0  0  0
 12 31  1  0  0  0  0
 12 52  1  0  0  0  0
 13 30  1  0  0  0  0
 13 14  1  0  0  0  0
 14 15  2  0  0  0  0
 14 53  1  0  0  0  0
 15 16  1  0  0  0  0
 16 30  2  0  0  0  0
 16 17  1  0  0  0  0
 17 18  1  0  0  0  0
 17 27  2  0  0  0  0
 18 19  1  0  0  0  0
 19 20  2  0  0  0  0
 19 21  1  0  0  0  0
 21 26  1  0  0  0  0
 21 22  2  0  0  0  0
 22 23  1  0  0  0  0
 22 54  1  0  0  0  0
 23 24  2  0  0  0  0
 23 55  1  0  0  0  0
 24 25  1  0  0  0  0
 24 56  1  0  0  0  0
 25 26  2  0  0  0  0
 25 57  1  0  0  0  0
 26 58  1  0  0  0  0
 27 28  1  0  0  0  0
 28 29  2  0  0  0  0
 28 59  1  0  0  0  0
 29 30  1  0  0  0  0
 31 32  1  0  0  0  0
 31 60  1  0  0  0  0
 31 61  1  0  0  0  0
 32 33  1  0  0  0  0
 32 62  1  0  0  0  0
 33 63  1  0  0  0  0
M  CHG  1  18  -1
M  END
> <s_m_source_file>
AV-unprocessed.smi

> <i_m_source_file_index>
36

> <i_lp_mmshare_version>
43012

> <i_f3d_flags>
0

> <s_epik_input>
W0NIM11DKFtDSDNdKShbQ0gzXSlbU2ldKFtDSDNdKShbQ0gzXSlPW0NIMl1bQ0BASF0xT1tDQEhdKFtDSDJdW0NASF0xW09IXSluKFtjSF1uMiljKGMyMyluW2NIXW5jM1tOSF1DKD1PKWM0W2NIXVtjSF1bY0hdW2NIXVtjSF00

> <s_epik_cmdline>
J2VwaWtfcHl0aG9uJywgJy1waCcsICc3LjAnLCAnLXRuJywgJzgnLCAnLW1hJywgJzIwMCcsICctbWV0YWxfYmluZGluZycsICctaW1hZScsICc8aW5maWxlLm1hZT4nLCAnLW9tYWUnLCAnPG91dGZpbGUubWFlPic=

> <r_lp_tautomer_probability>
1

> <r_epik_Ionization_Penalty>
4.75685

> <r_epik_Ionization_Penalty_Charging>
3.55822

> <r_epik_Ionization_Penalty_Neutral>
1.19863

> <r_epik_State_Penalty>
3.564

> <r_epik_Charging_Adjusted_Penalty>
7.12222

> <i_epik_Tot_Q>
-1

> <i_epik_Tot_abs_Q>
1

> <r_epik_Metal_State_Penalty>
0.523258

> <b_epik_Metal_Only>
1

> <s_epik_Chemistry_Notes>
This compound contains an acetal/aminal-like group ( X-CH(R)-Y where X, Y are N, S, or O) that may be acid/base labile, releasing an aldehyde.

> <s_lp_Force_Field>
OPLS_2005

> <r_lp_Energy>
35.5948

> <b_lp_Chiralities_Consistent>
1

> <s_lp_Variant>
AV-unprocessed.smi:36-18

> <Gold.Version>
5.8.1

> <Gold.Id.Protein>
6NUR|6NUR_protein|mol2

> <Gold.PLP.Fitness>
56.3471

> <Gold.PLP.PLP>
-48.4248

> <Gold.PLP.part.hbond>
-2.0000

> <Gold.PLP.part.metal>
0.0000

> <Gold.PLP.part.buried>
-4.8709

> <Gold.PLP.part.nonpolar>
-41.1855

> <Gold.PLP.part.repulsive>
0.1207

> <Gold.PLP.ligand.clash>
0.0000

> <Gold.PLP.ligand.torsion>
1.8681

> <Gold.PLP.Chemscore.Hbond>
2.8000

> <Gold.PLP.Chemscore.CHOScore>
1.0000

> <Gold.PLP.Chemscore.Metal>
0.0000

> <Gold.Chemscore.Hbonds>
donor molecule, donor type, donor heavy atom, donor atom, acceptor molecule, acceptor atom, score
      P1  H  7989  7998       L1    27  0.84
      P1  H  7997  8008       L1    18  0.99
      L1  C    28    59       P1  7957  0.21

> <Gold.PLP.Chemscore.Internal.Correction>
0.2585

> <Gold.Rescore>
     Score         DG    S(hbond)    S(metal)    S(lipo)     H(rot)  DE(clash)    DE(int)     intcor
     10.20     -14.70       0.85        0.00     112.84       2.67       0.06       4.44       ----

> <Gold.Chemscore.Fitness>
10.1989

> <Gold.Chemscore.DG>
-14.6989

> <Gold.Chemscore.ZeroCoef>
-5.4800

> <Gold.Chemscore.Hbond>
0.8541

> <Gold.Chemscore.Metal>
0.0000

> <Gold.Chemscore.Lipo>
112.8361

> <Gold.Chemscore.Internal_Hbond>
0.0000

> <Gold.Chemscore.DEClash>
0.0580

> <Gold.Chemscore.DEInternal>
4.4421

> <Gold.Chemscore.Rot>
2.6702

> <Gold.Chemscore.Internal.Correction>
   9.000000E+99

> <Gold.Chemscore.Hbonds>
donor molecule, donor type, donor heavy atom, donor atom, acceptor molecule, acceptor atom, score
      P1  H  7989  7998       L1    27  0.33
      P1  H  7997  8008       L1    18  0.02

> <Gold.Chemscore.Hbond.Weighted>
-2.8529

> <Gold.Chemscore.Metal.Weighted>
-0.0000

> <Gold.Chemscore.Lipo.Weighted>
-13.2018

> <Gold.Chemscore.Internal_Hbond.Weighted>
0.0000

> <Gold.Chemscore.DEClash.Weighted>
0.0580

> <Gold.Chemscore.DEInternal.Weighted>
4.4421

> <Gold.Chemscore.Rot.Weighted>
6.8358

> <Gold.Chemscore.Internal.Correction.Weighted>
   9.000000E+99

> <Gold.Protein.RotatedTorsions>
[ 6907 6896 6895 6894 ] final   78.21 input  -60.11 | X-H torsion
[ 7974 7965 7964 7962 ] final   72.99 input  175.53 | X-H torsion
[ 8008 7997 7996 7995 ] final  -45.30 input   59.86 | X-H torsion
[ 10167 10162 10161 10158 ] final  112.95 input  -65.29 | X-H torsion
[ 10718 10713 10712 10709 ] final  -75.68 input   66.30 | X-H torsion
[ 10763 10752 10751 10750 ] final   -2.80 input  -60.55 | X-H torsion
[ 11005 11000 10999 10996 ] final -179.43 input  -57.11 | X-H torsion

> <Gold.Protein.ActiveResidues>
 VAL166  LYS551  ARG553  GLY616  TRP617  ASP618  TYR619  PRO620  LYS621  CYS622 
 ASP623  PHE694  ASN695  SER759  ASP760  ASP761  ALA762  ILE779  LEU786  VAL792 
 PHE793  MET794  SER795  GLU796  ALA797  LYS798  CYS799  TRP800  GLU811  SER814 

> <Gold.Protein.RotatedAtoms>
  152.5150  134.3698  159.9313 H   0  0  0  0  0  0  0  0  0  0  0  0  # atno 6907 bound_to 6896
  151.3652  133.3868  159.2701 H   0  0  0  0  0  0  0  0  0  0  0  0  # atno 6908 bound_to 6896
  150.9620  134.9026  159.7795 H   0  0  0  0  0  0  0  0  0  0  0  0  # atno 6909 bound_to 6896
  145.7464  139.2742  143.1456 H   0  0  0  0  0  0  0  0  0  0  0  0  # atno 7974 bound_to 7965
  154.4000  140.1400  156.3825 H   0  0  0  0  0  0  0  0  0  0  0  0  # atno 8008 bound_to 7997
  155.7991  140.3476  155.5372 H   0  0  0  0  0  0  0  0  0  0  0  0  # atno 8009 bound_to 7997
  155.8502  140.0940  157.1670 H   0  0  0  0  0  0  0  0  0  0  0  0  # atno 8010 bound_to 7997
  139.6498  144.7128  151.2071 H   0  0  0  0  0  0  0  0  0  0  0  0  # atno 10167 bound_to 10162
  156.0199  130.4447  150.3080 H   0  0  0  0  0  0  0  0  0  0  0  0  # atno 10718 bound_to 10713
  153.3629  135.6991  153.6698 H   0  0  0  0  0  0  0  0  0  0  0  0  # atno 10763 bound_to 10752
  153.5380  135.3579  155.2706 H   0  0  0  0  0  0  0  0  0  0  0  0  # atno 10764 bound_to 10752
  154.8670  135.4196  154.2890 H   0  0  0  0  0  0  0  0  0  0  0  0  # atno 10765 bound_to 10752
  140.4188  134.6625  157.4653 H   0  0  0  0  0  0  0  0  0  0  0  0  # atno 11005 bound_to 11000
  146.0398  140.8176  142.9834 LP  0  0  0  0  0  0  0  0  0  0  0  0  # atno 17320 bound_to 7965
  144.6859  140.2894  143.7280 LP  0  0  0  0  0  0  0  0  0  0  0  0  # atno 17321 bound_to 7965
  140.7532  143.6170  150.8550 LP  0  0  0  0  0  0  0  0  0  0  0  0  # atno 17342 bound_to 10162
  139.9817  143.5944  152.2941 LP  0  0  0  0  0  0  0  0  0  0  0  0  # atno 17343 bound_to 10162
  157.1182  131.0239  151.3020 LP  0  0  0  0  0  0  0  0  0  0  0  0  # atno 17370 bound_to 10713
  157.4649  130.7675  149.7270 LP  0  0  0  0  0  0  0  0  0  0  0  0  # atno 17371 bound_to 10713
  140.0215  134.6540  155.9233 LP  0  0  0  0  0  0  0  0  0  0  0  0  # atno 17394 bound_to 11000
  141.1792  133.6544  156.4952 LP  0  0  0  0  0  0  0  0  0  0  0  0  # atno 17395 bound_to 11000

$$$$
