AV-unprocessed.smi:1604|AV-procd|sdf|6450|dock6
  -GOLD-   22720 7103D 1   1.00000     0.00000
 Structure written by MMmdl.
 47 49  0  0  0  0  0  0  0  0  2 V2000
  150.0468  134.2641  155.8611 O   0  0  0  0  0  0  0  0  0  0  0  0
  149.6551  134.8071  154.8286 C   0  0  0  0  0  0  0  0  0  0  0  0
  148.9986  134.1839  153.8360 N   0  0  0  0  0  0  0  0  0  0  0  0
  148.6553  132.8051  153.7426 C   0  0  0  0  0  0  0  0  0  0  0  0
  149.5006  131.7846  154.2491 C   0  0  0  0  0  0  0  0  0  0  0  0
  149.1211  130.4343  154.1234 C   0  0  0  0  0  0  0  0  0  0  0  0
  147.9076  130.1232  153.4849 C   0  0  0  0  0  0  0  0  0  0  0  0
  147.1337  131.1161  152.9993 N   0  3  0  0  0  0  0  0  0  0  0  0
  147.4468  132.4322  153.0930 C   0  0  0  0  0  0  0  0  0  0  0  0
  146.5732  133.3833  152.5248 N   0  0  0  0  0  0  0  0  0  0  0  0
  146.4693  133.3014  151.0701 C   0  0  0  0  0  0  0  0  0  0  0  0
  145.0103  133.6050  150.7211 C   0  0  0  0  0  0  0  0  0  0  0  0
  144.2588  133.1808  151.9767 C   0  0  0  0  0  0  0  0  0  0  0  0
  145.2355  133.5619  153.0873 C   0  0  0  0  0  0  0  0  0  0  0  0
  149.8219  136.1120  154.5534 N   0  0  0  0  0  0  0  0  0  0  0  0
  150.4458  137.1399  155.3985 C   0  0  1  0  0  0  0  0  0  0  0  0
  150.7098  138.4609  154.6338 C   0  0  0  0  0  0  0  0  0  0  0  0
  151.8766  139.2885  155.1952 C   0  0  0  0  0  0  0  0  0  0  0  0
  151.6660  139.8035  156.6263 C   0  0  0  0  0  0  0  0  0  0  0  0
  151.6031  138.6855  157.6802 C   0  0  0  0  0  0  0  0  0  0  0  0
  150.3055  138.0230  157.7240 N   0  0  0  0  0  0  0  0  0  0  0  0
  149.7190  137.3113  156.7492 C   0  0  0  0  0  0  0  0  0  0  0  0
  148.6133  136.8026  156.9306 O   0  0  0  0  0  0  0  0  0  0  0  0
  148.6407  134.7740  153.0996 H   0  0  0  0  0  0  0  0  0  0  0  0
  150.4430  132.0151  154.7223 H   0  0  0  0  0  0  0  0  0  0  0  0
  149.7559  129.6489  154.5070 H   0  0  0  0  0  0  0  0  0  0  0  0
  147.5390  129.1181  153.3404 H   0  0  0  0  0  0  0  0  0  0  0  0
  147.1453  134.0064  150.5857 H   0  0  0  0  0  0  0  0  0  0  0  0
  146.7324  132.2983  150.7297 H   0  0  0  0  0  0  0  0  0  0  0  0
  144.8826  134.6767  150.5614 H   0  0  0  0  0  0  0  0  0  0  0  0
  144.6716  133.0871  149.8235 H   0  0  0  0  0  0  0  0  0  0  0  0
  143.2875  133.6654  152.0795 H   0  0  0  0  0  0  0  0  0  0  0  0
  144.1028  132.1011  151.9705 H   0  0  0  0  0  0  0  0  0  0  0  0
  145.0467  133.0006  154.0022 H   0  0  0  0  0  0  0  0  0  0  0  0
  145.1201  134.6174  153.3361 H   0  0  0  0  0  0  0  0  0  0  0  0
  149.4706  136.4397  153.6658 H   0  0  0  0  0  0  0  0  0  0  0  0
  151.4178  136.7052  155.6344 H   0  0  0  0  0  0  0  0  0  0  0  0
  150.9461  138.2338  153.5932 H   0  0  0  0  0  0  0  0  0  0  0  0
  149.8074  139.0735  154.6093 H   0  0  0  0  0  0  0  0  0  0  0  0
  152.7962  138.7037  155.1487 H   0  0  0  0  0  0  0  0  0  0  0  0
  152.0382  140.1450  154.5400 H   0  0  0  0  0  0  0  0  0  0  0  0
  152.5016  140.4591  156.8737 H   0  0  0  0  0  0  0  0  0  0  0  0
  150.7726  140.4274  156.6789 H   0  0  0  0  0  0  0  0  0  0  0  0
  152.3981  137.9543  157.5284 H   0  0  0  0  0  0  0  0  0  0  0  0
  151.7712  139.1175  158.6669 H   0  0  0  0  0  0  0  0  0  0  0  0
  149.7939  138.1133  158.5902 H   0  0  0  0  0  0  0  0  0  0  0  0
  146.2646  130.8602  152.5303 H   0  0  0  0  0  0  0  0  0  0  0  0
  1  2  2  0  0  0  0
  2  3  1  0  0  0  0
  2 15  1  0  0  0  0
  3  4  1  0  0  0  0
  3 24  1  0  0  0  0
  4  9  1  0  0  0  0
  4  5  2  0  0  0  0
  5  6  1  0  0  0  0
  5 25  1  0  0  0  0
  6  7  2  0  0  0  0
  6 26  1  0  0  0  0
  7  8  1  0  0  0  0
  7 27  1  0  0  0  0
  8  9  2  0  0  0  0
  8 47  1  0  0  0  0
  9 10  1  0  0  0  0
 10 14  1  0  0  0  0
 10 11  1  0  0  0  0
 11 12  1  0  0  0  0
 11 28  1  0  0  0  0
 11 29  1  0  0  0  0
 12 13  1  0  0  0  0
 12 30  1  0  0  0  0
 12 31  1  0  0  0  0
 13 14  1  0  0  0  0
 13 32  1  0  0  0  0
 13 33  1  0  0  0  0
 14 34  1  0  0  0  0
 14 35  1  0  0  0  0
 15 16  1  0  0  0  0
 15 36  1  0  0  0  0
 16 22  1  0  0  0  0
 16 17  1  0  0  0  0
 16 37  1  0  0  0  0
 17 18  1  0  0  0  0
 17 38  1  0  0  0  0
 17 39  1  0  0  0  0
 18 19  1  0  0  0  0
 18 40  1  0  0  0  0
 18 41  1  0  0  0  0
 19 20  1  0  0  0  0
 19 42  1  0  0  0  0
 19 43  1  0  0  0  0
 20 21  1  0  0  0  0
 20 44  1  0  0  0  0
 20 45  1  0  0  0  0
 21 22  1  0  0  0  0
 21 46  1  0  0  0  0
 22 23  2  0  0  0  0
M  CHG  1   8   1
M  END
> <s_m_source_file>
AV-unprocessed.smi

> <i_m_source_file_index>
1604

> <i_lp_mmshare_version>
43012

> <i_f3d_flags>
0

> <s_epik_input>
Tz1DMVtOSF1bQ0gyXVtDSDJdW0NIMl1bQ0gyXVtDQEhdMVtOSF1DKD1PKVtOSF1jMltjSF1bY0hdW2NIXW5jMk4zW0NIMl1bQ0gyXVtDSDJdW0NIMl0z

> <s_epik_cmdline>
J2VwaWtfcHl0aG9uJywgJy1waCcsICc3LjAnLCAnLXRuJywgJzgnLCAnLW1hJywgJzIwMCcsICctbWV0YWxfYmluZGluZycsICctaW1hZScsICc8aW5maWxlLm1hZT4nLCAnLW9tYWUnLCAnPG91dGZpbGUubWFlPic=

> <r_lp_tautomer_probability>
0.999994

> <r_epik_Ionization_Penalty>
1.20452

> <r_epik_Ionization_Penalty_Charging>
1.2045

> <r_epik_Ionization_Penalty_Neutral>
1.88134e-05

> <r_epik_State_Penalty>
1.2704

> <r_epik_Charging_Adjusted_Penalty>
2.4749

> <i_epik_Tot_Q>
1

> <i_epik_Tot_abs_Q>
1

> <r_epik_Metal_State_Penalty>
1.34433

> <b_epik_Metal_Only>
0

> <s_lp_Force_Field>
OPLS_2005

> <r_lp_Energy>
47.2667

> <b_lp_Chiralities_Consistent>
1

> <s_lp_Variant>
AV-unprocessed.smi:1604-4

> <Gold.Version>
5.8.1

> <Gold.Id.Protein>
6NUR|6NUR_protein|mol2

> <Gold.PLP.Fitness>
39.9254

> <Gold.PLP.PLP>
-34.4794

> <Gold.PLP.part.hbond>
-2.8903

> <Gold.PLP.part.metal>
0.0000

> <Gold.PLP.part.buried>
-3.7060

> <Gold.PLP.part.nonpolar>
-28.0795

> <Gold.PLP.part.repulsive>
0.2573

> <Gold.PLP.ligand.clash>
0.0000

> <Gold.PLP.ligand.torsion>
0.3646

> <Gold.PLP.Chemscore.Hbond>
1.9920

> <Gold.PLP.Chemscore.CHOScore>
0.0000

> <Gold.PLP.Chemscore.Metal>
0.0000

> <Gold.Chemscore.Hbonds>
donor molecule, donor type, donor heavy atom, donor atom, acceptor molecule, acceptor atom, score
      L1  H     3    24       P1  7948  0.94
      L1  H    15    36       P1  7948  1.00

> <Gold.PLP.Chemscore.Internal.Correction>
0.1993

> <Gold.Rescore>
     Score         DG    S(hbond)    S(metal)    S(lipo)     H(rot)  DE(clash)    DE(int)     intcor
     14.39     -15.78       1.59        0.00      70.09       1.26       0.01       1.39       ----

> <Gold.Chemscore.Fitness>
14.3878

> <Gold.Chemscore.DG>
-15.7834

> <Gold.Chemscore.ZeroCoef>
-5.4800

> <Gold.Chemscore.Hbond>
1.5927

> <Gold.Chemscore.Metal>
0.0000

> <Gold.Chemscore.Lipo>
70.0912

> <Gold.Chemscore.Internal_Hbond>
0.0000

> <Gold.Chemscore.DEClash>
0.0098

> <Gold.Chemscore.DEInternal>
1.3858

> <Gold.Chemscore.Rot>
1.2566

> <Gold.Chemscore.Internal.Correction>
   9.000000E+99

> <Gold.Chemscore.Hbonds>
donor molecule, donor type, donor heavy atom, donor atom, acceptor molecule, acceptor atom, score
      L1  H     3    24       P1  7948  0.31
      L1  H    15    36       P1  7948  0.76

> <Gold.Chemscore.Hbond.Weighted>
-5.3195

> <Gold.Chemscore.Metal.Weighted>
-0.0000

> <Gold.Chemscore.Lipo.Weighted>
-8.2007

> <Gold.Chemscore.Internal_Hbond.Weighted>
0.0000

> <Gold.Chemscore.DEClash.Weighted>
0.0098

> <Gold.Chemscore.DEInternal.Weighted>
1.3858

> <Gold.Chemscore.Rot.Weighted>
3.2168

> <Gold.Chemscore.Internal.Correction.Weighted>
   9.000000E+99

> <Gold.Protein.RotatedTorsions>
[ 6907 6896 6895 6894 ] final    0.27 input  -60.11 | X-H torsion
[ 7974 7965 7964 7962 ] final   29.99 input  175.53 | X-H torsion
[ 8008 7997 7996 7995 ] final   36.59 input   59.86 | X-H torsion
[ 10167 10162 10161 10158 ] final -115.68 input  -65.29 | X-H torsion
[ 10718 10713 10712 10709 ] final -157.53 input   66.30 | X-H torsion
[ 10763 10752 10751 10750 ] final   68.03 input  -60.55 | X-H torsion
[ 11005 11000 10999 10996 ] final   19.35 input  -57.11 | X-H torsion

> <Gold.Protein.ActiveResidues>
 VAL166  LYS551  ARG553  GLY616  TRP617  ASP618  TYR619  PRO620  LYS621  CYS622 
 ASP623  PHE694  ASN695  SER759  ASP760  ASP761  ALA762  ILE779  LEU786  VAL792 
 PHE793  MET794  SER795  GLU796  ALA797  LYS798  CYS799  TRP800  GLU811  SER814 

> <Gold.Protein.RotatedAtoms>
  151.5737  135.1061  160.0000 H   0  0  0  0  0  0  0  0  0  0  0  0  # atno 6907 bound_to 6896
  152.4388  133.7406  159.6649 H   0  0  0  0  0  0  0  0  0  0  0  0  # atno 6908 bound_to 6896
  150.8290  133.8054  159.3130 H   0  0  0  0  0  0  0  0  0  0  0  0  # atno 6909 bound_to 6896
  146.1638  139.6848  142.9015 H   0  0  0  0  0  0  0  0  0  0  0  0  # atno 7974 bound_to 7965
  155.1898  140.3307  155.4360 H   0  0  0  0  0  0  0  0  0  0  0  0  # atno 8008 bound_to 7997
  156.2446  140.1912  156.6942 H   0  0  0  0  0  0  0  0  0  0  0  0  # atno 8009 bound_to 7997
  154.6213  140.0595  156.9605 H   0  0  0  0  0  0  0  0  0  0  0  0  # atno 8010 bound_to 7997
  140.0874  143.4731  152.1890 H   0  0  0  0  0  0  0  0  0  0  0  0  # atno 10167 bound_to 10162
  156.5415  130.8565  151.2750 H   0  0  0  0  0  0  0  0  0  0  0  0  # atno 10718 bound_to 10713
  153.0215  135.5262  154.7072 H   0  0  0  0  0  0  0  0  0  0  0  0  # atno 10763 bound_to 10752
  154.6164  135.2884  155.0377 H   0  0  0  0  0  0  0  0  0  0  0  0  # atno 10764 bound_to 10752
  154.1380  135.6582  153.4988 H   0  0  0  0  0  0  0  0  0  0  0  0  # atno 10765 bound_to 10752
  140.4146  134.1582  155.7669 H   0  0  0  0  0  0  0  0  0  0  0  0  # atno 11005 bound_to 11000
  145.4519  141.0429  143.2799 LP  0  0  0  0  0  0  0  0  0  0  0  0  # atno 17320 bound_to 7965
  144.8064  139.6043  143.7049 LP  0  0  0  0  0  0  0  0  0  0  0  0  # atno 17321 bound_to 7965
  139.5744  144.7480  151.3804 LP  0  0  0  0  0  0  0  0  0  0  0  0  # atno 17342 bound_to 10162
  140.7046  143.7546  150.7460 LP  0  0  0  0  0  0  0  0  0  0  0  0  # atno 17343 bound_to 10162
  157.7404  130.9850  150.2377 LP  0  0  0  0  0  0  0  0  0  0  0  0  # atno 17370 bound_to 10713
  156.2967  130.3753  149.7789 LP  0  0  0  0  0  0  0  0  0  0  0  0  # atno 17371 bound_to 10713
  141.1808  133.8419  157.1265 LP  0  0  0  0  0  0  0  0  0  0  0  0  # atno 17394 bound_to 11000
  140.0243  134.9931  157.0654 LP  0  0  0  0  0  0  0  0  0  0  0  0  # atno 17395 bound_to 11000

$$$$
