AV-unprocessed.smi:246|AV-procd|sdf|1887|dock10
  -GOLD-   2262020543D 1   1.00000     0.00000
 Structure written by MMmdl.
 57 60  0  0  0  0  0  0  0  0  1 V2000
  144.9774  132.1000  149.9736 C   0  0  0  0  0  0  0  0  0  0  0  0
  146.2867  132.4719  150.6828 C   0  0  0  0  0  0  0  0  0  0  0  0
  146.2730  132.0969  152.0532 O   0  0  0  0  0  0  0  0  0  0  0  0
  146.6645  133.1297  152.9459 C   0  0  0  0  0  0  0  0  0  0  0  0
  148.1931  133.1653  153.0266 C   0  0  0  0  0  0  0  0  0  0  0  0
  148.5934  132.9033  154.3636 O   0  0  0  0  0  0  0  0  0  0  0  0
  149.8320  133.5042  154.7113 C   0  0  2  0  0  0  0  0  0  0  0  0
  150.4245  132.8558  155.9609 C   0  0  0  0  0  0  0  0  0  0  0  0
  151.3582  133.9437  156.4882 C   0  0  0  0  0  0  0  0  0  0  0  0
  150.6878  135.1957  156.1630 N   0  0  0  0  0  0  0  0  0  0  0  0
  151.3130  136.3944  156.2887 C   0  0  0  0  0  0  0  0  0  0  0  0
  151.8384  136.9838  155.1819 N   0  0  0  0  0  0  0  0  0  0  0  0
  152.4516  138.1674  155.2697 C   0  0  0  0  0  0  0  0  0  0  0  0
  152.6536  138.9241  156.3494 N   0  0  0  0  0  0  0  0  0  0  0  0
  152.1423  138.3347  157.4678 C   0  0  0  0  0  0  0  0  0  0  0  0
  151.4705  137.0799  157.5290 C   0  0  0  0  0  0  0  0  0  0  0  0
  151.1209  136.8003  158.8457 N   0  0  0  0  0  0  0  0  0  0  0  0
  151.5500  137.8316  159.5189 C   0  0  0  0  0  0  0  0  0  0  0  0
  152.1595  138.8103  158.7675 N   0  0  0  0  0  0  0  0  0  0  0  0
  152.7140  140.0620  159.2574 C   0  0  0  0  0  0  0  0  0  0  0  0
  151.9560  141.3251  158.7864 C   0  0  1  0  0  0  0  0  0  0  0  0
  150.5633  141.1910  158.9933 O   0  0  0  0  0  0  0  0  0  0  0  0
  152.4593  142.6612  159.3801 C   0  0  1  0  0  0  0  0  0  0  0  0
  151.8394  143.9300  158.7835 C   0  0  0  0  0  0  0  0  0  0  0  0
  151.9802  144.9090  159.9277 C   0  0  0  0  0  0  0  0  0  0  0  0
  151.7024  144.0124  161.1286 C   0  0  0  0  0  0  0  0  0  0  0  0
  152.2668  142.7511  160.7910 O   0  0  0  0  0  0  0  0  0  0  0  0
  149.7024  134.9814  155.1107 C   0  0  0  0  0  0  0  0  0  0  0  0
  150.5519  133.4027  153.8969 H   0  0  0  0  0  0  0  0  0  0  0  0
  144.9702  132.4849  148.9539 H   0  0  0  0  0  0  0  0  0  0  0  0
  144.1178  132.5223  150.4942 H   0  0  0  0  0  0  0  0  0  0  0  0
  144.8384  131.0210  149.9144 H   0  0  0  0  0  0  0  0  0  0  0  0
  147.1480  132.0424  150.1688 H   0  0  0  0  0  0  0  0  0  0  0  0
  146.4115  133.5542  150.6421 H   0  0  0  0  0  0  0  0  0  0  0  0
  146.2829  134.1017  152.6333 H   0  0  0  0  0  0  0  0  0  0  0  0
  146.2570  132.9211  153.9362 H   0  0  0  0  0  0  0  0  0  0  0  0
  148.6057  132.3959  152.3722 H   0  0  0  0  0  0  0  0  0  0  0  0
  148.5694  134.1278  152.6775 H   0  0  0  0  0  0  0  0  0  0  0  0
  149.6368  132.6612  156.6902 H   0  0  0  0  0  0  0  0  0  0  0  0
  150.9366  131.9157  155.7549 H   0  0  0  0  0  0  0  0  0  0  0  0
  151.5286  133.8466  157.5607 H   0  0  0  0  0  0  0  0  0  0  0  0
  152.3213  133.8939  155.9781 H   0  0  0  0  0  0  0  0  0  0  0  0
  152.8336  138.5657  154.3414 H   0  0  0  0  0  0  0  0  0  0  0  0
  151.4182  137.9152  160.5879 H   0  0  0  0  0  0  0  0  0  0  0  0
  152.7266  140.0262  160.3473 H   0  0  0  0  0  0  0  0  0  0  0  0
  153.7575  140.1164  158.9448 H   0  0  0  0  0  0  0  0  0  0  0  0
  152.0889  141.3855  157.7056 H   0  0  0  0  0  0  0  0  0  0  0  0
  150.4203  140.5537  159.6764 H   0  0  0  0  0  0  0  0  0  0  0  0
  153.5377  142.7175  159.2250 H   0  0  0  0  0  0  0  0  0  0  0  0
  152.3421  144.2603  157.8742 H   0  0  0  0  0  0  0  0  0  0  0  0
  150.7827  143.7892  158.5535 H   0  0  0  0  0  0  0  0  0  0  0  0
  153.0001  145.2936  159.9714 H   0  0  0  0  0  0  0  0  0  0  0  0
  151.2951  145.7540  159.8578 H   0  0  0  0  0  0  0  0  0  0  0  0
  152.1216  144.4043  162.0554 H   0  0  0  0  0  0  0  0  0  0  0  0
  150.6280  143.8852  161.2676 H   0  0  0  0  0  0  0  0  0  0  0  0
  149.8614  135.6326  154.2503 H   0  0  0  0  0  0  0  0  0  0  0  0
  148.7120  135.1867  155.5187 H   0  0  0  0  0  0  0  0  0  0  0  0
  1  2  1  0  0  0  0
  1 30  1  0  0  0  0
  1 31  1  0  0  0  0
  1 32  1  0  0  0  0
  2  3  1  0  0  0  0
  2 33  1  0  0  0  0
  2 34  1  0  0  0  0
  3  4  1  0  0  0  0
  4  5  1  0  0  0  0
  4 35  1  0  0  0  0
  4 36  1  0  0  0  0
  5  6  1  0  0  0  0
  5 37  1  0  0  0  0
  5 38  1  0  0  0  0
  6  7  1  0  0  0  0
  7 29  1  0  0  0  0
  7 28  1  0  0  0  0
  7  8  1  0  0  0  0
  8  9  1  0  0  0  0
  8 39  1  0  0  0  0
  8 40  1  0  0  0  0
  9 10  1  0  0  0  0
  9 41  1  0  0  0  0
  9 42  1  0  0  0  0
 10 11  1  0  0  0  0
 10 28  1  0  0  0  0
 11 16  1  0  0  0  0
 11 12  2  0  0  0  0
 12 13  1  0  0  0  0
 13 14  2  0  0  0  0
 13 43  1  0  0  0  0
 14 15  1  0  0  0  0
 15 19  1  0  0  0  0
 15 16  2  0  0  0  0
 16 17  1  0  0  0  0
 17 18  2  0  0  0  0
 18 19  1  0  0  0  0
 18 44  1  0  0  0  0
 19 20  1  0  0  0  0
 20 21  1  0  0  0  0
 20 45  1  0  0  0  0
 20 46  1  0  0  0  0
 21 22  1  0  0  0  0
 21 23  1  0  0  0  0
 21 47  1  0  0  0  0
 22 48  1  0  0  0  0
 23 27  1  0  0  0  0
 23 24  1  0  0  0  0
 23 49  1  0  0  0  0
 24 25  1  0  0  0  0
 24 50  1  0  0  0  0
 24 51  1  0  0  0  0
 25 26  1  0  0  0  0
 25 52  1  0  0  0  0
 25 53  1  0  0  0  0
 26 27  1  0  0  0  0
 26 54  1  0  0  0  0
 26 55  1  0  0  0  0
 28 56  1  0  0  0  0
 28 57  1  0  0  0  0
M  END
> <s_m_source_file>
AV-unprocessed.smi

> <i_m_source_file_index>
246

> <i_lp_mmshare_version>
43012

> <i_f3d_flags>
0

> <s_epik_input>
W0NIM11bQ0gyXU9bQ0gyXVtDSDJdT1tDQEhdMVtDSDJdW0NIMl1OKFtDSDJdMSljKG5bY0hdbjIpYyhjMjMpbltjSF1uM1tDSDJdW0NASF0oW09IXSlbQ0BASF00W0NIMl1bQ0gyXVtDSDJdTzQ=

> <s_epik_cmdline>
J2VwaWtfcHl0aG9uJywgJy1waCcsICc3LjAnLCAnLXRuJywgJzgnLCAnLW1hJywgJzIwMCcsICctbWV0YWxfYmluZGluZycsICctaW1hZScsICc8aW5maWxlLm1hZT4nLCAnLW9tYWUnLCAnPG91dGZpbGUubWFlPic=

> <r_lp_tautomer_probability>
1

> <r_epik_Ionization_Penalty>
0.0024631

> <r_epik_Ionization_Penalty_Charging>
0

> <r_epik_Ionization_Penalty_Neutral>
0.0024631

> <r_epik_State_Penalty>
0.00162428

> <r_epik_Charging_Adjusted_Penalty>
0.00162428

> <i_epik_Tot_Q>
0

> <i_epik_Tot_abs_Q>
0

> <r_epik_Metal_State_Penalty>
-0

> <b_epik_Metal_Only>
0

> <s_lp_Force_Field>
OPLS_2005

> <r_lp_Energy>
52.7235

> <b_lp_Chiralities_Consistent>
1

> <s_lp_Variant>
AV-unprocessed.smi:246-8

> <Gold.Version>
5.8.1

> <Gold.Id.Protein>
6NUR|6NUR_protein|mol2

> <Gold.PLP.Fitness>
55.3802

> <Gold.PLP.PLP>
-52.2153

> <Gold.PLP.part.hbond>
-3.2850

> <Gold.PLP.part.metal>
0.0000

> <Gold.PLP.part.buried>
-9.4438

> <Gold.PLP.part.nonpolar>
-41.0132

> <Gold.PLP.part.repulsive>
0.3043

> <Gold.PLP.ligand.clash>
0.0000

> <Gold.PLP.ligand.torsion>
2.4511

> <Gold.PLP.Chemscore.Hbond>
2.5037

> <Gold.PLP.Chemscore.CHOScore>
0.0000

> <Gold.PLP.Chemscore.Metal>
0.0000

> <Gold.Chemscore.Hbonds>
donor molecule, donor type, donor heavy atom, donor atom, acceptor molecule, acceptor atom, score
      P1  H  6896  6909       L1    17  0.88
      P1  H  7997  8008       L1    14  0.84
      P1  H 10752 10764       L1    12  0.75

> <Gold.PLP.Chemscore.Internal.Correction>
0.5561

> <Gold.Rescore>
     Score         DG    S(hbond)    S(metal)    S(lipo)     H(rot)  DE(clash)    DE(int)     intcor
     14.98     -17.54       1.92        0.00     116.21       3.10       0.16       2.40       ----

> <Gold.Chemscore.Fitness>
14.9756

> <Gold.Chemscore.DG>
-17.5359

> <Gold.Chemscore.ZeroCoef>
-5.4800

> <Gold.Chemscore.Hbond>
1.9168

> <Gold.Chemscore.Metal>
0.0000

> <Gold.Chemscore.Lipo>
116.2085

> <Gold.Chemscore.Internal_Hbond>
0.0000

> <Gold.Chemscore.DEClash>
0.1649

> <Gold.Chemscore.DEInternal>
2.3954

> <Gold.Chemscore.Rot>
3.1026

> <Gold.Chemscore.Internal.Correction>
   9.000000E+99

> <Gold.Chemscore.Hbonds>
donor molecule, donor type, donor heavy atom, donor atom, acceptor molecule, acceptor atom, score
      P1  H  6896  6909       L1    17  0.50
      P1  H  7997  8008       L1    14  0.71
      P1  H 10752 10764       L1    12  0.08

> <Gold.Chemscore.Hbond.Weighted>
-6.4021

> <Gold.Chemscore.Metal.Weighted>
-0.0000

> <Gold.Chemscore.Lipo.Weighted>
-13.5964

> <Gold.Chemscore.Internal_Hbond.Weighted>
0.0000

> <Gold.Chemscore.DEClash.Weighted>
0.1649

> <Gold.Chemscore.DEInternal.Weighted>
2.3954

> <Gold.Chemscore.Rot.Weighted>
7.9426

> <Gold.Chemscore.Internal.Correction.Weighted>
   9.000000E+99

> <Gold.Protein.RotatedTorsions>
[ 6907 6896 6895 6894 ] final  116.07 input  -60.11 | X-H torsion
[ 7974 7965 7964 7962 ] final  101.88 input  175.53 | X-H torsion
[ 8008 7997 7996 7995 ] final  -34.39 input   59.86 | X-H torsion
[ 10167 10162 10161 10158 ] final  114.12 input  -65.29 | X-H torsion
[ 10718 10713 10712 10709 ] final   99.31 input   66.30 | X-H torsion
[ 10763 10752 10751 10750 ] final  -46.56 input  -60.55 | X-H torsion
[ 11005 11000 10999 10996 ] final -105.84 input  -57.11 | X-H torsion

> <Gold.Protein.ActiveResidues>
 VAL166  LYS551  ARG553  GLY616  TRP617  ASP618  TYR619  PRO620  LYS621  CYS622 
 ASP623  PHE694  ASN695  SER759  ASP760  ASP761  ALA762  ILE779  LEU786  VAL792 
 PHE793  MET794  SER795  GLU796  ALA797  LYS798  CYS799  TRP800  GLU811  SER814 

> <Gold.Protein.RotatedAtoms>
  152.4702  133.8012  159.6953 H   0  0  0  0  0  0  0  0  0  0  0  0  # atno 6907 bound_to 6896
  150.8687  133.7528  159.2975 H   0  0  0  0  0  0  0  0  0  0  0  0  # atno 6908 bound_to 6896
  151.5070  135.1067  159.9896 H   0  0  0  0  0  0  0  0  0  0  0  0  # atno 6909 bound_to 6896
  145.3665  139.2407  143.3478 H   0  0  0  0  0  0  0  0  0  0  0  0  # atno 7974 bound_to 7965
  154.4122  140.1685  156.2042 H   0  0  0  0  0  0  0  0  0  0  0  0  # atno 8008 bound_to 7997
  155.9498  140.3402  155.6375 H   0  0  0  0  0  0  0  0  0  0  0  0  # atno 8009 bound_to 7997
  155.6884  140.0731  157.2448 H   0  0  0  0  0  0  0  0  0  0  0  0  # atno 8010 bound_to 7997
  139.6411  144.7124  151.2234 H   0  0  0  0  0  0  0  0  0  0  0  0  # atno 10167 bound_to 10162
  157.6878  131.0666  150.4929 H   0  0  0  0  0  0  0  0  0  0  0  0  # atno 10718 bound_to 10713
  154.0470  135.6636  153.4796 H   0  0  0  0  0  0  0  0  0  0  0  0  # atno 10763 bound_to 10752
  153.0479  135.5103  154.7788 H   0  0  0  0  0  0  0  0  0  0  0  0  # atno 10764 bound_to 10752
  154.6782  135.3040  154.9616 H   0  0  0  0  0  0  0  0  0  0  0  0  # atno 10765 bound_to 10752
  141.1034  133.8842  157.1783 H   0  0  0  0  0  0  0  0  0  0  0  0  # atno 11005 bound_to 11000
  146.2904  140.4308  142.8741 LP  0  0  0  0  0  0  0  0  0  0  0  0  # atno 17320 bound_to 7965
  144.8608  140.7136  143.6109 LP  0  0  0  0  0  0  0  0  0  0  0  0  # atno 17321 bound_to 7965
  140.7491  143.6310  150.8423 LP  0  0  0  0  0  0  0  0  0  0  0  0  # atno 17342 bound_to 10162
  139.9947  143.5809  152.2897 LP  0  0  0  0  0  0  0  0  0  0  0  0  # atno 17343 bound_to 10162
  156.5254  130.4172  149.6229 LP  0  0  0  0  0  0  0  0  0  0  0  0  # atno 17370 bound_to 10713
  156.3116  130.7232  151.2126 LP  0  0  0  0  0  0  0  0  0  0  0  0  # atno 17371 bound_to 10713
  139.9894  135.0070  156.9939 LP  0  0  0  0  0  0  0  0  0  0  0  0  # atno 17394 bound_to 11000
  140.4964  134.1141  155.7242 LP  0  0  0  0  0  0  0  0  0  0  0  0  # atno 17395 bound_to 11000

$$$$
