AV-unprocessed.smi:1022|AV-procd|sdf|4458|dock4
  -GOLD-   22720 2433D 1   1.00000     0.00000
 Structure written by MMmdl.
 33 34  0  0  0  0  0  0  0  0  1 V2000
  152.3200  143.5787  161.5255 C   0  0  0  0  0  0  0  0  0  0  0  0
  152.8184  142.8637  160.4089 O   0  0  0  0  0  0  0  0  0  0  0  0
  151.8378  142.6722  159.4017 C   0  0  0  0  0  0  0  0  0  0  0  0
  152.1468  143.5928  158.2111 C   0  0  2  0  0  0  0  0  0  0  0  0
  152.1982  145.0691  158.6350 C   0  0  0  0  0  0  0  0  0  0  0  0
  151.1347  143.4066  157.1744 N   0  0  0  0  0  0  0  0  0  0  0  0
  150.7534  142.2262  156.6653 C   0  0  0  0  0  0  0  0  0  0  0  0
  151.2311  141.1475  157.0184 O   0  0  0  0  0  0  0  0  0  0  0  0
  149.8003  142.3864  155.7306 N   0  0  0  0  0  0  0  0  0  0  0  0
  149.1398  141.3879  154.9672 C   0  0  0  0  0  0  0  0  0  0  0  0
  149.6882  140.2066  154.6516 N   0  0  0  0  0  0  0  0  0  0  0  0
  148.8262  139.4192  153.9014 N   0  0  0  0  0  0  0  0  0  0  0  0
  147.6546  140.0242  153.6724 C   0  0  0  0  0  0  0  0  0  0  0  0
  146.5643  139.3749  152.8865 C   0  0  0  0  0  0  0  0  0  0  0  0
  146.6423  137.9233  152.4665 C   0  0  0  0  0  0  0  0  0  0  0  0
  146.7703  139.0137  151.4336 C   0  0  0  0  0  0  0  0  0  0  0  0
  147.5083  141.6347  154.3694 S   0  0  0  0  0  0  0  0  0  0  0  0
  153.1115  143.7002  162.2652 H   0  0  0  0  0  0  0  0  0  0  0  0
  151.4956  143.0443  161.9994 H   0  0  0  0  0  0  0  0  0  0  0  0
  151.9741  144.5719  161.2365 H   0  0  0  0  0  0  0  0  0  0  0  0
  151.8177  141.6285  159.0828 H   0  0  0  0  0  0  0  0  0  0  0  0
  150.8527  142.9086  159.8072 H   0  0  0  0  0  0  0  0  0  0  0  0
  153.1266  143.3143  157.8190 H   0  0  0  0  0  0  0  0  0  0  0  0
  152.9546  145.2298  159.4034 H   0  0  0  0  0  0  0  0  0  0  0  0
  151.2401  145.4006  159.0366 H   0  0  0  0  0  0  0  0  0  0  0  0
  152.4472  145.7140  157.7916 H   0  0  0  0  0  0  0  0  0  0  0  0
  150.6851  144.2413  156.8275 H   0  0  0  0  0  0  0  0  0  0  0  0
  149.5162  143.3357  155.5396 H   0  0  0  0  0  0  0  0  0  0  0  0
  145.5928  139.7674  153.1808 H   0  0  0  0  0  0  0  0  0  0  0  0
  147.5423  137.3624  152.7105 H   0  0  0  0  0  0  0  0  0  0  0  0
  145.7186  137.3483  152.4777 H   0  0  0  0  0  0  0  0  0  0  0  0
  145.9333  139.1659  150.7551 H   0  0  0  0  0  0  0  0  0  0  0  0
  147.7558  139.1851  151.0049 H   0  0  0  0  0  0  0  0  0  0  0  0
  1  2  1  0  0  0  0
  1 18  1  0  0  0  0
  1 19  1  0  0  0  0
  1 20  1  0  0  0  0
  2  3  1  0  0  0  0
  3  4  1  0  0  0  0
  3 21  1  0  0  0  0
  3 22  1  0  0  0  0
  4  5  1  0  0  0  0
  4  6  1  0  0  0  0
  4 23  1  0  0  0  0
  5 24  1  0  0  0  0
  5 25  1  0  0  0  0
  5 26  1  0  0  0  0
  6  7  1  0  0  0  0
  6 27  1  0  0  0  0
  7  8  2  0  0  0  0
  7  9  1  0  0  0  0
  9 10  1  0  0  0  0
  9 28  1  0  0  0  0
 10 17  1  0  0  0  0
 10 11  2  0  0  0  0
 11 12  1  0  0  0  0
 12 13  2  0  0  0  0
 13 14  1  0  0  0  0
 13 17  1  0  0  0  0
 14 16  1  0  0  0  0
 14 15  1  0  0  0  0
 14 29  1  0  0  0  0
 15 16  1  0  0  0  0
 15 30  1  0  0  0  0
 15 31  1  0  0  0  0
 16 32  1  0  0  0  0
 16 33  1  0  0  0  0
M  END
> <s_m_source_file>
AV-unprocessed.smi

> <i_m_source_file_index>
1022

> <i_lp_mmshare_version>
43012

> <i_f3d_flags>
0

> <s_epik_input>
W0NIM11PW0NIMl1bQ0BIXShbQ0gzXSlbTkhdQyg9TylbTkhdYzFubmMoczEpW0NIXTJbQ0gyXVtDSDJdMg==

> <s_epik_cmdline>
J2VwaWtfcHl0aG9uJywgJy1waCcsICc3LjAnLCAnLXRuJywgJzgnLCAnLW1hJywgJzIwMCcsICctbWV0YWxfYmluZGluZycsICctaW1hZScsICc8aW5maWxlLm1hZT4nLCAnLW9tYWUnLCAnPG91dGZpbGUubWFlPic=

> <r_lp_tautomer_probability>
1

> <r_epik_Ionization_Penalty>
0.00129266

> <r_epik_Ionization_Penalty_Charging>
0

> <r_epik_Ionization_Penalty_Neutral>
0.00129266

> <r_epik_State_Penalty>
-0

> <r_epik_Charging_Adjusted_Penalty>
0

> <i_epik_Tot_Q>
0

> <i_epik_Tot_abs_Q>
0

> <r_epik_Metal_State_Penalty>
0.30857

> <b_epik_Metal_Only>
0

> <s_lp_Force_Field>
OPLS_2005

> <r_lp_Energy>
1.45425

> <b_lp_Chiralities_Consistent>
1

> <s_lp_Variant>
AV-unprocessed.smi:1022-1

> <Gold.Version>
5.8.1

> <Gold.Id.Protein>
6NUR|6NUR_protein|mol2

> <Gold.PLP.Fitness>
39.3259

> <Gold.PLP.PLP>
-35.1351

> <Gold.PLP.part.hbond>
-2.3430

> <Gold.PLP.part.metal>
0.0000

> <Gold.PLP.part.buried>
-0.4595

> <Gold.PLP.part.nonpolar>
-34.6526

> <Gold.PLP.part.repulsive>
2.0553

> <Gold.PLP.ligand.clash>
0.0000

> <Gold.PLP.ligand.torsion>
0.6356

> <Gold.PLP.Chemscore.Hbond>
1.7657

> <Gold.PLP.Chemscore.CHOScore>
0.0000

> <Gold.PLP.Chemscore.Metal>
0.0000

> <Gold.Chemscore.Hbonds>
donor molecule, donor type, donor heavy atom, donor atom, acceptor molecule, acceptor atom, score
      L1  H     6    27       P1  8028  0.50
      L1  H     9    28       P1  8028  0.98
      P1  H  7989  7998       L1    11  0.20

> <Gold.PLP.Chemscore.Internal.Correction>
0.1651

> <Gold.Rescore>
     Score         DG    S(hbond)    S(metal)    S(lipo)     H(rot)  DE(clash)    DE(int)     intcor
     14.78     -16.82       1.93        0.00      79.58       1.73       0.25       1.78       ----

> <Gold.Chemscore.Fitness>
14.7829

> <Gold.Chemscore.DG>
-16.8166

> <Gold.Chemscore.ZeroCoef>
-5.4800

> <Gold.Chemscore.Hbond>
1.9338

> <Gold.Chemscore.Metal>
0.0000

> <Gold.Chemscore.Lipo>
79.5834

> <Gold.Chemscore.Internal_Hbond>
0.0000

> <Gold.Chemscore.DEClash>
0.2548

> <Gold.Chemscore.DEInternal>
1.7789

> <Gold.Chemscore.Rot>
1.7318

> <Gold.Chemscore.Internal.Correction>
   9.000000E+99

> <Gold.Chemscore.Hbonds>
donor molecule, donor type, donor heavy atom, donor atom, acceptor molecule, acceptor atom, score
      L1  H     6    27       P1  8028  0.48
      L1  H     9    28       P1  8028  0.92
      P1  H  7989  7998       L1    11  0.05

> <Gold.Chemscore.Hbond.Weighted>
-6.4588

> <Gold.Chemscore.Metal.Weighted>
-0.0000

> <Gold.Chemscore.Lipo.Weighted>
-9.3113

> <Gold.Chemscore.Internal_Hbond.Weighted>
0.0000

> <Gold.Chemscore.DEClash.Weighted>
0.2548

> <Gold.Chemscore.DEInternal.Weighted>
1.7789

> <Gold.Chemscore.Rot.Weighted>
4.4335

> <Gold.Chemscore.Internal.Correction.Weighted>
   9.000000E+99

> <Gold.Protein.RotatedTorsions>
[ 6907 6896 6895 6894 ] final -157.04 input  -60.11 | X-H torsion
[ 7974 7965 7964 7962 ] final   95.62 input  175.53 | X-H torsion
[ 8008 7997 7996 7995 ] final  -56.96 input   59.86 | X-H torsion
[ 10167 10162 10161 10158 ] final -127.43 input  -65.29 | X-H torsion
[ 10718 10713 10712 10709 ] final  -38.53 input   66.30 | X-H torsion
[ 10763 10752 10751 10750 ] final  -15.68 input  -60.55 | X-H torsion
[ 11005 11000 10999 10996 ] final -139.44 input  -57.11 | X-H torsion

> <Gold.Protein.ActiveResidues>
 VAL166  LYS551  ARG553  GLY616  TRP617  ASP618  TYR619  PRO620  LYS621  CYS622 
 ASP623  PHE694  ASN695  SER759  ASP760  ASP761  ALA762  ILE779  LEU786  VAL792 
 PHE793  MET794  SER795  GLU796  ALA797  LYS798  CYS799  TRP800  GLU811  SER814 

> <Gold.Protein.RotatedAtoms>
  151.2968  133.4140  159.2636 H   0  0  0  0  0  0  0  0  0  0  0  0  # atno 6907 bound_to 6896
  151.0230  134.9483  159.8080 H   0  0  0  0  0  0  0  0  0  0  0  0  # atno 6908 bound_to 6896
  152.5328  134.2931  159.9103 H   0  0  0  0  0  0  0  0  0  0  0  0  # atno 6909 bound_to 6896
  145.4498  139.2294  143.3046 H   0  0  0  0  0  0  0  0  0  0  0  0  # atno 7974 bound_to 7965
  154.4250  140.1117  156.5722 H   0  0  0  0  0  0  0  0  0  0  0  0  # atno 8008 bound_to 7997
  155.6200  140.3495  155.4630 H   0  0  0  0  0  0  0  0  0  0  0  0  # atno 8009 bound_to 7997
  156.0031  140.1203  157.0517 H   0  0  0  0  0  0  0  0  0  0  0  0  # atno 8010 bound_to 7997
  139.9609  143.5951  152.2445 H   0  0  0  0  0  0  0  0  0  0  0  0  # atno 10167 bound_to 10162
  156.3027  130.4242  149.8127 H   0  0  0  0  0  0  0  0  0  0  0  0  # atno 10718 bound_to 10713
  153.5470  135.7012  153.5609 H   0  0  0  0  0  0  0  0  0  0  0  0  # atno 10763 bound_to 10752
  153.3550  135.3985  155.1675 H   0  0  0  0  0  0  0  0  0  0  0  0  # atno 10764 bound_to 10752
  154.8666  135.3774  154.4978 H   0  0  0  0  0  0  0  0  0  0  0  0  # atno 10765 bound_to 10752
  140.8520  134.2274  157.4755 H   0  0  0  0  0  0  0  0  0  0  0  0  # atno 11005 bound_to 11000
  146.2511  140.5255  142.8893 LP  0  0  0  0  0  0  0  0  0  0  0  0  # atno 17320 bound_to 7965
  144.8069  140.6315  143.6441 LP  0  0  0  0  0  0  0  0  0  0  0  0  # atno 17321 bound_to 7965
  139.6554  144.7662  151.2065 LP  0  0  0  0  0  0  0  0  0  0  0  0  # atno 17342 bound_to 10162
  140.7553  143.6093  150.8621 LP  0  0  0  0  0  0  0  0  0  0  0  0  # atno 17343 bound_to 10162
  156.5499  130.8337  151.3296 LP  0  0  0  0  0  0  0  0  0  0  0  0  # atno 17370 bound_to 10713
  157.7372  130.9791  150.2179 LP  0  0  0  0  0  0  0  0  0  0  0  0  # atno 17371 bound_to 10713
  139.8704  134.9688  156.4643 LP  0  0  0  0  0  0  0  0  0  0  0  0  # atno 17394 bound_to 11000
  140.8780  133.7939  155.9435 LP  0  0  0  0  0  0  0  0  0  0  0  0  # atno 17395 bound_to 11000

$$$$
