AV-unprocessed.smi:49|AV-procd|sdf|479|dock2
  -GOLD-   2262016343D 1   1.00000     0.00000
 Structure written by MMmdl.
 28 29  0  0  0  0  0  0  0  0  2 V2000
  152.1752  144.9531  159.1021 C   0  0  0  0  0  0  0  0  0  0  0  0
  152.0031  144.4604  157.6613 C   0  0  0  0  0  0  0  0  0  0  0  0
  151.3035  143.1430  157.5843 C   0  0  0  0  0  0  0  0  0  0  0  0
  150.1163  143.0029  156.9772 N   0  0  0  0  0  0  0  0  0  0  0  0
  149.8406  141.7012  157.1467 C   0  0  0  0  0  0  0  0  0  0  0  0
  148.5718  141.0959  156.6176 C   0  0  2  0  0  0  0  0  0  0  0  0
  148.7909  140.0645  155.5003 C   0  0  0  0  0  0  0  0  0  0  0  0
  148.6031  140.8671  154.2141 C   0  0  1  0  0  0  0  0  0  0  0  0
  148.1890  140.0585  153.1331 O   0  0  0  0  0  0  0  0  0  0  0  0
  147.5506  141.9031  154.6074 C   0  0  0  0  0  0  0  0  0  0  0  0
  147.8466  142.2360  156.0127 N   0  3  0  0  0  0  0  0  0  0  0  0
  150.7941  141.0540  157.8295 N   0  0  0  0  0  0  0  0  0  0  0  0
  151.7570  142.0048  158.1170 N   0  0  0  0  0  0  0  0  0  0  0  0
  147.9935  140.6713  157.4394 H   0  0  0  0  0  0  0  0  0  0  0  0
  149.5360  141.3690  153.9530 H   0  0  0  0  0  0  0  0  0  0  0  0
  149.5646  143.7095  156.5118 H   0  0  0  0  0  0  0  0  0  0  0  0
  152.6890  145.9142  159.1251 H   0  0  0  0  0  0  0  0  0  0  0  0
  152.7619  144.2480  159.6916 H   0  0  0  0  0  0  0  0  0  0  0  0
  151.2097  145.0789  159.5928 H   0  0  0  0  0  0  0  0  0  0  0  0
  151.4441  145.1956  157.0814 H   0  0  0  0  0  0  0  0  0  0  0  0
  152.9790  144.3655  157.1839 H   0  0  0  0  0  0  0  0  0  0  0  0
  149.7522  139.5526  155.5602 H   0  0  0  0  0  0  0  0  0  0  0  0
  148.0109  139.3043  155.5676 H   0  0  0  0  0  0  0  0  0  0  0  0
  148.8658  140.0568  152.4734 H   0  0  0  0  0  0  0  0  0  0  0  0
  147.5654  142.7874  153.9698 H   0  0  0  0  0  0  0  0  0  0  0  0
  146.5505  141.4692  154.5641 H   0  0  0  0  0  0  0  0  0  0  0  0
  147.0003  142.4474  156.5214 H   0  0  0  0  0  0  0  0  0  0  0  0
  148.4636  143.0362  156.0302 H   0  0  0  0  0  0  0  0  0  0  0  0
  1  2  1  0  0  0  0
  1 17  1  0  0  0  0
  1 18  1  0  0  0  0
  1 19  1  0  0  0  0
  2 20  1  0  0  0  0
  2 21  1  0  0  0  0
  2  3  1  0  0  0  0
  3  4  1  0  0  0  0
  3 13  2  0  0  0  0
  4 16  1  0  0  0  0
  4  5  1  0  0  0  0
  5 12  2  0  0  0  0
  5  6  1  0  0  0  0
  6 14  1  0  0  0  0
  6 11  1  0  0  0  0
  6  7  1  0  0  0  0
  7  8  1  0  0  0  0
  7 22  1  0  0  0  0
  7 23  1  0  0  0  0
  8 15  1  0  0  0  0
  8  9  1  0  0  0  0
  8 10  1  0  0  0  0
  9 24  1  0  0  0  0
 10 11  1  0  0  0  0
 10 25  1  0  0  0  0
 10 26  1  0  0  0  0
 11 27  1  0  0  0  0
 11 28  1  0  0  0  0
 12 13  1  0  0  0  0
M  CHG  1  11   1
M  END
> <s_m_source_file>
AV-unprocessed.smi

> <i_m_source_file_index>
49

> <i_lp_mmshare_version>
43012

> <i_f3d_flags>
0

> <s_epik_input>
W0NIM11bQ0gyXWMxbmMobltuSF0xKVtDQEBIXTJbQ0gyXVtDQEBIXShbT0hdKVtDSDJdW05IXTI=

> <s_epik_cmdline>
J2VwaWtfcHl0aG9uJywgJy1waCcsICc3LjAnLCAnLXRuJywgJzgnLCAnLW1hJywgJzIwMCcsICctbWV0YWxfYmluZGluZycsICctaW1hZScsICc8aW5maWxlLm1hZT4nLCAnLW9tYWUnLCAnPG91dGZpbGUubWFlPic=

> <r_lp_tautomer_probability>
0.0517155

> <r_epik_Ionization_Penalty>
0.939819

> <r_epik_Ionization_Penalty_Charging>
0.0688988

> <r_epik_Ionization_Penalty_Neutral>
0.87092

> <r_epik_State_Penalty>
2.1224

> <r_epik_Charging_Adjusted_Penalty>
2.1913

> <i_epik_Tot_Q>
1

> <i_epik_Tot_abs_Q>
1

> <r_epik_Metal_State_Penalty>
2.39725

> <b_epik_Metal_Only>
0

> <s_lp_Force_Field>
OPLS_2005

> <r_lp_Energy>
21.4308

> <b_lp_Chiralities_Consistent>
1

> <s_lp_Variant>
AV-unprocessed.smi:49-17

> <Gold.Version>
5.8.1

> <Gold.Id.Protein>
6NUR|6NUR_protein|mol2

> <Gold.PLP.Fitness>
38.1499

> <Gold.PLP.PLP>
-26.2328

> <Gold.PLP.part.hbond>
-2.7223

> <Gold.PLP.part.metal>
0.0000

> <Gold.PLP.part.buried>
-5.1471

> <Gold.PLP.part.nonpolar>
-19.3264

> <Gold.PLP.part.repulsive>
0.0737

> <Gold.PLP.ligand.clash>
0.0000

> <Gold.PLP.ligand.torsion>
0.0499

> <Gold.PLP.Chemscore.Hbond>
4.0000

> <Gold.PLP.Chemscore.CHOScore>
0.0000

> <Gold.PLP.Chemscore.Metal>
0.0000

> <Gold.Chemscore.Hbonds>
donor molecule, donor type, donor heavy atom, donor atom, acceptor molecule, acceptor atom, score
      L1  H     4    16       P1  8028  0.88
      L1  H     9    24       P1  7957  0.94
      L1  H    11    28       P1  8028  2.00

> <Gold.PLP.Chemscore.Internal.Correction>
0.0169

> <Gold.Rescore>
     Score         DG    S(hbond)    S(metal)    S(lipo)     H(rot)  DE(clash)    DE(int)     intcor
     15.41     -15.50       2.79        0.00      47.41       1.89       0.00       0.08       ----

> <Gold.Chemscore.Fitness>
15.4147

> <Gold.Chemscore.DG>
-15.4994

> <Gold.Chemscore.ZeroCoef>
-5.4800

> <Gold.Chemscore.Hbond>
2.7863

> <Gold.Chemscore.Metal>
0.0000

> <Gold.Chemscore.Lipo>
47.4112

> <Gold.Chemscore.Internal_Hbond>
0.0000

> <Gold.Chemscore.DEClash>
0.0048

> <Gold.Chemscore.DEInternal>
0.0799

> <Gold.Chemscore.Rot>
1.8883

> <Gold.Chemscore.Internal.Correction>
   9.000000E+99

> <Gold.Chemscore.Hbonds>
donor molecule, donor type, donor heavy atom, donor atom, acceptor molecule, acceptor atom, score
      L1  H     4    16       P1  8028  0.85
      L1  H     9    24       P1  7957  0.90
      L1  H    11    28       P1  8028  0.92

> <Gold.Chemscore.Hbond.Weighted>
-9.3063

> <Gold.Chemscore.Metal.Weighted>
-0.0000

> <Gold.Chemscore.Lipo.Weighted>
-5.5471

> <Gold.Chemscore.Internal_Hbond.Weighted>
0.0000

> <Gold.Chemscore.DEClash.Weighted>
0.0048

> <Gold.Chemscore.DEInternal.Weighted>
0.0799

> <Gold.Chemscore.Rot.Weighted>
4.8340

> <Gold.Chemscore.Internal.Correction.Weighted>
   9.000000E+99

> <Gold.Protein.RotatedTorsions>
[ 6907 6896 6895 6894 ] final  -28.18 input  -60.11 | X-H torsion
[ 7974 7965 7964 7962 ] final  -40.81 input  175.53 | X-H torsion
[ 8008 7997 7996 7995 ] final  116.98 input   59.86 | X-H torsion
[ 10167 10162 10161 10158 ] final   50.73 input  -65.29 | X-H torsion
[ 10718 10713 10712 10709 ] final   99.88 input   66.30 | X-H torsion
[ 10763 10752 10751 10750 ] final  -51.51 input  -60.55 | X-H torsion
[ 11005 11000 10999 10996 ] final -169.43 input  -57.11 | X-H torsion

> <Gold.Protein.ActiveResidues>
 VAL166  LYS551  ARG553  GLY616  TRP617  ASP618  TYR619  PRO620  LYS621  CYS622 
 ASP623  PHE694  ASN695  SER759  ASP760  ASP761  ALA762  ILE779  LEU786  VAL792 
 PHE793  MET794  SER795  GLU796  ALA797  LYS798  CYS799  TRP800  GLU811  SER814 

> <Gold.Protein.RotatedAtoms>
  151.1365  135.0158  159.8606 H   0  0  0  0  0  0  0  0  0  0  0  0  # atno 6907 bound_to 6896
  152.5452  134.1548  159.8544 H   0  0  0  0  0  0  0  0  0  0  0  0  # atno 6908 bound_to 6896
  151.1620  133.4793  159.2627 H   0  0  0  0  0  0  0  0  0  0  0  0  # atno 6909 bound_to 6896
  146.0270  140.6779  142.9151 H   0  0  0  0  0  0  0  0  0  0  0  0  # atno 7974 bound_to 7965
  156.2469  140.2906  156.0607 H   0  0  0  0  0  0  0  0  0  0  0  0  # atno 8008 bound_to 7997
  155.1779  140.0403  157.2893 H   0  0  0  0  0  0  0  0  0  0  0  0  # atno 8009 bound_to 7997
  154.6280  140.2492  155.7475 H   0  0  0  0  0  0  0  0  0  0  0  0  # atno 8010 bound_to 7997
  140.2694  144.3283  150.6294 H   0  0  0  0  0  0  0  0  0  0  0  0  # atno 10167 bound_to 10162
  157.6866  131.0682  150.5016 H   0  0  0  0  0  0  0  0  0  0  0  0  # atno 10718 bound_to 10713
  154.1277  135.6525  153.4915 H   0  0  0  0  0  0  0  0  0  0  0  0  # atno 10763 bound_to 10752
  153.0205  135.5285  154.7032 H   0  0  0  0  0  0  0  0  0  0  0  0  # atno 10764 bound_to 10752
  154.6258  135.2970  155.0244 H   0  0  0  0  0  0  0  0  0  0  0  0  # atno 10765 bound_to 10752
  140.5308  134.5618  157.5074 H   0  0  0  0  0  0  0  0  0  0  0  0  # atno 11005 bound_to 11000
  144.7014  140.3667  143.7153 LP  0  0  0  0  0  0  0  0  0  0  0  0  # atno 17320 bound_to 7965
  145.7102  139.1683  143.2543 LP  0  0  0  0  0  0  0  0  0  0  0  0  # atno 17321 bound_to 7965
  140.5902  143.2168  151.7267 LP  0  0  0  0  0  0  0  0  0  0  0  0  # atno 17342 bound_to 10162
  139.4993  144.3950  152.0240 LP  0  0  0  0  0  0  0  0  0  0  0  0  # atno 17343 bound_to 10162
  156.5337  130.4191  149.6188 LP  0  0  0  0  0  0  0  0  0  0  0  0  # atno 17370 bound_to 10713
  156.3046  130.7196  151.2075 LP  0  0  0  0  0  0  0  0  0  0  0  0  # atno 17371 bound_to 10713
  139.9555  134.7542  156.0351 LP  0  0  0  0  0  0  0  0  0  0  0  0  # atno 17394 bound_to 11000
  141.1282  133.6593  156.3394 LP  0  0  0  0  0  0  0  0  0  0  0  0  # atno 17395 bound_to 11000

$$$$
