AV-unprocessed.smi:3004|AV-procd|sdf|11442|dock9
  -GOLD-   2272016373D 1   1.00000     0.00000
 Structure written by MMmdl.
 47 48  0  0  0  0  0  0  0  0  2 V2000
  154.0972  140.9959  160.6906 C   0  0  0  0  0  0  0  0  0  0  0  0
  153.2840  142.1453  160.1733 C   0  0  0  0  0  0  0  0  0  0  0  0
  152.9260  143.3460  160.8479 C   0  0  0  0  0  0  0  0  0  0  0  0
  152.1887  144.0415  159.9315 C   0  0  0  0  0  0  0  0  0  0  0  0
  151.5298  145.3773  160.0401 C   0  0  0  0  0  0  0  0  0  0  0  0
  152.1346  143.2644  158.7875 N   0  0  0  0  0  0  0  0  0  0  0  0
  151.4836  143.5439  157.5176 C   0  0  0  0  0  0  0  0  0  0  0  0
  150.6062  142.3711  157.0780 C   0  0  0  0  0  0  0  0  0  0  0  0
  150.8230  141.2412  157.5156 O   0  0  0  0  0  0  0  0  0  0  0  0
  149.6195  142.6504  156.2114 N   0  0  0  0  0  0  0  0  0  0  0  0
  148.6619  141.6803  155.6940 C   0  0  0  0  0  0  0  0  0  0  0  0
  148.8683  141.4206  154.1893 C   0  0  0  0  0  0  0  0  0  0  0  0
  149.6016  140.1467  153.9460 N   0  3  1  0  0  0  0  0  0  0  0  0
  150.9909  140.2302  154.4814 C   0  0  0  0  0  0  0  0  0  0  0  0
  151.8220  138.9884  154.1366 C   0  0  0  0  0  0  0  0  0  0  0  0
  151.1415  137.7326  154.6791 C   0  0  0  0  0  0  0  0  0  0  0  0
  149.7230  137.6453  154.1123 C   0  0  0  0  0  0  0  0  0  0  0  0
  148.8861  138.9116  154.4081 C   0  0  2  0  0  0  0  0  0  0  0  0
  147.5038  138.7313  153.7423 C   0  0  0  0  0  0  0  0  0  0  0  0
  152.8087  142.1033  158.9397 N   0  0  0  0  0  0  0  0  0  0  0  0
  154.3668  141.1436  161.7366 H   0  0  0  0  0  0  0  0  0  0  0  0
  155.0208  140.8816  160.1227 H   0  0  0  0  0  0  0  0  0  0  0  0
  153.5434  140.0595  160.6204 H   0  0  0  0  0  0  0  0  0  0  0  0
  153.1734  143.6509  161.8541 H   0  0  0  0  0  0  0  0  0  0  0  0
  151.7108  145.8218  161.0188 H   0  0  0  0  0  0  0  0  0  0  0  0
  150.4514  145.2906  159.9071 H   0  0  0  0  0  0  0  0  0  0  0  0
  151.9123  146.0637  159.2847 H   0  0  0  0  0  0  0  0  0  0  0  0
  150.8819  144.4498  157.6093 H   0  0  0  0  0  0  0  0  0  0  0  0
  152.2436  143.7462  156.7622 H   0  0  0  0  0  0  0  0  0  0  0  0
  149.5108  143.6095  155.9124 H   0  0  0  0  0  0  0  0  0  0  0  0
  148.7438  140.7482  156.2559 H   0  0  0  0  0  0  0  0  0  0  0  0
  147.6637  142.0711  155.8876 H   0  0  0  0  0  0  0  0  0  0  0  0
  147.9110  141.4068  153.6660 H   0  0  0  0  0  0  0  0  0  0  0  0
  149.4033  142.2722  153.7807 H   0  0  0  0  0  0  0  0  0  0  0  0
  151.4965  141.1089  154.0819 H   0  0  0  0  0  0  0  0  0  0  0  0
  150.9555  140.3571  155.5648 H   0  0  0  0  0  0  0  0  0  0  0  0
  151.9446  138.9103  153.0555 H   0  0  0  0  0  0  0  0  0  0  0  0
  152.8235  139.0801  154.5577 H   0  0  0  0  0  0  0  0  0  0  0  0
  151.7127  136.8445  154.4068 H   0  0  0  0  0  0  0  0  0  0  0  0
  151.1077  137.7641  155.7689 H   0  0  0  0  0  0  0  0  0  0  0  0
  149.7793  137.4862  153.0341 H   0  0  0  0  0  0  0  0  0  0  0  0
  149.2273  136.7654  154.5244 H   0  0  0  0  0  0  0  0  0  0  0  0
  148.7454  138.9867  155.4877 H   0  0  0  0  0  0  0  0  0  0  0  0
  147.0961  137.7431  153.9576 H   0  0  0  0  0  0  0  0  0  0  0  0
  147.5697  138.8259  152.6578 H   0  0  0  0  0  0  0  0  0  0  0  0
  146.7594  139.4406  154.1007 H   0  0  0  0  0  0  0  0  0  0  0  0
  149.6799  140.0536  152.9432 H   0  0  0  0  0  0  0  0  0  0  0  0
  1  2  1  0  0  0  0
  1 21  1  0  0  0  0
  1 22  1  0  0  0  0
  1 23  1  0  0  0  0
  2 20  2  0  0  0  0
  2  3  1  0  0  0  0
  3  4  2  0  0  0  0
  3 24  1  0  0  0  0
  4  5  1  0  0  0  0
  4  6  1  0  0  0  0
  5 25  1  0  0  0  0
  5 26  1  0  0  0  0
  5 27  1  0  0  0  0
  6  7  1  0  0  0  0
  6 20  1  0  0  0  0
  7  8  1  0  0  0  0
  7 28  1  0  0  0  0
  7 29  1  0  0  0  0
  8  9  2  0  0  0  0
  8 10  1  0  0  0  0
 10 11  1  0  0  0  0
 10 30  1  0  0  0  0
 11 12  1  0  0  0  0
 11 31  1  0  0  0  0
 11 32  1  0  0  0  0
 12 13  1  0  0  0  0
 12 33  1  0  0  0  0
 12 34  1  0  0  0  0
 13 18  1  0  0  0  0
 13 14  1  0  0  0  0
 13 47  1  0  0  0  0
 14 15  1  0  0  0  0
 14 35  1  0  0  0  0
 14 36  1  0  0  0  0
 15 16  1  0  0  0  0
 15 37  1  0  0  0  0
 15 38  1  0  0  0  0
 16 17  1  0  0  0  0
 16 39  1  0  0  0  0
 16 40  1  0  0  0  0
 17 18  1  0  0  0  0
 17 41  1  0  0  0  0
 17 42  1  0  0  0  0
 18 19  1  0  0  0  0
 18 43  1  0  0  0  0
 19 44  1  0  0  0  0
 19 45  1  0  0  0  0
 19 46  1  0  0  0  0
M  CHG  1  13   1
M  END
> <s_m_source_file>
AV-unprocessed.smi

> <i_m_source_file_index>
3004

> <i_lp_mmshare_version>
43012

> <i_f3d_flags>
0

> <s_epik_input>
W0NIM11jMVtjSF1jKFtDSDNdKW4objEpW0NIMl1DKD1PKVtOSF1bQ0gyXVtDSDJdTjJbQ0gyXVtDSDJdW0NIMl1bQ0gyXVtDQEhdMltDSDNd

> <s_epik_cmdline>
J2VwaWtfcHl0aG9uJywgJy1waCcsICc3LjAnLCAnLXRuJywgJzgnLCAnLW1hJywgJzIwMCcsICctbWV0YWxfYmluZGluZycsICctaW1hZScsICc8aW5maWxlLm1hZT4nLCAnLW9tYWUnLCAnPG91dGZpbGUubWFlPic=

> <r_lp_tautomer_probability>
1

> <r_epik_Ionization_Penalty>
0.00303644

> <r_epik_Ionization_Penalty_Charging>
0.00284254

> <r_epik_Ionization_Penalty_Neutral>
0.000193908

> <r_epik_State_Penalty>
-0

> <r_epik_Charging_Adjusted_Penalty>
0.00284254

> <i_epik_Tot_Q>
1

> <i_epik_Tot_abs_Q>
1

> <r_epik_Metal_State_Penalty>
-0

> <b_epik_Metal_Only>
0

> <s_lp_Force_Field>
OPLS_2005

> <r_lp_Energy>
17.2859

> <b_lp_Chiralities_Consistent>
1

> <s_lp_Variant>
AV-unprocessed.smi:3004-4

> <Gold.Version>
5.8.1

> <Gold.Id.Protein>
6NUR|6NUR_protein|mol2

> <Gold.PLP.Fitness>
47.9530

> <Gold.PLP.PLP>
-43.4148

> <Gold.PLP.part.hbond>
-1.7971

> <Gold.PLP.part.metal>
0.0000

> <Gold.PLP.part.buried>
0.6520

> <Gold.PLP.part.nonpolar>
-41.4615

> <Gold.PLP.part.repulsive>
0.7190

> <Gold.PLP.ligand.clash>
0.0000

> <Gold.PLP.ligand.torsion>
0.7365

> <Gold.PLP.Chemscore.Hbond>
1.9913

> <Gold.PLP.Chemscore.CHOScore>
0.0000

> <Gold.PLP.Chemscore.Metal>
0.0000

> <Gold.Chemscore.Hbonds>
donor molecule, donor type, donor heavy atom, donor atom, acceptor molecule, acceptor atom, score
      L1  H    10    30       P1  8028  0.42
      L1  H    13    47       P1  7957  1.00

> <Gold.PLP.Chemscore.Internal.Correction>
0.0375

> <Gold.Rescore>
     Score         DG    S(hbond)    S(metal)    S(lipo)     H(rot)  DE(clash)    DE(int)     intcor
     17.35     -21.28       1.92        0.00     116.68       1.67       1.72       2.22       ----

> <Gold.Chemscore.Fitness>
17.3495

> <Gold.Chemscore.DG>
-21.2845

> <Gold.Chemscore.ZeroCoef>
-5.4800

> <Gold.Chemscore.Hbond>
1.9212

> <Gold.Chemscore.Metal>
0.0000

> <Gold.Chemscore.Lipo>
116.6812

> <Gold.Chemscore.Internal_Hbond>
0.0000

> <Gold.Chemscore.DEClash>
1.7200

> <Gold.Chemscore.DEInternal>
2.2150

> <Gold.Chemscore.Rot>
1.6657

> <Gold.Chemscore.Internal.Correction>
   9.000000E+99

> <Gold.Chemscore.Hbonds>
donor molecule, donor type, donor heavy atom, donor atom, acceptor molecule, acceptor atom, score
      L1  H    10    30       P1  8028  0.41
      L1  H    13    47       P1  7957  1.00

> <Gold.Chemscore.Hbond.Weighted>
-6.4169

> <Gold.Chemscore.Metal.Weighted>
-0.0000

> <Gold.Chemscore.Lipo.Weighted>
-13.6517

> <Gold.Chemscore.Internal_Hbond.Weighted>
0.0000

> <Gold.Chemscore.DEClash.Weighted>
1.7200

> <Gold.Chemscore.DEInternal.Weighted>
2.2150

> <Gold.Chemscore.Rot.Weighted>
4.2641

> <Gold.Chemscore.Internal.Correction.Weighted>
   9.000000E+99

> <Gold.Protein.RotatedTorsions>
[ 6907 6896 6895 6894 ] final   99.53 input  -60.11 | X-H torsion
[ 7974 7965 7964 7962 ] final  -91.36 input  175.53 | X-H torsion
[ 8008 7997 7996 7995 ] final   79.02 input   59.86 | X-H torsion
[ 10167 10162 10161 10158 ] final  125.90 input  -65.29 | X-H torsion
[ 10718 10713 10712 10709 ] final  -58.90 input   66.30 | X-H torsion
[ 10763 10752 10751 10750 ] final  102.60 input  -60.55 | X-H torsion
[ 11005 11000 10999 10996 ] final   36.75 input  -57.11 | X-H torsion

> <Gold.Protein.ActiveResidues>
 VAL166  LYS551  ARG553  GLY616  TRP617  ASP618  TYR619  PRO620  LYS621  CYS622 
 ASP623  PHE694  ASN695  SER759  ASP760  ASP761  ALA762  ILE779  LEU786  VAL792 
 PHE793  MET794  SER795  GLU796  ALA797  LYS798  CYS799  TRP800  GLU811  SER814 

> <Gold.Protein.RotatedAtoms>
  152.5390  134.0415  159.8069 H   0  0  0  0  0  0  0  0  0  0  0  0  # atno 6907 bound_to 6896
  151.0570  133.5568  159.2644 H   0  0  0  0  0  0  0  0  0  0  0  0  # atno 6908 bound_to 6896
  151.2481  135.0620  159.9105 H   0  0  0  0  0  0  0  0  0  0  0  0  # atno 6909 bound_to 6896
  145.4141  140.9547  143.2217 H   0  0  0  0  0  0  0  0  0  0  0  0  # atno 7974 bound_to 7965
  155.8639  140.3452  155.5775 H   0  0  0  0  0  0  0  0  0  0  0  0  # atno 8008 bound_to 7997
  155.7902  140.0870  157.2032 H   0  0  0  0  0  0  0  0  0  0  0  0  # atno 8009 bound_to 7997
  154.4013  140.1484  156.3142 H   0  0  0  0  0  0  0  0  0  0  0  0  # atno 8010 bound_to 7997
  139.5660  144.6911  151.3909 H   0  0  0  0  0  0  0  0  0  0  0  0  # atno 10167 bound_to 10162
  156.1101  130.4176  150.0641 H   0  0  0  0  0  0  0  0  0  0  0  0  # atno 10718 bound_to 10713
  153.3416  135.4005  155.1576 H   0  0  0  0  0  0  0  0  0  0  0  0  # atno 10763 bound_to 10752
  154.8645  135.3635  154.5338 H   0  0  0  0  0  0  0  0  0  0  0  0  # atno 10764 bound_to 10752
  153.5783  135.7077  153.5534 H   0  0  0  0  0  0  0  0  0  0  0  0  # atno 10765 bound_to 10752
  140.2295  134.3545  155.7970 H   0  0  0  0  0  0  0  0  0  0  0  0  # atno 11005 bound_to 11000
  144.8289  139.5663  143.6953 LP  0  0  0  0  0  0  0  0  0  0  0  0  # atno 17320 bound_to 7965
  146.2690  139.6588  142.9309 LP  0  0  0  0  0  0  0  0  0  0  0  0  # atno 17321 bound_to 7965
  140.6943  143.7786  150.7303 LP  0  0  0  0  0  0  0  0  0  0  0  0  # atno 17342 bound_to 10162
  140.1278  143.4554  152.2273 LP  0  0  0  0  0  0  0  0  0  0  0  0  # atno 17343 bound_to 10162
  156.8606  130.9490  151.3618 LP  0  0  0  0  0  0  0  0  0  0  0  0  # atno 17370 bound_to 10713
  157.6281  130.8708  149.9226 LP  0  0  0  0  0  0  0  0  0  0  0  0  # atno 17371 bound_to 10713
  141.2218  133.7237  156.8707 LP  0  0  0  0  0  0  0  0  0  0  0  0  # atno 17394 bound_to 11000
  140.1766  134.9063  157.2898 LP  0  0  0  0  0  0  0  0  0  0  0  0  # atno 17395 bound_to 11000

$$$$
