AV-unprocessed.smi:205|AV-procd|sdf|1600|dock8
  -GOLD-   2262019513D 1   1.00000     0.00000
 Structure written by MMmdl.
 54 56  0  0  0  0  0  0  0  0  1 V2000
  149.7965  136.6568  160.1264 O   0  0  0  0  0  0  0  0  0  0  0  0
  148.5232  136.2335  159.6871 C   0  0  0  0  0  0  0  0  0  0  0  0
  148.6257  135.6285  158.2819 C   0  0  0  0  0  0  0  0  0  0  0  0
  149.5116  134.5220  158.3161 O   0  0  0  0  0  0  0  0  0  0  0  0
  149.4998  133.7742  157.1118 C   0  0  0  0  0  0  0  0  0  0  0  0
  150.1533  132.4028  157.3606 C   0  0  0  0  0  0  0  0  0  0  0  0
  150.7348  131.7959  156.1622 N   0  0  0  0  0  0  0  0  0  0  0  0
  151.9477  130.9949  156.3239 C   0  0  0  0  0  0  0  0  0  0  0  0
  153.1694  131.8209  156.7670 C   0  0  0  0  0  0  0  0  0  0  0  0
  153.0528  132.1835  158.1264 O   0  0  0  0  0  0  0  0  0  0  0  0
  149.9218  131.4024  155.1501 C   0  0  0  0  0  0  0  0  0  0  0  0
  149.8835  130.0755  154.8667 N   0  0  0  0  0  0  0  0  0  0  0  0
  149.1163  129.6205  153.8726 C   0  0  0  0  0  0  0  0  0  0  0  0
  148.3223  130.3082  153.0504 N   0  0  0  0  0  0  0  0  0  0  0  0
  148.3477  131.6419  153.3356 C   0  0  0  0  0  0  0  0  0  0  0  0
  149.1026  132.2684  154.3680 C   0  0  0  0  0  0  0  0  0  0  0  0
  148.8434  133.6344  154.3752 N   0  0  0  0  0  0  0  0  0  0  0  0
  147.9984  133.8064  153.3964 C   0  0  0  0  0  0  0  0  0  0  0  0
  147.6738  132.6677  152.6951 N   0  0  0  0  0  0  0  0  0  0  0  0
  146.7524  132.5722  151.6008 C   0  0  0  0  0  0  0  0  0  0  0  0
  145.8958  133.7706  151.1820 C   0  0  0  0  0  0  0  0  0  0  0  0
  144.7066  132.8344  150.8754 C   0  0  0  0  0  0  0  0  0  0  0  0
  143.3549  133.2939  151.4430 C   0  0  0  0  0  0  0  0  0  0  0  0
  142.3244  132.3845  151.1138 O   0  0  0  0  0  0  0  0  0  0  0  0
  144.4729  132.4519  149.3972 C   0  0  0  0  0  0  0  0  0  0  0  0
  143.8654  133.4819  148.6440 O   0  0  0  0  0  0  0  0  0  0  0  0
  145.4426  131.7897  151.7438 C   0  0  0  0  0  0  0  0  0  0  0  0
  150.4342  136.4237  159.4692 H   0  0  0  0  0  0  0  0  0  0  0  0
  148.0894  135.5258  160.3943 H   0  0  0  0  0  0  0  0  0  0  0  0
  147.8740  137.1091  159.6661 H   0  0  0  0  0  0  0  0  0  0  0  0
  147.6423  135.2740  157.9693 H   0  0  0  0  0  0  0  0  0  0  0  0
  148.9460  136.3783  157.5559 H   0  0  0  0  0  0  0  0  0  0  0  0
  148.4685  133.6272  156.7882 H   0  0  0  0  0  0  0  0  0  0  0  0
  150.0049  134.3225  156.3162 H   0  0  0  0  0  0  0  0  0  0  0  0
  150.9404  132.5178  158.1065 H   0  0  0  0  0  0  0  0  0  0  0  0
  149.4271  131.7170  157.7965 H   0  0  0  0  0  0  0  0  0  0  0  0
  151.7601  130.2204  157.0685 H   0  0  0  0  0  0  0  0  0  0  0  0
  152.1615  130.4588  155.3985 H   0  0  0  0  0  0  0  0  0  0  0  0
  154.1100  131.2992  156.5886 H   0  0  0  0  0  0  0  0  0  0  0  0
  153.2069  132.7458  156.1912 H   0  0  0  0  0  0  0  0  0  0  0  0
  153.5257  131.5528  158.6477 H   0  0  0  0  0  0  0  0  0  0  0  0
  149.1478  128.5534  153.7089 H   0  0  0  0  0  0  0  0  0  0  0  0
  147.5938  134.7781  153.1526 H   0  0  0  0  0  0  0  0  0  0  0  0
  147.3333  132.2018  150.7551 H   0  0  0  0  0  0  0  0  0  0  0  0
  145.6962  134.4471  152.0149 H   0  0  0  0  0  0  0  0  0  0  0  0
  146.2811  134.3180  150.3210 H   0  0  0  0  0  0  0  0  0  0  0  0
  143.3974  133.4053  152.5270 H   0  0  0  0  0  0  0  0  0  0  0  0
  143.0747  134.2693  151.0437 H   0  0  0  0  0  0  0  0  0  0  0  0
  141.5879  132.8751  150.7814 H   0  0  0  0  0  0  0  0  0  0  0  0
  145.4156  132.1996  148.9102 H   0  0  0  0  0  0  0  0  0  0  0  0
  143.8356  131.5709  149.3175 H   0  0  0  0  0  0  0  0  0  0  0  0
  144.5427  133.9649  148.1954 H   0  0  0  0  0  0  0  0  0  0  0  0
  145.4737  130.7835  151.3246 H   0  0  0  0  0  0  0  0  0  0  0  0
  145.0854  131.7676  152.7748 H   0  0  0  0  0  0  0  0  0  0  0  0
  1  2  1  0  0  0  0
  1 28  1  0  0  0  0
  2  3  1  0  0  0  0
  2 29  1  0  0  0  0
  2 30  1  0  0  0  0
  3  4  1  0  0  0  0
  3 31  1  0  0  0  0
  3 32  1  0  0  0  0
  4  5  1  0  0  0  0
  5  6  1  0  0  0  0
  5 33  1  0  0  0  0
  5 34  1  0  0  0  0
  6  7  1  0  0  0  0
  6 35  1  0  0  0  0
  6 36  1  0  0  0  0
  7  8  1  0  0  0  0
  7 11  1  0  0  0  0
  8  9  1  0  0  0  0
  8 37  1  0  0  0  0
  8 38  1  0  0  0  0
  9 10  1  0  0  0  0
  9 39  1  0  0  0  0
  9 40  1  0  0  0  0
 10 41  1  0  0  0  0
 11 16  1  0  0  0  0
 11 12  2  0  0  0  0
 12 13  1  0  0  0  0
 13 14  2  0  0  0  0
 13 42  1  0  0  0  0
 14 15  1  0  0  0  0
 15 19  1  0  0  0  0
 15 16  2  0  0  0  0
 16 17  1  0  0  0  0
 17 18  2  0  0  0  0
 18 19  1  0  0  0  0
 18 43  1  0  0  0  0
 19 20  1  0  0  0  0
 20 27  1  0  0  0  0
 20 21  1  0  0  0  0
 20 44  1  0  0  0  0
 21 22  1  0  0  0  0
 21 45  1  0  0  0  0
 21 46  1  0  0  0  0
 22 23  1  0  0  0  0
 22 25  1  0  0  0  0
 22 27  1  0  0  0  0
 23 24  1  0  0  0  0
 23 47  1  0  0  0  0
 23 48  1  0  0  0  0
 24 49  1  0  0  0  0
 25 26  1  0  0  0  0
 25 50  1  0  0  0  0
 25 51  1  0  0  0  0
 26 52  1  0  0  0  0
 27 53  1  0  0  0  0
 27 54  1  0  0  0  0
M  END
> <s_m_source_file>
AV-unprocessed.smi

> <i_m_source_file_index>
205

> <i_lp_mmshare_version>
43012

> <i_f3d_flags>
0

> <s_epik_input>
W09IXVtDSDJdW0NIMl1PW0NIMl1bQ0gyXU4oW0NIMl1bQ0gyXVtPSF0pYyhuW2NIXW4xKWMoYzEyKW5bY0hdbjJbQ0hdKFtDSDJdMylbQ0gyXUMzKFtDSDJdW09IXSlbQ0gyXVtPSF0=

> <s_epik_cmdline>
J2VwaWtfcHl0aG9uJywgJy1waCcsICc3LjAnLCAnLXRuJywgJzgnLCAnLW1hJywgJzIwMCcsICctbWV0YWxfYmluZGluZycsICctaW1hZScsICc8aW5maWxlLm1hZT4nLCAnLW9tYWUnLCAnPG91dGZpbGUubWFlPic=

> <r_lp_tautomer_probability>
1

> <r_epik_Ionization_Penalty>
0.00545557

> <r_epik_Ionization_Penalty_Charging>
0

> <r_epik_Ionization_Penalty_Neutral>
0.00545557

> <r_epik_State_Penalty>
0.00384469

> <r_epik_Charging_Adjusted_Penalty>
0.00384469

> <i_epik_Tot_Q>
0

> <i_epik_Tot_abs_Q>
0

> <r_epik_Metal_State_Penalty>
-0

> <b_epik_Metal_Only>
0

> <s_lp_Force_Field>
OPLS_2005

> <r_lp_Energy>
40.5801

> <b_lp_Chiralities_Consistent>
1

> <s_lp_Variant>
AV-unprocessed.smi:205-1

> <Gold.Version>
5.8.1

> <Gold.Id.Protein>
6NUR|6NUR_protein|mol2

> <Gold.PLP.Fitness>
53.6178

> <Gold.PLP.PLP>
-41.1785

> <Gold.PLP.part.hbond>
-6.1620

> <Gold.PLP.part.metal>
0.0000

> <Gold.PLP.part.buried>
-2.2725

> <Gold.PLP.part.nonpolar>
-33.7208

> <Gold.PLP.part.repulsive>
0.7375

> <Gold.PLP.ligand.clash>
0.0000

> <Gold.PLP.ligand.torsion>
1.8348

> <Gold.PLP.Chemscore.Hbond>
4.0000

> <Gold.PLP.Chemscore.CHOScore>
0.8745

> <Gold.PLP.Chemscore.Metal>
0.0000

> <Gold.Chemscore.Hbonds>
donor molecule, donor type, donor heavy atom, donor atom, acceptor molecule, acceptor atom, score
      L1  H    24    49       P1 10186  0.90
      L1  H    26    52       P1  7921  1.00
      P1  H  6896  6907       L1     4  1.00
      P1  H  6896  6909       L1    10  1.00
      L1  C    18    43       P1  7948  0.73

> <Gold.PLP.Chemscore.Internal.Correction>
1.4855

> <Gold.Rescore>
     Score         DG    S(hbond)    S(metal)    S(lipo)     H(rot)  DE(clash)    DE(int)     intcor
      4.22      -8.99       3.59        0.00      75.55       6.76       1.46       3.32       ----

> <Gold.Chemscore.Fitness>
4.2173

> <Gold.Chemscore.DG>
-8.9947

> <Gold.Chemscore.ZeroCoef>
-5.4800

> <Gold.Chemscore.Hbond>
3.5872

> <Gold.Chemscore.Metal>
0.0000

> <Gold.Chemscore.Lipo>
75.5454

> <Gold.Chemscore.Internal_Hbond>
0.0000

> <Gold.Chemscore.DEClash>
1.4576

> <Gold.Chemscore.DEInternal>
3.3198

> <Gold.Chemscore.Rot>
6.7600

> <Gold.Chemscore.Internal.Correction>
   9.000000E+99

> <Gold.Chemscore.Hbonds>
donor molecule, donor type, donor heavy atom, donor atom, acceptor molecule, acceptor atom, score
      L1  H    24    49       P1 10186  0.78
      L1  H    26    52       P1  7921  1.00
      P1  H  6896  6907       L1     4  0.97
      P1  H  6896  6909       L1    10  0.59

> <Gold.Chemscore.Hbond.Weighted>
-11.9813

> <Gold.Chemscore.Metal.Weighted>
-0.0000

> <Gold.Chemscore.Lipo.Weighted>
-8.8388

> <Gold.Chemscore.Internal_Hbond.Weighted>
0.0000

> <Gold.Chemscore.DEClash.Weighted>
1.4576

> <Gold.Chemscore.DEInternal.Weighted>
3.3198

> <Gold.Chemscore.Rot.Weighted>
17.3055

> <Gold.Chemscore.Internal.Correction.Weighted>
   9.000000E+99

> <Gold.Protein.RotatedTorsions>
[ 6907 6896 6895 6894 ] final  -84.92 input  -60.11 | X-H torsion
[ 7974 7965 7964 7962 ] final  122.86 input  175.53 | X-H torsion
[ 8008 7997 7996 7995 ] final   51.28 input   59.86 | X-H torsion
[ 10167 10162 10161 10158 ] final  139.56 input  -65.29 | X-H torsion
[ 10718 10713 10712 10709 ] final -120.51 input   66.30 | X-H torsion
[ 10763 10752 10751 10750 ] final -165.08 input  -60.55 | X-H torsion
[ 11005 11000 10999 10996 ] final  -44.67 input  -57.11 | X-H torsion

> <Gold.Protein.ActiveResidues>
 VAL166  LYS551  ARG553  GLY616  TRP617  ASP618  TYR619  PRO620  LYS621  CYS622 
 ASP623  PHE694  ASN695  SER759  ASP760  ASP761  ALA762  ILE779  LEU786  VAL792 
 PHE793  MET794  SER795  GLU796  ALA797  LYS798  CYS799  TRP800  GLU811  SER814 

> <Gold.Protein.RotatedAtoms>
  150.6873  134.3284  159.4816 H   0  0  0  0  0  0  0  0  0  0  0  0  # atno 6907 bound_to 6896
  152.1151  134.9243  160.0574 H   0  0  0  0  0  0  0  0  0  0  0  0  # atno 6908 bound_to 6896
  152.0471  133.3968  159.4398 H   0  0  0  0  0  0  0  0  0  0  0  0  # atno 6909 bound_to 6896
  145.1026  139.3508  143.4804 H   0  0  0  0  0  0  0  0  0  0  0  0  # atno 7974 bound_to 7965
  155.4328  140.3451  155.4282 H   0  0  0  0  0  0  0  0  0  0  0  0  # atno 8008 bound_to 7997
  156.1326  140.1518  156.9073 H   0  0  0  0  0  0  0  0  0  0  0  0  # atno 8009 bound_to 7997
  154.4907  140.0842  156.7567 H   0  0  0  0  0  0  0  0  0  0  0  0  # atno 8010 bound_to 7997
  139.5075  144.6287  151.5872 H   0  0  0  0  0  0  0  0  0  0  0  0  # atno 10167 bound_to 10162
  156.1263  130.6362  150.9549 H   0  0  0  0  0  0  0  0  0  0  0  0  # atno 10718 bound_to 10713
  154.6966  135.2980  154.9402 H   0  0  0  0  0  0  0  0  0  0  0  0  # atno 10763 bound_to 10752
  154.0348  135.6665  153.4788 H   0  0  0  0  0  0  0  0  0  0  0  0  # atno 10764 bound_to 10752
  153.0650  135.5093  154.8087 H   0  0  0  0  0  0  0  0  0  0  0  0  # atno 10765 bound_to 10752
  141.0465  133.6759  156.2905 H   0  0  0  0  0  0  0  0  0  0  0  0  # atno 11005 bound_to 11000
  146.3529  140.0910  142.8612 LP  0  0  0  0  0  0  0  0  0  0  0  0  # atno 17320 bound_to 7965
  145.0938  140.9302  143.4753 LP  0  0  0  0  0  0  0  0  0  0  0  0  # atno 17321 bound_to 7965
  140.6013  143.9605  150.6388 LP  0  0  0  0  0  0  0  0  0  0  0  0  # atno 17342 bound_to 10162
  140.2817  143.3384  152.1144 LP  0  0  0  0  0  0  0  0  0  0  0  0  # atno 17343 bound_to 10162
  157.6445  131.0906  150.8183 LP  0  0  0  0  0  0  0  0  0  0  0  0  # atno 17370 bound_to 10713
  156.8273  130.5004  149.5336 LP  0  0  0  0  0  0  0  0  0  0  0  0  # atno 17371 bound_to 10713
  140.6136  134.5433  157.5537 LP  0  0  0  0  0  0  0  0  0  0  0  0  # atno 17394 bound_to 11000
  139.9316  134.7953  156.0915 LP  0  0  0  0  0  0  0  0  0  0  0  0  # atno 17395 bound_to 11000

$$$$
