AV-unprocessed.smi:3289|AV-procd|sdf|12607|dock7
  -GOLD-   2272018533D 1   1.00000     0.00000
 Structure written by MMmdl.
 40 41  0  0  0  0  0  0  0  0  2 V2000
  146.7527  138.6319  151.7780 C   0  0  0  0  0  0  0  0  0  0  0  0
  147.1432  138.8388  153.2495 C   0  0  0  0  0  0  0  0  0  0  0  0
  146.3082  137.9493  154.1825 C   0  0  0  0  0  0  0  0  0  0  0  0
  147.0550  140.2858  153.6529 C   0  0  0  0  0  0  0  0  0  0  0  0
  145.9459  141.0334  153.5861 N   0  3  0  0  0  0  0  0  0  0  0  0
  146.1844  142.2934  154.0604 C   0  0  0  0  0  0  0  0  0  0  0  0
  147.4972  142.3171  154.4483 C   0  0  0  0  0  0  0  0  0  0  0  0
  148.0086  141.0690  154.1948 N   0  0  0  0  0  0  0  0  0  0  0  0
  149.3881  140.6369  154.4708 C   0  0  0  0  0  0  0  0  0  0  0  0
  149.7393  140.7485  155.9571 C   0  0  0  0  0  0  0  0  0  0  0  0
  149.8692  139.7325  156.6404 O   0  0  0  0  0  0  0  0  0  0  0  0
  149.9075  141.9897  156.4376 N   0  0  0  0  0  0  0  0  0  0  0  0
  150.2833  142.3154  157.8089 C   0  0  0  0  0  0  0  0  0  0  0  0
  151.6783  142.9632  157.8824 C   0  0  2  0  0  0  0  0  0  0  0  0
  152.3115  142.8530  159.2765 C   0  0  0  0  0  0  0  0  0  0  0  0
  152.0846  144.2245  159.8743 C   0  0  0  0  0  0  0  0  0  0  0  0
  152.2041  145.1103  158.6442 C   0  0  0  0  0  0  0  0  0  0  0  0
  151.5616  144.3632  157.6214 O   0  0  0  0  0  0  0  0  0  0  0  0
  147.3807  139.2307  151.1174 H   0  0  0  0  0  0  0  0  0  0  0  0
  145.7142  138.9095  151.5943 H   0  0  0  0  0  0  0  0  0  0  0  0
  146.8708  137.5881  151.4853 H   0  0  0  0  0  0  0  0  0  0  0  0
  148.1871  138.5463  153.3507 H   0  0  0  0  0  0  0  0  0  0  0  0
  146.6266  138.0536  155.2198 H   0  0  0  0  0  0  0  0  0  0  0  0
  146.4082  136.8972  153.9143 H   0  0  0  0  0  0  0  0  0  0  0  0
  145.2493  138.2050  154.1333 H   0  0  0  0  0  0  0  0  0  0  0  0
  145.4207  143.0568  154.0903 H   0  0  0  0  0  0  0  0  0  0  0  0
  148.0900  143.1092  154.8829 H   0  0  0  0  0  0  0  0  0  0  0  0
  149.5170  139.6192  154.0999 H   0  0  0  0  0  0  0  0  0  0  0  0
  150.0653  141.2715  153.8981 H   0  0  0  0  0  0  0  0  0  0  0  0
  149.7740  142.7670  155.8070 H   0  0  0  0  0  0  0  0  0  0  0  0
  149.5336  142.9568  158.2757 H   0  0  0  0  0  0  0  0  0  0  0  0
  150.2831  141.3832  158.3742 H   0  0  0  0  0  0  0  0  0  0  0  0
  152.3389  142.5087  157.1429 H   0  0  0  0  0  0  0  0  0  0  0  0
  151.8916  142.0515  159.8851 H   0  0  0  0  0  0  0  0  0  0  0  0
  153.3826  142.6702  159.1806 H   0  0  0  0  0  0  0  0  0  0  0  0
  151.0794  144.2936  160.2920 H   0  0  0  0  0  0  0  0  0  0  0  0
  152.8019  144.4776  160.6554 H   0  0  0  0  0  0  0  0  0  0  0  0
  151.7398  146.0873  158.7790 H   0  0  0  0  0  0  0  0  0  0  0  0
  153.2511  145.2598  158.3769 H   0  0  0  0  0  0  0  0  0  0  0  0
  145.0549  140.7064  153.2345 H   0  0  0  0  0  0  0  0  0  0  0  0
  1  2  1  0  0  0  0
  1 19  1  0  0  0  0
  1 20  1  0  0  0  0
  1 21  1  0  0  0  0
  2  3  1  0  0  0  0
  2  4  1  0  0  0  0
  2 22  1  0  0  0  0
  3 23  1  0  0  0  0
  3 24  1  0  0  0  0
  3 25  1  0  0  0  0
  4  8  1  0  0  0  0
  4  5  2  0  0  0  0
  5  6  1  0  0  0  0
  5 40  1  0  0  0  0
  6  7  2  0  0  0  0
  6 26  1  0  0  0  0
  7  8  1  0  0  0  0
  7 27  1  0  0  0  0
  8  9  1  0  0  0  0
  9 10  1  0  0  0  0
  9 28  1  0  0  0  0
  9 29  1  0  0  0  0
 10 11  2  0  0  0  0
 10 12  1  0  0  0  0
 12 13  1  0  0  0  0
 12 30  1  0  0  0  0
 13 14  1  0  0  0  0
 13 31  1  0  0  0  0
 13 32  1  0  0  0  0
 14 18  1  0  0  0  0
 14 15  1  0  0  0  0
 14 33  1  0  0  0  0
 15 16  1  0  0  0  0
 15 34  1  0  0  0  0
 15 35  1  0  0  0  0
 16 17  1  0  0  0  0
 16 36  1  0  0  0  0
 16 37  1  0  0  0  0
 17 18  1  0  0  0  0
 17 38  1  0  0  0  0
 17 39  1  0  0  0  0
M  CHG  1   5   1
M  END
> <s_m_source_file>
AV-unprocessed.smi

> <i_m_source_file_index>
3289

> <i_lp_mmshare_version>
43012

> <i_f3d_flags>
0

> <s_epik_input>
W0NIM11bQ0hdKFtDSDNdKWMxbltjSF1bY0hdbjFbQ0gyXUMoPU8pW05IXVtDSDJdW0NAQEhdMltDSDJdW0NIMl1bQ0gyXU8y

> <s_epik_cmdline>
J2VwaWtfcHl0aG9uJywgJy1waCcsICc3LjAnLCAnLXRuJywgJzgnLCAnLW1hJywgJzIwMCcsICctbWV0YWxfYmluZGluZycsICctaW1hZScsICc8aW5maWxlLm1hZT4nLCAnLW9tYWUnLCAnPG91dGZpbGUubWFlPic=

> <r_lp_tautomer_probability>
1

> <r_epik_Ionization_Penalty>
0.274547

> <r_epik_Ionization_Penalty_Charging>
0

> <r_epik_Ionization_Penalty_Neutral>
0.274547

> <r_epik_State_Penalty>
0.266843

> <r_epik_Charging_Adjusted_Penalty>
0.266843

> <i_epik_Tot_Q>
1

> <i_epik_Tot_abs_Q>
1

> <r_epik_Metal_State_Penalty>
0.55046

> <b_epik_Metal_Only>
0

> <s_lp_Force_Field>
OPLS_2005

> <r_lp_Energy>
23.0035

> <b_lp_Chiralities_Consistent>
1

> <s_lp_Variant>
AV-unprocessed.smi:3289-1

> <Gold.Version>
5.8.1

> <Gold.Id.Protein>
6NUR|6NUR_protein|mol2

> <Gold.PLP.Fitness>
48.6512

> <Gold.PLP.PLP>
-39.3584

> <Gold.PLP.part.hbond>
-2.0000

> <Gold.PLP.part.metal>
0.0000

> <Gold.PLP.part.buried>
-1.1453

> <Gold.PLP.part.nonpolar>
-37.1371

> <Gold.PLP.part.repulsive>
0.2195

> <Gold.PLP.ligand.clash>
0.0000

> <Gold.PLP.ligand.torsion>
0.4471

> <Gold.PLP.Chemscore.Hbond>
2.6752

> <Gold.PLP.Chemscore.CHOScore>
0.6900

> <Gold.PLP.Chemscore.Metal>
0.0000

> <Gold.Chemscore.Hbonds>
donor molecule, donor type, donor heavy atom, donor atom, acceptor molecule, acceptor atom, score
      L1  H     5    40       P1 10175  2.00
      L1  H    12    30       P1  8028  0.60
      L1  C     7    27       P1  8028  0.74

> <Gold.PLP.Chemscore.Internal.Correction>
0.0911

> <Gold.Rescore>
     Score         DG    S(hbond)    S(metal)    S(lipo)     H(rot)  DE(clash)    DE(int)     intcor
     16.24     -17.03       1.47        0.00      95.85       1.78       0.30       0.49       ----

> <Gold.Chemscore.Fitness>
16.2390

> <Gold.Chemscore.DG>
-17.0303

> <Gold.Chemscore.ZeroCoef>
-5.4800

> <Gold.Chemscore.Hbond>
1.4677

> <Gold.Chemscore.Metal>
0.0000

> <Gold.Chemscore.Lipo>
95.8460

> <Gold.Chemscore.Internal_Hbond>
0.0000

> <Gold.Chemscore.DEClash>
0.2974

> <Gold.Chemscore.DEInternal>
0.4938

> <Gold.Chemscore.Rot>
1.7835

> <Gold.Chemscore.Internal.Correction>
   9.000000E+99

> <Gold.Chemscore.Hbonds>
donor molecule, donor type, donor heavy atom, donor atom, acceptor molecule, acceptor atom, score
      L1  H     5    40       P1 10175  0.83
      L1  H    12    30       P1  8028  0.60

> <Gold.Chemscore.Hbond.Weighted>
-4.9022

> <Gold.Chemscore.Metal.Weighted>
-0.0000

> <Gold.Chemscore.Lipo.Weighted>
-11.2140

> <Gold.Chemscore.Internal_Hbond.Weighted>
0.0000

> <Gold.Chemscore.DEClash.Weighted>
0.2974

> <Gold.Chemscore.DEInternal.Weighted>
0.4938

> <Gold.Chemscore.Rot.Weighted>
4.5659

> <Gold.Chemscore.Internal.Correction.Weighted>
   9.000000E+99

> <Gold.Protein.RotatedTorsions>
[ 6907 6896 6895 6894 ] final -145.06 input  -60.11 | X-H torsion
[ 7974 7965 7964 7962 ] final   32.22 input  175.53 | X-H torsion
[ 8008 7997 7996 7995 ] final -117.69 input   59.86 | X-H torsion
[ 10167 10162 10161 10158 ] final   41.39 input  -65.29 | X-H torsion
[ 10718 10713 10712 10709 ] final -118.91 input   66.30 | X-H torsion
[ 10763 10752 10751 10750 ] final   36.17 input  -60.55 | X-H torsion
[ 11005 11000 10999 10996 ] final  108.85 input  -57.11 | X-H torsion

> <Gold.Protein.ActiveResidues>
 VAL166  LYS551  ARG553  GLY616  TRP617  ASP618  TYR619  PRO620  LYS621  CYS622 
 ASP623  PHE694  ASN695  SER759  ASP760  ASP761  ALA762  ILE779  LEU786  VAL792 
 PHE793  MET794  SER795  GLU796  ALA797  LYS798  CYS799  TRP800  GLU811  SER814 

> <Gold.Protein.RotatedAtoms>
  151.1226  133.5093  159.2601 H   0  0  0  0  0  0  0  0  0  0  0  0  # atno 6907 bound_to 6896
  151.1844  135.0375  159.8816 H   0  0  0  0  0  0  0  0  0  0  0  0  # atno 6908 bound_to 6896
  152.5456  134.1074  159.8397 H   0  0  0  0  0  0  0  0  0  0  0  0  # atno 6909 bound_to 6896
  146.1500  139.6554  142.9105 H   0  0  0  0  0  0  0  0  0  0  0  0  # atno 7974 bound_to 7965
  155.0878  140.0394  157.2659 H   0  0  0  0  0  0  0  0  0  0  0  0  # atno 8008 bound_to 7997
  154.6856  140.2642  155.6839 H   0  0  0  0  0  0  0  0  0  0  0  0  # atno 8009 bound_to 7997
  156.2710  140.2770  156.1416 H   0  0  0  0  0  0  0  0  0  0  0  0  # atno 8010 bound_to 7997
  140.3648  144.2182  150.6136 H   0  0  0  0  0  0  0  0  0  0  0  0  # atno 10167 bound_to 10162
  156.1141  130.6272  150.9350 H   0  0  0  0  0  0  0  0  0  0  0  0  # atno 10718 bound_to 10713
  153.0088  135.6313  154.1943 H   0  0  0  0  0  0  0  0  0  0  0  0  # atno 10763 bound_to 10752
  154.1686  135.2819  155.3089 H   0  0  0  0  0  0  0  0  0  0  0  0  # atno 10764 bound_to 10752
  154.5926  135.5613  153.7354 H   0  0  0  0  0  0  0  0  0  0  0  0  # atno 10765 bound_to 10752
  139.8851  134.9442  156.6035 H   0  0  0  0  0  0  0  0  0  0  0  0  # atno 11005 bound_to 11000
  145.4845  141.0438  143.2627 LP  0  0  0  0  0  0  0  0  0  0  0  0  # atno 17320 bound_to 7965
  144.7893  139.6362  143.7120 LP  0  0  0  0  0  0  0  0  0  0  0  0  # atno 17321 bound_to 7965
  140.5092  143.2295  151.8562 LP  0  0  0  0  0  0  0  0  0  0  0  0  # atno 17342 bound_to 10162
  139.4810  144.4970  151.9110 LP  0  0  0  0  0  0  0  0  0  0  0  0  # atno 17343 bound_to 10162
  157.6324  131.0919  150.8415 LP  0  0  0  0  0  0  0  0  0  0  0  0  # atno 17370 bound_to 10713
  156.8522  130.5084  149.5311 LP  0  0  0  0  0  0  0  0  0  0  0  0  # atno 17371 bound_to 10713
  140.7865  133.8617  155.8611 LP  0  0  0  0  0  0  0  0  0  0  0  0  # atno 17394 bound_to 11000
  140.9714  134.1526  157.4573 LP  0  0  0  0  0  0  0  0  0  0  0  0  # atno 17395 bound_to 11000

$$$$
