AV-unprocessed.smi:1254|AV-procd|sdf|5274|dock4
  -GOLD-   22720 4393D 1   1.00000     0.00000
 Structure written by MMmdl.
 45 46  0  0  0  0  0  0  0  0  1 V2000
  146.9814  131.4441  153.9024 C   0  0  0  0  0  0  0  0  0  0  0  0
  147.8432  132.5594  154.3871 C   0  0  0  0  0  0  0  0  0  0  0  0
  148.2908  133.7106  153.8020 C   0  0  0  0  0  0  0  0  0  0  0  0
  149.0623  134.3131  154.8311 C   0  0  0  0  0  0  0  0  0  0  0  0
  149.7111  135.5563  154.6203 N   0  0  0  0  0  0  0  0  0  0  0  0
  150.6059  136.1596  155.4210 C   0  0  0  0  0  0  0  0  0  0  0  0
  151.0204  135.7088  156.4895 O   0  0  0  0  0  0  0  0  0  0  0  0
  150.9973  137.3369  154.9132 N   0  0  0  0  0  0  0  0  0  0  0  0
  151.9291  138.2572  155.5558 C   0  0  0  0  0  0  0  0  0  0  0  0
  151.2002  139.4659  156.1669 C   0  0  1  0  0  0  0  0  0  0  0  0
  152.0063  140.1092  157.3119 C   0  0  0  0  0  0  0  0  0  0  0  0
  151.3447  141.2925  157.8516 N   0  0  0  0  0  0  0  0  0  0  0  0
  152.1225  141.8724  158.9476 C   0  0  0  0  0  0  0  0  0  0  0  0
  151.9276  143.3860  159.1827 C   0  0  0  0  0  0  0  0  0  0  0  0
  152.9337  144.1916  158.3476 C   0  0  0  0  0  0  0  0  0  0  0  0
  152.0499  143.7512  160.6712 C   0  0  0  0  0  0  0  0  0  0  0  0
  151.1058  142.2391  156.7644 C   0  0  0  0  0  0  0  0  0  0  0  0
  150.3171  141.5987  155.6097 C   0  0  0  0  0  0  0  0  0  0  0  0
  151.0042  140.4417  155.1459 O   0  0  0  0  0  0  0  0  0  0  0  0
  149.0859  133.5936  155.9427 N   0  0  0  0  0  0  0  0  0  0  0  0
  148.3037  132.4665  155.6641 O   0  0  0  0  0  0  0  0  0  0  0  0
  146.9080  131.4532  152.8146 H   0  0  0  0  0  0  0  0  0  0  0  0
  145.9743  131.5300  154.3104 H   0  0  0  0  0  0  0  0  0  0  0  0
  147.3885  130.4790  154.2048 H   0  0  0  0  0  0  0  0  0  0  0  0
  148.0940  134.0629  152.8003 H   0  0  0  0  0  0  0  0  0  0  0  0
  149.4586  136.0445  153.7739 H   0  0  0  0  0  0  0  0  0  0  0  0
  150.6039  137.6322  154.0318 H   0  0  0  0  0  0  0  0  0  0  0  0
  152.4989  137.7295  156.3227 H   0  0  0  0  0  0  0  0  0  0  0  0
  152.6508  138.5925  154.8105 H   0  0  0  0  0  0  0  0  0  0  0  0
  150.2285  139.1477  156.5499 H   0  0  0  0  0  0  0  0  0  0  0  0
  152.1486  139.3748  158.1057 H   0  0  0  0  0  0  0  0  0  0  0  0
  153.0017  140.3750  156.9519 H   0  0  0  0  0  0  0  0  0  0  0  0
  151.8651  141.3584  159.8749 H   0  0  0  0  0  0  0  0  0  0  0  0
  153.1813  141.6662  158.7821 H   0  0  0  0  0  0  0  0  0  0  0  0
  150.9350  143.6799  158.8427 H   0  0  0  0  0  0  0  0  0  0  0  0
  153.9608  143.9589  158.6308 H   0  0  0  0  0  0  0  0  0  0  0  0
  152.7864  145.2637  158.4811 H   0  0  0  0  0  0  0  0  0  0  0  0
  152.8239  143.9760  157.2844 H   0  0  0  0  0  0  0  0  0  0  0  0
  153.0296  143.4806  161.0665 H   0  0  0  0  0  0  0  0  0  0  0  0
  151.2966  143.2372  161.2691 H   0  0  0  0  0  0  0  0  0  0  0  0
  151.9124  144.8216  160.8261 H   0  0  0  0  0  0  0  0  0  0  0  0
  150.5476  143.1018  157.1255 H   0  0  0  0  0  0  0  0  0  0  0  0
  152.0570  142.6160  156.3858 H   0  0  0  0  0  0  0  0  0  0  0  0
  149.3107  141.3273  155.9325 H   0  0  0  0  0  0  0  0  0  0  0  0
  150.2100  142.3043  154.7859 H   0  0  0  0  0  0  0  0  0  0  0  0
  1  2  1  0  0  0  0
  1 22  1  0  0  0  0
  1 23  1  0  0  0  0
  1 24  1  0  0  0  0
  2 21  1  0  0  0  0
  2  3  2  0  0  0  0
  3  4  1  0  0  0  0
  3 25  1  0  0  0  0
  4  5  1  0  0  0  0
  4 20  2  0  0  0  0
  5  6  1  0  0  0  0
  5 26  1  0  0  0  0
  6  7  2  0  0  0  0
  6  8  1  0  0  0  0
  8  9  1  0  0  0  0
  8 27  1  0  0  0  0
  9 10  1  0  0  0  0
  9 28  1  0  0  0  0
  9 29  1  0  0  0  0
 10 19  1  0  0  0  0
 10 11  1  0  0  0  0
 10 30  1  0  0  0  0
 11 12  1  0  0  0  0
 11 31  1  0  0  0  0
 11 32  1  0  0  0  0
 12 13  1  0  0  0  0
 12 17  1  0  0  0  0
 13 14  1  0  0  0  0
 13 33  1  0  0  0  0
 13 34  1  0  0  0  0
 14 15  1  0  0  0  0
 14 16  1  0  0  0  0
 14 35  1  0  0  0  0
 15 36  1  0  0  0  0
 15 37  1  0  0  0  0
 15 38  1  0  0  0  0
 16 39  1  0  0  0  0
 16 40  1  0  0  0  0
 16 41  1  0  0  0  0
 17 18  1  0  0  0  0
 17 42  1  0  0  0  0
 17 43  1  0  0  0  0
 18 19  1  0  0  0  0
 18 44  1  0  0  0  0
 18 45  1  0  0  0  0
 20 21  1  0  0  0  0
M  END
> <s_m_source_file>
AV-unprocessed.smi

> <i_m_source_file_index>
1254

> <i_lp_mmshare_version>
43012

> <i_f3d_flags>
0

> <s_epik_input>
W0NIM11jMVtjSF1jKG5vMSlbTkhdQyg9TylbTkhdW0NIMl1bQ0BASF0yW0NIMl1OKFtDSDJdW0NIMl1PMilbQ0gyXVtDSF0oW0NIM10pW0NIM10=

> <s_epik_cmdline>
J2VwaWtfcHl0aG9uJywgJy1waCcsICc3LjAnLCAnLXRuJywgJzgnLCAnLW1hJywgJzIwMCcsICctbWV0YWxfYmluZGluZycsICctaW1hZScsICc8aW5maWxlLm1hZT4nLCAnLW9tYWUnLCAnPG91dGZpbGUubWFlPic=

> <r_epik_Ionization_Penalty>
1.11086

> <r_epik_Ionization_Penalty_Charging>
0

> <r_epik_Ionization_Penalty_Neutral>
1.11086

> <r_epik_State_Penalty>
1.16881

> <r_epik_Charging_Adjusted_Penalty>
1.16881

> <i_epik_Tot_Q>
0

> <i_epik_Tot_abs_Q>
0

> <r_epik_Metal_State_Penalty>
1.1835

> <b_epik_Metal_Only>
0

> <s_lp_Force_Field>
OPLS_2005

> <r_lp_Energy>
20.9556

> <b_lp_Chiralities_Consistent>
1

> <s_lp_Variant>
AV-unprocessed.smi:1254-6

> <Gold.Version>
5.8.1

> <Gold.Id.Protein>
6NUR|6NUR_protein|mol2

> <Gold.PLP.Fitness>
47.1025

> <Gold.PLP.PLP>
-40.4650

> <Gold.PLP.part.hbond>
-3.6908

> <Gold.PLP.part.metal>
0.0000

> <Gold.PLP.part.buried>
-2.1576

> <Gold.PLP.part.nonpolar>
-34.7590

> <Gold.PLP.part.repulsive>
0.2691

> <Gold.PLP.ligand.clash>
0.0000

> <Gold.PLP.ligand.torsion>
1.1154

> <Gold.PLP.Chemscore.Hbond>
2.9360

> <Gold.PLP.Chemscore.CHOScore>
0.0000

> <Gold.PLP.Chemscore.Metal>
0.0000

> <Gold.Chemscore.Hbonds>
donor molecule, donor type, donor heavy atom, donor atom, acceptor molecule, acceptor atom, score
      L1  H     5    26       P1  7948  1.00
      P1  H  7989  7998       L1    19  1.00

> <Gold.PLP.Chemscore.Internal.Correction>
0.0603

> <Gold.Rescore>
     Score         DG    S(hbond)    S(metal)    S(lipo)     H(rot)  DE(clash)    DE(int)     intcor
     17.64     -20.25       2.16        0.00     101.56       1.69       0.20       2.42       ----

> <Gold.Chemscore.Fitness>
17.6361

> <Gold.Chemscore.DG>
-20.2542

> <Gold.Chemscore.ZeroCoef>
-5.4800

> <Gold.Chemscore.Hbond>
2.1612

> <Gold.Chemscore.Metal>
0.0000

> <Gold.Chemscore.Lipo>
101.5576

> <Gold.Chemscore.Internal_Hbond>
0.0000

> <Gold.Chemscore.DEClash>
0.1996

> <Gold.Chemscore.DEInternal>
2.4185

> <Gold.Chemscore.Rot>
1.6900

> <Gold.Chemscore.Internal.Correction>
   9.000000E+99

> <Gold.Chemscore.Hbonds>
donor molecule, donor type, donor heavy atom, donor atom, acceptor molecule, acceptor atom, score
      L1  H     5    26       P1  7948  0.59
      P1  H  7989  7998       L1    19  0.48

> <Gold.Chemscore.Hbond.Weighted>
-7.2185

> <Gold.Chemscore.Metal.Weighted>
-0.0000

> <Gold.Chemscore.Lipo.Weighted>
-11.8822

> <Gold.Chemscore.Internal_Hbond.Weighted>
0.0000

> <Gold.Chemscore.DEClash.Weighted>
0.1996

> <Gold.Chemscore.DEInternal.Weighted>
2.4185

> <Gold.Chemscore.Rot.Weighted>
4.3265

> <Gold.Chemscore.Internal.Correction.Weighted>
   9.000000E+99

> <Gold.Protein.RotatedTorsions>
[ 6907 6896 6895 6894 ] final  116.44 input  -60.11 | X-H torsion
[ 7974 7965 7964 7962 ] final  170.62 input  175.53 | X-H torsion
[ 8008 7997 7996 7995 ] final   64.97 input   59.86 | X-H torsion
[ 10167 10162 10161 10158 ] final   55.22 input  -65.29 | X-H torsion
[ 10718 10713 10712 10709 ] final   83.05 input   66.30 | X-H torsion
[ 10763 10752 10751 10750 ] final  -11.26 input  -60.55 | X-H torsion
[ 11005 11000 10999 10996 ] final -112.64 input  -57.11 | X-H torsion

> <Gold.Protein.ActiveResidues>
 VAL166  LYS551  ARG553  GLY616  TRP617  ASP618  TYR619  PRO620  LYS621  CYS622 
 ASP623  PHE694  ASN695  SER759  ASP760  ASP761  ALA762  ILE779  LEU786  VAL792 
 PHE793  MET794  SER795  GLU796  ALA797  LYS798  CYS799  TRP800  GLU811  SER814 

> <Gold.Protein.RotatedAtoms>
  152.4677  133.7960  159.6927 H   0  0  0  0  0  0  0  0  0  0  0  0  # atno 6907 bound_to 6896
  150.8650  133.7578  159.2986 H   0  0  0  0  0  0  0  0  0  0  0  0  # atno 6908 bound_to 6896
  151.5131  135.1068  159.9911 H   0  0  0  0  0  0  0  0  0  0  0  0  # atno 6909 bound_to 6896
  144.7318  139.9230  143.6421 H   0  0  0  0  0  0  0  0  0  0  0  0  # atno 7974 bound_to 7965
  155.6543  140.3497  155.4759 H   0  0  0  0  0  0  0  0  0  0  0  0  # atno 8008 bound_to 7997
  155.9821  140.1176  157.0739 H   0  0  0  0  0  0  0  0  0  0  0  0  # atno 8009 bound_to 7997
  154.4194  140.1136  156.5436 H   0  0  0  0  0  0  0  0  0  0  0  0  # atno 8010 bound_to 7997
  140.2217  144.3781  150.6448 H   0  0  0  0  0  0  0  0  0  0  0  0  # atno 10167 bound_to 10162
  157.6871  131.0074  150.2466 H   0  0  0  0  0  0  0  0  0  0  0  0  # atno 10718 bound_to 10713
  153.4811  135.7017  153.5937 H   0  0  0  0  0  0  0  0  0  0  0  0  # atno 10763 bound_to 10752
  153.4150  135.3839  155.2075 H   0  0  0  0  0  0  0  0  0  0  0  0  # atno 10764 bound_to 10752
  154.8721  135.3914  154.4261 H   0  0  0  0  0  0  0  0  0  0  0  0  # atno 10765 bound_to 10752
  141.0663  133.9453  157.2572 H   0  0  0  0  0  0  0  0  0  0  0  0  # atno 11005 bound_to 11000
  146.0915  139.3905  143.0402 LP  0  0  0  0  0  0  0  0  0  0  0  0  # atno 17320 bound_to 7965
  145.7704  140.9899  143.1152 LP  0  0  0  0  0  0  0  0  0  0  0  0  # atno 17321 bound_to 7965
  140.6250  143.2180  151.6615 LP  0  0  0  0  0  0  0  0  0  0  0  0  # atno 17342 bound_to 10162
  139.5142  144.3419  152.0732 LP  0  0  0  0  0  0  0  0  0  0  0  0  # atno 17343 bound_to 10162
  156.3070  130.3766  149.7696 LP  0  0  0  0  0  0  0  0  0  0  0  0  # atno 17370 bound_to 10713
  156.5309  130.8257  151.3236 LP  0  0  0  0  0  0  0  0  0  0  0  0  # atno 17371 bound_to 10713
  139.9480  135.0181  156.8909 LP  0  0  0  0  0  0  0  0  0  0  0  0  # atno 17394 bound_to 11000
  140.5766  134.0392  155.7449 LP  0  0  0  0  0  0  0  0  0  0  0  0  # atno 17395 bound_to 11000

$$$$
