AV-unprocessed.smi:3258|AV-procd|sdf|12469|dock4
  -GOLD-   2272018363D 1   1.00000     0.00000
 Structure written by MMmdl.
 38 39  0  0  0  0  0  0  0  0  1 V2000
  143.8094  136.8700  152.5217 C   0  0  0  0  0  0  0  0  0  0  0  0
  144.9147  135.8253  152.3010 C   0  0  1  0  0  0  0  0  0  0  0  0
  144.9318  135.3232  150.8443 C   0  0  0  0  0  0  0  0  0  0  0  0
  144.9273  133.8731  150.7599 N   0  0  0  0  0  0  0  0  0  0  0  0
  143.8561  133.0128  150.8791 C   0  0  0  0  0  0  0  0  0  0  0  0
  144.3376  131.7428  150.7393 C   0  0  0  0  0  0  0  0  0  0  0  0
  145.7330  131.9313  150.5330 C   0  0  0  0  0  0  0  0  0  0  0  0
  146.0830  133.2074  150.5453 N   0  0  0  0  0  0  0  0  0  0  0  0
  146.2148  136.3935  152.6518 N   0  0  0  0  0  0  0  0  0  0  0  0
  146.4552  137.1888  153.7032 C   0  0  0  0  0  0  0  0  0  0  0  0
  145.5929  137.5613  154.4989 O   0  0  0  0  0  0  0  0  0  0  0  0
  147.7487  137.5320  153.7784 N   0  0  0  0  0  0  0  0  0  0  0  0
  148.3360  138.3980  154.7958 C   0  0  0  0  0  0  0  0  0  0  0  0
  149.7425  138.8804  154.3943 C   0  0  2  0  0  0  0  0  0  0  0  0
  150.8422  137.8850  154.7011 C   0  0  0  0  0  0  0  0  0  0  0  0
  152.0886  138.7631  154.6417 C   0  0  0  0  0  0  0  0  0  0  0  0
  151.6720  140.0585  155.0634 O   0  0  0  0  0  0  0  0  0  0  0  0
  150.2510  140.1111  155.1485 C   0  0  0  0  0  0  0  0  0  0  0  0
  142.8287  136.4597  152.2802 H   0  0  0  0  0  0  0  0  0  0  0  0
  143.9651  137.7501  151.8967 H   0  0  0  0  0  0  0  0  0  0  0  0
  143.7784  137.1999  153.5606 H   0  0  0  0  0  0  0  0  0  0  0  0
  144.7088  134.9716  152.9496 H   0  0  0  0  0  0  0  0  0  0  0  0
  144.0528  135.6898  150.3126 H   0  0  0  0  0  0  0  0  0  0  0  0
  145.8013  135.7122  150.3113 H   0  0  0  0  0  0  0  0  0  0  0  0
  142.8528  133.3724  151.0547 H   0  0  0  0  0  0  0  0  0  0  0  0
  143.7786  130.8198  150.7790 H   0  0  0  0  0  0  0  0  0  0  0  0
  146.4966  131.1840  150.3763 H   0  0  0  0  0  0  0  0  0  0  0  0
  146.9926  136.1421  152.0593 H   0  0  0  0  0  0  0  0  0  0  0  0
  148.3761  137.1691  153.0755 H   0  0  0  0  0  0  0  0  0  0  0  0
  147.6830  139.2461  155.0097 H   0  0  0  0  0  0  0  0  0  0  0  0
  148.3995  137.8234  155.7200 H   0  0  0  0  0  0  0  0  0  0  0  0
  149.7603  139.0928  153.3238 H   0  0  0  0  0  0  0  0  0  0  0  0
  150.7193  137.4791  155.7062 H   0  0  0  0  0  0  0  0  0  0  0  0
  150.8766  137.0522  153.9981 H   0  0  0  0  0  0  0  0  0  0  0  0
  152.8973  138.3808  155.2650 H   0  0  0  0  0  0  0  0  0  0  0  0
  152.4555  138.8345  153.6171 H   0  0  0  0  0  0  0  0  0  0  0  0
  149.8632  141.0436  154.7380 H   0  0  0  0  0  0  0  0  0  0  0  0
  149.9695  140.0629  156.2012 H   0  0  0  0  0  0  0  0  0  0  0  0
  1  2  1  0  0  0  0
  1 19  1  0  0  0  0
  1 20  1  0  0  0  0
  1 21  1  0  0  0  0
  2  3  1  0  0  0  0
  2  9  1  0  0  0  0
  2 22  1  0  0  0  0
  3  4  1  0  0  0  0
  3 23  1  0  0  0  0
  3 24  1  0  0  0  0
  4  8  1  0  0  0  0
  4  5  1  0  0  0  0
  5  6  2  0  0  0  0
  5 25  1  0  0  0  0
  6  7  1  0  0  0  0
  6 26  1  0  0  0  0
  7  8  2  0  0  0  0
  7 27  1  0  0  0  0
  9 10  1  0  0  0  0
  9 28  1  0  0  0  0
 10 11  2  0  0  0  0
 10 12  1  0  0  0  0
 12 13  1  0  0  0  0
 12 29  1  0  0  0  0
 13 14  1  0  0  0  0
 13 30  1  0  0  0  0
 13 31  1  0  0  0  0
 14 18  1  0  0  0  0
 14 15  1  0  0  0  0
 14 32  1  0  0  0  0
 15 16  1  0  0  0  0
 15 33  1  0  0  0  0
 15 34  1  0  0  0  0
 16 17  1  0  0  0  0
 16 35  1  0  0  0  0
 16 36  1  0  0  0  0
 17 18  1  0  0  0  0
 18 37  1  0  0  0  0
 18 38  1  0  0  0  0
M  END
> <s_m_source_file>
AV-unprocessed.smi

> <i_m_source_file_index>
3258

> <i_lp_mmshare_version>
43012

> <i_f3d_flags>
0

> <s_epik_input>
bjFbY0hdW2NIXVtjSF1uMVtDSDJdW0NAQEhdKFtDSDNdKVtOSF1DKD1PKVtOSF1bQ0gyXVtDQEBIXTJbQ0gyXVtDSDJdT1tDSDJdMg==

> <s_epik_cmdline>
J2VwaWtfcHl0aG9uJywgJy1waCcsICc3LjAnLCAnLXRuJywgJzgnLCAnLW1hJywgJzIwMCcsICctbWV0YWxfYmluZGluZycsICctaW1hZScsICc8aW5maWxlLm1hZT4nLCAnLW9tYWUnLCAnPG91dGZpbGUubWFlPic=

> <r_lp_tautomer_probability>
1

> <r_epik_Ionization_Penalty>
6.85079e-05

> <r_epik_Ionization_Penalty_Charging>
0

> <r_epik_Ionization_Penalty_Neutral>
6.85079e-05

> <r_epik_State_Penalty>
-0

> <r_epik_Charging_Adjusted_Penalty>
0

> <i_epik_Tot_Q>
0

> <i_epik_Tot_abs_Q>
0

> <r_epik_Metal_State_Penalty>
-0

> <b_epik_Metal_Only>
0

> <s_lp_Force_Field>
OPLS_2005

> <r_lp_Energy>
17.05

> <b_lp_Chiralities_Consistent>
1

> <s_lp_Variant>
AV-unprocessed.smi:3258-2

> <Gold.Version>
5.8.1

> <Gold.Id.Protein>
6NUR|6NUR_protein|mol2

> <Gold.PLP.Fitness>
45.3122

> <Gold.PLP.PLP>
-34.8664

> <Gold.PLP.part.hbond>
-3.0000

> <Gold.PLP.part.metal>
0.0000

> <Gold.PLP.part.buried>
-5.7015

> <Gold.PLP.part.nonpolar>
-27.1149

> <Gold.PLP.part.repulsive>
0.3293

> <Gold.PLP.ligand.clash>
0.0000

> <Gold.PLP.ligand.torsion>
1.5200

> <Gold.PLP.Chemscore.Hbond>
2.4774

> <Gold.PLP.Chemscore.CHOScore>
2.0000

> <Gold.PLP.Chemscore.Metal>
0.0000

> <Gold.Chemscore.Hbonds>
donor molecule, donor type, donor heavy atom, donor atom, acceptor molecule, acceptor atom, score
      L1  H     9    28       P1  7948  0.91
      L1  H    12    29       P1  7948  1.00
      P1  H  7989  7998       L1    17  0.57
      L1  C     5    25       P1 10186  0.84
      L1  C     7    27       P1 10747  1.00

> <Gold.PLP.Chemscore.Internal.Correction>
0.0534

> <Gold.Rescore>
     Score         DG    S(hbond)    S(metal)    S(lipo)     H(rot)  DE(clash)    DE(int)     intcor
     12.63     -15.84       1.86        0.00      76.39       1.87       0.50       2.72       ----

> <Gold.Chemscore.Fitness>
12.6263

> <Gold.Chemscore.DG>
-15.8433

> <Gold.Chemscore.ZeroCoef>
-5.4800

> <Gold.Chemscore.Hbond>
1.8619

> <Gold.Chemscore.Metal>
0.0000

> <Gold.Chemscore.Lipo>
76.3917

> <Gold.Chemscore.Internal_Hbond>
0.0000

> <Gold.Chemscore.DEClash>
0.4990

> <Gold.Chemscore.DEInternal>
2.7180

> <Gold.Chemscore.Rot>
1.8724

> <Gold.Chemscore.Internal.Correction>
   9.000000E+99

> <Gold.Chemscore.Hbonds>
donor molecule, donor type, donor heavy atom, donor atom, acceptor molecule, acceptor atom, score
      L1  H     9    28       P1  7948  0.89
      L1  H    12    29       P1  7948  0.99
      P1  H  7989  7998       L1    17  0.01

> <Gold.Chemscore.Hbond.Weighted>
-6.2187

> <Gold.Chemscore.Metal.Weighted>
-0.0000

> <Gold.Chemscore.Lipo.Weighted>
-8.9378

> <Gold.Chemscore.Internal_Hbond.Weighted>
0.0000

> <Gold.Chemscore.DEClash.Weighted>
0.4990

> <Gold.Chemscore.DEInternal.Weighted>
2.7180

> <Gold.Chemscore.Rot.Weighted>
4.7933

> <Gold.Chemscore.Internal.Correction.Weighted>
   9.000000E+99

> <Gold.Protein.RotatedTorsions>
[ 6907 6896 6895 6894 ] final  110.00 input  -60.11 | X-H torsion
[ 7974 7965 7964 7962 ] final  -73.18 input  175.53 | X-H torsion
[ 8008 7997 7996 7995 ] final   30.65 input   59.86 | X-H torsion
[ 10167 10162 10161 10158 ] final   84.52 input  -65.29 | X-H torsion
[ 10718 10713 10712 10709 ] final   64.38 input   66.30 | X-H torsion
[ 10763 10752 10751 10750 ] final  -49.04 input  -60.55 | X-H torsion
[ 11005 11000 10999 10996 ] final -116.19 input  -57.11 | X-H torsion

> <Gold.Protein.ActiveResidues>
 VAL166  LYS551  ARG553  GLY616  TRP617  ASP618  TYR619  PRO620  LYS621  CYS622 
 ASP623  PHE694  ASN695  SER759  ASP760  ASP761  ALA762  ILE779  LEU786  VAL792 
 PHE793  MET794  SER795  GLU796  ALA797  LYS798  CYS799  TRP800  GLU811  SER814 

> <Gold.Protein.RotatedAtoms>
  152.5041  133.8863  159.7371 H   0  0  0  0  0  0  0  0  0  0  0  0  # atno 6907 bound_to 6896
  150.9313  133.6755  159.2817 H   0  0  0  0  0  0  0  0  0  0  0  0  # atno 6908 bound_to 6896
  151.4098  135.0988  159.9634 H   0  0  0  0  0  0  0  0  0  0  0  0  # atno 6909 bound_to 6896
  145.6555  140.9269  143.0962 H   0  0  0  0  0  0  0  0  0  0  0  0  # atno 7974 bound_to 7965
  155.0938  140.3223  155.4566 H   0  0  0  0  0  0  0  0  0  0  0  0  # atno 8008 bound_to 7997
  156.2735  140.2073  156.6012 H   0  0  0  0  0  0  0  0  0  0  0  0  # atno 8009 bound_to 7997
  154.6882  140.0519  157.0323 H   0  0  0  0  0  0  0  0  0  0  0  0  # atno 8010 bound_to 7997
  139.9072  144.6294  150.8575 H   0  0  0  0  0  0  0  0  0  0  0  0  # atno 10167 bound_to 10162
  157.6035  130.9157  149.9838 H   0  0  0  0  0  0  0  0  0  0  0  0  # atno 10718 bound_to 10713
  154.0876  135.6582  153.4847 H   0  0  0  0  0  0  0  0  0  0  0  0  # atno 10763 bound_to 10752
  153.0333  135.5194  154.7412 H   0  0  0  0  0  0  0  0  0  0  0  0  # atno 10764 bound_to 10752
  154.6526  135.3003  154.9936 H   0  0  0  0  0  0  0  0  0  0  0  0  # atno 10765 bound_to 10752
  141.0438  133.9794  157.2951 H   0  0  0  0  0  0  0  0  0  0  0  0  # atno 11005 bound_to 11000
  144.7107  139.8381  143.7415 LP  0  0  0  0  0  0  0  0  0  0  0  0  # atno 17320 bound_to 7965
  146.1169  139.4181  143.0253 LP  0  0  0  0  0  0  0  0  0  0  0  0  # atno 17321 bound_to 7965
  140.7693  143.3392  151.2243 LP  0  0  0  0  0  0  0  0  0  0  0  0  # atno 17342 bound_to 10162
  139.6973  143.9591  152.2889 LP  0  0  0  0  0  0  0  0  0  0  0  0  # atno 17343 bound_to 10162
  156.1115  130.3650  150.0041 LP  0  0  0  0  0  0  0  0  0  0  0  0  # atno 17370 bound_to 10713
  156.8138  130.9334  151.3643 LP  0  0  0  0  0  0  0  0  0  0  0  0  # atno 17371 bound_to 10713
  139.9296  135.0200  156.8355 LP  0  0  0  0  0  0  0  0  0  0  0  0  # atno 17394 bound_to 11000
  140.6184  134.0017  155.7607 LP  0  0  0  0  0  0  0  0  0  0  0  0  # atno 17395 bound_to 11000

$$$$
