AV-unprocessed.smi:2697|AV-procd|sdf|10415|dock6
  -GOLD-   2272014453D 1   1.00000     0.00000
 Structure written by MMmdl.
 32 33  0  0  0  0  0  0  0  0  2 V2000
  152.8182  143.6461  162.4505 C   0  0  0  0  0  0  0  0  0  0  0  0
  152.6212  142.8026  161.2912 N   0  0  0  0  0  0  0  0  0  0  0  0
  153.3122  141.6649  160.9321 C   0  0  0  0  0  0  0  0  0  0  0  0
  152.7421  141.2397  159.7677 C   0  0  0  0  0  0  0  0  0  0  0  0
  153.1070  139.9990  159.0084 C   0  0  0  0  0  0  0  0  0  0  0  0
  153.9383  139.1626  159.6356 N   0  0  0  0  0  0  0  0  0  0  0  0
  152.6921  139.7935  157.8700 O   0  0  0  0  0  0  0  0  0  0  0  0
  151.6978  142.1651  159.4708 C   0  0  0  0  0  0  0  0  0  0  0  0
  150.7172  142.1998  158.3202 C   0  0  2  0  0  0  0  0  0  0  0  0
  149.8815  140.9078  158.2280 C   0  0  0  0  0  0  0  0  0  0  0  0
  148.9062  140.9855  157.0429 C   0  0  0  0  0  0  0  0  0  0  0  0
  149.6517  141.3063  155.7362 C   0  0  0  0  0  0  0  0  0  0  0  0
  150.4389  142.5514  155.8729 N   0  3  0  0  0  0  0  0  0  0  0  0
  151.4188  142.4985  156.9802 C   0  0  0  0  0  0  0  0  0  0  0  0
  151.6384  143.1039  160.4097 N   0  0  0  0  0  0  0  0  0  0  0  0
  153.7411  143.3704  162.9615 H   0  0  0  0  0  0  0  0  0  0  0  0
  151.9817  143.5248  163.1391 H   0  0  0  0  0  0  0  0  0  0  0  0
  152.8824  144.6909  162.1442 H   0  0  0  0  0  0  0  0  0  0  0  0
  154.1203  141.2636  161.5261 H   0  0  0  0  0  0  0  0  0  0  0  0
  154.2270  138.3058  159.1865 H   0  0  0  0  0  0  0  0  0  0  0  0
  154.2749  139.3902  160.5602 H   0  0  0  0  0  0  0  0  0  0  0  0
  150.0056  143.0060  158.4919 H   0  0  0  0  0  0  0  0  0  0  0  0
  150.5352  140.0438  158.1002 H   0  0  0  0  0  0  0  0  0  0  0  0
  149.3295  140.7477  159.1547 H   0  0  0  0  0  0  0  0  0  0  0  0
  148.3655  140.0438  156.9428 H   0  0  0  0  0  0  0  0  0  0  0  0
  148.1560  141.7537  157.2355 H   0  0  0  0  0  0  0  0  0  0  0  0
  150.3197  140.4869  155.4681 H   0  0  0  0  0  0  0  0  0  0  0  0
  148.9434  141.4225  154.9157 H   0  0  0  0  0  0  0  0  0  0  0  0
  150.9309  142.7266  155.0084 H   0  0  0  0  0  0  0  0  0  0  0  0
  151.9427  143.4533  157.0312 H   0  0  0  0  0  0  0  0  0  0  0  0
  152.1658  141.7356  156.7562 H   0  0  0  0  0  0  0  0  0  0  0  0
  149.8021  143.3162  156.0464 H   0  0  0  0  0  0  0  0  0  0  0  0
  1  2  1  0  0  0  0
  1 16  1  0  0  0  0
  1 17  1  0  0  0  0
  1 18  1  0  0  0  0
  2 15  1  0  0  0  0
  2  3  1  0  0  0  0
  3  4  2  0  0  0  0
  3 19  1  0  0  0  0
  4  5  1  0  0  0  0
  4  8  1  0  0  0  0
  5  6  1  0  0  0  0
  5  7  2  0  0  0  0
  6 20  1  0  0  0  0
  6 21  1  0  0  0  0
  8  9  1  0  0  0  0
  8 15  2  0  0  0  0
  9 14  1  0  0  0  0
  9 10  1  0  0  0  0
  9 22  1  0  0  0  0
 10 11  1  0  0  0  0
 10 23  1  0  0  0  0
 10 24  1  0  0  0  0
 11 12  1  0  0  0  0
 11 25  1  0  0  0  0
 11 26  1  0  0  0  0
 12 13  1  0  0  0  0
 12 27  1  0  0  0  0
 12 28  1  0  0  0  0
 13 14  1  0  0  0  0
 13 29  1  0  0  0  0
 13 32  1  0  0  0  0
 14 30  1  0  0  0  0
 14 31  1  0  0  0  0
M  CHG  1  13   1
M  END
> <s_m_source_file>
AV-unprocessed.smi

> <i_m_source_file_index>
2697

> <i_lp_mmshare_version>
43012

> <i_f3d_flags>
0

> <s_epik_input>
W0NIM11uMVtjSF1jKEMoPU8pW05IMl0pYyhuMSlbQ0BASF0yW0NIMl1bQ0gyXVtDSDJdW05IXVtDSDJdMg==

> <s_epik_cmdline>
J2VwaWtfcHl0aG9uJywgJy1waCcsICc3LjAnLCAnLXRuJywgJzgnLCAnLW1hJywgJzIwMCcsICctbWV0YWxfYmluZGluZycsICctaW1hZScsICc8aW5maWxlLm1hZT4nLCAnLW9tYWUnLCAnPG91dGZpbGUubWFlPic=

> <r_lp_tautomer_probability>
1

> <r_epik_Ionization_Penalty>
0.000158942

> <r_epik_Ionization_Penalty_Charging>
0.000157527

> <r_epik_Ionization_Penalty_Neutral>
1.41498e-06

> <r_epik_State_Penalty>
-0

> <r_epik_Charging_Adjusted_Penalty>
0.000157527

> <i_epik_Tot_Q>
1

> <i_epik_Tot_abs_Q>
1

> <r_epik_Metal_State_Penalty>
-0

> <b_epik_Metal_Only>
0

> <s_lp_Force_Field>
OPLS_2005

> <r_lp_Energy>
9.94433

> <b_lp_Chiralities_Consistent>
1

> <s_lp_Variant>
AV-unprocessed.smi:2697-1

> <Gold.Version>
5.8.1

> <Gold.Id.Protein>
6NUR|6NUR_protein|mol2

> <Gold.PLP.Fitness>
37.3044

> <Gold.PLP.PLP>
-28.5271

> <Gold.PLP.part.hbond>
-2.5298

> <Gold.PLP.part.metal>
0.0000

> <Gold.PLP.part.buried>
-3.5125

> <Gold.PLP.part.nonpolar>
-21.8042

> <Gold.PLP.part.repulsive>
0.2938

> <Gold.PLP.ligand.clash>
0.0000

> <Gold.PLP.ligand.torsion>
0.1284

> <Gold.PLP.Chemscore.Hbond>
3.0000

> <Gold.PLP.Chemscore.CHOScore>
0.0000

> <Gold.PLP.Chemscore.Metal>
0.0000

> <Gold.Chemscore.Hbonds>
donor molecule, donor type, donor heavy atom, donor atom, acceptor molecule, acceptor atom, score
      L1  H    13    32       P1  8028  2.00
      P1  H  7997  8008       L1     7  0.88

> <Gold.PLP.Chemscore.Internal.Correction>
0.0341

> <Gold.Rescore>
     Score         DG    S(hbond)    S(metal)    S(lipo)     H(rot)  DE(clash)    DE(int)     intcor
     15.15     -17.13       1.76        0.00      71.06       1.00       0.74       1.24       ----

> <Gold.Chemscore.Fitness>
15.1470

> <Gold.Chemscore.DG>
-17.1257

> <Gold.Chemscore.ZeroCoef>
-5.4800

> <Gold.Chemscore.Hbond>
1.7641

> <Gold.Chemscore.Metal>
0.0000

> <Gold.Chemscore.Lipo>
71.0557

> <Gold.Chemscore.Internal_Hbond>
0.0000

> <Gold.Chemscore.DEClash>
0.7411

> <Gold.Chemscore.DEInternal>
1.2376

> <Gold.Chemscore.Rot>
1.0000

> <Gold.Chemscore.Internal.Correction>
   9.000000E+99

> <Gold.Chemscore.Hbonds>
donor molecule, donor type, donor heavy atom, donor atom, acceptor molecule, acceptor atom, score
      L1  H    13    32       P1  8028  0.99
      P1  H  7997  8008       L1     7  0.29

> <Gold.Chemscore.Hbond.Weighted>
-5.8922

> <Gold.Chemscore.Metal.Weighted>
-0.0000

> <Gold.Chemscore.Lipo.Weighted>
-8.3135

> <Gold.Chemscore.Internal_Hbond.Weighted>
0.0000

> <Gold.Chemscore.DEClash.Weighted>
0.7411

> <Gold.Chemscore.DEInternal.Weighted>
1.2376

> <Gold.Chemscore.Rot.Weighted>
2.5600

> <Gold.Chemscore.Internal.Correction.Weighted>
   9.000000E+99

> <Gold.Protein.RotatedTorsions>
[ 6907 6896 6895 6894 ] final   39.58 input  -60.11 | X-H torsion
[ 7974 7965 7964 7962 ] final  -92.86 input  175.53 | X-H torsion
[ 8008 7997 7996 7995 ] final  -63.61 input   59.86 | X-H torsion
[ 10167 10162 10161 10158 ] final   97.77 input  -65.29 | X-H torsion
[ 10718 10713 10712 10709 ] final   12.84 input   66.30 | X-H torsion
[ 10763 10752 10751 10750 ] final  156.62 input  -60.55 | X-H torsion
[ 11005 11000 10999 10996 ] final   26.76 input  -57.11 | X-H torsion

> <Gold.Protein.ActiveResidues>
 VAL166  LYS551  ARG553  GLY616  TRP617  ASP618  TYR619  PRO620  LYS621  CYS622 
 ASP623  PHE694  ASN695  SER759  ASP760  ASP761  ALA762  ILE779  LEU786  VAL792 
 PHE793  MET794  SER795  GLU796  ALA797  LYS798  CYS799  TRP800  GLU811  SER814 

> <Gold.Protein.RotatedAtoms>
  152.1713  134.8831  160.0533 H   0  0  0  0  0  0  0  0  0  0  0  0  # atno 6907 bound_to 6896
  151.9790  133.3746  159.4108 H   0  0  0  0  0  0  0  0  0  0  0  0  # atno 6908 bound_to 6896
  150.6902  134.3982  159.5151 H   0  0  0  0  0  0  0  0  0  0  0  0  # atno 6909 bound_to 6896
  145.3943  140.9531  143.2323 H   0  0  0  0  0  0  0  0  0  0  0  0  # atno 7974 bound_to 7965
  154.4564  140.0971  156.6769 H   0  0  0  0  0  0  0  0  0  0  0  0  # atno 8008 bound_to 7997
  155.5125  140.3477  155.4373 H   0  0  0  0  0  0  0  0  0  0  0  0  # atno 8009 bound_to 7997
  156.0786  140.1367  156.9729 H   0  0  0  0  0  0  0  0  0  0  0  0  # atno 8010 bound_to 7997
  139.7770  144.6902  151.0075 H   0  0  0  0  0  0  0  0  0  0  0  0  # atno 10167 bound_to 10162
  157.0159  130.6135  149.5714 H   0  0  0  0  0  0  0  0  0  0  0  0  # atno 10718 bound_to 10713
  154.1873  135.2796  155.3033 H   0  0  0  0  0  0  0  0  0  0  0  0  # atno 10763 bound_to 10752
  154.5956  135.5546  153.7326 H   0  0  0  0  0  0  0  0  0  0  0  0  # atno 10764 bound_to 10752
  153.0122  135.6379  154.2012 H   0  0  0  0  0  0  0  0  0  0  0  0  # atno 10765 bound_to 10752
  140.3336  134.2411  155.7699 H   0  0  0  0  0  0  0  0  0  0  0  0  # atno 11005 bound_to 11000
  144.8418  139.5459  143.6896 LP  0  0  0  0  0  0  0  0  0  0  0  0  # atno 17320 bound_to 7965
  146.2783  139.6809  142.9247 LP  0  0  0  0  0  0  0  0  0  0  0  0  # atno 17321 bound_to 7965
  140.7817  143.4525  151.0393 LP  0  0  0  0  0  0  0  0  0  0  0  0  # atno 17342 bound_to 10162
  139.8207  143.7825  152.3176 LP  0  0  0  0  0  0  0  0  0  0  0  0  # atno 17343 bound_to 10162
  156.0119  130.5211  150.8015 LP  0  0  0  0  0  0  0  0  0  0  0  0  # atno 17370 bound_to 10713
  157.5285  131.0935  150.9986 LP  0  0  0  0  0  0  0  0  0  0  0  0  # atno 17371 bound_to 10713
  141.2057  133.7853  157.0218 LP  0  0  0  0  0  0  0  0  0  0  0  0  # atno 17394 bound_to 11000
  140.0840  134.9631  157.1670 LP  0  0  0  0  0  0  0  0  0  0  0  0  # atno 17395 bound_to 11000

$$$$
