AV-unprocessed.smi:1817|AV-procd|sdf|7371|dock4
  -GOLD-   22720 9 33D 1   1.00000     0.00000
 Structure written by MMmdl.
 43 44  0  0  0  0  0  0  0  0  2 V2000
  143.8252  132.1377  150.2668 C   0  0  0  0  0  0  0  0  0  0  0  0
  144.1148  133.3300  151.1899 C   0  0  0  0  0  0  0  0  0  0  0  0
  145.2576  134.1191  150.7243 N   0  0  0  0  0  0  0  0  0  0  0  0
  145.6124  135.2614  151.5685 C   0  0  0  0  0  0  0  0  0  0  0  0
  146.2001  134.8313  152.9289 C   0  0  0  0  0  0  0  0  0  0  0  0
  147.4006  133.9636  152.7599 N   0  3  0  0  0  0  0  0  0  0  0  0
  148.0555  133.5292  154.0402 C   0  0  1  0  0  0  0  0  0  0  0  0
  149.3179  132.6829  153.7477 C   0  0  0  0  0  0  0  0  0  0  0  0
  148.4013  134.7181  154.9816 C   0  0  0  0  0  0  0  0  0  0  0  0
  147.9123  134.5359  156.3469 N   0  0  0  0  0  0  0  0  0  0  0  0
  148.2066  135.3220  157.3932 C   0  0  0  0  0  0  0  0  0  0  0  0
  148.9661  136.2878  157.3232 O   0  0  0  0  0  0  0  0  0  0  0  0
  147.5724  134.9098  158.5026 N   0  0  0  0  0  0  0  0  0  0  0  0
  147.6376  135.4682  159.8037 C   0  0  0  0  0  0  0  0  0  0  0  0
  147.6478  136.8015  159.9142 N   0  0  0  0  0  0  0  0  0  0  0  0
  147.7119  137.2137  161.2396 N   0  0  0  0  0  0  0  0  0  0  0  0
  147.7459  136.1733  162.0778 C   0  0  0  0  0  0  0  0  0  0  0  0
  147.7032  134.5855  161.3319 S   0  0  0  0  0  0  0  0  0  0  0  0
  147.0545  132.8218  151.8669 C   0  0  0  0  0  0  0  0  0  0  0  0
  146.4581  133.3079  150.5298 C   0  0  0  0  0  0  0  0  0  0  0  0
  143.0635  131.4932  150.7059 H   0  0  0  0  0  0  0  0  0  0  0  0
  144.7178  131.5315  150.1100 H   0  0  0  0  0  0  0  0  0  0  0  0
  143.4540  132.4547  149.2926 H   0  0  0  0  0  0  0  0  0  0  0  0
  143.2205  133.9416  151.3044 H   0  0  0  0  0  0  0  0  0  0  0  0
  144.3496  132.9382  152.1805 H   0  0  0  0  0  0  0  0  0  0  0  0
  146.3464  135.8671  151.0349 H   0  0  0  0  0  0  0  0  0  0  0  0
  144.7483  135.9081  151.7171 H   0  0  0  0  0  0  0  0  0  0  0  0
  146.4670  135.7508  153.4477 H   0  0  0  0  0  0  0  0  0  0  0  0
  145.4522  134.3256  153.5409 H   0  0  0  0  0  0  0  0  0  0  0  0
  147.3420  132.8981  154.5729 H   0  0  0  0  0  0  0  0  0  0  0  0
  149.7945  132.3346  154.6631 H   0  0  0  0  0  0  0  0  0  0  0  0
  150.0576  133.2594  153.1915 H   0  0  0  0  0  0  0  0  0  0  0  0
  149.1035  131.7793  153.1810 H   0  0  0  0  0  0  0  0  0  0  0  0
  149.4757  134.9102  154.9724 H   0  0  0  0  0  0  0  0  0  0  0  0
  147.9201  135.6335  154.6397 H   0  0  0  0  0  0  0  0  0  0  0  0
  147.2800  133.7640  156.5017 H   0  0  0  0  0  0  0  0  0  0  0  0
  146.9729  134.1031  158.4088 H   0  0  0  0  0  0  0  0  0  0  0  0
  147.7965  136.3428  163.1432 H   0  0  0  0  0  0  0  0  0  0  0  0
  147.9391  132.2377  151.6239 H   0  0  0  0  0  0  0  0  0  0  0  0
  146.3696  132.1428  152.3762 H   0  0  0  0  0  0  0  0  0  0  0  0
  146.2241  132.4570  149.8888 H   0  0  0  0  0  0  0  0  0  0  0  0
  147.1995  133.9003  149.9917 H   0  0  0  0  0  0  0  0  0  0  0  0
  148.0799  134.5250  152.2664 H   0  0  0  0  0  0  0  0  0  0  0  0
  1  2  1  0  0  0  0
  1 21  1  0  0  0  0
  1 22  1  0  0  0  0
  1 23  1  0  0  0  0
  2  3  1  0  0  0  0
  2 24  1  0  0  0  0
  2 25  1  0  0  0  0
  3 20  1  0  0  0  0
  3  4  1  0  0  0  0
  4  5  1  0  0  0  0
  4 26  1  0  0  0  0
  4 27  1  0  0  0  0
  5  6  1  0  0  0  0
  5 28  1  0  0  0  0
  5 29  1  0  0  0  0
  6  7  1  0  0  0  0
  6 19  1  0  0  0  0
  6 43  1  0  0  0  0
  7  8  1  0  0  0  0
  7  9  1  0  0  0  0
  7 30  1  0  0  0  0
  8 31  1  0  0  0  0
  8 32  1  0  0  0  0
  8 33  1  0  0  0  0
  9 10  1  0  0  0  0
  9 34  1  0  0  0  0
  9 35  1  0  0  0  0
 10 11  1  0  0  0  0
 10 36  1  0  0  0  0
 11 12  2  0  0  0  0
 11 13  1  0  0  0  0
 13 14  1  0  0  0  0
 13 37  1  0  0  0  0
 14 18  1  0  0  0  0
 14 15  2  0  0  0  0
 15 16  1  0  0  0  0
 16 17  2  0  0  0  0
 17 18  1  0  0  0  0
 17 38  1  0  0  0  0
 19 20  1  0  0  0  0
 19 39  1  0  0  0  0
 19 40  1  0  0  0  0
 20 41  1  0  0  0  0
 20 42  1  0  0  0  0
M  CHG  1   6   1
M  END
> <s_m_source_file>
AV-unprocessed.smi

> <i_m_source_file_index>
1817

> <i_lp_mmshare_version>
43012

> <i_f3d_flags>
0

> <s_epik_input>
W0NIM11bQ0gyXU4xW0NIMl1bQ0gyXU4oW0NIMl1bQ0gyXTEpW0NASF0oW0NIM10pW0NIMl1bTkhdQyg9TylbTkhdYzJubltjSF1zMg==

> <s_epik_cmdline>
J2VwaWtfcHl0aG9uJywgJy1waCcsICc3LjAnLCAnLXRuJywgJzgnLCAnLW1hJywgJzIwMCcsICctbWV0YWxfYmluZGluZycsICctaW1hZScsICc8aW5maWxlLm1hZT4nLCAnLW9tYWUnLCAnPG91dGZpbGUubWFlPic=

> <r_epik_Ionization_Penalty>
0.153808

> <r_epik_Ionization_Penalty_Charging>
0.148467

> <r_epik_Ionization_Penalty_Neutral>
0.00534086

> <r_epik_State_Penalty>
0.974087

> <r_epik_Charging_Adjusted_Penalty>
1.12255

> <i_epik_Tot_Q>
1

> <i_epik_Tot_abs_Q>
1

> <r_epik_Metal_State_Penalty>
1.30894

> <b_epik_Metal_Only>
0

> <s_lp_Force_Field>
OPLS_2005

> <r_lp_Energy>
21.4774

> <b_lp_Chiralities_Consistent>
1

> <s_lp_Variant>
AV-unprocessed.smi:1817-4

> <Gold.Version>
5.8.1

> <Gold.Id.Protein>
6NUR|6NUR_protein|mol2

> <Gold.PLP.Fitness>
40.6814

> <Gold.PLP.PLP>
-31.6546

> <Gold.PLP.part.hbond>
-3.0000

> <Gold.PLP.part.metal>
0.0000

> <Gold.PLP.part.buried>
-3.1659

> <Gold.PLP.part.nonpolar>
-24.0168

> <Gold.PLP.part.repulsive>
0.1992

> <Gold.PLP.ligand.clash>
0.0000

> <Gold.PLP.ligand.torsion>
1.0593

> <Gold.PLP.Chemscore.Hbond>
3.6944

> <Gold.PLP.Chemscore.CHOScore>
0.0000

> <Gold.PLP.Chemscore.Metal>
0.0000

> <Gold.Chemscore.Hbonds>
donor molecule, donor type, donor heavy atom, donor atom, acceptor molecule, acceptor atom, score
      L1  H     6    43       P1  7948  2.00
      P1  H  6931  6943       L1    16  0.94
      P1  H  6934  6947       L1    16  0.71

> <Gold.PLP.Chemscore.Internal.Correction>
0.0622

> <Gold.Rescore>
     Score         DG    S(hbond)    S(metal)    S(lipo)     H(rot)  DE(clash)    DE(int)     intcor
     12.50     -14.84       1.92        0.00      67.35       1.92       0.12       2.23       ----

> <Gold.Chemscore.Fitness>
12.4975

> <Gold.Chemscore.DG>
-14.8422

> <Gold.Chemscore.ZeroCoef>
-5.4800

> <Gold.Chemscore.Hbond>
1.9152

> <Gold.Chemscore.Metal>
0.0000

> <Gold.Chemscore.Lipo>
67.3467

> <Gold.Chemscore.Internal_Hbond>
0.0000

> <Gold.Chemscore.DEClash>
0.1171

> <Gold.Chemscore.DEInternal>
2.2276

> <Gold.Chemscore.Rot>
1.9196

> <Gold.Chemscore.Internal.Correction>
   9.000000E+99

> <Gold.Chemscore.Hbonds>
donor molecule, donor type, donor heavy atom, donor atom, acceptor molecule, acceptor atom, score
      L1  H     6    43       P1  7948  0.25
      P1  H  6931  6943       L1    16  0.31
      P1  H  6934  6947       L1    16  0.12

> <Gold.Chemscore.Hbond.Weighted>
-6.3967

> <Gold.Chemscore.Metal.Weighted>
-0.0000

> <Gold.Chemscore.Lipo.Weighted>
-7.8796

> <Gold.Chemscore.Internal_Hbond.Weighted>
0.0000

> <Gold.Chemscore.DEClash.Weighted>
0.1171

> <Gold.Chemscore.DEInternal.Weighted>
2.2276

> <Gold.Chemscore.Rot.Weighted>
4.9141

> <Gold.Chemscore.Internal.Correction.Weighted>
   9.000000E+99

> <Gold.Protein.RotatedTorsions>
[ 6907 6896 6895 6894 ] final  -46.39 input  -60.11 | X-H torsion
[ 7974 7965 7964 7962 ] final   34.84 input  175.53 | X-H torsion
[ 8008 7997 7996 7995 ] final -159.80 input   59.86 | X-H torsion
[ 10167 10162 10161 10158 ] final -117.99 input  -65.29 | X-H torsion
[ 10718 10713 10712 10709 ] final  -46.91 input   66.30 | X-H torsion
[ 10763 10752 10751 10750 ] final  -94.93 input  -60.55 | X-H torsion
[ 11005 11000 10999 10996 ] final  -12.27 input  -57.11 | X-H torsion

> <Gold.Protein.ActiveResidues>
 VAL166  LYS551  ARG553  GLY616  TRP617  ASP618  TYR619  PRO620  LYS621  CYS622 
 ASP623  PHE694  ASN695  SER759  ASP760  ASP761  ALA762  ILE779  LEU786  VAL792 
 PHE793  MET794  SER795  GLU796  ALA797  LYS798  CYS799  TRP800  GLU811  SER814 

> <Gold.Protein.RotatedAtoms>
  150.9117  134.8534  159.7429 H   0  0  0  0  0  0  0  0  0  0  0  0  # atno 6907 bound_to 6896
  152.4947  134.4349  159.9534 H   0  0  0  0  0  0  0  0  0  0  0  0  # atno 6908 bound_to 6896
  151.4391  133.3609  159.2814 H   0  0  0  0  0  0  0  0  0  0  0  0  # atno 6909 bound_to 6896
  146.1325  139.6218  142.9217 H   0  0  0  0  0  0  0  0  0  0  0  0  # atno 7974 bound_to 7965
  155.7680  140.0848  157.2122 H   0  0  0  0  0  0  0  0  0  0  0  0  # atno 8008 bound_to 7997
  154.3998  140.1530  156.2966 H   0  0  0  0  0  0  0  0  0  0  0  0  # atno 8009 bound_to 7997
  155.8775  140.3422  155.5867 H   0  0  0  0  0  0  0  0  0  0  0  0  # atno 8010 bound_to 7997
  140.0624  143.4955  152.2025 H   0  0  0  0  0  0  0  0  0  0  0  0  # atno 10167 bound_to 10162
  156.2137  130.4162  149.9082 H   0  0  0  0  0  0  0  0  0  0  0  0  # atno 10718 bound_to 10713
  154.7101  135.5139  153.8654 H   0  0  0  0  0  0  0  0  0  0  0  0  # atno 10763 bound_to 10752
  153.0774  135.6620  154.0126 H   0  0  0  0  0  0  0  0  0  0  0  0  # atno 10764 bound_to 10752
  153.9970  135.3014  155.3386 H   0  0  0  0  0  0  0  0  0  0  0  0  # atno 10765 bound_to 10752
  140.7640  133.8492  155.9149 H   0  0  0  0  0  0  0  0  0  0  0  0  # atno 11005 bound_to 11000
  145.5229  141.0431  143.2425 LP  0  0  0  0  0  0  0  0  0  0  0  0  # atno 17320 bound_to 7965
  144.7705  139.6746  143.7197 LP  0  0  0  0  0  0  0  0  0  0  0  0  # atno 17321 bound_to 7965
  139.5886  144.7541  151.3458 LP  0  0  0  0  0  0  0  0  0  0  0  0  # atno 17342 bound_to 10162
  140.7166  143.7251  150.7666 LP  0  0  0  0  0  0  0  0  0  0  0  0  # atno 17343 bound_to 10162
  156.6752  130.8836  151.3568 LP  0  0  0  0  0  0  0  0  0  0  0  0  # atno 17370 bound_to 10713
  157.7052  130.9377  150.0907 LP  0  0  0  0  0  0  0  0  0  0  0  0  # atno 17371 bound_to 10713
  140.9636  134.1623  157.4634 LP  0  0  0  0  0  0  0  0  0  0  0  0  # atno 17394 bound_to 11000
  139.8766  134.9954  156.5740 LP  0  0  0  0  0  0  0  0  0  0  0  0  # atno 17395 bound_to 11000

$$$$
