AV-unprocessed.smi:1965|AV-procd|sdf|7932|dock3
  -GOLD-   2272010103D 1   1.00000     0.00000
 Structure written by MMmdl.
 37 39  0  0  0  0  0  0  0  0  2 V2000
  144.8979  137.0295  152.4221 O   0  0  0  0  0  0  0  0  0  0  0  0
  146.0628  136.6828  152.2358 C   0  0  0  0  0  0  0  0  0  0  0  0
  146.3533  135.4817  151.6917 N   0  0  0  0  0  0  0  0  0  0  0  0
  145.5157  134.4184  151.2446 C   0  0  0  0  0  0  0  0  0  0  0  0
  144.1763  134.4283  151.2649 N   0  0  0  0  0  0  0  0  0  0  0  0
  143.6312  133.2496  150.7494 C   0  0  0  0  0  0  0  0  0  0  0  0
  144.5760  132.3464  150.3314 C   0  0  0  0  0  0  0  0  0  0  0  0
  146.1960  132.9442  150.5702 S   0  0  0  0  0  0  0  0  0  0  0  0
  147.1102  137.4627  152.5501 N   0  0  0  0  0  0  0  0  0  0  0  0
  147.0334  138.7933  153.1441 C   0  0  2  0  0  0  0  0  0  0  0  0
  146.5163  139.8493  152.1747 C   0  0  0  0  0  0  0  0  0  0  0  0
  146.9969  141.1476  152.8250 C   0  0  0  0  0  0  0  0  0  0  0  0
  148.2884  140.8244  153.4741 N   0  3  1  0  0  0  0  0  0  0  0  0
  148.5394  141.5504  154.7433 C   0  0  0  0  0  0  0  0  0  0  0  0
  149.9088  141.1628  155.3319 C   0  0  0  0  0  0  0  0  0  0  0  0
  150.1240  139.6366  155.4103 C   0  0  0  0  0  0  0  0  0  0  0  0
  148.8973  138.8457  154.9298 C   0  0  0  0  0  0  0  0  0  0  0  0
  148.4127  139.3407  153.5481 C   0  0  1  0  0  0  0  0  0  0  0  0
  147.3403  135.3133  151.5594 H   0  0  0  0  0  0  0  0  0  0  0  0
  142.5572  133.1374  150.7157 H   0  0  0  0  0  0  0  0  0  0  0  0
  144.4179  131.3698  149.8982 H   0  0  0  0  0  0  0  0  0  0  0  0
  148.0340  137.0992  152.3615 H   0  0  0  0  0  0  0  0  0  0  0  0
  146.3695  138.7843  154.0115 H   0  0  0  0  0  0  0  0  0  0  0  0
  146.9800  139.7288  151.1942 H   0  0  0  0  0  0  0  0  0  0  0  0
  145.4339  139.8161  152.0456 H   0  0  0  0  0  0  0  0  0  0  0  0
  147.1048  141.9604  152.1065 H   0  0  0  0  0  0  0  0  0  0  0  0
  146.2708  141.4618  153.5766 H   0  0  0  0  0  0  0  0  0  0  0  0
  148.5021  142.6250  154.5610 H   0  0  0  0  0  0  0  0  0  0  0  0
  147.7465  141.3259  155.4587 H   0  0  0  0  0  0  0  0  0  0  0  0
  150.6997  141.6022  154.7227 H   0  0  0  0  0  0  0  0  0  0  0  0
  150.0151  141.6043  156.3234 H   0  0  0  0  0  0  0  0  0  0  0  0
  150.9847  139.3658  154.7972 H   0  0  0  0  0  0  0  0  0  0  0  0
  150.3767  139.3444  156.4300 H   0  0  0  0  0  0  0  0  0  0  0  0
  149.1369  137.7830  154.8855 H   0  0  0  0  0  0  0  0  0  0  0  0
  148.0970  138.9428  155.6647 H   0  0  0  0  0  0  0  0  0  0  0  0
  149.1491  139.0632  152.7918 H   0  0  0  0  0  0  0  0  0  0  0  0
  149.0116  141.1199  152.8341 H   0  0  0  0  0  0  0  0  0  0  0  0
  1  2  2  0  0  0  0
  2  3  1  0  0  0  0
  2  9  1  0  0  0  0
  3  4  1  0  0  0  0
  3 19  1  0  0  0  0
  4  8  1  0  0  0  0
  4  5  2  0  0  0  0
  5  6  1  0  0  0  0
  6  7  2  0  0  0  0
  6 20  1  0  0  0  0
  7  8  1  0  0  0  0
  7 21  1  0  0  0  0
  9 10  1  0  0  0  0
  9 22  1  0  0  0  0
 10 18  1  0  0  0  0
 10 11  1  0  0  0  0
 10 23  1  0  0  0  0
 11 12  1  0  0  0  0
 11 24  1  0  0  0  0
 11 25  1  0  0  0  0
 12 13  1  0  0  0  0
 12 26  1  0  0  0  0
 12 27  1  0  0  0  0
 13 18  1  0  0  0  0
 13 14  1  0  0  0  0
 13 37  1  0  0  0  0
 14 15  1  0  0  0  0
 14 28  1  0  0  0  0
 14 29  1  0  0  0  0
 15 16  1  0  0  0  0
 15 30  1  0  0  0  0
 15 31  1  0  0  0  0
 16 17  1  0  0  0  0
 16 32  1  0  0  0  0
 16 33  1  0  0  0  0
 17 18  1  0  0  0  0
 17 34  1  0  0  0  0
 17 35  1  0  0  0  0
 18 36  1  0  0  0  0
M  CHG  1  13   1
M  END
> <s_m_source_file>
AV-unprocessed.smi

> <i_m_source_file_index>
1965

> <i_lp_mmshare_version>
43012

> <i_f3d_flags>
0

> <s_epik_input>
czFbY0hdW2NIXW5jMVtOSF1DKD1PKVtOSF1bQ0BIXShbQ0gyXVtDSDJdMilbQ0BASF0oTjIzKVtDSDJdW0NIMl1bQ0gyXVtDSDJdMw==

> <s_epik_cmdline>
J2VwaWtfcHl0aG9uJywgJy1waCcsICc3LjAnLCAnLXRuJywgJzgnLCAnLW1hJywgJzIwMCcsICctbWV0YWxfYmluZGluZycsICctaW1hZScsICc8aW5maWxlLm1hZT4nLCAnLW9tYWUnLCAnPG91dGZpbGUubWFlPic=

> <r_lp_tautomer_probability>
1

> <r_epik_Ionization_Penalty>
0.00125962

> <r_epik_Ionization_Penalty_Charging>
0.00107044

> <r_epik_Ionization_Penalty_Neutral>
0.000189176

> <r_epik_State_Penalty>
-0

> <r_epik_Charging_Adjusted_Penalty>
0.00107044

> <i_epik_Tot_Q>
1

> <i_epik_Tot_abs_Q>
1

> <r_epik_Metal_State_Penalty>
0.0179285

> <b_epik_Metal_Only>
0

> <s_lp_Force_Field>
OPLS_2005

> <r_lp_Energy>
40.5282

> <b_lp_Chiralities_Consistent>
1

> <s_lp_Variant>
AV-unprocessed.smi:1965-1

> <Gold.Version>
5.8.1

> <Gold.Id.Protein>
6NUR|6NUR_protein|mol2

> <Gold.PLP.Fitness>
34.3878

> <Gold.PLP.PLP>
-26.2749

> <Gold.PLP.part.hbond>
-2.2670

> <Gold.PLP.part.metal>
0.0000

> <Gold.PLP.part.buried>
2.3840

> <Gold.PLP.part.nonpolar>
-27.2618

> <Gold.PLP.part.repulsive>
0.6488

> <Gold.PLP.ligand.clash>
0.0000

> <Gold.PLP.ligand.torsion>
0.0860

> <Gold.PLP.Chemscore.Hbond>
1.8107

> <Gold.PLP.Chemscore.CHOScore>
0.9483

> <Gold.PLP.Chemscore.Metal>
0.0000

> <Gold.Chemscore.Hbonds>
donor molecule, donor type, donor heavy atom, donor atom, acceptor molecule, acceptor atom, score
      L1  H     3    19       P1  7948  0.78
      L1  H     9    22       P1  7948  0.55
      L1  H    13    37       P1  7957  0.45
      L1  C     6    20       P1 10186  0.98

> <Gold.PLP.Chemscore.Internal.Correction>
0.0077

> <Gold.Rescore>
     Score         DG    S(hbond)    S(metal)    S(lipo)     H(rot)  DE(clash)    DE(int)     intcor
     14.70     -17.40       1.88        0.00      70.12       1.00       1.42       1.28       ----

> <Gold.Chemscore.Fitness>
14.6958

> <Gold.Chemscore.DG>
-17.3970

> <Gold.Chemscore.ZeroCoef>
-5.4800

> <Gold.Chemscore.Hbond>
1.8782

> <Gold.Chemscore.Metal>
0.0000

> <Gold.Chemscore.Lipo>
70.1174

> <Gold.Chemscore.Internal_Hbond>
0.0000

> <Gold.Chemscore.DEClash>
1.4214

> <Gold.Chemscore.DEInternal>
1.2798

> <Gold.Chemscore.Rot>
1.0000

> <Gold.Chemscore.Internal.Correction>
   9.000000E+99

> <Gold.Chemscore.Hbonds>
donor molecule, donor type, donor heavy atom, donor atom, acceptor molecule, acceptor atom, score
      L1  H     3    19       P1  7948  0.72
      L1  H     9    22       P1  7948  0.53
      L1  H    13    37       P1  7957  0.44

> <Gold.Chemscore.Hbond.Weighted>
-6.2732

> <Gold.Chemscore.Metal.Weighted>
-0.0000

> <Gold.Chemscore.Lipo.Weighted>
-8.2037

> <Gold.Chemscore.Internal_Hbond.Weighted>
0.0000

> <Gold.Chemscore.DEClash.Weighted>
1.4214

> <Gold.Chemscore.DEInternal.Weighted>
1.2798

> <Gold.Chemscore.Rot.Weighted>
2.5600

> <Gold.Chemscore.Internal.Correction.Weighted>
   9.000000E+99

> <Gold.Protein.RotatedTorsions>
[ 6907 6896 6895 6894 ] final  140.71 input  -60.11 | X-H torsion
[ 7974 7965 7964 7962 ] final  -78.76 input  175.53 | X-H torsion
[ 8008 7997 7996 7995 ] final    8.51 input   59.86 | X-H torsion
[ 10167 10162 10161 10158 ] final  125.74 input  -65.29 | X-H torsion
[ 10718 10713 10712 10709 ] final  -80.40 input   66.30 | X-H torsion
[ 10763 10752 10751 10750 ] final  -35.08 input  -60.55 | X-H torsion
[ 11005 11000 10999 10996 ] final   66.26 input  -57.11 | X-H torsion

> <Gold.Protein.ActiveResidues>
 VAL166  LYS551  ARG553  GLY616  TRP617  ASP618  TYR619  PRO620  LYS621  CYS622 
 ASP623  PHE694  ASN695  SER759  ASP760  ASP761  ALA762  ILE779  LEU786  VAL792 
 PHE793  MET794  SER795  GLU796  ALA797  LYS798  CYS799  TRP800  GLU811  SER814 

> <Gold.Protein.RotatedAtoms>
  152.2398  133.5126  159.5263 H   0  0  0  0  0  0  0  0  0  0  0  0  # atno 6907 bound_to 6896
  150.7061  134.1104  159.4007 H   0  0  0  0  0  0  0  0  0  0  0  0  # atno 6908 bound_to 6896
  151.9025  135.0372  160.0558 H   0  0  0  0  0  0  0  0  0  0  0  0  # atno 6909 bound_to 6896
  145.5821  140.9446  143.1338 H   0  0  0  0  0  0  0  0  0  0  0  0  # atno 7974 bound_to 7965
  154.7678  140.2796  155.6162 H   0  0  0  0  0  0  0  0  0  0  0  0  # atno 8008 bound_to 7997
  156.2928  140.2647  156.2400 H   0  0  0  0  0  0  0  0  0  0  0  0  # atno 8009 bound_to 7997
  154.9938  140.0373  157.2320 H   0  0  0  0  0  0  0  0  0  0  0  0  # atno 8010 bound_to 7997
  139.5669  144.6916  151.3885 H   0  0  0  0  0  0  0  0  0  0  0  0  # atno 10167 bound_to 10162
  156.0071  130.4573  150.3794 H   0  0  0  0  0  0  0  0  0  0  0  0  # atno 10718 bound_to 10713
  153.8573  135.6843  153.4786 H   0  0  0  0  0  0  0  0  0  0  0  0  # atno 10763 bound_to 10752
  153.1362  135.4677  154.9424 H   0  0  0  0  0  0  0  0  0  0  0  0  # atno 10764 bound_to 10752
  154.7775  135.3258  154.8010 H   0  0  0  0  0  0  0  0  0  0  0  0  # atno 10765 bound_to 10752
  139.9842  134.6694  156.0206 H   0  0  0  0  0  0  0  0  0  0  0  0  # atno 11005 bound_to 11000
  144.7389  139.7505  143.7318 LP  0  0  0  0  0  0  0  0  0  0  0  0  # atno 17320 bound_to 7965
  146.1708  139.4858  142.9928 LP  0  0  0  0  0  0  0  0  0  0  0  0  # atno 17321 bound_to 7965
  140.6953  143.7764  150.7317 LP  0  0  0  0  0  0  0  0  0  0  0  0  # atno 17342 bound_to 10162
  140.1259  143.4570  152.2284 LP  0  0  0  0  0  0  0  0  0  0  0  0  # atno 17343 bound_to 10162
  157.1875  131.0407  151.2717 LP  0  0  0  0  0  0  0  0  0  0  0  0  # atno 17370 bound_to 10713
  157.4091  130.7375  149.6825 LP  0  0  0  0  0  0  0  0  0  0  0  0  # atno 17371 bound_to 10713
  141.1510  133.6548  156.4013 LP  0  0  0  0  0  0  0  0  0  0  0  0  # atno 17394 bound_to 11000
  140.5035  134.6463  157.5257 LP  0  0  0  0  0  0  0  0  0  0  0  0  # atno 17395 bound_to 11000

$$$$
