AV-unprocessed.smi:1207|AV-procd|sdf|5055|dock8
  -GOLD-   22720 4 93D 1   1.00000     0.00000
 Structure written by MMmdl.
 52 54  0  0  0  0  0  0  0  0  2 V2000
  152.8928  142.9856  161.4669 C   0  0  0  0  0  0  0  0  0  0  0  0
  152.3612  142.4954  160.1309 C   0  0  0  0  0  0  0  0  0  0  0  0
  152.3774  141.1070  159.8667 C   0  0  0  0  0  0  0  0  0  0  0  0
  151.8789  140.6891  158.6385 C   0  0  0  0  0  0  0  0  0  0  0  0
  151.7540  139.4121  158.0863 N   0  3  0  0  0  0  0  0  0  0  0  0
  151.1974  139.5055  156.8465 C   0  0  0  0  0  0  0  0  0  0  0  0
  150.9665  140.8234  156.5999 N   0  0  0  0  0  0  0  0  0  0  0  0
  150.3761  141.4756  155.4239 C   0  0  0  0  0  0  0  0  0  0  0  0
  149.4302  140.5471  154.6377 C   0  0  2  0  0  0  0  0  0  0  0  0
  149.1528  141.1284  153.3790 O   0  0  0  0  0  0  0  0  0  0  0  0
  148.0949  140.3348  155.3799 C   0  0  0  0  0  0  0  0  0  0  0  0
  147.2932  141.5435  155.5834 N   0  0  0  0  0  0  0  0  0  0  0  0
  147.6545  142.1738  156.8505 C   0  0  0  0  0  0  0  0  0  0  0  0
  145.8535  141.2660  155.5335 C   0  0  0  0  0  0  0  0  0  0  0  0
  145.0104  142.5149  155.5680 C   0  0  0  0  0  0  0  0  0  0  0  0
  144.0728  142.9107  156.5642 C   0  0  0  0  0  0  0  0  0  0  0  0
  143.6937  142.1893  157.8255 C   0  0  0  0  0  0  0  0  0  0  0  0
  143.5042  144.0694  156.2756 N   0  0  0  0  0  0  0  0  0  0  0  0
  144.0600  144.4756  155.0586 O   0  0  0  0  0  0  0  0  0  0  0  0
  144.9528  143.5347  154.6582 C   0  0  0  0  0  0  0  0  0  0  0  0
  145.6542  143.7873  153.3665 C   0  0  0  0  0  0  0  0  0  0  0  0
  151.3782  141.5993  157.6879 C   0  0  0  0  0  0  0  0  0  0  0  0
  151.3588  142.9705  157.9293 C   0  0  0  0  0  0  0  0  0  0  0  0
  151.8587  143.4153  159.1740 C   0  0  0  0  0  0  0  0  0  0  0  0
  151.8450  144.9055  159.4687 C   0  0  0  0  0  0  0  0  0  0  0  0
  153.2466  142.1586  162.0834 H   0  0  0  0  0  0  0  0  0  0  0  0
  152.1110  143.5041  162.0225 H   0  0  0  0  0  0  0  0  0  0  0  0
  153.7273  143.6719  161.3195 H   0  0  0  0  0  0  0  0  0  0  0  0
  152.7581  140.4011  160.5904 H   0  0  0  0  0  0  0  0  0  0  0  0
  150.9739  138.6833  156.1819 H   0  0  0  0  0  0  0  0  0  0  0  0
  149.8547  142.3741  155.7569 H   0  0  0  0  0  0  0  0  0  0  0  0
  151.1964  141.8102  154.7871 H   0  0  0  0  0  0  0  0  0  0  0  0
  149.9389  139.6014  154.4622 H   0  0  0  0  0  0  0  0  0  0  0  0
  149.0371  140.4321  152.7499 H   0  0  0  0  0  0  0  0  0  0  0  0
  147.4926  139.6021  154.8403 H   0  0  0  0  0  0  0  0  0  0  0  0
  148.3184  139.8726  156.3431 H   0  0  0  0  0  0  0  0  0  0  0  0
  147.1220  143.1144  156.9923 H   0  0  0  0  0  0  0  0  0  0  0  0
  148.7203  142.4025  156.8795 H   0  0  0  0  0  0  0  0  0  0  0  0
  147.4247  141.5223  157.6946 H   0  0  0  0  0  0  0  0  0  0  0  0
  145.6091  140.7141  154.6285 H   0  0  0  0  0  0  0  0  0  0  0  0
  145.5866  140.5957  156.3518 H   0  0  0  0  0  0  0  0  0  0  0  0
  143.1568  141.2682  157.5991 H   0  0  0  0  0  0  0  0  0  0  0  0
  143.0523  142.7978  158.4640 H   0  0  0  0  0  0  0  0  0  0  0  0
  144.5791  141.9246  158.4037 H   0  0  0  0  0  0  0  0  0  0  0  0
  146.5868  143.2258  153.3104 H   0  0  0  0  0  0  0  0  0  0  0  0
  145.8920  144.8452  153.2542 H   0  0  0  0  0  0  0  0  0  0  0  0
  145.0292  143.4895  152.5248 H   0  0  0  0  0  0  0  0  0  0  0  0
  150.9747  143.6689  157.2006 H   0  0  0  0  0  0  0  0  0  0  0  0
  151.4307  145.4734  158.6352 H   0  0  0  0  0  0  0  0  0  0  0  0
  152.8566  145.2698  159.6494 H   0  0  0  0  0  0  0  0  0  0  0  0
  151.2376  145.1163  160.3493 H   0  0  0  0  0  0  0  0  0  0  0  0
  152.0243  138.5395  158.5217 H   0  0  0  0  0  0  0  0  0  0  0  0
  1  2  1  0  0  0  0
  1 26  1  0  0  0  0
  1 27  1  0  0  0  0
  1 28  1  0  0  0  0
  2 24  1  0  0  0  0
  2  3  2  0  0  0  0
  3  4  1  0  0  0  0
  3 29  1  0  0  0  0
  4 22  2  0  0  0  0
  4  5  1  0  0  0  0
  5  6  2  0  0  0  0
  5 52  1  0  0  0  0
  6  7  1  0  0  0  0
  6 30  1  0  0  0  0
  7  8  1  0  0  0  0
  7 22  1  0  0  0  0
  8  9  1  0  0  0  0
  8 31  1  0  0  0  0
  8 32  1  0  0  0  0
  9 10  1  0  0  0  0
  9 11  1  0  0  0  0
  9 33  1  0  0  0  0
 10 34  1  0  0  0  0
 11 12  1  0  0  0  0
 11 35  1  0  0  0  0
 11 36  1  0  0  0  0
 12 13  1  0  0  0  0
 12 14  1  0  0  0  0
 13 37  1  0  0  0  0
 13 38  1  0  0  0  0
 13 39  1  0  0  0  0
 14 15  1  0  0  0  0
 14 40  1  0  0  0  0
 14 41  1  0  0  0  0
 15 20  2  0  0  0  0
 15 16  1  0  0  0  0
 16 17  1  0  0  0  0
 16 18  2  0  0  0  0
 17 42  1  0  0  0  0
 17 43  1  0  0  0  0
 17 44  1  0  0  0  0
 18 19  1  0  0  0  0
 19 20  1  0  0  0  0
 20 21  1  0  0  0  0
 21 45  1  0  0  0  0
 21 46  1  0  0  0  0
 21 47  1  0  0  0  0
 22 23  1  0  0  0  0
 23 24  2  0  0  0  0
 23 48  1  0  0  0  0
 24 25  1  0  0  0  0
 25 49  1  0  0  0  0
 25 50  1  0  0  0  0
 25 51  1  0  0  0  0
M  CHG  1   5   1
M  END
> <s_m_source_file>
AV-unprocessed.smi

> <i_m_source_file_index>
1207

> <i_lp_mmshare_version>
43012

> <i_f3d_flags>
0

> <s_epik_input>
W0NIM11jKFtjSF0xKWMoW0NIM10pW2NIXWMoYzEyKW4oW2NIXW4yKVtDSDJdW0NASF0oW09IXSlbQ0gyXU4oW0NIM10pW0NIMl1jM2MoW0NIM10pbm9jM1tDSDNd

> <s_epik_cmdline>
J2VwaWtfcHl0aG9uJywgJy1waCcsICc3LjAnLCAnLXRuJywgJzgnLCAnLW1hJywgJzIwMCcsICctbWV0YWxfYmluZGluZycsICctaW1hZScsICc8aW5maWxlLm1hZT4nLCAnLW9tYWUnLCAnPG91dGZpbGUubWFlPic=

> <r_epik_Ionization_Penalty>
1.48114

> <r_epik_Ionization_Penalty_Charging>
1.21121

> <r_epik_Ionization_Penalty_Neutral>
0.269933

> <r_epik_State_Penalty>
1.53013

> <r_epik_Charging_Adjusted_Penalty>
2.74134

> <i_epik_Tot_Q>
1

> <i_epik_Tot_abs_Q>
1

> <r_epik_Metal_State_Penalty>
1.60462

> <b_epik_Metal_Only>
0

> <s_lp_Force_Field>
OPLS_2005

> <r_lp_Energy>
21.4613

> <b_lp_Chiralities_Consistent>
1

> <s_lp_Variant>
AV-unprocessed.smi:1207-7

> <Gold.Version>
5.8.1

> <Gold.Id.Protein>
6NUR|6NUR_protein|mol2

> <Gold.PLP.Fitness>
49.3664

> <Gold.PLP.PLP>
-45.6337

> <Gold.PLP.part.hbond>
-2.9788

> <Gold.PLP.part.metal>
0.0000

> <Gold.PLP.part.buried>
-5.1590

> <Gold.PLP.part.nonpolar>
-36.7719

> <Gold.PLP.part.repulsive>
0.2856

> <Gold.PLP.ligand.clash>
0.0000

> <Gold.PLP.ligand.torsion>
0.8853

> <Gold.PLP.Chemscore.Hbond>
1.7520

> <Gold.PLP.Chemscore.CHOScore>
0.0000

> <Gold.PLP.Chemscore.Metal>
0.0000

> <Gold.Chemscore.Hbonds>
donor molecule, donor type, donor heavy atom, donor atom, acceptor molecule, acceptor atom, score
      L1  H    10    34       P1  7957  0.74
      P1  H  8011  8017       L1    10  1.00

> <Gold.PLP.Chemscore.Internal.Correction>
0.2473

> <Gold.Rescore>
     Score         DG    S(hbond)    S(metal)    S(lipo)     H(rot)  DE(clash)    DE(int)     intcor
     15.78     -17.25       1.17        0.00     120.90       2.46       0.68       0.79       ----

> <Gold.Chemscore.Fitness>
15.7805

> <Gold.Chemscore.DG>
-17.2519

> <Gold.Chemscore.ZeroCoef>
-5.4800

> <Gold.Chemscore.Hbond>
1.1714

> <Gold.Chemscore.Metal>
0.0000

> <Gold.Chemscore.Lipo>
120.9000

> <Gold.Chemscore.Internal_Hbond>
0.0000

> <Gold.Chemscore.DEClash>
0.6800

> <Gold.Chemscore.DEInternal>
0.7914

> <Gold.Chemscore.Rot>
2.4555

> <Gold.Chemscore.Internal.Correction>
   9.000000E+99

> <Gold.Chemscore.Hbonds>
donor molecule, donor type, donor heavy atom, donor atom, acceptor molecule, acceptor atom, score
      L1  H    10    34       P1  7957  0.74
      P1  H  8011  8017       L1    10  0.25

> <Gold.Chemscore.Hbond.Weighted>
-3.9126

> <Gold.Chemscore.Metal.Weighted>
-0.0000

> <Gold.Chemscore.Lipo.Weighted>
-14.1453

> <Gold.Chemscore.Internal_Hbond.Weighted>
0.0000

> <Gold.Chemscore.DEClash.Weighted>
0.6800

> <Gold.Chemscore.DEInternal.Weighted>
0.7914

> <Gold.Chemscore.Rot.Weighted>
6.2861

> <Gold.Chemscore.Internal.Correction.Weighted>
   9.000000E+99

> <Gold.Protein.RotatedTorsions>
[ 6907 6896 6895 6894 ] final   58.97 input  -60.11 | X-H torsion
[ 7974 7965 7964 7962 ] final  150.94 input  175.53 | X-H torsion
[ 8008 7997 7996 7995 ] final   82.61 input   59.86 | X-H torsion
[ 10167 10162 10161 10158 ] final -130.54 input  -65.29 | X-H torsion
[ 10718 10713 10712 10709 ] final  -61.82 input   66.30 | X-H torsion
[ 10763 10752 10751 10750 ] final  -51.90 input  -60.55 | X-H torsion
[ 11005 11000 10999 10996 ] final  -45.28 input  -57.11 | X-H torsion

> <Gold.Protein.ActiveResidues>
 VAL166  LYS551  ARG553  GLY616  TRP617  ASP618  TYR619  PRO620  LYS621  CYS622 
 ASP623  PHE694  ASN695  SER759  ASP760  ASP761  ALA762  ILE779  LEU786  VAL792 
 PHE793  MET794  SER795  GLU796  ALA797  LYS798  CYS799  TRP800  GLU811  SER814 

> <Gold.Protein.RotatedAtoms>
  152.3872  134.6498  160.0120 H   0  0  0  0  0  0  0  0  0  0  0  0  # atno 6907 bound_to 6896
  151.6743  133.3307  159.3212 H   0  0  0  0  0  0  0  0  0  0  0  0  # atno 6908 bound_to 6896
  150.7796  134.6772  159.6468 H   0  0  0  0  0  0  0  0  0  0  0  0  # atno 6909 bound_to 6896
  144.8328  139.6473  143.6051 H   0  0  0  0  0  0  0  0  0  0  0  0  # atno 7974 bound_to 7965
  155.9129  140.3426  155.6113 H   0  0  0  0  0  0  0  0  0  0  0  0  # atno 8008 bound_to 7997
  155.7366  140.0802  157.2284 H   0  0  0  0  0  0  0  0  0  0  0  0  # atno 8009 bound_to 7997
  154.4058  140.1578  156.2555 H   0  0  0  0  0  0  0  0  0  0  0  0  # atno 8010 bound_to 7997
  139.9283  143.6302  152.2536 H   0  0  0  0  0  0  0  0  0  0  0  0  # atno 10167 bound_to 10162
  156.0896  130.4202  150.1048 H   0  0  0  0  0  0  0  0  0  0  0  0  # atno 10718 bound_to 10713
  154.1340  135.6515  153.4928 H   0  0  0  0  0  0  0  0  0  0  0  0  # atno 10763 bound_to 10752
  153.0186  135.5299  154.6972 H   0  0  0  0  0  0  0  0  0  0  0  0  # atno 10764 bound_to 10752
  154.6215  135.2965  155.0291 H   0  0  0  0  0  0  0  0  0  0  0  0  # atno 10765 bound_to 10752
  141.0505  133.6744  156.2992 H   0  0  0  0  0  0  0  0  0  0  0  0  # atno 11005 bound_to 11000
  146.2629  139.6453  142.9349 LP  0  0  0  0  0  0  0  0  0  0  0  0  # atno 17320 bound_to 7965
  145.4859  141.0438  143.2620 LP  0  0  0  0  0  0  0  0  0  0  0  0  # atno 17321 bound_to 7965
  139.6804  144.7656  151.1619 LP  0  0  0  0  0  0  0  0  0  0  0  0  # atno 17342 bound_to 10162
  140.7644  143.5733  150.8972 LP  0  0  0  0  0  0  0  0  0  0  0  0  # atno 17343 bound_to 10162
  156.9061  130.9636  151.3569 LP  0  0  0  0  0  0  0  0  0  0  0  0  # atno 17370 bound_to 10713
  157.6041  130.8534  149.8848 LP  0  0  0  0  0  0  0  0  0  0  0  0  # atno 17371 bound_to 10713
  140.6063  134.5503  157.5526 LP  0  0  0  0  0  0  0  0  0  0  0  0  # atno 17394 bound_to 11000
  139.9347  134.7898  156.0835 LP  0  0  0  0  0  0  0  0  0  0  0  0  # atno 17395 bound_to 11000

$$$$
