AV-unprocessed.smi:2784|AV-procd|sdf|10728|dock3
  -GOLD-   2272015163D 1   1.00000     0.00000
 Structure written by MMmdl.
 31 32  0  0  0  0  0  0  0  0  1 V2000
  151.6145  140.0960  158.8842 C   0  0  0  0  0  0  0  0  0  0  0  0
  151.2352  141.4178  158.5358 O   0  0  0  0  0  0  0  0  0  0  0  0
  152.3387  142.2842  158.2848 C   0  0  2  0  0  0  0  0  0  0  0  0
  152.8470  142.8423  159.6185 C   0  0  0  0  0  0  0  0  0  0  0  0
  151.8934  143.9931  159.9281 C   0  0  0  0  0  0  0  0  0  0  0  0
  151.5812  144.6198  158.5662 C   0  0  0  0  0  0  0  0  0  0  0  0
  151.8653  143.5347  157.5087 C   0  0  2  0  0  0  0  0  0  0  0  0
  150.6913  143.2833  156.6753 N   0  0  0  0  0  0  0  0  0  0  0  0
  150.4628  142.1482  155.9994 C   0  0  0  0  0  0  0  0  0  0  0  0
  151.2350  141.1889  156.0022 O   0  0  0  0  0  0  0  0  0  0  0  0
  149.2962  142.2018  155.3354 N   0  0  0  0  0  0  0  0  0  0  0  0
  148.7142  141.1910  154.5298 C   0  0  0  0  0  0  0  0  0  0  0  0
  149.3013  140.0662  154.1177 N   0  0  0  0  0  0  0  0  0  0  0  0
  148.3297  139.4190  153.3680 C   0  0  0  0  0  0  0  0  0  0  0  0
  147.2001  140.1966  153.3695 C   0  0  0  0  0  0  0  0  0  0  0  0
  147.4299  141.3276  154.1060 O   0  0  0  0  0  0  0  0  0  0  0  0
  150.7226  139.5015  159.0811 H   0  0  0  0  0  0  0  0  0  0  0  0
  152.2361  140.0749  159.7793 H   0  0  0  0  0  0  0  0  0  0  0  0
  152.1598  139.6190  158.0688 H   0  0  0  0  0  0  0  0  0  0  0  0
  153.1207  141.7635  157.7288 H   0  0  0  0  0  0  0  0  0  0  0  0
  152.8838  142.1024  160.4179 H   0  0  0  0  0  0  0  0  0  0  0  0
  153.8567  143.2335  159.4872 H   0  0  0  0  0  0  0  0  0  0  0  0
  150.9770  143.5973  160.3680 H   0  0  0  0  0  0  0  0  0  0  0  0
  152.3162  144.7100  160.6323 H   0  0  0  0  0  0  0  0  0  0  0  0
  150.5550  144.9887  158.5334 H   0  0  0  0  0  0  0  0  0  0  0  0
  152.2335  145.4767  158.3933 H   0  0  0  0  0  0  0  0  0  0  0  0
  152.6817  143.8897  156.8765 H   0  0  0  0  0  0  0  0  0  0  0  0
  150.0016  144.0186  156.6256 H   0  0  0  0  0  0  0  0  0  0  0  0
  148.7645  143.0554  155.4180 H   0  0  0  0  0  0  0  0  0  0  0  0
  148.5158  138.4655  152.8963 H   0  0  0  0  0  0  0  0  0  0  0  0
  146.2198  140.0956  152.9276 H   0  0  0  0  0  0  0  0  0  0  0  0
  1  2  1  0  0  0  0
  1 17  1  0  0  0  0
  1 18  1  0  0  0  0
  1 19  1  0  0  0  0
  2  3  1  0  0  0  0
  3  7  1  0  0  0  0
  3  4  1  0  0  0  0
  3 20  1  0  0  0  0
  4  5  1  0  0  0  0
  4 21  1  0  0  0  0
  4 22  1  0  0  0  0
  5  6  1  0  0  0  0
  5 23  1  0  0  0  0
  5 24  1  0  0  0  0
  6  7  1  0  0  0  0
  6 25  1  0  0  0  0
  6 26  1  0  0  0  0
  7  8  1  0  0  0  0
  7 27  1  0  0  0  0
  8  9  1  0  0  0  0
  8 28  1  0  0  0  0
  9 10  2  0  0  0  0
  9 11  1  0  0  0  0
 11 12  1  0  0  0  0
 11 29  1  0  0  0  0
 12 16  1  0  0  0  0
 12 13  2  0  0  0  0
 13 14  1  0  0  0  0
 14 15  2  0  0  0  0
 14 30  1  0  0  0  0
 15 16  1  0  0  0  0
 15 31  1  0  0  0  0
M  END
> <s_m_source_file>
AV-unprocessed.smi

> <i_m_source_file_index>
2784

> <i_lp_mmshare_version>
43012

> <i_f3d_flags>
0

> <s_epik_input>
W0NIM11PW0NAQEhdMVtDSDJdW0NIMl1bQ0gyXVtDQEhdMVtOSF1DKD1PKVtOSF1jMm5bY0hdW2NIXW8y

> <s_epik_cmdline>
J2VwaWtfcHl0aG9uJywgJy1waCcsICc3LjAnLCAnLXRuJywgJzgnLCAnLW1hJywgJzIwMCcsICctbWV0YWxfYmluZGluZycsICctaW1hZScsICc8aW5maWxlLm1hZT4nLCAnLW9tYWUnLCAnPG91dGZpbGUubWFlPic=

> <r_lp_tautomer_probability>
0.785861

> <r_epik_Ionization_Penalty>
4.58897e-05

> <r_epik_Ionization_Penalty_Charging>
0

> <r_epik_Ionization_Penalty_Neutral>
4.58897e-05

> <r_epik_State_Penalty>
0.0380021

> <r_epik_Charging_Adjusted_Penalty>
0.0380021

> <i_epik_Tot_Q>
0

> <i_epik_Tot_abs_Q>
0

> <r_epik_Metal_State_Penalty>
0.0585611

> <b_epik_Metal_Only>
0

> <s_lp_Force_Field>
OPLS_2005

> <r_lp_Energy>
20.0171

> <b_lp_Chiralities_Consistent>
1

> <s_lp_Variant>
AV-unprocessed.smi:2784-3

> <Gold.Version>
5.8.1

> <Gold.Id.Protein>
6NUR|6NUR_protein|mol2

> <Gold.PLP.Fitness>
39.5626

> <Gold.PLP.PLP>
-28.6598

> <Gold.PLP.part.hbond>
-2.0000

> <Gold.PLP.part.metal>
0.0000

> <Gold.PLP.part.buried>
-4.0527

> <Gold.PLP.part.nonpolar>
-23.6608

> <Gold.PLP.part.repulsive>
0.5424

> <Gold.PLP.ligand.clash>
0.0000

> <Gold.PLP.ligand.torsion>
0.5522

> <Gold.PLP.Chemscore.Hbond>
2.0000

> <Gold.PLP.Chemscore.CHOScore>
1.9985

> <Gold.PLP.Chemscore.Metal>
0.0000

> <Gold.Chemscore.Hbonds>
donor molecule, donor type, donor heavy atom, donor atom, acceptor molecule, acceptor atom, score
      L1  H     8    28       P1  8028  0.90
      L1  H    11    29       P1  8028  0.90
      L1  C    14    30       P1  7948  1.00
      L1  C    14    30       P1  7957  0.02
      L1  C    15    31       P1 10175  0.82

> <Gold.PLP.Chemscore.Internal.Correction>
0.0119

> <Gold.Rescore>
     Score         DG    S(hbond)    S(metal)    S(lipo)     H(rot)  DE(clash)    DE(int)     intcor
     11.33     -17.44       1.83        0.00      78.84       1.32       0.10       6.00       ----

> <Gold.Chemscore.Fitness>
11.3338

> <Gold.Chemscore.DG>
-17.4374

> <Gold.Chemscore.ZeroCoef>
-5.4800

> <Gold.Chemscore.Hbond>
1.8327

> <Gold.Chemscore.Metal>
0.0000

> <Gold.Chemscore.Lipo>
78.8417

> <Gold.Chemscore.Internal_Hbond>
0.0000

> <Gold.Chemscore.DEClash>
0.0991

> <Gold.Chemscore.DEInternal>
6.0045

> <Gold.Chemscore.Rot>
1.3235

> <Gold.Chemscore.Internal.Correction>
   9.000000E+99

> <Gold.Chemscore.Hbonds>
donor molecule, donor type, donor heavy atom, donor atom, acceptor molecule, acceptor atom, score
      L1  H     8    28       P1  8028  0.87
      L1  H    11    29       P1  8028  0.88

> <Gold.Chemscore.Hbond.Weighted>
-6.1211

> <Gold.Chemscore.Metal.Weighted>
-0.0000

> <Gold.Chemscore.Lipo.Weighted>
-9.2245

> <Gold.Chemscore.Internal_Hbond.Weighted>
0.0000

> <Gold.Chemscore.DEClash.Weighted>
0.0991

> <Gold.Chemscore.DEInternal.Weighted>
6.0045

> <Gold.Chemscore.Rot.Weighted>
3.3882

> <Gold.Chemscore.Internal.Correction.Weighted>
   9.000000E+99

> <Gold.Protein.RotatedTorsions>
[ 6907 6896 6895 6894 ] final   50.94 input  -60.11 | X-H torsion
[ 7974 7965 7964 7962 ] final -153.97 input  175.53 | X-H torsion
[ 8008 7997 7996 7995 ] final  -24.11 input   59.86 | X-H torsion
[ 10167 10162 10161 10158 ] final -172.87 input  -65.29 | X-H torsion
[ 10718 10713 10712 10709 ] final  115.67 input   66.30 | X-H torsion
[ 10763 10752 10751 10750 ] final -124.39 input  -60.55 | X-H torsion
[ 11005 11000 10999 10996 ] final  159.42 input  -57.11 | X-H torsion

> <Gold.Protein.ActiveResidues>
 VAL166  LYS551  ARG553  GLY616  TRP617  ASP618  TYR619  PRO620  LYS621  CYS622 
 ASP623  PHE694  ASN695  SER759  ASP760  ASP761  ALA762  ILE779  LEU786  VAL792 
 PHE793  MET794  SER795  GLU796  ALA797  LYS798  CYS799  TRP800  GLU811  SER814 

> <Gold.Protein.RotatedAtoms>
  152.3073  134.7540  160.0344 H   0  0  0  0  0  0  0  0  0  0  0  0  # atno 6907 bound_to 6896
  151.8033  133.3367  159.3541 H   0  0  0  0  0  0  0  0  0  0  0  0  # atno 6908 bound_to 6896
  150.7302  134.5663  159.5912 H   0  0  0  0  0  0  0  0  0  0  0  0  # atno 6909 bound_to 6896
  144.7713  140.4453  143.5905 H   0  0  0  0  0  0  0  0  0  0  0  0  # atno 7974 bound_to 7965
  154.4547  140.1962  156.0413 H   0  0  0  0  0  0  0  0  0  0  0  0  # atno 8008 bound_to 7997
  156.0722  140.3283  155.7562 H   0  0  0  0  0  0  0  0  0  0  0  0  # atno 8009 bound_to 7997
  155.5245  140.0572  157.2891 H   0  0  0  0  0  0  0  0  0  0  0  0  # atno 8010 bound_to 7997
  139.5720  144.1619  152.1397 H   0  0  0  0  0  0  0  0  0  0  0  0  # atno 10167 bound_to 10162
  157.6207  131.1015  150.7364 H   0  0  0  0  0  0  0  0  0  0  0  0  # atno 10718 bound_to 10713
  154.8722  135.4065  154.3098 H   0  0  0  0  0  0  0  0  0  0  0  0  # atno 10763 bound_to 10752
  153.3944  135.7016  153.6477 H   0  0  0  0  0  0  0  0  0  0  0  0  # atno 10764 bound_to 10752
  153.5246  135.3680  155.2619 H   0  0  0  0  0  0  0  0  0  0  0  0  # atno 10765 bound_to 10752
  140.1960  134.8372  157.2965 H   0  0  0  0  0  0  0  0  0  0  0  0  # atno 11005 bound_to 11000
  145.6315  139.1537  143.2966 LP  0  0  0  0  0  0  0  0  0  0  0  0  # atno 17320 bound_to 7965
  146.1862  140.6418  142.9166 LP  0  0  0  0  0  0  0  0  0  0  0  0  # atno 17321 bound_to 7965
  140.1154  144.5420  150.6897 LP  0  0  0  0  0  0  0  0  0  0  0  0  # atno 17342 bound_to 10162
  140.7004  143.2431  151.4880 LP  0  0  0  0  0  0  0  0  0  0  0  0  # atno 17343 bound_to 10162
  156.7722  130.4832  149.5416 LP  0  0  0  0  0  0  0  0  0  0  0  0  # atno 17370 bound_to 10713
  156.1352  130.6206  151.0389 LP  0  0  0  0  0  0  0  0  0  0  0  0  # atno 17371 bound_to 10713
  140.2106  134.4143  155.7614 LP  0  0  0  0  0  0  0  0  0  0  0  0  # atno 17394 bound_to 11000
  141.2227  133.7116  156.8332 LP  0  0  0  0  0  0  0  0  0  0  0  0  # atno 17395 bound_to 11000

$$$$
