AV-unprocessed.smi:1978|AV-procd|sdf|7992|dock9
  -GOLD-   2272010173D 1   1.00000     0.00000
 Structure written by MMmdl.
 45 46  0  0  0  0  0  0  0  0  2 V2000
  150.9872  140.6016  155.7095 C   0  0  0  0  0  0  0  0  0  0  0  0
  150.9705  139.1453  155.3936 C   0  0  0  0  0  0  0  0  0  0  0  0
  150.0943  138.3524  154.7068 C   0  0  0  0  0  0  0  0  0  0  0  0
  150.6919  137.0669  154.7928 C   0  0  0  0  0  0  0  0  0  0  0  0
  150.0779  135.9363  154.1952 N   0  0  0  0  0  0  0  0  0  0  0  0
  150.1919  134.6507  154.5705 C   0  0  0  0  0  0  0  0  0  0  0  0
  150.8711  134.2448  155.5138 O   0  0  0  0  0  0  0  0  0  0  0  0
  149.4556  133.8463  153.7887 N   0  0  0  0  0  0  0  0  0  0  0  0
  149.3620  132.3932  153.9203 C   0  0  0  0  0  0  0  0  0  0  0  0
  147.8980  131.8650  153.8829 C   0  0  2  0  0  0  0  0  0  0  0  0
  147.8460  130.4114  154.4176 C   0  0  0  0  0  0  0  0  0  0  0  0
  147.2780  131.9598  152.5137 N   0  3  1  0  0  0  0  0  0  0  0  0
  146.0548  131.1167  152.3421 C   0  0  0  0  0  0  0  0  0  0  0  0
  145.6038  131.0534  150.8736 C   0  0  0  0  0  0  0  0  0  0  0  0
  145.3638  132.4511  150.3006 C   0  0  0  0  0  0  0  0  0  0  0  0
  146.6173  133.3085  150.5038 C   0  0  0  0  0  0  0  0  0  0  0  0
  147.0661  133.3479  151.9802 C   0  0  1  0  0  0  0  0  0  0  0  0
  146.1164  134.2030  152.8496 C   0  0  0  0  0  0  0  0  0  0  0  0
  151.8303  137.0745  155.4690 N   0  0  0  0  0  0  0  0  0  0  0  0
  152.0152  138.4067  155.8566 O   0  0  0  0  0  0  0  0  0  0  0  0
  150.0086  141.0489  155.5345 H   0  0  0  0  0  0  0  0  0  0  0  0
  151.7143  141.1225  155.0867 H   0  0  0  0  0  0  0  0  0  0  0  0
  151.2527  140.7692  156.7535 H   0  0  0  0  0  0  0  0  0  0  0  0
  149.1748  138.6482  154.2239 H   0  0  0  0  0  0  0  0  0  0  0  0
  149.4829  136.1294  153.4035 H   0  0  0  0  0  0  0  0  0  0  0  0
  148.9272  134.2690  153.0391 H   0  0  0  0  0  0  0  0  0  0  0  0
  149.9428  132.0079  153.0842 H   0  0  0  0  0  0  0  0  0  0  0  0
  149.8628  132.0459  154.8256 H   0  0  0  0  0  0  0  0  0  0  0  0
  147.3062  132.4859  154.5572 H   0  0  0  0  0  0  0  0  0  0  0  0
  148.3299  130.3122  155.3881 H   0  0  0  0  0  0  0  0  0  0  0  0
  148.3427  129.7221  153.7339 H   0  0  0  0  0  0  0  0  0  0  0  0
  146.8318  130.0535  154.5825 H   0  0  0  0  0  0  0  0  0  0  0  0
  146.2301  130.0896  152.6499 H   0  0  0  0  0  0  0  0  0  0  0  0
  145.2494  131.4912  152.9743 H   0  0  0  0  0  0  0  0  0  0  0  0
  146.3644  130.5421  150.2821 H   0  0  0  0  0  0  0  0  0  0  0  0
  144.6948  130.4570  150.7888 H   0  0  0  0  0  0  0  0  0  0  0  0
  145.1216  132.3851  149.2394 H   0  0  0  0  0  0  0  0  0  0  0  0
  144.5038  132.9129  150.7862 H   0  0  0  0  0  0  0  0  0  0  0  0
  147.4264  132.9031  149.8945 H   0  0  0  0  0  0  0  0  0  0  0  0
  146.4407  134.3192  150.1340 H   0  0  0  0  0  0  0  0  0  0  0  0
  148.0286  133.8560  151.9504 H   0  0  0  0  0  0  0  0  0  0  0  0
  146.0292  135.2107  152.4421 H   0  0  0  0  0  0  0  0  0  0  0  0
  146.4763  134.3065  153.8724 H   0  0  0  0  0  0  0  0  0  0  0  0
  145.1100  133.7890  152.8983 H   0  0  0  0  0  0  0  0  0  0  0  0
  147.9659  131.5539  151.8955 H   0  0  0  0  0  0  0  0  0  0  0  0
  1  2  1  0  0  0  0
  1 21  1  0  0  0  0
  1 22  1  0  0  0  0
  1 23  1  0  0  0  0
  2 20  1  0  0  0  0
  2  3  2  0  0  0  0
  3  4  1  0  0  0  0
  3 24  1  0  0  0  0
  4  5  1  0  0  0  0
  4 19  2  0  0  0  0
  5  6  1  0  0  0  0
  5 25  1  0  0  0  0
  6  7  2  0  0  0  0
  6  8  1  0  0  0  0
  8  9  1  0  0  0  0
  8 26  1  0  0  0  0
  9 10  1  0  0  0  0
  9 27  1  0  0  0  0
  9 28  1  0  0  0  0
 10 11  1  0  0  0  0
 10 12  1  0  0  0  0
 10 29  1  0  0  0  0
 11 30  1  0  0  0  0
 11 31  1  0  0  0  0
 11 32  1  0  0  0  0
 12 17  1  0  0  0  0
 12 13  1  0  0  0  0
 12 45  1  0  0  0  0
 13 14  1  0  0  0  0
 13 33  1  0  0  0  0
 13 34  1  0  0  0  0
 14 15  1  0  0  0  0
 14 35  1  0  0  0  0
 14 36  1  0  0  0  0
 15 16  1  0  0  0  0
 15 37  1  0  0  0  0
 15 38  1  0  0  0  0
 16 17  1  0  0  0  0
 16 39  1  0  0  0  0
 16 40  1  0  0  0  0
 17 18  1  0  0  0  0
 17 41  1  0  0  0  0
 18 42  1  0  0  0  0
 18 43  1  0  0  0  0
 18 44  1  0  0  0  0
 19 20  1  0  0  0  0
M  CHG  1  12   1
M  END
> <s_m_source_file>
AV-unprocessed.smi

> <i_m_source_file_index>
1978

> <i_lp_mmshare_version>
43012

> <i_f3d_flags>
0

> <s_epik_input>
W0NIM11jMVtjSF1jKG5vMSlbTkhdQyg9TylbTkhdW0NIMl1bQ0BIXShbQ0gzXSlOMltDSDJdW0NIMl1bQ0gyXVtDSDJdW0NASF0yW0NIM10=

> <s_epik_cmdline>
J2VwaWtfcHl0aG9uJywgJy1waCcsICc3LjAnLCAnLXRuJywgJzgnLCAnLW1hJywgJzIwMCcsICctbWV0YWxfYmluZGluZycsICctaW1hZScsICc8aW5maWxlLm1hZT4nLCAnLW9tYWUnLCAnPG91dGZpbGUubWFlPic=

> <r_epik_Ionization_Penalty>
0.00265971

> <r_epik_Ionization_Penalty_Charging>
0.00262393

> <r_epik_Ionization_Penalty_Neutral>
3.57846e-05

> <r_epik_State_Penalty>
0.00182566

> <r_epik_Charging_Adjusted_Penalty>
0.00444959

> <i_epik_Tot_Q>
1

> <i_epik_Tot_abs_Q>
1

> <r_epik_Metal_State_Penalty>
0.0216344

> <b_epik_Metal_Only>
0

> <s_lp_Force_Field>
OPLS_2005

> <r_lp_Energy>
24.7796

> <b_lp_Chiralities_Consistent>
1

> <s_lp_Variant>
AV-unprocessed.smi:1978-1

> <Gold.Version>
5.8.1

> <Gold.Id.Protein>
6NUR|6NUR_protein|mol2

> <Gold.PLP.Fitness>
41.8055

> <Gold.PLP.PLP>
-33.3949

> <Gold.PLP.part.hbond>
-4.8690

> <Gold.PLP.part.metal>
0.0000

> <Gold.PLP.part.buried>
-2.1331

> <Gold.PLP.part.nonpolar>
-26.4547

> <Gold.PLP.part.repulsive>
0.1892

> <Gold.PLP.ligand.clash>
0.0000

> <Gold.PLP.ligand.torsion>
0.5207

> <Gold.PLP.Chemscore.Hbond>
3.1197

> <Gold.PLP.Chemscore.CHOScore>
0.0000

> <Gold.PLP.Chemscore.Metal>
0.0000

> <Gold.Chemscore.Hbonds>
donor molecule, donor type, donor heavy atom, donor atom, acceptor molecule, acceptor atom, score
      L1  H     5    25       P1  7948  1.00
      L1  H     8    26       P1  7948  0.18
      L1  H    12    45       P1 10747  1.00
      P1  H 10752 10765       L1    19  1.00

> <Gold.PLP.Chemscore.Internal.Correction>
0.0929

> <Gold.Rescore>
     Score         DG    S(hbond)    S(metal)    S(lipo)     H(rot)  DE(clash)    DE(int)     intcor
     16.29     -18.21       2.25        0.00      78.51       1.55       0.14       1.78       ----

> <Gold.Chemscore.Fitness>
16.2907

> <Gold.Chemscore.DG>
-18.2050

> <Gold.Chemscore.ZeroCoef>
-5.4800

> <Gold.Chemscore.Hbond>
2.2458

> <Gold.Chemscore.Metal>
0.0000

> <Gold.Chemscore.Lipo>
78.5076

> <Gold.Chemscore.Internal_Hbond>
0.0000

> <Gold.Chemscore.DEClash>
0.1364

> <Gold.Chemscore.DEInternal>
1.7780

> <Gold.Chemscore.Rot>
1.5474

> <Gold.Chemscore.Internal.Correction>
   9.000000E+99

> <Gold.Chemscore.Hbonds>
donor molecule, donor type, donor heavy atom, donor atom, acceptor molecule, acceptor atom, score
      L1  H     5    25       P1  7948  0.49
      L1  H     8    26       P1  7948  0.01
      L1  H    12    45       P1 10747  0.93
      P1  H 10752 10765       L1    19  0.50

> <Gold.Chemscore.Hbond.Weighted>
-7.5009

> <Gold.Chemscore.Metal.Weighted>
-0.0000

> <Gold.Chemscore.Lipo.Weighted>
-9.1854

> <Gold.Chemscore.Internal_Hbond.Weighted>
0.0000

> <Gold.Chemscore.DEClash.Weighted>
0.1364

> <Gold.Chemscore.DEInternal.Weighted>
1.7780

> <Gold.Chemscore.Rot.Weighted>
3.9612

> <Gold.Chemscore.Internal.Correction.Weighted>
   9.000000E+99

> <Gold.Protein.RotatedTorsions>
[ 6907 6896 6895 6894 ] final  117.60 input  -60.11 | X-H torsion
[ 7974 7965 7964 7962 ] final -142.29 input  175.53 | X-H torsion
[ 8008 7997 7996 7995 ] final  -52.52 input   59.86 | X-H torsion
[ 10167 10162 10161 10158 ] final  -55.01 input  -65.29 | X-H torsion
[ 10718 10713 10712 10709 ] final  -62.44 input   66.30 | X-H torsion
[ 10763 10752 10751 10750 ] final -176.72 input  -60.55 | X-H torsion
[ 11005 11000 10999 10996 ] final -106.78 input  -57.11 | X-H torsion

> <Gold.Protein.ActiveResidues>
 VAL166  LYS551  ARG553  GLY616  TRP617  ASP618  TYR619  PRO620  LYS621  CYS622 
 ASP623  PHE694  ASN695  SER759  ASP760  ASP761  ALA762  ILE779  LEU786  VAL792 
 PHE793  MET794  SER795  GLU796  ALA797  LYS798  CYS799  TRP800  GLU811  SER814 

> <Gold.Protein.RotatedAtoms>
  152.4601  133.7804  159.6847 H   0  0  0  0  0  0  0  0  0  0  0  0  # atno 6907 bound_to 6896
  150.8541  133.7731  159.3021 H   0  0  0  0  0  0  0  0  0  0  0  0  # atno 6908 bound_to 6896
  151.5317  135.1071  159.9956 H   0  0  0  0  0  0  0  0  0  0  0  0  # atno 6909 bound_to 6896
  144.8455  140.5976  143.5424 H   0  0  0  0  0  0  0  0  0  0  0  0  # atno 7974 bound_to 7965
  154.4109  140.1222  156.5005 H   0  0  0  0  0  0  0  0  0  0  0  0  # atno 8008 bound_to 7997
  155.6900  140.3495  155.4870 H   0  0  0  0  0  0  0  0  0  0  0  0  # atno 8009 bound_to 7997
  155.9477  140.1099  157.0993 H   0  0  0  0  0  0  0  0  0  0  0  0  # atno 8010 bound_to 7997
  140.6398  143.2502  151.5019 H   0  0  0  0  0  0  0  0  0  0  0  0  # atno 10167 bound_to 10162
  156.0855  130.4209  150.1136 H   0  0  0  0  0  0  0  0  0  0  0  0  # atno 10718 bound_to 10713
  154.5689  135.2826  155.0846 H   0  0  0  0  0  0  0  0  0  0  0  0  # atno 10763 bound_to 10752
  154.2226  135.6388  153.5153 H   0  0  0  0  0  0  0  0  0  0  0  0  # atno 10764 bound_to 10752
  153.0051  135.5518  154.6307 H   0  0  0  0  0  0  0  0  0  0  0  0  # atno 10765 bound_to 10752
  141.0987  133.8923  157.1897 H   0  0  0  0  0  0  0  0  0  0  0  0  # atno 11005 bound_to 11000
  145.4607  139.1513  143.3868 LP  0  0  0  0  0  0  0  0  0  0  0  0  # atno 17320 bound_to 7965
  146.2740  140.4737  142.8803 LP  0  0  0  0  0  0  0  0  0  0  0  0  # atno 17321 bound_to 7965
  139.5608  144.2162  152.1687 LP  0  0  0  0  0  0  0  0  0  0  0  0  # atno 17342 bound_to 10162
  140.1429  144.5185  150.6733 LP  0  0  0  0  0  0  0  0  0  0  0  0  # atno 17343 bound_to 10162
  156.9158  130.9667  151.3556 LP  0  0  0  0  0  0  0  0  0  0  0  0  # atno 17370 bound_to 10713
  157.5987  130.8497  149.8769 LP  0  0  0  0  0  0  0  0  0  0  0  0  # atno 17371 bound_to 10713
  139.9832  135.0091  156.9799 LP  0  0  0  0  0  0  0  0  0  0  0  0  # atno 17394 bound_to 11000
  140.5075  134.1035  155.7263 LP  0  0  0  0  0  0  0  0  0  0  0  0  # atno 17395 bound_to 11000

$$$$
