AV-unprocessed.smi:442|AV-procd|sdf|2584|dock1
  -GOLD-   2262022573D 1   1.00000     0.00000
 Structure written by MMmdl.
 37 37  0  0  0  0  0  0  0  0  3 V2000
  145.8203  133.3869  162.2824 C   0  0  0  0  0  0  0  0  0  0  0  0
  147.1579  134.0044  161.8502 C   0  0  0  0  0  0  0  0  0  0  0  0
  147.0332  135.4235  161.2606 C   0  0  1  0  0  0  0  0  0  0  0  0
  146.7106  136.4584  162.3473 C   0  0  0  0  0  0  0  0  0  0  0  0
  148.2698  135.8167  160.5896 N   0  0  0  0  0  0  0  0  0  0  0  0
  148.4146  136.8191  159.7048 C   0  0  0  0  0  0  0  0  0  0  0  0
  147.4786  137.5279  159.3376 O   0  0  0  0  0  0  0  0  0  0  0  0
  149.8163  137.0783  159.1249 C   0  0  0  0  0  0  0  0  0  0  0  0
  149.9309  136.8890  157.6650 N   0  0  0  0  0  0  0  0  0  0  0  0
  149.8891  135.5615  157.2026 C   0  0  0  0  0  0  0  0  0  0  0  0
  149.9912  135.2526  155.8981 C   0  0  0  0  0  0  0  0  0  0  0  0
  149.9572  133.8772  155.4487 N   0  3  0  0  0  0  0  0  0  0  0  0
  149.9336  132.9829  156.2881 O   0  0  0  0  0  0  0  0  0  0  0  0
  149.9520  133.6443  154.2437 O   0  5  0  0  0  0  0  0  0  0  0  0
  150.1462  136.3409  154.9551 C   0  0  0  0  0  0  0  0  0  0  0  0
  150.1962  137.6298  155.3788 C   0  0  0  0  0  0  0  0  0  0  0  0
  150.3574  138.7723  154.4515 C   0  0  0  0  0  0  0  0  0  0  0  0
  149.9196  138.5395  153.2080 N   0  0  0  0  0  0  0  0  0  0  0  0
  150.8401  139.8741  154.7122 O   0  0  0  0  0  0  0  0  0  0  0  0
  150.0907  137.9603  156.8262 C   0  0  0  0  0  0  0  0  0  0  0  0
  150.1443  139.1007  157.2940 O   0  0  0  0  0  0  0  0  0  0  0  0
  145.9765  132.4126  162.7454 H   0  0  0  0  0  0  0  0  0  0  0  0
  145.1512  133.2427  161.4340 H   0  0  0  0  0  0  0  0  0  0  0  0
  145.3107  134.0214  163.0079 H   0  0  0  0  0  0  0  0  0  0  0  0
  147.8172  134.0367  162.7183 H   0  0  0  0  0  0  0  0  0  0  0  0
  147.6419  133.3453  161.1283 H   0  0  0  0  0  0  0  0  0  0  0  0
  146.2036  135.4296  160.5516 H   0  0  0  0  0  0  0  0  0  0  0  0
  145.7796  136.2136  162.8591 H   0  0  0  0  0  0  0  0  0  0  0  0
  146.5976  137.4547  161.9185 H   0  0  0  0  0  0  0  0  0  0  0  0
  147.5004  136.5067  163.0979 H   0  0  0  0  0  0  0  0  0  0  0  0
  149.0946  135.2861  160.8287 H   0  0  0  0  0  0  0  0  0  0  0  0
  150.1056  138.0951  159.3942 H   0  0  0  0  0  0  0  0  0  0  0  0
  150.5308  136.4430  159.6512 H   0  0  0  0  0  0  0  0  0  0  0  0
  149.7795  134.8202  157.9812 H   0  0  0  0  0  0  0  0  0  0  0  0
  150.2216  136.0945  153.9068 H   0  0  0  0  0  0  0  0  0  0  0  0
  149.9868  139.2587  152.5028 H   0  0  0  0  0  0  0  0  0  0  0  0
  149.5216  137.6398  152.9800 H   0  0  0  0  0  0  0  0  0  0  0  0
  1  2  1  0  0  0  0
  1 22  1  0  0  0  0
  1 23  1  0  0  0  0
  1 24  1  0  0  0  0
  2  3  1  0  0  0  0
  2 25  1  0  0  0  0
  2 26  1  0  0  0  0
  3  4  1  0  0  0  0
  3  5  1  0  0  0  0
  3 27  1  0  0  0  0
  4 28  1  0  0  0  0
  4 29  1  0  0  0  0
  4 30  1  0  0  0  0
  5  6  1  0  0  0  0
  5 31  1  0  0  0  0
  6  7  2  0  0  0  0
  6  8  1  0  0  0  0
  8  9  1  0  0  0  0
  8 32  1  0  0  0  0
  8 33  1  0  0  0  0
  9 20  1  0  0  0  0
  9 10  1  0  0  0  0
 10 11  2  0  0  0  0
 10 34  1  0  0  0  0
 11 12  1  0  0  0  0
 11 15  1  0  0  0  0
 12 13  2  0  0  0  0
 12 14  1  0  0  0  0
 15 16  2  0  0  0  0
 15 35  1  0  0  0  0
 16 17  1  0  0  0  0
 16 20  1  0  0  0  0
 17 18  1  0  0  0  0
 17 19  2  0  0  0  0
 18 36  1  0  0  0  0
 18 37  1  0  0  0  0
 20 21  2  0  0  0  0
M  CHG  1  12   1
M  CHG  1  14  -1
M  END
> <s_m_source_file>
AV-unprocessed.smi

> <i_m_source_file_index>
442

> <i_lp_mmshare_version>
43012

> <i_f3d_flags>
0

> <s_epik_input>
W0NIM11bQ0gyXVtDQEhdKFtDSDNdKVtOSF1DKD1PKVtDSDJdbjFbY0hdYyhbTitdKD1PKVtPLV0pW2NIXWMoYzE9TylDKD1PKVtOSDJd

> <s_epik_cmdline>
J2VwaWtfcHl0aG9uJywgJy1waCcsICc3LjAnLCAnLXRuJywgJzgnLCAnLW1hJywgJzIwMCcsICctbWV0YWxfYmluZGluZycsICctaW1hZScsICc8aW5maWxlLm1hZT4nLCAnLW9tYWUnLCAnPG91dGZpbGUubWFlPic=

> <r_lp_tautomer_probability>
1

> <r_epik_Ionization_Penalty>
2.86914e-06

> <r_epik_Ionization_Penalty_Charging>
2.2828e-12

> <r_epik_Ionization_Penalty_Neutral>
2.86914e-06

> <r_epik_State_Penalty>
-0

> <r_epik_Charging_Adjusted_Penalty>
2.2828e-12

> <i_epik_Tot_Q>
0

> <i_epik_Tot_abs_Q>
2

> <r_epik_Metal_State_Penalty>
-0

> <b_epik_Metal_Only>
0

> <s_lp_Force_Field>
OPLS_2005

> <r_lp_Energy>
22.4314

> <b_lp_Chiralities_Consistent>
1

> <s_lp_Variant>
AV-unprocessed.smi:442-2

> <Gold.Version>
5.8.1

> <Gold.Id.Protein>
6NUR|6NUR_protein|mol2

> <Gold.PLP.Fitness>
41.2582

> <Gold.PLP.PLP>
-31.5258

> <Gold.PLP.part.hbond>
-4.0000

> <Gold.PLP.part.metal>
0.0000

> <Gold.PLP.part.buried>
-5.2788

> <Gold.PLP.part.nonpolar>
-22.6429

> <Gold.PLP.part.repulsive>
0.4868

> <Gold.PLP.ligand.clash>
0.0000

> <Gold.PLP.ligand.torsion>
0.7103

> <Gold.PLP.Chemscore.Hbond>
3.6720

> <Gold.PLP.Chemscore.CHOScore>
0.0000

> <Gold.PLP.Chemscore.Metal>
0.0000

> <Gold.Chemscore.Hbonds>
donor molecule, donor type, donor heavy atom, donor atom, acceptor molecule, acceptor atom, score
      L1  H    18    36       P1  7957  1.00
      L1  H    18    37       P1  7948  1.00
      P1  H  6934  6947       L1     7  0.42
      P1  H  7989  7998       L1    19  1.00

> <Gold.PLP.Chemscore.Internal.Correction>
0.1369

> <Gold.Rescore>
     Score         DG    S(hbond)    S(metal)    S(lipo)     H(rot)  DE(clash)    DE(int)     intcor
     16.51     -18.50       3.60        0.00      53.10       2.03       0.00       1.98       ----

> <Gold.Chemscore.Fitness>
16.5129

> <Gold.Chemscore.DG>
-18.4962

> <Gold.Chemscore.ZeroCoef>
-5.4800

> <Gold.Chemscore.Hbond>
3.5958

> <Gold.Chemscore.Metal>
0.0000

> <Gold.Chemscore.Lipo>
53.1047

> <Gold.Chemscore.Internal_Hbond>
0.0000

> <Gold.Chemscore.DEClash>
0.0038

> <Gold.Chemscore.DEInternal>
1.9794

> <Gold.Chemscore.Rot>
2.0340

> <Gold.Chemscore.Internal.Correction>
   9.000000E+99

> <Gold.Chemscore.Hbonds>
donor molecule, donor type, donor heavy atom, donor atom, acceptor molecule, acceptor atom, score
      L1  H    18    36       P1  7957  0.76
      L1  H    18    37       P1  7948  0.81
      P1  H  6934  6947       L1     7  0.26
      P1  H  7989  7998       L1    19  0.99

> <Gold.Chemscore.Hbond.Weighted>
-12.0100

> <Gold.Chemscore.Metal.Weighted>
-0.0000

> <Gold.Chemscore.Lipo.Weighted>
-6.2132

> <Gold.Chemscore.Internal_Hbond.Weighted>
0.0000

> <Gold.Chemscore.DEClash.Weighted>
0.0038

> <Gold.Chemscore.DEInternal.Weighted>
1.9794

> <Gold.Chemscore.Rot.Weighted>
5.2071

> <Gold.Chemscore.Internal.Correction.Weighted>
   9.000000E+99

> <Gold.Protein.RotatedTorsions>
[ 6907 6896 6895 6894 ] final -106.38 input  -60.11 | X-H torsion
[ 7974 7965 7964 7962 ] final  -72.75 input  175.53 | X-H torsion
[ 8008 7997 7996 7995 ] final  -24.40 input   59.86 | X-H torsion
[ 10167 10162 10161 10158 ] final   -6.16 input  -65.29 | X-H torsion
[ 10718 10713 10712 10709 ] final -125.87 input   66.30 | X-H torsion
[ 10763 10752 10751 10750 ] final -163.46 input  -60.55 | X-H torsion
[ 11005 11000 10999 10996 ] final  -10.71 input  -57.11 | X-H torsion

> <Gold.Protein.ActiveResidues>
 VAL166  LYS551  ARG553  GLY616  TRP617  ASP618  TYR619  PRO620  LYS621  CYS622 
 ASP623  PHE694  ASN695  SER759  ASP760  ASP761  ALA762  ILE779  LEU786  VAL792 
 PHE793  MET794  SER795  GLU796  ALA797  LYS798  CYS799  TRP800  GLU811  SER814 

> <Gold.Protein.RotatedAtoms>
  150.7386  133.9985  159.3630 H   0  0  0  0  0  0  0  0  0  0  0  0  # atno 6907 bound_to 6896
  151.7937  135.0726  160.0400 H   0  0  0  0  0  0  0  0  0  0  0  0  # atno 6908 bound_to 6896
  152.3189  133.5796  159.5767 H   0  0  0  0  0  0  0  0  0  0  0  0  # atno 6909 bound_to 6896
  145.6611  140.9252  143.0933 H   0  0  0  0  0  0  0  0  0  0  0  0  # atno 7974 bound_to 7965
  154.4531  140.1954  156.0459 H   0  0  0  0  0  0  0  0  0  0  0  0  # atno 8008 bound_to 7997
  156.0690  140.3287  155.7525 H   0  0  0  0  0  0  0  0  0  0  0  0  # atno 8009 bound_to 7997
  155.5293  140.0576  157.2883 H   0  0  0  0  0  0  0  0  0  0  0  0  # atno 8010 bound_to 7997
  140.6987  143.6226  150.8598 H   0  0  0  0  0  0  0  0  0  0  0  0  # atno 10167 bound_to 10162
  156.1714  130.6670  151.0184 H   0  0  0  0  0  0  0  0  0  0  0  0  # atno 10718 bound_to 10713
  154.7120  135.3008  154.9182 H   0  0  0  0  0  0  0  0  0  0  0  0  # atno 10763 bound_to 10752
  154.0080  135.6698  153.4767 H   0  0  0  0  0  0  0  0  0  0  0  0  # atno 10764 bound_to 10752
  153.0763  135.5033  154.8324 H   0  0  0  0  0  0  0  0  0  0  0  0  # atno 10765 bound_to 10752
  140.7476  133.8619  155.9018 H   0  0  0  0  0  0  0  0  0  0  0  0  # atno 11005 bound_to 11000
  144.7089  139.8450  143.7421 LP  0  0  0  0  0  0  0  0  0  0  0  0  # atno 17320 bound_to 7965
  146.1124  139.4131  143.0279 LP  0  0  0  0  0  0  0  0  0  0  0  0  # atno 17321 bound_to 7965
  139.9946  143.5810  152.2898 LP  0  0  0  0  0  0  0  0  0  0  0  0  # atno 17342 bound_to 10162
  139.6477  144.7659  151.2210 LP  0  0  0  0  0  0  0  0  0  0  0  0  # atno 17343 bound_to 10162
  157.6805  131.0839  150.7382 LP  0  0  0  0  0  0  0  0  0  0  0  0  # atno 17370 bound_to 10713
  156.7441  130.4748  149.5471 LP  0  0  0  0  0  0  0  0  0  0  0  0  # atno 17371 bound_to 10713
  140.9780  134.1443  157.4519 LP  0  0  0  0  0  0  0  0  0  0  0  0  # atno 17394 bound_to 11000
  139.8794  135.0001  156.5992 LP  0  0  0  0  0  0  0  0  0  0  0  0  # atno 17395 bound_to 11000

$$$$
