AV-unprocessed.smi:1|AV-procd|sdf|9|dock1
  -GOLD-   2262015 93D 1   1.00000     0.00000
 Structure written by MMmdl.
 57 62  0  0  0  0  0  0  0  0  1 V2000
  152.9057  139.8779  157.1284 O   0  0  0  0  0  0  0  0  0  0  0  0
  152.0310  140.1879  157.9418 C   0  0  0  0  0  0  0  0  0  0  0  0
  150.9942  139.4128  158.4438 N   0  0  0  0  0  0  0  0  0  0  0  0
  150.8913  138.1632  158.1065 C   0  0  0  0  0  0  0  0  0  0  0  0
  151.6649  137.3384  157.2792 N   0  0  0  0  0  0  0  0  0  0  0  0
  151.4284  135.9794  157.0188 C   0  0  0  0  0  0  0  0  0  0  0  0
  150.4400  135.2842  157.5152 N   0  0  0  0  0  0  0  0  0  0  0  0
  149.6403  136.0587  158.3435 C   0  0  0  0  0  0  0  0  0  0  0  0
  149.7666  137.3901  158.6750 C   0  0  0  0  0  0  0  0  0  0  0  0
  148.7505  137.7821  159.5395 N   0  0  0  0  0  0  0  0  0  0  0  0
  148.0530  136.6601  159.6968 C   0  0  0  0  0  0  0  0  0  0  0  0
  148.5237  135.5885  159.0274 N   0  0  0  0  0  0  0  0  0  0  0  0
  147.9762  134.1916  159.0005 C   0  0  2  0  0  0  0  0  0  0  0  0
  148.7537  133.4223  158.1331 O   0  0  0  0  0  0  0  0  0  0  0  0
  148.1082  133.3227  156.8698 C   0  0  1  0  0  0  0  0  0  0  0  0
  148.6450  132.1175  156.0928 C   0  0  0  0  0  0  0  0  0  0  0  0
  147.8794  131.9611  154.9097 O   0  0  0  0  0  0  0  0  0  0  0  0
  148.1226  132.7400  153.8389 C   0  0  0  0  0  0  0  0  0  0  0  0
  148.9906  133.6151  153.8146 O   0  0  0  0  0  0  0  0  0  0  0  0
  147.2284  132.4337  152.6851 C   0  0  0  0  0  0  0  0  0  0  0  0
  147.0729  133.3912  151.6557 C   0  0  0  0  0  0  0  0  0  0  0  0
  146.2342  133.1309  150.5545 C   0  0  0  0  0  0  0  0  0  0  0  0
  145.5412  131.9093  150.4689 C   0  0  0  0  0  0  0  0  0  0  0  0
  145.6880  130.9482  151.4859 C   0  0  0  0  0  0  0  0  0  0  0  0
  146.5257  131.2070  152.5884 C   0  0  0  0  0  0  0  0  0  0  0  0
  146.6371  133.1972  157.2632 C   0  0  2  0  0  0  0  0  0  0  0  0
  145.7711  133.6416  156.2337 O   0  0  0  0  0  0  0  0  0  0  0  0
  145.4065  135.2516  156.4907 S   0  0  0  0  0  0  0  0  0  0  0  0
  146.1801  136.0592  155.5354 O   0  0  0  0  0  0  0  0  0  0  0  0
  143.9483  135.3760  156.6354 O   0  0  0  0  0  0  0  0  0  0  0  0
  146.0999  135.4265  157.9988 O   0  0  0  0  0  0  0  0  0  0  0  0
  146.5309  134.1542  158.4603 C   0  0  2  0  0  0  0  0  0  0  0  0
  152.0595  141.5695  158.5088 C   0  0  0  0  0  0  0  0  0  0  0  0
  152.7204  141.8182  159.7304 C   0  0  0  0  0  0  0  0  0  0  0  0
  152.7360  143.1178  160.2733 C   0  0  0  0  0  0  0  0  0  0  0  0
  152.0896  144.1714  159.5981 C   0  0  0  0  0  0  0  0  0  0  0  0
  151.4273  143.9255  158.3796 C   0  0  0  0  0  0  0  0  0  0  0  0
  151.4106  142.6262  157.8354 C   0  0  0  0  0  0  0  0  0  0  0  0
  152.1565  135.5239  156.3458 H   0  0  0  0  0  0  0  0  0  0  0  0
  147.1732  136.6232  160.3216 H   0  0  0  0  0  0  0  0  0  0  0  0
  148.0771  133.8367  160.0267 H   0  0  0  0  0  0  0  0  0  0  0  0
  148.2644  134.2433  156.3052 H   0  0  0  0  0  0  0  0  0  0  0  0
  149.7022  132.2519  155.8598 H   0  0  0  0  0  0  0  0  0  0  0  0
  148.5505  131.2134  156.6958 H   0  0  0  0  0  0  0  0  0  0  0  0
  147.5947  134.3363  151.6997 H   0  0  0  0  0  0  0  0  0  0  0  0
  146.1228  133.8701  149.7750 H   0  0  0  0  0  0  0  0  0  0  0  0
  144.8983  131.7092  149.6244 H   0  0  0  0  0  0  0  0  0  0  0  0
  145.1567  130.0101  151.4211 H   0  0  0  0  0  0  0  0  0  0  0  0
  146.6156  130.4475  153.3515 H   0  0  0  0  0  0  0  0  0  0  0  0
  146.3984  132.1769  157.5662 H   0  0  0  0  0  0  0  0  0  0  0  0
  145.8468  133.7843  159.2246 H   0  0  0  0  0  0  0  0  0  0  0  0
  153.2155  141.0141  160.2555 H   0  0  0  0  0  0  0  0  0  0  0  0
  153.2419  143.3058  161.2086 H   0  0  0  0  0  0  0  0  0  0  0  0
  152.1007  145.1673  160.0158 H   0  0  0  0  0  0  0  0  0  0  0  0
  150.9299  144.7332  157.8632 H   0  0  0  0  0  0  0  0  0  0  0  0
  150.8973  142.4446  156.9021 H   0  0  0  0  0  0  0  0  0  0  0  0
  152.4663  137.7605  156.8327 H   0  0  0  0  0  0  0  0  0  0  0  0
  1  2  2  0  0  0  0
  2  3  1  0  0  0  0
  2 33  1  0  0  0  0
  3  4  2  0  0  0  0
  4  9  1  0  0  0  0
  4  5  1  0  0  0  0
  5  6  1  0  0  0  0
  5 57  1  0  0  0  0
  6  7  2  0  0  0  0
  6 39  1  0  0  0  0
  7  8  1  0  0  0  0
  8 12  1  0  0  0  0
  8  9  2  0  0  0  0
  9 10  1  0  0  0  0
 10 11  2  0  0  0  0
 11 12  1  0  0  0  0
 11 40  1  0  0  0  0
 12 13  1  0  0  0  0
 13 32  1  0  0  0  0
 13 14  1  0  0  0  0
 13 41  1  0  0  0  0
 14 15  1  0  0  0  0
 15 16  1  0  0  0  0
 15 26  1  0  0  0  0
 15 42  1  0  0  0  0
 16 17  1  0  0  0  0
 16 43  1  0  0  0  0
 16 44  1  0  0  0  0
 17 18  1  0  0  0  0
 18 19  2  0  0  0  0
 18 20  1  0  0  0  0
 20 25  1  0  0  0  0
 20 21  2  0  0  0  0
 21 22  1  0  0  0  0
 21 45  1  0  0  0  0
 22 23  2  0  0  0  0
 22 46  1  0  0  0  0
 23 24  1  0  0  0  0
 23 47  1  0  0  0  0
 24 25  2  0  0  0  0
 24 48  1  0  0  0  0
 25 49  1  0  0  0  0
 26 32  1  0  0  0  0
 26 27  1  0  0  0  0
 26 50  1  0  0  0  0
 27 28  1  0  0  0  0
 28 29  2  0  0  0  0
 28 30  2  0  0  0  0
 28 31  1  0  0  0  0
 31 32  1  0  0  0  0
 32 51  1  0  0  0  0
 33 38  1  0  0  0  0
 33 34  2  0  0  0  0
 34 35  1  0  0  0  0
 34 52  1  0  0  0  0
 35 36  2  0  0  0  0
 35 53  1  0  0  0  0
 36 37  1  0  0  0  0
 36 54  1  0  0  0  0
 37 38  2  0  0  0  0
 37 55  1  0  0  0  0
 38 56  1  0  0  0  0
M  END
> <s_m_source_file>
AV-unprocessed.smi

> <i_m_source_file_index>
1

> <i_lp_mmshare_version>
43012

> <i_f3d_flags>
0

> <s_epik_input>
W2NIXTFbY0hdW2NIXVtjSF1bY0hdYzFDKD1PKVtOSF1jKG5bY0hdbjIpYyhjMjMpbltjSF1uM1tDQEBIXShbQ0BIXShbQ0BIXTQ1KU9TKE81KSg9Tyk9TylPW0NASF00W0NIMl1PQyg9TyljNltjSF1bY0hdW2NIXVtjSF1bY0hdNg==

> <s_epik_cmdline>
J2VwaWtfcHl0aG9uJywgJy1waCcsICc3LjAnLCAnLXRuJywgJzgnLCAnLW1hJywgJzIwMCcsICctbWV0YWxfYmluZGluZycsICctaW1hZScsICc8aW5maWxlLm1hZT4nLCAnLW9tYWUnLCAnPG91dGZpbGUubWFlPic=

> <r_epik_Ionization_Penalty>
0.122545

> <r_epik_Ionization_Penalty_Charging>
0.122545

> <r_epik_Ionization_Penalty_Neutral>
7.8935e-16

> <r_epik_State_Penalty>
2.69178

> <r_epik_Charging_Adjusted_Penalty>
2.81433

> <i_epik_Tot_Q>
0

> <i_epik_Tot_abs_Q>
0

> <r_epik_Metal_State_Penalty>
3.02665

> <b_epik_Metal_Only>
0

> <s_epik_Chemistry_Notes>
This compound has an ester and may undergo hydrolysis at high or low pH. This compound contains an acetal/aminal-like group ( X-CH(R)-Y where X, Y are N, S, or O) that may be acid/base labile, releasing an aldehyde.

> <s_lp_Force_Field>
OPLS_2005

> <r_lp_Energy>
57.7872

> <b_lp_Chiralities_Consistent>
1

> <s_lp_Variant>
AV-unprocessed.smi:1-9

> <Gold.Version>
5.8.1

> <Gold.Id.Protein>
6NUR|6NUR_protein|mol2

> <Gold.PLP.Fitness>
49.8524

> <Gold.PLP.PLP>
-49.4374

> <Gold.PLP.part.hbond>
-4.0000

> <Gold.PLP.part.metal>
0.0000

> <Gold.PLP.part.buried>
-5.9666

> <Gold.PLP.part.nonpolar>
-40.9415

> <Gold.PLP.part.repulsive>
0.3722

> <Gold.PLP.ligand.clash>
0.0000

> <Gold.PLP.ligand.torsion>
1.7565

> <Gold.PLP.Chemscore.Hbond>
1.2119

> <Gold.PLP.Chemscore.CHOScore>
0.0000

> <Gold.PLP.Chemscore.Metal>
0.0000

> <Gold.Chemscore.Hbonds>
donor molecule, donor type, donor heavy atom, donor atom, acceptor molecule, acceptor atom, score
      P1  H  6896  6907       L1    14  0.07
      P1  H  6931  6943       L1    10  0.01
      P1  H  6934  6947       L1    10  0.01
      P1  H  7997  8009       L1     1  1.00

> <Gold.PLP.Chemscore.Internal.Correction>
0.2923

> <Gold.Rescore>
     Score         DG    S(hbond)    S(metal)    S(lipo)     H(rot)  DE(clash)    DE(int)     intcor
     11.84     -17.55       1.00        0.00     121.28       2.13       0.00       5.71       ----

> <Gold.Chemscore.Fitness>
11.8359

> <Gold.Chemscore.DG>
-17.5452

> <Gold.Chemscore.ZeroCoef>
-5.4800

> <Gold.Chemscore.Hbond>
0.9990

> <Gold.Chemscore.Metal>
0.0000

> <Gold.Chemscore.Lipo>
121.2796

> <Gold.Chemscore.Internal_Hbond>
0.0000

> <Gold.Chemscore.DEClash>
0.0038

> <Gold.Chemscore.DEInternal>
5.7055

> <Gold.Chemscore.Rot>
2.1333

> <Gold.Chemscore.Internal.Correction>
   9.000000E+99

> <Gold.Chemscore.Hbonds>
donor molecule, donor type, donor heavy atom, donor atom, acceptor molecule, acceptor atom, score
      P1  H  7997  8009       L1     1  0.96

> <Gold.Chemscore.Hbond.Weighted>
-3.3368

> <Gold.Chemscore.Metal.Weighted>
-0.0000

> <Gold.Chemscore.Lipo.Weighted>
-14.1897

> <Gold.Chemscore.Internal_Hbond.Weighted>
0.0000

> <Gold.Chemscore.DEClash.Weighted>
0.0038

> <Gold.Chemscore.DEInternal.Weighted>
5.7055

> <Gold.Chemscore.Rot.Weighted>
5.4614

> <Gold.Chemscore.Internal.Correction.Weighted>
   9.000000E+99

> <Gold.Protein.RotatedTorsions>
[ 6907 6896 6895 6894 ] final  -97.38 input  -60.11 | X-H torsion
[ 7974 7965 7964 7962 ] final -133.42 input  175.53 | X-H torsion
[ 8008 7997 7996 7995 ] final  173.19 input   59.86 | X-H torsion
[ 10167 10162 10161 10158 ] final -127.94 input  -65.29 | X-H torsion
[ 10718 10713 10712 10709 ] final  -61.43 input   66.30 | X-H torsion
[ 10763 10752 10751 10750 ] final   17.09 input  -60.55 | X-H torsion
[ 11005 11000 10999 10996 ] final -133.65 input  -57.11 | X-H torsion

> <Gold.Protein.ActiveResidues>
 VAL166  LYS551  ARG553  GLY616  TRP617  ASP618  TYR619  PRO620  LYS621  CYS622 
 ASP623  PHE694  ASN695  SER759  ASP760  ASP761  ALA762  ILE779  LEU786  VAL792 
 PHE793  MET794  SER795  GLU796  ALA797  LYS798  CYS799  TRP800  GLU811  SER814 

> <Gold.Protein.RotatedAtoms>
  150.7015  134.1357  159.4085 H   0  0  0  0  0  0  0  0  0  0  0  0  # atno 6907 bound_to 6896
  151.9342  135.0240  160.0540 H   0  0  0  0  0  0  0  0  0  0  0  0  # atno 6908 bound_to 6896
  152.2149  133.4904  159.5167 H   0  0  0  0  0  0  0  0  0  0  0  0  # atno 6909 bound_to 6896
  144.9195  140.6996  143.4974 H   0  0  0  0  0  0  0  0  0  0  0  0  # atno 7974 bound_to 7965
  156.1100  140.1466  156.9351 H   0  0  0  0  0  0  0  0  0  0  0  0  # atno 8008 bound_to 7997
  154.4760  140.0894  156.7307 H   0  0  0  0  0  0  0  0  0  0  0  0  # atno 8009 bound_to 7997
  155.4613  140.3438  155.4315 H   0  0  0  0  0  0  0  0  0  0  0  0  # atno 8010 bound_to 7997
  139.9556  143.6007  152.2462 H   0  0  0  0  0  0  0  0  0  0  0  0  # atno 10167 bound_to 10162
  156.0922  130.4198  150.0993 H   0  0  0  0  0  0  0  0  0  0  0  0  # atno 10718 bound_to 10713
  153.1370  135.6752  153.9086 H   0  0  0  0  0  0  0  0  0  0  0  0  # atno 10763 bound_to 10752
  153.8555  135.3088  155.3436 H   0  0  0  0  0  0  0  0  0  0  0  0  # atno 10764 bound_to 10752
  154.7756  135.4916  153.9821 H   0  0  0  0  0  0  0  0  0  0  0  0  # atno 10765 bound_to 10752
  140.9061  134.1628  157.4424 H   0  0  0  0  0  0  0  0  0  0  0  0  # atno 11005 bound_to 11000
  145.3320  139.1757  143.4531 LP  0  0  0  0  0  0  0  0  0  0  0  0  # atno 17320 bound_to 7965
  146.3198  140.3351  142.8643 LP  0  0  0  0  0  0  0  0  0  0  0  0  # atno 17321 bound_to 7965
  139.6594  144.7662  151.1992 LP  0  0  0  0  0  0  0  0  0  0  0  0  # atno 17342 bound_to 10162
  140.7569  143.6034  150.8677 LP  0  0  0  0  0  0  0  0  0  0  0  0  # atno 17343 bound_to 10162
  156.9001  130.9617  151.3577 LP  0  0  0  0  0  0  0  0  0  0  0  0  # atno 17370 bound_to 10713
  157.6074  130.8557  149.8897 LP  0  0  0  0  0  0  0  0  0  0  0  0  # atno 17371 bound_to 10713
  139.8750  134.9917  156.5563 LP  0  0  0  0  0  0  0  0  0  0  0  0  # atno 17394 bound_to 11000
  140.8169  133.8384  155.8860 LP  0  0  0  0  0  0  0  0  0  0  0  0  # atno 17395 bound_to 11000

$$$$
