AV-unprocessed.smi:24|AV-procd|sdf|175|dock2
  -GOLD-   2262015433D 1   1.00000     0.00000
 Structure written by MMmdl.
 61 65  0  0  0  0  0  0  0  0  1 V2000
  147.1345  131.2903  159.0837 C   0  0  0  0  0  0  0  0  0  0  0  0
  147.4977  132.1229  157.9921 O   0  0  0  0  0  0  0  0  0  0  0  0
  147.6921  133.4652  158.2376 C   0  0  0  0  0  0  0  0  0  0  0  0
  148.0341  134.2759  157.1362 C   0  0  0  0  0  0  0  0  0  0  0  0
  148.2524  135.6570  157.2972 C   0  0  0  0  0  0  0  0  0  0  0  0
  148.1362  136.2526  158.5722 C   0  0  0  0  0  0  0  0  0  0  0  0
  148.3645  137.7501  158.7705 C   0  0  2  0  0  0  0  0  0  0  0  0
  147.4362  138.5932  157.8922 C   0  0  0  0  0  0  0  0  0  0  0  0
  148.4152  139.3989  157.1056 C   0  0  0  0  0  0  0  0  0  0  0  0
  147.9762  140.3669  156.0757 C   0  0  0  0  0  0  0  0  0  0  0  0
  147.0538  141.3800  156.4235 C   0  0  0  0  0  0  0  0  0  0  0  0
  146.6401  142.3060  155.4459 C   0  0  0  0  0  0  0  0  0  0  0  0
  147.1427  142.2204  154.1323 C   0  0  0  0  0  0  0  0  0  0  0  0
  148.0608  141.2076  153.7901 C   0  0  0  0  0  0  0  0  0  0  0  0
  148.4821  140.2757  154.7590 C   0  0  0  0  0  0  0  0  0  0  0  0
  149.6391  139.1643  157.4065 N   0  0  0  0  0  0  0  0  0  0  0  0
  149.6998  138.2227  158.3815 N   0  0  0  0  0  0  0  0  0  0  0  0
  150.8524  137.8426  158.9769 C   0  0  0  0  0  0  0  0  0  0  0  0
  150.8638  137.0783  159.9438 O   0  0  0  0  0  0  0  0  0  0  0  0
  152.1819  138.3988  158.4240 C   0  0  0  0  0  0  0  0  0  0  0  0
  152.6194  139.6456  159.0902 N   0  0  0  0  0  0  0  0  0  0  0  0
  153.4691  139.5453  160.2201 C   0  0  0  0  0  0  0  0  0  0  0  0
  153.8500  138.4503  160.6373 O   0  0  0  0  0  0  0  0  0  0  0  0
  153.8423  140.8104  160.8421 C   0  0  0  0  0  0  0  0  0  0  0  0
  154.6480  140.8113  161.9177 F   0  0  0  0  0  0  0  0  0  0  0  0
  153.3901  141.9845  160.3557 C   0  0  0  0  0  0  0  0  0  0  0  0
  152.5577  142.0675  159.2537 N   0  0  0  0  0  0  0  0  0  0  0  0
  152.0528  143.3938  158.7262 C   0  0  2  0  0  0  0  0  0  0  0  0
  153.0565  144.5186  159.0402 C   0  0  0  0  0  0  0  0  0  0  0  0
  152.1784  145.5815  159.6698 C   0  0  0  0  0  0  0  0  0  0  0  0
  151.0909  144.7424  160.3234 C   0  0  0  0  0  0  0  0  0  0  0  0
  150.8485  143.7293  159.3558 O   0  0  0  0  0  0  0  0  0  0  0  0
  152.1473  140.8859  158.5986 C   0  0  0  0  0  0  0  0  0  0  0  0
  151.3932  140.9384  157.6244 O   0  0  0  0  0  0  0  0  0  0  0  0
  147.7859  135.4496  159.6762 C   0  0  0  0  0  0  0  0  0  0  0  0
  147.5675  134.0677  159.5146 C   0  0  0  0  0  0  0  0  0  0  0  0
  147.0210  130.2648  158.7325 H   0  0  0  0  0  0  0  0  0  0  0  0
  146.1826  131.5965  159.5195 H   0  0  0  0  0  0  0  0  0  0  0  0
  147.9032  131.2905  159.8576 H   0  0  0  0  0  0  0  0  0  0  0  0
  148.1307  133.8340  156.1552 H   0  0  0  0  0  0  0  0  0  0  0  0
  148.5093  136.2556  156.4355 H   0  0  0  0  0  0  0  0  0  0  0  0
  148.2034  138.0032  159.8203 H   0  0  0  0  0  0  0  0  0  0  0  0
  146.8171  137.9804  157.2352 H   0  0  0  0  0  0  0  0  0  0  0  0
  146.7865  139.2313  158.4922 H   0  0  0  0  0  0  0  0  0  0  0  0
  146.6575  141.4627  157.4253 H   0  0  0  0  0  0  0  0  0  0  0  0
  145.9367  143.0839  155.7045 H   0  0  0  0  0  0  0  0  0  0  0  0
  146.8234  142.9325  153.3854 H   0  0  0  0  0  0  0  0  0  0  0  0
  148.4430  141.1456  152.7818 H   0  0  0  0  0  0  0  0  0  0  0  0
  149.1866  139.5094  154.4714 H   0  0  0  0  0  0  0  0  0  0  0  0
  152.9573  137.6365  158.5185 H   0  0  0  0  0  0  0  0  0  0  0  0
  152.0754  138.5393  157.3474 H   0  0  0  0  0  0  0  0  0  0  0  0
  153.7006  142.8838  160.8647 H   0  0  0  0  0  0  0  0  0  0  0  0
  151.8698  143.2415  157.6608 H   0  0  0  0  0  0  0  0  0  0  0  0
  153.8028  144.1698  159.7561 H   0  0  0  0  0  0  0  0  0  0  0  0
  153.5629  144.8568  158.1357 H   0  0  0  0  0  0  0  0  0  0  0  0
  152.7132  146.2147  160.3781 H   0  0  0  0  0  0  0  0  0  0  0  0
  151.7456  146.2181  158.8971 H   0  0  0  0  0  0  0  0  0  0  0  0
  151.4499  144.2981  161.2526 H   0  0  0  0  0  0  0  0  0  0  0  0
  150.1884  145.3140  160.5406 H   0  0  0  0  0  0  0  0  0  0  0  0
  147.6858  135.8913  160.6569 H   0  0  0  0  0  0  0  0  0  0  0  0
  147.3048  133.4911  160.3881 H   0  0  0  0  0  0  0  0  0  0  0  0
  1  2  1  0  0  0  0
  1 37  1  0  0  0  0
  1 38  1  0  0  0  0
  1 39  1  0  0  0  0
  2  3  1  0  0  0  0
  3 36  1  0  0  0  0
  3  4  2  0  0  0  0
  4  5  1  0  0  0  0
  4 40  1  0  0  0  0
  5  6  2  0  0  0  0
  5 41  1  0  0  0  0
  6  7  1  0  0  0  0
  6 35  1  0  0  0  0
  7 17  1  0  0  0  0
  7  8  1  0  0  0  0
  7 42  1  0  0  0  0
  8  9  1  0  0  0  0
  8 43  1  0  0  0  0
  8 44  1  0  0  0  0
  9 10  1  0  0  0  0
  9 16  2  0  0  0  0
 10 15  1  0  0  0  0
 10 11  2  0  0  0  0
 11 12  1  0  0  0  0
 11 45  1  0  0  0  0
 12 13  2  0  0  0  0
 12 46  1  0  0  0  0
 13 14  1  0  0  0  0
 13 47  1  0  0  0  0
 14 15  2  0  0  0  0
 14 48  1  0  0  0  0
 15 49  1  0  0  0  0
 16 17  1  0  0  0  0
 17 18  1  0  0  0  0
 18 19  2  0  0  0  0
 18 20  1  0  0  0  0
 20 21  1  0  0  0  0
 20 50  1  0  0  0  0
 20 51  1  0  0  0  0
 21 33  1  0  0  0  0
 21 22  1  0  0  0  0
 22 23  2  0  0  0  0
 22 24  1  0  0  0  0
 24 25  1  0  0  0  0
 24 26  2  0  0  0  0
 26 27  1  0  0  0  0
 26 52  1  0  0  0  0
 27 28  1  0  0  0  0
 27 33  1  0  0  0  0
 28 32  1  0  0  0  0
 28 29  1  0  0  0  0
 28 53  1  0  0  0  0
 29 30  1  0  0  0  0
 29 54  1  0  0  0  0
 29 55  1  0  0  0  0
 30 31  1  0  0  0  0
 30 56  1  0  0  0  0
 30 57  1  0  0  0  0
 31 32  1  0  0  0  0
 31 58  1  0  0  0  0
 31 59  1  0  0  0  0
 33 34  2  0  0  0  0
 35 36  2  0  0  0  0
 35 60  1  0  0  0  0
 36 61  1  0  0  0  0
M  END
> <s_m_source_file>
AV-unprocessed.smi

> <i_m_source_file_index>
24

> <i_lp_mmshare_version>
43012

> <i_f3d_flags>
0

> <s_epik_input>
W0NIM11PYzFbY0hdW2NIXWMoW2NIXVtjSF0xKVtDQEBIXTJbQ0gyXUMoYzNbY0hdW2NIXVtjSF1bY0hdW2NIXTMpPU5OMkMoPU8pW0NIMl1uNGMoPU8pYyhGKVtjSF1uKGM0PU8pW0NAQEhdNVtDSDJdW0NIMl1bQ0gyXU81

> <s_epik_cmdline>
J2VwaWtfcHl0aG9uJywgJy1waCcsICc3LjAnLCAnLXRuJywgJzgnLCAnLW1hJywgJzIwMCcsICctbWV0YWxfYmluZGluZycsICctaW1hZScsICc8aW5maWxlLm1hZT4nLCAnLW9tYWUnLCAnPG91dGZpbGUubWFlPic=

> <r_lp_tautomer_probability>
1

> <r_epik_Ionization_Penalty>
1.46326e-08

> <r_epik_Ionization_Penalty_Charging>
4.53232e-09

> <r_epik_Ionization_Penalty_Neutral>
1.01002e-08

> <r_epik_State_Penalty>
-0

> <r_epik_Charging_Adjusted_Penalty>
4.53232e-09

> <i_epik_Tot_Q>
0

> <i_epik_Tot_abs_Q>
0

> <r_epik_Metal_State_Penalty>
-0

> <b_epik_Metal_Only>
0

> <s_epik_Chemistry_Notes>
This compound has an imine and may undergo hydrolysis. This compound contains an acetal/aminal-like group ( X-CH(R)-Y where X, Y are N, S, or O) that may be acid/base labile, releasing an aldehyde.

> <s_lp_Force_Field>
OPLS_2005

> <r_lp_Energy>
50.6154

> <b_lp_Chiralities_Consistent>
1

> <s_lp_Variant>
AV-unprocessed.smi:24-1

> <Gold.Version>
5.8.1

> <Gold.Id.Protein>
6NUR|6NUR_protein|mol2

> <Gold.PLP.Fitness>
52.3587

> <Gold.PLP.PLP>
-54.1332

> <Gold.PLP.part.hbond>
-1.0315

> <Gold.PLP.part.metal>
0.0000

> <Gold.PLP.part.buried>
-6.5675

> <Gold.PLP.part.nonpolar>
-46.4569

> <Gold.PLP.part.repulsive>
0.1124

> <Gold.PLP.ligand.clash>
0.0000

> <Gold.PLP.ligand.torsion>
2.4976

> <Gold.PLP.Chemscore.Hbond>
1.0000

> <Gold.PLP.Chemscore.CHOScore>
0.0000

> <Gold.PLP.Chemscore.Metal>
0.0000

> <Gold.Chemscore.Hbonds>
donor molecule, donor type, donor heavy atom, donor atom, acceptor molecule, acceptor atom, score
      P1  H  6896  6908       L1    19  1.00

> <Gold.PLP.Chemscore.Internal.Correction>
0.2207

> <Gold.Rescore>
     Score         DG    S(hbond)    S(metal)    S(lipo)     H(rot)  DE(clash)    DE(int)     intcor
     12.41     -16.43       1.00        0.00     108.28       1.98       0.00       4.01       ----

> <Gold.Chemscore.Fitness>
12.4084

> <Gold.Chemscore.DG>
-16.4259

> <Gold.Chemscore.ZeroCoef>
-5.4800

> <Gold.Chemscore.Hbond>
0.9981

> <Gold.Chemscore.Metal>
0.0000

> <Gold.Chemscore.Lipo>
108.2751

> <Gold.Chemscore.Internal_Hbond>
0.0000

> <Gold.Chemscore.DEClash>
0.0029

> <Gold.Chemscore.DEInternal>
4.0146

> <Gold.Chemscore.Rot>
1.9750

> <Gold.Chemscore.Internal.Correction>
   9.000000E+99

> <Gold.Chemscore.Hbonds>
donor molecule, donor type, donor heavy atom, donor atom, acceptor molecule, acceptor atom, score
      P1  H  6896  6908       L1    19  0.97

> <Gold.Chemscore.Hbond.Weighted>
-3.3337

> <Gold.Chemscore.Metal.Weighted>
-0.0000

> <Gold.Chemscore.Lipo.Weighted>
-12.6682

> <Gold.Chemscore.Internal_Hbond.Weighted>
0.0000

> <Gold.Chemscore.DEClash.Weighted>
0.0029

> <Gold.Chemscore.DEInternal.Weighted>
4.0146

> <Gold.Chemscore.Rot.Weighted>
5.0561

> <Gold.Chemscore.Internal.Correction.Weighted>
   9.000000E+99

> <Gold.Protein.RotatedTorsions>
[ 6907 6896 6895 6894 ] final -142.86 input  -60.11 | X-H torsion
[ 7974 7965 7964 7962 ] final  -23.70 input  175.53 | X-H torsion
[ 8008 7997 7996 7995 ] final -102.22 input   59.86 | X-H torsion
[ 10167 10162 10161 10158 ] final   31.28 input  -65.29 | X-H torsion
[ 10718 10713 10712 10709 ] final  -96.43 input   66.30 | X-H torsion
[ 10763 10752 10751 10750 ] final  -29.29 input  -60.55 | X-H torsion
[ 11005 11000 10999 10996 ] final  173.86 input  -57.11 | X-H torsion

> <Gold.Protein.ActiveResidues>
 VAL166  LYS551  ARG553  GLY616  TRP617  ASP618  TYR619  PRO620  LYS621  CYS622 
 ASP623  PHE694  ASN695  SER759  ASP760  ASP761  ALA762  ILE779  LEU786  VAL792 
 PHE793  MET794  SER795  GLU796  ALA797  LYS798  CYS799  TRP800  GLU811  SER814 

> <Gold.Protein.RotatedAtoms>
  151.0927  133.5304  159.2613 H   0  0  0  0  0  0  0  0  0  0  0  0  # atno 6907 bound_to 6896
  151.2165  135.0501  159.8942 H   0  0  0  0  0  0  0  0  0  0  0  0  # atno 6908 bound_to 6896
  152.5435  134.0735  159.8258 H   0  0  0  0  0  0  0  0  0  0  0  0  # atno 6909 bound_to 6896
  146.1600  140.4652  142.8575 H   0  0  0  0  0  0  0  0  0  0  0  0  # atno 7974 bound_to 7965
  154.8535  140.0430  157.1620 H   0  0  0  0  0  0  0  0  0  0  0  0  # atno 8008 bound_to 7997
  154.8916  140.2987  155.5347 H   0  0  0  0  0  0  0  0  0  0  0  0  # atno 8009 bound_to 7997
  156.2997  140.2392  156.3933 H   0  0  0  0  0  0  0  0  0  0  0  0  # atno 8010 bound_to 7997
  140.4603  144.0917  150.6211 H   0  0  0  0  0  0  0  0  0  0  0  0  # atno 10167 bound_to 10162
  156.0062  130.5151  150.6224 H   0  0  0  0  0  0  0  0  0  0  0  0  # atno 10718 bound_to 10713
  153.7622  135.6918  153.4923 H   0  0  0  0  0  0  0  0  0  0  0  0  # atno 10763 bound_to 10752
  153.1931  135.4464  155.0173 H   0  0  0  0  0  0  0  0  0  0  0  0  # atno 10764 bound_to 10752
  154.8149  135.3394  154.7136 H   0  0  0  0  0  0  0  0  0  0  0  0  # atno 10765 bound_to 10752
  140.3451  134.7243  157.4229 H   0  0  0  0  0  0  0  0  0  0  0  0  # atno 11005 bound_to 11000
  144.8014  140.6220  143.6476 LP  0  0  0  0  0  0  0  0  0  0  0  0  # atno 17320 bound_to 7965
  145.4613  139.1512  143.3865 LP  0  0  0  0  0  0  0  0  0  0  0  0  # atno 17321 bound_to 7965
  140.4102  143.2661  151.9842 LP  0  0  0  0  0  0  0  0  0  0  0  0  # atno 17342 bound_to 10162
  139.4805  144.5922  151.7752 LP  0  0  0  0  0  0  0  0  0  0  0  0  # atno 17343 bound_to 10162
  157.4037  131.0813  151.1285 LP  0  0  0  0  0  0  0  0  0  0  0  0  # atno 17370 bound_to 10713
  157.1938  130.6364  149.5714 LP  0  0  0  0  0  0  0  0  0  0  0  0  # atno 17371 bound_to 10713
  140.0749  134.5811  155.8602 LP  0  0  0  0  0  0  0  0  0  0  0  0  # atno 17394 bound_to 11000
  141.2028  133.6627  156.6026 LP  0  0  0  0  0  0  0  0  0  0  0  0  # atno 17395 bound_to 11000

$$$$
