AV-unprocessed.smi:1085|AV-procd|sdf|4723|dock2
  -GOLD-   22720 3253D 1   1.00000     0.00000
 Structure written by MMmdl.
 33 34  0  0  0  0  0  0  0  0  1 V2000
  151.6664  139.4490  154.3874 O   0  0  0  0  0  0  0  0  0  0  0  0
  151.9588  139.4893  155.5818 C   0  0  0  0  0  0  0  0  0  0  0  0
  152.8319  138.3924  156.1906 C   0  0  0  0  0  0  0  0  0  0  0  0
  152.0146  137.3493  156.7807 N   0  0  0  0  0  0  0  0  0  0  0  0
  151.2650  137.3415  157.8854 C   0  0  0  0  0  0  0  0  0  0  0  0
  150.6818  136.1679  158.0725 N   0  0  0  0  0  0  0  0  0  0  0  0
  151.1213  135.4225  156.9911 N   0  0  0  0  0  0  0  0  0  0  0  0
  151.9126  136.1180  156.2214 N   0  0  0  0  0  0  0  0  0  0  0  0
  151.5600  140.4617  156.4170 N   0  0  0  0  0  0  0  0  0  0  0  0
  150.7632  141.6352  156.0613 C   0  0  1  0  0  0  0  0  0  0  0  0
  149.2874  141.4242  156.4489 C   0  0  0  0  0  0  0  0  0  0  0  0
  149.0817  141.4362  157.9727 C   0  0  0  0  0  0  0  0  0  0  0  0
  149.6449  142.7203  158.6014 C   0  0  0  0  0  0  0  0  0  0  0  0
  151.1383  142.9144  158.2627 C   0  0  2  0  0  0  0  0  0  0  0  0
  151.7169  144.1906  158.9078 C   0  0  0  0  0  0  0  0  0  0  0  0
  152.9168  144.4769  158.4015 F   0  0  0  0  0  0  0  0  0  0  0  0
  150.9005  145.2221  158.6917 F   0  0  0  0  0  0  0  0  0  0  0  0
  151.8332  144.0225  160.2252 F   0  0  0  0  0  0  0  0  0  0  0  0
  151.3426  142.8980  156.7301 C   0  0  0  0  0  0  0  0  0  0  0  0
  153.4705  137.9496  155.4249 H   0  0  0  0  0  0  0  0  0  0  0  0
  153.4878  138.8149  156.9534 H   0  0  0  0  0  0  0  0  0  0  0  0
  151.1527  138.1864  158.5487 H   0  0  0  0  0  0  0  0  0  0  0  0
  151.8487  140.3946  157.3822 H   0  0  0  0  0  0  0  0  0  0  0  0
  150.8020  141.7866  154.9814 H   0  0  0  0  0  0  0  0  0  0  0  0
  148.6853  142.2181  156.0044 H   0  0  0  0  0  0  0  0  0  0  0  0
  148.9152  140.4900  156.0269 H   0  0  0  0  0  0  0  0  0  0  0  0
  148.0196  141.3462  158.2025 H   0  0  0  0  0  0  0  0  0  0  0  0
  149.5659  140.5668  158.4189 H   0  0  0  0  0  0  0  0  0  0  0  0
  149.0710  143.5780  158.2484 H   0  0  0  0  0  0  0  0  0  0  0  0
  149.5066  142.6822  159.6821 H   0  0  0  0  0  0  0  0  0  0  0  0
  151.6843  142.0685  158.6832 H   0  0  0  0  0  0  0  0  0  0  0  0
  152.4030  142.9849  156.4900 H   0  0  0  0  0  0  0  0  0  0  0  0
  150.8640  143.7766  156.2957 H   0  0  0  0  0  0  0  0  0  0  0  0
  1  2  2  0  0  0  0
  2  3  1  0  0  0  0
  2  9  1  0  0  0  0
  3  4  1  0  0  0  0
  3 20  1  0  0  0  0
  3 21  1  0  0  0  0
  4  8  1  0  0  0  0
  4  5  1  0  0  0  0
  5  6  2  0  0  0  0
  5 22  1  0  0  0  0
  6  7  1  0  0  0  0
  7  8  2  0  0  0  0
  9 10  1  0  0  0  0
  9 23  1  0  0  0  0
 10 19  1  0  0  0  0
 10 11  1  0  0  0  0
 10 24  1  0  0  0  0
 11 12  1  0  0  0  0
 11 25  1  0  0  0  0
 11 26  1  0  0  0  0
 12 13  1  0  0  0  0
 12 27  1  0  0  0  0
 12 28  1  0  0  0  0
 13 14  1  0  0  0  0
 13 29  1  0  0  0  0
 13 30  1  0  0  0  0
 14 15  1  0  0  0  0
 14 19  1  0  0  0  0
 14 31  1  0  0  0  0
 15 16  1  0  0  0  0
 15 17  1  0  0  0  0
 15 18  1  0  0  0  0
 19 32  1  0  0  0  0
 19 33  1  0  0  0  0
M  END
> <s_m_source_file>
AV-unprocessed.smi

> <i_m_source_file_index>
1085

> <i_lp_mmshare_version>
43012

> <i_f3d_flags>
0

> <s_epik_input>
bjFubltjSF1uMVtDSDJdQyg9TylbTkhdW0NAQEhdMltDSDJdW0NIMl1bQ0gyXVtDQEBIXShDKEYpKEYpRilbQ0gyXTI=

> <s_epik_cmdline>
J2VwaWtfcHl0aG9uJywgJy1waCcsICc3LjAnLCAnLXRuJywgJzgnLCAnLW1hJywgJzIwMCcsICctbWV0YWxfYmluZGluZycsICctaW1hZScsICc8aW5maWxlLm1hZT4nLCAnLW9tYWUnLCAnPG91dGZpbGUubWFlPic=

> <r_lp_tautomer_probability>
1

> <r_epik_Ionization_Penalty>
8.41315e-07

> <r_epik_Ionization_Penalty_Charging>
0

> <r_epik_Ionization_Penalty_Neutral>
8.41315e-07

> <r_epik_State_Penalty>
-0

> <r_epik_Charging_Adjusted_Penalty>
0

> <i_epik_Tot_Q>
0

> <i_epik_Tot_abs_Q>
0

> <r_epik_Metal_State_Penalty>
-0

> <b_epik_Metal_Only>
0

> <s_lp_Force_Field>
OPLS_2005

> <r_lp_Energy>
12.3827

> <b_lp_Chiralities_Consistent>
1

> <s_lp_Variant>
AV-unprocessed.smi:1085-4

> <Gold.Version>
5.8.1

> <Gold.Id.Protein>
6NUR|6NUR_protein|mol2

> <Gold.PLP.Fitness>
40.7642

> <Gold.PLP.PLP>
-34.3768

> <Gold.PLP.part.hbond>
-3.6018

> <Gold.PLP.part.metal>
0.0000

> <Gold.PLP.part.buried>
-4.6865

> <Gold.PLP.part.nonpolar>
-26.1362

> <Gold.PLP.part.repulsive>
0.2485

> <Gold.PLP.ligand.clash>
0.0000

> <Gold.PLP.ligand.torsion>
1.0186

> <Gold.PLP.Chemscore.Hbond>
2.8000

> <Gold.PLP.Chemscore.CHOScore>
0.0000

> <Gold.PLP.Chemscore.Metal>
0.0000

> <Gold.Chemscore.Hbonds>
donor molecule, donor type, donor heavy atom, donor atom, acceptor molecule, acceptor atom, score
      P1  H  6896  6907       L1     6  0.63
      P1  H  7989  7998       L1     1  1.00
      P1  H 10752 10764       L1     8  1.00

> <Gold.PLP.Chemscore.Internal.Correction>
0.0247

> <Gold.Rescore>
     Score         DG    S(hbond)    S(metal)    S(lipo)     H(rot)  DE(clash)    DE(int)     intcor
     13.17     -14.86       2.40        0.00      56.40       2.05       0.77       0.92       ----

> <Gold.Chemscore.Fitness>
13.1694

> <Gold.Chemscore.DG>
-14.8559

> <Gold.Chemscore.ZeroCoef>
-5.4800

> <Gold.Chemscore.Hbond>
2.3994

> <Gold.Chemscore.Metal>
0.0000

> <Gold.Chemscore.Lipo>
56.3977

> <Gold.Chemscore.Internal_Hbond>
0.0000

> <Gold.Chemscore.DEClash>
0.7682

> <Gold.Chemscore.DEInternal>
0.9183

> <Gold.Chemscore.Rot>
2.0456

> <Gold.Chemscore.Internal.Correction>
   9.000000E+99

> <Gold.Chemscore.Hbonds>
donor molecule, donor type, donor heavy atom, donor atom, acceptor molecule, acceptor atom, score
      P1  H  6896  6907       L1     6  0.27
      P1  H  7989  7998       L1     1  0.95
      P1  H 10752 10764       L1     8  0.99

> <Gold.Chemscore.Hbond.Weighted>
-8.0141

> <Gold.Chemscore.Metal.Weighted>
-0.0000

> <Gold.Chemscore.Lipo.Weighted>
-6.5985

> <Gold.Chemscore.Internal_Hbond.Weighted>
0.0000

> <Gold.Chemscore.DEClash.Weighted>
0.7682

> <Gold.Chemscore.DEInternal.Weighted>
0.9183

> <Gold.Chemscore.Rot.Weighted>
5.2368

> <Gold.Chemscore.Internal.Correction.Weighted>
   9.000000E+99

> <Gold.Protein.RotatedTorsions>
[ 6907 6896 6895 6894 ] final  -48.36 input  -60.11 | X-H torsion
[ 7974 7965 7964 7962 ] final -173.44 input  175.53 | X-H torsion
[ 8008 7997 7996 7995 ] final -137.02 input   59.86 | X-H torsion
[ 10167 10162 10161 10158 ] final  174.35 input  -65.29 | X-H torsion
[ 10718 10713 10712 10709 ] final  113.07 input   66.30 | X-H torsion
[ 10763 10752 10751 10750 ] final  -44.30 input  -60.55 | X-H torsion
[ 11005 11000 10999 10996 ] final  -52.88 input  -57.11 | X-H torsion

> <Gold.Protein.ActiveResidues>
 VAL166  LYS551  ARG553  GLY616  TRP617  ASP618  TYR619  PRO620  LYS621  CYS622 
 ASP623  PHE694  ASN695  SER759  ASP760  ASP761  ALA762  ILE779  LEU786  VAL792 
 PHE793  MET794  SER795  GLU796  ALA797  LYS798  CYS799  TRP800  GLU811  SER814 

> <Gold.Protein.RotatedAtoms>
  150.8914  134.8318  159.7295 H   0  0  0  0  0  0  0  0  0  0  0  0  # atno 6907 bound_to 6896
  152.4839  134.4643  159.9625 H   0  0  0  0  0  0  0  0  0  0  0  0  # atno 6908 bound_to 6896
  151.4705  133.3531  159.2858 H   0  0  0  0  0  0  0  0  0  0  0  0  # atno 6909 bound_to 6896
  144.7138  140.1622  143.6375 H   0  0  0  0  0  0  0  0  0  0  0  0  # atno 7974 bound_to 7965
  155.4049  140.0508  157.3035 H   0  0  0  0  0  0  0  0  0  0  0  0  # atno 8008 bound_to 7997
  154.4973  140.2143  155.9380 H   0  0  0  0  0  0  0  0  0  0  0  0  # atno 8009 bound_to 7997
  156.1422  140.3152  155.8519 H   0  0  0  0  0  0  0  0  0  0  0  0  # atno 8010 bound_to 7997
  139.5139  144.3157  152.0250 H   0  0  0  0  0  0  0  0  0  0  0  0  # atno 10167 bound_to 10162
  157.6358  131.0978  150.6987 H   0  0  0  0  0  0  0  0  0  0  0  0  # atno 10718 bound_to 10713
  154.0098  135.6683  153.4764 H   0  0  0  0  0  0  0  0  0  0  0  0  # atno 10763 bound_to 10752
  153.0626  135.5019  154.8124 H   0  0  0  0  0  0  0  0  0  0  0  0  # atno 10764 bound_to 10752
  154.7002  135.3077  154.9315 H   0  0  0  0  0  0  0  0  0  0  0  0  # atno 10765 bound_to 10752
  141.0947  133.6626  156.4089 H   0  0  0  0  0  0  0  0  0  0  0  0  # atno 11005 bound_to 11000
  145.9020  139.2436  143.1488 LP  0  0  0  0  0  0  0  0  0  0  0  0  # atno 17320 bound_to 7965
  145.9801  140.8690  143.0119 LP  0  0  0  0  0  0  0  0  0  0  0  0  # atno 17321 bound_to 7965
  140.2600  144.4077  150.6189 LP  0  0  0  0  0  0  0  0  0  0  0  0  # atno 17342 bound_to 10162
  140.6164  143.2172  151.6783 LP  0  0  0  0  0  0  0  0  0  0  0  0  # atno 17343 bound_to 10162
  156.7319  130.4712  149.5497 LP  0  0  0  0  0  0  0  0  0  0  0  0  # atno 17370 bound_to 10713
  156.1597  130.6365  151.0702 LP  0  0  0  0  0  0  0  0  0  0  0  0  # atno 17371 bound_to 10713
  140.5168  134.6342  157.5304 LP  0  0  0  0  0  0  0  0  0  0  0  0  # atno 17394 bound_to 11000
  139.9781  134.7182  155.9911 LP  0  0  0  0  0  0  0  0  0  0  0  0  # atno 17395 bound_to 11000

$$$$
