AV-unprocessed.smi:3349|AV-procd|sdf|12932|dock3
  -GOLD-   2272019363D 1   1.00000     0.00000
 Structure written by MMmdl.
 40 41  0  0  0  0  0  0  0  0  1 V2000
  150.4312  140.9108  156.1509 C   0  0  0  0  0  0  0  0  0  0  0  0
  150.6588  140.9757  157.6828 C   0  0  1  0  0  0  0  0  0  0  0  0
  150.8757  139.5298  158.2168 C   0  0  0  0  0  0  0  0  0  0  0  0
  149.6479  138.7401  158.2583 N   0  0  0  0  0  0  0  0  0  0  0  0
  149.5313  137.5275  158.8234 C   0  0  0  0  0  0  0  0  0  0  0  0
  150.4721  136.9513  159.3715 O   0  0  0  0  0  0  0  0  0  0  0  0
  148.1389  136.8780  158.7622 C   0  0  2  0  0  0  0  0  0  0  0  0
  147.0829  137.7845  158.0971 C   0  0  0  0  0  0  0  0  0  0  0  0
  147.7236  136.4391  160.0890 N   0  0  0  0  0  0  0  0  0  0  0  0
  147.5222  135.2072  160.5617 C   0  0  0  0  0  0  0  0  0  0  0  0
  147.1859  135.1699  161.8433 N   0  0  0  0  0  0  0  0  0  0  0  0
  147.2089  136.5068  162.1238 C   0  0  0  0  0  0  0  0  0  0  0  0
  147.5328  137.3103  161.1111 N   0  0  0  0  0  0  0  0  0  0  0  0
  151.7423  141.9127  158.0615 N   0  0  0  0  0  0  0  0  0  0  0  0
  151.4476  143.2958  157.6685 C   0  0  0  0  0  0  0  0  0  0  0  0
  152.5484  144.2858  158.0860 C   0  0  0  0  0  0  0  0  0  0  0  0
  152.7489  144.2126  159.4905 O   0  0  0  0  0  0  0  0  0  0  0  0
  153.1172  142.9055  159.9073 C   0  0  0  0  0  0  0  0  0  0  0  0
  152.0222  141.9030  159.5025 C   0  0  0  0  0  0  0  0  0  0  0  0
  149.6726  140.1801  155.8727 H   0  0  0  0  0  0  0  0  0  0  0  0
  151.3498  140.6443  155.6272 H   0  0  0  0  0  0  0  0  0  0  0  0
  150.0742  141.8567  155.7461 H   0  0  0  0  0  0  0  0  0  0  0  0
  149.7327  141.3455  158.1253 H   0  0  0  0  0  0  0  0  0  0  0  0
  151.5957  139.0058  157.5876 H   0  0  0  0  0  0  0  0  0  0  0  0
  151.2863  139.5204  159.2253 H   0  0  0  0  0  0  0  0  0  0  0  0
  148.8298  139.1468  157.8287 H   0  0  0  0  0  0  0  0  0  0  0  0
  148.2307  135.9838  158.1433 H   0  0  0  0  0  0  0  0  0  0  0  0
  147.3810  138.0584  157.0846 H   0  0  0  0  0  0  0  0  0  0  0  0
  146.9248  138.7077  158.6561 H   0  0  0  0  0  0  0  0  0  0  0  0
  146.1222  137.2737  158.0269 H   0  0  0  0  0  0  0  0  0  0  0  0
  147.6267  134.3186  159.9565 H   0  0  0  0  0  0  0  0  0  0  0  0
  146.9850  136.8993  163.1048 H   0  0  0  0  0  0  0  0  0  0  0  0
  151.3439  143.3737  156.5878 H   0  0  0  0  0  0  0  0  0  0  0  0
  150.4968  143.6089  158.1026 H   0  0  0  0  0  0  0  0  0  0  0  0
  153.4819  144.0696  157.5641 H   0  0  0  0  0  0  0  0  0  0  0  0
  152.2619  145.3035  157.8206 H   0  0  0  0  0  0  0  0  0  0  0  0
  154.0759  142.6302  159.4645 H   0  0  0  0  0  0  0  0  0  0  0  0
  153.2521  142.9023  160.9890 H   0  0  0  0  0  0  0  0  0  0  0  0
  151.1088  142.1198  160.0587 H   0  0  0  0  0  0  0  0  0  0  0  0
  152.3640  140.9214  159.8229 H   0  0  0  0  0  0  0  0  0  0  0  0
  1  2  1  0  0  0  0
  1 20  1  0  0  0  0
  1 21  1  0  0  0  0
  1 22  1  0  0  0  0
  2  3  1  0  0  0  0
  2 14  1  0  0  0  0
  2 23  1  0  0  0  0
  3  4  1  0  0  0  0
  3 24  1  0  0  0  0
  3 25  1  0  0  0  0
  4  5  1  0  0  0  0
  4 26  1  0  0  0  0
  5  6  2  0  0  0  0
  5  7  1  0  0  0  0
  7  8  1  0  0  0  0
  7  9  1  0  0  0  0
  7 27  1  0  0  0  0
  8 28  1  0  0  0  0
  8 29  1  0  0  0  0
  8 30  1  0  0  0  0
  9 13  1  0  0  0  0
  9 10  1  0  0  0  0
 10 11  2  0  0  0  0
 10 31  1  0  0  0  0
 11 12  1  0  0  0  0
 12 13  2  0  0  0  0
 12 32  1  0  0  0  0
 14 19  1  0  0  0  0
 14 15  1  0  0  0  0
 15 16  1  0  0  0  0
 15 33  1  0  0  0  0
 15 34  1  0  0  0  0
 16 17  1  0  0  0  0
 16 35  1  0  0  0  0
 16 36  1  0  0  0  0
 17 18  1  0  0  0  0
 18 19  1  0  0  0  0
 18 37  1  0  0  0  0
 18 38  1  0  0  0  0
 19 39  1  0  0  0  0
 19 40  1  0  0  0  0
M  END
> <s_m_source_file>
AV-unprocessed.smi

> <i_m_source_file_index>
3349

> <i_lp_mmshare_version>
43012

> <i_f3d_flags>
0

> <s_epik_input>
W0NIMl0xW0NIMl1PW0NIMl1bQ0gyXU4xW0NASF0oW0NIM10pW0NIMl1bTkhdQyg9TylbQ0BIXShbQ0gzXSluMltjSF1uW2NIXW4y

> <s_epik_cmdline>
J2VwaWtfcHl0aG9uJywgJy1waCcsICc3LjAnLCAnLXRuJywgJzgnLCAnLW1hJywgJzIwMCcsICctbWV0YWxfYmluZGluZycsICctaW1hZScsICc8aW5maWxlLm1hZT4nLCAnLW9tYWUnLCAnPG91dGZpbGUubWFlPic=

> <r_lp_tautomer_probability>
1

> <r_epik_Ionization_Penalty>
0.211373

> <r_epik_Ionization_Penalty_Charging>
0

> <r_epik_Ionization_Penalty_Neutral>
0.211373

> <r_epik_State_Penalty>
0.201459

> <r_epik_Charging_Adjusted_Penalty>
0.201459

> <i_epik_Tot_Q>
0

> <i_epik_Tot_abs_Q>
0

> <r_epik_Metal_State_Penalty>
0.201458

> <b_epik_Metal_Only>
0

> <s_lp_Force_Field>
OPLS_2005

> <r_lp_Energy>
34.2526

> <b_lp_Chiralities_Consistent>
1

> <s_lp_Variant>
AV-unprocessed.smi:3349-2

> <Gold.Version>
5.8.1

> <Gold.Id.Protein>
6NUR|6NUR_protein|mol2

> <Gold.PLP.Fitness>
43.7087

> <Gold.PLP.PLP>
-36.1147

> <Gold.PLP.part.hbond>
-3.0000

> <Gold.PLP.part.metal>
0.0000

> <Gold.PLP.part.buried>
-6.3280

> <Gold.PLP.part.nonpolar>
-27.6454

> <Gold.PLP.part.repulsive>
0.1770

> <Gold.PLP.ligand.clash>
0.2934

> <Gold.PLP.ligand.torsion>
0.3168

> <Gold.PLP.Chemscore.Hbond>
2.7920

> <Gold.PLP.Chemscore.CHOScore>
0.0000

> <Gold.PLP.Chemscore.Metal>
0.0000

> <Gold.Chemscore.Hbonds>
donor molecule, donor type, donor heavy atom, donor atom, acceptor molecule, acceptor atom, score
      P1  H  6896  6907       L1     6  0.99
      P1  H  6931  6943       L1    13  0.83
      P1  H  6934  6947       L1    13  0.94

> <Gold.PLP.Chemscore.Internal.Correction>
0.1450

> <Gold.Rescore>
     Score         DG    S(hbond)    S(metal)    S(lipo)     H(rot)  DE(clash)    DE(int)     intcor
     14.24     -14.61       2.41        0.00      65.24       2.56       0.01       0.35       ----

> <Gold.Chemscore.Fitness>
14.2412

> <Gold.Chemscore.DG>
-14.6073

> <Gold.Chemscore.ZeroCoef>
-5.4800

> <Gold.Chemscore.Hbond>
2.4073

> <Gold.Chemscore.Metal>
0.0000

> <Gold.Chemscore.Lipo>
65.2389

> <Gold.Chemscore.Internal_Hbond>
0.0000

> <Gold.Chemscore.DEClash>
0.0119

> <Gold.Chemscore.DEInternal>
0.3542

> <Gold.Chemscore.Rot>
2.5570

> <Gold.Chemscore.Internal.Correction>
   9.000000E+99

> <Gold.Chemscore.Hbonds>
donor molecule, donor type, donor heavy atom, donor atom, acceptor molecule, acceptor atom, score
      P1  H  6896  6907       L1     6  0.92
      P1  H  6931  6943       L1    13  0.20
      P1  H  6934  6947       L1    13  0.91

> <Gold.Chemscore.Hbond.Weighted>
-8.0402

> <Gold.Chemscore.Metal.Weighted>
-0.0000

> <Gold.Chemscore.Lipo.Weighted>
-7.6330

> <Gold.Chemscore.Internal_Hbond.Weighted>
0.0000

> <Gold.Chemscore.DEClash.Weighted>
0.0119

> <Gold.Chemscore.DEInternal.Weighted>
0.3542

> <Gold.Chemscore.Rot.Weighted>
6.5459

> <Gold.Chemscore.Internal.Correction.Weighted>
   9.000000E+99

> <Gold.Protein.RotatedTorsions>
[ 6907 6896 6895 6894 ] final  -27.26 input  -60.11 | X-H torsion
[ 7974 7965 7964 7962 ] final  156.57 input  175.53 | X-H torsion
[ 8008 7997 7996 7995 ] final -105.41 input   59.86 | X-H torsion
[ 10167 10162 10161 10158 ] final -126.26 input  -65.29 | X-H torsion
[ 10718 10713 10712 10709 ] final -165.59 input   66.30 | X-H torsion
[ 10763 10752 10751 10750 ] final -134.95 input  -60.55 | X-H torsion
[ 11005 11000 10999 10996 ] final  -17.92 input  -57.11 | X-H torsion

> <Gold.Protein.ActiveResidues>
 VAL166  LYS551  ARG553  GLY616  TRP617  ASP618  TYR619  PRO620  LYS621  CYS622 
 ASP623  PHE694  ASN695  SER759  ASP760  ASP761  ALA762  ILE779  LEU786  VAL792 
 PHE793  MET794  SER795  GLU796  ALA797  LYS798  CYS799  TRP800  GLU811  SER814 

> <Gold.Protein.RotatedAtoms>
  151.1493  135.0219  159.8660 H   0  0  0  0  0  0  0  0  0  0  0  0  # atno 6907 bound_to 6896
  152.5453  134.1407  159.8488 H   0  0  0  0  0  0  0  0  0  0  0  0  # atno 6908 bound_to 6896
  151.1490  133.4874  159.2628 H   0  0  0  0  0  0  0  0  0  0  0  0  # atno 6909 bound_to 6896
  144.7955  139.7222  143.6203 H   0  0  0  0  0  0  0  0  0  0  0  0  # atno 7974 bound_to 7965
  154.8994  140.0413  157.1884 H   0  0  0  0  0  0  0  0  0  0  0  0  # atno 8008 bound_to 7997
  154.8459  140.2921  155.5608 H   0  0  0  0  0  0  0  0  0  0  0  0  # atno 8009 bound_to 7997
  156.2994  140.2474  156.3409 H   0  0  0  0  0  0  0  0  0  0  0  0  # atno 8010 bound_to 7997
  139.9733  143.5821  152.2405 H   0  0  0  0  0  0  0  0  0  0  0  0  # atno 10167 bound_to 10162
  156.6556  130.9025  151.3020 H   0  0  0  0  0  0  0  0  0  0  0  0  # atno 10718 bound_to 10713
  154.8711  135.3718  154.4818 H   0  0  0  0  0  0  0  0  0  0  0  0  # atno 10763 bound_to 10752
  153.5471  135.7025  153.5614 H   0  0  0  0  0  0  0  0  0  0  0  0  # atno 10764 bound_to 10752
  153.3749  135.4011  155.1779 H   0  0  0  0  0  0  0  0  0  0  0  0  # atno 10765 bound_to 10752
  140.8216  133.8064  155.9665 H   0  0  0  0  0  0  0  0  0  0  0  0  # atno 11005 bound_to 11000
  146.2222  139.5656  142.9611 LP  0  0  0  0  0  0  0  0  0  0  0  0  # atno 17320 bound_to 7965
  145.5684  141.0397  143.2187 LP  0  0  0  0  0  0  0  0  0  0  0  0  # atno 17321 bound_to 7965
  139.6464  144.7658  151.2235 LP  0  0  0  0  0  0  0  0  0  0  0  0  # atno 17342 bound_to 10162
  140.7514  143.6232  150.8493 LP  0  0  0  0  0  0  0  0  0  0  0  0  # atno 17343 bound_to 10162
  157.7126  130.9459  150.1143 LP  0  0  0  0  0  0  0  0  0  0  0  0  # atno 17370 bound_to 10713
  156.2050  130.3663  149.8740 LP  0  0  0  0  0  0  0  0  0  0  0  0  # atno 17371 bound_to 10713
  140.9093  134.2281  157.4995 LP  0  0  0  0  0  0  0  0  0  0  0  0  # atno 17394 bound_to 11000
  139.8708  134.9743  156.4840 LP  0  0  0  0  0  0  0  0  0  0  0  0  # atno 17395 bound_to 11000

$$$$
