AV-unprocessed.smi:1513|AV-procd|sdf|6111|dock2
  -GOLD-   22720 6243D 1   1.00000     0.00000
 Structure written by MMmdl.
 33 34  0  0  0  0  0  0  0  0  2 V2000
  153.7185  136.1892  159.6583 N   0  5  0  0  0  0  0  0  0  0  0  0
  154.2500  136.6976  158.2237 S   0  0  0  0  0  0  0  0  0  0  0  0
  155.7031  136.5593  158.0418 O   0  0  0  0  0  0  0  0  0  0  0  0
  153.3695  136.3208  157.1072 O   0  0  0  0  0  0  0  0  0  0  0  0
  153.9699  138.3709  158.5079 N   0  0  0  0  0  0  0  0  0  0  0  0
  152.6150  138.8605  158.7560 C   0  0  0  0  0  0  0  0  0  0  0  0
  152.5521  140.3749  158.8863 C   0  0  0  0  0  0  0  0  0  0  0  0
  153.1654  141.0102  159.9863 C   0  0  0  0  0  0  0  0  0  0  0  0
  153.1074  142.4124  160.0874 C   0  0  0  0  0  0  0  0  0  0  0  0
  152.4351  143.1272  159.0787 C   0  0  0  0  0  0  0  0  0  0  0  0
  151.8427  142.5344  158.0212 N   0  0  0  0  0  0  0  0  0  0  0  0
  151.8961  141.1837  157.9227 C   0  0  0  0  0  0  0  0  0  0  0  0
  151.2588  140.5908  156.8214 N   0  0  0  0  0  0  0  0  0  0  0  0
  150.3888  141.5009  156.0880 C   0  0  0  0  0  0  0  0  0  0  0  0
  149.6019  140.7254  155.0174 C   0  0  0  0  0  0  0  0  0  0  0  0
  150.5095  140.0259  154.1691 O   0  0  0  0  0  0  0  0  0  0  0  0
  151.2996  139.0848  154.8912 C   0  0  0  0  0  0  0  0  0  0  0  0
  152.1368  139.8215  155.9509 C   0  0  0  0  0  0  0  0  0  0  0  0
  154.2790  136.6461  160.3877 H   0  0  0  0  0  0  0  0  0  0  0  0
  154.7050  138.8280  159.0463 H   0  0  0  0  0  0  0  0  0  0  0  0
  151.9648  138.5158  157.9515 H   0  0  0  0  0  0  0  0  0  0  0  0
  152.2300  138.4184  159.6751 H   0  0  0  0  0  0  0  0  0  0  0  0
  153.6752  140.4334  160.7439 H   0  0  0  0  0  0  0  0  0  0  0  0
  153.5676  142.9268  160.9179 H   0  0  0  0  0  0  0  0  0  0  0  0
  152.3704  144.2043  159.1219 H   0  0  0  0  0  0  0  0  0  0  0  0
  149.7000  141.9928  156.7757 H   0  0  0  0  0  0  0  0  0  0  0  0
  150.9880  142.2809  155.6162 H   0  0  0  0  0  0  0  0  0  0  0  0
  148.9042  140.0249  155.4781 H   0  0  0  0  0  0  0  0  0  0  0  0
  149.0090  141.4135  154.4150 H   0  0  0  0  0  0  0  0  0  0  0  0
  150.6569  138.3349  155.3558 H   0  0  0  0  0  0  0  0  0  0  0  0
  151.9526  138.5589  154.1948 H   0  0  0  0  0  0  0  0  0  0  0  0
  152.8510  140.4869  155.4639 H   0  0  0  0  0  0  0  0  0  0  0  0
  152.7091  139.1059  156.5424 H   0  0  0  0  0  0  0  0  0  0  0  0
  1  2  1  0  0  0  0
  1 19  1  0  0  0  0
  2  3  2  0  0  0  0
  2  4  2  0  0  0  0
  2  5  1  0  0  0  0
  5  6  1  0  0  0  0
  5 20  1  0  0  0  0
  6  7  1  0  0  0  0
  6 21  1  0  0  0  0
  6 22  1  0  0  0  0
  7 12  1  0  0  0  0
  7  8  2  0  0  0  0
  8  9  1  0  0  0  0
  8 23  1  0  0  0  0
  9 10  2  0  0  0  0
  9 24  1  0  0  0  0
 10 11  1  0  0  0  0
 10 25  1  0  0  0  0
 11 12  2  0  0  0  0
 12 13  1  0  0  0  0
 13 18  1  0  0  0  0
 13 14  1  0  0  0  0
 14 15  1  0  0  0  0
 14 26  1  0  0  0  0
 14 27  1  0  0  0  0
 15 16  1  0  0  0  0
 15 28  1  0  0  0  0
 15 29  1  0  0  0  0
 16 17  1  0  0  0  0
 17 18  1  0  0  0  0
 17 30  1  0  0  0  0
 17 31  1  0  0  0  0
 18 32  1  0  0  0  0
 18 33  1  0  0  0  0
M  CHG  1   1  -1
M  END
> <s_m_source_file>
AV-unprocessed.smi

> <i_m_source_file_index>
1513

> <i_lp_mmshare_version>
43012

> <i_f3d_flags>
0

> <s_epik_input>
W05IMl1TKD1PKSg9TylbTkhdW0NIMl1jMVtjSF1bY0hdW2NIXW5jMU4yW0NIMl1bQ0gyXU9bQ0gyXVtDSDJdMg==

> <s_epik_cmdline>
J2VwaWtfcHl0aG9uJywgJy1waCcsICc3LjAnLCAnLXRuJywgJzgnLCAnLW1hJywgJzIwMCcsICctbWV0YWxfYmluZGluZycsICctaW1hZScsICc8aW5maWxlLm1hZT4nLCAnLW9tYWUnLCAnPG91dGZpbGUubWFlPic=

> <r_lp_tautomer_probability>
1

> <r_epik_Ionization_Penalty>
2.76303

> <r_epik_Ionization_Penalty_Charging>
2.75358

> <r_epik_Ionization_Penalty_Neutral>
0.00945191

> <r_epik_State_Penalty>
2.93489

> <r_epik_Charging_Adjusted_Penalty>
5.68847

> <i_epik_Tot_Q>
-1

> <i_epik_Tot_abs_Q>
1

> <r_epik_Metal_State_Penalty>
0.838637

> <b_epik_Metal_Only>
1

> <s_lp_Force_Field>
OPLS_2005

> <r_lp_Energy>
17.6636

> <b_lp_Chiralities_Consistent>
1

> <s_lp_Variant>
AV-unprocessed.smi:1513-4

> <Gold.Version>
5.8.1

> <Gold.Id.Protein>
6NUR|6NUR_protein|mol2

> <Gold.PLP.Fitness>
43.8676

> <Gold.PLP.PLP>
-32.1007

> <Gold.PLP.part.hbond>
-3.1262

> <Gold.PLP.part.metal>
0.0000

> <Gold.PLP.part.buried>
-3.7336

> <Gold.PLP.part.nonpolar>
-25.5595

> <Gold.PLP.part.repulsive>
0.3022

> <Gold.PLP.ligand.clash>
0.0000

> <Gold.PLP.ligand.torsion>
0.2130

> <Gold.PLP.Chemscore.Hbond>
4.0000

> <Gold.PLP.Chemscore.CHOScore>
0.0000

> <Gold.PLP.Chemscore.Metal>
0.0000

> <Gold.Chemscore.Hbonds>
donor molecule, donor type, donor heavy atom, donor atom, acceptor molecule, acceptor atom, score
      P1  H  6896  6908       L1     1  2.00
      P1  H  7989  7998       L1    16  1.00
      P1  H 10752 10764       L1     4  1.00

> <Gold.PLP.Chemscore.Internal.Correction>
0.1929

> <Gold.Rescore>
     Score         DG    S(hbond)    S(metal)    S(lipo)     H(rot)  DE(clash)    DE(int)     intcor
     15.04     -16.43       2.67        0.00      70.86       2.45       0.01       1.39       ----

> <Gold.Chemscore.Fitness>
15.0387

> <Gold.Chemscore.DG>
-16.4301

> <Gold.Chemscore.ZeroCoef>
-5.4800

> <Gold.Chemscore.Hbond>
2.6718

> <Gold.Chemscore.Metal>
0.0000

> <Gold.Chemscore.Lipo>
70.8607

> <Gold.Chemscore.Internal_Hbond>
0.0000

> <Gold.Chemscore.DEClash>
0.0052

> <Gold.Chemscore.DEInternal>
1.3862

> <Gold.Chemscore.Rot>
2.4470

> <Gold.Chemscore.Internal.Correction>
   9.000000E+99

> <Gold.Chemscore.Hbonds>
donor molecule, donor type, donor heavy atom, donor atom, acceptor molecule, acceptor atom, score
      P1  H  6896  6908       L1     1  0.97
      P1  H  7989  7998       L1    16  0.27
      P1  H 10752 10764       L1     4  0.93

> <Gold.Chemscore.Hbond.Weighted>
-8.9237

> <Gold.Chemscore.Metal.Weighted>
-0.0000

> <Gold.Chemscore.Lipo.Weighted>
-8.2907

> <Gold.Chemscore.Internal_Hbond.Weighted>
0.0000

> <Gold.Chemscore.DEClash.Weighted>
0.0052

> <Gold.Chemscore.DEInternal.Weighted>
1.3862

> <Gold.Chemscore.Rot.Weighted>
6.2642

> <Gold.Chemscore.Internal.Correction.Weighted>
   9.000000E+99

> <Gold.Protein.RotatedTorsions>
[ 6907 6896 6895 6894 ] final  -72.53 input  -60.11 | X-H torsion
[ 7974 7965 7964 7962 ] final  145.54 input  175.53 | X-H torsion
[ 8008 7997 7996 7995 ] final  179.46 input   59.86 | X-H torsion
[ 10167 10162 10161 10158 ] final -124.65 input  -65.29 | X-H torsion
[ 10718 10713 10712 10709 ] final  -29.69 input   66.30 | X-H torsion
[ 10763 10752 10751 10750 ] final   16.32 input  -60.55 | X-H torsion
[ 11005 11000 10999 10996 ] final  -88.80 input  -57.11 | X-H torsion

> <Gold.Protein.ActiveResidues>
 VAL166  LYS551  ARG553  GLY616  TRP617  ASP618  TYR619  PRO620  LYS621  CYS622 
 ASP623  PHE694  ASN695  SER759  ASP760  ASP761  ALA762  ILE779  LEU786  VAL792 
 PHE793  MET794  SER795  GLU796  ALA797  LYS798  CYS799  TRP800  GLU811  SER814 

> <Gold.Protein.RotatedAtoms>
  150.7166  134.5149  159.5624 H   0  0  0  0  0  0  0  0  0  0  0  0  # atno 6907 bound_to 6896
  152.2717  134.7923  160.0422 H   0  0  0  0  0  0  0  0  0  0  0  0  # atno 6908 bound_to 6896
  151.8600  133.3420  159.3737 H   0  0  0  0  0  0  0  0  0  0  0  0  # atno 6909 bound_to 6896
  144.8744  139.5795  143.5872 H   0  0  0  0  0  0  0  0  0  0  0  0  # atno 7974 bound_to 7965
  156.0431  140.1308  157.0133 H   0  0  0  0  0  0  0  0  0  0  0  0  # atno 8008 bound_to 7997
  154.4400  140.1026  156.6337 H   0  0  0  0  0  0  0  0  0  0  0  0  # atno 8009 bound_to 7997
  155.5636  140.3465  155.4499 H   0  0  0  0  0  0  0  0  0  0  0  0  # atno 8010 bound_to 7997
  139.9905  143.5646  152.2344 H   0  0  0  0  0  0  0  0  0  0  0  0  # atno 10167 bound_to 10162
  156.4092  130.4405  149.7265 H   0  0  0  0  0  0  0  0  0  0  0  0  # atno 10718 bound_to 10713
  153.1441  135.6766  153.8981 H   0  0  0  0  0  0  0  0  0  0  0  0  # atno 10763 bound_to 10752
  153.8428  135.3103  155.3428 H   0  0  0  0  0  0  0  0  0  0  0  0  # atno 10764 bound_to 10752
  154.7811  135.4888  153.9932 H   0  0  0  0  0  0  0  0  0  0  0  0  # atno 10765 bound_to 10752
  141.1596  133.7591  156.9503 H   0  0  0  0  0  0  0  0  0  0  0  0  # atno 11005 bound_to 11000
  146.2953  139.7258  142.9131 LP  0  0  0  0  0  0  0  0  0  0  0  0  # atno 17320 bound_to 7965
  145.4070  141.0392  143.3038 LP  0  0  0  0  0  0  0  0  0  0  0  0  # atno 17321 bound_to 7965
  139.6344  144.7648  151.2469 LP  0  0  0  0  0  0  0  0  0  0  0  0  # atno 17342 bound_to 10162
  140.7456  143.6424  150.8322 LP  0  0  0  0  0  0  0  0  0  0  0  0  # atno 17343 bound_to 10162
  156.4250  130.7787  151.2805 LP  0  0  0  0  0  0  0  0  0  0  0  0  # atno 17370 bound_to 10713
  157.7506  131.0171  150.3573 LP  0  0  0  0  0  0  0  0  0  0  0  0  # atno 17371 bound_to 10713
  140.1261  134.9386  157.2272 LP  0  0  0  0  0  0  0  0  0  0  0  0  # atno 17394 bound_to 11000
  140.3011  134.3131  155.7290 LP  0  0  0  0  0  0  0  0  0  0  0  0  # atno 17395 bound_to 11000

$$$$
