AV-unprocessed.smi:2024|AV-procd|sdf|8195|dock2
  -GOLD-   2272010453D 1   1.00000     0.00000
 Structure written by MMmdl.
 43 44  0  0  0  0  0  0  0  0  3 V2000
  151.5053  139.5663  156.0051 C   0  0  0  0  0  0  0  0  0  0  0  0
  151.0918  139.2262  154.6480 N   0  0  0  0  0  0  0  0  0  0  0  0
  151.7144  138.0016  154.1459 C   0  0  0  0  0  0  0  0  0  0  0  0
  151.1567  136.7364  154.8310 C   0  0  0  0  0  0  0  0  0  0  0  0
  149.6787  136.6485  154.6543 N   0  3  0  0  0  0  0  0  0  0  0  0
  149.0413  135.3521  155.0842 C   0  0  0  0  0  0  0  0  0  0  0  0
  147.4997  135.4591  154.9694 C   0  0  0  0  0  0  0  0  0  0  0  0
  149.4634  134.2248  154.1082 C   0  0  0  0  0  0  0  0  0  0  0  0
  149.4338  134.9884  156.5481 C   0  0  0  0  0  0  0  0  0  0  0  0
  148.6837  135.7406  157.5528 N   0  0  0  0  0  0  0  0  0  0  0  0
  148.2613  135.2830  158.7402 C   0  0  0  0  0  0  0  0  0  0  0  0
  148.5063  134.1223  159.0771 O   0  0  0  0  0  0  0  0  0  0  0  0
  147.5714  136.1976  159.4572 N   0  5  0  0  0  0  0  0  0  0  0  0
  147.4064  136.0285  160.7791 C   0  0  0  0  0  0  0  0  0  0  0  0
  147.5774  137.0134  161.6680 N   0  0  0  0  0  0  0  0  0  0  0  0
  147.3511  136.6156  162.9870 C   0  0  0  0  0  0  0  0  0  0  0  0
  146.9902  135.2996  163.1038 C   0  0  0  0  0  0  0  0  0  0  0  0
  146.9215  134.5160  161.5513 S   0  0  0  0  0  0  0  0  0  0  0  0
  149.0501  137.8918  155.1845 C   0  0  0  0  0  0  0  0  0  0  0  0
  149.6403  139.1387  154.4928 C   0  0  0  0  0  0  0  0  0  0  0  0
  152.5885  139.6824  156.0509 H   0  0  0  0  0  0  0  0  0  0  0  0
  151.2169  138.8102  156.7343 H   0  0  0  0  0  0  0  0  0  0  0  0
  151.0595  140.5142  156.3084 H   0  0  0  0  0  0  0  0  0  0  0  0
  151.5405  137.9395  153.0707 H   0  0  0  0  0  0  0  0  0  0  0  0
  152.7953  138.0609  154.2795 H   0  0  0  0  0  0  0  0  0  0  0  0
  151.6581  135.8824  154.3807 H   0  0  0  0  0  0  0  0  0  0  0  0
  151.4222  136.7288  155.8877 H   0  0  0  0  0  0  0  0  0  0  0  0
  147.0188  134.4857  155.0755 H   0  0  0  0  0  0  0  0  0  0  0  0
  147.1992  135.8592  154.0002 H   0  0  0  0  0  0  0  0  0  0  0  0
  147.0682  136.0916  155.7448 H   0  0  0  0  0  0  0  0  0  0  0  0
  148.8643  133.3242  154.2464 H   0  0  0  0  0  0  0  0  0  0  0  0
  150.5004  133.9204  154.2487 H   0  0  0  0  0  0  0  0  0  0  0  0
  149.3394  134.5307  153.0687 H   0  0  0  0  0  0  0  0  0  0  0  0
  149.3242  133.9199  156.7328 H   0  0  0  0  0  0  0  0  0  0  0  0
  150.4850  135.2122  156.7265 H   0  0  0  0  0  0  0  0  0  0  0  0
  148.4594  136.6990  157.3282 H   0  0  0  0  0  0  0  0  0  0  0  0
  147.4699  137.3365  163.7822 H   0  0  0  0  0  0  0  0  0  0  0  0
  146.7603  134.7466  164.0019 H   0  0  0  0  0  0  0  0  0  0  0  0
  147.9790  137.9023  154.9958 H   0  0  0  0  0  0  0  0  0  0  0  0
  149.1759  137.9579  156.2648 H   0  0  0  0  0  0  0  0  0  0  0  0
  149.1761  140.0449  154.8833 H   0  0  0  0  0  0  0  0  0  0  0  0
  149.4072  139.1081  153.4276 H   0  0  0  0  0  0  0  0  0  0  0  0
  149.5310  136.6842  153.6561 H   0  0  0  0  0  0  0  0  0  0  0  0
  1  2  1  0  0  0  0
  1 21  1  0  0  0  0
  1 22  1  0  0  0  0
  1 23  1  0  0  0  0
  2 20  1  0  0  0  0
  2  3  1  0  0  0  0
  3  4  1  0  0  0  0
  3 24  1  0  0  0  0
  3 25  1  0  0  0  0
  4  5  1  0  0  0  0
  4 26  1  0  0  0  0
  4 27  1  0  0  0  0
  5  6  1  0  0  0  0
  5 19  1  0  0  0  0
  5 43  1  0  0  0  0
  6  7  1  0  0  0  0
  6  8  1  0  0  0  0
  6  9  1  0  0  0  0
  7 28  1  0  0  0  0
  7 29  1  0  0  0  0
  7 30  1  0  0  0  0
  8 31  1  0  0  0  0
  8 32  1  0  0  0  0
  8 33  1  0  0  0  0
  9 10  1  0  0  0  0
  9 34  1  0  0  0  0
  9 35  1  0  0  0  0
 10 11  1  0  0  0  0
 10 36  1  0  0  0  0
 11 12  2  0  0  0  0
 11 13  1  0  0  0  0
 13 14  1  0  0  0  0
 14 18  1  0  0  0  0
 14 15  2  0  0  0  0
 15 16  1  0  0  0  0
 16 17  2  0  0  0  0
 16 37  1  0  0  0  0
 17 18  1  0  0  0  0
 17 38  1  0  0  0  0
 19 20  1  0  0  0  0
 19 39  1  0  0  0  0
 19 40  1  0  0  0  0
 20 41  1  0  0  0  0
 20 42  1  0  0  0  0
M  CHG  1   5   1
M  CHG  1  13  -1
M  END
> <s_m_source_file>
AV-unprocessed.smi

> <i_m_source_file_index>
2024

> <i_lp_mmshare_version>
43012

> <i_f3d_flags>
0

> <s_epik_input>
W0NIM11OMVtDSDJdW0NIMl1OKFtDSDJdW0NIMl0xKUMoW0NIM10pKFtDSDNdKVtDSDJdW05IXUMoPU8pW05IXWMybltjSF1bY0hdczI=

> <s_epik_cmdline>
J2VwaWtfcHl0aG9uJywgJy1waCcsICc3LjAnLCAnLXRuJywgJzgnLCAnLW1hJywgJzIwMCcsICctbWV0YWxfYmluZGluZycsICctaW1hZScsICc8aW5maWxlLm1hZT4nLCAnLW9tYWUnLCAnPG91dGZpbGUubWFlPic=

> <r_epik_Ionization_Penalty>
6.29536

> <r_epik_Ionization_Penalty_Charging>
5.46232

> <r_epik_Ionization_Penalty_Neutral>
0.833035

> <r_epik_State_Penalty>
6.42136

> <r_epik_Charging_Adjusted_Penalty>
11.8837

> <i_epik_Tot_Q>
0

> <i_epik_Tot_abs_Q>
2

> <r_epik_Metal_State_Penalty>
2.42657

> <b_epik_Metal_Only>
1

> <s_lp_Force_Field>
OPLS_2005

> <r_lp_Energy>
16.4996

> <b_lp_Chiralities_Consistent>
1

> <s_lp_Variant>
AV-unprocessed.smi:2024-5

> <Gold.Version>
5.8.1

> <Gold.Id.Protein>
6NUR|6NUR_protein|mol2

> <Gold.PLP.Fitness>
47.4230

> <Gold.PLP.PLP>
-32.5387

> <Gold.PLP.part.hbond>
-5.0000

> <Gold.PLP.part.metal>
0.0000

> <Gold.PLP.part.buried>
-2.1782

> <Gold.PLP.part.nonpolar>
-25.7363

> <Gold.PLP.part.repulsive>
0.2016

> <Gold.PLP.ligand.clash>
0.0000

> <Gold.PLP.ligand.torsion>
1.1176

> <Gold.PLP.Chemscore.Hbond>
5.6680

> <Gold.PLP.Chemscore.CHOScore>
0.0000

> <Gold.PLP.Chemscore.Metal>
0.0000

> <Gold.Chemscore.Hbonds>
donor molecule, donor type, donor heavy atom, donor atom, acceptor molecule, acceptor atom, score
      L1  H     5    43       P1  7948  2.00
      P1  H  6896  6909       L1    12  0.60
      P1  H  6931  6943       L1    15  1.00
      P1  H  6934  6947       L1    15  0.52
      P1  H  7989  7998       L1     2  0.89

> <Gold.PLP.Chemscore.Internal.Correction>
0.1154

> <Gold.Rescore>
     Score         DG    S(hbond)    S(metal)    S(lipo)     H(rot)  DE(clash)    DE(int)     intcor
     17.09     -19.96       2.90        0.00      75.24       1.57       0.71       2.16       ----

> <Gold.Chemscore.Fitness>
17.0908

> <Gold.Chemscore.DG>
-19.9574

> <Gold.Chemscore.ZeroCoef>
-5.4800

> <Gold.Chemscore.Hbond>
2.9005

> <Gold.Chemscore.Metal>
0.0000

> <Gold.Chemscore.Lipo>
75.2423

> <Gold.Chemscore.Internal_Hbond>
0.0000

> <Gold.Chemscore.DEClash>
0.7116

> <Gold.Chemscore.DEInternal>
2.1551

> <Gold.Chemscore.Rot>
1.5678

> <Gold.Chemscore.Internal.Correction>
   9.000000E+99

> <Gold.Chemscore.Hbonds>
donor molecule, donor type, donor heavy atom, donor atom, acceptor molecule, acceptor atom, score
      L1  H     5    43       P1  7948  0.78
      P1  H  6896  6909       L1    12  0.11
      P1  H  6931  6943       L1    15  0.29
      P1  H  6934  6947       L1    15  0.47
      P1  H  7989  7998       L1     2  0.16

> <Gold.Chemscore.Hbond.Weighted>
-9.6877

> <Gold.Chemscore.Metal.Weighted>
-0.0000

> <Gold.Chemscore.Lipo.Weighted>
-8.8034

> <Gold.Chemscore.Internal_Hbond.Weighted>
0.0000

> <Gold.Chemscore.DEClash.Weighted>
0.7116

> <Gold.Chemscore.DEInternal.Weighted>
2.1551

> <Gold.Chemscore.Rot.Weighted>
4.0136

> <Gold.Chemscore.Internal.Correction.Weighted>
   9.000000E+99

> <Gold.Protein.RotatedTorsions>
[ 6907 6896 6895 6894 ] final   37.45 input  -60.11 | X-H torsion
[ 7974 7965 7964 7962 ] final  -66.59 input  175.53 | X-H torsion
[ 8008 7997 7996 7995 ] final   71.48 input   59.86 | X-H torsion
[ 10167 10162 10161 10158 ] final  -22.00 input  -65.29 | X-H torsion
[ 10718 10713 10712 10709 ] final -176.22 input   66.30 | X-H torsion
[ 10763 10752 10751 10750 ] final   40.44 input  -60.55 | X-H torsion
[ 11005 11000 10999 10996 ] final   37.89 input  -57.11 | X-H torsion

> <Gold.Protein.ActiveResidues>
 VAL166  LYS551  ARG553  GLY616  TRP617  ASP618  TYR619  PRO620  LYS621  CYS622 
 ASP623  PHE694  ASN695  SER759  ASP760  ASP761  ALA762  ILE779  LEU786  VAL792 
 PHE793  MET794  SER795  GLU796  ALA797  LYS798  CYS799  TRP800  GLU811  SER814 

> <Gold.Protein.RotatedAtoms>
  152.1434  134.9045  160.0552 H   0  0  0  0  0  0  0  0  0  0  0  0  # atno 6907 bound_to 6896
  152.0104  133.3854  159.4225 H   0  0  0  0  0  0  0  0  0  0  0  0  # atno 6908 bound_to 6896
  150.6867  134.3658  159.5014 H   0  0  0  0  0  0  0  0  0  0  0  0  # atno 6909 bound_to 6896
  145.7398  140.8959  143.0536 H   0  0  0  0  0  0  0  0  0  0  0  0  # atno 7974 bound_to 7965
  155.7546  140.3488  155.5167 H   0  0  0  0  0  0  0  0  0  0  0  0  # atno 8008 bound_to 7997
  155.8972  140.1028  157.1397 H   0  0  0  0  0  0  0  0  0  0  0  0  # atno 8009 bound_to 7997
  154.4040  140.1293  156.4377 H   0  0  0  0  0  0  0  0  0  0  0  0  # atno 8010 bound_to 7997
  140.7284  143.4575  151.0427 H   0  0  0  0  0  0  0  0  0  0  0  0  # atno 10167 bound_to 10162
  156.8115  130.9588  151.3115 H   0  0  0  0  0  0  0  0  0  0  0  0  # atno 10718 bound_to 10713
  152.9936  135.6191  154.2626 H   0  0  0  0  0  0  0  0  0  0  0  0  # atno 10763 bound_to 10752
  154.2361  135.2790  155.2873 H   0  0  0  0  0  0  0  0  0  0  0  0  # atno 10764 bound_to 10752
  154.5408  135.5761  153.6896 H   0  0  0  0  0  0  0  0  0  0  0  0  # atno 10765 bound_to 10752
  140.2181  134.3674  155.8017 H   0  0  0  0  0  0  0  0  0  0  0  0  # atno 11005 bound_to 11000
  144.6873  139.9445  143.7476 LP  0  0  0  0  0  0  0  0  0  0  0  0  # atno 17320 bound_to 7965
  146.0459  139.3465  143.0669 LP  0  0  0  0  0  0  0  0  0  0  0  0  # atno 17321 bound_to 7965
  139.8257  143.7760  152.3178 LP  0  0  0  0  0  0  0  0  0  0  0  0  # atno 17342 bound_to 10162
  139.7858  144.7428  151.0024 LP  0  0  0  0  0  0  0  0  0  0  0  0  # atno 17343 bound_to 10162
  157.6503  130.8879  149.9621 LP  0  0  0  0  0  0  0  0  0  0  0  0  # atno 17370 bound_to 10713
  156.1042  130.3654  150.0164 LP  0  0  0  0  0  0  0  0  0  0  0  0  # atno 17371 bound_to 10713
  141.2224  133.7179  156.8530 LP  0  0  0  0  0  0  0  0  0  0  0  0  # atno 17394 bound_to 11000
  140.1879  134.8987  157.3026 LP  0  0  0  0  0  0  0  0  0  0  0  0  # atno 17395 bound_to 11000

$$$$
