AV-unprocessed.smi:203|AV-procd|sdf|1587|dock9
  -GOLD-   2262019483D 1   1.00000     0.00000
 Structure written by MMmdl.
 57 61  0  0  0  0  0  0  0  0  1 V2000
  156.5321  138.4364  159.4485 O   0  0  0  0  0  0  0  0  0  0  0  0
  155.5127  138.9998  159.8399 C   0  0  0  0  0  0  0  0  0  0  0  0
  154.1596  138.8494  159.1655 C   0  0  0  0  0  0  0  0  0  0  0  0
  153.2868  139.9152  159.8577 C   0  0  2  0  0  0  0  0  0  0  0  0
  152.8742  141.1007  158.9281 C   0  0  2  0  0  0  0  0  0  0  0  0
  152.5397  142.3944  159.7175 C   0  0  0  0  0  0  0  0  0  0  0  0
  152.1384  143.5445  158.7848 C   0  0  0  0  0  0  0  0  0  0  0  0
  150.9714  143.1106  157.8919 C   0  0  0  0  0  0  0  0  0  0  0  0
  151.3361  141.8360  157.1199 C   0  0  0  0  0  0  0  0  0  0  0  0
  151.7573  140.7672  158.0254 N   0  0  0  0  0  0  0  0  0  0  0  0
  151.8519  139.5948  157.3593 C   0  0  0  0  0  0  0  0  0  0  0  0
  152.7701  139.5206  156.3649 N   0  0  0  0  0  0  0  0  0  0  0  0
  152.9070  138.3886  155.6674 C   0  0  0  0  0  0  0  0  0  0  0  0
  152.2445  137.2376  155.8036 N   0  0  0  0  0  0  0  0  0  0  0  0
  151.3246  137.3103  156.8085 C   0  0  0  0  0  0  0  0  0  0  0  0
  151.0626  138.4419  157.6302 C   0  0  0  0  0  0  0  0  0  0  0  0
  150.0575  138.1443  158.5428 N   0  0  0  0  0  0  0  0  0  0  0  0
  149.7440  136.9056  158.2763 C   0  0  0  0  0  0  0  0  0  0  0  0
  150.4573  136.3275  157.2511 N   0  0  0  0  0  0  0  0  0  0  0  0
  150.3174  134.9702  156.7546 C   0  0  0  0  0  0  0  0  0  0  0  0
  149.4687  134.8987  155.4673 C   0  0  1  0  0  0  0  0  0  0  0  0
  150.1974  135.3946  154.3619 O   0  0  0  0  0  0  0  0  0  0  0  0
  148.9522  133.4857  155.1253 C   0  0  2  0  0  0  0  0  0  0  0  0
  150.0564  132.4475  154.8885 C   0  0  0  0  0  0  0  0  0  0  0  0
  149.4843  131.5210  153.8231 C   0  0  0  0  0  0  0  0  0  0  0  0
  148.1130  132.1151  153.5061 C   0  0  0  0  0  0  0  0  0  0  0  0
  148.2285  133.4713  153.9030 O   0  0  0  0  0  0  0  0  0  0  0  0
  154.0962  140.3452  161.1023 C   0  0  0  0  0  0  0  0  0  0  0  0
  155.4267  139.8089  160.8933 N   0  0  0  0  0  0  0  0  0  0  0  0
  154.2293  138.9774  158.0854 H   0  0  0  0  0  0  0  0  0  0  0  0
  153.7794  137.8460  159.3594 H   0  0  0  0  0  0  0  0  0  0  0  0
  152.3853  139.4036  160.1965 H   0  0  0  0  0  0  0  0  0  0  0  0
  153.7331  141.3287  158.2961 H   0  0  0  0  0  0  0  0  0  0  0  0
  151.7247  142.2108  160.4178 H   0  0  0  0  0  0  0  0  0  0  0  0
  153.3899  142.7145  160.3185 H   0  0  0  0  0  0  0  0  0  0  0  0
  151.8596  144.4227  159.3678 H   0  0  0  0  0  0  0  0  0  0  0  0
  152.9898  143.8340  158.1675 H   0  0  0  0  0  0  0  0  0  0  0  0
  150.0860  142.9300  158.5028 H   0  0  0  0  0  0  0  0  0  0  0  0
  150.7137  143.9088  157.1955 H   0  0  0  0  0  0  0  0  0  0  0  0
  150.4765  141.5100  156.5320 H   0  0  0  0  0  0  0  0  0  0  0  0
  152.1396  142.0521  156.4142 H   0  0  0  0  0  0  0  0  0  0  0  0
  153.6555  138.4071  154.8888 H   0  0  0  0  0  0  0  0  0  0  0  0
  148.9790  136.3749  158.8241 H   0  0  0  0  0  0  0  0  0  0  0  0
  151.3136  134.5606  156.5828 H   0  0  0  0  0  0  0  0  0  0  0  0
  149.8681  134.3683  157.5446 H   0  0  0  0  0  0  0  0  0  0  0  0
  148.6064  135.5578  155.5759 H   0  0  0  0  0  0  0  0  0  0  0  0
  149.5822  135.6646  153.6970 H   0  0  0  0  0  0  0  0  0  0  0  0
  148.3012  133.1182  155.9214 H   0  0  0  0  0  0  0  0  0  0  0  0
  150.9699  132.9118  154.5159 H   0  0  0  0  0  0  0  0  0  0  0  0
  150.3097  131.9164  155.8066 H   0  0  0  0  0  0  0  0  0  0  0  0
  150.1204  131.5346  152.9373 H   0  0  0  0  0  0  0  0  0  0  0  0
  149.4064  130.4884  154.1641 H   0  0  0  0  0  0  0  0  0  0  0  0
  147.8473  132.0253  152.4526 H   0  0  0  0  0  0  0  0  0  0  0  0
  147.3352  131.6306  154.0985 H   0  0  0  0  0  0  0  0  0  0  0  0
  154.1301  141.4257  161.2426 H   0  0  0  0  0  0  0  0  0  0  0  0
  153.6752  139.9081  162.0085 H   0  0  0  0  0  0  0  0  0  0  0  0
  156.2062  140.0436  161.4908 H   0  0  0  0  0  0  0  0  0  0  0  0
  1  2  2  0  0  0  0
  2 29  1  0  0  0  0
  2  3  1  0  0  0  0
  3  4  1  0  0  0  0
  3 30  1  0  0  0  0
  3 31  1  0  0  0  0
  4  5  1  0  0  0  0
  4 28  1  0  0  0  0
  4 32  1  0  0  0  0
  5 10  1  0  0  0  0
  5  6  1  0  0  0  0
  5 33  1  0  0  0  0
  6  7  1  0  0  0  0
  6 34  1  0  0  0  0
  6 35  1  0  0  0  0
  7  8  1  0  0  0  0
  7 36  1  0  0  0  0
  7 37  1  0  0  0  0
  8  9  1  0  0  0  0
  8 38  1  0  0  0  0
  8 39  1  0  0  0  0
  9 10  1  0  0  0  0
  9 40  1  0  0  0  0
  9 41  1  0  0  0  0
 10 11  1  0  0  0  0
 11 16  1  0  0  0  0
 11 12  2  0  0  0  0
 12 13  1  0  0  0  0
 13 14  2  0  0  0  0
 13 42  1  0  0  0  0
 14 15  1  0  0  0  0
 15 19  1  0  0  0  0
 15 16  2  0  0  0  0
 16 17  1  0  0  0  0
 17 18  2  0  0  0  0
 18 19  1  0  0  0  0
 18 43  1  0  0  0  0
 19 20  1  0  0  0  0
 20 21  1  0  0  0  0
 20 44  1  0  0  0  0
 20 45  1  0  0  0  0
 21 22  1  0  0  0  0
 21 23  1  0  0  0  0
 21 46  1  0  0  0  0
 22 47  1  0  0  0  0
 23 27  1  0  0  0  0
 23 24  1  0  0  0  0
 23 48  1  0  0  0  0
 24 25  1  0  0  0  0
 24 49  1  0  0  0  0
 24 50  1  0  0  0  0
 25 26  1  0  0  0  0
 25 51  1  0  0  0  0
 25 52  1  0  0  0  0
 26 27  1  0  0  0  0
 26 53  1  0  0  0  0
 26 54  1  0  0  0  0
 28 29  1  0  0  0  0
 28 55  1  0  0  0  0
 28 56  1  0  0  0  0
 29 57  1  0  0  0  0
M  END
> <s_m_source_file>
AV-unprocessed.smi

> <i_m_source_file_index>
203

> <i_lp_mmshare_version>
43012

> <i_f3d_flags>
0

> <s_epik_input>
Tz1DMVtDSDJdW0NASF0oW0NIMl1bTkhdMSlbQ0BASF0yW0NIMl1bQ0gyXVtDSDJdW0NIMl1OMmMobltjSF1uMyljKGMzNCluW2NIXW40W0NIMl1bQ0BIXShbT0hdKVtDQEBIXTVbQ0gyXVtDSDJdW0NIMl1PNQ==

> <s_epik_cmdline>
J2VwaWtfcHl0aG9uJywgJy1waCcsICc3LjAnLCAnLXRuJywgJzgnLCAnLW1hJywgJzIwMCcsICctbWV0YWxfYmluZGluZycsICctaW1hZScsICc8aW5maWxlLm1hZT4nLCAnLW9tYWUnLCAnPG91dGZpbGUubWFlPic=

> <r_lp_tautomer_probability>
1

> <r_epik_Ionization_Penalty>
0.00175146

> <r_epik_Ionization_Penalty_Charging>
0

> <r_epik_Ionization_Penalty_Neutral>
0.00175146

> <r_epik_State_Penalty>
0.00109045

> <r_epik_Charging_Adjusted_Penalty>
0.00109045

> <i_epik_Tot_Q>
0

> <i_epik_Tot_abs_Q>
0

> <r_epik_Metal_State_Penalty>
-0

> <b_epik_Metal_Only>
0

> <s_lp_Force_Field>
OPLS_2005

> <r_lp_Energy>
57.3727

> <b_lp_Chiralities_Consistent>
1

> <s_lp_Variant>
AV-unprocessed.smi:203-6

> <Gold.Version>
5.8.1

> <Gold.Id.Protein>
6NUR|6NUR_protein|mol2

> <Gold.PLP.Fitness>
48.3051

> <Gold.PLP.PLP>
-41.7531

> <Gold.PLP.part.hbond>
-3.7331

> <Gold.PLP.part.metal>
0.0000

> <Gold.PLP.part.buried>
-6.2328

> <Gold.PLP.part.nonpolar>
-31.7170

> <Gold.PLP.part.repulsive>
0.2147

> <Gold.PLP.ligand.clash>
0.0000

> <Gold.PLP.ligand.torsion>
0.9776

> <Gold.PLP.Chemscore.Hbond>
2.7441

> <Gold.PLP.Chemscore.CHOScore>
0.0000

> <Gold.PLP.Chemscore.Metal>
0.0000

> <Gold.Chemscore.Hbonds>
donor molecule, donor type, donor heavy atom, donor atom, acceptor molecule, acceptor atom, score
      L1  H    22    47       P1  7948  0.95
      P1  H  7997  8008       L1    12  1.00
      P1  H 10752 10765       L1    14  0.73

> <Gold.PLP.Chemscore.Internal.Correction>
0.2749

> <Gold.Rescore>
     Score         DG    S(hbond)    S(metal)    S(lipo)     H(rot)  DE(clash)    DE(int)     intcor
     14.80     -16.59       1.94        0.00      99.00       2.72       0.34       1.46       ----

> <Gold.Chemscore.Fitness>
14.7958

> <Gold.Chemscore.DG>
-16.5924

> <Gold.Chemscore.ZeroCoef>
-5.4800

> <Gold.Chemscore.Hbond>
1.9418

> <Gold.Chemscore.Metal>
0.0000

> <Gold.Chemscore.Lipo>
98.9963

> <Gold.Chemscore.Internal_Hbond>
0.0000

> <Gold.Chemscore.DEClash>
0.3383

> <Gold.Chemscore.DEInternal>
1.4583

> <Gold.Chemscore.Rot>
2.7171

> <Gold.Chemscore.Internal.Correction>
   9.000000E+99

> <Gold.Chemscore.Hbonds>
donor molecule, donor type, donor heavy atom, donor atom, acceptor molecule, acceptor atom, score
      L1  H    22    47       P1  7948  0.21
      P1  H  7997  8008       L1    12  0.47
      P1  H 10752 10765       L1    14  0.67

> <Gold.Chemscore.Hbond.Weighted>
-6.4856

> <Gold.Chemscore.Metal.Weighted>
-0.0000

> <Gold.Chemscore.Lipo.Weighted>
-11.5826

> <Gold.Chemscore.Internal_Hbond.Weighted>
0.0000

> <Gold.Chemscore.DEClash.Weighted>
0.3383

> <Gold.Chemscore.DEInternal.Weighted>
1.4583

> <Gold.Chemscore.Rot.Weighted>
6.9557

> <Gold.Chemscore.Internal.Correction.Weighted>
   9.000000E+99

> <Gold.Protein.RotatedTorsions>
[ 6907 6896 6895 6894 ] final  142.97 input  -60.11 | X-H torsion
[ 7974 7965 7964 7962 ] final    4.28 input  175.53 | X-H torsion
[ 8008 7997 7996 7995 ] final  -64.14 input   59.86 | X-H torsion
[ 10167 10162 10161 10158 ] final   76.04 input  -65.29 | X-H torsion
[ 10718 10713 10712 10709 ] final   -6.04 input   66.30 | X-H torsion
[ 10763 10752 10751 10750 ] final -166.27 input  -60.55 | X-H torsion
[ 11005 11000 10999 10996 ] final   82.15 input  -57.11 | X-H torsion

> <Gold.Protein.ActiveResidues>
 VAL166  LYS551  ARG553  GLY616  TRP617  ASP618  TYR619  PRO620  LYS621  CYS622 
 ASP623  PHE694  ASN695  SER759  ASP760  ASP761  ALA762  ILE779  LEU786  VAL792 
 PHE793  MET794  SER795  GLU796  ALA797  LYS798  CYS799  TRP800  GLU811  SER814 

> <Gold.Protein.RotatedAtoms>
  152.2121  133.4919  159.5115 H   0  0  0  0  0  0  0  0  0  0  0  0  # atno 6907 bound_to 6896
  150.6992  134.1453  159.4129 H   0  0  0  0  0  0  0  0  0  0  0  0  # atno 6908 bound_to 6896
  151.9373  135.0229  160.0584 H   0  0  0  0  0  0  0  0  0  0  0  0  # atno 6909 bound_to 6896
  146.2444  140.0558  142.8372 H   0  0  0  0  0  0  0  0  0  0  0  0  # atno 7974 bound_to 7965
  154.4594  140.0960  156.6851 H   0  0  0  0  0  0  0  0  0  0  0  0  # atno 8008 bound_to 7997
  155.5039  140.3474  155.4357 H   0  0  0  0  0  0  0  0  0  0  0  0  # atno 8009 bound_to 7997
  156.0841  140.1380  156.9663 H   0  0  0  0  0  0  0  0  0  0  0  0  # atno 8010 bound_to 7997
  139.9965  144.5718  150.7774 H   0  0  0  0  0  0  0  0  0  0  0  0  # atno 10167 bound_to 10162
  156.7377  130.5200  149.5831 H   0  0  0  0  0  0  0  0  0  0  0  0  # atno 10718 bound_to 10713
  154.6849  135.2961  154.9561 H   0  0  0  0  0  0  0  0  0  0  0  0  # atno 10763 bound_to 10752
  154.0544  135.6640  153.4808 H   0  0  0  0  0  0  0  0  0  0  0  0  # atno 10764 bound_to 10752
  153.0572  135.5137  154.7911 H   0  0  0  0  0  0  0  0  0  0  0  0  # atno 10765 bound_to 10752
  139.9073  134.8050  156.2136 H   0  0  0  0  0  0  0  0  0  0  0  0  # atno 11005 bound_to 11000
  145.0943  140.9305  143.4750 LP  0  0  0  0  0  0  0  0  0  0  0  0  # atno 17320 bound_to 7965
  145.0738  139.3011  143.5818 LP  0  0  0  0  0  0  0  0  0  0  0  0  # atno 17321 bound_to 7965
  140.7435  143.2847  151.3497 LP  0  0  0  0  0  0  0  0  0  0  0  0  # atno 17342 bound_to 10162
  139.6303  144.0735  152.2470 LP  0  0  0  0  0  0  0  0  0  0  0  0  # atno 17343 bound_to 10162
  156.1486  130.6294  151.0564 LP  0  0  0  0  0  0  0  0  0  0  0  0  # atno 17370 bound_to 10713
  157.6832  131.0832  150.7314 LP  0  0  0  0  0  0  0  0  0  0  0  0  # atno 17371 bound_to 10713
  141.0450  133.6918  156.1666 LP  0  0  0  0  0  0  0  0  0  0  0  0  # atno 17394 bound_to 11000
  140.6898  134.4678  157.5588 LP  0  0  0  0  0  0  0  0  0  0  0  0  # atno 17395 bound_to 11000

$$$$
