AV-unprocessed.smi:567|AV-procd|sdf|2956|dock3
  -GOLD-   2262023463D 1   1.00000     0.00000
 Structure written by MMmdl.
 53 54  0  0  0  0  0  0  0  0  2 V2000
  155.3785  139.4934  162.9550 C   0  0  0  0  0  0  0  0  0  0  0  0
  155.5825  140.6026  162.0984 O   0  0  0  0  0  0  0  0  0  0  0  0
  154.5291  140.7690  161.1616 C   0  0  0  0  0  0  0  0  0  0  0  0
  153.7840  142.0805  161.4561 C   0  0  0  0  0  0  0  0  0  0  0  0
  152.9144  142.4723  160.3411 N   0  0  0  0  0  0  0  0  0  0  0  0
  152.8125  141.5101  159.3533 N   0  0  0  0  0  0  0  0  0  0  0  0
  152.0778  141.7205  158.3100 C   0  0  0  0  0  0  0  0  0  0  0  0
  151.9677  140.7095  157.2246 C   0  0  0  0  0  0  0  0  0  0  0  0
  152.8069  139.8220  157.0664 O   0  0  0  0  0  0  0  0  0  0  0  0
  150.8923  140.8556  156.4316 N   0  0  0  0  0  0  0  0  0  0  0  0
  150.5745  140.0735  155.2435 C   0  0  0  0  0  0  0  0  0  0  0  0
  149.6011  140.8023  154.3010 C   0  0  0  0  0  0  0  0  0  0  0  0
  148.1276  140.8438  154.7833 C   0  0  0  0  0  0  0  0  0  0  0  0
  147.8842  141.9310  155.8547 C   0  0  0  0  0  0  0  0  0  0  0  0
  147.2458  141.2166  153.5755 C   0  0  0  0  0  0  0  0  0  0  0  0
  147.6729  139.5028  155.2498 N   0  3  0  0  0  0  0  0  0  0  0  0
  148.5569  138.6742  156.1187 C   0  0  0  0  0  0  0  0  0  0  0  0
  148.4421  139.0843  157.6053 C   0  0  0  0  0  0  0  0  0  0  0  0
  148.0375  137.2264  156.0244 C   0  0  0  0  0  0  0  0  0  0  0  0
  150.0219  138.6868  155.6086 C   0  0  0  0  0  0  0  0  0  0  0  0
  151.3307  142.9568  158.1623 C   0  0  0  0  0  0  0  0  0  0  0  0
  151.4567  143.8975  159.1247 C   0  0  0  0  0  0  0  0  0  0  0  0
  152.3077  143.6970  160.3000 C   0  0  0  0  0  0  0  0  0  0  0  0
  152.4649  144.5527  161.1702 O   0  0  0  0  0  0  0  0  0  0  0  0
  156.2157  139.4075  163.6477 H   0  0  0  0  0  0  0  0  0  0  0  0
  155.3129  138.5635  162.3885 H   0  0  0  0  0  0  0  0  0  0  0  0
  154.4666  139.6121  163.5414 H   0  0  0  0  0  0  0  0  0  0  0  0
  154.9468  140.8070  160.1545 H   0  0  0  0  0  0  0  0  0  0  0  0
  153.8417  139.9222  161.1967 H   0  0  0  0  0  0  0  0  0  0  0  0
  153.1942  141.9739  162.3683 H   0  0  0  0  0  0  0  0  0  0  0  0
  154.5068  142.8677  161.6760 H   0  0  0  0  0  0  0  0  0  0  0  0
  150.2546  141.6051  156.6596 H   0  0  0  0  0  0  0  0  0  0  0  0
  151.5101  139.9138  154.7044 H   0  0  0  0  0  0  0  0  0  0  0  0
  149.9602  141.8112  154.0914 H   0  0  0  0  0  0  0  0  0  0  0  0
  149.6386  140.2805  153.3433 H   0  0  0  0  0  0  0  0  0  0  0  0
  148.0850  142.9240  155.4509 H   0  0  0  0  0  0  0  0  0  0  0  0
  148.5111  141.8335  156.7344 H   0  0  0  0  0  0  0  0  0  0  0  0
  146.8482  141.9251  156.1950 H   0  0  0  0  0  0  0  0  0  0  0  0
  147.5300  142.1836  153.1580 H   0  0  0  0  0  0  0  0  0  0  0  0
  146.1923  141.2770  153.8519 H   0  0  0  0  0  0  0  0  0  0  0  0
  147.3287  140.4802  152.7750 H   0  0  0  0  0  0  0  0  0  0  0  0
  146.7699  139.5964  155.6926 H   0  0  0  0  0  0  0  0  0  0  0  0
  148.9711  138.3765  158.2446 H   0  0  0  0  0  0  0  0  0  0  0  0
  147.4017  139.0955  157.9318 H   0  0  0  0  0  0  0  0  0  0  0  0
  148.8594  140.0598  157.8305 H   0  0  0  0  0  0  0  0  0  0  0  0
  148.6484  136.5439  156.6171 H   0  0  0  0  0  0  0  0  0  0  0  0
  148.0474  136.8622  154.9961 H   0  0  0  0  0  0  0  0  0  0  0  0
  147.0117  137.1447  156.3864 H   0  0  0  0  0  0  0  0  0  0  0  0
  150.0810  138.0758  154.7062 H   0  0  0  0  0  0  0  0  0  0  0  0
  150.6792  138.1979  156.3293 H   0  0  0  0  0  0  0  0  0  0  0  0
  150.6962  143.1291  157.3050 H   0  0  0  0  0  0  0  0  0  0  0  0
  150.9113  144.8249  159.0281 H   0  0  0  0  0  0  0  0  0  0  0  0
  147.5442  138.9596  154.4080 H   0  0  0  0  0  0  0  0  0  0  0  0
  1  2  1  0  0  0  0
  1 25  1  0  0  0  0
  1 26  1  0  0  0  0
  1 27  1  0  0  0  0
  2  3  1  0  0  0  0
  3  4  1  0  0  0  0
  3 28  1  0  0  0  0
  3 29  1  0  0  0  0
  4  5  1  0  0  0  0
  4 30  1  0  0  0  0
  4 31  1  0  0  0  0
  5 23  1  0  0  0  0
  5  6  1  0  0  0  0
  6  7  2  0  0  0  0
  7  8  1  0  0  0  0
  7 21  1  0  0  0  0
  8  9  2  0  0  0  0
  8 10  1  0  0  0  0
 10 11  1  0  0  0  0
 10 32  1  0  0  0  0
 11 20  1  0  0  0  0
 11 12  1  0  0  0  0
 11 33  1  0  0  0  0
 12 13  1  0  0  0  0
 12 34  1  0  0  0  0
 12 35  1  0  0  0  0
 13 14  1  0  0  0  0
 13 15  1  0  0  0  0
 13 16  1  0  0  0  0
 14 36  1  0  0  0  0
 14 37  1  0  0  0  0
 14 38  1  0  0  0  0
 15 39  1  0  0  0  0
 15 40  1  0  0  0  0
 15 41  1  0  0  0  0
 16 17  1  0  0  0  0
 16 42  1  0  0  0  0
 16 53  1  0  0  0  0
 17 18  1  0  0  0  0
 17 19  1  0  0  0  0
 17 20  1  0  0  0  0
 18 43  1  0  0  0  0
 18 44  1  0  0  0  0
 18 45  1  0  0  0  0
 19 46  1  0  0  0  0
 19 47  1  0  0  0  0
 19 48  1  0  0  0  0
 20 49  1  0  0  0  0
 20 50  1  0  0  0  0
 21 22  2  0  0  0  0
 21 51  1  0  0  0  0
 22 23  1  0  0  0  0
 22 52  1  0  0  0  0
 23 24  2  0  0  0  0
M  CHG  1  16   1
M  END
> <s_m_source_file>
AV-unprocessed.smi

> <i_m_source_file_index>
567

> <i_lp_mmshare_version>
43012

> <i_f3d_flags>
0

> <s_epik_input>
W0NIM11PW0NIMl1bQ0gyXW4xbmMoW2NIXVtjSF1jMT1PKUMoPU8pW05IXVtDSF0oW0NIMl1DMihbQ0gzXSlbQ0gzXSlbQ0gyXUMoW05IXTIpKFtDSDNdKVtDSDNd

> <s_epik_cmdline>
J2VwaWtfcHl0aG9uJywgJy1waCcsICc3LjAnLCAnLXRuJywgJzgnLCAnLW1hJywgJzIwMCcsICctbWV0YWxfYmluZGluZycsICctaW1hZScsICc8aW5maWxlLm1hZT4nLCAnLW9tYWUnLCAnPG91dGZpbGUubWFlPic=

> <r_lp_tautomer_probability>
1

> <r_epik_Ionization_Penalty>
0.000138804

> <r_epik_Ionization_Penalty_Charging>
0.000136152

> <r_epik_Ionization_Penalty_Neutral>
2.65225e-06

> <r_epik_State_Penalty>
-0

> <r_epik_Charging_Adjusted_Penalty>
0.000136152

> <i_epik_Tot_Q>
1

> <i_epik_Tot_abs_Q>
1

> <r_epik_Metal_State_Penalty>
-0

> <b_epik_Metal_Only>
0

> <s_lp_Force_Field>
OPLS_2005

> <r_lp_Energy>
46.3617

> <b_lp_Chiralities_Consistent>
1

> <s_lp_Variant>
AV-unprocessed.smi:567-1

> <Gold.Version>
5.8.1

> <Gold.Id.Protein>
6NUR|6NUR_protein|mol2

> <Gold.PLP.Fitness>
40.4638

> <Gold.PLP.PLP>
-39.2294

> <Gold.PLP.part.hbond>
-2.0000

> <Gold.PLP.part.metal>
0.0000

> <Gold.PLP.part.buried>
-3.5441

> <Gold.PLP.part.nonpolar>
-32.4467

> <Gold.PLP.part.repulsive>
0.2546

> <Gold.PLP.ligand.clash>
0.0000

> <Gold.PLP.ligand.torsion>
0.9244

> <Gold.PLP.Chemscore.Hbond>
1.0000

> <Gold.PLP.Chemscore.CHOScore>
0.0000

> <Gold.PLP.Chemscore.Metal>
0.0000

> <Gold.Chemscore.Hbonds>
donor molecule, donor type, donor heavy atom, donor atom, acceptor molecule, acceptor atom, score
      P1  H  7997  8008       L1     9  1.00

> <Gold.PLP.Chemscore.Internal.Correction>
0.0833

> <Gold.Rescore>
     Score         DG    S(hbond)    S(metal)    S(lipo)     H(rot)  DE(clash)    DE(int)     intcor
     13.76     -14.83       1.00        0.00      86.69       1.61       0.06       1.01       ----

> <Gold.Chemscore.Fitness>
13.7566

> <Gold.Chemscore.DG>
-14.8281

> <Gold.Chemscore.ZeroCoef>
-5.4800

> <Gold.Chemscore.Hbond>
0.9969

> <Gold.Chemscore.Metal>
0.0000

> <Gold.Chemscore.Lipo>
86.6938

> <Gold.Chemscore.Internal_Hbond>
0.0000

> <Gold.Chemscore.DEClash>
0.0595

> <Gold.Chemscore.DEInternal>
1.0121

> <Gold.Chemscore.Rot>
1.6112

> <Gold.Chemscore.Internal.Correction>
   9.000000E+99

> <Gold.Chemscore.Hbonds>
donor molecule, donor type, donor heavy atom, donor atom, acceptor molecule, acceptor atom, score
      P1  H  7997  8008       L1     9  0.99

> <Gold.Chemscore.Hbond.Weighted>
-3.3297

> <Gold.Chemscore.Metal.Weighted>
-0.0000

> <Gold.Chemscore.Lipo.Weighted>
-10.1432

> <Gold.Chemscore.Internal_Hbond.Weighted>
0.0000

> <Gold.Chemscore.DEClash.Weighted>
0.0595

> <Gold.Chemscore.DEInternal.Weighted>
1.0121

> <Gold.Chemscore.Rot.Weighted>
4.1247

> <Gold.Chemscore.Internal.Correction.Weighted>
   9.000000E+99

> <Gold.Protein.RotatedTorsions>
[ 6907 6896 6895 6894 ] final  -57.20 input  -60.11 | X-H torsion
[ 7974 7965 7964 7962 ] final   -0.01 input  175.53 | X-H torsion
[ 8008 7997 7996 7995 ] final  -64.53 input   59.86 | X-H torsion
[ 10167 10162 10161 10158 ] final    8.11 input  -65.29 | X-H torsion
[ 10718 10713 10712 10709 ] final  -74.27 input   66.30 | X-H torsion
[ 10763 10752 10751 10750 ] final   13.61 input  -60.55 | X-H torsion
[ 11005 11000 10999 10996 ] final  -15.40 input  -57.11 | X-H torsion

> <Gold.Protein.ActiveResidues>
 VAL166  LYS551  ARG553  GLY616  TRP617  ASP618  TYR619  PRO620  LYS621  CYS622 
 ASP623  PHE694  ASN695  SER759  ASP760  ASP761  ALA762  ILE779  LEU786  VAL792 
 PHE793  MET794  SER795  GLU796  ALA797  LYS798  CYS799  TRP800  GLU811  SER814 

> <Gold.Protein.RotatedAtoms>
  150.8105  134.7257  159.6683 H   0  0  0  0  0  0  0  0  0  0  0  0  # atno 6907 bound_to 6896
  152.4225  134.5926  159.9988 H   0  0  0  0  0  0  0  0  0  0  0  0  # atno 6908 bound_to 6896
  151.6137  133.3308  159.3109 H   0  0  0  0  0  0  0  0  0  0  0  0  # atno 6909 bound_to 6896
  146.2431  140.1205  142.8341 H   0  0  0  0  0  0  0  0  0  0  0  0  # atno 7974 bound_to 7965
  154.4617  140.0952  156.6912 H   0  0  0  0  0  0  0  0  0  0  0  0  # atno 8008 bound_to 7997
  155.4974  140.3472  155.4347 H   0  0  0  0  0  0  0  0  0  0  0  0  # atno 8009 bound_to 7997
  156.0883  140.1390  156.9613 H   0  0  0  0  0  0  0  0  0  0  0  0  # atno 8010 bound_to 7997
  140.6333  143.7943  150.7325 H   0  0  0  0  0  0  0  0  0  0  0  0  # atno 10167 bound_to 10162
  156.0249  130.4413  150.2866 H   0  0  0  0  0  0  0  0  0  0  0  0  # atno 10718 bound_to 10713
  153.1704  135.6811  153.8616 H   0  0  0  0  0  0  0  0  0  0  0  0  # atno 10763 bound_to 10752
  153.7981  135.3159  155.3388 H   0  0  0  0  0  0  0  0  0  0  0  0  # atno 10764 bound_to 10752
  154.7994  135.4787  154.0331 H   0  0  0  0  0  0  0  0  0  0  0  0  # atno 10765 bound_to 10752
  140.7962  133.8249  155.9426 H   0  0  0  0  0  0  0  0  0  0  0  0  # atno 11005 bound_to 11000
  145.0411  140.8946  143.5052 LP  0  0  0  0  0  0  0  0  0  0  0  0  # atno 17320 bound_to 7965
  145.1285  139.2647  143.5551 LP  0  0  0  0  0  0  0  0  0  0  0  0  # atno 17321 bound_to 7965
  140.1559  143.4317  152.2100 LP  0  0  0  0  0  0  0  0  0  0  0  0  # atno 17342 bound_to 10162
  139.5545  144.7363  151.4334 LP  0  0  0  0  0  0  0  0  0  0  0  0  # atno 17343 bound_to 10162
  157.0970  131.0185  151.3100 LP  0  0  0  0  0  0  0  0  0  0  0  0  # atno 17370 bound_to 10713
  157.4810  130.7765  149.7414 LP  0  0  0  0  0  0  0  0  0  0  0  0  # atno 17371 bound_to 10713
  140.9340  134.1985  157.4844 LP  0  0  0  0  0  0  0  0  0  0  0  0  # atno 17394 bound_to 11000
  139.8726  134.9844  156.5240 LP  0  0  0  0  0  0  0  0  0  0  0  0  # atno 17395 bound_to 11000

$$$$
