AV-unprocessed.smi:3287|AV-procd|sdf|12597|dock8
  -GOLD-   2272018523D 1   1.00000     0.00000
 Structure written by MMmdl.
 43 44  0  0  0  0  0  0  0  0  2 V2000
  151.2735  141.0622  157.6101 C   0  0  0  0  0  0  0  0  0  0  0  0
  150.3767  140.3787  156.5649 C   0  0  1  0  0  0  0  0  0  0  0  0
  149.9732  141.3458  155.4353 C   0  0  0  0  0  0  0  0  0  0  0  0
  149.0071  140.6829  154.4402 C   0  0  0  0  0  0  0  0  0  0  0  0
  149.5915  139.3786  153.8587 C   0  0  2  0  0  0  0  0  0  0  0  0
  148.6321  138.6979  152.9601 N   0  3  0  0  0  0  0  0  0  0  0  0
  147.2300  138.6602  153.4306 C   0  0  0  0  0  0  0  0  0  0  0  0
  146.2449  138.5507  152.2538 C   0  0  1  0  0  0  0  0  0  0  0  0
  146.9058  138.9360  151.0637 O   0  0  0  0  0  0  0  0  0  0  0  0
  145.6653  137.1480  152.1523 C   0  0  0  0  0  0  0  0  0  0  0  0
  145.8603  136.3555  150.9998 C   0  0  0  0  0  0  0  0  0  0  0  0
  145.3022  135.0618  150.9685 C   0  0  0  0  0  0  0  0  0  0  0  0
  144.5915  134.5368  151.9893 N   0  0  0  0  0  0  0  0  0  0  0  0
  144.4110  135.2970  153.0901 C   0  0  0  0  0  0  0  0  0  0  0  0
  144.9256  136.6024  153.2223 C   0  0  0  0  0  0  0  0  0  0  0  0
  149.9992  138.4220  154.9977 C   0  0  0  0  0  0  0  0  0  0  0  0
  150.9785  139.0662  156.0017 C   0  0  1  0  0  0  0  0  0  0  0  0
  152.3904  139.2224  155.4013 C   0  0  0  0  0  0  0  0  0  0  0  0
  152.1882  141.4544  157.1651 H   0  0  0  0  0  0  0  0  0  0  0  0
  151.5554  140.3678  158.4020 H   0  0  0  0  0  0  0  0  0  0  0  0
  150.7556  141.8997  158.0787 H   0  0  0  0  0  0  0  0  0  0  0  0
  149.4591  140.1038  157.0879 H   0  0  0  0  0  0  0  0  0  0  0  0
  149.5002  142.2326  155.8586 H   0  0  0  0  0  0  0  0  0  0  0  0
  150.8598  141.6992  154.9080 H   0  0  0  0  0  0  0  0  0  0  0  0
  148.0606  140.4725  154.9407 H   0  0  0  0  0  0  0  0  0  0  0  0
  148.7846  141.3942  153.6449 H   0  0  0  0  0  0  0  0  0  0  0  0
  150.4806  139.6162  153.2733 H   0  0  0  0  0  0  0  0  0  0  0  0
  148.6409  139.1893  152.0777 H   0  0  0  0  0  0  0  0  0  0  0  0
  147.0862  137.8237  154.1149 H   0  0  0  0  0  0  0  0  0  0  0  0
  147.0242  139.5729  153.9917 H   0  0  0  0  0  0  0  0  0  0  0  0
  145.4222  139.2507  152.4073 H   0  0  0  0  0  0  0  0  0  0  0  0
  147.5668  139.5761  151.2820 H   0  0  0  0  0  0  0  0  0  0  0  0
  146.4238  136.7249  150.1556 H   0  0  0  0  0  0  0  0  0  0  0  0
  145.4319  134.4316  150.1011 H   0  0  0  0  0  0  0  0  0  0  0  0
  143.8402  134.8515  153.8914 H   0  0  0  0  0  0  0  0  0  0  0  0
  144.7531  137.1669  154.1269 H   0  0  0  0  0  0  0  0  0  0  0  0
  149.1044  138.1042  155.5355 H   0  0  0  0  0  0  0  0  0  0  0  0
  150.4377  137.5125  154.5850 H   0  0  0  0  0  0  0  0  0  0  0  0
  151.0786  138.3703  156.8360 H   0  0  0  0  0  0  0  0  0  0  0  0
  152.4184  139.9553  154.5955 H   0  0  0  0  0  0  0  0  0  0  0  0
  152.7467  138.2751  154.9956 H   0  0  0  0  0  0  0  0  0  0  0  0
  153.1124  139.5336  156.1561 H   0  0  0  0  0  0  0  0  0  0  0  0
  148.9461  137.7512  152.7992 H   0  0  0  0  0  0  0  0  0  0  0  0
  1  2  1  0  0  0  0
  1 19  1  0  0  0  0
  1 20  1  0  0  0  0
  1 21  1  0  0  0  0
  2 17  1  0  0  0  0
  2  3  1  0  0  0  0
  2 22  1  0  0  0  0
  3  4  1  0  0  0  0
  3 23  1  0  0  0  0
  3 24  1  0  0  0  0
  4  5  1  0  0  0  0
  4 25  1  0  0  0  0
  4 26  1  0  0  0  0
  5  6  1  0  0  0  0
  5 16  1  0  0  0  0
  5 27  1  0  0  0  0
  6  7  1  0  0  0  0
  6 28  1  0  0  0  0
  6 43  1  0  0  0  0
  7  8  1  0  0  0  0
  7 29  1  0  0  0  0
  7 30  1  0  0  0  0
  8  9  1  0  0  0  0
  8 10  1  0  0  0  0
  8 31  1  0  0  0  0
  9 32  1  0  0  0  0
 10 15  1  0  0  0  0
 10 11  2  0  0  0  0
 11 12  1  0  0  0  0
 11 33  1  0  0  0  0
 12 13  2  0  0  0  0
 12 34  1  0  0  0  0
 13 14  1  0  0  0  0
 14 15  2  0  0  0  0
 14 35  1  0  0  0  0
 15 36  1  0  0  0  0
 16 17  1  0  0  0  0
 16 37  1  0  0  0  0
 16 38  1  0  0  0  0
 17 18  1  0  0  0  0
 17 39  1  0  0  0  0
 18 40  1  0  0  0  0
 18 41  1  0  0  0  0
 18 42  1  0  0  0  0
M  CHG  1   6   1
M  END
> <s_m_source_file>
AV-unprocessed.smi

> <i_m_source_file_index>
3287

> <i_lp_mmshare_version>
43012

> <i_f3d_flags>
0

> <s_epik_input>
W0NIM11bQ0BASF0xW0NIMl1bQ0gyXVtDQEhdKFtDSDJdW0NASF0xW0NIM10pW05IXVtDSDJdW0NASF0oW09IXSljMltjSF1bY0hdbltjSF1bY0hdMg==

> <s_epik_cmdline>
J2VwaWtfcHl0aG9uJywgJy1waCcsICc3LjAnLCAnLXRuJywgJzgnLCAnLW1hJywgJzIwMCcsICctbWV0YWxfYmluZGluZycsICctaW1hZScsICc8aW5maWxlLm1hZT4nLCAnLW9tYWUnLCAnPG91dGZpbGUubWFlPic=

> <r_lp_tautomer_probability>
1

> <r_epik_Ionization_Penalty>
0.00537262

> <r_epik_Ionization_Penalty_Charging>
0.00321624

> <r_epik_Ionization_Penalty_Neutral>
0.00215638

> <r_epik_State_Penalty>
-0

> <r_epik_Charging_Adjusted_Penalty>
0.00321624

> <i_epik_Tot_Q>
1

> <i_epik_Tot_abs_Q>
1

> <r_epik_Metal_State_Penalty>
-0

> <b_epik_Metal_Only>
0

> <s_lp_Force_Field>
OPLS_2005

> <r_lp_Energy>
18.2577

> <b_lp_Chiralities_Consistent>
1

> <s_lp_Variant>
AV-unprocessed.smi:3287-8

> <Gold.Version>
5.8.1

> <Gold.Id.Protein>
6NUR|6NUR_protein|mol2

> <Gold.PLP.Fitness>
46.6070

> <Gold.PLP.PLP>
-32.5966

> <Gold.PLP.part.hbond>
-3.7562

> <Gold.PLP.part.metal>
0.0000

> <Gold.PLP.part.buried>
0.6494

> <Gold.PLP.part.nonpolar>
-30.2197

> <Gold.PLP.part.repulsive>
0.2029

> <Gold.PLP.ligand.clash>
0.0000

> <Gold.PLP.ligand.torsion>
0.9435

> <Gold.PLP.Chemscore.Hbond>
4.2944

> <Gold.PLP.Chemscore.CHOScore>
0.9985

> <Gold.PLP.Chemscore.Metal>
0.0000

> <Gold.Chemscore.Hbonds>
donor molecule, donor type, donor heavy atom, donor atom, acceptor molecule, acceptor atom, score
      L1  H     6    28       P1  7957  0.83
      L1  H     6    43       P1  7948  2.00
      L1  H     9    32       P1  7957  0.84
      P1  H  7954  7966       L1     9  0.55
      L1  C    12    34       P1  7921  0.85

> <Gold.PLP.Chemscore.Internal.Correction>
0.0187

> <Gold.Rescore>
     Score         DG    S(hbond)    S(metal)    S(lipo)     H(rot)  DE(clash)    DE(int)     intcor
     19.22     -20.44       2.88        0.00      87.22       1.90       0.19       1.02       ----

> <Gold.Chemscore.Fitness>
19.2241

> <Gold.Chemscore.DG>
-20.4375

> <Gold.Chemscore.ZeroCoef>
-5.4800

> <Gold.Chemscore.Hbond>
2.8820

> <Gold.Chemscore.Metal>
0.0000

> <Gold.Chemscore.Lipo>
87.2163

> <Gold.Chemscore.Internal_Hbond>
0.0000

> <Gold.Chemscore.DEClash>
0.1894

> <Gold.Chemscore.DEInternal>
1.0240

> <Gold.Chemscore.Rot>
1.9035

> <Gold.Chemscore.Internal.Correction>
   9.000000E+99

> <Gold.Chemscore.Hbonds>
donor molecule, donor type, donor heavy atom, donor atom, acceptor molecule, acceptor atom, score
      L1  H     6    28       P1  7957  0.80
      L1  H     6    43       P1  7948  0.96
      L1  H     9    32       P1  7957  0.76
      P1  H  7954  7966       L1     9  0.05

> <Gold.Chemscore.Hbond.Weighted>
-9.6260

> <Gold.Chemscore.Metal.Weighted>
-0.0000

> <Gold.Chemscore.Lipo.Weighted>
-10.2043

> <Gold.Chemscore.Internal_Hbond.Weighted>
0.0000

> <Gold.Chemscore.DEClash.Weighted>
0.1894

> <Gold.Chemscore.DEInternal.Weighted>
1.0240

> <Gold.Chemscore.Rot.Weighted>
4.8729

> <Gold.Chemscore.Internal.Correction.Weighted>
   9.000000E+99

> <Gold.Protein.RotatedTorsions>
[ 6907 6896 6895 6894 ] final   79.52 input  -60.11 | X-H torsion
[ 7974 7965 7964 7962 ] final    8.09 input  175.53 | X-H torsion
[ 8008 7997 7996 7995 ] final -179.55 input   59.86 | X-H torsion
[ 10167 10162 10161 10158 ] final  167.72 input  -65.29 | X-H torsion
[ 10718 10713 10712 10709 ] final  124.74 input   66.30 | X-H torsion
[ 10763 10752 10751 10750 ] final -124.28 input  -60.55 | X-H torsion
[ 11005 11000 10999 10996 ] final -140.20 input  -57.11 | X-H torsion

> <Gold.Protein.ActiveResidues>
 VAL166  LYS551  ARG553  GLY616  TRP617  ASP618  TYR619  PRO620  LYS621  CYS622 
 ASP623  PHE694  ASN695  SER759  ASP760  ASP761  ALA762  ILE779  LEU786  VAL792 
 PHE793  MET794  SER795  GLU796  ALA797  LYS798  CYS799  TRP800  GLU811  SER814 

> <Gold.Protein.RotatedAtoms>
  152.5201  134.3498  159.9246 H   0  0  0  0  0  0  0  0  0  0  0  0  # atno 6907 bound_to 6896
  151.3449  133.3941  159.2682 H   0  0  0  0  0  0  0  0  0  0  0  0  # atno 6908 bound_to 6896
  150.9773  134.9154  159.7882 H   0  0  0  0  0  0  0  0  0  0  0  0  # atno 6909 bound_to 6896
  146.2420  139.9985  142.8418 H   0  0  0  0  0  0  0  0  0  0  0  0  # atno 7974 bound_to 7965
  156.0317  140.1283  157.0250 H   0  0  0  0  0  0  0  0  0  0  0  0  # atno 8008 bound_to 7997
  154.4353  140.1048  156.6180 H   0  0  0  0  0  0  0  0  0  0  0  0  # atno 8009 bound_to 7997
  155.5797  140.3468  155.4539 H   0  0  0  0  0  0  0  0  0  0  0  0  # atno 8010 bound_to 7997
  139.4951  144.3892  151.9536 H   0  0  0  0  0  0  0  0  0  0  0  0  # atno 10167 bound_to 10162
  157.5561  131.1092  150.8620 H   0  0  0  0  0  0  0  0  0  0  0  0  # atno 10718 bound_to 10713
  154.8721  135.4069  154.3079 H   0  0  0  0  0  0  0  0  0  0  0  0  # atno 10763 bound_to 10752
  153.3928  135.7015  153.6488 H   0  0  0  0  0  0  0  0  0  0  0  0  # atno 10764 bound_to 10752
  153.5263  135.3677  155.2626 H   0  0  0  0  0  0  0  0  0  0  0  0  # atno 10765 bound_to 10752
  140.8446  134.2361  157.4793 H   0  0  0  0  0  0  0  0  0  0  0  0  # atno 11005 bound_to 11000
  145.1437  140.9585  143.4473 LP  0  0  0  0  0  0  0  0  0  0  0  0  # atno 17320 bound_to 7965
  145.0271  139.3373  143.6043 LP  0  0  0  0  0  0  0  0  0  0  0  0  # atno 17321 bound_to 7965
  140.3329  144.3295  150.5983 LP  0  0  0  0  0  0  0  0  0  0  0  0  # atno 17342 bound_to 10162
  140.5630  143.2189  151.7732 LP  0  0  0  0  0  0  0  0  0  0  0  0  # atno 17343 bound_to 10162
  156.9131  130.5288  149.5280 LP  0  0  0  0  0  0  0  0  0  0  0  0  # atno 17370 bound_to 10713
  156.0619  130.5670  150.9211 LP  0  0  0  0  0  0  0  0  0  0  0  0  # atno 17371 bound_to 10713
  139.8703  134.9652  156.4522 LP  0  0  0  0  0  0  0  0  0  0  0  0  # atno 17394 bound_to 11000
  140.8858  133.7884  155.9517 LP  0  0  0  0  0  0  0  0  0  0  0  0  # atno 17395 bound_to 11000

$$$$
