AV-unprocessed.smi:3100|AV-procd|sdf|11806|dock2
  -GOLD-   2272017183D 1   1.00000     0.00000
 Structure written by MMmdl.
 28 29  0  0  0  0  0  0  0  0  1 V2000
  146.5602  142.8231  154.2122 C   0  0  0  0  0  0  0  0  0  0  0  0
  147.5026  141.6583  153.8921 C   0  0  2  0  0  0  0  0  0  0  0  0
  147.2506  140.4058  154.7239 C   0  0  0  0  0  0  0  0  0  0  0  0
  148.5680  139.6707  154.5809 C   0  0  0  0  0  0  0  0  0  0  0  0
  149.5988  140.8034  154.4236 C   0  0  2  0  0  0  0  0  0  0  0  0
  150.4893  141.0111  155.6544 C   0  0  0  0  0  0  0  0  0  0  0  0
  151.1994  140.0895  156.0587 O   0  0  0  0  0  0  0  0  0  0  0  0
  150.4153  142.2262  156.2282 N   0  0  0  0  0  0  0  0  0  0  0  0
  151.1070  142.6982  157.3748 C   0  0  0  0  0  0  0  0  0  0  0  0
  151.2653  144.1017  157.4624 C   0  0  0  0  0  0  0  0  0  0  0  0
  151.8987  144.7013  158.4950 N   0  0  0  0  0  0  0  0  0  0  0  0
  152.3825  143.8899  159.4598 C   0  0  0  0  0  0  0  0  0  0  0  0
  152.2337  142.4902  159.3896 C   0  0  0  0  0  0  0  0  0  0  0  0
  151.6006  141.8974  158.3540 N   0  0  0  0  0  0  0  0  0  0  0  0
  148.8420  141.9958  154.2205 O   0  0  0  0  0  0  0  0  0  0  0  0
  145.5256  142.5613  153.9902 H   0  0  0  0  0  0  0  0  0  0  0  0
  146.8159  143.7033  153.6221 H   0  0  0  0  0  0  0  0  0  0  0  0
  146.6181  143.1001  155.2654 H   0  0  0  0  0  0  0  0  0  0  0  0
  147.4547  141.4148  152.8293 H   0  0  0  0  0  0  0  0  0  0  0  0
  147.0827  140.6684  155.7697 H   0  0  0  0  0  0  0  0  0  0  0  0
  146.3966  139.8249  154.3744 H   0  0  0  0  0  0  0  0  0  0  0  0
  148.7608  139.0046  155.4233 H   0  0  0  0  0  0  0  0  0  0  0  0
  148.5563  139.0582  153.6785 H   0  0  0  0  0  0  0  0  0  0  0  0
  150.2135  140.6180  153.5410 H   0  0  0  0  0  0  0  0  0  0  0  0
  149.7910  142.8890  155.7923 H   0  0  0  0  0  0  0  0  0  0  0  0
  150.8794  144.7556  156.6937 H   0  0  0  0  0  0  0  0  0  0  0  0
  152.8898  144.3580  160.2902 H   0  0  0  0  0  0  0  0  0  0  0  0
  152.6225  141.8458  160.1641 H   0  0  0  0  0  0  0  0  0  0  0  0
  1  2  1  0  0  0  0
  1 16  1  0  0  0  0
  1 17  1  0  0  0  0
  1 18  1  0  0  0  0
  2 15  1  0  0  0  0
  2  3  1  0  0  0  0
  2 19  1  0  0  0  0
  3  4  1  0  0  0  0
  3 20  1  0  0  0  0
  3 21  1  0  0  0  0
  4  5  1  0  0  0  0
  4 22  1  0  0  0  0
  4 23  1  0  0  0  0
  5  6  1  0  0  0  0
  5 15  1  0  0  0  0
  5 24  1  0  0  0  0
  6  7  2  0  0  0  0
  6  8  1  0  0  0  0
  8  9  1  0  0  0  0
  8 25  1  0  0  0  0
  9 14  1  0  0  0  0
  9 10  2  0  0  0  0
 10 11  1  0  0  0  0
 10 26  1  0  0  0  0
 11 12  2  0  0  0  0
 12 13  1  0  0  0  0
 12 27  1  0  0  0  0
 13 14  2  0  0  0  0
 13 28  1  0  0  0  0
M  END
> <s_m_source_file>
AV-unprocessed.smi

> <i_m_source_file_index>
3100

> <i_lp_mmshare_version>
43012

> <i_f3d_flags>
0

> <s_epik_input>
W0NIM11bQ0BASF0xW0NIMl1bQ0gyXVtDQEhdKE8xKUMoPU8pW05IXWMyW2NIXW5bY0hdW2NIXW4y

> <s_epik_cmdline>
J2VwaWtfcHl0aG9uJywgJy1waCcsICc3LjAnLCAnLXRuJywgJzgnLCAnLW1hJywgJzIwMCcsICctbWV0YWxfYmluZGluZycsICctaW1hZScsICc8aW5maWxlLm1hZT4nLCAnLW9tYWUnLCAnPG91dGZpbGUubWFlPic=

> <r_lp_tautomer_probability>
1

> <r_epik_Ionization_Penalty>
2.81186e-06

> <r_epik_Ionization_Penalty_Charging>
0

> <r_epik_Ionization_Penalty_Neutral>
2.81186e-06

> <r_epik_State_Penalty>
-0

> <r_epik_Charging_Adjusted_Penalty>
0

> <i_epik_Tot_Q>
0

> <i_epik_Tot_abs_Q>
0

> <r_epik_Metal_State_Penalty>
-0

> <b_epik_Metal_Only>
0

> <s_lp_Force_Field>
OPLS_2005

> <r_lp_Energy>
25.9651

> <b_lp_Chiralities_Consistent>
1

> <s_lp_Variant>
AV-unprocessed.smi:3100-3

> <Gold.Version>
5.8.1

> <Gold.Id.Protein>
6NUR|6NUR_protein|mol2

> <Gold.PLP.Fitness>
37.3386

> <Gold.PLP.PLP>
-31.0799

> <Gold.PLP.part.hbond>
-2.0000

> <Gold.PLP.part.metal>
0.0000

> <Gold.PLP.part.buried>
-2.1279

> <Gold.PLP.part.nonpolar>
-26.9974

> <Gold.PLP.part.repulsive>
0.7056

> <Gold.PLP.ligand.clash>
0.0000

> <Gold.PLP.ligand.torsion>
0.1320

> <Gold.PLP.Chemscore.Hbond>
1.2181

> <Gold.PLP.Chemscore.CHOScore>
0.9537

> <Gold.PLP.Chemscore.Metal>
0.0000

> <Gold.Chemscore.Hbonds>
donor molecule, donor type, donor heavy atom, donor atom, acceptor molecule, acceptor atom, score
      L1  H     8    25       P1  8028  0.96
      P1  H  8011  8017       L1    15  0.20
      L1  C    10    26       P1  8028  1.00

> <Gold.PLP.Chemscore.Internal.Correction>
0.0073

> <Gold.Rescore>
     Score         DG    S(hbond)    S(metal)    S(lipo)     H(rot)  DE(clash)    DE(int)     intcor
     12.16     -13.76       0.92        0.00      66.48       1.00       0.30       1.30       ----

> <Gold.Chemscore.Fitness>
12.1586

> <Gold.Chemscore.DG>
-13.7595

> <Gold.Chemscore.ZeroCoef>
-5.4800

> <Gold.Chemscore.Hbond>
0.9167

> <Gold.Chemscore.Metal>
0.0000

> <Gold.Chemscore.Lipo>
66.4769

> <Gold.Chemscore.Internal_Hbond>
0.0000

> <Gold.Chemscore.DEClash>
0.2987

> <Gold.Chemscore.DEInternal>
1.3022

> <Gold.Chemscore.Rot>
1.0000

> <Gold.Chemscore.Internal.Correction>
   9.000000E+99

> <Gold.Chemscore.Hbonds>
donor molecule, donor type, donor heavy atom, donor atom, acceptor molecule, acceptor atom, score
      L1  H     8    25       P1  8028  0.88
      P1  H  8011  8017       L1    15  0.01

> <Gold.Chemscore.Hbond.Weighted>
-3.0617

> <Gold.Chemscore.Metal.Weighted>
-0.0000

> <Gold.Chemscore.Lipo.Weighted>
-7.7778

> <Gold.Chemscore.Internal_Hbond.Weighted>
0.0000

> <Gold.Chemscore.DEClash.Weighted>
0.2987

> <Gold.Chemscore.DEInternal.Weighted>
1.3022

> <Gold.Chemscore.Rot.Weighted>
2.5600

> <Gold.Chemscore.Internal.Correction.Weighted>
   9.000000E+99

> <Gold.Protein.RotatedTorsions>
[ 6907 6896 6895 6894 ] final  122.29 input  -60.11 | X-H torsion
[ 7974 7965 7964 7962 ] final  -43.24 input  175.53 | X-H torsion
[ 8008 7997 7996 7995 ] final  -55.15 input   59.86 | X-H torsion
[ 10167 10162 10161 10158 ] final  139.73 input  -65.29 | X-H torsion
[ 10718 10713 10712 10709 ] final -145.88 input   66.30 | X-H torsion
[ 10763 10752 10751 10750 ] final  147.75 input  -60.55 | X-H torsion
[ 11005 11000 10999 10996 ] final -140.03 input  -57.11 | X-H torsion

> <Gold.Protein.ActiveResidues>
 VAL166  LYS551  ARG553  GLY616  TRP617  ASP618  TYR619  PRO620  LYS621  CYS622 
 ASP623  PHE694  ASN695  SER759  ASP760  ASP761  ALA762  ILE779  LEU786  VAL792 
 PHE793  MET794  SER795  GLU796  ALA797  LYS798  CYS799  TRP800  GLU811  SER814 

> <Gold.Protein.RotatedAtoms>
  152.4254  133.7187  159.6520 H   0  0  0  0  0  0  0  0  0  0  0  0  # atno 6907 bound_to 6896
  150.8131  133.8375  159.3179 H   0  0  0  0  0  0  0  0  0  0  0  0  # atno 6908 bound_to 6896
  151.6079  135.1044  160.0126 H   0  0  0  0  0  0  0  0  0  0  0  0  # atno 6909 bound_to 6896
  146.0038  140.7043  142.9257 H   0  0  0  0  0  0  0  0  0  0  0  0  # atno 7974 bound_to 7965
  154.4185  140.1159  156.5431 H   0  0  0  0  0  0  0  0  0  0  0  0  # atno 8008 bound_to 7997
  155.6488  140.3496  155.4721 H   0  0  0  0  0  0  0  0  0  0  0  0  # atno 8009 bound_to 7997
  155.9810  140.1160  157.0716 H   0  0  0  0  0  0  0  0  0  0  0  0  # atno 8010 bound_to 7997
  139.5070  144.6277  151.5896 H   0  0  0  0  0  0  0  0  0  0  0  0  # atno 10167 bound_to 10162
  156.3879  130.7870  151.2070 H   0  0  0  0  0  0  0  0  0  0  0  0  # atno 10718 bound_to 10713
  154.0435  135.2887  155.3351 H   0  0  0  0  0  0  0  0  0  0  0  0  # atno 10763 bound_to 10752
  154.6914  135.5225  153.8401 H   0  0  0  0  0  0  0  0  0  0  0  0  # atno 10764 bound_to 10752
  153.0590  135.6606  154.0637 H   0  0  0  0  0  0  0  0  0  0  0  0  # atno 10765 bound_to 10752
  140.8463  134.2341  157.4784 H   0  0  0  0  0  0  0  0  0  0  0  0  # atno 11005 bound_to 11000
  144.6928  140.3280  143.7221 LP  0  0  0  0  0  0  0  0  0  0  0  0  # atno 17320 bound_to 7965
  145.7446  139.1775  143.2356 LP  0  0  0  0  0  0  0  0  0  0  0  0  # atno 17321 bound_to 7965
  140.5999  143.9628  150.6379 LP  0  0  0  0  0  0  0  0  0  0  0  0  # atno 17342 bound_to 10162
  140.2836  143.3372  152.1128 LP  0  0  0  0  0  0  0  0  0  0  0  0  # atno 17343 bound_to 10162
  157.7497  131.0324  150.4227 LP  0  0  0  0  0  0  0  0  0  0  0  0  # atno 17370 bound_to 10713
  156.4482  130.4006  149.6653 LP  0  0  0  0  0  0  0  0  0  0  0  0  # atno 17371 bound_to 10713
  139.8703  134.9661  156.4550 LP  0  0  0  0  0  0  0  0  0  0  0  0  # atno 17394 bound_to 11000
  140.8840  133.7897  155.9498 LP  0  0  0  0  0  0  0  0  0  0  0  0  # atno 17395 bound_to 11000

$$$$
