AV-unprocessed.smi:100|AV-procd|sdf|898|dock2
  -GOLD-   2262017393D 1   1.00000     0.00000
 Structure written by MMmdl.
 31 33  0  0  0  0  0  0  0  0  1 V2000
  151.7204  142.5498  161.7360 N   0  0  0  0  0  0  0  0  0  0  0  0
  150.9732  142.8789  160.6731 C   0  0  0  0  0  0  0  0  0  0  0  0
  150.1924  143.9816  160.7530 N   0  0  0  0  0  0  0  0  0  0  0  0
  149.4378  144.3304  159.7060 C   0  0  0  0  0  0  0  0  0  0  0  0
  149.3249  143.7270  158.5199 N   0  0  0  0  0  0  0  0  0  0  0  0
  150.1119  142.6142  158.4406 C   0  0  0  0  0  0  0  0  0  0  0  0
  150.9634  142.1271  159.4710 C   0  0  0  0  0  0  0  0  0  0  0  0
  151.6171  140.9801  159.0426 N   0  0  0  0  0  0  0  0  0  0  0  0
  151.1738  140.8022  157.8270 C   0  0  0  0  0  0  0  0  0  0  0  0
  150.2661  141.7388  157.3829 N   0  0  0  0  0  0  0  0  0  0  0  0
  149.5990  141.7883  156.0422 C   0  0  1  0  0  0  0  0  0  0  0  0
  150.1679  140.8420  155.1932 O   0  0  0  0  0  0  0  0  0  0  0  0
  149.1809  140.2815  154.3226 C   0  0  1  0  0  0  0  0  0  0  0  0
  149.1504  138.7579  154.5340 C   0  0  0  0  0  0  0  0  0  0  0  0
  148.6792  138.1151  153.3689 O   0  0  0  0  0  0  0  0  0  0  0  0
  147.8537  140.9572  154.7077 C   0  0  2  0  0  0  0  0  0  0  0  0
  147.6218  141.9799  153.8826 F   0  0  0  0  0  0  0  0  0  0  0  0
  148.0976  141.4968  156.1037 C   0  0  1  0  0  0  0  0  0  0  0  0
  147.7279  140.5581  157.0972 O   0  0  0  0  0  0  0  0  0  0  0  0
  152.3117  141.7317  161.7007 H   0  0  0  0  0  0  0  0  0  0  0  0
  151.6884  143.1179  162.5700 H   0  0  0  0  0  0  0  0  0  0  0  0
  148.8388  145.2197  159.8361 H   0  0  0  0  0  0  0  0  0  0  0  0
  151.5015  139.9754  157.2138 H   0  0  0  0  0  0  0  0  0  0  0  0
  149.8155  142.7848  155.6533 H   0  0  0  0  0  0  0  0  0  0  0  0
  149.4227  140.5076  153.2827 H   0  0  0  0  0  0  0  0  0  0  0  0
  150.1281  138.3690  154.8157 H   0  0  0  0  0  0  0  0  0  0  0  0
  148.4621  138.5035  155.3403 H   0  0  0  0  0  0  0  0  0  0  0  0
  149.4222  137.8800  152.8346 H   0  0  0  0  0  0  0  0  0  0  0  0
  146.9849  140.3012  154.6394 H   0  0  0  0  0  0  0  0  0  0  0  0
  147.5513  142.4218  156.2925 H   0  0  0  0  0  0  0  0  0  0  0  0
  147.1911  139.8929  156.6936 H   0  0  0  0  0  0  0  0  0  0  0  0
  1  2  1  0  0  0  0
  1 20  1  0  0  0  0
  1 21  1  0  0  0  0
  2  7  1  0  0  0  0
  2  3  2  0  0  0  0
  3  4  1  0  0  0  0
  4  5  2  0  0  0  0
  4 22  1  0  0  0  0
  5  6  1  0  0  0  0
  6 10  1  0  0  0  0
  6  7  2  0  0  0  0
  7  8  1  0  0  0  0
  8  9  2  0  0  0  0
  9 10  1  0  0  0  0
  9 23  1  0  0  0  0
 10 11  1  0  0  0  0
 11 18  1  0  0  0  0
 11 12  1  0  0  0  0
 11 24  1  0  0  0  0
 12 13  1  0  0  0  0
 13 14  1  0  0  0  0
 13 16  1  0  0  0  0
 13 25  1  0  0  0  0
 14 15  1  0  0  0  0
 14 26  1  0  0  0  0
 14 27  1  0  0  0  0
 15 28  1  0  0  0  0
 16 17  1  0  0  0  0
 16 18  1  0  0  0  0
 16 29  1  0  0  0  0
 18 19  1  0  0  0  0
 18 30  1  0  0  0  0
 19 31  1  0  0  0  0
M  END
> <s_m_source_file>
AV-unprocessed.smi

> <i_m_source_file_index>
100

> <i_lp_mmshare_version>
43012

> <i_f3d_flags>
0

> <s_epik_input>
bjFbY0hdbmMoW05IMl0pYyhjMTIpbltjSF1uMltDQEBIXTNPW0NAQEhdKFtDSDJdW09IXSlbQ0BIXShGKVtDQEhdM1tPSF0=

> <s_epik_cmdline>
J2VwaWtfcHl0aG9uJywgJy1waCcsICc3LjAnLCAnLXRuJywgJzgnLCAnLW1hJywgJzIwMCcsICctbWV0YWxfYmluZGluZycsICctaW1hZScsICc8aW5maWxlLm1hZT4nLCAnLW9tYWUnLCAnPG91dGZpbGUubWFlPic=

> <r_lp_tautomer_probability>
1

> <r_epik_Ionization_Penalty>
0.000750324

> <r_epik_Ionization_Penalty_Charging>
0

> <r_epik_Ionization_Penalty_Neutral>
0.000750324

> <r_epik_State_Penalty>
-0

> <r_epik_Charging_Adjusted_Penalty>
0

> <i_epik_Tot_Q>
0

> <i_epik_Tot_abs_Q>
0

> <r_epik_Metal_State_Penalty>
-0

> <b_epik_Metal_Only>
0

> <s_epik_Chemistry_Notes>
This compound contains an acetal/aminal-like group ( X-CH(R)-Y where X, Y are N, S, or O) that may be acid/base labile, releasing an aldehyde.

> <s_lp_Force_Field>
OPLS_2005

> <r_lp_Energy>
37.0589

> <b_lp_Chiralities_Consistent>
1

> <s_lp_Variant>
AV-unprocessed.smi:100-2

> <Gold.Version>
5.8.1

> <Gold.Id.Protein>
6NUR|6NUR_protein|mol2

> <Gold.PLP.Fitness>
40.5949

> <Gold.PLP.PLP>
-32.6981

> <Gold.PLP.part.hbond>
-3.0000

> <Gold.PLP.part.metal>
0.0000

> <Gold.PLP.part.buried>
-5.5846

> <Gold.PLP.part.nonpolar>
-24.3120

> <Gold.PLP.part.repulsive>
0.2561

> <Gold.PLP.ligand.clash>
0.0000

> <Gold.PLP.ligand.torsion>
0.4690

> <Gold.PLP.Chemscore.Hbond>
2.9440

> <Gold.PLP.Chemscore.CHOScore>
0.0000

> <Gold.PLP.Chemscore.Metal>
0.0000

> <Gold.Chemscore.Hbonds>
donor molecule, donor type, donor heavy atom, donor atom, acceptor molecule, acceptor atom, score
      L1  H    15    28       P1  7948  0.19
      P1  H  7989  7998       L1    12  0.20
      L1  C     4    22       P1  8029  0.15

> <Gold.PLP.Chemscore.Internal.Correction>
0.0029

> <Gold.Rescore>
     Score         DG    S(hbond)    S(metal)    S(lipo)     H(rot)  DE(clash)    DE(int)     intcor
      7.34      -7.93       2.12        0.00      30.12       3.19       0.13       0.46       ----

> <Gold.Chemscore.Fitness>
7.3377

> <Gold.Chemscore.DG>
-7.9287

> <Gold.Chemscore.ZeroCoef>
-5.4800

> <Gold.Chemscore.Hbond>
2.1231

> <Gold.Chemscore.Metal>
0.0000

> <Gold.Chemscore.Lipo>
30.1228

> <Gold.Chemscore.Internal_Hbond>
0.0000

> <Gold.Chemscore.DEClash>
0.1309

> <Gold.Chemscore.DEInternal>
0.4601

> <Gold.Chemscore.Rot>
3.1901

> <Gold.Chemscore.Internal.Correction>
   9.000000E+99

> <Gold.Chemscore.Hbonds>
donor molecule, donor type, donor heavy atom, donor atom, acceptor molecule, acceptor atom, score
      L1  H    15    28       P1  7948  0.16
      P1  H  7989  7998       L1    12  0.01

> <Gold.Chemscore.Hbond.Weighted>
-7.0910

> <Gold.Chemscore.Metal.Weighted>
-0.0000

> <Gold.Chemscore.Lipo.Weighted>
-3.5244

> <Gold.Chemscore.Internal_Hbond.Weighted>
0.0000

> <Gold.Chemscore.DEClash.Weighted>
0.1309

> <Gold.Chemscore.DEInternal.Weighted>
0.4601

> <Gold.Chemscore.Rot.Weighted>
8.1667

> <Gold.Chemscore.Internal.Correction.Weighted>
   9.000000E+99

> <Gold.Protein.RotatedTorsions>
[ 6907 6896 6895 6894 ] final -121.47 input  -60.11 | X-H torsion
[ 7974 7965 7964 7962 ] final  -31.95 input  175.53 | X-H torsion
[ 8008 7997 7996 7995 ] final   36.36 input   59.86 | X-H torsion
[ 10167 10162 10161 10158 ] final  -89.74 input  -65.29 | X-H torsion
[ 10718 10713 10712 10709 ] final  147.78 input   66.30 | X-H torsion
[ 10763 10752 10751 10750 ] final  -76.81 input  -60.55 | X-H torsion
[ 11005 11000 10999 10996 ] final   67.89 input  -57.11 | X-H torsion

> <Gold.Protein.ActiveResidues>
 VAL166  LYS551  ARG553  GLY616  TRP617  ASP618  TYR619  PRO620  LYS621  CYS622 
 ASP623  PHE694  ASN695  SER759  ASP760  ASP761  ALA762  ILE779  LEU786  VAL792 
 PHE793  MET794  SER795  GLU796  ALA797  LYS798  CYS799  TRP800  GLU811  SER814 

> <Gold.Protein.RotatedAtoms>
  150.8486  133.7822  159.3033 H   0  0  0  0  0  0  0  0  0  0  0  0  # atno 6907 bound_to 6896
  151.5501  135.1066  159.9957 H   0  0  0  0  0  0  0  0  0  0  0  0  # atno 6908 bound_to 6896
  152.4534  133.7631  159.6814 H   0  0  0  0  0  0  0  0  0  0  0  0  # atno 6909 bound_to 6896
  146.1028  140.5731  142.8813 H   0  0  0  0  0  0  0  0  0  0  0  0  # atno 7974 bound_to 7965
  155.1861  140.3304  155.4366 H   0  0  0  0  0  0  0  0  0  0  0  0  # atno 8008 bound_to 7997
  156.2459  140.1918  156.6907 H   0  0  0  0  0  0  0  0  0  0  0  0  # atno 8009 bound_to 7997
  154.6238  140.0592  156.9634 H   0  0  0  0  0  0  0  0  0  0  0  0  # atno 8010 bound_to 7997
  140.3619  143.2838  151.9605 H   0  0  0  0  0  0  0  0  0  0  0  0  # atno 10167 bound_to 10162
  157.3167  131.0897  151.1273 H   0  0  0  0  0  0  0  0  0  0  0  0  # atno 10718 bound_to 10713
  154.5048  135.5785  153.6558 H   0  0  0  0  0  0  0  0  0  0  0  0  # atno 10763 bound_to 10752
  152.9885  135.6144  154.2956 H   0  0  0  0  0  0  0  0  0  0  0  0  # atno 10764 bound_to 10752
  154.2866  135.2849  155.2653 H   0  0  0  0  0  0  0  0  0  0  0  0  # atno 10765 bound_to 10752
  139.9744  134.6847  156.0383 H   0  0  0  0  0  0  0  0  0  0  0  0  # atno 11005 bound_to 11000
  144.7446  140.5034  143.6845 LP  0  0  0  0  0  0  0  0  0  0  0  0  # atno 17320 bound_to 7965
  145.5821  139.1489  143.3229 LP  0  0  0  0  0  0  0  0  0  0  0  0  # atno 17321 bound_to 7965
  139.4813  144.5985  151.7647 LP  0  0  0  0  0  0  0  0  0  0  0  0  # atno 17342 bound_to 10162
  140.5119  144.1012  150.5997 LP  0  0  0  0  0  0  0  0  0  0  0  0  # atno 17343 bound_to 10162
  157.2574  130.6642  149.5959 LP  0  0  0  0  0  0  0  0  0  0  0  0  # atno 17370 bound_to 10713
  155.9682  130.4519  150.5754 LP  0  0  0  0  0  0  0  0  0  0  0  0  # atno 17371 bound_to 10713
  141.1422  133.6562  156.3762 LP  0  0  0  0  0  0  0  0  0  0  0  0  # atno 17394 bound_to 11000
  140.5226  134.6290  157.5323 LP  0  0  0  0  0  0  0  0  0  0  0  0  # atno 17395 bound_to 11000

$$$$
