AV-unprocessed.smi:3283|AV-procd|sdf|12569|dock1
  -GOLD-   2272018483D 1   1.00000     0.00000
 Structure written by MMmdl.
 44 45  0  0  0  0  0  0  0  0  2 V2000
  151.7437  145.7225  160.2661 C   0  0  0  0  0  0  0  0  0  0  0  0
  152.0615  144.2582  160.5194 C   0  0  0  0  0  0  0  0  0  0  0  0
  152.5153  143.8731  161.7275 C   0  0  0  0  0  0  0  0  0  0  0  0
  152.9352  142.4626  162.0702 C   0  0  0  0  0  0  0  0  0  0  0  0
  153.2659  141.6666  160.8056 C   0  0  0  0  0  0  0  0  0  0  0  0
  152.1476  141.7869  159.7575 C   0  0  2  0  0  0  0  0  0  0  0  0
  152.4847  140.8971  158.5450 C   0  0  0  0  0  0  0  0  0  0  0  0
  151.8709  143.2678  159.3518 C   0  0  1  0  0  0  0  0  0  0  0  0
  150.4734  143.3849  158.6874 C   0  0  0  0  0  0  0  0  0  0  0  0
  150.4997  143.0842  157.2418 N   0  3  0  0  0  0  0  0  0  0  0  0
  149.9281  141.7713  156.8835 C   0  0  0  0  0  0  0  0  0  0  0  0
  150.1348  141.4488  155.3958 C   0  0  0  0  0  0  0  0  0  0  0  0
  148.8654  141.1211  154.6701 C   0  0  0  0  0  0  0  0  0  0  0  0
  147.7744  141.9090  154.4305 C   0  0  0  0  0  0  0  0  0  0  0  0
  146.8811  141.0611  153.7203 C   0  0  0  0  0  0  0  0  0  0  0  0
  147.3736  139.8488  153.5367 N   0  0  0  0  0  0  0  0  0  0  0  0
  148.5942  139.8821  154.1119 N   0  0  0  0  0  0  0  0  0  0  0  0
  149.4147  138.6854  154.0801 C   0  0  0  0  0  0  0  0  0  0  0  0
  152.2526  146.0729  159.3686 H   0  0  0  0  0  0  0  0  0  0  0  0
  152.0742  146.3482  161.0960 H   0  0  0  0  0  0  0  0  0  0  0  0
  150.6711  145.8764  160.1517 H   0  0  0  0  0  0  0  0  0  0  0  0
  152.6126  144.5974  162.5235 H   0  0  0  0  0  0  0  0  0  0  0  0
  153.8085  142.4976  162.7222 H   0  0  0  0  0  0  0  0  0  0  0  0
  152.1326  141.9852  162.6330 H   0  0  0  0  0  0  0  0  0  0  0  0
  154.2037  142.0301  160.3819 H   0  0  0  0  0  0  0  0  0  0  0  0
  153.4320  140.6216  161.0700 H   0  0  0  0  0  0  0  0  0  0  0  0
  151.2419  141.3889  160.2185 H   0  0  0  0  0  0  0  0  0  0  0  0
  153.3799  141.2512  158.0325 H   0  0  0  0  0  0  0  0  0  0  0  0
  151.6782  140.8630  157.8142 H   0  0  0  0  0  0  0  0  0  0  0  0
  152.6714  139.8687  158.8563 H   0  0  0  0  0  0  0  0  0  0  0  0
  152.6246  143.5442  158.6128 H   0  0  0  0  0  0  0  0  0  0  0  0
  149.7632  142.6953  159.1408 H   0  0  0  0  0  0  0  0  0  0  0  0
  150.0712  144.3864  158.8478 H   0  0  0  0  0  0  0  0  0  0  0  0
  149.9790  143.8024  156.7586 H   0  0  0  0  0  0  0  0  0  0  0  0
  150.3848  140.9956  157.4998 H   0  0  0  0  0  0  0  0  0  0  0  0
  148.8616  141.7754  157.1119 H   0  0  0  0  0  0  0  0  0  0  0  0
  150.5997  142.3094  154.9137 H   0  0  0  0  0  0  0  0  0  0  0  0
  150.8548  140.6371  155.2930 H   0  0  0  0  0  0  0  0  0  0  0  0
  147.6338  142.9395  154.7216 H   0  0  0  0  0  0  0  0  0  0  0  0
  145.8966  141.2880  153.3382 H   0  0  0  0  0  0  0  0  0  0  0  0
  150.4345  138.9372  153.7891 H   0  0  0  0  0  0  0  0  0  0  0  0
  149.0184  137.9687  153.3590 H   0  0  0  0  0  0  0  0  0  0  0  0
  149.4242  138.2206  155.0653 H   0  0  0  0  0  0  0  0  0  0  0  0
  151.4588  143.1140  156.9262 H   0  0  0  0  0  0  0  0  0  0  0  0
  1  2  1  0  0  0  0
  1 19  1  0  0  0  0
  1 20  1  0  0  0  0
  1 21  1  0  0  0  0
  2  8  1  0  0  0  0
  2  3  2  0  0  0  0
  3  4  1  0  0  0  0
  3 22  1  0  0  0  0
  4  5  1  0  0  0  0
  4 23  1  0  0  0  0
  4 24  1  0  0  0  0
  5  6  1  0  0  0  0
  5 25  1  0  0  0  0
  5 26  1  0  0  0  0
  6  7  1  0  0  0  0
  6  8  1  0  0  0  0
  6 27  1  0  0  0  0
  7 28  1  0  0  0  0
  7 29  1  0  0  0  0
  7 30  1  0  0  0  0
  8  9  1  0  0  0  0
  8 31  1  0  0  0  0
  9 10  1  0  0  0  0
  9 32  1  0  0  0  0
  9 33  1  0  0  0  0
 10 11  1  0  0  0  0
 10 34  1  0  0  0  0
 10 44  1  0  0  0  0
 11 12  1  0  0  0  0
 11 35  1  0  0  0  0
 11 36  1  0  0  0  0
 12 13  1  0  0  0  0
 12 37  1  0  0  0  0
 12 38  1  0  0  0  0
 13 17  1  0  0  0  0
 13 14  2  0  0  0  0
 14 15  1  0  0  0  0
 14 39  1  0  0  0  0
 15 16  2  0  0  0  0
 15 40  1  0  0  0  0
 16 17  1  0  0  0  0
 17 18  1  0  0  0  0
 18 41  1  0  0  0  0
 18 42  1  0  0  0  0
 18 43  1  0  0  0  0
M  CHG  1  10   1
M  END
> <s_m_source_file>
AV-unprocessed.smi

> <i_m_source_file_index>
3283

> <i_lp_mmshare_version>
43012

> <i_f3d_flags>
0

> <s_epik_input>
W0NIM11DMT1bQ0hdW0NIMl1bQ0gyXVtDQEBIXShbQ0gzXSlbQ0BIXTFbQ0gyXVtOSF1bQ0gyXVtDSDJdYzJbY0hdW2NIXW5uMltDSDNd

> <s_epik_cmdline>
J2VwaWtfcHl0aG9uJywgJy1waCcsICc3LjAnLCAnLXRuJywgJzgnLCAnLW1hJywgJzIwMCcsICctbWV0YWxfYmluZGluZycsICctaW1hZScsICc8aW5maWxlLm1hZT4nLCAnLW9tYWUnLCAnPG91dGZpbGUubWFlPic=

> <r_lp_tautomer_probability>
1

> <r_epik_Ionization_Penalty>
0.000866911

> <r_epik_Ionization_Penalty_Charging>
0.000836385

> <r_epik_Ionization_Penalty_Neutral>
3.05258e-05

> <r_epik_State_Penalty>
-0

> <r_epik_Charging_Adjusted_Penalty>
0.000836385

> <i_epik_Tot_Q>
1

> <i_epik_Tot_abs_Q>
1

> <r_epik_Metal_State_Penalty>
-0

> <b_epik_Metal_Only>
0

> <s_lp_Force_Field>
OPLS_2005

> <r_lp_Energy>
14.6109

> <b_lp_Chiralities_Consistent>
1

> <s_lp_Variant>
AV-unprocessed.smi:3283-2

> <Gold.Version>
5.8.1

> <Gold.Id.Protein>
6NUR|6NUR_protein|mol2

> <Gold.PLP.Fitness>
53.8392

> <Gold.PLP.PLP>
-46.8421

> <Gold.PLP.part.hbond>
-1.0000

> <Gold.PLP.part.metal>
0.0000

> <Gold.PLP.part.buried>
-3.9893

> <Gold.PLP.part.nonpolar>
-42.6981

> <Gold.PLP.part.repulsive>
0.1933

> <Gold.PLP.ligand.clash>
0.0000

> <Gold.PLP.ligand.torsion>
1.0671

> <Gold.PLP.Chemscore.Hbond>
2.0000

> <Gold.PLP.Chemscore.CHOScore>
0.9950

> <Gold.PLP.Chemscore.Metal>
0.0000

> <Gold.Chemscore.Hbonds>
donor molecule, donor type, donor heavy atom, donor atom, acceptor molecule, acceptor atom, score
      L1  H    10    34       P1  8028  2.00
      L1  C    15    40       P1 10175  1.00

> <Gold.PLP.Chemscore.Internal.Correction>
0.1464

> <Gold.Rescore>
     Score         DG    S(hbond)    S(metal)    S(lipo)     H(rot)  DE(clash)    DE(int)     intcor
     20.10     -21.29       1.00        0.00     139.10       1.48       0.14       1.05       ----

> <Gold.Chemscore.Fitness>
20.1041

> <Gold.Chemscore.DG>
-21.2916

> <Gold.Chemscore.ZeroCoef>
-5.4800

> <Gold.Chemscore.Hbond>
0.9992

> <Gold.Chemscore.Metal>
0.0000

> <Gold.Chemscore.Lipo>
139.1040

> <Gold.Chemscore.Internal_Hbond>
0.0000

> <Gold.Chemscore.DEClash>
0.1360

> <Gold.Chemscore.DEInternal>
1.0515

> <Gold.Chemscore.Rot>
1.4847

> <Gold.Chemscore.Internal.Correction>
   9.000000E+99

> <Gold.Chemscore.Hbonds>
donor molecule, donor type, donor heavy atom, donor atom, acceptor molecule, acceptor atom, score
      L1  H    10    34       P1  8028  1.00

> <Gold.Chemscore.Hbond.Weighted>
-3.3372

> <Gold.Chemscore.Metal.Weighted>
-0.0000

> <Gold.Chemscore.Lipo.Weighted>
-16.2752

> <Gold.Chemscore.Internal_Hbond.Weighted>
0.0000

> <Gold.Chemscore.DEClash.Weighted>
0.1360

> <Gold.Chemscore.DEInternal.Weighted>
1.0515

> <Gold.Chemscore.Rot.Weighted>
3.8008

> <Gold.Chemscore.Internal.Correction.Weighted>
   9.000000E+99

> <Gold.Protein.RotatedTorsions>
[ 6907 6896 6895 6894 ] final  109.36 input  -60.11 | X-H torsion
[ 7974 7965 7964 7962 ] final -115.84 input  175.53 | X-H torsion
[ 8008 7997 7996 7995 ] final -110.23 input   59.86 | X-H torsion
[ 10167 10162 10161 10158 ] final  140.78 input  -65.29 | X-H torsion
[ 10718 10713 10712 10709 ] final   89.17 input   66.30 | X-H torsion
[ 10763 10752 10751 10750 ] final   71.73 input  -60.55 | X-H torsion
[ 11005 11000 10999 10996 ] final -108.22 input  -57.11 | X-H torsion

> <Gold.Protein.ActiveResidues>
 VAL166  LYS551  ARG553  GLY616  TRP617  ASP618  TYR619  PRO620  LYS621  CYS622 
 ASP623  PHE694  ASN695  SER759  ASP760  ASP761  ALA762  ILE779  LEU786  VAL792 
 PHE793  MET794  SER795  GLU796  ALA797  LYS798  CYS799  TRP800  GLU811  SER814 

> <Gold.Protein.RotatedAtoms>
  152.5071  133.8955  159.7414 H   0  0  0  0  0  0  0  0  0  0  0  0  # atno 6907 bound_to 6896
  150.9384  133.6677  159.2803 H   0  0  0  0  0  0  0  0  0  0  0  0  # atno 6908 bound_to 6896
  151.3997  135.0974  159.9604 H   0  0  0  0  0  0  0  0  0  0  0  0  # atno 6909 bound_to 6896
  145.1037  140.8568  143.3911 H   0  0  0  0  0  0  0  0  0  0  0  0  # atno 7974 bound_to 7965
  154.9714  140.0397  157.2236 H   0  0  0  0  0  0  0  0  0  0  0  0  # atno 8008 bound_to 7997
  154.7797  140.2816  155.6051 H   0  0  0  0  0  0  0  0  0  0  0  0  # atno 8009 bound_to 7997
  156.2934  140.2594  156.2620 H   0  0  0  0  0  0  0  0  0  0  0  0  # atno 8010 bound_to 7997
  139.5039  144.6213  151.6045 H   0  0  0  0  0  0  0  0  0  0  0  0  # atno 10167 bound_to 10162
  157.6954  131.0323  150.3385 H   0  0  0  0  0  0  0  0  0  0  0  0  # atno 10718 bound_to 10713
  153.0416  135.5126  154.7637 H   0  0  0  0  0  0  0  0  0  0  0  0  # atno 10763 bound_to 10752
  154.6570  135.2933  154.9918 H   0  0  0  0  0  0  0  0  0  0  0  0  # atno 10764 bound_to 10752
  154.0782  135.6668  153.4886 H   0  0  0  0  0  0  0  0  0  0  0  0  # atno 10765 bound_to 10752
  141.0913  133.9050  157.2069 H   0  0  0  0  0  0  0  0  0  0  0  0  # atno 11005 bound_to 11000
  145.0926  139.2879  143.5727 LP  0  0  0  0  0  0  0  0  0  0  0  0  # atno 17320 bound_to 7965
  146.3529  140.0467  142.8639 LP  0  0  0  0  0  0  0  0  0  0  0  0  # atno 17321 bound_to 7965
  140.5916  143.9770  150.6328 LP  0  0  0  0  0  0  0  0  0  0  0  0  # atno 17342 bound_to 10162
  140.2952  143.3297  152.1024 LP  0  0  0  0  0  0  0  0  0  0  0  0  # atno 17343 bound_to 10162
  156.3849  130.3887  149.7073 LP  0  0  0  0  0  0  0  0  0  0  0  0  # atno 17370 bound_to 10713
  156.4443  130.7876  151.2897 LP  0  0  0  0  0  0  0  0  0  0  0  0  # atno 17371 bound_to 10713
  139.9739  135.0120  156.9582 LP  0  0  0  0  0  0  0  0  0  0  0  0  # atno 17394 bound_to 11000
  140.5246  134.0874  155.7300 LP  0  0  0  0  0  0  0  0  0  0  0  0  # atno 17395 bound_to 11000

$$$$
