AV-unprocessed.smi:1239|AV-procd|sdf|5192|dock8
  -GOLD-   22720 4273D 1   1.00000     0.00000
 Structure written by MMmdl.
 48 49  0  0  0  0  0  0  0  0  2 V2000
  146.1908  137.9620  151.0987 C   0  0  0  0  0  0  0  0  0  0  0  0
  146.2939  138.3545  152.5938 C   0  0  1  0  0  0  0  0  0  0  0  0
  146.9859  139.7363  152.7381 C   0  0  0  0  0  0  0  0  0  0  0  0
  148.2751  139.6476  153.4152 N   0  0  0  0  0  0  0  0  0  0  0  0
  148.6182  140.3768  154.4850 C   0  0  0  0  0  0  0  0  0  0  0  0
  147.8680  141.2035  155.0019 O   0  0  0  0  0  0  0  0  0  0  0  0
  149.8626  140.0756  154.8955 N   0  0  0  0  0  0  0  0  0  0  0  0
  150.6077  140.5958  155.9904 C   0  0  0  0  0  0  0  0  0  0  0  0
  150.2655  141.7487  156.7353 C   0  0  0  0  0  0  0  0  0  0  0  0
  151.0995  142.1504  157.7965 C   0  0  0  0  0  0  0  0  0  0  0  0
  152.2603  141.3950  158.0949 C   0  0  0  0  0  0  0  0  0  0  0  0
  153.1267  141.7587  159.1511 N   0  0  0  0  0  0  0  0  0  0  0  0
  152.9833  143.0619  159.7923 C   0  0  0  0  0  0  0  0  0  0  0  0
  154.1417  140.8242  159.6221 C   0  0  0  0  0  0  0  0  0  0  0  0
  152.5835  140.2926  157.3761 N   0  0  0  0  0  0  0  0  0  0  0  0
  151.7822  139.9115  156.3602 C   0  0  0  0  0  0  0  0  0  0  0  0
  144.9539  138.3183  153.2721 N   0  3  0  0  0  0  0  0  0  0  0  0
  144.1053  137.1662  152.8539 C   0  0  0  0  0  0  0  0  0  0  0  0
  142.7456  137.1694  153.5722 C   0  0  0  0  0  0  0  0  0  0  0  0
  142.9457  137.1589  154.9761 O   0  0  0  0  0  0  0  0  0  0  0  0
  143.6325  138.3240  155.4024 C   0  0  0  0  0  0  0  0  0  0  0  0
  145.0292  138.3694  154.7602 C   0  0  0  0  0  0  0  0  0  0  0  0
  147.1433  138.0576  150.5785 H   0  0  0  0  0  0  0  0  0  0  0  0
  145.4690  138.5890  150.5742 H   0  0  0  0  0  0  0  0  0  0  0  0
  145.8991  136.9214  150.9635 H   0  0  0  0  0  0  0  0  0  0  0  0
  146.9280  137.6150  153.0858 H   0  0  0  0  0  0  0  0  0  0  0  0
  147.1215  140.1923  151.7558 H   0  0  0  0  0  0  0  0  0  0  0  0
  146.3841  140.4205  153.3347 H   0  0  0  0  0  0  0  0  0  0  0  0
  148.9465  138.9893  153.0474 H   0  0  0  0  0  0  0  0  0  0  0  0
  150.3390  139.3649  154.3598 H   0  0  0  0  0  0  0  0  0  0  0  0
  149.3892  142.3395  156.5248 H   0  0  0  0  0  0  0  0  0  0  0  0
  150.8294  143.0304  158.3600 H   0  0  0  0  0  0  0  0  0  0  0  0
  153.1019  143.8637  159.0627 H   0  0  0  0  0  0  0  0  0  0  0  0
  153.7328  143.2075  160.5706 H   0  0  0  0  0  0  0  0  0  0  0  0
  151.9996  143.1555  160.2537 H   0  0  0  0  0  0  0  0  0  0  0  0
  153.6798  139.9001  159.9709 H   0  0  0  0  0  0  0  0  0  0  0  0
  154.7136  141.2424  160.4507 H   0  0  0  0  0  0  0  0  0  0  0  0
  154.8429  140.5845  158.8222 H   0  0  0  0  0  0  0  0  0  0  0  0
  152.0925  139.0259  155.8247 H   0  0  0  0  0  0  0  0  0  0  0  0
  143.9000  137.1984  151.7854 H   0  0  0  0  0  0  0  0  0  0  0  0
  144.6315  136.2322  153.0564 H   0  0  0  0  0  0  0  0  0  0  0  0
  142.1515  138.0370  153.2802 H   0  0  0  0  0  0  0  0  0  0  0  0
  142.1731  136.2848  153.2929 H   0  0  0  0  0  0  0  0  0  0  0  0
  143.0575  139.2165  155.1503 H   0  0  0  0  0  0  0  0  0  0  0  0
  143.7211  138.3016  156.4888 H   0  0  0  0  0  0  0  0  0  0  0  0
  145.6346  137.5382  155.1250 H   0  0  0  0  0  0  0  0  0  0  0  0
  145.5010  139.2895  155.0995 H   0  0  0  0  0  0  0  0  0  0  0  0
  144.4630  139.1529  152.9837 H   0  0  0  0  0  0  0  0  0  0  0  0
  1  2  1  0  0  0  0
  1 23  1  0  0  0  0
  1 24  1  0  0  0  0
  1 25  1  0  0  0  0
  2  3  1  0  0  0  0
  2 17  1  0  0  0  0
  2 26  1  0  0  0  0
  3  4  1  0  0  0  0
  3 27  1  0  0  0  0
  3 28  1  0  0  0  0
  4  5  1  0  0  0  0
  4 29  1  0  0  0  0
  5  6  2  0  0  0  0
  5  7  1  0  0  0  0
  7  8  1  0  0  0  0
  7 30  1  0  0  0  0
  8 16  1  0  0  0  0
  8  9  2  0  0  0  0
  9 10  1  0  0  0  0
  9 31  1  0  0  0  0
 10 11  2  0  0  0  0
 10 32  1  0  0  0  0
 11 12  1  0  0  0  0
 11 15  1  0  0  0  0
 12 13  1  0  0  0  0
 12 14  1  0  0  0  0
 13 33  1  0  0  0  0
 13 34  1  0  0  0  0
 13 35  1  0  0  0  0
 14 36  1  0  0  0  0
 14 37  1  0  0  0  0
 14 38  1  0  0  0  0
 15 16  2  0  0  0  0
 16 39  1  0  0  0  0
 17 22  1  0  0  0  0
 17 18  1  0  0  0  0
 17 48  1  0  0  0  0
 18 19  1  0  0  0  0
 18 40  1  0  0  0  0
 18 41  1  0  0  0  0
 19 20  1  0  0  0  0
 19 42  1  0  0  0  0
 19 43  1  0  0  0  0
 20 21  1  0  0  0  0
 21 22  1  0  0  0  0
 21 44  1  0  0  0  0
 21 45  1  0  0  0  0
 22 46  1  0  0  0  0
 22 47  1  0  0  0  0
M  CHG  1  17   1
M  END
> <s_m_source_file>
AV-unprocessed.smi

> <i_m_source_file_index>
1239

> <i_lp_mmshare_version>
43012

> <i_f3d_flags>
0

> <s_epik_input>
W0NIMl0xW0NIMl1PW0NIMl1bQ0gyXU4xW0NASF0oW0NIM10pW0NIMl1bTkhdQyg9TylbTkhdYzJbY0hdW2NIXWMoTihbQ0gzXSlbQ0gzXSluW2NIXTI=

> <s_epik_cmdline>
J2VwaWtfcHl0aG9uJywgJy1waCcsICc3LjAnLCAnLXRuJywgJzgnLCAnLW1hJywgJzIwMCcsICctbWV0YWxfYmluZGluZycsICctaW1hZScsICc8aW5maWxlLm1hZT4nLCAnLW9tYWUnLCAnPG91dGZpbGUubWFlPic=

> <r_epik_Ionization_Penalty>
1.1428

> <r_epik_Ionization_Penalty_Charging>
0.602531

> <r_epik_Ionization_Penalty_Neutral>
0.540271

> <r_epik_State_Penalty>
1.1888

> <r_epik_Charging_Adjusted_Penalty>
1.79133

> <i_epik_Tot_Q>
1

> <i_epik_Tot_abs_Q>
1

> <r_epik_Metal_State_Penalty>
0.936295

> <b_epik_Metal_Only>
0

> <s_lp_Force_Field>
OPLS_2005

> <r_lp_Energy>
25.9365

> <b_lp_Chiralities_Consistent>
1

> <s_lp_Variant>
AV-unprocessed.smi:1239-8

> <Gold.Version>
5.8.1

> <Gold.Id.Protein>
6NUR|6NUR_protein|mol2

> <Gold.PLP.Fitness>
42.9761

> <Gold.PLP.PLP>
-36.0933

> <Gold.PLP.part.hbond>
-3.0000

> <Gold.PLP.part.metal>
0.0000

> <Gold.PLP.part.buried>
0.4108

> <Gold.PLP.part.nonpolar>
-34.2318

> <Gold.PLP.part.repulsive>
0.3560

> <Gold.PLP.ligand.clash>
0.0000

> <Gold.PLP.ligand.torsion>
1.0956

> <Gold.PLP.Chemscore.Hbond>
3.0000

> <Gold.PLP.Chemscore.CHOScore>
0.0000

> <Gold.PLP.Chemscore.Metal>
0.0000

> <Gold.Chemscore.Hbonds>
donor molecule, donor type, donor heavy atom, donor atom, acceptor molecule, acceptor atom, score
      L1  H     4    29       P1  7957  0.01
      L1  H    17    48       P1 10175  2.00
      P1  H  7997  8009       L1    15  0.98

> <Gold.PLP.Chemscore.Internal.Correction>
0.0741

> <Gold.Rescore>
     Score         DG    S(hbond)    S(metal)    S(lipo)     H(rot)  DE(clash)    DE(int)     intcor
     13.18     -16.96       1.64        0.00      83.85       1.48       1.61       2.17       ----

> <Gold.Chemscore.Fitness>
13.1775

> <Gold.Chemscore.DG>
-16.9595

> <Gold.Chemscore.ZeroCoef>
-5.4800

> <Gold.Chemscore.Hbond>
1.6362

> <Gold.Chemscore.Metal>
0.0000

> <Gold.Chemscore.Lipo>
83.8544

> <Gold.Chemscore.Internal_Hbond>
0.0000

> <Gold.Chemscore.DEClash>
1.6141

> <Gold.Chemscore.DEInternal>
2.1678

> <Gold.Chemscore.Rot>
1.4830

> <Gold.Chemscore.Internal.Correction>
   9.000000E+99

> <Gold.Chemscore.Hbonds>
donor molecule, donor type, donor heavy atom, donor atom, acceptor molecule, acceptor atom, score
      L1  H     4    29       P1  7957  0.04
      L1  H    17    48       P1 10175  0.99
      P1  H  7997  8009       L1    15  0.50

> <Gold.Chemscore.Hbond.Weighted>
-5.4649

> <Gold.Chemscore.Metal.Weighted>
-0.0000

> <Gold.Chemscore.Lipo.Weighted>
-9.8110

> <Gold.Chemscore.Internal_Hbond.Weighted>
0.0000

> <Gold.Chemscore.DEClash.Weighted>
1.6141

> <Gold.Chemscore.DEInternal.Weighted>
2.1678

> <Gold.Chemscore.Rot.Weighted>
3.7964

> <Gold.Chemscore.Internal.Correction.Weighted>
   9.000000E+99

> <Gold.Protein.RotatedTorsions>
[ 6907 6896 6895 6894 ] final  -37.55 input  -60.11 | X-H torsion
[ 7974 7965 7964 7962 ] final  -73.50 input  175.53 | X-H torsion
[ 8008 7997 7996 7995 ] final  175.91 input   59.86 | X-H torsion
[ 10167 10162 10161 10158 ] final -166.92 input  -65.29 | X-H torsion
[ 10718 10713 10712 10709 ] final   46.49 input   66.30 | X-H torsion
[ 10763 10752 10751 10750 ] final  143.19 input  -60.55 | X-H torsion
[ 11005 11000 10999 10996 ] final   68.88 input  -57.11 | X-H torsion

> <Gold.Protein.ActiveResidues>
 VAL166  LYS551  ARG553  GLY616  TRP617  ASP618  TYR619  PRO620  LYS621  CYS622 
 ASP623  PHE694  ASN695  SER759  ASP760  ASP761  ALA762  ILE779  LEU786  VAL792 
 PHE793  MET794  SER795  GLU796  ALA797  LYS798  CYS799  TRP800  GLU811  SER814 

> <Gold.Protein.RotatedAtoms>
  151.0133  134.9413  159.8018 H   0  0  0  0  0  0  0  0  0  0  0  0  # atno 6907 bound_to 6896
  152.5308  134.3000  159.9085 H   0  0  0  0  0  0  0  0  0  0  0  0  # atno 6908 bound_to 6896
  151.3006  133.4082  159.2673 H   0  0  0  0  0  0  0  0  0  0  0  0  # atno 6909 bound_to 6896
  145.6513  140.9281  143.0983 H   0  0  0  0  0  0  0  0  0  0  0  0  # atno 7974 bound_to 7965
  156.0820  140.1397  156.9700 H   0  0  0  0  0  0  0  0  0  0  0  0  # atno 8008 bound_to 7997
  154.4591  140.0950  156.6890 H   0  0  0  0  0  0  0  0  0  0  0  0  # atno 8009 bound_to 7997
  155.5060  140.3452  155.4382 H   0  0  0  0  0  0  0  0  0  0  0  0  # atno 8010 bound_to 7997
  139.6083  144.0867  152.1816 H   0  0  0  0  0  0  0  0  0  0  0  0  # atno 10167 bound_to 10162
  157.4486  130.8125  149.7766 H   0  0  0  0  0  0  0  0  0  0  0  0  # atno 10718 bound_to 10713
  153.9682  135.2953  155.3429 H   0  0  0  0  0  0  0  0  0  0  0  0  # atno 10763 bound_to 10752
  154.7337  135.5056  153.9009 H   0  0  0  0  0  0  0  0  0  0  0  0  # atno 10764 bound_to 10752
  153.0913  135.6708  153.9961 H   0  0  0  0  0  0  0  0  0  0  0  0  # atno 10765 bound_to 10752
  139.9686  134.6939  156.0494 H   0  0  0  0  0  0  0  0  0  0  0  0  # atno 11005 bound_to 11000
  144.7121  139.8330  143.7411 LP  0  0  0  0  0  0  0  0  0  0  0  0  # atno 17320 bound_to 7965
  146.1201  139.4218  143.0233 LP  0  0  0  0  0  0  0  0  0  0  0  0  # atno 17321 bound_to 7965
  140.0480  144.5955  150.7359 LP  0  0  0  0  0  0  0  0  0  0  0  0  # atno 17342 bound_to 10162
  140.7301  143.2679  151.3983 LP  0  0  0  0  0  0  0  0  0  0  0  0  # atno 17343 bound_to 10162
  155.9978  130.3898  150.2727 LP  0  0  0  0  0  0  0  0  0  0  0  0  # atno 17370 bound_to 10713
  157.0897  131.0166  151.3126 LP  0  0  0  0  0  0  0  0  0  0  0  0  # atno 17371 bound_to 10713
  141.1366  133.6574  156.3610 LP  0  0  0  0  0  0  0  0  0  0  0  0  # atno 17394 bound_to 11000
  140.5343  134.6182  157.5360 LP  0  0  0  0  0  0  0  0  0  0  0  0  # atno 17395 bound_to 11000

$$$$
