AV-unprocessed.smi:381|AV-procd|sdf|2461|dock5
  -GOLD-   2262022403D 1   1.00000     0.00000
 Structure written by MMmdl.
 45 46  0  0  0  0  0  0  0  0  1 V2000
  149.6081  134.2081  155.8550 O   0  0  0  0  0  0  0  0  0  0  0  0
  149.3970  134.7388  154.7662 C   0  0  0  0  0  0  0  0  0  0  0  0
  150.0669  135.8171  154.3291 N   0  0  0  0  0  0  0  0  0  0  0  0
  151.1284  136.4833  155.0700 C   0  0  0  0  0  0  0  0  0  0  0  0
  151.6890  137.6652  154.2679 C   0  0  0  0  0  0  0  0  0  0  0  0
  151.3703  138.9975  154.9176 C   0  0  0  0  0  0  0  0  0  0  0  0
  152.1497  139.4834  155.9879 C   0  0  0  0  0  0  0  0  0  0  0  0
  151.8215  140.7298  156.5551 C   0  0  0  0  0  0  0  0  0  0  0  0
  150.7237  141.4383  156.0272 C   0  0  0  0  0  0  0  0  0  0  0  0
  149.9696  140.9826  155.0037 N   0  0  0  0  0  0  0  0  0  0  0  0
  150.2920  139.7871  154.4643 C   0  0  0  0  0  0  0  0  0  0  0  0
  148.4664  134.2667  153.9165 N   0  0  0  0  0  0  0  0  0  0  0  0
  147.5686  133.1190  154.0800 C   0  0  0  0  0  0  0  0  0  0  0  0
  148.2226  131.8954  153.3963 C   0  0  0  0  0  0  0  0  0  0  0  0
  147.3747  130.6115  153.3306 C   0  0  0  0  0  0  0  0  0  0  0  0
  146.5719  130.4161  152.0242 C   0  0  0  0  0  0  0  0  0  0  0  0
  145.1574  131.0251  152.0169 C   0  0  0  0  0  0  0  0  0  0  0  0
  145.0311  132.4644  151.4738 C   0  0  0  0  0  0  0  0  0  0  0  0
  145.9938  133.5166  152.0533 C   0  0  0  0  0  0  0  0  0  0  0  0
  146.1466  133.4714  153.5863 C   0  0  0  0  0  0  0  0  0  0  0  0
  149.8330  136.1907  153.4207 H   0  0  0  0  0  0  0  0  0  0  0  0
  150.7437  136.8338  156.0294 H   0  0  0  0  0  0  0  0  0  0  0  0
  151.9192  135.7625  155.2826 H   0  0  0  0  0  0  0  0  0  0  0  0
  152.7702  137.5668  154.1610 H   0  0  0  0  0  0  0  0  0  0  0  0
  151.2775  137.6610  153.2574 H   0  0  0  0  0  0  0  0  0  0  0  0
  152.9863  138.9140  156.3657 H   0  0  0  0  0  0  0  0  0  0  0  0
  152.3980  141.1336  157.3740 H   0  0  0  0  0  0  0  0  0  0  0  0
  150.4443  142.3971  156.4382 H   0  0  0  0  0  0  0  0  0  0  0  0
  149.6718  139.4533  153.6455 H   0  0  0  0  0  0  0  0  0  0  0  0
  148.3671  134.7703  153.0469 H   0  0  0  0  0  0  0  0  0  0  0  0
  147.4958  132.8798  155.1422 H   0  0  0  0  0  0  0  0  0  0  0  0
  148.5834  132.1469  152.3985 H   0  0  0  0  0  0  0  0  0  0  0  0
  149.1269  131.6638  153.9609 H   0  0  0  0  0  0  0  0  0  0  0  0
  148.0713  129.7745  153.3945 H   0  0  0  0  0  0  0  0  0  0  0  0
  146.7363  130.5156  154.2095 H   0  0  0  0  0  0  0  0  0  0  0  0
  147.1421  130.7430  151.1542 H   0  0  0  0  0  0  0  0  0  0  0  0
  146.4486  129.3401  151.8933 H   0  0  0  0  0  0  0  0  0  0  0  0
  144.5265  130.3972  151.3865 H   0  0  0  0  0  0  0  0  0  0  0  0
  144.7132  130.9447  153.0089 H   0  0  0  0  0  0  0  0  0  0  0  0
  145.1557  132.4480  150.3904 H   0  0  0  0  0  0  0  0  0  0  0  0
  144.0069  132.7979  151.6437 H   0  0  0  0  0  0  0  0  0  0  0  0
  146.9614  133.4313  151.5610 H   0  0  0  0  0  0  0  0  0  0  0  0
  145.6322  134.5042  151.7652 H   0  0  0  0  0  0  0  0  0  0  0  0
  145.4323  132.7791  154.0280 H   0  0  0  0  0  0  0  0  0  0  0  0
  145.8528  134.4391  153.9943 H   0  0  0  0  0  0  0  0  0  0  0  0
  1  2  2  0  0  0  0
  2  3  1  0  0  0  0
  2 12  1  0  0  0  0
  3  4  1  0  0  0  0
  3 21  1  0  0  0  0
  4  5  1  0  0  0  0
  4 22  1  0  0  0  0
  4 23  1  0  0  0  0
  5  6  1  0  0  0  0
  5 24  1  0  0  0  0
  5 25  1  0  0  0  0
  6 11  1  0  0  0  0
  6  7  2  0  0  0  0
  7  8  1  0  0  0  0
  7 26  1  0  0  0  0
  8  9  2  0  0  0  0
  8 27  1  0  0  0  0
  9 10  1  0  0  0  0
  9 28  1  0  0  0  0
 10 11  2  0  0  0  0
 11 29  1  0  0  0  0
 12 13  1  0  0  0  0
 12 30  1  0  0  0  0
 13 20  1  0  0  0  0
 13 14  1  0  0  0  0
 13 31  1  0  0  0  0
 14 15  1  0  0  0  0
 14 32  1  0  0  0  0
 14 33  1  0  0  0  0
 15 16  1  0  0  0  0
 15 34  1  0  0  0  0
 15 35  1  0  0  0  0
 16 17  1  0  0  0  0
 16 36  1  0  0  0  0
 16 37  1  0  0  0  0
 17 18  1  0  0  0  0
 17 38  1  0  0  0  0
 17 39  1  0  0  0  0
 18 19  1  0  0  0  0
 18 40  1  0  0  0  0
 18 41  1  0  0  0  0
 19 20  1  0  0  0  0
 19 42  1  0  0  0  0
 19 43  1  0  0  0  0
 20 44  1  0  0  0  0
 20 45  1  0  0  0  0
M  END
> <s_m_source_file>
AV-unprocessed.smi

> <i_m_source_file_index>
381

> <i_lp_mmshare_version>
43012

> <i_f3d_flags>
0

> <s_epik_input>
W0NIMl0xW0NIMl1bQ0gyXVtDSDJdW0NIMl1bQ0gyXVtDSDJdW0NIXTFbTkhdQyg9TylbTkhdW0NIMl1bQ0gyXWMyW2NIXVtjSF1bY0hdbltjSF0y

> <s_epik_cmdline>
J2VwaWtfcHl0aG9uJywgJy1waCcsICc3LjAnLCAnLXRuJywgJzgnLCAnLW1hJywgJzIwMCcsICctbWV0YWxfYmluZGluZycsICctaW1hZScsICc8aW5maWxlLm1hZT4nLCAnLW9tYWUnLCAnPG91dGZpbGUubWFlPic=

> <r_epik_Ionization_Penalty>
0.0144395

> <r_epik_Ionization_Penalty_Charging>
0

> <r_epik_Ionization_Penalty_Neutral>
0.0144395

> <r_epik_State_Penalty>
0.0112394

> <r_epik_Charging_Adjusted_Penalty>
0.0112394

> <i_epik_Tot_Q>
0

> <i_epik_Tot_abs_Q>
0

> <r_epik_Metal_State_Penalty>
0.0109727

> <b_epik_Metal_Only>
0

> <s_lp_Force_Field>
OPLS_2005

> <r_lp_Energy>
29.8357

> <b_lp_Chiralities_Consistent>
1

> <s_lp_Variant>
AV-unprocessed.smi:381-1

> <Gold.Version>
5.8.1

> <Gold.Id.Protein>
6NUR|6NUR_protein|mol2

> <Gold.PLP.Fitness>
45.3134

> <Gold.PLP.PLP>
-35.1884

> <Gold.PLP.part.hbond>
-3.1534

> <Gold.PLP.part.metal>
0.0000

> <Gold.PLP.part.buried>
-0.8948

> <Gold.PLP.part.nonpolar>
-31.6514

> <Gold.PLP.part.repulsive>
0.2010

> <Gold.PLP.ligand.clash>
0.0000

> <Gold.PLP.ligand.torsion>
0.9487

> <Gold.PLP.Chemscore.Hbond>
1.9920

> <Gold.PLP.Chemscore.CHOScore>
2.0000

> <Gold.PLP.Chemscore.Metal>
0.0000

> <Gold.Chemscore.Hbonds>
donor molecule, donor type, donor heavy atom, donor atom, acceptor molecule, acceptor atom, score
      L1  H     3    21       P1  7948  0.80
      L1  H    12    30       P1  7948  0.99
      L1  C     9    28       P1  8028  0.07
      L1  C    11    29       P1  7957  0.95

> <Gold.PLP.Chemscore.Internal.Correction>
0.0464

> <Gold.Rescore>
     Score         DG    S(hbond)    S(metal)    S(lipo)     H(rot)  DE(clash)    DE(int)     intcor
     16.69     -17.76       1.61        0.00      90.24       1.42       0.16       0.91       ----

> <Gold.Chemscore.Fitness>
16.6932

> <Gold.Chemscore.DG>
-17.7615

> <Gold.Chemscore.ZeroCoef>
-5.4800

> <Gold.Chemscore.Hbond>
1.6052

> <Gold.Chemscore.Metal>
0.0000

> <Gold.Chemscore.Lipo>
90.2435

> <Gold.Chemscore.Internal_Hbond>
0.0000

> <Gold.Chemscore.DEClash>
0.1551

> <Gold.Chemscore.DEInternal>
0.9131

> <Gold.Chemscore.Rot>
1.4213

> <Gold.Chemscore.Internal.Correction>
   9.000000E+99

> <Gold.Chemscore.Hbonds>
donor molecule, donor type, donor heavy atom, donor atom, acceptor molecule, acceptor atom, score
      L1  H     3    21       P1  7948  0.12
      L1  H    12    30       P1  7948  0.56

> <Gold.Chemscore.Hbond.Weighted>
-5.3615

> <Gold.Chemscore.Metal.Weighted>
-0.0000

> <Gold.Chemscore.Lipo.Weighted>
-10.5585

> <Gold.Chemscore.Internal_Hbond.Weighted>
0.0000

> <Gold.Chemscore.DEClash.Weighted>
0.1551

> <Gold.Chemscore.DEInternal.Weighted>
0.9131

> <Gold.Chemscore.Rot.Weighted>
3.6385

> <Gold.Chemscore.Internal.Correction.Weighted>
   9.000000E+99

> <Gold.Protein.RotatedTorsions>
[ 6907 6896 6895 6894 ] final   83.12 input  -60.11 | X-H torsion
[ 7974 7965 7964 7962 ] final  -42.39 input  175.53 | X-H torsion
[ 8008 7997 7996 7995 ] final -110.95 input   59.86 | X-H torsion
[ 10167 10162 10161 10158 ] final   60.43 input  -65.29 | X-H torsion
[ 10718 10713 10712 10709 ] final  -65.62 input   66.30 | X-H torsion
[ 10763 10752 10751 10750 ] final -143.79 input  -60.55 | X-H torsion
[ 11005 11000 10999 10996 ] final  -85.20 input  -57.11 | X-H torsion

> <Gold.Protein.ActiveResidues>
 VAL166  LYS551  ARG553  GLY616  TRP617  ASP618  TYR619  PRO620  LYS621  CYS622 
 ASP623  PHE694  ASN695  SER759  ASP760  ASP761  ALA762  ILE779  LEU786  VAL792 
 PHE793  MET794  SER795  GLU796  ALA797  LYS798  CYS799  TRP800  GLU811  SER814 

> <Gold.Protein.RotatedAtoms>
  152.5318  134.2945  159.9055 H   0  0  0  0  0  0  0  0  0  0  0  0  # atno 6907 bound_to 6896
  151.2896  133.4165  159.2640 H   0  0  0  0  0  0  0  0  0  0  0  0  # atno 6908 bound_to 6896
  151.0212  134.9486  159.8117 H   0  0  0  0  0  0  0  0  0  0  0  0  # atno 6909 bound_to 6896
  146.0121  140.6952  142.9219 H   0  0  0  0  0  0  0  0  0  0  0  0  # atno 7974 bound_to 7965
  154.9823  140.0396  157.2283 H   0  0  0  0  0  0  0  0  0  0  0  0  # atno 8008 bound_to 7997
  154.7703  140.2800  155.6121 H   0  0  0  0  0  0  0  0  0  0  0  0  # atno 8009 bound_to 7997
  156.2920  140.2611  156.2504 H   0  0  0  0  0  0  0  0  0  0  0  0  # atno 8010 bound_to 7997
  140.1656  144.4327  150.6687 H   0  0  0  0  0  0  0  0  0  0  0  0  # atno 10167 bound_to 10162
  156.0659  130.4250  150.1590 H   0  0  0  0  0  0  0  0  0  0  0  0  # atno 10718 bound_to 10713
  154.8455  135.3458  154.6243 H   0  0  0  0  0  0  0  0  0  0  0  0  # atno 10763 bound_to 10752
  153.6852  135.6978  153.5111 H   0  0  0  0  0  0  0  0  0  0  0  0  # atno 10764 bound_to 10752
  153.2637  135.4314  155.0875 H   0  0  0  0  0  0  0  0  0  0  0  0  # atno 10765 bound_to 10752
  141.1643  133.7386  156.8980 H   0  0  0  0  0  0  0  0  0  0  0  0  # atno 11005 bound_to 11000
  144.6957  140.3416  143.7198 LP  0  0  0  0  0  0  0  0  0  0  0  0  # atno 17320 bound_to 7965
  145.7326  139.1740  143.2421 LP  0  0  0  0  0  0  0  0  0  0  0  0  # atno 17321 bound_to 7965
  140.6615  143.2253  151.5845 LP  0  0  0  0  0  0  0  0  0  0  0  0  # atno 17342 bound_to 10162
  139.5361  144.2778  152.1254 LP  0  0  0  0  0  0  0  0  0  0  0  0  # atno 17343 bound_to 10162
  156.9650  130.9817  151.3471 LP  0  0  0  0  0  0  0  0  0  0  0  0  # atno 17370 bound_to 10713
  157.5700  130.8304  149.8379 LP  0  0  0  0  0  0  0  0  0  0  0  0  # atno 17371 bound_to 10713
  140.1602  134.9170  157.2705 LP  0  0  0  0  0  0  0  0  0  0  0  0  # atno 17394 bound_to 11000
  140.2620  134.3560  155.7403 LP  0  0  0  0  0  0  0  0  0  0  0  0  # atno 17395 bound_to 11000

$$$$
