AV-unprocessed.smi:788|AV-procd|sdf|3732|dock2
  -GOLD-   22720 1163D 1   1.00000     0.00000
 Structure written by MMmdl.
 35 36  0  0  0  0  0  0  0  0  1 V2000
  147.1601  133.5916  154.2179 C   0  0  0  0  0  0  0  0  0  0  0  0
  146.9020  132.5203  153.1442 C   0  0  1  0  0  0  0  0  0  0  0  0
  146.5755  131.1527  153.7783 C   0  0  0  0  0  0  0  0  0  0  0  0
  146.3703  130.0702  152.7077 C   0  0  0  0  0  0  0  0  0  0  0  0
  145.2889  130.4787  151.6957 C   0  0  0  0  0  0  0  0  0  0  0  0
  145.6085  131.8416  151.0479 C   0  0  1  0  0  0  0  0  0  0  0  0
  144.5555  132.2254  149.9940 C   0  0  0  0  0  0  0  0  0  0  0  0
  145.8140  132.9388  152.1230 C   0  0  1  0  0  0  0  0  0  0  0  0
  144.5528  133.2425  152.8027 N   0  0  0  0  0  0  0  0  0  0  0  0
  143.8624  134.3931  152.7474 C   0  0  0  0  0  0  0  0  0  0  0  0
  144.2358  135.3661  152.0949 O   0  0  0  0  0  0  0  0  0  0  0  0
  142.7162  134.4343  153.4603 N   0  0  0  0  0  0  0  0  0  0  0  0
  141.7438  135.4626  153.6373 C   0  0  0  0  0  0  0  0  0  0  0  0
  140.5021  135.2678  154.1121 N   0  0  0  0  0  0  0  0  0  0  0  0
  139.7723  136.4470  154.1709 N   0  0  0  0  0  0  0  0  0  0  0  0
  140.4880  137.4875  153.7358 C   0  0  0  0  0  0  0  0  0  0  0  0
  142.1234  137.1264  153.2122 S   0  0  0  0  0  0  0  0  0  0  0  0
  146.2929  133.7354  154.8629 H   0  0  0  0  0  0  0  0  0  0  0  0
  147.4003  134.5526  153.7627 H   0  0  0  0  0  0  0  0  0  0  0  0
  147.9988  133.3104  154.8552 H   0  0  0  0  0  0  0  0  0  0  0  0
  147.8345  132.4047  152.5893 H   0  0  0  0  0  0  0  0  0  0  0  0
  147.3812  130.8511  154.4482 H   0  0  0  0  0  0  0  0  0  0  0  0
  145.6789  131.2307  154.3949 H   0  0  0  0  0  0  0  0  0  0  0  0
  147.3104  129.8925  152.1842 H   0  0  0  0  0  0  0  0  0  0  0  0
  146.0980  129.1268  153.1815 H   0  0  0  0  0  0  0  0  0  0  0  0
  145.2041  129.7107  150.9262 H   0  0  0  0  0  0  0  0  0  0  0  0
  144.3193  130.5193  152.1944 H   0  0  0  0  0  0  0  0  0  0  0  0
  146.5552  131.7329  150.5165 H   0  0  0  0  0  0  0  0  0  0  0  0
  143.5547  132.2790  150.4231 H   0  0  0  0  0  0  0  0  0  0  0  0
  144.5273  131.4937  149.1863 H   0  0  0  0  0  0  0  0  0  0  0  0
  144.7805  133.1960  149.5510 H   0  0  0  0  0  0  0  0  0  0  0  0
  146.1740  133.8333  151.6118 H   0  0  0  0  0  0  0  0  0  0  0  0
  144.1651  132.5006  153.3682 H   0  0  0  0  0  0  0  0  0  0  0  0
  142.5135  133.5835  153.9647 H   0  0  0  0  0  0  0  0  0  0  0  0
  140.0496  138.4744  153.7227 H   0  0  0  0  0  0  0  0  0  0  0  0
  1  2  1  0  0  0  0
  1 18  1  0  0  0  0
  1 19  1  0  0  0  0
  1 20  1  0  0  0  0
  2  8  1  0  0  0  0
  2  3  1  0  0  0  0
  2 21  1  0  0  0  0
  3  4  1  0  0  0  0
  3 22  1  0  0  0  0
  3 23  1  0  0  0  0
  4  5  1  0  0  0  0
  4 24  1  0  0  0  0
  4 25  1  0  0  0  0
  5  6  1  0  0  0  0
  5 26  1  0  0  0  0
  5 27  1  0  0  0  0
  6  7  1  0  0  0  0
  6  8  1  0  0  0  0
  6 28  1  0  0  0  0
  7 29  1  0  0  0  0
  7 30  1  0  0  0  0
  7 31  1  0  0  0  0
  8  9  1  0  0  0  0
  8 32  1  0  0  0  0
  9 10  1  0  0  0  0
  9 33  1  0  0  0  0
 10 11  2  0  0  0  0
 10 12  1  0  0  0  0
 12 13  1  0  0  0  0
 12 34  1  0  0  0  0
 13 17  1  0  0  0  0
 13 14  2  0  0  0  0
 14 15  1  0  0  0  0
 15 16  2  0  0  0  0
 16 17  1  0  0  0  0
 16 35  1  0  0  0  0
M  END
> <s_m_source_file>
AV-unprocessed.smi

> <i_m_source_file_index>
788

> <i_lp_mmshare_version>
43012

> <i_f3d_flags>
0

> <s_epik_input>
W0NIM11bQ0BASF0xW0NIMl1bQ0gyXVtDSDJdW0NAQEhdKFtDSDNdKVtDQEhdMVtOSF1DKD1PKVtOSF1jMm5uW2NIXXMy

> <s_epik_cmdline>
J2VwaWtfcHl0aG9uJywgJy1waCcsICc3LjAnLCAnLXRuJywgJzgnLCAnLW1hJywgJzIwMCcsICctbWV0YWxfYmluZGluZycsICctaW1hZScsICc8aW5maWxlLm1hZT4nLCAnLW9tYWUnLCAnPG91dGZpbGUubWFlPic=

> <r_lp_tautomer_probability>
1

> <r_epik_Ionization_Penalty>
0.000304078

> <r_epik_Ionization_Penalty_Charging>
0

> <r_epik_Ionization_Penalty_Neutral>
0.000304078

> <r_epik_State_Penalty>
-0

> <r_epik_Charging_Adjusted_Penalty>
0

> <i_epik_Tot_Q>
0

> <i_epik_Tot_abs_Q>
0

> <r_epik_Metal_State_Penalty>
0.164801

> <b_epik_Metal_Only>
0

> <s_lp_Force_Field>
OPLS_2005

> <r_lp_Energy>
12.7564

> <b_lp_Chiralities_Consistent>
1

> <s_lp_Variant>
AV-unprocessed.smi:788-2

> <Gold.Version>
5.8.1

> <Gold.Id.Protein>
6NUR|6NUR_protein|mol2

> <Gold.PLP.Fitness>
38.0534

> <Gold.PLP.PLP>
-30.3652

> <Gold.PLP.part.hbond>
-3.5668

> <Gold.PLP.part.metal>
0.0000

> <Gold.PLP.part.buried>
-7.7131

> <Gold.PLP.part.nonpolar>
-19.9191

> <Gold.PLP.part.repulsive>
0.3994

> <Gold.PLP.ligand.clash>
0.0000

> <Gold.PLP.ligand.torsion>
0.0859

> <Gold.PLP.Chemscore.Hbond>
2.6175

> <Gold.PLP.Chemscore.CHOScore>
0.0000

> <Gold.PLP.Chemscore.Metal>
0.0000

> <Gold.Chemscore.Hbonds>
donor molecule, donor type, donor heavy atom, donor atom, acceptor molecule, acceptor atom, score
      L1  H     9    33       P1 10957  0.62
      L1  H    12    34       P1 10957  1.00
      P1  H 11000 11005       L1    14  1.00

> <Gold.PLP.Chemscore.Internal.Correction>
0.0076

> <Gold.Rescore>
     Score         DG    S(hbond)    S(metal)    S(lipo)     H(rot)  DE(clash)    DE(int)     intcor
     15.87     -17.14       2.35        0.00      54.38       1.00       0.01       1.27       ----

> <Gold.Chemscore.Fitness>
15.8692

> <Gold.Chemscore.DG>
-17.1443

> <Gold.Chemscore.ZeroCoef>
-5.4800

> <Gold.Chemscore.Hbond>
2.3540

> <Gold.Chemscore.Metal>
0.0000

> <Gold.Chemscore.Lipo>
54.3768

> <Gold.Chemscore.Internal_Hbond>
0.0000

> <Gold.Chemscore.DEClash>
0.0077

> <Gold.Chemscore.DEInternal>
1.2675

> <Gold.Chemscore.Rot>
1.0000

> <Gold.Chemscore.Internal.Correction>
   9.000000E+99

> <Gold.Chemscore.Hbonds>
donor molecule, donor type, donor heavy atom, donor atom, acceptor molecule, acceptor atom, score
      L1  H     9    33       P1 10957  0.13
      L1  H    12    34       P1 10957  0.97
      P1  H 11000 11005       L1    14  0.25

> <Gold.Chemscore.Hbond.Weighted>
-7.8623

> <Gold.Chemscore.Metal.Weighted>
-0.0000

> <Gold.Chemscore.Lipo.Weighted>
-6.3621

> <Gold.Chemscore.Internal_Hbond.Weighted>
0.0000

> <Gold.Chemscore.DEClash.Weighted>
0.0077

> <Gold.Chemscore.DEInternal.Weighted>
1.2675

> <Gold.Chemscore.Rot.Weighted>
2.5600

> <Gold.Chemscore.Internal.Correction.Weighted>
   9.000000E+99

> <Gold.Protein.RotatedTorsions>
[ 6907 6896 6895 6894 ] final  -53.99 input  -60.11 | X-H torsion
[ 7974 7965 7964 7962 ] final   45.23 input  175.53 | X-H torsion
[ 8008 7997 7996 7995 ] final   71.72 input   59.86 | X-H torsion
[ 10167 10162 10161 10158 ] final  105.18 input  -65.29 | X-H torsion
[ 10718 10713 10712 10709 ] final  -71.12 input   66.30 | X-H torsion
[ 10763 10752 10751 10750 ] final   -9.93 input  -60.55 | X-H torsion
[ 11005 11000 10999 10996 ] final   52.81 input  -57.11 | X-H torsion

> <Gold.Protein.ActiveResidues>
 VAL166  LYS551  ARG553  GLY616  TRP617  ASP618  TYR619  PRO620  LYS621  CYS622 
 ASP623  PHE694  ASN695  SER759  ASP760  ASP761  ALA762  ILE779  LEU786  VAL792 
 PHE793  MET794  SER795  GLU796  ALA797  LYS798  CYS799  TRP800  GLU811  SER814 

> <Gold.Protein.RotatedAtoms>
  150.8378  134.7658  159.6906 H   0  0  0  0  0  0  0  0  0  0  0  0  # atno 6907 bound_to 6896
  152.4471  134.5468  159.9865 H   0  0  0  0  0  0  0  0  0  0  0  0  # atno 6908 bound_to 6896
  151.5615  133.3365  159.3008 H   0  0  0  0  0  0  0  0  0  0  0  0  # atno 6909 bound_to 6896
  146.0498  139.4987  142.9725 H   0  0  0  0  0  0  0  0  0  0  0  0  # atno 7974 bound_to 7965
  155.7581  140.3487  155.5184 H   0  0  0  0  0  0  0  0  0  0  0  0  # atno 8008 bound_to 7997
  155.8940  140.1023  157.1419 H   0  0  0  0  0  0  0  0  0  0  0  0  # atno 8009 bound_to 7997
  154.4036  140.1299  156.4339 H   0  0  0  0  0  0  0  0  0  0  0  0  # atno 8010 bound_to 7997
  139.7114  144.7077  151.1021 H   0  0  0  0  0  0  0  0  0  0  0  0  # atno 10167 bound_to 10162
  156.0377  130.4345  150.2396 H   0  0  0  0  0  0  0  0  0  0  0  0  # atno 10718 bound_to 10713
  153.4619  135.7016  153.6045 H   0  0  0  0  0  0  0  0  0  0  0  0  # atno 10763 bound_to 10752
  153.4336  135.3797  155.2185 H   0  0  0  0  0  0  0  0  0  0  0  0  # atno 10764 bound_to 10752
  154.8727  135.3957  154.4046 H   0  0  0  0  0  0  0  0  0  0  0  0  # atno 10765 bound_to 10752
  140.0819  134.5327  155.8938 H   0  0  0  0  0  0  0  0  0  0  0  0  # atno 11005 bound_to 11000
  145.6743  141.0208  143.1641 LP  0  0  0  0  0  0  0  0  0  0  0  0  # atno 17320 bound_to 7965
  144.7117  139.8347  143.7412 LP  0  0  0  0  0  0  0  0  0  0  0  0  # atno 17321 bound_to 7965
  140.7734  143.5288  150.9448 LP  0  0  0  0  0  0  0  0  0  0  0  0  # atno 17342 bound_to 10162
  139.8973  143.6879  152.3136 LP  0  0  0  0  0  0  0  0  0  0  0  0  # atno 17343 bound_to 10162
  157.0494  131.0058  151.3258 LP  0  0  0  0  0  0  0  0  0  0  0  0  # atno 17370 bound_to 10713
  157.5151  130.7963  149.7747 LP  0  0  0  0  0  0  0  0  0  0  0  0  # atno 17371 bound_to 10713
  141.2049  133.6643  156.6150 LP  0  0  0  0  0  0  0  0  0  0  0  0  # atno 17394 bound_to 11000
  140.3476  134.7796  157.4443 LP  0  0  0  0  0  0  0  0  0  0  0  0  # atno 17395 bound_to 11000

$$$$
