AV-unprocessed.smi:2878|AV-procd|sdf|11046|dock1
  -GOLD-   2272015513D 1   1.00000     0.00000
 Structure written by MMmdl.
 42 43  0  0  0  0  0  0  0  0  1 V2000
  149.5088  141.3371  155.0556 C   0  0  0  0  0  0  0  0  0  0  0  0
  148.1951  141.4156  153.8089 S   0  0  0  0  0  0  0  0  0  0  0  0
  146.8659  142.2380  154.7452 C   0  0  1  0  0  0  0  0  0  0  0  0
  146.0692  143.1879  153.8295 C   0  0  0  0  0  0  0  0  0  0  0  0
  144.9589  143.9166  154.6024 C   0  0  0  0  0  0  0  0  0  0  0  0
  144.0197  142.9205  155.2985 C   0  0  0  0  0  0  0  0  0  0  0  0
  144.8026  141.9681  156.2183 C   0  0  0  0  0  0  0  0  0  0  0  0
  145.9364  141.2338  155.4711 C   0  0  1  0  0  0  0  0  0  0  0  0
  145.3858  140.2535  154.5346 N   0  0  0  0  0  0  0  0  0  0  0  0
  145.6529  138.9407  154.5411 C   0  0  0  0  0  0  0  0  0  0  0  0
  146.3936  138.3891  155.3554 O   0  0  0  0  0  0  0  0  0  0  0  0
  145.0152  138.2994  153.5523 N   0  0  0  0  0  0  0  0  0  0  0  0
  145.1136  136.8687  153.2878 C   0  0  0  0  0  0  0  0  0  0  0  0
  145.5933  136.5843  151.8551 C   0  0  0  0  0  0  0  0  0  0  0  0
  145.7124  135.1237  151.5768 C   0  0  0  0  0  0  0  0  0  0  0  0
  145.2065  134.4587  150.5410 N   0  0  0  0  0  0  0  0  0  0  0  0
  145.6771  133.2042  150.7823 C   0  0  0  0  0  0  0  0  0  0  0  0
  145.3812  132.0449  149.8934 C   0  0  0  0  0  0  0  0  0  0  0  0
  146.4361  133.0661  151.8624 N   0  0  0  0  0  0  0  0  0  0  0  0
  146.4732  134.3612  152.3987 O   0  0  0  0  0  0  0  0  0  0  0  0
  150.4184  140.9333  154.6111 H   0  0  0  0  0  0  0  0  0  0  0  0
  149.2211  140.6908  155.8841 H   0  0  0  0  0  0  0  0  0  0  0  0
  149.7273  142.3315  155.4446 H   0  0  0  0  0  0  0  0  0  0  0  0
  147.3562  142.8518  155.5021 H   0  0  0  0  0  0  0  0  0  0  0  0
  146.7410  143.9205  153.3811 H   0  0  0  0  0  0  0  0  0  0  0  0
  145.6313  142.6283  153.0019 H   0  0  0  0  0  0  0  0  0  0  0  0
  145.4056  144.5780  155.3456 H   0  0  0  0  0  0  0  0  0  0  0  0
  144.3896  144.5533  153.9245 H   0  0  0  0  0  0  0  0  0  0  0  0
  143.2692  143.4603  155.8768 H   0  0  0  0  0  0  0  0  0  0  0  0
  143.4746  142.3452  154.5491 H   0  0  0  0  0  0  0  0  0  0  0  0
  145.2325  142.5425  157.0398 H   0  0  0  0  0  0  0  0  0  0  0  0
  144.1224  141.2495  156.6774 H   0  0  0  0  0  0  0  0  0  0  0  0
  146.5302  140.7051  156.2175 H   0  0  0  0  0  0  0  0  0  0  0  0
  144.7660  140.6090  153.8214 H   0  0  0  0  0  0  0  0  0  0  0  0
  144.4288  138.8399  152.9331 H   0  0  0  0  0  0  0  0  0  0  0  0
  145.8140  136.4400  154.0051 H   0  0  0  0  0  0  0  0  0  0  0  0
  144.1498  136.3902  153.4703 H   0  0  0  0  0  0  0  0  0  0  0  0
  144.9047  137.0168  151.1281 H   0  0  0  0  0  0  0  0  0  0  0  0
  146.5635  137.0523  151.6837 H   0  0  0  0  0  0  0  0  0  0  0  0
  145.3242  131.1219  150.4716 H   0  0  0  0  0  0  0  0  0  0  0  0
  146.1649  131.9373  149.1432 H   0  0  0  0  0  0  0  0  0  0  0  0
  144.4286  132.1880  149.3822 H   0  0  0  0  0  0  0  0  0  0  0  0
  1  2  1  0  0  0  0
  1 21  1  0  0  0  0
  1 22  1  0  0  0  0
  1 23  1  0  0  0  0
  2  3  1  0  0  0  0
  3  8  1  0  0  0  0
  3  4  1  0  0  0  0
  3 24  1  0  0  0  0
  4  5  1  0  0  0  0
  4 25  1  0  0  0  0
  4 26  1  0  0  0  0
  5  6  1  0  0  0  0
  5 27  1  0  0  0  0
  5 28  1  0  0  0  0
  6  7  1  0  0  0  0
  6 29  1  0  0  0  0
  6 30  1  0  0  0  0
  7  8  1  0  0  0  0
  7 31  1  0  0  0  0
  7 32  1  0  0  0  0
  8  9  1  0  0  0  0
  8 33  1  0  0  0  0
  9 10  1  0  0  0  0
  9 34  1  0  0  0  0
 10 11  2  0  0  0  0
 10 12  1  0  0  0  0
 12 13  1  0  0  0  0
 12 35  1  0  0  0  0
 13 14  1  0  0  0  0
 13 36  1  0  0  0  0
 13 37  1  0  0  0  0
 14 15  1  0  0  0  0
 14 38  1  0  0  0  0
 14 39  1  0  0  0  0
 15 20  1  0  0  0  0
 15 16  2  0  0  0  0
 16 17  1  0  0  0  0
 17 18  1  0  0  0  0
 17 19  2  0  0  0  0
 18 40  1  0  0  0  0
 18 41  1  0  0  0  0
 18 42  1  0  0  0  0
 19 20  1  0  0  0  0
M  END
> <s_m_source_file>
AV-unprocessed.smi

> <i_m_source_file_index>
2878

> <i_lp_mmshare_version>
43012

> <i_f3d_flags>
0

> <s_epik_input>
W0NIM11TW0NAQEhdMVtDSDJdW0NIMl1bQ0gyXVtDSDJdW0NASF0xW05IXUMoPU8pW05IXVtDSDJdW0NIMl1jMm5jKFtDSDNdKW5vMg==

> <s_epik_cmdline>
J2VwaWtfcHl0aG9uJywgJy1waCcsICc3LjAnLCAnLXRuJywgJzgnLCAnLW1hJywgJzIwMCcsICctbWV0YWxfYmluZGluZycsICctaW1hZScsICc8aW5maWxlLm1hZT4nLCAnLW9tYWUnLCAnPG91dGZpbGUubWFlPic=

> <r_lp_tautomer_probability>
1

> <r_epik_Ionization_Penalty>
4.9299e-05

> <r_epik_Ionization_Penalty_Charging>
0

> <r_epik_Ionization_Penalty_Neutral>
4.9299e-05

> <r_epik_State_Penalty>
-0

> <r_epik_Charging_Adjusted_Penalty>
0

> <i_epik_Tot_Q>
0

> <i_epik_Tot_abs_Q>
0

> <r_epik_Metal_State_Penalty>
-0

> <b_epik_Metal_Only>
0

> <s_lp_Force_Field>
OPLS_2005

> <r_lp_Energy>
0.0435146

> <b_lp_Chiralities_Consistent>
1

> <s_lp_Variant>
AV-unprocessed.smi:2878-2

> <Gold.Version>
5.8.1

> <Gold.Id.Protein>
6NUR|6NUR_protein|mol2

> <Gold.PLP.Fitness>
37.1864

> <Gold.PLP.PLP>
-32.1483

> <Gold.PLP.part.hbond>
-2.0000

> <Gold.PLP.part.metal>
0.0000

> <Gold.PLP.part.buried>
-5.2638

> <Gold.PLP.part.nonpolar>
-25.6764

> <Gold.PLP.part.repulsive>
1.4792

> <Gold.PLP.ligand.clash>
0.0000

> <Gold.PLP.ligand.torsion>
0.5218

> <Gold.PLP.Chemscore.Hbond>
2.0000

> <Gold.PLP.Chemscore.CHOScore>
0.0000

> <Gold.PLP.Chemscore.Metal>
0.0000

> <Gold.Chemscore.Hbonds>
donor molecule, donor type, donor heavy atom, donor atom, acceptor molecule, acceptor atom, score
      L1  H     9    34       P1 10175  1.00
      L1  H    12    35       P1 10175  1.00

> <Gold.PLP.Chemscore.Internal.Correction>
0.0817

> <Gold.Rescore>
     Score         DG    S(hbond)    S(metal)    S(lipo)     H(rot)  DE(clash)    DE(int)     intcor
     13.39     -13.84       1.94        0.00      61.89       2.09       0.02       0.44       ----

> <Gold.Chemscore.Fitness>
13.3876

> <Gold.Chemscore.DG>
-13.8447

> <Gold.Chemscore.ZeroCoef>
-5.4800

> <Gold.Chemscore.Hbond>
1.9399

> <Gold.Chemscore.Metal>
0.0000

> <Gold.Chemscore.Lipo>
61.8936

> <Gold.Chemscore.Internal_Hbond>
0.0000

> <Gold.Chemscore.DEClash>
0.0217

> <Gold.Chemscore.DEInternal>
0.4354

> <Gold.Chemscore.Rot>
2.0923

> <Gold.Chemscore.Internal.Correction>
   9.000000E+99

> <Gold.Chemscore.Hbonds>
donor molecule, donor type, donor heavy atom, donor atom, acceptor molecule, acceptor atom, score
      L1  H     9    34       P1 10175  0.98
      L1  H    12    35       P1 10175  0.94

> <Gold.Chemscore.Hbond.Weighted>
-6.4794

> <Gold.Chemscore.Metal.Weighted>
-0.0000

> <Gold.Chemscore.Lipo.Weighted>
-7.2416

> <Gold.Chemscore.Internal_Hbond.Weighted>
0.0000

> <Gold.Chemscore.DEClash.Weighted>
0.0217

> <Gold.Chemscore.DEInternal.Weighted>
0.4354

> <Gold.Chemscore.Rot.Weighted>
5.3562

> <Gold.Chemscore.Internal.Correction.Weighted>
   9.000000E+99

> <Gold.Protein.RotatedTorsions>
[ 6907 6896 6895 6894 ] final  -55.23 input  -60.11 | X-H torsion
[ 7974 7965 7964 7962 ] final -127.24 input  175.53 | X-H torsion
[ 8008 7997 7996 7995 ] final  -97.94 input   59.86 | X-H torsion
[ 10167 10162 10161 10158 ] final   97.70 input  -65.29 | X-H torsion
[ 10718 10713 10712 10709 ] final -173.12 input   66.30 | X-H torsion
[ 10763 10752 10751 10750 ] final   17.85 input  -60.55 | X-H torsion
[ 11005 11000 10999 10996 ] final -168.57 input  -57.11 | X-H torsion

> <Gold.Protein.ActiveResidues>
 VAL166  LYS551  ARG553  GLY616  TRP617  ASP618  TYR619  PRO620  LYS621  CYS622 
 ASP623  PHE694  ASN695  SER759  ASP760  ASP761  ALA762  ILE779  LEU786  VAL792 
 PHE793  MET794  SER795  GLU796  ALA797  LYS798  CYS799  TRP800  GLU811  SER814 

> <Gold.Protein.RotatedAtoms>
  150.8269  134.7505  159.6820 H   0  0  0  0  0  0  0  0  0  0  0  0  # atno 6907 bound_to 6896
  152.4379  134.5646  159.9914 H   0  0  0  0  0  0  0  0  0  0  0  0  # atno 6908 bound_to 6896
  151.5816  133.3339  159.3045 H   0  0  0  0  0  0  0  0  0  0  0  0  # atno 6909 bound_to 6896
  144.9791  140.7622  143.4623 H   0  0  0  0  0  0  0  0  0  0  0  0  # atno 7974 bound_to 7965
  154.7945  140.0459  157.1226 H   0  0  0  0  0  0  0  0  0  0  0  0  # atno 8008 bound_to 7997
  154.9551  140.3070  155.5037 H   0  0  0  0  0  0  0  0  0  0  0  0  # atno 8009 bound_to 7997
  156.2954  140.2281  156.4632 H   0  0  0  0  0  0  0  0  0  0  0  0  # atno 8010 bound_to 7997
  139.7777  144.6900  151.0067 H   0  0  0  0  0  0  0  0  0  0  0  0  # atno 10167 bound_to 10162
  156.7656  130.9430  151.3119 H   0  0  0  0  0  0  0  0  0  0  0  0  # atno 10718 bound_to 10713
  153.1302  135.6738  153.9191 H   0  0  0  0  0  0  0  0  0  0  0  0  # atno 10763 bound_to 10752
  153.8680  135.3073  155.3442 H   0  0  0  0  0  0  0  0  0  0  0  0  # atno 10764 bound_to 10752
  154.7700  135.4944  153.9711 H   0  0  0  0  0  0  0  0  0  0  0  0  # atno 10765 bound_to 10752
  140.5405  134.5527  157.5098 H   0  0  0  0  0  0  0  0  0  0  0  0  # atno 11005 bound_to 11000
  145.2447  139.2057  143.4974 LP  0  0  0  0  0  0  0  0  0  0  0  0  # atno 17320 bound_to 7965
  146.3403  140.2349  142.8594 LP  0  0  0  0  0  0  0  0  0  0  0  0  # atno 17321 bound_to 7965
  140.7817  143.4518  151.0402 LP  0  0  0  0  0  0  0  0  0  0  0  0  # atno 17342 bound_to 10162
  139.8200  143.7834  152.3176 LP  0  0  0  0  0  0  0  0  0  0  0  0  # atno 17343 bound_to 10162
  157.6714  130.9055  150.0050 LP  0  0  0  0  0  0  0  0  0  0  0  0  # atno 17370 bound_to 10713
  156.1310  130.3643  149.9731 LP  0  0  0  0  0  0  0  0  0  0  0  0  # atno 17371 bound_to 10713
  139.9506  134.7623  156.0456 LP  0  0  0  0  0  0  0  0  0  0  0  0  # atno 17394 bound_to 11000
  141.1230  133.6607  156.3263 LP  0  0  0  0  0  0  0  0  0  0  0  0  # atno 17395 bound_to 11000

$$$$
