AV-unprocessed.smi:633|AV-procd|sdf|3131|dock7
  -GOLD-   22720 0 53D 1   1.00000     0.00000
 Structure written by MMmdl.
 53 56  0  0  0  0  0  0  0  0  1 V2000
  151.4480  144.8847  158.3992 C   0  0  0  0  0  0  0  0  0  0  0  0
  152.1582  143.5289  158.3286 C   0  0  2  0  0  0  0  0  0  0  0  0
  151.2999  142.4609  157.6248 C   0  0  0  0  0  0  0  0  0  0  0  0
  151.9620  141.1592  157.6767 N   0  0  0  0  0  0  0  0  0  0  0  0
  151.4456  140.1205  156.8727 C   0  0  0  0  0  0  0  0  0  0  0  0
  151.7904  140.0472  155.5031 C   0  0  0  0  0  0  0  0  0  0  0  0
  151.2736  139.0010  154.7155 C   0  0  0  0  0  0  0  0  0  0  0  0
  150.4239  138.0433  155.3180 C   0  0  0  0  0  0  0  0  0  0  0  0
  149.8299  136.9409  154.6420 N   0  0  0  0  0  0  0  0  0  0  0  0
  149.4266  135.7562  155.1339 C   0  0  0  0  0  0  0  0  0  0  0  0
  149.4964  135.4100  156.3123 O   0  0  0  0  0  0  0  0  0  0  0  0
  148.9202  134.9801  154.1649 N   0  0  0  0  0  0  0  0  0  0  0  0
  148.4066  133.6252  154.3423 C   0  0  0  0  0  0  0  0  0  0  0  0
  149.4678  132.5684  154.0849 C   0  0  0  0  0  0  0  0  0  0  0  0
  149.2669  131.1313  154.5051 C   0  0  0  0  0  0  0  0  0  0  0  0
  150.2901  131.9904  155.2125 C   0  0  0  0  0  0  0  0  0  0  0  0
  147.1854  133.3719  153.4775 C   0  0  0  0  0  0  0  0  0  0  0  0
  146.9981  132.0554  152.7624 C   0  0  0  0  0  0  0  0  0  0  0  0
  147.2851  133.3121  151.9714 C   0  0  0  0  0  0  0  0  0  0  0  0
  150.1261  138.2094  156.6855 C   0  0  0  0  0  0  0  0  0  0  0  0
  150.6171  139.2124  157.4436 N   0  0  0  0  0  0  0  0  0  0  0  0
  152.3561  140.7668  159.0270 C   0  0  0  0  0  0  0  0  0  0  0  0
  153.1789  141.8847  159.6954 C   0  0  2  0  0  0  0  0  0  0  0  0
  153.5028  141.5644  161.1585 C   0  0  0  0  0  0  0  0  0  0  0  0
  152.4373  143.1009  159.6588 O   0  0  0  0  0  0  0  0  0  0  0  0
  151.2221  145.2617  157.4016 H   0  0  0  0  0  0  0  0  0  0  0  0
  152.0715  145.6252  158.9009 H   0  0  0  0  0  0  0  0  0  0  0  0
  150.5100  144.8104  158.9502 H   0  0  0  0  0  0  0  0  0  0  0  0
  153.0986  143.6587  157.7896 H   0  0  0  0  0  0  0  0  0  0  0  0
  150.3227  142.3868  158.1044 H   0  0  0  0  0  0  0  0  0  0  0  0
  151.1332  142.7550  156.5876 H   0  0  0  0  0  0  0  0  0  0  0  0
  152.4302  140.7871  155.0456 H   0  0  0  0  0  0  0  0  0  0  0  0
  151.5361  138.9699  153.6705 H   0  0  0  0  0  0  0  0  0  0  0  0
  149.6650  137.0842  153.6563 H   0  0  0  0  0  0  0  0  0  0  0  0
  148.8985  135.3502  153.2260 H   0  0  0  0  0  0  0  0  0  0  0  0
  148.0815  133.5138  155.3788 H   0  0  0  0  0  0  0  0  0  0  0  0
  149.9959  132.7092  153.1433 H   0  0  0  0  0  0  0  0  0  0  0  0
  148.3629  130.8800  155.0560 H   0  0  0  0  0  0  0  0  0  0  0  0
  149.6357  130.3567  153.8361 H   0  0  0  0  0  0  0  0  0  0  0  0
  151.3412  131.7905  155.0148 H   0  0  0  0  0  0  0  0  0  0  0  0
  150.0595  132.3101  156.2267 H   0  0  0  0  0  0  0  0  0  0  0  0
  146.2769  133.8268  153.8684 H   0  0  0  0  0  0  0  0  0  0  0  0
  147.7949  131.3185  152.8422 H   0  0  0  0  0  0  0  0  0  0  0  0
  145.9900  131.6490  152.7156 H   0  0  0  0  0  0  0  0  0  0  0  0
  146.4680  133.7432  151.3968 H   0  0  0  0  0  0  0  0  0  0  0  0
  148.2710  133.4031  151.5199 H   0  0  0  0  0  0  0  0  0  0  0  0
  149.4741  137.5133  157.1930 H   0  0  0  0  0  0  0  0  0  0  0  0
  151.4551  140.5644  159.6079 H   0  0  0  0  0  0  0  0  0  0  0  0
  152.9415  139.8483  159.0223 H   0  0  0  0  0  0  0  0  0  0  0  0
  154.1174  142.0218  159.1553 H   0  0  0  0  0  0  0  0  0  0  0  0
  154.0831  140.6450  161.2403 H   0  0  0  0  0  0  0  0  0  0  0  0
  152.5925  141.4397  161.7456 H   0  0  0  0  0  0  0  0  0  0  0  0
  154.0847  142.3666  161.6128 H   0  0  0  0  0  0  0  0  0  0  0  0
  1  2  1  0  0  0  0
  1 26  1  0  0  0  0
  1 27  1  0  0  0  0
  1 28  1  0  0  0  0
  2 25  1  0  0  0  0
  2  3  1  0  0  0  0
  2 29  1  0  0  0  0
  3  4  1  0  0  0  0
  3 30  1  0  0  0  0
  3 31  1  0  0  0  0
  4  5  1  0  0  0  0
  4 22  1  0  0  0  0
  5 21  1  0  0  0  0
  5  6  2  0  0  0  0
  6  7  1  0  0  0  0
  6 32  1  0  0  0  0
  7  8  2  0  0  0  0
  7 33  1  0  0  0  0
  8  9  1  0  0  0  0
  8 20  1  0  0  0  0
  9 10  1  0  0  0  0
  9 34  1  0  0  0  0
 10 11  2  0  0  0  0
 10 12  1  0  0  0  0
 12 13  1  0  0  0  0
 12 35  1  0  0  0  0
 13 14  1  0  0  0  0
 13 17  1  0  0  0  0
 13 36  1  0  0  0  0
 14 16  1  0  0  0  0
 14 15  1  0  0  0  0
 14 37  1  0  0  0  0
 15 16  1  0  0  0  0
 15 38  1  0  0  0  0
 15 39  1  0  0  0  0
 16 40  1  0  0  0  0
 16 41  1  0  0  0  0
 17 19  1  0  0  0  0
 17 18  1  0  0  0  0
 17 42  1  0  0  0  0
 18 19  1  0  0  0  0
 18 43  1  0  0  0  0
 18 44  1  0  0  0  0
 19 45  1  0  0  0  0
 19 46  1  0  0  0  0
 20 21  2  0  0  0  0
 20 47  1  0  0  0  0
 22 23  1  0  0  0  0
 22 48  1  0  0  0  0
 22 49  1  0  0  0  0
 23 24  1  0  0  0  0
 23 25  1  0  0  0  0
 23 50  1  0  0  0  0
 24 51  1  0  0  0  0
 24 52  1  0  0  0  0
 24 53  1  0  0  0  0
M  END
> <s_m_source_file>
AV-unprocessed.smi

> <i_m_source_file_index>
633

> <i_lp_mmshare_version>
43012

> <i_f3d_flags>
0

> <s_epik_input>
W0NIM11bQ0BASF0xW0NIMl1OKFtDSDJdW0NASF0oTzEpW0NIM10pYzJbY0hdW2NIXWMoW2NIXW4yKVtOSF1DKD1PKVtOSF1bQ0hdKFtDSF0zW0NIMl1bQ0gyXTMpW0NIXTRbQ0gyXVtDSDJdNA==

> <s_epik_cmdline>
J2VwaWtfcHl0aG9uJywgJy1waCcsICc3LjAnLCAnLXRuJywgJzgnLCAnLW1hJywgJzIwMCcsICctbWV0YWxfYmluZGluZycsICctaW1hZScsICc8aW5maWxlLm1hZT4nLCAnLW9tYWUnLCAnPG91dGZpbGUubWFlPic=

> <r_lp_tautomer_probability>
1

> <r_epik_Ionization_Penalty>
0.00291159

> <r_epik_Ionization_Penalty_Charging>
0

> <r_epik_Ionization_Penalty_Neutral>
0.00291159

> <r_epik_State_Penalty>
0.00200877

> <r_epik_Charging_Adjusted_Penalty>
0.00200877

> <i_epik_Tot_Q>
0

> <i_epik_Tot_abs_Q>
0

> <r_epik_Metal_State_Penalty>
-0

> <b_epik_Metal_Only>
0

> <s_lp_Force_Field>
OPLS_2005

> <r_lp_Energy>
40.0006

> <b_lp_Chiralities_Consistent>
1

> <s_lp_Variant>
AV-unprocessed.smi:633-2

> <Gold.Version>
5.8.1

> <Gold.Id.Protein>
6NUR|6NUR_protein|mol2

> <Gold.PLP.Fitness>
50.4307

> <Gold.PLP.PLP>
-47.1261

> <Gold.PLP.part.hbond>
-2.0000

> <Gold.PLP.part.metal>
0.0000

> <Gold.PLP.part.buried>
-3.7122

> <Gold.PLP.part.nonpolar>
-40.4835

> <Gold.PLP.part.repulsive>
0.0564

> <Gold.PLP.ligand.clash>
0.0000

> <Gold.PLP.ligand.torsion>
2.2876

> <Gold.PLP.Chemscore.Hbond>
1.8143

> <Gold.PLP.Chemscore.CHOScore>
0.0000

> <Gold.PLP.Chemscore.Metal>
0.0000

> <Gold.Chemscore.Hbonds>
donor molecule, donor type, donor heavy atom, donor atom, acceptor molecule, acceptor atom, score
      L1  H     9    34       P1  7948  0.81
      L1  H    12    35       P1  7948  1.00

> <Gold.PLP.Chemscore.Internal.Correction>
2.4369

> <Gold.Rescore>
     Score         DG    S(hbond)    S(metal)    S(lipo)     H(rot)  DE(clash)    DE(int)     intcor
     18.27     -21.67       1.74        0.00     119.42       1.40       0.03       3.37       ----

> <Gold.Chemscore.Fitness>
18.2713

> <Gold.Chemscore.DG>
-21.6666

> <Gold.Chemscore.ZeroCoef>
-5.4800

> <Gold.Chemscore.Hbond>
1.7377

> <Gold.Chemscore.Metal>
0.0000

> <Gold.Chemscore.Lipo>
119.4228

> <Gold.Chemscore.Internal_Hbond>
0.0000

> <Gold.Chemscore.DEClash>
0.0297

> <Gold.Chemscore.DEInternal>
3.3656

> <Gold.Chemscore.Rot>
1.4022

> <Gold.Chemscore.Internal.Correction>
   9.000000E+99

> <Gold.Chemscore.Hbonds>
donor molecule, donor type, donor heavy atom, donor atom, acceptor molecule, acceptor atom, score
      L1  H     9    34       P1  7948  0.60
      L1  H    12    35       P1  7948  0.59

> <Gold.Chemscore.Hbond.Weighted>
-5.8038

> <Gold.Chemscore.Metal.Weighted>
-0.0000

> <Gold.Chemscore.Lipo.Weighted>
-13.9725

> <Gold.Chemscore.Internal_Hbond.Weighted>
0.0000

> <Gold.Chemscore.DEClash.Weighted>
0.0297

> <Gold.Chemscore.DEInternal.Weighted>
3.3656

> <Gold.Chemscore.Rot.Weighted>
3.5897

> <Gold.Chemscore.Internal.Correction.Weighted>
   9.000000E+99

> <Gold.Protein.RotatedTorsions>
[ 6907 6896 6895 6894 ] final   64.98 input  -60.11 | X-H torsion
[ 7974 7965 7964 7962 ] final  119.70 input  175.53 | X-H torsion
[ 8008 7997 7996 7995 ] final  160.14 input   59.86 | X-H torsion
[ 10167 10162 10161 10158 ] final   -9.17 input  -65.29 | X-H torsion
[ 10718 10713 10712 10709 ] final -175.73 input   66.30 | X-H torsion
[ 10763 10752 10751 10750 ] final   70.43 input  -60.55 | X-H torsion
[ 11005 11000 10999 10996 ] final -136.25 input  -57.11 | X-H torsion

> <Gold.Protein.ActiveResidues>
 VAL166  LYS551  ARG553  GLY616  TRP617  ASP618  TYR619  PRO620  LYS621  CYS622 
 ASP623  PHE694  ASN695  SER759  ASP760  ASP761  ALA762  ILE779  LEU786  VAL792 
 PHE793  MET794  SER795  GLU796  ALA797  LYS798  CYS799  TRP800  GLU811  SER814 

> <Gold.Protein.RotatedAtoms>
  152.4373  134.5661  159.9907 H   0  0  0  0  0  0  0  0  0  0  0  0  # atno 6907 bound_to 6896
  151.5768  133.3377  159.3008 H   0  0  0  0  0  0  0  0  0  0  0  0  # atno 6908 bound_to 6896
  150.8273  134.7545  159.6888 H   0  0  0  0  0  0  0  0  0  0  0  0  # atno 6909 bound_to 6896
  145.1400  139.3274  143.4621 H   0  0  0  0  0  0  0  0  0  0  0  0  # atno 7974 bound_to 7965
  156.2192  140.1812  156.7516 H   0  0  0  0  0  0  0  0  0  0  0  0  # atno 8008 bound_to 7997
  154.5839  140.0661  156.9172 H   0  0  0  0  0  0  0  0  0  0  0  0  # atno 8009 bound_to 7997
  155.2454  140.3325  155.4290 H   0  0  0  0  0  0  0  0  0  0  0  0  # atno 8010 bound_to 7997
  140.7080  143.5888  150.8916 H   0  0  0  0  0  0  0  0  0  0  0  0  # atno 10167 bound_to 10162
  156.8042  130.9563  151.3118 H   0  0  0  0  0  0  0  0  0  0  0  0  # atno 10718 bound_to 10713
  153.0341  135.5174  154.7440 H   0  0  0  0  0  0  0  0  0  0  0  0  # atno 10763 bound_to 10752
  154.6431  135.2915  155.0082 H   0  0  0  0  0  0  0  0  0  0  0  0  # atno 10764 bound_to 10752
  154.0992  135.6639  153.4918 H   0  0  0  0  0  0  0  0  0  0  0  0  # atno 10765 bound_to 10752
  140.8822  134.1917  157.4583 H   0  0  0  0  0  0  0  0  0  0  0  0  # atno 11005 bound_to 11000
  146.3506  140.1433  142.8594 LP  0  0  0  0  0  0  0  0  0  0  0  0  # atno 17320 bound_to 7965
  145.0542  140.9040  143.4977 LP  0  0  0  0  0  0  0  0  0  0  0  0  # atno 17321 bound_to 7965
  139.9613  143.6160  152.3001 LP  0  0  0  0  0  0  0  0  0  0  0  0  # atno 17342 bound_to 10162
  139.6714  144.7660  151.1776 LP  0  0  0  0  0  0  0  0  0  0  0  0  # atno 17343 bound_to 10162
  157.6538  130.8907  149.9687 LP  0  0  0  0  0  0  0  0  0  0  0  0  # atno 17370 bound_to 10713
  156.1083  130.3651  150.0095 LP  0  0  0  0  0  0  0  0  0  0  0  0  # atno 17371 bound_to 10713
  139.8721  134.9822  156.5148 LP  0  0  0  0  0  0  0  0  0  0  0  0  # atno 17394 bound_to 11000
  140.8447  133.8178  155.9109 LP  0  0  0  0  0  0  0  0  0  0  0  0  # atno 17395 bound_to 11000

$$$$
