AV-unprocessed.smi:1473|AV-procd|sdf|5971|dock3
  -GOLD-   22720 6 63D 1   1.00000     0.00000
 Structure written by MMmdl.
 32 33  0  0  0  0  0  0  0  0  3 V2000
  155.0005  139.2288  157.4827 N   0  5  0  0  0  0  0  0  0  0  0  0
  154.0161  138.2589  156.6372 S   0  0  0  0  0  0  0  0  0  0  0  0
  154.7461  137.0492  156.2287 O   0  0  0  0  0  0  0  0  0  0  0  0
  152.7533  138.0159  157.3568 O   0  0  0  0  0  0  0  0  0  0  0  0
  153.8355  139.2542  155.3571 N   0  5  0  0  0  0  0  0  0  0  0  0
  152.5903  139.3307  154.5974 C   0  0  0  0  0  0  0  0  0  0  0  0
  151.5586  140.2007  155.3015 C   0  0  0  0  0  0  0  0  0  0  0  0
  150.2232  140.2508  154.8448 C   0  0  0  0  0  0  0  0  0  0  0  0
  149.3136  141.0777  155.5284 C   0  0  0  0  0  0  0  0  0  0  0  0
  149.6486  141.8206  156.6034 N   0  0  0  0  0  0  0  0  0  0  0  0
  150.9261  141.7785  157.0562 C   0  0  0  0  0  0  0  0  0  0  0  0
  151.2606  142.5586  158.1847 N   0  0  0  0  0  0  0  0  0  0  0  0
  151.1022  144.0017  158.0233 C   0  0  0  0  0  0  0  0  0  0  0  0
  151.1975  144.7074  159.3872 C   0  0  0  0  0  0  0  0  0  0  0  0
  152.4163  144.3522  160.0321 O   0  0  0  0  0  0  0  0  0  0  0  0
  152.4946  142.9523  160.2795 C   0  0  0  0  0  0  0  0  0  0  0  0
  152.4519  142.1878  158.9459 C   0  0  0  0  0  0  0  0  0  0  0  0
  151.9122  140.9820  156.4259 C   0  0  0  0  0  0  0  0  0  0  0  0
  155.7826  138.6637  157.8340 H   0  0  0  0  0  0  0  0  0  0  0  0
  152.7498  139.7422  153.5998 H   0  0  0  0  0  0  0  0  0  0  0  0
  152.1487  138.3459  154.4379 H   0  0  0  0  0  0  0  0  0  0  0  0
  149.8916  139.6815  153.9872 H   0  0  0  0  0  0  0  0  0  0  0  0
  148.2859  141.1432  155.2033 H   0  0  0  0  0  0  0  0  0  0  0  0
  151.8854  144.3684  157.3587 H   0  0  0  0  0  0  0  0  0  0  0  0
  150.1500  144.2555  157.5600 H   0  0  0  0  0  0  0  0  0  0  0  0
  151.1699  145.7888  159.2520 H   0  0  0  0  0  0  0  0  0  0  0  0
  150.3485  144.4445  160.0202 H   0  0  0  0  0  0  0  0  0  0  0  0
  153.4239  142.7360  160.8062 H   0  0  0  0  0  0  0  0  0  0  0  0
  151.6781  142.6409  160.9330 H   0  0  0  0  0  0  0  0  0  0  0  0
  152.4548  141.1152  159.1441 H   0  0  0  0  0  0  0  0  0  0  0  0
  153.3420  142.4146  158.3574 H   0  0  0  0  0  0  0  0  0  0  0  0
  152.9303  140.9861  156.7908 H   0  0  0  0  0  0  0  0  0  0  0  0
  1  2  1  0  0  0  0
  1 19  1  0  0  0  0
  2  3  2  0  0  0  0
  2  4  2  0  0  0  0
  2  5  1  0  0  0  0
  5  6  1  0  0  0  0
  6  7  1  0  0  0  0
  6 20  1  0  0  0  0
  6 21  1  0  0  0  0
  7 18  1  0  0  0  0
  7  8  2  0  0  0  0
  8  9  1  0  0  0  0
  8 22  1  0  0  0  0
  9 10  2  0  0  0  0
  9 23  1  0  0  0  0
 10 11  1  0  0  0  0
 11 12  1  0  0  0  0
 11 18  2  0  0  0  0
 12 17  1  0  0  0  0
 12 13  1  0  0  0  0
 13 14  1  0  0  0  0
 13 24  1  0  0  0  0
 13 25  1  0  0  0  0
 14 15  1  0  0  0  0
 14 26  1  0  0  0  0
 14 27  1  0  0  0  0
 15 16  1  0  0  0  0
 16 17  1  0  0  0  0
 16 28  1  0  0  0  0
 16 29  1  0  0  0  0
 17 30  1  0  0  0  0
 17 31  1  0  0  0  0
 18 32  1  0  0  0  0
M  CHG  1   1  -1
M  CHG  1   5  -1
M  END
> <s_m_source_file>
AV-unprocessed.smi

> <i_m_source_file_index>
1473

> <i_lp_mmshare_version>
43012

> <i_f3d_flags>
0

> <s_epik_input>
W05IMl1TKD1PKSg9TylbTkhdW0NIMl1jMVtjSF1bY0hdbmMoW2NIXTEpTjJbQ0gyXVtDSDJdT1tDSDJdW0NIMl0y

> <s_epik_cmdline>
J2VwaWtfcHl0aG9uJywgJy1waCcsICc3LjAnLCAnLXRuJywgJzgnLCAnLW1hJywgJzIwMCcsICctbWV0YWxfYmluZGluZycsICctaW1hZScsICc8aW5maWxlLm1hZT4nLCAnLW9tYWUnLCAnPG91dGZpbGUubWFlPic=

> <r_lp_tautomer_probability>
1

> <r_epik_Ionization_Penalty>
9.31635

> <r_epik_Ionization_Penalty_Charging>
9.0542

> <r_epik_Ionization_Penalty_Neutral>
0.262148

> <r_epik_State_Penalty>
4.75451

> <r_epik_Charging_Adjusted_Penalty>
13.8087

> <i_epik_Tot_Q>
-2

> <i_epik_Tot_abs_Q>
2

> <r_epik_Metal_State_Penalty>
1.32914

> <b_epik_Metal_Only>
1

> <s_lp_Force_Field>
OPLS_2005

> <r_lp_Energy>
19.9679

> <b_lp_Chiralities_Consistent>
1

> <s_lp_Variant>
AV-unprocessed.smi:1473-6

> <Gold.Version>
5.8.1

> <Gold.Id.Protein>
6NUR|6NUR_protein|mol2

> <Gold.PLP.Fitness>
44.3236

> <Gold.PLP.PLP>
-33.3321

> <Gold.PLP.part.hbond>
-2.8558

> <Gold.PLP.part.metal>
0.0000

> <Gold.PLP.part.buried>
-3.1414

> <Gold.PLP.part.nonpolar>
-27.2914

> <Gold.PLP.part.repulsive>
0.3718

> <Gold.PLP.ligand.clash>
0.0000

> <Gold.PLP.ligand.torsion>
1.1001

> <Gold.PLP.Chemscore.Hbond>
3.9440

> <Gold.PLP.Chemscore.CHOScore>
0.0000

> <Gold.PLP.Chemscore.Metal>
0.0000

> <Gold.Chemscore.Hbonds>
donor molecule, donor type, donor heavy atom, donor atom, acceptor molecule, acceptor atom, score
      P1  H  7997  8010       L1     5  0.45
      P1  H 10752 10765       L1     3  0.51

> <Gold.PLP.Chemscore.Internal.Correction>
1.3598

> <Gold.Rescore>
     Score         DG    S(hbond)    S(metal)    S(lipo)     H(rot)  DE(clash)    DE(int)     intcor
     16.18     -17.23       2.24        0.00      77.10       1.86       0.01       1.03       ----

> <Gold.Chemscore.Fitness>
16.1812

> <Gold.Chemscore.DG>
-17.2251

> <Gold.Chemscore.ZeroCoef>
-5.4800

> <Gold.Chemscore.Hbond>
2.2418

> <Gold.Chemscore.Metal>
0.0000

> <Gold.Chemscore.Lipo>
77.0975

> <Gold.Chemscore.Internal_Hbond>
0.0000

> <Gold.Chemscore.DEClash>
0.0148

> <Gold.Chemscore.DEInternal>
1.0291

> <Gold.Chemscore.Rot>
1.8606

> <Gold.Chemscore.Internal.Correction>
   9.000000E+99

> <Gold.Chemscore.Hbonds>
donor molecule, donor type, donor heavy atom, donor atom, acceptor molecule, acceptor atom, score
      P1  H  7997  8010       L1     5  0.04
      P1  H 10752 10765       L1     3  0.49

> <Gold.Chemscore.Hbond.Weighted>
-7.4878

> <Gold.Chemscore.Metal.Weighted>
-0.0000

> <Gold.Chemscore.Lipo.Weighted>
-9.0204

> <Gold.Chemscore.Internal_Hbond.Weighted>
0.0000

> <Gold.Chemscore.DEClash.Weighted>
0.0148

> <Gold.Chemscore.DEInternal.Weighted>
1.0291

> <Gold.Chemscore.Rot.Weighted>
4.7631

> <Gold.Chemscore.Internal.Correction.Weighted>
   9.000000E+99

> <Gold.Protein.RotatedTorsions>
[ 6907 6896 6895 6894 ] final  -83.19 input  -60.11 | X-H torsion
[ 7974 7965 7964 7962 ] final  -33.58 input  175.53 | X-H torsion
[ 8008 7997 7996 7995 ] final  111.83 input   59.86 | X-H torsion
[ 10167 10162 10161 10158 ] final  -82.86 input  -65.29 | X-H torsion
[ 10718 10713 10712 10709 ] final -108.55 input   66.30 | X-H torsion
[ 10763 10752 10751 10750 ] final  -91.56 input  -60.55 | X-H torsion
[ 11005 11000 10999 10996 ] final -114.19 input  -57.11 | X-H torsion

> <Gold.Protein.ActiveResidues>
 VAL166  LYS551  ARG553  GLY616  TRP617  ASP618  TYR619  PRO620  LYS621  CYS622 
 ASP623  PHE694  ASN695  SER759  ASP760  ASP761  ALA762  ILE779  LEU786  VAL792 
 PHE793  MET794  SER795  GLU796  ALA797  LYS798  CYS799  TRP800  GLU811  SER814 

> <Gold.Protein.RotatedAtoms>
  150.6888  134.3549  159.4925 H   0  0  0  0  0  0  0  0  0  0  0  0  # atno 6907 bound_to 6896
  152.1386  134.9077  160.0564 H   0  0  0  0  0  0  0  0  0  0  0  0  # atno 6908 bound_to 6896
  152.0220  133.3867  159.4299 H   0  0  0  0  0  0  0  0  0  0  0  0  # atno 6909 bound_to 6896
  146.0899  140.5933  142.8869 H   0  0  0  0  0  0  0  0  0  0  0  0  # atno 7974 bound_to 7965
  156.2151  140.3011  155.9821 H   0  0  0  0  0  0  0  0  0  0  0  0  # atno 8008 bound_to 7997
  155.2625  140.0430  157.3016 H   0  0  0  0  0  0  0  0  0  0  0  0  # atno 8009 bound_to 7997
  154.5756  140.2360  155.8136 H   0  0  0  0  0  0  0  0  0  0  0  0  # atno 8010 bound_to 7997
  140.4280  143.2559  151.8799 H   0  0  0  0  0  0  0  0  0  0  0  0  # atno 10167 bound_to 10162
  156.0491  130.5719  150.7977 H   0  0  0  0  0  0  0  0  0  0  0  0  # atno 10718 bound_to 10713
  154.6773  135.5263  153.8216 H   0  0  0  0  0  0  0  0  0  0  0  0  # atno 10763 bound_to 10752
  153.0541  135.6544  154.0631 H   0  0  0  0  0  0  0  0  0  0  0  0  # atno 10764 bound_to 10752
  154.0522  135.2968  155.3318 H   0  0  0  0  0  0  0  0  0  0  0  0  # atno 10765 bound_to 10752
  141.0567  133.9601  157.2741 H   0  0  0  0  0  0  0  0  0  0  0  0  # atno 11005 bound_to 11000
  144.7353  140.4790  143.6908 LP  0  0  0  0  0  0  0  0  0  0  0  0  # atno 17320 bound_to 7965
  145.6058  139.1508  143.3103 LP  0  0  0  0  0  0  0  0  0  0  0  0  # atno 17321 bound_to 7965
  139.4784  144.5365  151.8590 LP  0  0  0  0  0  0  0  0  0  0  0  0  # atno 17342 bound_to 10162
  140.4459  144.1922  150.5894 LP  0  0  0  0  0  0  0  0  0  0  0  0  # atno 17343 bound_to 10162
  157.5399  131.0940  150.9841 LP  0  0  0  0  0  0  0  0  0  0  0  0  # atno 17370 bound_to 10713
  157.0127  130.5643  149.5322 LP  0  0  0  0  0  0  0  0  0  0  0  0  # atno 17371 bound_to 10713
  139.9396  135.0192  156.8667 LP  0  0  0  0  0  0  0  0  0  0  0  0  # atno 17394 bound_to 11000
  140.5949  134.0226  155.7514 LP  0  0  0  0  0  0  0  0  0  0  0  0  # atno 17395 bound_to 11000

$$$$
