AV-unprocessed.smi:763|AV-procd|sdf|3634|dock4
  -GOLD-   22720 1 23D 1   1.00000     0.00000
 Structure written by MMmdl.
 44 45  0  0  0  0  0  0  0  0  1 V2000
  145.4800  142.9425  161.4875 C   0  0  0  0  0  0  0  0  0  0  0  0
  146.1632  142.5998  160.2921 O   0  0  0  0  0  0  0  0  0  0  0  0
  145.3061  142.3446  159.1879 C   0  0  0  0  0  0  0  0  0  0  0  0
  145.8092  143.0160  157.9016 C   0  0  0  0  0  0  0  0  0  0  0  0
  147.0944  142.4886  157.5873 O   0  0  0  0  0  0  0  0  0  0  0  0
  147.3052  141.9599  156.3282 C   0  0  0  0  0  0  0  0  0  0  0  0
  146.3161  142.0665  155.4054 N   0  0  0  0  0  0  0  0  0  0  0  0
  146.5277  141.5521  154.1759 C   0  0  0  0  0  0  0  0  0  0  0  0
  147.7240  140.9113  153.8030 C   0  0  0  0  0  0  0  0  0  0  0  0
  148.7492  140.7991  154.7602 C   0  0  0  0  0  0  0  0  0  0  0  0
  148.5404  141.3317  156.0508 C   0  0  0  0  0  0  0  0  0  0  0  0
  149.5180  141.2490  157.0463 N   0  0  0  0  0  0  0  0  0  0  0  0
  151.0950  140.5356  156.9521 S   0  0  0  0  0  0  0  0  0  0  0  0
  150.9987  139.2657  157.6885 O   0  0  0  0  0  0  0  0  0  0  0  0
  151.4557  140.5624  155.5263 O   0  0  0  0  0  0  0  0  0  0  0  0
  152.1457  141.7347  157.9035 C   0  0  2  0  0  0  0  0  0  0  0  0
  152.5341  141.1223  159.2650 C   0  0  0  0  0  0  0  0  0  0  0  0
  153.3806  142.0890  160.1063 C   0  0  0  0  0  0  0  0  0  0  0  0
  152.6595  143.4311  160.2951 C   0  0  0  0  0  0  0  0  0  0  0  0
  152.3113  144.0616  158.9389 C   0  0  0  0  0  0  0  0  0  0  0  0
  151.4601  143.1129  158.0744 C   0  0  1  0  0  0  0  0  0  0  0  0
  151.2639  143.7353  156.8216 O   0  0  0  0  0  0  0  0  0  0  0  0
  146.2068  143.1740  162.2660 H   0  0  0  0  0  0  0  0  0  0  0  0
  144.8598  142.1225  161.8492 H   0  0  0  0  0  0  0  0  0  0  0  0
  144.8507  143.8219  161.3456 H   0  0  0  0  0  0  0  0  0  0  0  0
  145.1551  141.2736  159.0436 H   0  0  0  0  0  0  0  0  0  0  0  0
  144.3319  142.7620  159.4434 H   0  0  0  0  0  0  0  0  0  0  0  0
  145.1159  142.8037  157.0860 H   0  0  0  0  0  0  0  0  0  0  0  0
  145.8605  144.0979  158.0322 H   0  0  0  0  0  0  0  0  0  0  0  0
  145.7185  141.6548  153.4680 H   0  0  0  0  0  0  0  0  0  0  0  0
  147.8523  140.5139  152.8071 H   0  0  0  0  0  0  0  0  0  0  0  0
  149.6751  140.3097  154.4975 H   0  0  0  0  0  0  0  0  0  0  0  0
  149.2595  141.6507  157.9357 H   0  0  0  0  0  0  0  0  0  0  0  0
  153.0593  141.8675  157.3224 H   0  0  0  0  0  0  0  0  0  0  0  0
  151.6338  140.8598  159.8219 H   0  0  0  0  0  0  0  0  0  0  0  0
  153.0849  140.1932  159.1159 H   0  0  0  0  0  0  0  0  0  0  0  0
  153.5975  141.6438  161.0777 H   0  0  0  0  0  0  0  0  0  0  0  0
  154.3429  142.2531  159.6198 H   0  0  0  0  0  0  0  0  0  0  0  0
  151.7481  143.2808  160.8752 H   0  0  0  0  0  0  0  0  0  0  0  0
  153.2865  144.1118  160.8719 H   0  0  0  0  0  0  0  0  0  0  0  0
  151.7806  145.0014  159.0959 H   0  0  0  0  0  0  0  0  0  0  0  0
  153.2341  144.3130  158.4136 H   0  0  0  0  0  0  0  0  0  0  0  0
  150.4859  142.9856  158.5472 H   0  0  0  0  0  0  0  0  0  0  0  0
  150.3649  144.0235  156.7655 H   0  0  0  0  0  0  0  0  0  0  0  0
  1  2  1  0  0  0  0
  1 23  1  0  0  0  0
  1 24  1  0  0  0  0
  1 25  1  0  0  0  0
  2  3  1  0  0  0  0
  3  4  1  0  0  0  0
  3 26  1  0  0  0  0
  3 27  1  0  0  0  0
  4  5  1  0  0  0  0
  4 28  1  0  0  0  0
  4 29  1  0  0  0  0
  5  6  1  0  0  0  0
  6 11  1  0  0  0  0
  6  7  2  0  0  0  0
  7  8  1  0  0  0  0
  8  9  2  0  0  0  0
  8 30  1  0  0  0  0
  9 10  1  0  0  0  0
  9 31  1  0  0  0  0
 10 11  2  0  0  0  0
 10 32  1  0  0  0  0
 11 12  1  0  0  0  0
 12 13  1  0  0  0  0
 12 33  1  0  0  0  0
 13 14  2  0  0  0  0
 13 15  2  0  0  0  0
 13 16  1  0  0  0  0
 16 21  1  0  0  0  0
 16 17  1  0  0  0  0
 16 34  1  0  0  0  0
 17 18  1  0  0  0  0
 17 35  1  0  0  0  0
 17 36  1  0  0  0  0
 18 19  1  0  0  0  0
 18 37  1  0  0  0  0
 18 38  1  0  0  0  0
 19 20  1  0  0  0  0
 19 39  1  0  0  0  0
 19 40  1  0  0  0  0
 20 21  1  0  0  0  0
 20 41  1  0  0  0  0
 20 42  1  0  0  0  0
 21 22  1  0  0  0  0
 21 43  1  0  0  0  0
 22 44  1  0  0  0  0
M  END
> <s_m_source_file>
AV-unprocessed.smi

> <i_m_source_file_index>
763

> <i_lp_mmshare_version>
43012

> <i_f3d_flags>
0

> <s_epik_input>
W0NIM11PW0NIMl1bQ0gyXU9jMW5bY0hdW2NIXVtjSF1jMVtOSF1TKD1PKSg9TylbQ0BASF0yW0NIMl1bQ0gyXVtDSDJdW0NIMl1bQ0BIXTJbT0hd

> <s_epik_cmdline>
J2VwaWtfcHl0aG9uJywgJy1waCcsICc3LjAnLCAnLXRuJywgJzgnLCAnLW1hJywgJzIwMCcsICctbWV0YWxfYmluZGluZycsICctaW1hZScsICc8aW5maWxlLm1hZT4nLCAnLW9tYWUnLCAnPG91dGZpbGUubWFlPic=

> <r_epik_Ionization_Penalty>
0.124685

> <r_epik_Ionization_Penalty_Charging>
0

> <r_epik_Ionization_Penalty_Neutral>
0.124685

> <r_epik_State_Penalty>
0.114154

> <r_epik_Charging_Adjusted_Penalty>
0.114154

> <i_epik_Tot_Q>
0

> <i_epik_Tot_abs_Q>
0

> <r_epik_Metal_State_Penalty>
0.443785

> <b_epik_Metal_Only>
0

> <s_lp_Force_Field>
OPLS_2005

> <r_lp_Energy>
9.05246

> <b_lp_Chiralities_Consistent>
1

> <s_lp_Variant>
AV-unprocessed.smi:763-1

> <Gold.Version>
5.8.1

> <Gold.Id.Protein>
6NUR|6NUR_protein|mol2

> <Gold.PLP.Fitness>
46.0845

> <Gold.PLP.PLP>
-38.0632

> <Gold.PLP.part.hbond>
-3.0000

> <Gold.PLP.part.metal>
0.0000

> <Gold.PLP.part.buried>
-6.2902

> <Gold.PLP.part.nonpolar>
-29.1712

> <Gold.PLP.part.repulsive>
0.3551

> <Gold.PLP.ligand.clash>
0.0000

> <Gold.PLP.ligand.torsion>
1.8556

> <Gold.PLP.Chemscore.Hbond>
2.7920

> <Gold.PLP.Chemscore.CHOScore>
0.6616

> <Gold.PLP.Chemscore.Metal>
0.0000

> <Gold.Chemscore.Hbonds>
donor molecule, donor type, donor heavy atom, donor atom, acceptor molecule, acceptor atom, score
      L1  H    22    44       P1  8028  0.98
      P1  H  6934  6946       L1     2  1.00
      P1  H  7989  7998       L1    15  0.77
      L1  C     8    30       P1 10175  0.72

> <Gold.PLP.Chemscore.Internal.Correction>
1.3716

> <Gold.Rescore>
     Score         DG    S(hbond)    S(metal)    S(lipo)     H(rot)  DE(clash)    DE(int)     intcor
     15.66     -19.18       2.71        0.00      92.48       2.41       0.13       3.39       ----

> <Gold.Chemscore.Fitness>
15.6556

> <Gold.Chemscore.DG>
-19.1822

> <Gold.Chemscore.ZeroCoef>
-5.4800

> <Gold.Chemscore.Hbond>
2.7063

> <Gold.Chemscore.Metal>
0.0000

> <Gold.Chemscore.Lipo>
92.4840

> <Gold.Chemscore.Internal_Hbond>
0.0000

> <Gold.Chemscore.DEClash>
0.1321

> <Gold.Chemscore.DEInternal>
3.3946

> <Gold.Chemscore.Rot>
2.4052

> <Gold.Chemscore.Internal.Correction>
   9.000000E+99

> <Gold.Chemscore.Hbonds>
donor molecule, donor type, donor heavy atom, donor atom, acceptor molecule, acceptor atom, score
      L1  H    22    44       P1  8028  0.92
      P1  H  6934  6946       L1     2  0.15
      P1  H  7989  7998       L1    15  0.73

> <Gold.Chemscore.Hbond.Weighted>
-9.0390

> <Gold.Chemscore.Metal.Weighted>
-0.0000

> <Gold.Chemscore.Lipo.Weighted>
-10.8206

> <Gold.Chemscore.Internal_Hbond.Weighted>
0.0000

> <Gold.Chemscore.DEClash.Weighted>
0.1321

> <Gold.Chemscore.DEInternal.Weighted>
3.3946

> <Gold.Chemscore.Rot.Weighted>
6.1574

> <Gold.Chemscore.Internal.Correction.Weighted>
   9.000000E+99

> <Gold.Protein.RotatedTorsions>
[ 6907 6896 6895 6894 ] final -165.16 input  -60.11 | X-H torsion
[ 7974 7965 7964 7962 ] final  155.24 input  175.53 | X-H torsion
[ 8008 7997 7996 7995 ] final  -24.33 input   59.86 | X-H torsion
[ 10167 10162 10161 10158 ] final  -11.22 input  -65.29 | X-H torsion
[ 10718 10713 10712 10709 ] final   93.72 input   66.30 | X-H torsion
[ 10763 10752 10751 10750 ] final -150.86 input  -60.55 | X-H torsion
[ 11005 11000 10999 10996 ] final  -95.85 input  -57.11 | X-H torsion

> <Gold.Protein.ActiveResidues>
 VAL166  LYS551  ARG553  GLY616  TRP617  ASP618  TYR619  PRO620  LYS621  CYS622 
 ASP623  PHE694  ASN695  SER759  ASP760  ASP761  ALA762  ILE779  LEU786  VAL792 
 PHE793  MET794  SER795  GLU796  ALA797  LYS798  CYS799  TRP800  GLU811  SER814 

> <Gold.Protein.RotatedAtoms>
  151.4233  133.3692  159.2758 H   0  0  0  0  0  0  0  0  0  0  0  0  # atno 6907 bound_to 6896
  150.9278  134.8695  159.7542 H   0  0  0  0  0  0  0  0  0  0  0  0  # atno 6908 bound_to 6896
  152.5013  134.4175  159.9521 H   0  0  0  0  0  0  0  0  0  0  0  0  # atno 6909 bound_to 6896
  144.8037  139.7041  143.6171 H   0  0  0  0  0  0  0  0  0  0  0  0  # atno 7974 bound_to 7965
  154.4535  140.1956  156.0448 H   0  0  0  0  0  0  0  0  0  0  0  0  # atno 8008 bound_to 7997
  156.0698  140.3286  155.7534 H   0  0  0  0  0  0  0  0  0  0  0  0  # atno 8009 bound_to 7997
  155.5282  140.0575  157.2885 H   0  0  0  0  0  0  0  0  0  0  0  0  # atno 8010 bound_to 7997
  140.7133  143.5663  150.9140 H   0  0  0  0  0  0  0  0  0  0  0  0  # atno 10167 bound_to 10162
  157.6953  131.0488  150.4077 H   0  0  0  0  0  0  0  0  0  0  0  0  # atno 10718 bound_to 10713
  154.8093  135.3274  154.7348 H   0  0  0  0  0  0  0  0  0  0  0  0  # atno 10763 bound_to 10752
  153.8000  135.6904  153.4861 H   0  0  0  0  0  0  0  0  0  0  0  0  # atno 10764 bound_to 10752
  153.1860  135.4568  155.0035 H   0  0  0  0  0  0  0  0  0  0  0  0  # atno 10765 bound_to 10752
  141.1429  133.8056  157.0492 H   0  0  0  0  0  0  0  0  0  0  0  0  # atno 11005 bound_to 11000
  146.2324  139.5840  142.9546 LP  0  0  0  0  0  0  0  0  0  0  0  0  # atno 17320 bound_to 7965
  145.5489  141.0415  143.2289 LP  0  0  0  0  0  0  0  0  0  0  0  0  # atno 17321 bound_to 7965
  139.9389  143.6405  152.3058 LP  0  0  0  0  0  0  0  0  0  0  0  0  # atno 17342 bound_to 10162
  139.6883  144.7649  151.1485 LP  0  0  0  0  0  0  0  0  0  0  0  0  # atno 17343 bound_to 10162
  156.4464  130.4002  149.6664 LP  0  0  0  0  0  0  0  0  0  0  0  0  # atno 17370 bound_to 10713
  156.3829  130.7588  151.2583 LP  0  0  0  0  0  0  0  0  0  0  0  0  # atno 17371 bound_to 10713
  140.0643  134.9737  157.1359 LP  0  0  0  0  0  0  0  0  0  0  0  0  # atno 17394 bound_to 11000
  140.3803  134.2294  155.7171 LP  0  0  0  0  0  0  0  0  0  0  0  0  # atno 17395 bound_to 11000

$$$$
