AV-unprocessed.smi:2244|AV-procd|sdf|9074|dock7
  -GOLD-   2272012283D 1   1.00000     0.00000
 Structure written by MMmdl.
 49 51  0  0  0  0  0  0  0  0  1 V2000
  160.0596  134.4411  157.2873 C   0  0  0  0  0  0  0  0  0  0  0  0
  158.7346  134.8331  156.5947 C   0  0  0  0  0  0  0  0  0  0  0  0
  159.0956  135.5202  155.2611 C   0  0  0  0  0  0  0  0  0  0  0  0
  157.9518  133.5322  156.3207 C   0  0  0  0  0  0  0  0  0  0  0  0
  157.8798  135.7811  157.4549 C   0  0  0  0  0  0  0  0  0  0  0  0
  157.5004  137.0760  157.0359 C   0  0  0  0  0  0  0  0  0  0  0  0
  156.7246  137.8477  157.9172 C   0  0  0  0  0  0  0  0  0  0  0  0
  156.3649  137.2944  159.1626 C   0  0  0  0  0  0  0  0  0  0  0  0
  155.5902  138.1517  159.9973 N   0  0  0  0  0  0  0  0  0  0  0  0
  155.4202  139.4910  159.9880 C   0  0  0  0  0  0  0  0  0  0  0  0
  155.9827  140.1941  159.1503 O   0  0  0  0  0  0  0  0  0  0  0  0
  154.6067  139.9945  160.9309 N   0  0  0  0  0  0  0  0  0  0  0  0
  154.2886  141.4068  161.1150 C   0  0  2  0  0  0  0  0  0  0  0  0
  153.5452  141.6250  162.4426 C   0  0  0  0  0  0  0  0  0  0  0  0
  153.0559  143.0773  162.5585 C   0  0  0  0  0  0  0  0  0  0  0  0
  152.2439  143.4106  161.4374 O   0  0  0  0  0  0  0  0  0  0  0  0
  152.9451  143.3448  160.1991 C   0  0  2  0  0  0  0  0  0  0  0  0
  152.0187  143.8328  159.1030 C   0  0  0  0  0  0  0  0  0  0  0  0
  152.5323  144.7317  158.0025 C   0  0  0  0  0  0  0  0  0  0  0  0
  151.5858  145.2789  159.0437 C   0  0  0  0  0  0  0  0  0  0  0  0
  153.4135  141.8989  159.9532 C   0  0  0  0  0  0  0  0  0  0  0  0
  156.7671  136.0419  159.4978 N   0  0  0  0  0  0  0  0  0  0  0  0
  157.5052  135.3020  158.6659 N   0  0  0  0  0  0  0  0  0  0  0  0
  160.6499  133.7716  156.6605 H   0  0  0  0  0  0  0  0  0  0  0  0
  159.8840  133.9210  158.2299 H   0  0  0  0  0  0  0  0  0  0  0  0
  160.6807  135.3137  157.4937 H   0  0  0  0  0  0  0  0  0  0  0  0
  159.6474  136.4454  155.4308 H   0  0  0  0  0  0  0  0  0  0  0  0
  158.2081  135.7692  154.6785 H   0  0  0  0  0  0  0  0  0  0  0  0
  159.7175  134.8762  154.6383 H   0  0  0  0  0  0  0  0  0  0  0  0
  158.5404  132.8316  155.7272 H   0  0  0  0  0  0  0  0  0  0  0  0
  157.0287  133.7214  155.7717 H   0  0  0  0  0  0  0  0  0  0  0  0
  157.6833  133.0299  157.2508 H   0  0  0  0  0  0  0  0  0  0  0  0
  157.7831  137.4886  156.0799 H   0  0  0  0  0  0  0  0  0  0  0  0
  156.4151  138.8448  157.6388 H   0  0  0  0  0  0  0  0  0  0  0  0
  155.0383  137.6678  160.6904 H   0  0  0  0  0  0  0  0  0  0  0  0
  154.1849  139.3462  161.5810 H   0  0  0  0  0  0  0  0  0  0  0  0
  155.2087  141.9945  161.1209 H   0  0  0  0  0  0  0  0  0  0  0  0
  152.6875  140.9531  162.5019 H   0  0  0  0  0  0  0  0  0  0  0  0
  154.1920  141.3811  163.2859 H   0  0  0  0  0  0  0  0  0  0  0  0
  152.4679  143.2023  163.4678 H   0  0  0  0  0  0  0  0  0  0  0  0
  153.8987  143.7666  162.6281 H   0  0  0  0  0  0  0  0  0  0  0  0
  153.8101  144.0098  160.2420 H   0  0  0  0  0  0  0  0  0  0  0  0
  151.2686  143.1020  158.8064 H   0  0  0  0  0  0  0  0  0  0  0  0
  153.5717  145.0507  158.0519 H   0  0  0  0  0  0  0  0  0  0  0  0
  152.1407  144.5713  157.0001 H   0  0  0  0  0  0  0  0  0  0  0  0
  150.5626  145.4838  158.7355 H   0  0  0  0  0  0  0  0  0  0  0  0
  151.9948  145.9614  159.7862 H   0  0  0  0  0  0  0  0  0  0  0  0
  153.9671  141.8381  159.0153 H   0  0  0  0  0  0  0  0  0  0  0  0
  152.5432  141.2494  159.8446 H   0  0  0  0  0  0  0  0  0  0  0  0
  1  2  1  0  0  0  0
  1 24  1  0  0  0  0
  1 25  1  0  0  0  0
  1 26  1  0  0  0  0
  2  3  1  0  0  0  0
  2  4  1  0  0  0  0
  2  5  1  0  0  0  0
  3 27  1  0  0  0  0
  3 28  1  0  0  0  0
  3 29  1  0  0  0  0
  4 30  1  0  0  0  0
  4 31  1  0  0  0  0
  4 32  1  0  0  0  0
  5 23  1  0  0  0  0
  5  6  2  0  0  0  0
  6  7  1  0  0  0  0
  6 33  1  0  0  0  0
  7  8  2  0  0  0  0
  7 34  1  0  0  0  0
  8  9  1  0  0  0  0
  8 22  1  0  0  0  0
  9 10  1  0  0  0  0
  9 35  1  0  0  0  0
 10 11  2  0  0  0  0
 10 12  1  0  0  0  0
 12 13  1  0  0  0  0
 12 36  1  0  0  0  0
 13 21  1  0  0  0  0
 13 14  1  0  0  0  0
 13 37  1  0  0  0  0
 14 15  1  0  0  0  0
 14 38  1  0  0  0  0
 14 39  1  0  0  0  0
 15 16  1  0  0  0  0
 15 40  1  0  0  0  0
 15 41  1  0  0  0  0
 16 17  1  0  0  0  0
 17 18  1  0  0  0  0
 17 21  1  0  0  0  0
 17 42  1  0  0  0  0
 18 20  1  0  0  0  0
 18 19  1  0  0  0  0
 18 43  1  0  0  0  0
 19 20  1  0  0  0  0
 19 44  1  0  0  0  0
 19 45  1  0  0  0  0
 20 46  1  0  0  0  0
 20 47  1  0  0  0  0
 21 48  1  0  0  0  0
 21 49  1  0  0  0  0
 22 23  2  0  0  0  0
M  END
> <s_m_source_file>
AV-unprocessed.smi

> <i_m_source_file_index>
2244

> <i_lp_mmshare_version>
43012

> <i_f3d_flags>
0

> <s_epik_input>
W0NIM11DKFtDSDNdKShbQ0gzXSljMVtjSF1bY0hdYyhubjEpW05IXUMoPU8pW05IXVtDQEBIXTJbQ0gyXVtDSDJdT1tDQEhdKFtDSDJdMilbQ0hdM1tDSDJdW0NIMl0z

> <s_epik_cmdline>
J2VwaWtfcHl0aG9uJywgJy1waCcsICc3LjAnLCAnLXRuJywgJzgnLCAnLW1hJywgJzIwMCcsICctbWV0YWxfYmluZGluZycsICctaW1hZScsICc8aW5maWxlLm1hZT4nLCAnLW9tYWUnLCAnPG91dGZpbGUubWFlPic=

> <r_lp_tautomer_probability>
1

> <r_epik_Ionization_Penalty>
0.011369

> <r_epik_Ionization_Penalty_Charging>
0

> <r_epik_Ionization_Penalty_Neutral>
0.011369

> <r_epik_State_Penalty>
0.00456331

> <r_epik_Charging_Adjusted_Penalty>
0.00456331

> <i_epik_Tot_Q>
0

> <i_epik_Tot_abs_Q>
0

> <r_epik_Metal_State_Penalty>
-0

> <b_epik_Metal_Only>
0

> <s_lp_Force_Field>
OPLS_2005

> <r_lp_Energy>
27.8211

> <b_lp_Chiralities_Consistent>
1

> <s_lp_Variant>
AV-unprocessed.smi:2244-3

> <Gold.Version>
5.8.1

> <Gold.Id.Protein>
6NUR|6NUR_protein|mol2

> <Gold.PLP.Fitness>
41.2957

> <Gold.PLP.PLP>
-38.8375

> <Gold.PLP.part.hbond>
-1.0000

> <Gold.PLP.part.metal>
0.0000

> <Gold.PLP.part.buried>
-3.3981

> <Gold.PLP.part.nonpolar>
-33.8843

> <Gold.PLP.part.repulsive>
0.2163

> <Gold.PLP.ligand.clash>
0.0000

> <Gold.PLP.ligand.torsion>
0.7994

> <Gold.PLP.Chemscore.Hbond>
0.9920

> <Gold.PLP.Chemscore.CHOScore>
0.0000

> <Gold.PLP.Chemscore.Metal>
0.0000

> <Gold.Chemscore.Hbonds>
donor molecule, donor type, donor heavy atom, donor atom, acceptor molecule, acceptor atom, score
      P1  H  7997  8010       L1    11  0.96

> <Gold.PLP.Chemscore.Internal.Correction>
1.0810

> <Gold.Rescore>
     Score         DG    S(hbond)    S(metal)    S(lipo)     H(rot)  DE(clash)    DE(int)     intcor
     16.37     -18.74       0.94        0.00     115.02       1.30       0.14       2.22       ----

> <Gold.Chemscore.Fitness>
16.3742

> <Gold.Chemscore.DG>
-18.7382

> <Gold.Chemscore.ZeroCoef>
-5.4800

> <Gold.Chemscore.Hbond>
0.9368

> <Gold.Chemscore.Metal>
0.0000

> <Gold.Chemscore.Lipo>
115.0236

> <Gold.Chemscore.Internal_Hbond>
0.0000

> <Gold.Chemscore.DEClash>
0.1420

> <Gold.Chemscore.DEInternal>
2.2220

> <Gold.Chemscore.Rot>
1.3002

> <Gold.Chemscore.Internal.Correction>
   9.000000E+99

> <Gold.Chemscore.Hbonds>
donor molecule, donor type, donor heavy atom, donor atom, acceptor molecule, acceptor atom, score
      P1  H  7997  8010       L1    11  0.91

> <Gold.Chemscore.Hbond.Weighted>
-3.1288

> <Gold.Chemscore.Metal.Weighted>
-0.0000

> <Gold.Chemscore.Lipo.Weighted>
-13.4578

> <Gold.Chemscore.Internal_Hbond.Weighted>
0.0000

> <Gold.Chemscore.DEClash.Weighted>
0.1420

> <Gold.Chemscore.DEInternal.Weighted>
2.2220

> <Gold.Chemscore.Rot.Weighted>
3.3284

> <Gold.Chemscore.Internal.Correction.Weighted>
   9.000000E+99

> <Gold.Protein.RotatedTorsions>
[ 6907 6896 6895 6894 ] final   10.38 input  -60.11 | X-H torsion
[ 7974 7965 7964 7962 ] final  -72.68 input  175.53 | X-H torsion
[ 8008 7997 7996 7995 ] final  -24.89 input   59.86 | X-H torsion
[ 10167 10162 10161 10158 ] final  -68.75 input  -65.29 | X-H torsion
[ 10718 10713 10712 10709 ] final  162.93 input   66.30 | X-H torsion
[ 10763 10752 10751 10750 ] final  -40.89 input  -60.55 | X-H torsion
[ 11005 11000 10999 10996 ] final -124.49 input  -57.11 | X-H torsion

> <Gold.Protein.ActiveResidues>
 VAL166  LYS551  ARG553  GLY616  TRP617  ASP618  TYR619  PRO620  LYS621  CYS622 
 ASP623  PHE694  ASN695  SER759  ASP760  ASP761  ALA762  ILE779  LEU786  VAL792 
 PHE793  MET794  SER795  GLU796  ALA797  LYS798  CYS799  TRP800  GLU811  SER814 

> <Gold.Protein.RotatedAtoms>
  151.7374  135.0862  160.0309 H   0  0  0  0  0  0  0  0  0  0  0  0  # atno 6907 bound_to 6896
  152.3502  133.6166  159.5948 H   0  0  0  0  0  0  0  0  0  0  0  0  # atno 6908 bound_to 6896
  150.7535  133.9502  159.3525 H   0  0  0  0  0  0  0  0  0  0  0  0  # atno 6909 bound_to 6896
  145.6620  140.9249  143.0928 H   0  0  0  0  0  0  0  0  0  0  0  0  # atno 7974 bound_to 7965
  154.4505  140.1941  156.0535 H   0  0  0  0  0  0  0  0  0  0  0  0  # atno 8008 bound_to 7997
  156.0636  140.3293  155.7464 H   0  0  0  0  0  0  0  0  0  0  0  0  # atno 8009 bound_to 7997
  155.5373  140.0583  157.2868 H   0  0  0  0  0  0  0  0  0  0  0  0  # atno 8010 bound_to 7997
  140.5484  143.2312  151.6958 H   0  0  0  0  0  0  0  0  0  0  0  0  # atno 10167 bound_to 10162
  157.1157  131.0479  151.2437 H   0  0  0  0  0  0  0  0  0  0  0  0  # atno 10718 bound_to 10713
  153.9535  135.6748  153.4744 H   0  0  0  0  0  0  0  0  0  0  0  0  # atno 10763 bound_to 10752
  153.0873  135.4892  154.8618 H   0  0  0  0  0  0  0  0  0  0  0  0  # atno 10764 bound_to 10752
  154.7312  135.3138  154.8847 H   0  0  0  0  0  0  0  0  0  0  0  0  # atno 10765 bound_to 10752
  140.9836  134.0638  157.3736 H   0  0  0  0  0  0  0  0  0  0  0  0  # atno 11005 bound_to 11000
  144.7086  139.8462  143.7422 LP  0  0  0  0  0  0  0  0  0  0  0  0  # atno 17320 bound_to 7965
  146.1117  139.4122  143.0283 LP  0  0  0  0  0  0  0  0  0  0  0  0  # atno 17321 bound_to 7965
  139.5017  144.3858  152.0330 LP  0  0  0  0  0  0  0  0  0  0  0  0  # atno 17342 bound_to 10162
  140.2973  144.3687  150.6070 LP  0  0  0  0  0  0  0  0  0  0  0  0  # atno 17343 bound_to 10162
  157.4521  130.7604  149.7160 LP  0  0  0  0  0  0  0  0  0  0  0  0  # atno 17370 bound_to 10713
  155.9840  130.3995  150.3334 LP  0  0  0  0  0  0  0  0  0  0  0  0  # atno 17371 bound_to 10713
  139.8961  135.0144  156.7034 LP  0  0  0  0  0  0  0  0  0  0  0  0  # atno 17394 bound_to 11000
  140.7148  133.9192  155.8108 LP  0  0  0  0  0  0  0  0  0  0  0  0  # atno 17395 bound_to 11000

$$$$
