AV-unprocessed.smi:2102|AV-procd|sdf|8581|dock10
  -GOLD-   2272011313D 1   1.00000     0.00000
 Structure written by MMmdl.
 29 30  0  0  0  0  0  0  0  0  1 V2000
  153.5084  141.3574  160.2928 C   0  0  0  0  0  0  0  0  0  0  0  0
  152.5418  141.9871  159.4175 N   0  0  0  0  0  0  0  0  0  0  0  0
  151.9118  143.1865  159.8298 C   0  0  0  0  0  0  0  0  0  0  0  0
  152.1529  143.7277  160.9093 O   0  0  0  0  0  0  0  0  0  0  0  0
  150.9534  143.7240  158.8712 C   0  0  0  0  0  0  0  0  0  0  0  0
  150.7171  143.0963  157.6984 C   0  0  0  0  0  0  0  0  0  0  0  0
  151.3478  141.9251  157.3200 N   0  0  0  0  0  0  0  0  0  0  0  0
  151.0459  141.3228  156.0151 C   0  0  0  0  0  0  0  0  0  0  0  0
  149.5435  141.0957  155.7965 C   0  0  0  0  0  0  0  0  0  0  0  0
  149.0597  139.9666  155.8908 O   0  0  0  0  0  0  0  0  0  0  0  0
  148.8237  142.1830  155.4845 N   0  0  0  0  0  0  0  0  0  0  0  0
  147.4183  142.2032  155.2363 C   0  0  0  0  0  0  0  0  0  0  0  0
  146.8945  141.3686  154.0877 C   0  0  0  0  0  0  0  0  0  0  0  0
  146.9390  142.8667  153.9632 C   0  0  0  0  0  0  0  0  0  0  0  0
  152.2898  141.3359  158.1903 C   0  0  0  0  0  0  0  0  0  0  0  0
  152.8672  140.2907  157.8798 O   0  0  0  0  0  0  0  0  0  0  0  0
  153.6643  141.9412  161.1992 H   0  0  0  0  0  0  0  0  0  0  0  0
  154.4467  141.2815  159.7403 H   0  0  0  0  0  0  0  0  0  0  0  0
  153.1162  140.3714  160.5482 H   0  0  0  0  0  0  0  0  0  0  0  0
  150.4273  144.6381  159.1034 H   0  0  0  0  0  0  0  0  0  0  0  0
  150.0004  143.5376  157.0210 H   0  0  0  0  0  0  0  0  0  0  0  0
  151.4489  141.9442  155.2131 H   0  0  0  0  0  0  0  0  0  0  0  0
  151.5518  140.3606  155.9237 H   0  0  0  0  0  0  0  0  0  0  0  0
  149.3078  143.0671  155.4253 H   0  0  0  0  0  0  0  0  0  0  0  0
  146.7593  142.2934  156.0990 H   0  0  0  0  0  0  0  0  0  0  0  0
  147.6128  140.7951  153.5048 H   0  0  0  0  0  0  0  0  0  0  0  0
  145.9183  140.9038  154.2108 H   0  0  0  0  0  0  0  0  0  0  0  0
  145.9933  143.4034  154.0040 H   0  0  0  0  0  0  0  0  0  0  0  0
  147.6868  143.2922  153.2965 H   0  0  0  0  0  0  0  0  0  0  0  0
  1  2  1  0  0  0  0
  1 17  1  0  0  0  0
  1 18  1  0  0  0  0
  1 19  1  0  0  0  0
  2 15  1  0  0  0  0
  2  3  1  0  0  0  0
  3  4  2  0  0  0  0
  3  5  1  0  0  0  0
  5  6  2  0  0  0  0
  5 20  1  0  0  0  0
  6  7  1  0  0  0  0
  6 21  1  0  0  0  0
  7  8  1  0  0  0  0
  7 15  1  0  0  0  0
  8  9  1  0  0  0  0
  8 22  1  0  0  0  0
  8 23  1  0  0  0  0
  9 10  2  0  0  0  0
  9 11  1  0  0  0  0
 11 12  1  0  0  0  0
 11 24  1  0  0  0  0
 12 14  1  0  0  0  0
 12 13  1  0  0  0  0
 12 25  1  0  0  0  0
 13 14  1  0  0  0  0
 13 26  1  0  0  0  0
 13 27  1  0  0  0  0
 14 28  1  0  0  0  0
 14 29  1  0  0  0  0
 15 16  2  0  0  0  0
M  END
> <s_m_source_file>
AV-unprocessed.smi

> <i_m_source_file_index>
2102

> <i_lp_mmshare_version>
43012

> <i_f3d_flags>
0

> <s_epik_input>
W0NIM11uMWMoPU8pW2NIXVtjSF1uKGMxPU8pW0NIMl1DKD1PKVtOSF1bQ0hdMltDSDJdW0NIMl0y

> <s_epik_cmdline>
J2VwaWtfcHl0aG9uJywgJy1waCcsICc3LjAnLCAnLXRuJywgJzgnLCAnLW1hJywgJzIwMCcsICctbWV0YWxfYmluZGluZycsICctaW1hZScsICc8aW5maWxlLm1hZT4nLCAnLW9tYWUnLCAnPG91dGZpbGUubWFlPic=

> <r_lp_tautomer_probability>
1

> <r_epik_Ionization_Penalty>
3.25544e-08

> <r_epik_Ionization_Penalty_Charging>
1.18841e-08

> <r_epik_Ionization_Penalty_Neutral>
2.06703e-08

> <r_epik_State_Penalty>
-0

> <r_epik_Charging_Adjusted_Penalty>
1.18841e-08

> <i_epik_Tot_Q>
0

> <i_epik_Tot_abs_Q>
0

> <r_epik_Metal_State_Penalty>
-0

> <b_epik_Metal_Only>
0

> <s_lp_Force_Field>
OPLS_2005

> <r_lp_Energy>
23.1094

> <b_lp_Chiralities_Consistent>
1

> <s_lp_Variant>
AV-unprocessed.smi:2102-1

> <Gold.Version>
5.8.1

> <Gold.Id.Protein>
6NUR|6NUR_protein|mol2

> <Gold.PLP.Fitness>
39.5975

> <Gold.PLP.PLP>
-31.8820

> <Gold.PLP.part.hbond>
-2.0000

> <Gold.PLP.part.metal>
0.0000

> <Gold.PLP.part.buried>
-3.3409

> <Gold.PLP.part.nonpolar>
-26.8385

> <Gold.PLP.part.repulsive>
0.2092

> <Gold.PLP.ligand.clash>
0.0000

> <Gold.PLP.ligand.torsion>
0.3006

> <Gold.PLP.Chemscore.Hbond>
1.7600

> <Gold.PLP.Chemscore.CHOScore>
1.0000

> <Gold.PLP.Chemscore.Metal>
0.0000

> <Gold.Chemscore.Hbonds>
donor molecule, donor type, donor heavy atom, donor atom, acceptor molecule, acceptor atom, score
      L1  H    11    24       P1  8028  0.72
      P1  H  7997  8008       L1    16  0.94
      L1  C     6    21       P1  8028  1.00

> <Gold.PLP.Chemscore.Internal.Correction>
0.0365

> <Gold.Rescore>
     Score         DG    S(hbond)    S(metal)    S(lipo)     H(rot)  DE(clash)    DE(int)     intcor
     12.02     -13.38       1.84        0.00      50.43       1.62       0.03       1.33       ----

> <Gold.Chemscore.Fitness>
12.0244

> <Gold.Chemscore.DG>
-13.3821

> <Gold.Chemscore.ZeroCoef>
-5.4800

> <Gold.Chemscore.Hbond>
1.8406

> <Gold.Chemscore.Metal>
0.0000

> <Gold.Chemscore.Lipo>
50.4258

> <Gold.Chemscore.Internal_Hbond>
0.0000

> <Gold.Chemscore.DEClash>
0.0321

> <Gold.Chemscore.DEInternal>
1.3256

> <Gold.Chemscore.Rot>
1.6192

> <Gold.Chemscore.Internal.Correction>
   9.000000E+99

> <Gold.Chemscore.Hbonds>
donor molecule, donor type, donor heavy atom, donor atom, acceptor molecule, acceptor atom, score
      L1  H    11    24       P1  8028  0.72
      P1  H  7997  8008       L1    16  0.91

> <Gold.Chemscore.Hbond.Weighted>
-6.1476

> <Gold.Chemscore.Metal.Weighted>
-0.0000

> <Gold.Chemscore.Lipo.Weighted>
-5.8998

> <Gold.Chemscore.Internal_Hbond.Weighted>
0.0000

> <Gold.Chemscore.DEClash.Weighted>
0.0321

> <Gold.Chemscore.DEInternal.Weighted>
1.3256

> <Gold.Chemscore.Rot.Weighted>
4.1452

> <Gold.Chemscore.Internal.Correction.Weighted>
   9.000000E+99

> <Gold.Protein.RotatedTorsions>
[ 6907 6896 6895 6894 ] final  -93.44 input  -60.11 | X-H torsion
[ 7974 7965 7964 7962 ] final -155.47 input  175.53 | X-H torsion
[ 8008 7997 7996 7995 ] final  -73.01 input   59.86 | X-H torsion
[ 10167 10162 10161 10158 ] final   -3.04 input  -65.29 | X-H torsion
[ 10718 10713 10712 10709 ] final -143.20 input   66.30 | X-H torsion
[ 10763 10752 10751 10750 ] final  147.90 input  -60.55 | X-H torsion
[ 11005 11000 10999 10996 ] final  -57.56 input  -57.11 | X-H torsion

> <Gold.Protein.ActiveResidues>
 VAL166  LYS551  ARG553  GLY616  TRP617  ASP618  TYR619  PRO620  LYS621  CYS622 
 ASP623  PHE694  ASN695  SER759  ASP760  ASP761  ALA762  ILE779  LEU786  VAL792 
 PHE793  MET794  SER795  GLU796  ALA797  LYS798  CYS799  TRP800  GLU811  SER814 

> <Gold.Protein.RotatedAtoms>
  150.6922  134.1967  159.4305 H   0  0  0  0  0  0  0  0  0  0  0  0  # atno 6907 bound_to 6896
  151.9935  134.9964  160.0571 H   0  0  0  0  0  0  0  0  0  0  0  0  # atno 6908 bound_to 6896
  152.1645  133.4568  159.4914 H   0  0  0  0  0  0  0  0  0  0  0  0  # atno 6909 bound_to 6896
  144.7638  140.4245  143.5956 H   0  0  0  0  0  0  0  0  0  0  0  0  # atno 7974 bound_to 7965
  154.5212  140.0787  156.8175 H   0  0  0  0  0  0  0  0  0  0  0  0  # atno 8008 bound_to 7997
  155.3572  140.3416  155.4222 H   0  0  0  0  0  0  0  0  0  0  0  0  # atno 8009 bound_to 7997
  156.1683  140.1611  156.8479 H   0  0  0  0  0  0  0  0  0  0  0  0  # atno 8010 bound_to 7997
  140.6875  143.6586  150.8286 H   0  0  0  0  0  0  0  0  0  0  0  0  # atno 10167 bound_to 10162
  156.3550  130.7708  151.1867 H   0  0  0  0  0  0  0  0  0  0  0  0  # atno 10718 bound_to 10713
  154.0459  135.2886  155.3348 H   0  0  0  0  0  0  0  0  0  0  0  0  # atno 10763 bound_to 10752
  154.6900  135.5230  153.8382 H   0  0  0  0  0  0  0  0  0  0  0  0  # atno 10764 bound_to 10752
  153.0581  135.6603  154.0659 H   0  0  0  0  0  0  0  0  0  0  0  0  # atno 10765 bound_to 10752
  141.1170  133.6610  156.4788 H   0  0  0  0  0  0  0  0  0  0  0  0  # atno 11005 bound_to 11000
  145.6533  139.1568  143.2850 LP  0  0  0  0  0  0  0  0  0  0  0  0  # atno 17320 bound_to 7965
  146.1727  140.6620  142.9225 LP  0  0  0  0  0  0  0  0  0  0  0  0  # atno 17321 bound_to 7965
  140.0295  143.5458  152.2766 LP  0  0  0  0  0  0  0  0  0  0  0  0  # atno 17342 bound_to 10162
  139.6246  144.7635  151.2667 LP  0  0  0  0  0  0  0  0  0  0  0  0  # atno 17343 bound_to 10162
  157.7466  131.0416  150.4656 LP  0  0  0  0  0  0  0  0  0  0  0  0  # atno 17370 bound_to 10713
  156.4857  130.4084  149.6435 LP  0  0  0  0  0  0  0  0  0  0  0  0  # atno 17371 bound_to 10713
  140.4618  134.6834  157.5089 LP  0  0  0  0  0  0  0  0  0  0  0  0  # atno 17394 bound_to 11000
  140.0099  134.6707  155.9397 LP  0  0  0  0  0  0  0  0  0  0  0  0  # atno 17395 bound_to 11000

$$$$
