AV-unprocessed.smi:1236|AV-procd|sdf|5182|dock3
  -GOLD-   22720 4263D 1   1.00000     0.00000
 Structure written by MMmdl.
 40 41  0  0  0  0  0  0  0  0  2 V2000
  146.7733  141.5928  153.7610 C   0  0  0  0  0  0  0  0  0  0  0  0
  147.8533  140.8507  154.5599 C   0  0  1  0  0  0  0  0  0  0  0  0
  148.6359  139.8645  153.6613 C   0  0  0  0  0  0  0  0  0  0  0  0
  147.8281  138.6912  153.2415 N   0  3  0  0  0  0  0  0  0  0  0  0
  147.1255  138.0232  154.3635 C   0  0  0  0  0  0  0  0  0  0  0  0
  146.3924  136.7708  153.8560 C   0  0  0  0  0  0  0  0  0  0  0  0
  145.4797  137.1405  152.8293 O   0  0  0  0  0  0  0  0  0  0  0  0
  146.1408  137.7192  151.7103 C   0  0  0  0  0  0  0  0  0  0  0  0
  146.8794  138.9969  152.1458 C   0  0  0  0  0  0  0  0  0  0  0  0
  148.7435  141.8328  155.1812 N   0  0  0  0  0  0  0  0  0  0  0  0
  149.4633  141.6479  156.2987 C   0  0  0  0  0  0  0  0  0  0  0  0
  149.4728  140.5909  156.9299 O   0  0  0  0  0  0  0  0  0  0  0  0
  150.1658  142.7495  156.6158 N   0  0  0  0  0  0  0  0  0  0  0  0
  151.0826  142.9249  157.6865 C   0  0  0  0  0  0  0  0  0  0  0  0
  151.4991  144.2572  157.9070 C   0  0  0  0  0  0  0  0  0  0  0  0
  152.4103  144.5356  158.9445 C   0  0  0  0  0  0  0  0  0  0  0  0
  152.8828  143.4728  159.7348 C   0  0  0  0  0  0  0  0  0  0  0  0
  152.4192  142.1756  159.4478 C   0  0  0  0  0  0  0  0  0  0  0  0
  151.5468  141.9066  158.4534 N   0  0  0  0  0  0  0  0  0  0  0  0
  146.0664  140.8933  153.3137 H   0  0  0  0  0  0  0  0  0  0  0  0
  147.2088  142.1848  152.9553 H   0  0  0  0  0  0  0  0  0  0  0  0
  146.2047  142.2684  154.4012 H   0  0  0  0  0  0  0  0  0  0  0  0
  147.3370  140.2925  155.3420 H   0  0  0  0  0  0  0  0  0  0  0  0
  149.0267  140.3723  152.7782 H   0  0  0  0  0  0  0  0  0  0  0  0
  149.5067  139.5172  154.2196 H   0  0  0  0  0  0  0  0  0  0  0  0
  147.8335  137.7381  155.1411 H   0  0  0  0  0  0  0  0  0  0  0  0
  146.4139  138.7147  154.8174 H   0  0  0  0  0  0  0  0  0  0  0  0
  147.1008  136.0287  153.4833 H   0  0  0  0  0  0  0  0  0  0  0  0
  145.8389  136.3025  154.6701 H   0  0  0  0  0  0  0  0  0  0  0  0
  146.8339  136.9997  151.2710 H   0  0  0  0  0  0  0  0  0  0  0  0
  145.3999  137.9555  150.9464 H   0  0  0  0  0  0  0  0  0  0  0  0
  146.1648  139.7511  152.4786 H   0  0  0  0  0  0  0  0  0  0  0  0
  147.4171  139.4149  151.2937 H   0  0  0  0  0  0  0  0  0  0  0  0
  148.7992  142.7349  154.7310 H   0  0  0  0  0  0  0  0  0  0  0  0
  150.0424  143.5515  156.0155 H   0  0  0  0  0  0  0  0  0  0  0  0
  151.1264  145.0625  157.2908 H   0  0  0  0  0  0  0  0  0  0  0  0
  152.7398  145.5473  159.1297 H   0  0  0  0  0  0  0  0  0  0  0  0
  153.5821  143.6468  160.5394 H   0  0  0  0  0  0  0  0  0  0  0  0
  152.7579  141.3314  160.0300 H   0  0  0  0  0  0  0  0  0  0  0  0
  148.4821  138.0181  152.8673 H   0  0  0  0  0  0  0  0  0  0  0  0
  1  2  1  0  0  0  0
  1 20  1  0  0  0  0
  1 21  1  0  0  0  0
  1 22  1  0  0  0  0
  2  3  1  0  0  0  0
  2 10  1  0  0  0  0
  2 23  1  0  0  0  0
  3  4  1  0  0  0  0
  3 24  1  0  0  0  0
  3 25  1  0  0  0  0
  4  9  1  0  0  0  0
  4  5  1  0  0  0  0
  4 40  1  0  0  0  0
  5  6  1  0  0  0  0
  5 26  1  0  0  0  0
  5 27  1  0  0  0  0
  6  7  1  0  0  0  0
  6 28  1  0  0  0  0
  6 29  1  0  0  0  0
  7  8  1  0  0  0  0
  8  9  1  0  0  0  0
  8 30  1  0  0  0  0
  8 31  1  0  0  0  0
  9 32  1  0  0  0  0
  9 33  1  0  0  0  0
 10 11  1  0  0  0  0
 10 34  1  0  0  0  0
 11 12  2  0  0  0  0
 11 13  1  0  0  0  0
 13 14  1  0  0  0  0
 13 35  1  0  0  0  0
 14 19  1  0  0  0  0
 14 15  2  0  0  0  0
 15 16  1  0  0  0  0
 15 36  1  0  0  0  0
 16 17  2  0  0  0  0
 16 37  1  0  0  0  0
 17 18  1  0  0  0  0
 17 38  1  0  0  0  0
 18 19  2  0  0  0  0
 18 39  1  0  0  0  0
M  CHG  1   4   1
M  END
> <s_m_source_file>
AV-unprocessed.smi

> <i_m_source_file_index>
1236

> <i_lp_mmshare_version>
43012

> <i_f3d_flags>
0

> <s_epik_input>
W0NIMl0xW0NIMl1PW0NIMl1bQ0gyXU4xW0NIMl1bQ0BASF0oW0NIM10pW05IXUMoPU8pW05IXWMyW2NIXVtjSF1bY0hdW2NIXW4y

> <s_epik_cmdline>
J2VwaWtfcHl0aG9uJywgJy1waCcsICc3LjAnLCAnLXRuJywgJzgnLCAnLW1hJywgJzIwMCcsICctbWV0YWxfYmluZGluZycsICctaW1hZScsICc8aW5maWxlLm1hZT4nLCAnLW9tYWUnLCAnPG91dGZpbGUubWFlPic=

> <r_epik_Ionization_Penalty>
0.602564

> <r_epik_Ionization_Penalty_Charging>
0.602531

> <r_epik_Ionization_Penalty_Neutral>
3.36306e-05

> <r_epik_State_Penalty>
0.617039

> <r_epik_Charging_Adjusted_Penalty>
1.21957

> <i_epik_Tot_Q>
1

> <i_epik_Tot_abs_Q>
1

> <r_epik_Metal_State_Penalty>
0.617041

> <b_epik_Metal_Only>
0

> <s_lp_Force_Field>
OPLS_2005

> <r_lp_Energy>
24.274

> <b_lp_Chiralities_Consistent>
1

> <s_lp_Variant>
AV-unprocessed.smi:1236-4

> <Gold.Version>
5.8.1

> <Gold.Id.Protein>
6NUR|6NUR_protein|mol2

> <Gold.PLP.Fitness>
43.9901

> <Gold.PLP.PLP>
-35.7809

> <Gold.PLP.part.hbond>
-4.0000

> <Gold.PLP.part.metal>
0.0000

> <Gold.PLP.part.buried>
1.9785

> <Gold.PLP.part.nonpolar>
-35.5158

> <Gold.PLP.part.repulsive>
0.5029

> <Gold.PLP.ligand.clash>
0.0000

> <Gold.PLP.ligand.torsion>
0.5335

> <Gold.PLP.Chemscore.Hbond>
3.0827

> <Gold.PLP.Chemscore.CHOScore>
0.0000

> <Gold.PLP.Chemscore.Metal>
0.0000

> <Gold.Chemscore.Hbonds>
donor molecule, donor type, donor heavy atom, donor atom, acceptor molecule, acceptor atom, score
      L1  H     4    40       P1  7948  1.76
      L1  H    10    34       P1  8028  0.38
      L1  H    13    35       P1  8028  0.80

> <Gold.PLP.Chemscore.Internal.Correction>
0.0281

> <Gold.Rescore>
     Score         DG    S(hbond)    S(metal)    S(lipo)     H(rot)  DE(clash)    DE(int)     intcor
     15.58     -19.06       2.03        0.00      92.24       1.56       1.60       1.88       ----

> <Gold.Chemscore.Fitness>
15.5837

> <Gold.Chemscore.DG>
-19.0646

> <Gold.Chemscore.ZeroCoef>
-5.4800

> <Gold.Chemscore.Hbond>
2.0305

> <Gold.Chemscore.Metal>
0.0000

> <Gold.Chemscore.Lipo>
92.2425

> <Gold.Chemscore.Internal_Hbond>
0.0000

> <Gold.Chemscore.DEClash>
1.5994

> <Gold.Chemscore.DEInternal>
1.8816

> <Gold.Chemscore.Rot>
1.5584

> <Gold.Chemscore.Internal.Correction>
   9.000000E+99

> <Gold.Chemscore.Hbonds>
donor molecule, donor type, donor heavy atom, donor atom, acceptor molecule, acceptor atom, score
      L1  H     4    40       P1  7948  0.81
      L1  H    10    34       P1  8028  0.39
      L1  H    13    35       P1  8028  0.79

> <Gold.Chemscore.Hbond.Weighted>
-6.7818

> <Gold.Chemscore.Metal.Weighted>
-0.0000

> <Gold.Chemscore.Lipo.Weighted>
-10.7924

> <Gold.Chemscore.Internal_Hbond.Weighted>
0.0000

> <Gold.Chemscore.DEClash.Weighted>
1.5994

> <Gold.Chemscore.DEInternal.Weighted>
1.8816

> <Gold.Chemscore.Rot.Weighted>
3.9896

> <Gold.Chemscore.Internal.Correction.Weighted>
   9.000000E+99

> <Gold.Protein.RotatedTorsions>
[ 6907 6896 6895 6894 ] final   77.22 input  -60.11 | X-H torsion
[ 7974 7965 7964 7962 ] final   50.80 input  175.53 | X-H torsion
[ 8008 7997 7996 7995 ] final   83.33 input   59.86 | X-H torsion
[ 10167 10162 10161 10158 ] final  -34.45 input  -65.29 | X-H torsion
[ 10718 10713 10712 10709 ] final  -92.23 input   66.30 | X-H torsion
[ 10763 10752 10751 10750 ] final  152.73 input  -60.55 | X-H torsion
[ 11005 11000 10999 10996 ] final  139.47 input  -57.11 | X-H torsion

> <Gold.Protein.ActiveResidues>
 VAL166  LYS551  ARG553  GLY616  TRP617  ASP618  TYR619  PRO620  LYS621  CYS622 
 ASP623  PHE694  ASN695  SER759  ASP760  ASP761  ALA762  ILE779  LEU786  VAL792 
 PHE793  MET794  SER795  GLU796  ALA797  LYS798  CYS799  TRP800  GLU811  SER814 

> <Gold.Protein.RotatedAtoms>
  152.5108  134.3849  159.9363 H   0  0  0  0  0  0  0  0  0  0  0  0  # atno 6907 bound_to 6896
  151.3807  133.3816  159.2717 H   0  0  0  0  0  0  0  0  0  0  0  0  # atno 6908 bound_to 6896
  150.9507  134.8927  159.7728 H   0  0  0  0  0  0  0  0  0  0  0  0  # atno 6909 bound_to 6896
  145.9976  139.4405  143.0034 H   0  0  0  0  0  0  0  0  0  0  0  0  # atno 7974 bound_to 7965
  155.9225  140.3420  155.6184 H   0  0  0  0  0  0  0  0  0  0  0  0  # atno 8008 bound_to 7997
  155.7256  140.0789  157.2330 H   0  0  0  0  0  0  0  0  0  0  0  0  # atno 8009 bound_to 7997
  154.4072  140.1597  156.2439 H   0  0  0  0  0  0  0  0  0  0  0  0  # atno 8010 bound_to 7997
  140.7185  143.3547  151.2084 H   0  0  0  0  0  0  0  0  0  0  0  0  # atno 10167 bound_to 10162
  156.0000  130.4979  150.5594 H   0  0  0  0  0  0  0  0  0  0  0  0  # atno 10718 bound_to 10713
  154.1247  135.2830  155.3200 H   0  0  0  0  0  0  0  0  0  0  0  0  # atno 10763 bound_to 10752
  154.6398  135.5406  153.7779 H   0  0  0  0  0  0  0  0  0  0  0  0  # atno 10764 bound_to 10752
  153.0301  135.6483  154.1400 H   0  0  0  0  0  0  0  0  0  0  0  0  # atno 10765 bound_to 10752
  140.0257  134.9376  157.0563 H   0  0  0  0  0  0  0  0  0  0  0  0  # atno 11005 bound_to 11000
  145.7536  140.9963  143.1237 LP  0  0  0  0  0  0  0  0  0  0  0  0  # atno 17320 bound_to 7965
  144.6909  139.9244  143.7469 LP  0  0  0  0  0  0  0  0  0  0  0  0  # atno 17321 bound_to 7965
  139.7086  143.9415  152.2937 LP  0  0  0  0  0  0  0  0  0  0  0  0  # atno 17342 bound_to 10162
  139.9132  144.6844  150.8540 LP  0  0  0  0  0  0  0  0  0  0  0  0  # atno 17343 bound_to 10162
  157.3505  131.0733  151.1717 LP  0  0  0  0  0  0  0  0  0  0  0  0  # atno 17370 bound_to 10713
  157.2535  130.6625  149.5942 LP  0  0  0  0  0  0  0  0  0  0  0  0  # atno 17371 bound_to 10713
  140.4311  134.1780  155.7168 LP  0  0  0  0  0  0  0  0  0  0  0  0  # atno 17394 bound_to 11000
  141.1801  133.8432  157.1287 LP  0  0  0  0  0  0  0  0  0  0  0  0  # atno 17395 bound_to 11000

$$$$
