AV-unprocessed.smi:240|AV-procd|sdf|1831|dock3
  -GOLD-   2262020433D 1   1.00000     0.00000
 Structure written by MMmdl.
 55 59  0  0  0  0  0  0  0  0  1 V2000
  145.7363  141.9423  153.7932 O   0  0  0  0  0  0  0  0  0  0  0  0
  146.3359  142.2326  155.0393 C   0  0  1  0  0  0  0  0  0  0  0  0
  145.2936  142.6471  156.0769 C   0  0  0  0  0  0  0  0  0  0  0  0
  145.9782  142.3987  157.4246 C   0  0  0  0  0  0  0  0  0  0  0  0
  147.0373  141.3117  157.1769 C   0  0  0  0  0  0  0  0  0  0  0  0
  146.9890  140.9947  155.6696 C   0  0  2  0  0  0  0  0  0  0  0  0
  148.3282  140.5251  155.0239 C   0  0  1  0  0  0  0  0  0  0  0  0
  149.5421  141.4197  155.3840 C   0  0  0  0  0  0  0  0  0  0  0  0
  150.7174  140.9383  154.7424 O   0  0  0  0  0  0  0  0  0  0  0  0
  151.0507  139.6232  155.1649 C   0  0  0  0  0  0  0  0  0  0  0  0
  149.9140  138.6720  154.7702 C   0  0  0  0  0  0  0  0  0  0  0  0
  148.6503  139.1260  155.3390 N   0  0  0  0  0  0  0  0  0  0  0  0
  147.6816  138.2048  155.1331 C   0  0  0  0  0  0  0  0  0  0  0  0
  147.4252  137.3463  156.1505 N   0  0  0  0  0  0  0  0  0  0  0  0
  146.4767  136.4147  156.0152 C   0  0  0  0  0  0  0  0  0  0  0  0
  145.6901  136.1704  154.9648 N   0  0  0  0  0  0  0  0  0  0  0  0
  145.9564  137.0239  153.9343 C   0  0  0  0  0  0  0  0  0  0  0  0
  146.9277  138.0637  153.9327 C   0  0  0  0  0  0  0  0  0  0  0  0
  146.9107  138.7250  152.7106 N   0  0  0  0  0  0  0  0  0  0  0  0
  145.9772  138.1162  152.0320 C   0  0  0  0  0  0  0  0  0  0  0  0
  145.3604  137.0732  152.6858 N   0  0  0  0  0  0  0  0  0  0  0  0
  144.2993  136.2215  152.1695 C   0  0  0  0  0  0  0  0  0  0  0  0
  144.7649  135.2581  151.0517 C   0  0  1  0  0  0  0  0  0  0  0  0
  144.7354  135.9374  149.8080 O   0  0  0  0  0  0  0  0  0  0  0  0
  146.1781  134.7336  151.2762 C   0  0  0  0  0  0  0  0  0  0  0  0
  146.1433  133.3697  150.6004 C   0  0  0  0  0  0  0  0  0  0  0  0
  144.8584  132.8816  150.9453 O   0  0  0  0  0  0  0  0  0  0  0  0
  143.9330  133.9645  150.9223 C   0  0  0  0  0  0  0  0  0  0  0  0
  146.0351  141.0931  153.5057 H   0  0  0  0  0  0  0  0  0  0  0  0
  147.0511  143.0451  154.9181 H   0  0  0  0  0  0  0  0  0  0  0  0
  144.9647  143.6797  155.9558 H   0  0  0  0  0  0  0  0  0  0  0  0
  144.4126  142.0079  155.9980 H   0  0  0  0  0  0  0  0  0  0  0  0
  146.4660  143.3123  157.7664 H   0  0  0  0  0  0  0  0  0  0  0  0
  145.2605  142.1057  158.1916 H   0  0  0  0  0  0  0  0  0  0  0  0
  148.0137  141.6793  157.4888 H   0  0  0  0  0  0  0  0  0  0  0  0
  146.8341  140.4166  157.7660 H   0  0  0  0  0  0  0  0  0  0  0  0
  146.2549  140.1956  155.5543 H   0  0  0  0  0  0  0  0  0  0  0  0
  148.2089  140.5945  153.9428 H   0  0  0  0  0  0  0  0  0  0  0  0
  149.3882  142.4424  155.0443 H   0  0  0  0  0  0  0  0  0  0  0  0
  149.7133  141.4641  156.4595 H   0  0  0  0  0  0  0  0  0  0  0  0
  151.9803  139.3187  154.6839 H   0  0  0  0  0  0  0  0  0  0  0  0
  151.2245  139.6021  156.2420 H   0  0  0  0  0  0  0  0  0  0  0  0
  149.8296  138.6264  153.6833 H   0  0  0  0  0  0  0  0  0  0  0  0
  150.1416  137.6633  155.1185 H   0  0  0  0  0  0  0  0  0  0  0  0
  146.3257  135.7738  156.8713 H   0  0  0  0  0  0  0  0  0  0  0  0
  145.7155  138.4129  151.0268 H   0  0  0  0  0  0  0  0  0  0  0  0
  143.8792  135.6555  153.0019 H   0  0  0  0  0  0  0  0  0  0  0  0
  143.4977  136.8640  151.8028 H   0  0  0  0  0  0  0  0  0  0  0  0
  144.5248  136.8447  149.9665 H   0  0  0  0  0  0  0  0  0  0  0  0
  146.9578  135.3881  150.8839 H   0  0  0  0  0  0  0  0  0  0  0  0
  146.3665  134.5963  152.3419 H   0  0  0  0  0  0  0  0  0  0  0  0
  146.2213  133.4660  149.5165 H   0  0  0  0  0  0  0  0  0  0  0  0
  146.9341  132.7043  150.9476 H   0  0  0  0  0  0  0  0  0  0  0  0
  143.2405  133.8307  151.7527 H   0  0  0  0  0  0  0  0  0  0  0  0
  143.3480  133.9385  150.0014 H   0  0  0  0  0  0  0  0  0  0  0  0
  1  2  1  0  0  0  0
  1 29  1  0  0  0  0
  2  6  1  0  0  0  0
  2  3  1  0  0  0  0
  2 30  1  0  0  0  0
  3  4  1  0  0  0  0
  3 31  1  0  0  0  0
  3 32  1  0  0  0  0
  4  5  1  0  0  0  0
  4 33  1  0  0  0  0
  4 34  1  0  0  0  0
  5  6  1  0  0  0  0
  5 35  1  0  0  0  0
  5 36  1  0  0  0  0
  6  7  1  0  0  0  0
  6 37  1  0  0  0  0
  7 12  1  0  0  0  0
  7  8  1  0  0  0  0
  7 38  1  0  0  0  0
  8  9  1  0  0  0  0
  8 39  1  0  0  0  0
  8 40  1  0  0  0  0
  9 10  1  0  0  0  0
 10 11  1  0  0  0  0
 10 41  1  0  0  0  0
 10 42  1  0  0  0  0
 11 12  1  0  0  0  0
 11 43  1  0  0  0  0
 11 44  1  0  0  0  0
 12 13  1  0  0  0  0
 13 18  1  0  0  0  0
 13 14  2  0  0  0  0
 14 15  1  0  0  0  0
 15 16  2  0  0  0  0
 15 45  1  0  0  0  0
 16 17  1  0  0  0  0
 17 21  1  0  0  0  0
 17 18  2  0  0  0  0
 18 19  1  0  0  0  0
 19 20  2  0  0  0  0
 20 21  1  0  0  0  0
 20 46  1  0  0  0  0
 21 22  1  0  0  0  0
 22 23  1  0  0  0  0
 22 47  1  0  0  0  0
 22 48  1  0  0  0  0
 23 28  1  0  0  0  0
 23 24  1  0  0  0  0
 23 25  1  0  0  0  0
 24 49  1  0  0  0  0
 25 26  1  0  0  0  0
 25 50  1  0  0  0  0
 25 51  1  0  0  0  0
 26 27  1  0  0  0  0
 26 52  1  0  0  0  0
 26 53  1  0  0  0  0
 27 28  1  0  0  0  0
 28 54  1  0  0  0  0
 28 55  1  0  0  0  0
M  END
> <s_m_source_file>
AV-unprocessed.smi

> <i_m_source_file_index>
240

> <i_lp_mmshare_version>
43012

> <i_f3d_flags>
0

> <s_epik_input>
W09IXVtDQEBIXTFbQ0gyXVtDSDJdW0NIMl1bQ0BIXTFbQ0BASF0yW0NIMl1PW0NIMl1bQ0gyXU4yYyhuW2NIXW4zKWMoYzM0KW5bY0hdbjRbQ0gyXVtDQEBdNShbT0hdKVtDSDJdW0NIMl1PW0NIMl01

> <s_epik_cmdline>
J2VwaWtfcHl0aG9uJywgJy1waCcsICc3LjAnLCAnLXRuJywgJzgnLCAnLW1hJywgJzIwMCcsICctbWV0YWxfYmluZGluZycsICctaW1hZScsICc8aW5maWxlLm1hZT4nLCAnLW9tYWUnLCAnPG91dGZpbGUubWFlPic=

> <r_lp_tautomer_probability>
1

> <r_epik_Ionization_Penalty>
0.000130618

> <r_epik_Ionization_Penalty_Charging>
0

> <r_epik_Ionization_Penalty_Neutral>
0.000130618

> <r_epik_State_Penalty>
-0

> <r_epik_Charging_Adjusted_Penalty>
0

> <i_epik_Tot_Q>
0

> <i_epik_Tot_abs_Q>
0

> <r_epik_Metal_State_Penalty>
-0

> <b_epik_Metal_Only>
0

> <s_lp_Force_Field>
OPLS_2005

> <r_lp_Energy>
62.0257

> <b_lp_Chiralities_Consistent>
1

> <s_lp_Variant>
AV-unprocessed.smi:240-8

> <Gold.Version>
5.8.1

> <Gold.Id.Protein>
6NUR|6NUR_protein|mol2

> <Gold.PLP.Fitness>
42.6567

> <Gold.PLP.PLP>
-36.0713

> <Gold.PLP.part.hbond>
-3.4882

> <Gold.PLP.part.metal>
0.0000

> <Gold.PLP.part.buried>
-4.4199

> <Gold.PLP.part.nonpolar>
-29.6632

> <Gold.PLP.part.repulsive>
0.6481

> <Gold.PLP.ligand.clash>
0.0000

> <Gold.PLP.ligand.torsion>
1.1728

> <Gold.PLP.Chemscore.Hbond>
1.9600

> <Gold.PLP.Chemscore.CHOScore>
0.9423

> <Gold.PLP.Chemscore.Metal>
0.0000

> <Gold.Chemscore.Hbonds>
donor molecule, donor type, donor heavy atom, donor atom, acceptor molecule, acceptor atom, score
      L1  H    24    49       P1 10171  1.00
      P1  H  7989  7998       L1     9  0.56
      L1  C    20    46       P1 10171  1.00

> <Gold.PLP.Chemscore.Internal.Correction>
0.2239

> <Gold.Rescore>
     Score         DG    S(hbond)    S(metal)    S(lipo)     H(rot)  DE(clash)    DE(int)     intcor
      9.98     -12.17       1.97        0.00      66.72       3.00       0.55       1.63       ----

> <Gold.Chemscore.Fitness>
9.9837

> <Gold.Chemscore.DG>
-12.1690

> <Gold.Chemscore.ZeroCoef>
-5.4800

> <Gold.Chemscore.Hbond>
1.9677

> <Gold.Chemscore.Metal>
0.0000

> <Gold.Chemscore.Lipo>
66.7247

> <Gold.Chemscore.Internal_Hbond>
0.0000

> <Gold.Chemscore.DEClash>
0.5512

> <Gold.Chemscore.DEInternal>
1.6341

> <Gold.Chemscore.Rot>
3.0039

> <Gold.Chemscore.Internal.Correction>
   9.000000E+99

> <Gold.Chemscore.Hbonds>
donor molecule, donor type, donor heavy atom, donor atom, acceptor molecule, acceptor atom, score
      L1  H    24    49       P1 10171  1.00
      P1  H  7989  7998       L1     9  0.06

> <Gold.Chemscore.Hbond.Weighted>
-6.5721

> <Gold.Chemscore.Metal.Weighted>
-0.0000

> <Gold.Chemscore.Lipo.Weighted>
-7.8068

> <Gold.Chemscore.Internal_Hbond.Weighted>
0.0000

> <Gold.Chemscore.DEClash.Weighted>
0.5512

> <Gold.Chemscore.DEInternal.Weighted>
1.6341

> <Gold.Chemscore.Rot.Weighted>
7.6899

> <Gold.Chemscore.Internal.Correction.Weighted>
   9.000000E+99

> <Gold.Protein.RotatedTorsions>
[ 6907 6896 6895 6894 ] final   70.95 input  -60.11 | X-H torsion
[ 7974 7965 7964 7962 ] final -169.53 input  175.53 | X-H torsion
[ 8008 7997 7996 7995 ] final -113.64 input   59.86 | X-H torsion
[ 10167 10162 10161 10158 ] final   18.53 input  -65.29 | X-H torsion
[ 10718 10713 10712 10709 ] final  152.91 input   66.30 | X-H torsion
[ 10763 10752 10751 10750 ] final -145.98 input  -60.55 | X-H torsion
[ 11005 11000 10999 10996 ] final  -56.90 input  -57.11 | X-H torsion

> <Gold.Protein.ActiveResidues>
 VAL166  LYS551  ARG553  GLY616  TRP617  ASP618  TYR619  PRO620  LYS621  CYS622 
 ASP623  PHE694  ASN695  SER759  ASP760  ASP761  ALA762  ILE779  LEU786  VAL792 
 PHE793  MET794  SER795  GLU796  ALA797  LYS798  CYS799  TRP800  GLU811  SER814 

> <Gold.Protein.RotatedAtoms>
  152.4781  134.4792  159.9659 H   0  0  0  0  0  0  0  0  0  0  0  0  # atno 6907 bound_to 6896
  151.4804  133.3542  159.2845 H   0  0  0  0  0  0  0  0  0  0  0  0  # atno 6908 bound_to 6896
  150.8833  134.8254  159.7302 H   0  0  0  0  0  0  0  0  0  0  0  0  # atno 6909 bound_to 6896
  144.7184  140.2207  143.6316 H   0  0  0  0  0  0  0  0  0  0  0  0  # atno 7974 bound_to 7965
  155.0239  140.0393  157.2448 H   0  0  0  0  0  0  0  0  0  0  0  0  # atno 8008 bound_to 7997
  154.7355  140.2739  155.6395 H   0  0  0  0  0  0  0  0  0  0  0  0  # atno 8009 bound_to 7997
  156.2852  140.2676  156.2067 H   0  0  0  0  0  0  0  0  0  0  0  0  # atno 8010 bound_to 7997
  140.5646  143.9274  150.6667 H   0  0  0  0  0  0  0  0  0  0  0  0  # atno 10167 bound_to 10162
  157.2517  131.0780  151.1725 H   0  0  0  0  0  0  0  0  0  0  0  0  # atno 10718 bound_to 10713
  154.8358  135.3398  154.6590 H   0  0  0  0  0  0  0  0  0  0  0  0  # atno 10763 bound_to 10752
  153.7205  135.6958  153.5018 H   0  0  0  0  0  0  0  0  0  0  0  0  # atno 10764 bound_to 10752
  153.2385  135.4392  155.0625 H   0  0  0  0  0  0  0  0  0  0  0  0  # atno 10765 bound_to 10752
  141.1141  133.6610  156.4688 H   0  0  0  0  0  0  0  0  0  0  0  0  # atno 11005 bound_to 11000
  145.8504  139.2173  143.1775 LP  0  0  0  0  0  0  0  0  0  0  0  0  # atno 17320 bound_to 7965
  146.0266  140.8298  142.9897 LP  0  0  0  0  0  0  0  0  0  0  0  0  # atno 17321 bound_to 7965
  140.2734  143.3440  152.1217 LP  0  0  0  0  0  0  0  0  0  0  0  0  # atno 17342 bound_to 10162
  139.5087  144.6854  151.5902 LP  0  0  0  0  0  0  0  0  0  0  0  0  # atno 17343 bound_to 10162
  157.3271  130.6966  149.6302 LP  0  0  0  0  0  0  0  0  0  0  0  0  # atno 17370 bound_to 10713
  155.9666  130.4318  150.4937 LP  0  0  0  0  0  0  0  0  0  0  0  0  # atno 17371 bound_to 10713
  140.4695  134.6766  157.5123 LP  0  0  0  0  0  0  0  0  0  0  0  0  # atno 17394 bound_to 11000
  140.0052  134.6775  155.9467 LP  0  0  0  0  0  0  0  0  0  0  0  0  # atno 17395 bound_to 11000

$$$$
