AV-unprocessed.smi:2|AV-procd|sdf|25|dock7
  -GOLD-   2262015133D 1   1.00000     0.00000
 Structure written by MMmdl.
 52 54  0  0  0  0  0  0  0  0  3 V2000
  155.7602  141.8656  165.1295 C   0  0  0  0  0  0  0  0  0  0  0  0
  156.8802  140.8849  165.5040 C   0  0  0  0  0  0  0  0  0  0  0  0
  156.3531  139.4658  165.7415 C   0  0  0  0  0  0  0  0  0  0  0  0
  156.4458  138.9925  166.8737 O   0  0  0  0  0  0  0  0  0  0  0  0
  155.7488  138.7238  164.5950 C   0  0  0  0  0  0  0  0  0  0  0  0
  154.8566  137.6418  164.7798 C   0  0  0  0  0  0  0  0  0  0  0  0
  154.3123  136.9659  163.6709 C   0  0  0  0  0  0  0  0  0  0  0  0
  154.6418  137.3474  162.3557 C   0  0  0  0  0  0  0  0  0  0  0  0
  154.0675  136.6267  161.3307 O   0  0  0  0  0  0  0  0  0  0  0  0
  154.4157  136.9634  159.9943 C   0  0  0  0  0  0  0  0  0  0  0  0
  153.2215  137.6667  159.3301 C   0  0  2  0  0  0  0  0  0  0  0  0
  152.2551  136.6875  159.0074 O   0  0  0  0  0  0  0  0  0  0  0  0
  153.6432  138.4274  158.0508 C   0  0  0  0  0  0  0  0  0  0  0  0
  152.7612  139.5553  157.7295 N   0  0  0  0  0  0  0  0  0  0  0  0
  151.9447  139.6757  156.6387 C   0  0  0  0  0  0  0  0  0  0  0  0
  151.7848  138.7216  155.5496 N   0  3  0  0  0  0  0  0  0  0  0  0
  152.3008  137.6145  155.6374 O   0  0  0  0  0  0  0  0  0  0  0  0
  151.1569  139.0955  154.5637 O   0  5  0  0  0  0  0  0  0  0  0  0
  151.2516  140.8130  156.5996 N   0  0  0  0  0  0  0  0  0  0  0  0
  151.6556  141.4842  157.7355 C   0  0  0  0  0  0  0  0  0  0  0  0
  151.2631  142.8258  158.2081 C   0  0  0  0  0  0  0  0  0  0  0  0
  150.4173  143.4892  157.6063 O   0  0  0  0  0  0  0  0  0  0  0  0
  151.9342  143.2425  159.3259 N   0  0  0  0  0  0  0  0  0  0  0  0
  151.6659  144.6022  159.8326 C   0  0  0  0  0  0  0  0  0  0  0  0
  152.8494  142.4865  160.0349 C   0  0  0  0  0  0  0  0  0  0  0  0
  153.4291  142.9657  161.0143 O   0  0  0  0  0  0  0  0  0  0  0  0
  153.0923  141.1919  159.6322 N   0  0  0  0  0  0  0  0  0  0  0  0
  153.9259  140.3413  160.4942 C   0  0  0  0  0  0  0  0  0  0  0  0
  152.5450  140.7505  158.4552 C   0  0  0  0  0  0  0  0  0  0  0  0
  155.5306  138.4337  162.1674 C   0  0  0  0  0  0  0  0  0  0  0  0
  156.0746  139.1114  163.2755 C   0  0  0  0  0  0  0  0  0  0  0  0
  156.1688  142.8572  164.9346 H   0  0  0  0  0  0  0  0  0  0  0  0
  155.0240  141.9638  165.9273 H   0  0  0  0  0  0  0  0  0  0  0  0
  155.2368  141.5423  164.2289 H   0  0  0  0  0  0  0  0  0  0  0  0
  157.6094  140.8471  164.6941 H   0  0  0  0  0  0  0  0  0  0  0  0
  157.4248  141.2345  166.3806 H   0  0  0  0  0  0  0  0  0  0  0  0
  154.5700  137.3085  165.7654 H   0  0  0  0  0  0  0  0  0  0  0  0
  153.6340  136.1410  163.8333 H   0  0  0  0  0  0  0  0  0  0  0  0
  155.2657  137.6468  160.0263 H   0  0  0  0  0  0  0  0  0  0  0  0
  154.7146  136.0850  159.4193 H   0  0  0  0  0  0  0  0  0  0  0  0
  152.7674  138.3594  160.0376 H   0  0  0  0  0  0  0  0  0  0  0  0
  151.4462  137.1238  158.7865 H   0  0  0  0  0  0  0  0  0  0  0  0
  154.6660  138.7793  158.1258 H   0  0  0  0  0  0  0  0  0  0  0  0
  153.7065  137.7470  157.2062 H   0  0  0  0  0  0  0  0  0  0  0  0
  151.2524  144.5553  160.8414 H   0  0  0  0  0  0  0  0  0  0  0  0
  150.9653  145.1864  159.2351 H   0  0  0  0  0  0  0  0  0  0  0  0
  152.5883  145.1836  159.8752 H   0  0  0  0  0  0  0  0  0  0  0  0
  154.9511  140.3107  160.1251 H   0  0  0  0  0  0  0  0  0  0  0  0
  153.5321  139.3324  160.5644 H   0  0  0  0  0  0  0  0  0  0  0  0
  153.9725  140.6784  161.5305 H   0  0  0  0  0  0  0  0  0  0  0  0
  155.8124  138.7693  161.1810 H   0  0  0  0  0  0  0  0  0  0  0  0
  156.7504  139.9351  163.0955 H   0  0  0  0  0  0  0  0  0  0  0  0
  1  2  1  0  0  0  0
  1 32  1  0  0  0  0
  1 33  1  0  0  0  0
  1 34  1  0  0  0  0
  2  3  1  0  0  0  0
  2 35  1  0  0  0  0
  2 36  1  0  0  0  0
  3  4  2  0  0  0  0
  3  5  1  0  0  0  0
  5 31  1  0  0  0  0
  5  6  2  0  0  0  0
  6  7  1  0  0  0  0
  6 37  1  0  0  0  0
  7  8  2  0  0  0  0
  7 38  1  0  0  0  0
  8  9  1  0  0  0  0
  8 30  1  0  0  0  0
  9 10  1  0  0  0  0
 10 11  1  0  0  0  0
 10 39  1  0  0  0  0
 10 40  1  0  0  0  0
 11 12  1  0  0  0  0
 11 13  1  0  0  0  0
 11 41  1  0  0  0  0
 12 42  1  0  0  0  0
 13 14  1  0  0  0  0
 13 43  1  0  0  0  0
 13 44  1  0  0  0  0
 14 29  1  0  0  0  0
 14 15  1  0  0  0  0
 15 16  1  0  0  0  0
 15 19  2  0  0  0  0
 16 17  2  0  0  0  0
 16 18  1  0  0  0  0
 19 20  1  0  0  0  0
 20 29  2  0  0  0  0
 20 21  1  0  0  0  0
 21 22  2  0  0  0  0
 21 23  1  0  0  0  0
 23 24  1  0  0  0  0
 23 25  1  0  0  0  0
 24 45  1  0  0  0  0
 24 46  1  0  0  0  0
 24 47  1  0  0  0  0
 25 26  2  0  0  0  0
 25 27  1  0  0  0  0
 27 28  1  0  0  0  0
 27 29  1  0  0  0  0
 28 48  1  0  0  0  0
 28 49  1  0  0  0  0
 28 50  1  0  0  0  0
 30 31  2  0  0  0  0
 30 51  1  0  0  0  0
 31 52  1  0  0  0  0
M  CHG  1  16   1
M  CHG  1  18  -1
M  END
> <s_m_source_file>
AV-unprocessed.smi

> <i_m_source_file_index>
2

> <i_lp_mmshare_version>
43012

> <i_f3d_flags>
0

> <s_epik_input>
W0NIM11bQ0gyXUMoPU8pYzFbY0hdW2NIXWMoW2NIXVtjSF0xKU9bQ0gyXVtDQEhdKFtPSF0pW0NIMl1uKGMobjIpW04rXSg9TylbTy1dKWMoYzIzKW4oW0NIM10pYyg9TyluKGMzPU8pW0NIM10=

> <s_epik_cmdline>
J2VwaWtfcHl0aG9uJywgJy1waCcsICc3LjAnLCAnLXRuJywgJzgnLCAnLW1hJywgJzIwMCcsICctbWV0YWxfYmluZGluZycsICctaW1hZScsICc8aW5maWxlLm1hZT4nLCAnLW9tYWUnLCAnPG91dGZpbGUubWFlPic=

> <r_lp_tautomer_probability>
1

> <r_epik_Ionization_Penalty>
1.02275e-06

> <r_epik_Ionization_Penalty_Charging>
4.46226e-11

> <r_epik_Ionization_Penalty_Neutral>
1.02271e-06

> <r_epik_State_Penalty>
-0

> <r_epik_Charging_Adjusted_Penalty>
4.46226e-11

> <i_epik_Tot_Q>
0

> <i_epik_Tot_abs_Q>
2

> <r_epik_Metal_State_Penalty>
-0

> <b_epik_Metal_Only>
0

> <s_lp_Force_Field>
OPLS_2005

> <r_lp_Energy>
60.0216

> <b_lp_Chiralities_Consistent>
1

> <s_lp_Variant>
AV-unprocessed.smi:2-1

> <Gold.Version>
5.8.1

> <Gold.Id.Protein>
6NUR|6NUR_protein|mol2

> <Gold.PLP.Fitness>
55.0361

> <Gold.PLP.PLP>
-50.5700

> <Gold.PLP.part.hbond>
-3.9146

> <Gold.PLP.part.metal>
0.0000

> <Gold.PLP.part.buried>
-4.8352

> <Gold.PLP.part.nonpolar>
-43.8944

> <Gold.PLP.part.repulsive>
3.0369

> <Gold.PLP.ligand.clash>
0.0000

> <Gold.PLP.ligand.torsion>
1.0605

> <Gold.PLP.Chemscore.Hbond>
2.0448

> <Gold.PLP.Chemscore.CHOScore>
0.0000

> <Gold.PLP.Chemscore.Metal>
0.0000

> <Gold.Chemscore.Hbonds>
donor molecule, donor type, donor heavy atom, donor atom, acceptor molecule, acceptor atom, score
      P1  H  6896  6907       L1    12  0.88
      P1  H  7989  7998       L1    18  0.78
      P1  H 10752 10765       L1    17  0.17

> <Gold.PLP.Chemscore.Internal.Correction>
0.4526

> <Gold.Rescore>
     Score         DG    S(hbond)    S(metal)    S(lipo)     H(rot)  DE(clash)    DE(int)     intcor
      7.37     -13.10       1.69        0.00      85.91       3.16       2.25       3.48       ----

> <Gold.Chemscore.Fitness>
7.3656

> <Gold.Chemscore.DG>
-13.1007

> <Gold.Chemscore.ZeroCoef>
-5.4800

> <Gold.Chemscore.Hbond>
1.6942

> <Gold.Chemscore.Metal>
0.0000

> <Gold.Chemscore.Lipo>
85.9056

> <Gold.Chemscore.Internal_Hbond>
0.0000

> <Gold.Chemscore.DEClash>
2.2513

> <Gold.Chemscore.DEInternal>
3.4839

> <Gold.Chemscore.Rot>
3.1597

> <Gold.Chemscore.Internal.Correction>
   9.000000E+99

> <Gold.Chemscore.Hbonds>
donor molecule, donor type, donor heavy atom, donor atom, acceptor molecule, acceptor atom, score
      P1  H  6896  6907       L1    12  0.60
      P1  H  7989  7998       L1    18  0.78
      P1  H 10752 10765       L1    17  0.17

> <Gold.Chemscore.Hbond.Weighted>
-5.6586

> <Gold.Chemscore.Metal.Weighted>
-0.0000

> <Gold.Chemscore.Lipo.Weighted>
-10.0509

> <Gold.Chemscore.Internal_Hbond.Weighted>
0.0000

> <Gold.Chemscore.DEClash.Weighted>
2.2513

> <Gold.Chemscore.DEInternal.Weighted>
3.4839

> <Gold.Chemscore.Rot.Weighted>
8.0888

> <Gold.Chemscore.Internal.Correction.Weighted>
   9.000000E+99

> <Gold.Protein.RotatedTorsions>
[ 6907 6896 6895 6894 ] final   17.41 input  -60.11 | X-H torsion
[ 7974 7965 7964 7962 ] final -104.44 input  175.53 | X-H torsion
[ 8008 7997 7996 7995 ] final  -28.13 input   59.86 | X-H torsion
[ 10167 10162 10161 10158 ] final   -3.66 input  -65.29 | X-H torsion
[ 10718 10713 10712 10709 ] final   73.41 input   66.30 | X-H torsion
[ 10763 10752 10751 10750 ] final -177.70 input  -60.55 | X-H torsion
[ 11005 11000 10999 10996 ] final  146.56 input  -57.11 | X-H torsion

> <Gold.Protein.ActiveResidues>
 VAL166  LYS551  ARG553  GLY616  TRP617  ASP618  TYR619  PRO620  LYS621  CYS622 
 ASP623  PHE694  ASN695  SER759  ASP760  ASP761  ALA762  ILE779  LEU786  VAL792 
 PHE793  MET794  SER795  GLU796  ALA797  LYS798  CYS799  TRP800  GLU811  SER814 

> <Gold.Protein.RotatedAtoms>
  151.8491  135.0564  160.0456 H   0  0  0  0  0  0  0  0  0  0  0  0  # atno 6907 bound_to 6896
  152.2750  133.5413  159.5471 H   0  0  0  0  0  0  0  0  0  0  0  0  # atno 6908 bound_to 6896
  150.7166  134.0561  159.3857 H   0  0  0  0  0  0  0  0  0  0  0  0  # atno 6909 bound_to 6896
  145.2432  140.9212  143.3138 H   0  0  0  0  0  0  0  0  0  0  0  0  # atno 7974 bound_to 7965
  154.4346  140.1853  156.1041 H   0  0  0  0  0  0  0  0  0  0  0  0  # atno 8008 bound_to 7997
  156.0269  140.3335  155.7072 H   0  0  0  0  0  0  0  0  0  0  0  0  # atno 8009 bound_to 7997
  155.5896  140.0629  157.2753 H   0  0  0  0  0  0  0  0  0  0  0  0  # atno 8010 bound_to 7997
  140.6898  143.6514  150.8347 H   0  0  0  0  0  0  0  0  0  0  0  0  # atno 10167 bound_to 10162
  157.6546  130.9627  150.1066 H   0  0  0  0  0  0  0  0  0  0  0  0  # atno 10718 bound_to 10713
  154.5569  135.2817  155.0956 H   0  0  0  0  0  0  0  0  0  0  0  0  # atno 10763 bound_to 10752
  154.2380  135.6362  153.5201 H   0  0  0  0  0  0  0  0  0  0  0  0  # atno 10764 bound_to 10752
  153.0018  135.5553  154.6151 H   0  0  0  0  0  0  0  0  0  0  0  0  # atno 10765 bound_to 10752
  140.0803  134.9101  157.1490 H   0  0  0  0  0  0  0  0  0  0  0  0  # atno 11005 bound_to 11000
  144.9570  139.4020  143.6374 LP  0  0  0  0  0  0  0  0  0  0  0  0  # atno 17320 bound_to 7965
  146.3323  139.8605  142.8857 LP  0  0  0  0  0  0  0  0  0  0  0  0  # atno 17321 bound_to 7965
  140.0225  143.5527  152.2794 LP  0  0  0  0  0  0  0  0  0  0  0  0  # atno 17342 bound_to 10162
  139.6291  144.7641  151.2575 LP  0  0  0  0  0  0  0  0  0  0  0  0  # atno 17343 bound_to 10162
  156.1974  130.3658  149.8832 LP  0  0  0  0  0  0  0  0  0  0  0  0  # atno 17370 bound_to 10713
  156.6745  130.8833  151.3567 LP  0  0  0  0  0  0  0  0  0  0  0  0  # atno 17371 bound_to 10713
  140.3497  134.2612  155.7200 LP  0  0  0  0  0  0  0  0  0  0  0  0  # atno 17394 bound_to 11000
  141.2044  133.7886  157.0287 LP  0  0  0  0  0  0  0  0  0  0  0  0  # atno 17395 bound_to 11000

$$$$
