AV-unprocessed.smi:2489|AV-procd|sdf|9795|dock4
  -GOLD-   2272013433D 1   1.00000     0.00000
 Structure written by MMmdl.
 33 34  0  0  0  0  0  0  0  0  1 V2000
  153.8095  137.2081  157.1938 C   0  0  0  0  0  0  0  0  0  0  0  0
  153.1537  136.9749  155.9561 O   0  0  0  0  0  0  0  0  0  0  0  0
  152.2778  137.9357  155.4992 C   0  0  0  0  0  0  0  0  0  0  0  0
  151.5900  137.6744  154.2993 C   0  0  0  0  0  0  0  0  0  0  0  0
  150.6886  138.6370  153.8111 C   0  0  0  0  0  0  0  0  0  0  0  0
  150.4466  139.8059  154.4376 N   0  0  0  0  0  0  0  0  0  0  0  0
  151.0979  140.0800  155.5943 C   0  0  0  0  0  0  0  0  0  0  0  0
  150.9160  141.2780  156.3351 N   0  0  0  0  0  0  0  0  0  0  0  0
  151.0916  141.4809  157.6543 C   0  0  0  0  0  0  0  0  0  0  0  0
  151.4321  140.6081  158.4544 O   0  0  0  0  0  0  0  0  0  0  0  0
  150.8135  142.9135  158.1403 C   0  0  2  0  0  0  0  0  0  0  0  0
  151.8128  143.9690  157.6229 C   0  0  0  0  0  0  0  0  0  0  0  0
  152.4818  144.5039  158.8789 C   0  0  0  0  0  0  0  0  0  0  0  0
  152.2377  143.4000  159.9027 C   0  0  1  0  0  0  0  0  0  0  0  0
  152.2800  143.8726  161.3596 C   0  0  0  0  0  0  0  0  0  0  0  0
  150.9354  142.9475  159.5608 O   0  0  0  0  0  0  0  0  0  0  0  0
  152.0208  139.1667  156.1532 C   0  0  0  0  0  0  0  0  0  0  0  0
  154.4608  136.3641  157.4207 H   0  0  0  0  0  0  0  0  0  0  0  0
  153.0946  137.3019  158.0124 H   0  0  0  0  0  0  0  0  0  0  0  0
  154.4315  138.1031  157.1527 H   0  0  0  0  0  0  0  0  0  0  0  0
  151.7501  136.7513  153.7618 H   0  0  0  0  0  0  0  0  0  0  0  0
  150.1464  138.4635  152.8934 H   0  0  0  0  0  0  0  0  0  0  0  0
  150.6176  142.0796  155.7990 H   0  0  0  0  0  0  0  0  0  0  0  0
  149.7939  143.1981  157.8748 H   0  0  0  0  0  0  0  0  0  0  0  0
  152.5570  143.5472  156.9461 H   0  0  0  0  0  0  0  0  0  0  0  0
  151.3071  144.7679  157.0797 H   0  0  0  0  0  0  0  0  0  0  0  0
  153.5405  144.7229  158.7375 H   0  0  0  0  0  0  0  0  0  0  0  0
  151.9857  145.4238  159.1917 H   0  0  0  0  0  0  0  0  0  0  0  0
  152.9506  142.5872  159.7536 H   0  0  0  0  0  0  0  0  0  0  0  0
  153.2677  144.2549  161.6177 H   0  0  0  0  0  0  0  0  0  0  0  0
  152.0517  143.0524  162.0404 H   0  0  0  0  0  0  0  0  0  0  0  0
  151.5545  144.6664  161.5399 H   0  0  0  0  0  0  0  0  0  0  0  0
  152.5175  139.4252  157.0765 H   0  0  0  0  0  0  0  0  0  0  0  0
  1  2  1  0  0  0  0
  1 18  1  0  0  0  0
  1 19  1  0  0  0  0
  1 20  1  0  0  0  0
  2  3  1  0  0  0  0
  3 17  1  0  0  0  0
  3  4  2  0  0  0  0
  4  5  1  0  0  0  0
  4 21  1  0  0  0  0
  5  6  2  0  0  0  0
  5 22  1  0  0  0  0
  6  7  1  0  0  0  0
  7  8  1  0  0  0  0
  7 17  2  0  0  0  0
  8  9  1  0  0  0  0
  8 23  1  0  0  0  0
  9 10  2  0  0  0  0
  9 11  1  0  0  0  0
 11 16  1  0  0  0  0
 11 12  1  0  0  0  0
 11 24  1  0  0  0  0
 12 13  1  0  0  0  0
 12 25  1  0  0  0  0
 12 26  1  0  0  0  0
 13 14  1  0  0  0  0
 13 27  1  0  0  0  0
 13 28  1  0  0  0  0
 14 15  1  0  0  0  0
 14 16  1  0  0  0  0
 14 29  1  0  0  0  0
 15 30  1  0  0  0  0
 15 31  1  0  0  0  0
 15 32  1  0  0  0  0
 17 33  1  0  0  0  0
M  END
> <s_m_source_file>
AV-unprocessed.smi

> <i_m_source_file_index>
2489

> <i_lp_mmshare_version>
43012

> <i_f3d_flags>
0

> <s_epik_input>
W0NIM11PYzFbY0hdW2NIXW5jKFtjSF0xKVtOSF1DKD1PKVtDQEBIXTJbQ0gyXVtDSDJdW0NASF0oTzIpW0NIM10=

> <s_epik_cmdline>
J2VwaWtfcHl0aG9uJywgJy1waCcsICc3LjAnLCAnLXRuJywgJzgnLCAnLW1hJywgJzIwMCcsICctbWV0YWxfYmluZGluZycsICctaW1hZScsICc8aW5maWxlLm1hZT4nLCAnLW9tYWUnLCAnPG91dGZpbGUubWFlPic=

> <r_epik_Ionization_Penalty>
0.0871917

> <r_epik_Ionization_Penalty_Charging>
0

> <r_epik_Ionization_Penalty_Neutral>
0.0871917

> <r_epik_State_Penalty>
0.146479

> <r_epik_Charging_Adjusted_Penalty>
0.146479

> <i_epik_Tot_Q>
0

> <i_epik_Tot_abs_Q>
0

> <r_epik_Metal_State_Penalty>
0.067489

> <b_epik_Metal_Only>
0

> <s_lp_Force_Field>
OPLS_2005

> <r_lp_Energy>
22.5644

> <b_lp_Chiralities_Consistent>
1

> <s_lp_Variant>
AV-unprocessed.smi:2489-1

> <Gold.Version>
5.8.1

> <Gold.Id.Protein>
6NUR|6NUR_protein|mol2

> <Gold.PLP.Fitness>
45.4780

> <Gold.PLP.PLP>
-36.0951

> <Gold.PLP.part.hbond>
-2.7437

> <Gold.PLP.part.metal>
0.0000

> <Gold.PLP.part.buried>
-5.4091

> <Gold.PLP.part.nonpolar>
-29.1412

> <Gold.PLP.part.repulsive>
0.2403

> <Gold.PLP.ligand.clash>
0.0000

> <Gold.PLP.ligand.torsion>
0.2180

> <Gold.PLP.Chemscore.Hbond>
1.5800

> <Gold.PLP.Chemscore.CHOScore>
1.6887

> <Gold.PLP.Chemscore.Metal>
0.0000

> <Gold.Chemscore.Hbonds>
donor molecule, donor type, donor heavy atom, donor atom, acceptor molecule, acceptor atom, score
      P1  H  7989  7998       L1     6  0.49
      P1  H 10752 10765       L1     2  0.58
      L1  C     5    22       P1  7948  0.63
      L1  C     5    22       P1  7957  0.98

> <Gold.PLP.Chemscore.Internal.Correction>
0.0128

> <Gold.Rescore>
     Score         DG    S(hbond)    S(metal)    S(lipo)     H(rot)  DE(clash)    DE(int)     intcor
     14.60     -16.51       1.05        0.00      91.04       1.23       0.25       1.67       ----

> <Gold.Chemscore.Fitness>
14.6019

> <Gold.Chemscore.DG>
-16.5145

> <Gold.Chemscore.ZeroCoef>
-5.4800

> <Gold.Chemscore.Hbond>
1.0548

> <Gold.Chemscore.Metal>
0.0000

> <Gold.Chemscore.Lipo>
91.0357

> <Gold.Chemscore.Internal_Hbond>
0.0000

> <Gold.Chemscore.DEClash>
0.2474

> <Gold.Chemscore.DEInternal>
1.6652

> <Gold.Chemscore.Rot>
1.2264

> <Gold.Chemscore.Internal.Correction>
   9.000000E+99

> <Gold.Chemscore.Hbonds>
donor molecule, donor type, donor heavy atom, donor atom, acceptor molecule, acceptor atom, score
      P1  H  7989  7998       L1     6  0.01
      P1  H 10752 10765       L1     2  0.56

> <Gold.Chemscore.Hbond.Weighted>
-3.5229

> <Gold.Chemscore.Metal.Weighted>
-0.0000

> <Gold.Chemscore.Lipo.Weighted>
-10.6512

> <Gold.Chemscore.Internal_Hbond.Weighted>
0.0000

> <Gold.Chemscore.DEClash.Weighted>
0.2474

> <Gold.Chemscore.DEInternal.Weighted>
1.6652

> <Gold.Chemscore.Rot.Weighted>
3.1396

> <Gold.Chemscore.Internal.Correction.Weighted>
   9.000000E+99

> <Gold.Protein.RotatedTorsions>
[ 6907 6896 6895 6894 ] final  -31.33 input  -60.11 | X-H torsion
[ 7974 7965 7964 7962 ] final  -48.59 input  175.53 | X-H torsion
[ 8008 7997 7996 7995 ] final  104.38 input   59.86 | X-H torsion
[ 10167 10162 10161 10158 ] final   17.96 input  -65.29 | X-H torsion
[ 10718 10713 10712 10709 ] final -153.08 input   66.30 | X-H torsion
[ 10763 10752 10751 10750 ] final -143.22 input  -60.55 | X-H torsion
[ 11005 11000 10999 10996 ] final   74.16 input  -57.11 | X-H torsion

> <Gold.Protein.ActiveResidues>
 VAL166  LYS551  ARG553  GLY616  TRP617  ASP618  TYR619  PRO620  LYS621  CYS622 
 ASP623  PHE694  ASN695  SER759  ASP760  ASP761  ALA762  ILE779  LEU786  VAL792 
 PHE793  MET794  SER795  GLU796  ALA797  LYS798  CYS799  TRP800  GLU811  SER814 

> <Gold.Protein.RotatedAtoms>
  151.0935  134.9930  159.8413 H   0  0  0  0  0  0  0  0  0  0  0  0  # atno 6907 bound_to 6896
  152.5431  134.2037  159.8732 H   0  0  0  0  0  0  0  0  0  0  0  0  # atno 6908 bound_to 6896
  151.2075  133.4531  159.2631 H   0  0  0  0  0  0  0  0  0  0  0  0  # atno 6909 bound_to 6896
  145.9496  140.7585  142.9511 H   0  0  0  0  0  0  0  0  0  0  0  0  # atno 7974 bound_to 7965
  156.1567  140.3149  155.8739 H   0  0  0  0  0  0  0  0  0  0  0  0  # atno 8008 bound_to 7997
  155.3863  140.0491  157.3059 H   0  0  0  0  0  0  0  0  0  0  0  0  # atno 8009 bound_to 7997
  154.5108  140.2164  155.9171 H   0  0  0  0  0  0  0  0  0  0  0  0  # atno 8010 bound_to 7997
  140.5688  143.9200  150.6697 H   0  0  0  0  0  0  0  0  0  0  0  0  # atno 10167 bound_to 10162
  156.4811  130.8303  151.2530 H   0  0  0  0  0  0  0  0  0  0  0  0  # atno 10718 bound_to 10713
  154.8478  135.3474  154.6153 H   0  0  0  0  0  0  0  0  0  0  0  0  # atno 10763 bound_to 10752
  153.6761  135.6982  153.5136 H   0  0  0  0  0  0  0  0  0  0  0  0  # atno 10764 bound_to 10752
  153.2704  135.4294  155.0938 H   0  0  0  0  0  0  0  0  0  0  0  0  # atno 10765 bound_to 10752
  139.9404  134.7409  156.1114 H   0  0  0  0  0  0  0  0  0  0  0  0  # atno 11005 bound_to 11000
  144.6793  140.2412  143.7343 LP  0  0  0  0  0  0  0  0  0  0  0  0  # atno 17320 bound_to 7965
  145.8190  139.2035  143.1949 LP  0  0  0  0  0  0  0  0  0  0  0  0  # atno 17321 bound_to 7965
  140.2670  143.3483  152.1272 LP  0  0  0  0  0  0  0  0  0  0  0  0  # atno 17342 bound_to 10162
  139.5107  144.6888  151.5816 LP  0  0  0  0  0  0  0  0  0  0  0  0  # atno 17343 bound_to 10162
  157.7483  131.0045  150.3077 LP  0  0  0  0  0  0  0  0  0  0  0  0  # atno 17370 bound_to 10713
  156.3521  130.3832  149.7320 LP  0  0  0  0  0  0  0  0  0  0  0  0  # atno 17371 bound_to 10713
  141.1036  133.6668  156.2812 LP  0  0  0  0  0  0  0  0  0  0  0  0  # atno 17394 bound_to 11000
  140.5966  134.5597  157.5510 LP  0  0  0  0  0  0  0  0  0  0  0  0  # atno 17395 bound_to 11000

$$$$
