AV-unprocessed.smi:2110|AV-procd|sdf|8609|dock5
  -GOLD-   2272011353D 1   1.00000     0.00000
 Structure written by MMmdl.
 47 48  0  0  0  0  0  0  0  0  2 V2000
  149.3711  132.3517  154.5293 C   0  0  0  0  0  0  0  0  0  0  0  0
  149.8088  133.7698  154.1409 C   0  0  0  0  0  0  0  0  0  0  0  0
  149.1667  134.7716  155.0064 N   0  0  0  0  0  0  0  0  0  0  0  0
  147.7301  135.0099  154.7921 C   0  0  0  0  0  0  0  0  0  0  0  0
  146.9100  134.6710  156.0448 C   0  0  0  0  0  0  0  0  0  0  0  0
  150.1301  135.9793  155.7940 S   0  0  0  0  0  0  0  0  0  0  0  0
  149.3774  136.5277  156.9329 O   0  0  0  0  0  0  0  0  0  0  0  0
  151.4915  135.4492  155.9608 O   0  0  0  0  0  0  0  0  0  0  0  0
  150.1618  137.1674  154.5407 N   0  0  0  0  0  0  0  0  0  0  0  0
  151.1832  138.2167  154.5015 C   0  0  0  0  0  0  0  0  0  0  0  0
  150.6830  139.5756  154.9593 C   0  0  0  0  0  0  0  0  0  0  0  0
  149.6093  140.1961  154.2881 C   0  0  0  0  0  0  0  0  0  0  0  0
  149.1591  141.4521  154.7342 C   0  0  0  0  0  0  0  0  0  0  0  0
  149.7571  142.0439  155.7899 N   0  3  0  0  0  0  0  0  0  0  0  0
  150.7946  141.5018  156.4739 C   0  0  0  0  0  0  0  0  0  0  0  0
  151.3180  142.2227  157.5704 N   0  0  0  0  0  0  0  0  0  0  0  0
  151.5908  143.6427  157.3523 C   0  0  0  0  0  0  0  0  0  0  0  0
  151.8299  144.3602  158.6916 C   0  0  0  0  0  0  0  0  0  0  0  0
  152.8571  143.6944  159.4169 O   0  0  0  0  0  0  0  0  0  0  0  0
  152.4937  142.3560  159.7334 C   0  0  0  0  0  0  0  0  0  0  0  0
  152.2841  141.5543  158.4379 C   0  0  0  0  0  0  0  0  0  0  0  0
  151.2826  140.2380  156.0544 C   0  0  0  0  0  0  0  0  0  0  0  0
  149.8370  131.6129  153.8772 H   0  0  0  0  0  0  0  0  0  0  0  0
  148.2905  132.2352  154.4435 H   0  0  0  0  0  0  0  0  0  0  0  0
  149.6527  132.1090  155.5534 H   0  0  0  0  0  0  0  0  0  0  0  0
  150.8918  133.8679  154.2218 H   0  0  0  0  0  0  0  0  0  0  0  0
  149.5617  133.9575  153.0955 H   0  0  0  0  0  0  0  0  0  0  0  0
  147.5701  136.0571  154.5346 H   0  0  0  0  0  0  0  0  0  0  0  0
  147.3887  134.4261  153.9365 H   0  0  0  0  0  0  0  0  0  0  0  0
  145.8536  134.8843  155.8813 H   0  0  0  0  0  0  0  0  0  0  0  0
  147.2364  135.2604  156.9016 H   0  0  0  0  0  0  0  0  0  0  0  0
  146.9935  133.6173  156.3106 H   0  0  0  0  0  0  0  0  0  0  0  0
  149.2537  137.4063  154.1426 H   0  0  0  0  0  0  0  0  0  0  0  0
  152.0061  137.9211  155.1521 H   0  0  0  0  0  0  0  0  0  0  0  0
  151.5919  138.2852  153.4936 H   0  0  0  0  0  0  0  0  0  0  0  0
  149.1310  139.7158  153.4468 H   0  0  0  0  0  0  0  0  0  0  0  0
  148.3415  141.9966  154.2846 H   0  0  0  0  0  0  0  0  0  0  0  0
  152.4714  143.7371  156.7161 H   0  0  0  0  0  0  0  0  0  0  0  0
  150.7676  144.1352  156.8352 H   0  0  0  0  0  0  0  0  0  0  0  0
  152.1327  145.3924  158.5149 H   0  0  0  0  0  0  0  0  0  0  0  0
  150.9140  144.3952  159.2838 H   0  0  0  0  0  0  0  0  0  0  0  0
  153.2861  141.9040  160.3300 H   0  0  0  0  0  0  0  0  0  0  0  0
  151.5910  142.3479  160.3466 H   0  0  0  0  0  0  0  0  0  0  0  0
  151.9335  140.5557  158.6999 H   0  0  0  0  0  0  0  0  0  0  0  0
  153.2300  141.4444  157.9060 H   0  0  0  0  0  0  0  0  0  0  0  0
  152.1106  139.7609  156.5563 H   0  0  0  0  0  0  0  0  0  0  0  0
  149.4025  142.9509  156.0943 H   0  0  0  0  0  0  0  0  0  0  0  0
  1  2  1  0  0  0  0
  1 23  1  0  0  0  0
  1 24  1  0  0  0  0
  1 25  1  0  0  0  0
  2  3  1  0  0  0  0
  2 26  1  0  0  0  0
  2 27  1  0  0  0  0
  3  4  1  0  0  0  0
  3  6  1  0  0  0  0
  4  5  1  0  0  0  0
  4 28  1  0  0  0  0
  4 29  1  0  0  0  0
  5 30  1  0  0  0  0
  5 31  1  0  0  0  0
  5 32  1  0  0  0  0
  6  7  2  0  0  0  0
  6  8  2  0  0  0  0
  6  9  1  0  0  0  0
  9 10  1  0  0  0  0
  9 33  1  0  0  0  0
 10 11  1  0  0  0  0
 10 34  1  0  0  0  0
 10 35  1  0  0  0  0
 11 22  1  0  0  0  0
 11 12  2  0  0  0  0
 12 13  1  0  0  0  0
 12 36  1  0  0  0  0
 13 14  2  0  0  0  0
 13 37  1  0  0  0  0
 14 15  1  0  0  0  0
 14 47  1  0  0  0  0
 15 16  1  0  0  0  0
 15 22  2  0  0  0  0
 16 21  1  0  0  0  0
 16 17  1  0  0  0  0
 17 18  1  0  0  0  0
 17 38  1  0  0  0  0
 17 39  1  0  0  0  0
 18 19  1  0  0  0  0
 18 40  1  0  0  0  0
 18 41  1  0  0  0  0
 19 20  1  0  0  0  0
 20 21  1  0  0  0  0
 20 42  1  0  0  0  0
 20 43  1  0  0  0  0
 21 44  1  0  0  0  0
 21 45  1  0  0  0  0
 22 46  1  0  0  0  0
M  CHG  1  14   1
M  END
> <s_m_source_file>
AV-unprocessed.smi

> <i_m_source_file_index>
2110

> <i_lp_mmshare_version>
43012

> <i_f3d_flags>
0

> <s_epik_input>
W0NIM11bQ0gyXU4oW0NIMl1bQ0gzXSlTKD1PKSg9TylbTkhdW0NIMl1jMVtjSF1bY0hdbmMoW2NIXTEpTjJbQ0gyXVtDSDJdT1tDSDJdW0NIMl0y

> <s_epik_cmdline>
J2VwaWtfcHl0aG9uJywgJy1waCcsICc3LjAnLCAnLXRuJywgJzgnLCAnLW1hJywgJzIwMCcsICctbWV0YWxfYmluZGluZycsICctaW1hZScsICc8aW5maWxlLm1hZT4nLCAnLW9tYWUnLCAnPG91dGZpbGUubWFlPic=

> <r_lp_tautomer_probability>
0.999994

> <r_epik_Ionization_Penalty>
1.66934

> <r_epik_Ionization_Penalty_Charging>
1.61364

> <r_epik_Ionization_Penalty_Neutral>
0.0557011

> <r_epik_State_Penalty>
1.67389

> <r_epik_Charging_Adjusted_Penalty>
3.28753

> <i_epik_Tot_Q>
1

> <i_epik_Tot_abs_Q>
1

> <r_epik_Metal_State_Penalty>
4.64949

> <b_epik_Metal_Only>
0

> <s_lp_Force_Field>
OPLS_2005

> <r_lp_Energy>
18.4454

> <b_lp_Chiralities_Consistent>
1

> <s_lp_Variant>
AV-unprocessed.smi:2110-2

> <Gold.Version>
5.8.1

> <Gold.Id.Protein>
6NUR|6NUR_protein|mol2

> <Gold.PLP.Fitness>
50.5806

> <Gold.PLP.PLP>
-42.1788

> <Gold.PLP.part.hbond>
-3.0000

> <Gold.PLP.part.metal>
0.0000

> <Gold.PLP.part.buried>
-3.8697

> <Gold.PLP.part.nonpolar>
-35.4913

> <Gold.PLP.part.repulsive>
0.2662

> <Gold.PLP.ligand.clash>
0.0000

> <Gold.PLP.ligand.torsion>
2.2235

> <Gold.PLP.Chemscore.Hbond>
2.9840

> <Gold.PLP.Chemscore.CHOScore>
0.0000

> <Gold.PLP.Chemscore.Metal>
0.0000

> <Gold.Chemscore.Hbonds>
donor molecule, donor type, donor heavy atom, donor atom, acceptor molecule, acceptor atom, score
      L1  H    14    47       P1  8028  1.95
      P1  H 10752 10764       L1     8  1.00

> <Gold.PLP.Chemscore.Internal.Correction>
3.8968

> <Gold.Rescore>
     Score         DG    S(hbond)    S(metal)    S(lipo)     H(rot)  DE(clash)    DE(int)     intcor
     16.57     -18.86       1.91        0.00      98.44       1.77       0.02       2.27       ----

> <Gold.Chemscore.Fitness>
16.5661

> <Gold.Chemscore.DG>
-18.8631

> <Gold.Chemscore.ZeroCoef>
-5.4800

> <Gold.Chemscore.Hbond>
1.9135

> <Gold.Chemscore.Metal>
0.0000

> <Gold.Chemscore.Lipo>
98.4441

> <Gold.Chemscore.Internal_Hbond>
0.0000

> <Gold.Chemscore.DEClash>
0.0234

> <Gold.Chemscore.DEInternal>
2.2736

> <Gold.Chemscore.Rot>
1.7680

> <Gold.Chemscore.Internal.Correction>
   9.000000E+99

> <Gold.Chemscore.Hbonds>
donor molecule, donor type, donor heavy atom, donor atom, acceptor molecule, acceptor atom, score
      L1  H    14    47       P1  8028  0.93
      P1  H 10752 10764       L1     8  0.98

> <Gold.Chemscore.Hbond.Weighted>
-6.3912

> <Gold.Chemscore.Metal.Weighted>
-0.0000

> <Gold.Chemscore.Lipo.Weighted>
-11.5180

> <Gold.Chemscore.Internal_Hbond.Weighted>
0.0000

> <Gold.Chemscore.DEClash.Weighted>
0.0234

> <Gold.Chemscore.DEInternal.Weighted>
2.2736

> <Gold.Chemscore.Rot.Weighted>
4.5261

> <Gold.Chemscore.Internal.Correction.Weighted>
   9.000000E+99

> <Gold.Protein.RotatedTorsions>
[ 6907 6896 6895 6894 ] final  165.59 input  -60.11 | X-H torsion
[ 7974 7965 7964 7962 ] final   13.66 input  175.53 | X-H torsion
[ 8008 7997 7996 7995 ] final   83.59 input   59.86 | X-H torsion
[ 10167 10162 10161 10158 ] final  -53.57 input  -65.29 | X-H torsion
[ 10718 10713 10712 10709 ] final   58.36 input   66.30 | X-H torsion
[ 10763 10752 10751 10750 ] final  -47.20 input  -60.55 | X-H torsion
[ 11005 11000 10999 10996 ] final  178.90 input  -57.11 | X-H torsion

> <Gold.Protein.ActiveResidues>
 VAL166  LYS551  ARG553  GLY616  TRP617  ASP618  TYR619  PRO620  LYS621  CYS622 
 ASP623  PHE694  ASN695  SER759  ASP760  ASP761  ALA762  ILE779  LEU786  VAL792 
 PHE793  MET794  SER795  GLU796  ALA797  LYS798  CYS799  TRP800  GLU811  SER814 

> <Gold.Protein.RotatedAtoms>
  151.8921  133.3518  159.3801 H   0  0  0  0  0  0  0  0  0  0  0  0  # atno 6907 bound_to 6896
  150.7101  134.4913  159.5526 H   0  0  0  0  0  0  0  0  0  0  0  0  # atno 6908 bound_to 6896
  152.2486  134.8156  160.0500 H   0  0  0  0  0  0  0  0  0  0  0  0  # atno 6909 bound_to 6896
  146.2324  139.9156  142.8518 H   0  0  0  0  0  0  0  0  0  0  0  0  # atno 7974 bound_to 7965
  155.9259  140.3418  155.6210 H   0  0  0  0  0  0  0  0  0  0  0  0  # atno 8008 bound_to 7997
  155.7217  140.0784  157.2346 H   0  0  0  0  0  0  0  0  0  0  0  0  # atno 8009 bound_to 7997
  154.4077  140.1604  156.2397 H   0  0  0  0  0  0  0  0  0  0  0  0  # atno 8010 bound_to 7997
  140.6478  143.2546  151.4811 H   0  0  0  0  0  0  0  0  0  0  0  0  # atno 10167 bound_to 10162
  157.5590  130.8821  149.9081 H   0  0  0  0  0  0  0  0  0  0  0  0  # atno 10718 bound_to 10713
  154.0576  135.6622  153.4808 H   0  0  0  0  0  0  0  0  0  0  0  0  # atno 10763 bound_to 10752
  153.0439  135.5127  154.7691 H   0  0  0  0  0  0  0  0  0  0  0  0  # atno 10764 bound_to 10752
  154.6717  135.3030  154.9700 H   0  0  0  0  0  0  0  0  0  0  0  0  # atno 10765 bound_to 10752
  140.4003  134.6783  157.4558 H   0  0  0  0  0  0  0  0  0  0  0  0  # atno 11005 bound_to 11000
  145.2187  140.9926  143.4058 LP  0  0  0  0  0  0  0  0  0  0  0  0  # atno 17320 bound_to 7965
  144.9629  139.3961  143.6347 LP  0  0  0  0  0  0  0  0  0  0  0  0  # atno 17321 bound_to 7965
  139.5689  144.1974  152.1807 LP  0  0  0  0  0  0  0  0  0  0  0  0  # atno 17342 bound_to 10162
  140.1265  144.5327  150.6829 LP  0  0  0  0  0  0  0  0  0  0  0  0  # atno 17343 bound_to 10162
  156.0645  130.3694  150.0909 LP  0  0  0  0  0  0  0  0  0  0  0  0  # atno 17370 bound_to 10713
  156.9075  130.9640  151.3568 LP  0  0  0  0  0  0  0  0  0  0  0  0  # atno 17371 bound_to 10713
  140.0341  134.6362  155.9066 LP  0  0  0  0  0  0  0  0  0  0  0  0  # atno 17394 bound_to 11000
  141.1859  133.6556  156.5218 LP  0  0  0  0  0  0  0  0  0  0  0  0  # atno 17395 bound_to 11000

$$$$
