AV-unprocessed.smi:124|AV-procd|sdf|1147|dock4
  -GOLD-   2262018283D 1   1.00000     0.00000
 Structure written by MMmdl.
 52 56  0  0  0  0  0  0  0  0  1 V2000
  154.4335  139.4217  158.8441 O   0  0  0  0  0  0  0  0  0  0  0  0
  153.7052  140.1085  159.5628 C   0  0  0  0  0  0  0  0  0  0  0  0
  153.8098  139.9566  161.0924 C   0  0  0  0  0  0  0  0  0  0  0  0
  154.7198  138.8941  161.5089 N   0  0  0  0  0  0  0  0  0  0  0  0
  155.9735  139.2740  162.0498 C   0  0  0  0  0  0  0  0  0  0  0  0
  156.3028  140.4549  162.1761 O   0  0  0  0  0  0  0  0  0  0  0  0
  156.8360  138.1576  162.4170 C   0  0  0  0  0  0  0  0  0  0  0  0
  158.0667  138.3995  162.8994 F   0  0  0  0  0  0  0  0  0  0  0  0
  156.4255  136.8799  162.2665 C   0  0  0  0  0  0  0  0  0  0  0  0
  155.1744  136.5341  161.7815 N   0  0  0  0  0  0  0  0  0  0  0  0
  154.7950  135.0888  161.5320 C   0  0  2  0  0  0  0  0  0  0  0  0
  155.8158  134.0698  162.0686 C   0  0  0  0  0  0  0  0  0  0  0  0
  156.4848  133.5788  160.7993 C   0  0  0  0  0  0  0  0  0  0  0  0
  155.3571  133.7110  159.7833 C   0  0  0  0  0  0  0  0  0  0  0  0
  154.6942  134.9136  160.1508 O   0  0  0  0  0  0  0  0  0  0  0  0
  154.3059  137.5520  161.3241 C   0  0  0  0  0  0  0  0  0  0  0  0
  153.2322  137.2761  160.7836 O   0  0  0  0  0  0  0  0  0  0  0  0
  152.7321  141.0920  159.0681 C   0  0  0  0  0  0  0  0  0  0  0  0
  152.0017  140.9195  157.9075 C   0  0  0  0  0  0  0  0  0  0  0  0
  151.9360  139.8297  156.9404 C   0  0  0  0  0  0  0  0  0  0  0  0
  152.3357  138.5266  157.3066 C   0  0  0  0  0  0  0  0  0  0  0  0
  152.2796  137.4735  156.3731 C   0  0  0  0  0  0  0  0  0  0  0  0
  151.8262  137.7171  155.0629 C   0  0  0  0  0  0  0  0  0  0  0  0
  151.4295  139.0148  154.6880 C   0  0  0  0  0  0  0  0  0  0  0  0
  151.4860  140.0661  155.6235 C   0  0  0  0  0  0  0  0  0  0  0  0
  151.2084  142.0301  157.6944 N   0  0  0  0  0  0  0  0  0  0  0  0
  151.3676  142.9484  158.7053 C   0  0  0  0  0  0  0  0  0  0  0  0
  150.7738  144.2052  158.9233 C   0  0  0  0  0  0  0  0  0  0  0  0
  151.1207  144.9471  160.0645 C   0  0  0  0  0  0  0  0  0  0  0  0
  152.0565  144.4234  160.9735 C   0  0  0  0  0  0  0  0  0  0  0  0
  152.6464  143.1642  160.7440 C   0  0  0  0  0  0  0  0  0  0  0  0
  152.3252  142.3821  159.6019 C   0  0  0  0  0  0  0  0  0  0  0  0
  150.5932  142.1209  156.8987 H   0  0  0  0  0  0  0  0  0  0  0  0
  154.1575  140.8821  161.5528 H   0  0  0  0  0  0  0  0  0  0  0  0
  152.8323  139.7504  161.5302 H   0  0  0  0  0  0  0  0  0  0  0  0
  157.1258  136.1053  162.5351 H   0  0  0  0  0  0  0  0  0  0  0  0
  153.8275  134.9381  162.0130 H   0  0  0  0  0  0  0  0  0  0  0  0
  156.4940  134.4853  162.8138 H   0  0  0  0  0  0  0  0  0  0  0  0
  155.2646  133.2525  162.5357 H   0  0  0  0  0  0  0  0  0  0  0  0
  157.3158  134.2282  160.5236 H   0  0  0  0  0  0  0  0  0  0  0  0
  156.8633  132.5599  160.8835 H   0  0  0  0  0  0  0  0  0  0  0  0
  155.7176  133.7499  158.7552 H   0  0  0  0  0  0  0  0  0  0  0  0
  154.6606  132.8760  159.8719 H   0  0  0  0  0  0  0  0  0  0  0  0
  152.6845  138.3313  158.3101 H   0  0  0  0  0  0  0  0  0  0  0  0
  152.5847  136.4787  156.6627 H   0  0  0  0  0  0  0  0  0  0  0  0
  151.7830  136.9101  154.3463 H   0  0  0  0  0  0  0  0  0  0  0  0
  151.0820  139.2049  153.6834 H   0  0  0  0  0  0  0  0  0  0  0  0
  151.1805  141.0594  155.3284 H   0  0  0  0  0  0  0  0  0  0  0  0
  150.0549  144.5969  158.2191 H   0  0  0  0  0  0  0  0  0  0  0  0
  150.6706  145.9127  160.2430 H   0  0  0  0  0  0  0  0  0  0  0  0
  152.3247  144.9897  161.8533 H   0  0  0  0  0  0  0  0  0  0  0  0
  153.3552  142.8075  161.4724 H   0  0  0  0  0  0  0  0  0  0  0  0
  1  2  2  0  0  0  0
  2  3  1  0  0  0  0
  2 18  1  0  0  0  0
  3  4  1  0  0  0  0
  3 34  1  0  0  0  0
  3 35  1  0  0  0  0
  4 16  1  0  0  0  0
  4  5  1  0  0  0  0
  5  6  2  0  0  0  0
  5  7  1  0  0  0  0
  7  8  1  0  0  0  0
  7  9  2  0  0  0  0
  9 10  1  0  0  0  0
  9 36  1  0  0  0  0
 10 11  1  0  0  0  0
 10 16  1  0  0  0  0
 11 15  1  0  0  0  0
 11 12  1  0  0  0  0
 11 37  1  0  0  0  0
 12 13  1  0  0  0  0
 12 38  1  0  0  0  0
 12 39  1  0  0  0  0
 13 14  1  0  0  0  0
 13 40  1  0  0  0  0
 13 41  1  0  0  0  0
 14 15  1  0  0  0  0
 14 42  1  0  0  0  0
 14 43  1  0  0  0  0
 16 17  2  0  0  0  0
 18 32  1  0  0  0  0
 18 19  2  0  0  0  0
 19 20  1  0  0  0  0
 19 26  1  0  0  0  0
 20 25  1  0  0  0  0
 20 21  2  0  0  0  0
 21 22  1  0  0  0  0
 21 44  1  0  0  0  0
 22 23  2  0  0  0  0
 22 45  1  0  0  0  0
 23 24  1  0  0  0  0
 23 46  1  0  0  0  0
 24 25  2  0  0  0  0
 24 47  1  0  0  0  0
 25 48  1  0  0  0  0
 26 33  1  0  0  0  0
 26 27  1  0  0  0  0
 27 32  1  0  0  0  0
 27 28  2  0  0  0  0
 28 29  1  0  0  0  0
 28 49  1  0  0  0  0
 29 30  2  0  0  0  0
 29 50  1  0  0  0  0
 30 31  1  0  0  0  0
 30 51  1  0  0  0  0
 31 32  2  0  0  0  0
 31 52  1  0  0  0  0
M  END
> <s_m_source_file>
AV-unprocessed.smi

> <i_m_source_file_index>
124

> <i_lp_mmshare_version>
43012

> <i_f3d_flags>
0

> <s_epik_input>
W2NIXTFbY0hdW2NIXVtjSF1bY0hdYzEtYyhbbkhdMiljKGMoYzIzKVtjSF1bY0hdW2NIXVtjSF0zKUMoPU8pW0NIMl1uNGMoPU8pYyhGKVtjSF1uKGM0PU8pW0NAQEhdNVtDSDJdW0NIMl1bQ0gyXU81

> <s_epik_cmdline>
J2VwaWtfcHl0aG9uJywgJy1waCcsICc3LjAnLCAnLXRuJywgJzgnLCAnLW1hJywgJzIwMCcsICctbWV0YWxfYmluZGluZycsICctaW1hZScsICc8aW5maWxlLm1hZT4nLCAnLW9tYWUnLCAnPG91dGZpbGUubWFlPic=

> <r_lp_tautomer_probability>
1

> <r_epik_Ionization_Penalty>
1.43207e-08

> <r_epik_Ionization_Penalty_Charging>
5.01743e-09

> <r_epik_Ionization_Penalty_Neutral>
9.30329e-09

> <r_epik_State_Penalty>
-0

> <r_epik_Charging_Adjusted_Penalty>
5.01743e-09

> <i_epik_Tot_Q>
0

> <i_epik_Tot_abs_Q>
0

> <r_epik_Metal_State_Penalty>
-0

> <b_epik_Metal_Only>
0

> <s_epik_Chemistry_Notes>
This compound contains an acetal/aminal-like group ( X-CH(R)-Y where X, Y are N, S, or O) that may be acid/base labile, releasing an aldehyde.

> <s_lp_Force_Field>
OPLS_2005

> <r_lp_Energy>
48.315

> <b_lp_Chiralities_Consistent>
1

> <s_lp_Variant>
AV-unprocessed.smi:124-1

> <Gold.Version>
5.8.1

> <Gold.Id.Protein>
6NUR|6NUR_protein|mol2

> <Gold.PLP.Fitness>
56.2484

> <Gold.PLP.PLP>
-50.6000

> <Gold.PLP.part.hbond>
-2.9902

> <Gold.PLP.part.metal>
0.0000

> <Gold.PLP.part.buried>
-6.3811

> <Gold.PLP.part.nonpolar>
-41.2480

> <Gold.PLP.part.repulsive>
0.0447

> <Gold.PLP.ligand.clash>
0.0000

> <Gold.PLP.ligand.torsion>
0.9727

> <Gold.PLP.Chemscore.Hbond>
2.0000

> <Gold.PLP.Chemscore.CHOScore>
0.0000

> <Gold.PLP.Chemscore.Metal>
0.0000

> <Gold.Chemscore.Hbonds>
donor molecule, donor type, donor heavy atom, donor atom, acceptor molecule, acceptor atom, score
      P1  H  6896  6908       L1    15  0.60
      P1  H  7997  8010       L1     1  1.00

> <Gold.PLP.Chemscore.Internal.Correction>
1.5938

> <Gold.Rescore>
     Score         DG    S(hbond)    S(metal)    S(lipo)     H(rot)  DE(clash)    DE(int)     intcor
     17.51     -22.03       1.34        0.00     137.15       1.55       0.60       3.92       ----

> <Gold.Chemscore.Fitness>
17.5116

> <Gold.Chemscore.DG>
-22.0306

> <Gold.Chemscore.ZeroCoef>
-5.4800

> <Gold.Chemscore.Hbond>
1.3419

> <Gold.Chemscore.Metal>
0.0000

> <Gold.Chemscore.Lipo>
137.1462

> <Gold.Chemscore.Internal_Hbond>
0.0000

> <Gold.Chemscore.DEClash>
0.6032

> <Gold.Chemscore.DEInternal>
3.9159

> <Gold.Chemscore.Rot>
1.5537

> <Gold.Chemscore.Internal.Correction>
   9.000000E+99

> <Gold.Chemscore.Hbonds>
donor molecule, donor type, donor heavy atom, donor atom, acceptor molecule, acceptor atom, score
      P1  H  6896  6908       L1    15  0.07
      P1  H  7997  8010       L1     1  0.99

> <Gold.Chemscore.Hbond.Weighted>
-4.4819

> <Gold.Chemscore.Metal.Weighted>
-0.0000

> <Gold.Chemscore.Lipo.Weighted>
-16.0461

> <Gold.Chemscore.Internal_Hbond.Weighted>
0.0000

> <Gold.Chemscore.DEClash.Weighted>
0.6032

> <Gold.Chemscore.DEInternal.Weighted>
3.9159

> <Gold.Chemscore.Rot.Weighted>
3.9774

> <Gold.Chemscore.Internal.Correction.Weighted>
   9.000000E+99

> <Gold.Protein.RotatedTorsions>
[ 6907 6896 6895 6894 ] final  -43.01 input  -60.11 | X-H torsion
[ 7974 7965 7964 7962 ] final  -31.49 input  175.53 | X-H torsion
[ 8008 7997 7996 7995 ] final   -6.11 input   59.86 | X-H torsion
[ 10167 10162 10161 10158 ] final    8.55 input  -65.29 | X-H torsion
[ 10718 10713 10712 10709 ] final -102.20 input   66.30 | X-H torsion
[ 10763 10752 10751 10750 ] final -118.52 input  -60.55 | X-H torsion
[ 11005 11000 10999 10996 ] final  -42.64 input  -57.11 | X-H torsion

> <Gold.Protein.ActiveResidues>
 VAL166  LYS551  ARG553  GLY616  TRP617  ASP618  TYR619  PRO620  LYS621  CYS622 
 ASP623  PHE694  ASN695  SER759  ASP760  ASP761  ALA762  ILE779  LEU786  VAL792 
 PHE793  MET794  SER795  GLU796  ALA797  LYS798  CYS799  TRP800  GLU811  SER814 

> <Gold.Protein.RotatedAtoms>
  150.9487  134.8889  159.7657 H   0  0  0  0  0  0  0  0  0  0  0  0  # atno 6907 bound_to 6896
  152.5110  134.3838  159.9370 H   0  0  0  0  0  0  0  0  0  0  0  0  # atno 6908 bound_to 6896
  151.3855  133.3766  159.2749 H   0  0  0  0  0  0  0  0  0  0  0  0  # atno 6909 bound_to 6896
  146.1063  140.5674  142.8798 H   0  0  0  0  0  0  0  0  0  0  0  0  # atno 7974 bound_to 7965
  154.5970  140.2441  155.7843 H   0  0  0  0  0  0  0  0  0  0  0  0  # atno 8008 bound_to 7997
  156.2286  140.2974  156.0083 H   0  0  0  0  0  0  0  0  0  0  0  0  # atno 8009 bound_to 7997
  155.2275  140.0402  157.2948 H   0  0  0  0  0  0  0  0  0  0  0  0  # atno 8010 bound_to 7997
  140.6307  143.7999  150.7292 H   0  0  0  0  0  0  0  0  0  0  0  0  # atno 10167 bound_to 10162
  156.0220  130.5409  150.7074 H   0  0  0  0  0  0  0  0  0  0  0  0  # atno 10718 bound_to 10713
  154.8590  135.4271  154.2152 H   0  0  0  0  0  0  0  0  0  0  0  0  # atno 10763 bound_to 10752
  153.3169  135.6979  153.7071 H   0  0  0  0  0  0  0  0  0  0  0  0  # atno 10764 bound_to 10752
  153.6141  135.3514  155.2962 H   0  0  0  0  0  0  0  0  0  0  0  0  # atno 10765 bound_to 10752
  141.0330  133.6812  156.2623 H   0  0  0  0  0  0  0  0  0  0  0  0  # atno 11005 bound_to 11000
  144.7473  140.5102  143.6826 LP  0  0  0  0  0  0  0  0  0  0  0  0  # atno 17320 bound_to 7965
  145.5754  139.1486  143.3265 LP  0  0  0  0  0  0  0  0  0  0  0  0  # atno 17321 bound_to 7965
  140.1610  143.4276  152.2067 LP  0  0  0  0  0  0  0  0  0  0  0  0  # atno 17342 bound_to 10162
  139.5522  144.7346  151.4401 LP  0  0  0  0  0  0  0  0  0  0  0  0  # atno 17343 bound_to 10162
  157.4720  131.0894  151.0632 LP  0  0  0  0  0  0  0  0  0  0  0  0  # atno 17370 bound_to 10713
  157.1089  130.6013  149.5477 LP  0  0  0  0  0  0  0  0  0  0  0  0  # atno 17371 bound_to 10713
  140.6373  134.5202  157.5566 LP  0  0  0  0  0  0  0  0  0  0  0  0  # atno 17394 bound_to 11000
  139.9221  134.8129  156.1181 LP  0  0  0  0  0  0  0  0  0  0  0  0  # atno 17395 bound_to 11000

$$$$
