AV-unprocessed.smi:3015|AV-procd|sdf|11472|dock1
  -GOLD-   2272016413D 1   1.00000     0.00000
 Structure written by MMmdl.
 23 23  0  0  0  0  0  0  0  0  1 V2000
  148.9654  142.2651  156.0746 N   0  0  0  0  0  0  0  0  0  0  0  0
  150.1612  141.4413  155.8304 C   0  0  2  0  0  0  0  0  0  0  0  0
  149.8949  140.3581  154.7676 C   0  0  0  0  0  0  0  0  0  0  0  0
  149.5309  140.9240  153.5248 O   0  0  0  0  0  0  0  0  0  0  0  0
  150.7770  140.8800  157.1285 C   0  0  0  0  0  0  0  0  0  0  0  0
  151.4755  141.9426  157.9581 C   0  0  0  0  0  0  0  0  0  0  0  0
  152.2013  141.5977  159.1171 C   0  0  0  0  0  0  0  0  0  0  0  0
  152.8305  142.6201  159.8531 C   0  0  0  0  0  0  0  0  0  0  0  0
  152.7061  143.9478  159.3976 C   0  0  0  0  0  0  0  0  0  0  0  0
  152.0133  144.2902  158.2900 N   0  0  0  0  0  0  0  0  0  0  0  0
  151.4131  143.3034  157.5902 C   0  0  0  0  0  0  0  0  0  0  0  0
  149.1731  143.2483  155.9068 H   0  0  0  0  0  0  0  0  0  0  0  0
  148.2246  142.0077  155.4239 H   0  0  0  0  0  0  0  0  0  0  0  0
  150.9127  142.0969  155.3887 H   0  0  0  0  0  0  0  0  0  0  0  0
  150.7661  139.7150  154.6360 H   0  0  0  0  0  0  0  0  0  0  0  0
  149.0764  139.7160  155.0942 H   0  0  0  0  0  0  0  0  0  0  0  0
  149.4206  140.2257  152.8976 H   0  0  0  0  0  0  0  0  0  0  0  0
  150.0125  140.3945  157.7367 H   0  0  0  0  0  0  0  0  0  0  0  0
  151.5069  140.1066  156.8859 H   0  0  0  0  0  0  0  0  0  0  0  0
  152.2736  140.5693  159.4393 H   0  0  0  0  0  0  0  0  0  0  0  0
  153.3941  142.3926  160.7456 H   0  0  0  0  0  0  0  0  0  0  0  0
  153.1763  144.7563  159.9376 H   0  0  0  0  0  0  0  0  0  0  0  0
  150.8656  143.6095  156.7109 H   0  0  0  0  0  0  0  0  0  0  0  0
  1  2  1  0  0  0  0
  1 12  1  0  0  0  0
  1 13  1  0  0  0  0
  2  3  1  0  0  0  0
  2  5  1  0  0  0  0
  2 14  1  0  0  0  0
  3  4  1  0  0  0  0
  3 15  1  0  0  0  0
  3 16  1  0  0  0  0
  4 17  1  0  0  0  0
  5  6  1  0  0  0  0
  5 18  1  0  0  0  0
  5 19  1  0  0  0  0
  6 11  1  0  0  0  0
  6  7  2  0  0  0  0
  7  8  1  0  0  0  0
  7 20  1  0  0  0  0
  8  9  2  0  0  0  0
  8 21  1  0  0  0  0
  9 10  1  0  0  0  0
  9 22  1  0  0  0  0
 10 11  2  0  0  0  0
 11 23  1  0  0  0  0
M  END
> <s_m_source_file>
AV-unprocessed.smi

> <i_m_source_file_index>
3015

> <i_lp_mmshare_version>
43012

> <i_f3d_flags>
0

> <s_epik_input>
W09IXVtDSDJdW0NAQEhdKFtOSDJdKVtDSDJdYzFbY0hdW2NIXVtjSF1uW2NIXTE=

> <s_epik_cmdline>
J2VwaWtfcHl0aG9uJywgJy1waCcsICc3LjAnLCAnLXRuJywgJzgnLCAnLW1hJywgJzIwMCcsICctbWV0YWxfYmluZGluZycsICctaW1hZScsICc8aW5maWxlLm1hZT4nLCAnLW9tYWUnLCAnPG91dGZpbGUubWFlPic=

> <r_epik_Ionization_Penalty>
2.0687

> <r_epik_Ionization_Penalty_Charging>
0

> <r_epik_Ionization_Penalty_Neutral>
2.0687

> <r_epik_State_Penalty>
2.52199

> <r_epik_Charging_Adjusted_Penalty>
2.52199

> <i_epik_Tot_Q>
0

> <i_epik_Tot_abs_Q>
0

> <r_epik_Metal_State_Penalty>
2.50694

> <b_epik_Metal_Only>
0

> <s_lp_Force_Field>
OPLS_2005

> <r_lp_Energy>
14.2307

> <b_lp_Chiralities_Consistent>
1

> <s_lp_Variant>
AV-unprocessed.smi:3015-3

> <Gold.Version>
5.8.1

> <Gold.Id.Protein>
6NUR|6NUR_protein|mol2

> <Gold.PLP.Fitness>
38.4532

> <Gold.PLP.PLP>
-27.6031

> <Gold.PLP.part.hbond>
-3.9263

> <Gold.PLP.part.metal>
0.0000

> <Gold.PLP.part.buried>
-3.5943

> <Gold.PLP.part.nonpolar>
-20.3827

> <Gold.PLP.part.repulsive>
0.0707

> <Gold.PLP.ligand.clash>
0.0000

> <Gold.PLP.ligand.torsion>
0.1850

> <Gold.PLP.Chemscore.Hbond>
2.7200

> <Gold.PLP.Chemscore.CHOScore>
1.0000

> <Gold.PLP.Chemscore.Metal>
0.0000

> <Gold.Chemscore.Hbonds>
donor molecule, donor type, donor heavy atom, donor atom, acceptor molecule, acceptor atom, score
      L1  H     1    12       P1  8028  0.98
      L1  H     4    17       P1  7957  0.72
      P1  H  8011  8017       L1     4  1.00
      L1  C    11    23       P1  8028  1.00

> <Gold.PLP.Chemscore.Internal.Correction>
0.0601

> <Gold.Rescore>
     Score         DG    S(hbond)    S(metal)    S(lipo)     H(rot)  DE(clash)    DE(int)     intcor
     16.18     -16.47       2.29        0.00      74.19       2.08       0.09       0.21       ----

> <Gold.Chemscore.Fitness>
16.1751

> <Gold.Chemscore.DG>
-16.4740

> <Gold.Chemscore.ZeroCoef>
-5.4800

> <Gold.Chemscore.Hbond>
2.2853

> <Gold.Chemscore.Metal>
0.0000

> <Gold.Chemscore.Lipo>
74.1926

> <Gold.Chemscore.Internal_Hbond>
0.0000

> <Gold.Chemscore.DEClash>
0.0906

> <Gold.Chemscore.DEInternal>
0.2083

> <Gold.Chemscore.Rot>
2.0778

> <Gold.Chemscore.Internal.Correction>
   9.000000E+99

> <Gold.Chemscore.Hbonds>
donor molecule, donor type, donor heavy atom, donor atom, acceptor molecule, acceptor atom, score
      L1  H     1    12       P1  8028  0.90
      L1  H     4    17       P1  7957  0.72
      P1  H  8011  8017       L1     4  0.25

> <Gold.Chemscore.Hbond.Weighted>
-7.6328

> <Gold.Chemscore.Metal.Weighted>
-0.0000

> <Gold.Chemscore.Lipo.Weighted>
-8.6805

> <Gold.Chemscore.Internal_Hbond.Weighted>
0.0000

> <Gold.Chemscore.DEClash.Weighted>
0.0906

> <Gold.Chemscore.DEInternal.Weighted>
0.2083

> <Gold.Chemscore.Rot.Weighted>
5.3193

> <Gold.Chemscore.Internal.Correction.Weighted>
   9.000000E+99

> <Gold.Protein.RotatedTorsions>
[ 6907 6896 6895 6894 ] final -101.59 input  -60.11 | X-H torsion
[ 7974 7965 7964 7962 ] final   -7.83 input  175.53 | X-H torsion
[ 8008 7997 7996 7995 ] final   46.70 input   59.86 | X-H torsion
[ 10167 10162 10161 10158 ] final  -55.15 input  -65.29 | X-H torsion
[ 10718 10713 10712 10709 ] final -119.68 input   66.30 | X-H torsion
[ 10763 10752 10751 10750 ] final  -60.97 input  -60.55 | X-H torsion
[ 11005 11000 10999 10996 ] final -103.17 input  -57.11 | X-H torsion

> <Gold.Protein.ActiveResidues>
 VAL166  LYS551  ARG553  GLY616  TRP617  ASP618  TYR619  PRO620  LYS621  CYS622 
 ASP623  PHE694  ASN695  SER759  ASP760  ASP761  ALA762  ILE779  LEU786  VAL792 
 PHE793  MET794  SER795  GLU796  ALA797  LYS798  CYS799  TRP800  GLU811  SER814 

> <Gold.Protein.RotatedAtoms>
  150.7161  134.0710  159.3864 H   0  0  0  0  0  0  0  0  0  0  0  0  # atno 6907 bound_to 6896
  151.8692  135.0493  160.0487 H   0  0  0  0  0  0  0  0  0  0  0  0  # atno 6908 bound_to 6896
  152.2656  133.5300  159.5444 H   0  0  0  0  0  0  0  0  0  0  0  0  # atno 6909 bound_to 6896
  146.2296  140.2378  142.8342 H   0  0  0  0  0  0  0  0  0  0  0  0  # atno 7974 bound_to 7965
  155.3568  140.3416  155.4240 H   0  0  0  0  0  0  0  0  0  0  0  0  # atno 8008 bound_to 7997
  156.1735  140.1639  156.8440 H   0  0  0  0  0  0  0  0  0  0  0  0  # atno 8009 bound_to 7997
  154.5257  140.0756  156.8237 H   0  0  0  0  0  0  0  0  0  0  0  0  # atno 8010 bound_to 7997
  140.6391  143.2498  151.5038 H   0  0  0  0  0  0  0  0  0  0  0  0  # atno 10167 bound_to 10162
  156.1199  130.6315  150.9446 H   0  0  0  0  0  0  0  0  0  0  0  0  # atno 10718 bound_to 10713
  154.2774  135.6278  153.5334 H   0  0  0  0  0  0  0  0  0  0  0  0  # atno 10763 bound_to 10752
  152.9871  135.5625  154.5533 H   0  0  0  0  0  0  0  0  0  0  0  0  # atno 10764 bound_to 10752
  154.5116  135.2877  155.1313 H   0  0  0  0  0  0  0  0  0  0  0  0  # atno 10765 bound_to 10752
  141.1157  133.8618  157.1452 H   0  0  0  0  0  0  0  0  0  0  0  0  # atno 11005 bound_to 11000
  144.9508  140.8176  143.5573 LP  0  0  0  0  0  0  0  0  0  0  0  0  # atno 17320 bound_to 7965
  145.2339  139.2102  143.5028 LP  0  0  0  0  0  0  0  0  0  0  0  0  # atno 17321 bound_to 7965
  139.5600  144.2179  152.1676 LP  0  0  0  0  0  0  0  0  0  0  0  0  # atno 17342 bound_to 10162
  140.1444  144.5172  150.6724 LP  0  0  0  0  0  0  0  0  0  0  0  0  # atno 17343 bound_to 10162
  157.6383  131.0913  150.8304 LP  0  0  0  0  0  0  0  0  0  0  0  0  # atno 17370 bound_to 10713
  156.8402  130.5045  149.5322 LP  0  0  0  0  0  0  0  0  0  0  0  0  # atno 17371 bound_to 10713
  140.0078  135.0001  157.0331 LP  0  0  0  0  0  0  0  0  0  0  0  0  # atno 17394 bound_to 11000
  140.4651  134.1444  155.7196 LP  0  0  0  0  0  0  0  0  0  0  0  0  # atno 17395 bound_to 11000

$$$$
