AV-unprocessed.smi:1805|AV-procd|sdf|7298|dock3
  -GOLD-   22720 8553D 1   1.00000     0.00000
 Structure written by MMmdl.
 29 30  0  0  0  0  0  0  0  0  1 V2000
  151.5708  141.4175  157.2690 O   0  0  0  0  0  0  0  0  0  0  0  0
  150.9131  142.3641  156.8363 C   0  0  0  0  0  0  0  0  0  0  0  0
  151.0311  143.6203  157.2892 N   0  0  0  0  0  0  0  0  0  0  0  0
  151.9366  144.0574  158.3473 C   0  0  0  0  0  0  0  0  0  0  0  0
  151.8559  143.1441  159.5822 C   0  0  1  0  0  0  0  0  0  0  0  0
  153.1257  142.3481  159.8868 C   0  0  0  0  0  0  0  0  0  0  0  0
  152.9725  142.0898  161.3679 C   0  0  0  0  0  0  0  0  0  0  0  0
  152.3712  143.4065  161.8503 C   0  0  0  0  0  0  0  0  0  0  0  0
  151.6206  143.9218  160.7532 O   0  0  0  0  0  0  0  0  0  0  0  0
  149.9889  142.2817  155.8654 N   0  0  0  0  0  0  0  0  0  0  0  0
  149.5969  141.1245  155.1458 C   0  0  0  0  0  0  0  0  0  0  0  0
  150.2393  139.8598  155.2349 C   0  0  0  0  0  0  0  0  0  0  0  0
  149.6549  138.9642  154.4517 N   0  0  0  0  0  0  0  0  0  0  0  0
  148.6443  139.6448  153.8654 N   0  0  0  0  0  0  0  0  0  0  0  0
  148.5703  140.9630  154.2579 C   0  0  0  0  0  0  0  0  0  0  0  0
  148.0197  139.2005  153.2075 H   0  0  0  0  0  0  0  0  0  0  0  0
  150.4470  144.3309  156.8735 H   0  0  0  0  0  0  0  0  0  0  0  0
  152.9642  144.1221  157.9858 H   0  0  0  0  0  0  0  0  0  0  0  0
  151.6498  145.0709  158.6282 H   0  0  0  0  0  0  0  0  0  0  0  0
  151.0172  142.4534  159.4795 H   0  0  0  0  0  0  0  0  0  0  0  0
  153.2090  141.4338  159.2987 H   0  0  0  0  0  0  0  0  0  0  0  0
  154.0143  142.9547  159.7056 H   0  0  0  0  0  0  0  0  0  0  0  0
  152.2706  141.2716  161.5346 H   0  0  0  0  0  0  0  0  0  0  0  0
  153.9122  141.8425  161.8621 H   0  0  0  0  0  0  0  0  0  0  0  0
  151.7473  143.2786  162.7351 H   0  0  0  0  0  0  0  0  0  0  0  0
  153.1606  144.1191  162.0925 H   0  0  0  0  0  0  0  0  0  0  0  0
  149.5159  143.1371  155.6133 H   0  0  0  0  0  0  0  0  0  0  0  0
  151.0927  139.5676  155.8290 H   0  0  0  0  0  0  0  0  0  0  0  0
  147.8163  141.6374  153.8799 H   0  0  0  0  0  0  0  0  0  0  0  0
  1  2  2  0  0  0  0
  2  3  1  0  0  0  0
  2 10  1  0  0  0  0
  3  4  1  0  0  0  0
  3 17  1  0  0  0  0
  4  5  1  0  0  0  0
  4 18  1  0  0  0  0
  4 19  1  0  0  0  0
  5  9  1  0  0  0  0
  5  6  1  0  0  0  0
  5 20  1  0  0  0  0
  6  7  1  0  0  0  0
  6 21  1  0  0  0  0
  6 22  1  0  0  0  0
  7  8  1  0  0  0  0
  7 23  1  0  0  0  0
  7 24  1  0  0  0  0
  8  9  1  0  0  0  0
  8 25  1  0  0  0  0
  8 26  1  0  0  0  0
 10 11  1  0  0  0  0
 10 27  1  0  0  0  0
 11 15  2  0  0  0  0
 11 12  1  0  0  0  0
 12 13  2  0  0  0  0
 12 28  1  0  0  0  0
 13 14  1  0  0  0  0
 14 16  1  0  0  0  0
 14 15  1  0  0  0  0
 15 29  1  0  0  0  0
M  END
> <s_m_source_file>
AV-unprocessed.smi

> <i_m_source_file_index>
1805

> <i_lp_mmshare_version>
43012

> <i_f3d_flags>
0

> <s_epik_input>
W2NIXTFbbkhdbltjSF1jMVtOSF1DKD1PKVtOSF1bQ0gyXVtDQEBIXTJbQ0gyXVtDSDJdW0NIMl1PMg==

> <s_epik_cmdline>
J2VwaWtfcHl0aG9uJywgJy1waCcsICc3LjAnLCAnLXRuJywgJzgnLCAnLW1hJywgJzIwMCcsICctbWV0YWxfYmluZGluZycsICctaW1hZScsICc8aW5maWxlLm1hZT4nLCAnLW9tYWUnLCAnPG91dGZpbGUubWFlPic=

> <r_lp_tautomer_probability>
1

> <r_epik_Ionization_Penalty>
4.81496e-05

> <r_epik_Ionization_Penalty_Charging>
0

> <r_epik_Ionization_Penalty_Neutral>
4.81496e-05

> <r_epik_State_Penalty>
-0

> <r_epik_Charging_Adjusted_Penalty>
0

> <i_epik_Tot_Q>
0

> <i_epik_Tot_abs_Q>
0

> <r_epik_Metal_State_Penalty>
-0

> <b_epik_Metal_Only>
0

> <s_lp_Force_Field>
OPLS_2005

> <r_lp_Energy>
19.2876

> <b_lp_Chiralities_Consistent>
1

> <s_lp_Variant>
AV-unprocessed.smi:1805-2

> <Gold.Version>
5.8.1

> <Gold.Id.Protein>
6NUR|6NUR_protein|mol2

> <Gold.PLP.Fitness>
40.7812

> <Gold.PLP.PLP>
-36.5100

> <Gold.PLP.part.hbond>
-3.0000

> <Gold.PLP.part.metal>
0.0000

> <Gold.PLP.part.buried>
-3.9913

> <Gold.PLP.part.nonpolar>
-29.6022

> <Gold.PLP.part.repulsive>
0.5704

> <Gold.PLP.ligand.clash>
0.0000

> <Gold.PLP.ligand.torsion>
0.8050

> <Gold.PLP.Chemscore.Hbond>
1.9600

> <Gold.PLP.Chemscore.CHOScore>
0.0000

> <Gold.PLP.Chemscore.Metal>
0.0000

> <Gold.Chemscore.Hbonds>
donor molecule, donor type, donor heavy atom, donor atom, acceptor molecule, acceptor atom, score
      L1  H     3    17       P1  8028  0.96
      L1  H    10    27       P1  8028  1.00

> <Gold.PLP.Chemscore.Internal.Correction>
0.0011

> <Gold.Rescore>
     Score         DG    S(hbond)    S(metal)    S(lipo)     H(rot)  DE(clash)    DE(int)     intcor
     16.16     -18.23       1.96        0.00      82.18       1.33       0.04       2.03       ----

> <Gold.Chemscore.Fitness>
16.1629

> <Gold.Chemscore.DG>
-18.2307

> <Gold.Chemscore.ZeroCoef>
-5.4800

> <Gold.Chemscore.Hbond>
1.9585

> <Gold.Chemscore.Metal>
0.0000

> <Gold.Chemscore.Lipo>
82.1833

> <Gold.Chemscore.Internal_Hbond>
0.0000

> <Gold.Chemscore.DEClash>
0.0402

> <Gold.Chemscore.DEInternal>
2.0276

> <Gold.Chemscore.Rot>
1.3306

> <Gold.Chemscore.Internal.Correction>
   9.000000E+99

> <Gold.Chemscore.Hbonds>
donor molecule, donor type, donor heavy atom, donor atom, acceptor molecule, acceptor atom, score
      L1  H     3    17       P1  8028  0.86
      L1  H    10    27       P1  8028  1.00

> <Gold.Chemscore.Hbond.Weighted>
-6.5415

> <Gold.Chemscore.Metal.Weighted>
-0.0000

> <Gold.Chemscore.Lipo.Weighted>
-9.6154

> <Gold.Chemscore.Internal_Hbond.Weighted>
0.0000

> <Gold.Chemscore.DEClash.Weighted>
0.0402

> <Gold.Chemscore.DEInternal.Weighted>
2.0276

> <Gold.Chemscore.Rot.Weighted>
3.4063

> <Gold.Chemscore.Internal.Correction.Weighted>
   9.000000E+99

> <Gold.Protein.RotatedTorsions>
[ 6907 6896 6895 6894 ] final  103.21 input  -60.11 | X-H torsion
[ 7974 7965 7964 7962 ] final   67.56 input  175.53 | X-H torsion
[ 8008 7997 7996 7995 ] final -113.20 input   59.86 | X-H torsion
[ 10167 10162 10161 10158 ] final -147.07 input  -65.29 | X-H torsion
[ 10718 10713 10712 10709 ] final  171.72 input   66.30 | X-H torsion
[ 10763 10752 10751 10750 ] final -176.53 input  -60.55 | X-H torsion
[ 11005 11000 10999 10996 ] final  117.11 input  -57.11 | X-H torsion

> <Gold.Protein.ActiveResidues>
 VAL166  LYS551  ARG553  GLY616  TRP617  ASP618  TYR619  PRO620  LYS621  CYS622 
 ASP623  PHE694  ASN695  SER759  ASP760  ASP761  ALA762  ILE779  LEU786  VAL792 
 PHE793  MET794  SER795  GLU796  ALA797  LYS798  CYS799  TRP800  GLU811  SER814 

> <Gold.Protein.RotatedAtoms>
  152.5302  133.9860  159.7828 H   0  0  0  0  0  0  0  0  0  0  0  0  # atno 6907 bound_to 6896
  151.0105  133.5962  159.2690 H   0  0  0  0  0  0  0  0  0  0  0  0  # atno 6908 bound_to 6896
  151.3038  135.0782  159.9301 H   0  0  0  0  0  0  0  0  0  0  0  0  # atno 6909 bound_to 6896
  145.8131  139.3043  143.1087 H   0  0  0  0  0  0  0  0  0  0  0  0  # atno 7974 bound_to 7965
  155.0171  140.0393  157.2422 H   0  0  0  0  0  0  0  0  0  0  0  0  # atno 8008 bound_to 7997
  154.7410  140.2749  155.6350 H   0  0  0  0  0  0  0  0  0  0  0  0  # atno 8009 bound_to 7997
  156.2864  140.2665  156.2138 H   0  0  0  0  0  0  0  0  0  0  0  0  # atno 8010 bound_to 7997
  139.7655  143.8314  152.2615 H   0  0  0  0  0  0  0  0  0  0  0  0  # atno 10167 bound_to 10162
  156.9894  131.0143  151.2860 H   0  0  0  0  0  0  0  0  0  0  0  0  # atno 10718 bound_to 10713
  154.5713  135.2828  155.0825 H   0  0  0  0  0  0  0  0  0  0  0  0  # atno 10763 bound_to 10752
  154.2196  135.6393  153.5144 H   0  0  0  0  0  0  0  0  0  0  0  0  # atno 10764 bound_to 10752
  153.0058  135.5511  154.6337 H   0  0  0  0  0  0  0  0  0  0  0  0  # atno 10765 bound_to 10752
  139.9063  134.9606  156.7300 H   0  0  0  0  0  0  0  0  0  0  0  0  # atno 11005 bound_to 11000
  145.9755  140.8725  143.0141 LP  0  0  0  0  0  0  0  0  0  0  0  0  # atno 17320 bound_to 7965
  144.6755  140.2006  143.7387 LP  0  0  0  0  0  0  0  0  0  0  0  0  # atno 17321 bound_to 7965
  139.8332  144.7244  150.9423 LP  0  0  0  0  0  0  0  0  0  0  0  0  # atno 17342 bound_to 10162
  140.7810  143.4050  151.1086 LP  0  0  0  0  0  0  0  0  0  0  0  0  # atno 17343 bound_to 10162
  157.5469  130.8156  149.8097 LP  0  0  0  0  0  0  0  0  0  0  0  0  # atno 17370 bound_to 10713
  156.0213  130.3795  150.1954 LP  0  0  0  0  0  0  0  0  0  0  0  0  # atno 17371 bound_to 10713
  140.6932  133.9371  155.7979 LP  0  0  0  0  0  0  0  0  0  0  0  0  # atno 17394 bound_to 11000
  141.0426  134.0600  157.3883 LP  0  0  0  0  0  0  0  0  0  0  0  0  # atno 17395 bound_to 11000

$$$$
