AV-unprocessed.smi:1102|AV-procd|sdf|4769|dock3
  -GOLD-   22720 3303D 1   1.00000     0.00000
 Structure written by MMmdl.
 39 40  0  0  0  0  0  0  0  0  1 V2000
  151.7803  144.2175  157.8137 C   0  0  0  0  0  0  0  0  0  0  0  0
  151.6284  144.3505  159.2570 N   0  0  0  0  0  0  0  0  0  0  0  0
  150.7089  145.3434  159.8034 C   0  0  0  0  0  0  0  0  0  0  0  0
  152.4067  143.5577  160.1314 C   0  0  0  0  0  0  0  0  0  0  0  0
  152.3528  143.7340  161.5364 C   0  0  0  0  0  0  0  0  0  0  0  0
  153.1488  142.9180  162.3627 C   0  0  0  0  0  0  0  0  0  0  0  0
  153.9877  141.9509  161.7770 C   0  0  0  0  0  0  0  0  0  0  0  0
  154.7631  141.1273  162.6372 N   0  0  0  0  0  0  0  0  0  0  0  0
  155.2457  139.8949  162.4036 C   0  0  0  0  0  0  0  0  0  0  0  0
  155.1430  139.2799  161.3425 O   0  0  0  0  0  0  0  0  0  0  0  0
  155.8834  139.4130  163.4797 N   0  0  0  0  0  0  0  0  0  0  0  0
  156.5047  138.0960  163.5666 C   0  0  0  0  0  0  0  0  0  0  0  0
  155.4639  136.9713  163.4362 C   0  0  2  0  0  0  0  0  0  0  0  0
  154.3389  137.0570  164.4668 C   0  0  0  0  0  0  0  0  0  0  0  0
  153.8790  135.6193  164.5395 C   0  0  0  0  0  0  0  0  0  0  0  0
  155.2025  134.8686  164.4375 C   0  0  0  0  0  0  0  0  0  0  0  0
  156.0577  135.6918  163.6495 O   0  0  0  0  0  0  0  0  0  0  0  0
  153.9687  141.8371  160.3672 C   0  0  0  0  0  0  0  0  0  0  0  0
  153.2060  142.6165  159.5720 N   0  0  0  0  0  0  0  0  0  0  0  0
  152.8047  144.4411  157.5141 H   0  0  0  0  0  0  0  0  0  0  0  0
  151.1210  144.9024  157.2805 H   0  0  0  0  0  0  0  0  0  0  0  0
  151.5347  143.2047  157.4933 H   0  0  0  0  0  0  0  0  0  0  0  0
  151.2506  146.0817  160.3957 H   0  0  0  0  0  0  0  0  0  0  0  0
  149.9641  144.8659  160.4410 H   0  0  0  0  0  0  0  0  0  0  0  0
  150.1788  145.8740  159.0125 H   0  0  0  0  0  0  0  0  0  0  0  0
  151.7181  144.4758  161.9966 H   0  0  0  0  0  0  0  0  0  0  0  0
  153.1147  143.0388  163.4357 H   0  0  0  0  0  0  0  0  0  0  0  0
  155.0073  141.5391  163.5259 H   0  0  0  0  0  0  0  0  0  0  0  0
  155.9261  139.9909  164.3062 H   0  0  0  0  0  0  0  0  0  0  0  0
  157.2903  137.9847  162.8172 H   0  0  0  0  0  0  0  0  0  0  0  0
  156.9948  138.0277  164.5380 H   0  0  0  0  0  0  0  0  0  0  0  0
  155.0279  136.9743  162.4357 H   0  0  0  0  0  0  0  0  0  0  0  0
  154.7266  137.3717  165.4369 H   0  0  0  0  0  0  0  0  0  0  0  0
  153.5460  137.7463  164.1751 H   0  0  0  0  0  0  0  0  0  0  0  0
  153.3261  135.3887  165.4504 H   0  0  0  0  0  0  0  0  0  0  0  0
  153.2448  135.3847  163.6835 H   0  0  0  0  0  0  0  0  0  0  0  0
  155.6513  134.7503  165.4244 H   0  0  0  0  0  0  0  0  0  0  0  0
  155.0863  133.8780  163.9976 H   0  0  0  0  0  0  0  0  0  0  0  0
  154.5527  141.0967  159.8435 H   0  0  0  0  0  0  0  0  0  0  0  0
  1  2  1  0  0  0  0
  1 20  1  0  0  0  0
  1 21  1  0  0  0  0
  1 22  1  0  0  0  0
  2  3  1  0  0  0  0
  2  4  1  0  0  0  0
  3 23  1  0  0  0  0
  3 24  1  0  0  0  0
  3 25  1  0  0  0  0
  4 19  1  0  0  0  0
  4  5  2  0  0  0  0
  5  6  1  0  0  0  0
  5 26  1  0  0  0  0
  6  7  2  0  0  0  0
  6 27  1  0  0  0  0
  7  8  1  0  0  0  0
  7 18  1  0  0  0  0
  8  9  1  0  0  0  0
  8 28  1  0  0  0  0
  9 10  2  0  0  0  0
  9 11  1  0  0  0  0
 11 12  1  0  0  0  0
 11 29  1  0  0  0  0
 12 13  1  0  0  0  0
 12 30  1  0  0  0  0
 12 31  1  0  0  0  0
 13 17  1  0  0  0  0
 13 14  1  0  0  0  0
 13 32  1  0  0  0  0
 14 15  1  0  0  0  0
 14 33  1  0  0  0  0
 14 34  1  0  0  0  0
 15 16  1  0  0  0  0
 15 35  1  0  0  0  0
 15 36  1  0  0  0  0
 16 17  1  0  0  0  0
 16 37  1  0  0  0  0
 16 38  1  0  0  0  0
 18 19  2  0  0  0  0
 18 39  1  0  0  0  0
M  END
> <s_m_source_file>
AV-unprocessed.smi

> <i_m_source_file_index>
1102

> <i_lp_mmshare_version>
43012

> <i_f3d_flags>
0

> <s_epik_input>
W0NIM11OKFtDSDNdKWMxW2NIXVtjSF1jKFtjSF1uMSlbTkhdQyg9TylbTkhdW0NIMl1bQ0BASF0yW0NIMl1bQ0gyXVtDSDJdTzI=

> <s_epik_cmdline>
J2VwaWtfcHl0aG9uJywgJy1waCcsICc3LjAnLCAnLXRuJywgJzgnLCAnLW1hJywgJzIwMCcsICctbWV0YWxfYmluZGluZycsICctaW1hZScsICc8aW5maWxlLm1hZT4nLCAnLW9tYWUnLCAnPG91dGZpbGUubWFlPic=

> <r_lp_tautomer_probability>
1

> <r_epik_Ionization_Penalty>
0.605145

> <r_epik_Ionization_Penalty_Charging>
0

> <r_epik_Ionization_Penalty_Neutral>
0.605145

> <r_epik_State_Penalty>
0.618734

> <r_epik_Charging_Adjusted_Penalty>
0.618734

> <i_epik_Tot_Q>
0

> <i_epik_Tot_abs_Q>
0

> <r_epik_Metal_State_Penalty>
0.302184

> <b_epik_Metal_Only>
0

> <s_lp_Force_Field>
OPLS_2005

> <r_lp_Energy>
22.0104

> <b_lp_Chiralities_Consistent>
1

> <s_lp_Variant>
AV-unprocessed.smi:1102-3

> <Gold.Version>
5.8.1

> <Gold.Id.Protein>
6NUR|6NUR_protein|mol2

> <Gold.PLP.Fitness>
45.5744

> <Gold.PLP.PLP>
-45.8701

> <Gold.PLP.part.hbond>
-1.0000

> <Gold.PLP.part.metal>
0.0000

> <Gold.PLP.part.buried>
-4.6848

> <Gold.PLP.part.nonpolar>
-38.4009

> <Gold.PLP.part.repulsive>
0.0205

> <Gold.PLP.ligand.clash>
0.0000

> <Gold.PLP.ligand.torsion>
0.1523

> <Gold.PLP.Chemscore.Hbond>
0.0000

> <Gold.PLP.Chemscore.CHOScore>
0.0000

> <Gold.PLP.Chemscore.Metal>
0.0000

> <Gold.PLP.Chemscore.Internal.Correction>
0.0089

> <Gold.Rescore>
     Score         DG    S(hbond)    S(metal)    S(lipo)     H(rot)  DE(clash)    DE(int)     intcor
     13.11     -14.58       0.00        0.00     104.39       1.21       0.18       1.30       ----

> <Gold.Chemscore.Fitness>
13.1085

> <Gold.Chemscore.DG>
-14.5847

> <Gold.Chemscore.ZeroCoef>
-5.4800

> <Gold.Chemscore.Hbond>
0.0000

> <Gold.Chemscore.Metal>
0.0000

> <Gold.Chemscore.Lipo>
104.3938

> <Gold.Chemscore.Internal_Hbond>
0.0000

> <Gold.Chemscore.DEClash>
0.1790

> <Gold.Chemscore.DEInternal>
1.2972

> <Gold.Chemscore.Rot>
1.2146

> <Gold.Chemscore.Internal.Correction>
   9.000000E+99

> <Gold.Chemscore.Hbond.Weighted>
-0.0000

> <Gold.Chemscore.Metal.Weighted>
-0.0000

> <Gold.Chemscore.Lipo.Weighted>
-12.2141

> <Gold.Chemscore.Internal_Hbond.Weighted>
0.0000

> <Gold.Chemscore.DEClash.Weighted>
0.1790

> <Gold.Chemscore.DEInternal.Weighted>
1.2972

> <Gold.Chemscore.Rot.Weighted>
3.1093

> <Gold.Chemscore.Internal.Correction.Weighted>
   9.000000E+99

> <Gold.Protein.RotatedTorsions>
[ 6907 6896 6895 6894 ] final  148.80 input  -60.11 | X-H torsion
[ 7974 7965 7964 7962 ] final  154.17 input  175.53 | X-H torsion
[ 8008 7997 7996 7995 ] final  161.04 input   59.86 | X-H torsion
[ 10167 10162 10161 10158 ] final  -90.53 input  -65.29 | X-H torsion
[ 10718 10713 10712 10709 ] final   69.25 input   66.30 | X-H torsion
[ 10763 10752 10751 10750 ] final    2.80 input  -60.55 | X-H torsion
[ 11005 11000 10999 10996 ] final  145.84 input  -57.11 | X-H torsion

> <Gold.Protein.ActiveResidues>
 VAL166  LYS551  ARG553  GLY616  TRP617  ASP618  TYR619  PRO620  LYS621  CYS622 
 ASP623  PHE694  ASN695  SER759  ASP760  ASP761  ALA762  ILE779  LEU786  VAL792 
 PHE793  MET794  SER795  GLU796  ALA797  LYS798  CYS799  TRP800  GLU811  SER814 

> <Gold.Protein.RotatedAtoms>
  152.1366  133.4439  159.4746 H   0  0  0  0  0  0  0  0  0  0  0  0  # atno 6907 bound_to 6896
  150.6882  134.2356  159.4461 H   0  0  0  0  0  0  0  0  0  0  0  0  # atno 6908 bound_to 6896
  152.0244  134.9804  160.0622 H   0  0  0  0  0  0  0  0  0  0  0  0  # atno 6909 bound_to 6896
  144.8106  139.6898  143.6143 H   0  0  0  0  0  0  0  0  0  0  0  0  # atno 7974 bound_to 7965
  156.2131  140.1788  156.7650 H   0  0  0  0  0  0  0  0  0  0  0  0  # atno 8008 bound_to 7997
  154.5751  140.0675  156.9052 H   0  0  0  0  0  0  0  0  0  0  0  0  # atno 8009 bound_to 7997
  155.2602  140.3335  155.4276 H   0  0  0  0  0  0  0  0  0  0  0  0  # atno 8010 bound_to 7997
  140.3540  143.2876  151.9693 H   0  0  0  0  0  0  0  0  0  0  0  0  # atno 10167 bound_to 10162
  157.6335  130.9416  150.0488 H   0  0  0  0  0  0  0  0  0  0  0  0  # atno 10718 bound_to 10713
  153.2912  135.6948  153.7291 H   0  0  0  0  0  0  0  0  0  0  0  0  # atno 10763 bound_to 10752
  153.6242  135.3422  155.3021 H   0  0  0  0  0  0  0  0  0  0  0  0  # atno 10764 bound_to 10752
  154.8524  135.4393  154.1995 H   0  0  0  0  0  0  0  0  0  0  0  0  # atno 10765 bound_to 10752
  140.0745  134.9133  157.1400 H   0  0  0  0  0  0  0  0  0  0  0  0  # atno 11005 bound_to 11000
  146.2404  139.5989  142.9495 LP  0  0  0  0  0  0  0  0  0  0  0  0  # atno 17320 bound_to 7965
  145.5333  141.0425  143.2371 LP  0  0  0  0  0  0  0  0  0  0  0  0  # atno 17321 bound_to 7965
  139.4822  144.6051  151.7535 LP  0  0  0  0  0  0  0  0  0  0  0  0  # atno 17342 bound_to 10162
  140.5192  144.0906  150.6017 LP  0  0  0  0  0  0  0  0  0  0  0  0  # atno 17343 bound_to 10162
  156.1557  130.3643  149.9373 LP  0  0  0  0  0  0  0  0  0  0  0  0  # atno 17370 bound_to 10713
  156.7383  130.9069  151.3630 LP  0  0  0  0  0  0  0  0  0  0  0  0  # atno 17371 bound_to 10713
  140.3578  134.2527  155.7190 LP  0  0  0  0  0  0  0  0  0  0  0  0  # atno 17394 bound_to 11000
  141.2024  133.7938  157.0391 LP  0  0  0  0  0  0  0  0  0  0  0  0  # atno 17395 bound_to 11000

$$$$
