AV-unprocessed.smi:2058|AV-procd|sdf|8344|dock6
  -GOLD-   2272011 13D 1   1.00000     0.00000
 Structure written by MMmdl.
 42 43  0  0  0  0  0  0  0  0  1 V2000
  144.5487  137.2059  152.8657 C   0  0  0  0  0  0  0  0  0  0  0  0
  145.5902  137.2945  151.7393 C   0  0  2  0  0  0  0  0  0  0  0  0
  145.6447  136.0356  150.8491 C   0  0  0  0  0  0  0  0  0  0  0  0
  144.5318  135.9650  149.9806 O   0  0  0  0  0  0  0  0  0  0  0  0
  146.9092  137.6062  152.2859 N   0  0  0  0  0  0  0  0  0  0  0  0
  147.1673  138.5365  153.2161 C   0  0  0  0  0  0  0  0  0  0  0  0
  146.2964  139.2292  153.7417 O   0  0  0  0  0  0  0  0  0  0  0  0
  148.4820  138.5923  153.4912 N   0  0  0  0  0  0  0  0  0  0  0  0
  149.1719  139.4510  154.3902 C   0  0  0  0  0  0  0  0  0  0  0  0
  150.5209  139.1607  154.6709 C   0  0  0  0  0  0  0  0  0  0  0  0
  151.2400  139.9979  155.5442 C   0  0  0  0  0  0  0  0  0  0  0  0
  150.5914  141.1170  156.1163 C   0  0  0  0  0  0  0  0  0  0  0  0
  151.2916  141.9688  156.9985 N   0  0  0  0  0  0  0  0  0  0  0  0
  151.6694  141.3699  158.2804 C   0  0  0  0  0  0  0  0  0  0  0  0
  152.7546  142.2028  158.9842 C   0  0  0  0  0  0  0  0  0  0  0  0
  152.3187  143.6683  159.1270 C   0  0  0  0  0  0  0  0  0  0  0  0
  151.9421  144.2402  157.7525 C   0  0  0  0  0  0  0  0  0  0  0  0
  150.8741  143.3721  157.0650 C   0  0  0  0  0  0  0  0  0  0  0  0
  149.2982  141.4070  155.8324 N   0  0  0  0  0  0  0  0  0  0  0  0
  148.6113  140.6009  154.9956 C   0  0  0  0  0  0  0  0  0  0  0  0
  143.5582  136.9891  152.4649 H   0  0  0  0  0  0  0  0  0  0  0  0
  144.4831  138.1474  153.4119 H   0  0  0  0  0  0  0  0  0  0  0  0
  144.7960  136.4240  153.5844 H   0  0  0  0  0  0  0  0  0  0  0  0
  145.2898  138.1284  151.1023 H   0  0  0  0  0  0  0  0  0  0  0  0
  146.5477  136.0535  150.2387 H   0  0  0  0  0  0  0  0  0  0  0  0
  145.6914  135.1279  151.4517 H   0  0  0  0  0  0  0  0  0  0  0  0
  144.4028  136.8153  149.5895 H   0  0  0  0  0  0  0  0  0  0  0  0
  147.6866  137.0839  151.9098 H   0  0  0  0  0  0  0  0  0  0  0  0
  149.0592  137.9114  153.0198 H   0  0  0  0  0  0  0  0  0  0  0  0
  151.0046  138.3050  154.2227 H   0  0  0  0  0  0  0  0  0  0  0  0
  152.2776  139.7830  155.7526 H   0  0  0  0  0  0  0  0  0  0  0  0
  150.7808  141.3119  158.9103 H   0  0  0  0  0  0  0  0  0  0  0  0
  152.0311  140.3498  158.1599 H   0  0  0  0  0  0  0  0  0  0  0  0
  152.9726  141.7797  159.9649 H   0  0  0  0  0  0  0  0  0  0  0  0
  153.6816  142.1515  158.4115 H   0  0  0  0  0  0  0  0  0  0  0  0
  151.4637  143.7347  159.8008 H   0  0  0  0  0  0  0  0  0  0  0  0
  153.1188  144.2581  159.5753 H   0  0  0  0  0  0  0  0  0  0  0  0
  151.5794  145.2627  157.8581 H   0  0  0  0  0  0  0  0  0  0  0  0
  152.8313  144.2902  157.1227 H   0  0  0  0  0  0  0  0  0  0  0  0
  150.6951  143.7598  156.0611 H   0  0  0  0  0  0  0  0  0  0  0  0
  149.9313  143.4393  157.6098 H   0  0  0  0  0  0  0  0  0  0  0  0
  147.5972  140.9156  154.8078 H   0  0  0  0  0  0  0  0  0  0  0  0
  1  2  1  0  0  0  0
  1 21  1  0  0  0  0
  1 22  1  0  0  0  0
  1 23  1  0  0  0  0
  2  3  1  0  0  0  0
  2  5  1  0  0  0  0
  2 24  1  0  0  0  0
  3  4  1  0  0  0  0
  3 25  1  0  0  0  0
  3 26  1  0  0  0  0
  4 27  1  0  0  0  0
  5  6  1  0  0  0  0
  5 28  1  0  0  0  0
  6  7  2  0  0  0  0
  6  8  1  0  0  0  0
  8  9  1  0  0  0  0
  8 29  1  0  0  0  0
  9 20  1  0  0  0  0
  9 10  2  0  0  0  0
 10 11  1  0  0  0  0
 10 30  1  0  0  0  0
 11 12  2  0  0  0  0
 11 31  1  0  0  0  0
 12 13  1  0  0  0  0
 12 19  1  0  0  0  0
 13 18  1  0  0  0  0
 13 14  1  0  0  0  0
 14 15  1  0  0  0  0
 14 32  1  0  0  0  0
 14 33  1  0  0  0  0
 15 16  1  0  0  0  0
 15 34  1  0  0  0  0
 15 35  1  0  0  0  0
 16 17  1  0  0  0  0
 16 36  1  0  0  0  0
 16 37  1  0  0  0  0
 17 18  1  0  0  0  0
 17 38  1  0  0  0  0
 17 39  1  0  0  0  0
 18 40  1  0  0  0  0
 18 41  1  0  0  0  0
 19 20  2  0  0  0  0
 20 42  1  0  0  0  0
M  END
> <s_m_source_file>
AV-unprocessed.smi

> <i_m_source_file_index>
2058

> <i_lp_mmshare_version>
43012

> <i_f3d_flags>
0

> <s_epik_input>
W09IXVtDSDJdW0NAQEhdKFtDSDNdKVtOSF1DKD1PKVtOSF1jMVtjSF1bY0hdYyhuW2NIXTEpTjJbQ0gyXVtDSDJdW0NIMl1bQ0gyXVtDSDJdMg==

> <s_epik_cmdline>
J2VwaWtfcHl0aG9uJywgJy1waCcsICc3LjAnLCAnLXRuJywgJzgnLCAnLW1hJywgJzIwMCcsICctbWV0YWxfYmluZGluZycsICctaW1hZScsICc8aW5maWxlLm1hZT4nLCAnLW9tYWUnLCAnPG91dGZpbGUubWFlPic=

> <r_lp_tautomer_probability>
1

> <r_epik_Ionization_Penalty>
0.104828

> <r_epik_Ionization_Penalty_Charging>
0

> <r_epik_Ionization_Penalty_Neutral>
0.104828

> <r_epik_State_Penalty>
0.0887547

> <r_epik_Charging_Adjusted_Penalty>
0.0887547

> <i_epik_Tot_Q>
0

> <i_epik_Tot_abs_Q>
0

> <r_epik_Metal_State_Penalty>
0.0759464

> <b_epik_Metal_Only>
0

> <s_lp_Force_Field>
OPLS_2005

> <r_lp_Energy>
20.4208

> <b_lp_Chiralities_Consistent>
1

> <s_lp_Variant>
AV-unprocessed.smi:2058-1

> <Gold.Version>
5.8.1

> <Gold.Id.Protein>
6NUR|6NUR_protein|mol2

> <Gold.PLP.Fitness>
45.6052

> <Gold.PLP.PLP>
-37.9691

> <Gold.PLP.part.hbond>
-4.6640

> <Gold.PLP.part.metal>
0.0000

> <Gold.PLP.part.buried>
1.0065

> <Gold.PLP.part.nonpolar>
-36.8363

> <Gold.PLP.part.repulsive>
0.4340

> <Gold.PLP.ligand.clash>
0.0000

> <Gold.PLP.ligand.torsion>
0.7170

> <Gold.PLP.Chemscore.Hbond>
2.8713

> <Gold.PLP.Chemscore.CHOScore>
0.0000

> <Gold.PLP.Chemscore.Metal>
0.0000

> <Gold.Chemscore.Hbonds>
donor molecule, donor type, donor heavy atom, donor atom, acceptor molecule, acceptor atom, score
      L1  H     4    27       P1 10171  0.98
      L1  H     5    28       P1  7948  0.94
      L1  H     8    29       P1  7948  0.86

> <Gold.PLP.Chemscore.Internal.Correction>
0.4563

> <Gold.Rescore>
     Score         DG    S(hbond)    S(metal)    S(lipo)     H(rot)  DE(clash)    DE(int)     intcor
     17.65     -20.66       2.80        0.00      94.50       2.05       0.27       2.75       ----

> <Gold.Chemscore.Fitness>
17.6473

> <Gold.Chemscore.DG>
-20.6608

> <Gold.Chemscore.ZeroCoef>
-5.4800

> <Gold.Chemscore.Hbond>
2.8025

> <Gold.Chemscore.Metal>
0.0000

> <Gold.Chemscore.Lipo>
94.4985

> <Gold.Chemscore.Internal_Hbond>
0.0000

> <Gold.Chemscore.DEClash>
0.2655

> <Gold.Chemscore.DEInternal>
2.7480

> <Gold.Chemscore.Rot>
2.0453

> <Gold.Chemscore.Internal.Correction>
   9.000000E+99

> <Gold.Chemscore.Hbonds>
donor molecule, donor type, donor heavy atom, donor atom, acceptor molecule, acceptor atom, score
      L1  H     4    27       P1 10171  0.93
      L1  H     5    28       P1  7948  0.90
      L1  H     8    29       P1  7948  0.80

> <Gold.Chemscore.Hbond.Weighted>
-9.3605

> <Gold.Chemscore.Metal.Weighted>
-0.0000

> <Gold.Chemscore.Lipo.Weighted>
-11.0563

> <Gold.Chemscore.Internal_Hbond.Weighted>
0.0000

> <Gold.Chemscore.DEClash.Weighted>
0.2655

> <Gold.Chemscore.DEInternal.Weighted>
2.7480

> <Gold.Chemscore.Rot.Weighted>
5.2360

> <Gold.Chemscore.Internal.Correction.Weighted>
   9.000000E+99

> <Gold.Protein.RotatedTorsions>
[ 6907 6896 6895 6894 ] final  -96.39 input  -60.11 | X-H torsion
[ 7974 7965 7964 7962 ] final  143.17 input  175.53 | X-H torsion
[ 8008 7997 7996 7995 ] final  -33.13 input   59.86 | X-H torsion
[ 10167 10162 10161 10158 ] final  -72.25 input  -65.29 | X-H torsion
[ 10718 10713 10712 10709 ] final  175.04 input   66.30 | X-H torsion
[ 10763 10752 10751 10750 ] final -123.89 input  -60.55 | X-H torsion
[ 11005 11000 10999 10996 ] final  152.72 input  -57.11 | X-H torsion

> <Gold.Protein.ActiveResidues>
 VAL166  LYS551  ARG553  GLY616  TRP617  ASP618  TYR619  PRO620  LYS621  CYS622 
 ASP623  PHE694  ASN695  SER759  ASP760  ASP761  ALA762  ILE779  LEU786  VAL792 
 PHE793  MET794  SER795  GLU796  ALA797  LYS798  CYS799  TRP800  GLU811  SER814 

> <Gold.Protein.RotatedAtoms>
  150.6987  134.1510  159.4140 H   0  0  0  0  0  0  0  0  0  0  0  0  # atno 6907 bound_to 6896
  151.9493  135.0174  160.0550 H   0  0  0  0  0  0  0  0  0  0  0  0  # atno 6908 bound_to 6896
  152.2025  133.4816  159.5103 H   0  0  0  0  0  0  0  0  0  0  0  0  # atno 6909 bound_to 6896
  144.8944  139.5512  143.5783 H   0  0  0  0  0  0  0  0  0  0  0  0  # atno 7974 bound_to 7965
  154.4158  140.1719  156.1839 H   0  0  0  0  0  0  0  0  0  0  0  0  # atno 8008 bound_to 7997
  155.9660  140.3389  155.6509 H   0  0  0  0  0  0  0  0  0  0  0  0  # atno 8009 bound_to 7997
  155.6688  140.0709  157.2518 H   0  0  0  0  0  0  0  0  0  0  0  0  # atno 8010 bound_to 7997
  140.5207  143.2332  151.7435 H   0  0  0  0  0  0  0  0  0  0  0  0  # atno 10167 bound_to 10162
  156.9407  131.0000  151.2969 H   0  0  0  0  0  0  0  0  0  0  0  0  # atno 10718 bound_to 10713
  154.8715  135.4082  154.3017 H   0  0  0  0  0  0  0  0  0  0  0  0  # atno 10763 bound_to 10752
  153.3875  135.7014  153.6524 H   0  0  0  0  0  0  0  0  0  0  0  0  # atno 10764 bound_to 10752
  153.5321  135.3665  155.2652 H   0  0  0  0  0  0  0  0  0  0  0  0  # atno 10765 bound_to 10752
  140.1333  134.8787  157.2233 H   0  0  0  0  0  0  0  0  0  0  0  0  # atno 11005 bound_to 11000
  146.3072  139.7622  142.9047 LP  0  0  0  0  0  0  0  0  0  0  0  0  # atno 17320 bound_to 7965
  145.3727  141.0345  143.3222 LP  0  0  0  0  0  0  0  0  0  0  0  0  # atno 17321 bound_to 7965
  139.4922  144.4259  151.9926 LP  0  0  0  0  0  0  0  0  0  0  0  0  # atno 17342 bound_to 10162
  140.3355  144.3265  150.5978 LP  0  0  0  0  0  0  0  0  0  0  0  0  # atno 17343 bound_to 10162
  157.5787  130.8361  149.8492 LP  0  0  0  0  0  0  0  0  0  0  0  0  # atno 17370 bound_to 10713
  156.0406  130.3740  150.1446 LP  0  0  0  0  0  0  0  0  0  0  0  0  # atno 17371 bound_to 10713
  140.2815  134.3345  155.7342 LP  0  0  0  0  0  0  0  0  0  0  0  0  # atno 17394 bound_to 11000
  141.2174  133.7481  156.9370 LP  0  0  0  0  0  0  0  0  0  0  0  0  # atno 17395 bound_to 11000

$$$$
