AV-unprocessed.smi:432|AV-procd|sdf|2549|dock6
  -GOLD-   2262022513D 1   1.00000     0.00000
 Structure written by MMmdl.
 31 32  0  0  0  0  0  0  0  0  1 V2000
  151.3813  141.8111  158.1153 O   0  0  0  0  0  0  0  0  0  0  0  0
  151.0146  142.4782  157.1466 C   0  0  0  0  0  0  0  0  0  0  0  0
  150.3527  141.8106  155.9315 C   0  0  0  0  0  0  0  0  0  0  0  0
  150.5132  140.3487  155.9004 N   0  0  0  0  0  0  0  0  0  0  0  0
  151.1189  139.8729  154.7506 N   0  0  0  0  0  0  0  0  0  0  0  0
  151.3226  138.6076  154.6181 C   0  0  0  0  0  0  0  0  0  0  0  0
  150.9371  137.6543  155.6350 C   0  0  0  0  0  0  0  0  0  0  0  0
  151.2389  135.9684  155.4021 Cl  0  0  0  0  0  0  0  0  0  0  0  0
  150.3384  138.1305  156.7556 C   0  0  0  0  0  0  0  0  0  0  0  0
  149.8483  137.0512  158.0165 Cl  0  0  0  0  0  0  0  0  0  0  0  0
  150.0860  139.5664  156.9394 C   0  0  0  0  0  0  0  0  0  0  0  0
  149.5394  140.0372  157.9380 O   0  0  0  0  0  0  0  0  0  0  0  0
  151.1686  143.8086  157.0704 N   0  0  0  0  0  0  0  0  0  0  0  0
  151.7538  144.6492  158.1118 C   0  0  0  0  0  0  0  0  0  0  0  0
  153.1330  144.1174  158.5495 C   0  0  0  0  0  0  0  0  0  0  0  0
  152.9330  143.5302  159.9469 C   0  0  0  0  0  0  0  0  0  0  0  0
  151.8162  144.3763  160.5496 C   0  0  0  0  0  0  0  0  0  0  0  0
  150.8734  144.6497  159.3764 C   0  0  0  0  0  0  0  0  0  0  0  0
  149.2914  142.0659  155.9124 H   0  0  0  0  0  0  0  0  0  0  0  0
  150.7763  142.2568  155.0299 H   0  0  0  0  0  0  0  0  0  0  0  0
  151.7969  138.1874  153.7311 H   0  0  0  0  0  0  0  0  0  0  0  0
  150.8436  144.2768  156.2369 H   0  0  0  0  0  0  0  0  0  0  0  0
  151.8594  145.6722  157.7457 H   0  0  0  0  0  0  0  0  0  0  0  0
  153.5585  143.3887  157.8576 H   0  0  0  0  0  0  0  0  0  0  0  0
  153.8359  144.9494  158.6072 H   0  0  0  0  0  0  0  0  0  0  0  0
  152.6052  142.4927  159.8670 H   0  0  0  0  0  0  0  0  0  0  0  0
  153.8447  143.5478  160.5447 H   0  0  0  0  0  0  0  0  0  0  0  0
  151.3168  143.8824  161.3834 H   0  0  0  0  0  0  0  0  0  0  0  0
  152.2278  145.3172  160.9173 H   0  0  0  0  0  0  0  0  0  0  0  0
  150.3327  145.5885  159.5004 H   0  0  0  0  0  0  0  0  0  0  0  0
  150.1279  143.8542  159.3281 H   0  0  0  0  0  0  0  0  0  0  0  0
  1  2  2  0  0  0  0
  2  3  1  0  0  0  0
  2 13  1  0  0  0  0
  3  4  1  0  0  0  0
  3 19  1  0  0  0  0
  3 20  1  0  0  0  0
  4 11  1  0  0  0  0
  4  5  1  0  0  0  0
  5  6  2  0  0  0  0
  6  7  1  0  0  0  0
  6 21  1  0  0  0  0
  7  8  1  0  0  0  0
  7  9  2  0  0  0  0
  9 10  1  0  0  0  0
  9 11  1  0  0  0  0
 11 12  2  0  0  0  0
 13 14  1  0  0  0  0
 13 22  1  0  0  0  0
 14 18  1  0  0  0  0
 14 15  1  0  0  0  0
 14 23  1  0  0  0  0
 15 16  1  0  0  0  0
 15 24  1  0  0  0  0
 15 25  1  0  0  0  0
 16 17  1  0  0  0  0
 16 26  1  0  0  0  0
 16 27  1  0  0  0  0
 17 18  1  0  0  0  0
 17 28  1  0  0  0  0
 17 29  1  0  0  0  0
 18 30  1  0  0  0  0
 18 31  1  0  0  0  0
M  END
> <s_m_source_file>
AV-unprocessed.smi

> <i_m_source_file_index>
432

> <i_lp_mmshare_version>
43012

> <i_f3d_flags>
0

> <s_epik_input>
W0NIMl0xW0NIMl1bQ0gyXVtDSDJdW0NIXTFbTkhdQyg9TylbQ0gyXW4ybltjSF1jKENsKWMoQ2wpYzI9Tw==

> <s_epik_cmdline>
J2VwaWtfcHl0aG9uJywgJy1waCcsICc3LjAnLCAnLXRuJywgJzgnLCAnLW1hJywgJzIwMCcsICctbWV0YWxfYmluZGluZycsICctaW1hZScsICc8aW5maWxlLm1hZT4nLCAnLW9tYWUnLCAnPG91dGZpbGUubWFlPic=

> <r_lp_tautomer_probability>
1

> <r_epik_Ionization_Penalty>
1.93318e-08

> <r_epik_Ionization_Penalty_Charging>
3.01013e-11

> <r_epik_Ionization_Penalty_Neutral>
1.93017e-08

> <r_epik_State_Penalty>
-0

> <r_epik_Charging_Adjusted_Penalty>
3.01013e-11

> <i_epik_Tot_Q>
0

> <i_epik_Tot_abs_Q>
0

> <r_epik_Metal_State_Penalty>
-0

> <b_epik_Metal_Only>
0

> <s_lp_Force_Field>
OPLS_2005

> <r_lp_Energy>
31.6968

> <b_lp_Chiralities_Consistent>
1

> <s_lp_Variant>
AV-unprocessed.smi:432-1

> <Gold.Version>
5.8.1

> <Gold.Id.Protein>
6NUR|6NUR_protein|mol2

> <Gold.PLP.Fitness>
40.9042

> <Gold.PLP.PLP>
-37.0280

> <Gold.PLP.part.hbond>
-2.0000

> <Gold.PLP.part.metal>
0.0000

> <Gold.PLP.part.buried>
-5.9391

> <Gold.PLP.part.nonpolar>
-28.9478

> <Gold.PLP.part.repulsive>
0.0920

> <Gold.PLP.ligand.clash>
0.0000

> <Gold.PLP.ligand.torsion>
0.2328

> <Gold.PLP.Chemscore.Hbond>
1.4462

> <Gold.PLP.Chemscore.CHOScore>
0.0000

> <Gold.PLP.Chemscore.Metal>
0.0000

> <Gold.Chemscore.Hbonds>
donor molecule, donor type, donor heavy atom, donor atom, acceptor molecule, acceptor atom, score
      L1  H    13    22       P1  8028  0.55
      P1  H  7989  7998       L1     5  1.00

> <Gold.PLP.Chemscore.Internal.Correction>
0.0035

> <Gold.Rescore>
     Score         DG    S(hbond)    S(metal)    S(lipo)     H(rot)  DE(clash)    DE(int)     intcor
     13.00     -17.45       1.67        0.00      88.04       1.53       0.00       4.45       ----

> <Gold.Chemscore.Fitness>
12.9952

> <Gold.Chemscore.DG>
-17.4540

> <Gold.Chemscore.ZeroCoef>
-5.4800

> <Gold.Chemscore.Hbond>
1.6741

> <Gold.Chemscore.Metal>
0.0000

> <Gold.Chemscore.Lipo>
88.0356

> <Gold.Chemscore.Internal_Hbond>
0.0000

> <Gold.Chemscore.DEClash>
0.0048

> <Gold.Chemscore.DEInternal>
4.4540

> <Gold.Chemscore.Rot>
1.5303

> <Gold.Chemscore.Internal.Correction>
   9.000000E+99

> <Gold.Chemscore.Hbonds>
donor molecule, donor type, donor heavy atom, donor atom, acceptor molecule, acceptor atom, score
      L1  H    13    22       P1  8028  0.53
      P1  H  7989  7998       L1     5  0.94

> <Gold.Chemscore.Hbond.Weighted>
-5.5915

> <Gold.Chemscore.Metal.Weighted>
-0.0000

> <Gold.Chemscore.Lipo.Weighted>
-10.3002

> <Gold.Chemscore.Internal_Hbond.Weighted>
0.0000

> <Gold.Chemscore.DEClash.Weighted>
0.0048

> <Gold.Chemscore.DEInternal.Weighted>
4.4540

> <Gold.Chemscore.Rot.Weighted>
3.9176

> <Gold.Chemscore.Internal.Correction.Weighted>
   9.000000E+99

> <Gold.Protein.RotatedTorsions>
[ 6907 6896 6895 6894 ] final  -47.44 input  -60.11 | X-H torsion
[ 7974 7965 7964 7962 ] final  -91.27 input  175.53 | X-H torsion
[ 8008 7997 7996 7995 ] final -116.97 input   59.86 | X-H torsion
[ 10167 10162 10161 10158 ] final  -45.49 input  -65.29 | X-H torsion
[ 10718 10713 10712 10709 ] final  109.25 input   66.30 | X-H torsion
[ 10763 10752 10751 10750 ] final  -20.82 input  -60.55 | X-H torsion
[ 11005 11000 10999 10996 ] final   98.27 input  -57.11 | X-H torsion

> <Gold.Protein.ActiveResidues>
 VAL166  LYS551  ARG553  GLY616  TRP617  ASP618  TYR619  PRO620  LYS621  CYS622 
 ASP623  PHE694  ASN695  SER759  ASP760  ASP761  ALA762  ILE779  LEU786  VAL792 
 PHE793  MET794  SER795  GLU796  ALA797  LYS798  CYS799  TRP800  GLU811  SER814 

> <Gold.Protein.RotatedAtoms>
  150.9008  134.8420  159.7358 H   0  0  0  0  0  0  0  0  0  0  0  0  # atno 6907 bound_to 6896
  152.4891  134.4506  159.9583 H   0  0  0  0  0  0  0  0  0  0  0  0  # atno 6908 bound_to 6896
  151.4558  133.3566  159.2837 H   0  0  0  0  0  0  0  0  0  0  0  0  # atno 6909 bound_to 6896
  145.4154  140.9548  143.2210 H   0  0  0  0  0  0  0  0  0  0  0  0  # atno 7974 bound_to 7965
  155.0762  140.0394  157.2624 H   0  0  0  0  0  0  0  0  0  0  0  0  # atno 8008 bound_to 7997
  154.6943  140.2660  155.6757 H   0  0  0  0  0  0  0  0  0  0  0  0  # atno 8009 bound_to 7997
  156.2739  140.2753  156.1532 H   0  0  0  0  0  0  0  0  0  0  0  0  # atno 8010 bound_to 7997
  140.6856  143.2877  151.3647 H   0  0  0  0  0  0  0  0  0  0  0  0  # atno 10167 bound_to 10162
  157.6550  131.0910  150.6426 H   0  0  0  0  0  0  0  0  0  0  0  0  # atno 10718 bound_to 10713
  153.6264  135.6991  153.5291 H   0  0  0  0  0  0  0  0  0  0  0  0  # atno 10763 bound_to 10752
  153.2895  135.4161  155.1153 H   0  0  0  0  0  0  0  0  0  0  0  0  # atno 10764 bound_to 10752
  154.8532  135.3622  154.5806 H   0  0  0  0  0  0  0  0  0  0  0  0  # atno 10765 bound_to 10752
  139.8773  134.9041  156.4431 H   0  0  0  0  0  0  0  0  0  0  0  0  # atno 11005 bound_to 11000
  144.8281  139.5676  143.6956 LP  0  0  0  0  0  0  0  0  0  0  0  0  # atno 17320 bound_to 7965
  146.2683  139.6574  142.9313 LP  0  0  0  0  0  0  0  0  0  0  0  0  # atno 17321 bound_to 7965
  139.6211  144.0905  152.2392 LP  0  0  0  0  0  0  0  0  0  0  0  0  # atno 17342 bound_to 10162
  140.0349  144.6052  150.7457 LP  0  0  0  0  0  0  0  0  0  0  0  0  # atno 17343 bound_to 10162
  156.6733  130.4546  149.5650 LP  0  0  0  0  0  0  0  0  0  0  0  0  # atno 17370 bound_to 10713
  156.1982  130.6603  151.1137 LP  0  0  0  0  0  0  0  0  0  0  0  0  # atno 17371 bound_to 10713
  140.8985  133.7796  155.9653 LP  0  0  0  0  0  0  0  0  0  0  0  0  # atno 17394 bound_to 11000
  140.8676  134.2765  157.5206 LP  0  0  0  0  0  0  0  0  0  0  0  0  # atno 17395 bound_to 11000

$$$$
