AV-unprocessed.smi:54|AV-procd|sdf|558|dock1
  -GOLD-   2262016463D 1   1.00000     0.00000
 Structure written by MMmdl.
 43 45  0  0  0  0  0  0  0  0  2 V2000
  152.8249  143.5204  159.8512 C   0  0  0  0  0  0  0  0  0  0  0  0
  152.6488  142.1431  160.5114 C   0  0  0  0  0  0  0  0  0  0  0  0
  153.5417  142.0037  161.7557 C   0  0  0  0  0  0  0  0  0  0  0  0
  152.9347  141.0186  159.5054 C   0  0  0  0  0  0  0  0  0  0  0  0
  153.8112  140.1918  159.7658 O   0  0  0  0  0  0  0  0  0  0  0  0
  152.1795  141.0437  158.3842 N   0  0  0  0  0  0  0  0  0  0  0  0
  152.1987  140.1877  157.2754 C   0  0  0  0  0  0  0  0  0  0  0  0
  151.1805  140.3734  156.4702 N   0  0  0  0  0  0  0  0  0  0  0  0
  151.2005  139.5210  155.3824 C   0  0  0  0  0  0  0  0  0  0  0  0
  152.1279  138.5607  155.0867 C   0  0  0  0  0  0  0  0  0  0  0  0
  151.8202  137.9063  153.9001 N   0  0  0  0  0  0  0  0  0  0  0  0
  150.6954  138.5161  153.5286 C   0  0  0  0  0  0  0  0  0  0  0  0
  150.2536  139.4791  154.3652 N   0  0  0  0  0  0  0  0  0  0  0  0
  149.0411  140.3514  154.2327 C   0  0  1  0  0  0  0  0  0  0  0  0
  148.4693  140.1296  152.9775 O   0  0  0  0  0  0  0  0  0  0  0  0
  147.4300  139.1638  153.0943 C   0  0  2  0  0  0  0  0  0  0  0  0
  146.5074  139.1829  151.8631 C   0  0  0  0  0  0  0  0  0  0  0  0
  147.1894  138.6596  150.7435 O   0  0  0  0  0  0  0  0  0  0  0  0
  146.7778  139.5674  154.4221 C   0  0  2  0  0  0  0  0  0  0  0  0
  145.8863  140.6539  154.2280 O   0  0  0  0  0  0  0  0  0  0  0  0
  147.9864  139.9438  155.2798 C   0  0  2  0  0  0  0  0  0  0  0  0
  147.7000  140.9682  156.2135 O   0  0  0  0  0  0  0  0  0  0  0  0
  153.2499  138.3987  156.0406 C   0  0  0  0  0  0  0  0  0  0  0  0
  154.1088  137.5477  155.8165 O   0  0  0  0  0  0  0  0  0  0  0  0
  153.2274  139.2368  157.1199 N   0  5  0  0  0  0  0  0  0  0  0  0
  149.4193  141.3701  154.3276 H   0  0  0  0  0  0  0  0  0  0  0  0
  147.8695  138.1719  153.2163 H   0  0  0  0  0  0  0  0  0  0  0  0
  146.2161  138.7432  154.8629 H   0  0  0  0  0  0  0  0  0  0  0  0
  148.3316  139.0611  155.8214 H   0  0  0  0  0  0  0  0  0  0  0  0
  152.1965  143.6181  158.9650 H   0  0  0  0  0  0  0  0  0  0  0  0
  153.8584  143.6911  159.5470 H   0  0  0  0  0  0  0  0  0  0  0  0
  152.5470  144.3198  160.5384 H   0  0  0  0  0  0  0  0  0  0  0  0
  151.6103  142.0594  160.8365 H   0  0  0  0  0  0  0  0  0  0  0  0
  153.4258  141.0232  162.2192 H   0  0  0  0  0  0  0  0  0  0  0  0
  153.2834  142.7520  162.5055 H   0  0  0  0  0  0  0  0  0  0  0  0
  154.5966  142.1338  161.5104 H   0  0  0  0  0  0  0  0  0  0  0  0
  151.5363  141.8192  158.3300 H   0  0  0  0  0  0  0  0  0  0  0  0
  150.1793  138.2487  152.6185 H   0  0  0  0  0  0  0  0  0  0  0  0
  145.6343  138.5538  152.0386 H   0  0  0  0  0  0  0  0  0  0  0  0
  146.1472  140.1893  151.6479 H   0  0  0  0  0  0  0  0  0  0  0  0
  148.0615  139.0234  150.7300 H   0  0  0  0  0  0  0  0  0  0  0  0
  145.3420  140.4592  153.4802 H   0  0  0  0  0  0  0  0  0  0  0  0
  148.4659  141.1013  156.7513 H   0  0  0  0  0  0  0  0  0  0  0  0
  1  2  1  0  0  0  0
  1 30  1  0  0  0  0
  1 31  1  0  0  0  0
  1 32  1  0  0  0  0
  2  3  1  0  0  0  0
  2  4  1  0  0  0  0
  2 33  1  0  0  0  0
  3 34  1  0  0  0  0
  3 35  1  0  0  0  0
  3 36  1  0  0  0  0
  4  5  2  0  0  0  0
  4  6  1  0  0  0  0
  6 37  1  0  0  0  0
  6  7  1  0  0  0  0
  7 25  1  0  0  0  0
  7  8  2  0  0  0  0
  8  9  1  0  0  0  0
  9 13  1  0  0  0  0
  9 10  2  0  0  0  0
 10 11  1  0  0  0  0
 10 23  1  0  0  0  0
 11 12  2  0  0  0  0
 12 13  1  0  0  0  0
 12 38  1  0  0  0  0
 13 14  1  0  0  0  0
 14 26  1  0  0  0  0
 14 21  1  0  0  0  0
 14 15  1  0  0  0  0
 15 16  1  0  0  0  0
 16 27  1  0  0  0  0
 16 17  1  0  0  0  0
 16 19  1  0  0  0  0
 17 18  1  0  0  0  0
 17 39  1  0  0  0  0
 17 40  1  0  0  0  0
 18 41  1  0  0  0  0
 19 28  1  0  0  0  0
 19 20  1  0  0  0  0
 19 21  1  0  0  0  0
 20 42  1  0  0  0  0
 21 29  1  0  0  0  0
 21 22  1  0  0  0  0
 22 43  1  0  0  0  0
 23 24  2  0  0  0  0
 23 25  1  0  0  0  0
M  CHG  1  25  -1
M  END
> <s_m_source_file>
AV-unprocessed.smi

> <i_m_source_file_index>
54

> <i_lp_mmshare_version>
43012

> <i_f3d_flags>
0

> <s_epik_input>
W0NIM11bQ0hdKFtDSDNdKUMoPU8pW05IXWMobjEpW25IXWMoPU8pYyhjMTIpbltjSF1uMltDQEBIXTNPW0NASF0oW0NIMl1bT0hdKVtDQEBIXShbT0hdKVtDQEhdM1tPSF0=

> <s_epik_cmdline>
J2VwaWtfcHl0aG9uJywgJy1waCcsICc3LjAnLCAnLXRuJywgJzgnLCAnLW1hJywgJzIwMCcsICctbWV0YWxfYmluZGluZycsICctaW1hZScsICc8aW5maWxlLm1hZT4nLCAnLW9tYWUnLCAnPG91dGZpbGUubWFlPic=

> <r_lp_tautomer_probability>
0.85571

> <r_epik_Ionization_Penalty>
1.75936

> <r_epik_Ionization_Penalty_Charging>
4.55893e-11

> <r_epik_Ionization_Penalty_Neutral>
1.75936

> <r_epik_State_Penalty>
1.72072

> <r_epik_Charging_Adjusted_Penalty>
1.72072

> <i_epik_Tot_Q>
-1

> <i_epik_Tot_abs_Q>
1

> <r_epik_Metal_State_Penalty>
0.400338

> <b_epik_Metal_Only>
1

> <s_epik_Chemistry_Notes>
This compound contains an acetal/aminal-like group ( X-CH(R)-Y where X, Y are N, S, or O) that may be acid/base labile, releasing an aldehyde.

> <s_lp_Force_Field>
OPLS_2005

> <r_lp_Energy>
63.0293

> <b_lp_Chiralities_Consistent>
1

> <s_lp_Variant>
AV-unprocessed.smi:54-30

> <Gold.Version>
5.8.1

> <Gold.Id.Protein>
6NUR|6NUR_protein|mol2

> <Gold.PLP.Fitness>
55.6624

> <Gold.PLP.PLP>
-38.2468

> <Gold.PLP.part.hbond>
-5.6485

> <Gold.PLP.part.metal>
0.0000

> <Gold.PLP.part.buried>
-4.0526

> <Gold.PLP.part.nonpolar>
-33.0786

> <Gold.PLP.part.repulsive>
5.0415

> <Gold.PLP.ligand.clash>
0.0000

> <Gold.PLP.ligand.torsion>
0.2543

> <Gold.PLP.Chemscore.Hbond>
4.3182

> <Gold.PLP.Chemscore.CHOScore>
1.6356

> <Gold.PLP.Chemscore.Metal>
0.0000

> <Gold.Chemscore.Hbonds>
donor molecule, donor type, donor heavy atom, donor atom, acceptor molecule, acceptor atom, score
      L1  H    18    41       P1  7957  0.65
      L1  H    20    42       P1 10175  1.00
      P1  H  7997  8010       L1    25  1.98
      P1  H 10752 10765       L1    24  0.09
      L1  C    12    38       P1  7948  0.78
      L1  C    12    38       P1  7949  0.06
      L1  C    12    38       P1  7957  0.55

> <Gold.PLP.Chemscore.Internal.Correction>
0.0625

> <Gold.Rescore>
     Score         DG    S(hbond)    S(metal)    S(lipo)     H(rot)  DE(clash)    DE(int)     intcor
      4.61      -9.14       2.05        0.00      60.64       4.02       2.87       1.67       ----

> <Gold.Chemscore.Fitness>
4.6063

> <Gold.Chemscore.DG>
-9.1428

> <Gold.Chemscore.ZeroCoef>
-5.4800

> <Gold.Chemscore.Hbond>
2.0531

> <Gold.Chemscore.Metal>
0.0000

> <Gold.Chemscore.Lipo>
60.6391

> <Gold.Chemscore.Internal_Hbond>
0.0000

> <Gold.Chemscore.DEClash>
2.8684

> <Gold.Chemscore.DEInternal>
1.6681

> <Gold.Chemscore.Rot>
4.0192

> <Gold.Chemscore.Internal.Correction>
   9.000000E+99

> <Gold.Chemscore.Hbonds>
donor molecule, donor type, donor heavy atom, donor atom, acceptor molecule, acceptor atom, score
      L1  H    18    41       P1  7957  0.06
      L1  H    20    42       P1 10175  0.95
      P1  H  7997  8010       L1    25  0.24
      P1  H 10752 10765       L1    24  0.10

> <Gold.Chemscore.Hbond.Weighted>
-6.8573

> <Gold.Chemscore.Metal.Weighted>
-0.0000

> <Gold.Chemscore.Lipo.Weighted>
-7.0948

> <Gold.Chemscore.Internal_Hbond.Weighted>
0.0000

> <Gold.Chemscore.DEClash.Weighted>
2.8684

> <Gold.Chemscore.DEInternal.Weighted>
1.6681

> <Gold.Chemscore.Rot.Weighted>
10.2893

> <Gold.Chemscore.Internal.Correction.Weighted>
   9.000000E+99

> <Gold.Protein.RotatedTorsions>
[ 6907 6896 6895 6894 ] final  -37.55 input  -60.11 | X-H torsion
[ 7974 7965 7964 7962 ] final -123.47 input  175.53 | X-H torsion
[ 8008 7997 7996 7995 ] final   34.16 input   59.86 | X-H torsion
[ 10167 10162 10161 10158 ] final  107.29 input  -65.29 | X-H torsion
[ 10718 10713 10712 10709 ] final  131.64 input   66.30 | X-H torsion
[ 10763 10752 10751 10750 ] final -113.79 input  -60.55 | X-H torsion
[ 11005 11000 10999 10996 ] final   44.77 input  -57.11 | X-H torsion

> <Gold.Protein.ActiveResidues>
 VAL166  LYS551  ARG553  GLY616  TRP617  ASP618  TYR619  PRO620  LYS621  CYS622 
 ASP623  PHE694  ASN695  SER759  ASP760  ASP761  ALA762  ILE779  LEU786  VAL792 
 PHE793  MET794  SER795  GLU796  ALA797  LYS798  CYS799  TRP800  GLU811  SER814 

> <Gold.Protein.RotatedAtoms>
  151.0134  134.9414  159.8019 H   0  0  0  0  0  0  0  0  0  0  0  0  # atno 6907 bound_to 6896
  152.5308  134.2998  159.9084 H   0  0  0  0  0  0  0  0  0  0  0  0  # atno 6908 bound_to 6896
  151.3005  133.4083  159.2673 H   0  0  0  0  0  0  0  0  0  0  0  0  # atno 6909 bound_to 6896
  145.0183  140.7966  143.4396 H   0  0  0  0  0  0  0  0  0  0  0  0  # atno 7974 bound_to 7965
  155.1504  140.3274  155.4432 H   0  0  0  0  0  0  0  0  0  0  0  0  # atno 8008 bound_to 7997
  156.2576  140.1978  156.6566 H   0  0  0  0  0  0  0  0  0  0  0  0  # atno 8009 bound_to 7997
  154.6477  140.0562  156.9906 H   0  0  0  0  0  0  0  0  0  0  0  0  # atno 8010 bound_to 7997
  139.6939  144.7104  151.1301 H   0  0  0  0  0  0  0  0  0  0  0  0  # atno 10167 bound_to 10162
  157.4948  131.1092  150.9508 H   0  0  0  0  0  0  0  0  0  0  0  0  # atno 10718 bound_to 10713
  154.8412  135.4441  154.1404 H   0  0  0  0  0  0  0  0  0  0  0  0  # atno 10763 bound_to 10752
  153.2591  135.6934  153.7604 H   0  0  0  0  0  0  0  0  0  0  0  0  # atno 10764 bound_to 10752
  153.6887  135.3391  155.3172 H   0  0  0  0  0  0  0  0  0  0  0  0  # atno 10765 bound_to 10752
  140.1521  134.4448  155.8374 H   0  0  0  0  0  0  0  0  0  0  0  0  # atno 11005 bound_to 11000
  145.1930  139.2291  143.5233 LP  0  0  0  0  0  0  0  0  0  0  0  0  # atno 17320 bound_to 7965
  146.3481  140.1730  142.8589 LP  0  0  0  0  0  0  0  0  0  0  0  0  # atno 17321 bound_to 7965
  140.7690  143.5520  150.9194 LP  0  0  0  0  0  0  0  0  0  0  0  0  # atno 17342 bound_to 10162
  139.9199  143.6619  152.3099 LP  0  0  0  0  0  0  0  0  0  0  0  0  # atno 17343 bound_to 10162
  157.0198  130.5669  149.5330 LP  0  0  0  0  0  0  0  0  0  0  0  0  # atno 17370 bound_to 10713
  156.0194  130.5289  150.8231 LP  0  0  0  0  0  0  0  0  0  0  0  0  # atno 17371 bound_to 10713
  141.2200  133.6877  156.7441 LP  0  0  0  0  0  0  0  0  0  0  0  0  # atno 17394 bound_to 11000
  140.2591  134.8480  157.3742 LP  0  0  0  0  0  0  0  0  0  0  0  0  # atno 17395 bound_to 11000

$$$$
