AV-unprocessed.smi:2855|AV-procd|sdf|10979|dock10
  -GOLD-   2272015433D 1   1.00000     0.00000
 Structure written by MMmdl.
 47 48  0  0  0  0  0  0  0  0  1 V2000
  149.1800  139.6199  156.2083 C   0  0  0  0  0  0  0  0  0  0  0  0
  148.7497  139.9223  154.7618 C   0  0  2  0  0  0  0  0  0  0  0  0
  148.7395  141.4296  154.4480 C   0  0  0  0  0  0  0  0  0  0  0  0
  147.5605  142.1602  155.1121 C   0  0  0  0  0  0  0  0  0  0  0  0
  146.1990  141.5343  154.7268 C   0  0  2  0  0  0  0  0  0  0  0  0
  144.9763  142.3060  155.3104 C   0  0  0  0  0  0  0  0  0  0  0  0
  144.7832  143.6842  154.6548 C   0  0  0  0  0  0  0  0  0  0  0  0
  144.9826  142.4286  156.8453 C   0  0  0  0  0  0  0  0  0  0  0  0
  146.1986  140.0170  155.0580 C   0  0  1  0  0  0  0  0  0  0  0  0
  144.9540  139.3960  154.6113 N   0  0  0  0  0  0  0  0  0  0  0  0
  144.2340  138.5002  155.3032 C   0  0  0  0  0  0  0  0  0  0  0  0
  144.5838  138.0443  156.3925 O   0  0  0  0  0  0  0  0  0  0  0  0
  142.9231  138.0411  154.6510 C   0  0  0  0  0  0  0  0  0  0  0  0
  143.1012  136.8613  153.7927 N   0  0  0  0  0  0  0  0  0  0  0  0
  143.6383  136.9925  152.5198 C   0  0  0  0  0  0  0  0  0  0  0  0
  143.8342  135.9467  151.6821 C   0  0  0  0  0  0  0  0  0  0  0  0
  143.4789  134.5931  152.0946 C   0  0  0  0  0  0  0  0  0  0  0  0
  143.6165  133.5831  151.4078 O   0  0  0  0  0  0  0  0  0  0  0  0
  142.9444  134.5019  153.3823 N   0  0  0  0  0  0  0  0  0  0  0  0
  142.7405  135.5750  154.2512 C   0  0  0  0  0  0  0  0  0  0  0  0
  142.2642  135.3836  155.3699 O   0  0  0  0  0  0  0  0  0  0  0  0
  147.3916  139.2914  154.4007 C   0  0  0  0  0  0  0  0  0  0  0  0
  142.6865  133.5833  153.7128 H   0  0  0  0  0  0  0  0  0  0  0  0
  148.4916  140.0410  156.9404 H   0  0  0  0  0  0  0  0  0  0  0  0
  150.1690  140.0298  156.4144 H   0  0  0  0  0  0  0  0  0  0  0  0
  149.2293  138.5451  156.3843 H   0  0  0  0  0  0  0  0  0  0  0  0
  149.5012  139.4626  154.1188 H   0  0  0  0  0  0  0  0  0  0  0  0
  149.6814  141.8846  154.7562 H   0  0  0  0  0  0  0  0  0  0  0  0
  148.6773  141.5689  153.3679 H   0  0  0  0  0  0  0  0  0  0  0  0
  147.6906  142.1463  156.1937 H   0  0  0  0  0  0  0  0  0  0  0  0
  147.5966  143.2077  154.8153 H   0  0  0  0  0  0  0  0  0  0  0  0
  146.1183  141.6123  153.6410 H   0  0  0  0  0  0  0  0  0  0  0  0
  144.0790  141.7435  155.0519 H   0  0  0  0  0  0  0  0  0  0  0  0
  145.5725  144.3822  154.9329 H   0  0  0  0  0  0  0  0  0  0  0  0
  143.8360  144.1296  154.9603 H   0  0  0  0  0  0  0  0  0  0  0  0
  144.7700  143.6068  153.5675 H   0  0  0  0  0  0  0  0  0  0  0  0
  145.8331  143.0087  157.2026 H   0  0  0  0  0  0  0  0  0  0  0  0
  145.0118  141.4530  157.3298 H   0  0  0  0  0  0  0  0  0  0  0  0
  144.0792  142.9285  157.1955 H   0  0  0  0  0  0  0  0  0  0  0  0
  146.2896  139.9042  156.1387 H   0  0  0  0  0  0  0  0  0  0  0  0
  144.5914  139.7027  153.7204 H   0  0  0  0  0  0  0  0  0  0  0  0
  142.1740  137.8302  155.4175 H   0  0  0  0  0  0  0  0  0  0  0  0
  142.5219  138.8772  154.0766 H   0  0  0  0  0  0  0  0  0  0  0  0
  143.9207  137.9763  152.1728 H   0  0  0  0  0  0  0  0  0  0  0  0
  144.2574  136.1124  150.7018 H   0  0  0  0  0  0  0  0  0  0  0  0
  147.2707  139.3165  153.3166 H   0  0  0  0  0  0  0  0  0  0  0  0
  147.3891  138.2364  154.6782 H   0  0  0  0  0  0  0  0  0  0  0  0
  1  2  1  0  0  0  0
  1 24  1  0  0  0  0
  1 25  1  0  0  0  0
  1 26  1  0  0  0  0
  2 22  1  0  0  0  0
  2  3  1  0  0  0  0
  2 27  1  0  0  0  0
  3  4  1  0  0  0  0
  3 28  1  0  0  0  0
  3 29  1  0  0  0  0
  4  5  1  0  0  0  0
  4 30  1  0  0  0  0
  4 31  1  0  0  0  0
  5  6  1  0  0  0  0
  5  9  1  0  0  0  0
  5 32  1  0  0  0  0
  6  7  1  0  0  0  0
  6  8  1  0  0  0  0
  6 33  1  0  0  0  0
  7 34  1  0  0  0  0
  7 35  1  0  0  0  0
  7 36  1  0  0  0  0
  8 37  1  0  0  0  0
  8 38  1  0  0  0  0
  8 39  1  0  0  0  0
  9 10  1  0  0  0  0
  9 22  1  0  0  0  0
  9 40  1  0  0  0  0
 10 11  1  0  0  0  0
 10 41  1  0  0  0  0
 11 12  2  0  0  0  0
 11 13  1  0  0  0  0
 13 14  1  0  0  0  0
 13 42  1  0  0  0  0
 13 43  1  0  0  0  0
 14 20  1  0  0  0  0
 14 15  1  0  0  0  0
 15 16  2  0  0  0  0
 15 44  1  0  0  0  0
 16 17  1  0  0  0  0
 16 45  1  0  0  0  0
 17 18  2  0  0  0  0
 17 19  1  0  0  0  0
 19 23  1  0  0  0  0
 19 20  1  0  0  0  0
 20 21  2  0  0  0  0
 22 46  1  0  0  0  0
 22 47  1  0  0  0  0
M  END
> <s_m_source_file>
AV-unprocessed.smi

> <i_m_source_file_index>
2855

> <i_lp_mmshare_version>
43012

> <i_f3d_flags>
0

> <s_epik_input>
W0NIM11bQ0BASF0xW0NIMl1bQ0gyXVtDQEBIXShbQ0hdKFtDSDNdKVtDSDNdKVtDQEhdKFtDSDJdMSlbTkhdQyg9TylbQ0gyXW4yW2NIXVtjSF1jKD1PKVtuSF1jMj1P

> <s_epik_cmdline>
J2VwaWtfcHl0aG9uJywgJy1waCcsICc3LjAnLCAnLXRuJywgJzgnLCAnLW1hJywgJzIwMCcsICctbWV0YWxfYmluZGluZycsICctaW1hZScsICc8aW5maWxlLm1hZT4nLCAnLW9tYWUnLCAnPG91dGZpbGUubWFlPic=

> <r_lp_tautomer_probability>
0.999537

> <r_epik_Ionization_Penalty>
0.00306256

> <r_epik_Ionization_Penalty_Charging>
0.00306254

> <r_epik_Ionization_Penalty_Neutral>
2.0223e-08

> <r_epik_State_Penalty>
0.0021533

> <r_epik_Charging_Adjusted_Penalty>
0.00521583

> <i_epik_Tot_Q>
0

> <i_epik_Tot_abs_Q>
0

> <r_epik_Metal_State_Penalty>
0.362116

> <b_epik_Metal_Only>
0

> <s_lp_Force_Field>
OPLS_2005

> <r_lp_Energy>
15.7359

> <b_lp_Chiralities_Consistent>
1

> <s_lp_Variant>
AV-unprocessed.smi:2855-3

> <Gold.Version>
5.8.1

> <Gold.Id.Protein>
6NUR|6NUR_protein|mol2

> <Gold.PLP.Fitness>
38.5135

> <Gold.PLP.PLP>
-28.5487

> <Gold.PLP.part.hbond>
-3.0000

> <Gold.PLP.part.metal>
0.0000

> <Gold.PLP.part.buried>
-0.8234

> <Gold.PLP.part.nonpolar>
-24.6440

> <Gold.PLP.part.repulsive>
0.2765

> <Gold.PLP.ligand.clash>
0.0000

> <Gold.PLP.ligand.torsion>
0.9946

> <Gold.PLP.Chemscore.Hbond>
2.0598

> <Gold.PLP.Chemscore.CHOScore>
1.9037

> <Gold.PLP.Chemscore.Metal>
0.0000

> <Gold.Chemscore.Hbonds>
donor molecule, donor type, donor heavy atom, donor atom, acceptor molecule, acceptor atom, score
      L1  H    10    41       P1 10175  1.00
      L1  H    19    23       P1 10957  0.81
      P1  H 11000 11005       L1    21  0.13
      L1  C    15    44       P1 10171  0.85
      L1  C    15    44       P1 10175  1.00

> <Gold.PLP.Chemscore.Internal.Correction>
0.0634

> <Gold.Rescore>
     Score         DG    S(hbond)    S(metal)    S(lipo)     H(rot)  DE(clash)    DE(int)     intcor
     13.57     -14.60       2.17        0.00      56.67       1.85       0.25       0.78       ----

> <Gold.Chemscore.Fitness>
13.5698

> <Gold.Chemscore.DG>
-14.5963

> <Gold.Chemscore.ZeroCoef>
-5.4800

> <Gold.Chemscore.Hbond>
2.1653

> <Gold.Chemscore.Metal>
0.0000

> <Gold.Chemscore.Lipo>
56.6682

> <Gold.Chemscore.Internal_Hbond>
0.0000

> <Gold.Chemscore.DEClash>
0.2483

> <Gold.Chemscore.DEInternal>
0.7782

> <Gold.Chemscore.Rot>
1.8539

> <Gold.Chemscore.Internal.Correction>
   9.000000E+99

> <Gold.Chemscore.Hbonds>
donor molecule, donor type, donor heavy atom, donor atom, acceptor molecule, acceptor atom, score
      L1  H    10    41       P1 10175  1.00
      L1  H    19    23       P1 10957  0.80
      P1  H 11000 11005       L1    21  0.14

> <Gold.Chemscore.Hbond.Weighted>
-7.2321

> <Gold.Chemscore.Metal.Weighted>
-0.0000

> <Gold.Chemscore.Lipo.Weighted>
-6.6302

> <Gold.Chemscore.Internal_Hbond.Weighted>
0.0000

> <Gold.Chemscore.DEClash.Weighted>
0.2483

> <Gold.Chemscore.DEInternal.Weighted>
0.7782

> <Gold.Chemscore.Rot.Weighted>
4.7460

> <Gold.Chemscore.Internal.Correction.Weighted>
   9.000000E+99

> <Gold.Protein.RotatedTorsions>
[ 6907 6896 6895 6894 ] final   53.40 input  -60.11 | X-H torsion
[ 7974 7965 7964 7962 ] final   61.94 input  175.53 | X-H torsion
[ 8008 7997 7996 7995 ] final -118.95 input   59.86 | X-H torsion
[ 10167 10162 10161 10158 ] final  141.63 input  -65.29 | X-H torsion
[ 10718 10713 10712 10709 ] final  -59.62 input   66.30 | X-H torsion
[ 10763 10752 10751 10750 ] final  165.46 input  -60.55 | X-H torsion
[ 11005 11000 10999 10996 ] final  -18.70 input  -57.11 | X-H torsion

> <Gold.Protein.ActiveResidues>
 VAL166  LYS551  ARG553  GLY616  TRP617  ASP618  TYR619  PRO620  LYS621  CYS622 
 ASP623  PHE694  ASN695  SER759  ASP760  ASP761  ALA762  ILE779  LEU786  VAL792 
 PHE793  MET794  SER795  GLU796  ALA797  LYS798  CYS799  TRP800  GLU811  SER814 

> <Gold.Protein.RotatedAtoms>
  152.3333  134.7231  160.0283 H   0  0  0  0  0  0  0  0  0  0  0  0  # atno 6907 bound_to 6896
  151.7641  133.3330  159.3434 H   0  0  0  0  0  0  0  0  0  0  0  0  # atno 6908 bound_to 6896
  150.7435  134.6011  159.6081 H   0  0  0  0  0  0  0  0  0  0  0  0  # atno 6909 bound_to 6896
  145.8791  139.3430  143.0717 H   0  0  0  0  0  0  0  0  0  0  0  0  # atno 7974 bound_to 7965
  155.1078  140.0397  157.2715 H   0  0  0  0  0  0  0  0  0  0  0  0  # atno 8008 bound_to 7997
  154.6708  140.2612  155.6983 H   0  0  0  0  0  0  0  0  0  0  0  0  # atno 8009 bound_to 7997
  156.2657  140.2798  156.1216 H   0  0  0  0  0  0  0  0  0  0  0  0  # atno 8010 bound_to 7997
  139.5015  144.6159  151.6164 H   0  0  0  0  0  0  0  0  0  0  0  0  # atno 10167 bound_to 10162
  156.1048  130.4182  150.0741 H   0  0  0  0  0  0  0  0  0  0  0  0  # atno 10718 bound_to 10713
  154.3243  135.2755  155.2504 H   0  0  0  0  0  0  0  0  0  0  0  0  # atno 10763 bound_to 10752
  154.4843  135.5850  153.6416 H   0  0  0  0  0  0  0  0  0  0  0  0  # atno 10764 bound_to 10752
  152.9873  135.6119  154.3431 H   0  0  0  0  0  0  0  0  0  0  0  0  # atno 10765 bound_to 10752
  140.8294  133.8008  155.9743 H   0  0  0  0  0  0  0  0  0  0  0  0  # atno 11005 bound_to 11000
  145.9046  140.9221  143.0485 LP  0  0  0  0  0  0  0  0  0  0  0  0  # atno 17320 bound_to 7965
  144.6727  140.1078  143.7457 LP  0  0  0  0  0  0  0  0  0  0  0  0  # atno 17321 bound_to 7965
  140.5847  143.9885  150.6288 LP  0  0  0  0  0  0  0  0  0  0  0  0  # atno 17342 bound_to 10162
  140.3045  143.3238  152.0939 LP  0  0  0  0  0  0  0  0  0  0  0  0  # atno 17343 bound_to 10162
  156.8719  130.9527  151.3608 LP  0  0  0  0  0  0  0  0  0  0  0  0  # atno 17370 bound_to 10713
  157.6224  130.8665  149.9130 LP  0  0  0  0  0  0  0  0  0  0  0  0  # atno 17371 bound_to 10713
  140.9014  134.2373  157.5039 LP  0  0  0  0  0  0  0  0  0  0  0  0  # atno 17394 bound_to 11000
  139.8705  134.9708  156.4715 LP  0  0  0  0  0  0  0  0  0  0  0  0  # atno 17395 bound_to 11000

$$$$
