AV-unprocessed.smi:2768|AV-procd|sdf|10655|dock2
  -GOLD-   2272015103D 1   1.00000     0.00000
 Structure written by MMmdl.
 34 35  0  0  0  0  0  0  0  0  2 V2000
  154.7496  139.3389  160.6803 O   0  0  0  0  0  0  0  0  0  0  0  0
  153.9128  139.1136  159.7981 C   0  0  0  0  0  0  0  0  0  0  0  0
  153.4747  139.9188  158.7874 N   0  5  0  0  0  0  0  0  0  0  0  0
  152.6393  141.1059  158.9833 C   0  0  1  0  0  0  0  0  0  0  0  0
  153.4608  142.2213  159.6793 C   0  0  0  0  0  0  0  0  0  0  0  0
  152.6999  143.5664  159.7910 C   0  0  0  0  0  0  0  0  0  0  0  0
  152.2114  144.0855  158.4226 C   0  0  0  0  0  0  0  0  0  0  0  0
  151.3792  142.9905  157.7235 C   0  0  0  0  0  0  0  0  0  0  0  0
  152.1402  141.6427  157.6138 C   0  0  2  0  0  0  0  0  0  0  0  0
  151.2843  140.6895  157.0165 O   0  0  0  0  0  0  0  0  0  0  0  0
  153.2433  137.7226  159.7708 C   0  0  0  0  0  0  0  0  0  0  0  0
  151.9188  137.8906  159.8010 F   0  0  0  0  0  0  0  0  0  0  0  0
  153.5348  137.0826  158.6324 F   0  0  0  0  0  0  0  0  0  0  0  0
  153.6734  136.8983  160.9830 C   0  0  0  0  0  0  0  0  0  0  0  0
  153.5628  137.4251  162.2906 C   0  0  0  0  0  0  0  0  0  0  0  0
  153.9802  136.6327  163.3771 C   0  0  0  0  0  0  0  0  0  0  0  0
  154.4923  135.3466  163.1219 C   0  0  0  0  0  0  0  0  0  0  0  0
  154.5673  134.9102  161.7846 C   0  0  0  0  0  0  0  0  0  0  0  0
  154.1691  135.6615  160.7364 N   0  0  0  0  0  0  0  0  0  0  0  0
  151.7655  140.8926  159.6021 H   0  0  0  0  0  0  0  0  0  0  0  0
  152.9958  141.7818  156.9509 H   0  0  0  0  0  0  0  0  0  0  0  0
  153.7586  141.8931  160.6759 H   0  0  0  0  0  0  0  0  0  0  0  0
  154.3873  142.3900  159.1278 H   0  0  0  0  0  0  0  0  0  0  0  0
  151.8474  143.4600  160.4649 H   0  0  0  0  0  0  0  0  0  0  0  0
  153.3495  144.3122  160.2497 H   0  0  0  0  0  0  0  0  0  0  0  0
  151.6207  144.9933  158.5468 H   0  0  0  0  0  0  0  0  0  0  0  0
  153.0686  144.3479  157.8012 H   0  0  0  0  0  0  0  0  0  0  0  0
  150.4405  142.8532  158.2651 H   0  0  0  0  0  0  0  0  0  0  0  0
  151.0995  143.3346  156.7270 H   0  0  0  0  0  0  0  0  0  0  0  0
  151.7894  139.9012  156.8816 H   0  0  0  0  0  0  0  0  0  0  0  0
  153.1727  138.4183  162.4568 H   0  0  0  0  0  0  0  0  0  0  0  0
  153.9099  137.0055  164.3884 H   0  0  0  0  0  0  0  0  0  0  0  0
  154.8210  134.7106  163.9305 H   0  0  0  0  0  0  0  0  0  0  0  0
  154.9555  133.9300  161.5507 H   0  0  0  0  0  0  0  0  0  0  0  0
  1  2  2  0  0  0  0
  2  3  1  0  0  0  0
  2 11  1  0  0  0  0
  3  4  1  0  0  0  0
  4 20  1  0  0  0  0
  4  9  1  0  0  0  0
  4  5  1  0  0  0  0
  5  6  1  0  0  0  0
  5 22  1  0  0  0  0
  5 23  1  0  0  0  0
  6  7  1  0  0  0  0
  6 24  1  0  0  0  0
  6 25  1  0  0  0  0
  7  8  1  0  0  0  0
  7 26  1  0  0  0  0
  7 27  1  0  0  0  0
  8  9  1  0  0  0  0
  8 28  1  0  0  0  0
  8 29  1  0  0  0  0
  9 21  1  0  0  0  0
  9 10  1  0  0  0  0
 10 30  1  0  0  0  0
 11 12  1  0  0  0  0
 11 13  1  0  0  0  0
 11 14  1  0  0  0  0
 14 19  1  0  0  0  0
 14 15  2  0  0  0  0
 15 16  1  0  0  0  0
 15 31  1  0  0  0  0
 16 17  2  0  0  0  0
 16 32  1  0  0  0  0
 17 18  1  0  0  0  0
 17 33  1  0  0  0  0
 18 19  2  0  0  0  0
 18 34  1  0  0  0  0
M  CHG  1   3  -1
M  END
> <s_m_source_file>
AV-unprocessed.smi

> <i_m_source_file_index>
2768

> <i_lp_mmshare_version>
43012

> <i_f3d_flags>
0

> <s_epik_input>
bjFbY0hdW2NIXVtjSF1bY0hdYzFDKEYpKEYpQyg9TylbTkhdW0NAQEhdMltDSDJdW0NIMl1bQ0gyXVtDSDJdW0NASF0yW09IXQ==

> <s_epik_cmdline>
J2VwaWtfcHl0aG9uJywgJy1waCcsICc3LjAnLCAnLXRuJywgJzgnLCAnLW1hJywgJzIwMCcsICctbWV0YWxfYmluZGluZycsICctaW1hZScsICc8aW5maWxlLm1hZT4nLCAnLW9tYWUnLCAnPG91dGZpbGUubWFlPic=

> <r_lp_tautomer_probability>
1

> <r_epik_Ionization_Penalty>
5.70553

> <r_epik_Ionization_Penalty_Charging>
5.70553

> <r_epik_Ionization_Penalty_Neutral>
5.5493e-06

> <r_epik_State_Penalty>
5.70549

> <r_epik_Charging_Adjusted_Penalty>
11.411

> <i_epik_Tot_Q>
-1

> <i_epik_Tot_abs_Q>
1

> <r_epik_Metal_State_Penalty>
1.6859

> <b_epik_Metal_Only>
1

> <s_lp_Force_Field>
OPLS_2005

> <r_lp_Energy>
26.4517

> <b_lp_Chiralities_Consistent>
1

> <s_lp_Variant>
AV-unprocessed.smi:2768-8

> <Gold.Version>
5.8.1

> <Gold.Id.Protein>
6NUR|6NUR_protein|mol2

> <Gold.PLP.Fitness>
42.3703

> <Gold.PLP.PLP>
-35.2215

> <Gold.PLP.part.hbond>
-2.0000

> <Gold.PLP.part.metal>
0.0000

> <Gold.PLP.part.buried>
-4.7180

> <Gold.PLP.part.nonpolar>
-28.3720

> <Gold.PLP.part.repulsive>
0.0000

> <Gold.PLP.ligand.clash>
0.0038

> <Gold.PLP.ligand.torsion>
0.9313

> <Gold.PLP.Chemscore.Hbond>
2.9913

> <Gold.PLP.Chemscore.CHOScore>
0.0000

> <Gold.PLP.Chemscore.Metal>
0.0000

> <Gold.Chemscore.Hbonds>
donor molecule, donor type, donor heavy atom, donor atom, acceptor molecule, acceptor atom, score
      P1  H  6896  6909       L1    19  0.72
      P1  H  7997  8008       L1     3  1.85

> <Gold.PLP.Chemscore.Internal.Correction>
0.0415

> <Gold.Rescore>
     Score         DG    S(hbond)    S(metal)    S(lipo)     H(rot)  DE(clash)    DE(int)     intcor
     13.28     -14.87       0.79        0.00     100.22       1.95       0.12       1.46       ----

> <Gold.Chemscore.Fitness>
13.2845

> <Gold.Chemscore.DG>
-14.8669

> <Gold.Chemscore.ZeroCoef>
-5.4800

> <Gold.Chemscore.Hbond>
0.7945

> <Gold.Chemscore.Metal>
0.0000

> <Gold.Chemscore.Lipo>
100.2216

> <Gold.Chemscore.Internal_Hbond>
0.0000

> <Gold.Chemscore.DEClash>
0.1214

> <Gold.Chemscore.DEInternal>
1.4609

> <Gold.Chemscore.Rot>
1.9503

> <Gold.Chemscore.Internal.Correction>
   9.000000E+99

> <Gold.Chemscore.Hbonds>
donor molecule, donor type, donor heavy atom, donor atom, acceptor molecule, acceptor atom, score
      P1  H  6896  6909       L1    19  0.07
      P1  H  7997  8008       L1     3  0.69

> <Gold.Chemscore.Hbond.Weighted>
-2.6537

> <Gold.Chemscore.Metal.Weighted>
-0.0000

> <Gold.Chemscore.Lipo.Weighted>
-11.7259

> <Gold.Chemscore.Internal_Hbond.Weighted>
0.0000

> <Gold.Chemscore.DEClash.Weighted>
0.1214

> <Gold.Chemscore.DEInternal.Weighted>
1.4609

> <Gold.Chemscore.Rot.Weighted>
4.9928

> <Gold.Chemscore.Internal.Correction.Weighted>
   9.000000E+99

> <Gold.Protein.RotatedTorsions>
[ 6907 6896 6895 6894 ] final  171.81 input  -60.11 | X-H torsion
[ 7974 7965 7964 7962 ] final  148.92 input  175.53 | X-H torsion
[ 8008 7997 7996 7995 ] final  -93.10 input   59.86 | X-H torsion
[ 10167 10162 10161 10158 ] final   49.15 input  -65.29 | X-H torsion
[ 10718 10713 10712 10709 ] final -101.38 input   66.30 | X-H torsion
[ 10763 10752 10751 10750 ] final  -19.76 input  -60.55 | X-H torsion
[ 11005 11000 10999 10996 ] final  -44.45 input  -57.11 | X-H torsion

> <Gold.Protein.ActiveResidues>
 VAL166  LYS551  ARG553  GLY616  TRP617  ASP618  TYR619  PRO620  LYS621  CYS622 
 ASP623  PHE694  ASN695  SER759  ASP760  ASP761  ALA762  ILE779  LEU786  VAL792 
 PHE793  MET794  SER795  GLU796  ALA797  LYS798  CYS799  TRP800  GLU811  SER814 

> <Gold.Protein.RotatedAtoms>
  151.7943  133.3363  159.3507 H   0  0  0  0  0  0  0  0  0  0  0  0  # atno 6907 bound_to 6896
  150.7381  134.5813  159.5949 H   0  0  0  0  0  0  0  0  0  0  0  0  # atno 6908 bound_to 6896
  152.3188  134.7408  160.0370 H   0  0  0  0  0  0  0  0  0  0  0  0  # atno 6909 bound_to 6896
  144.8477  139.6215  143.5988 H   0  0  0  0  0  0  0  0  0  0  0  0  # atno 7974 bound_to 7965
  154.7315  140.0502  157.0730 H   0  0  0  0  0  0  0  0  0  0  0  0  # atno 8008 bound_to 7997
  155.0296  140.3156  155.4744 H   0  0  0  0  0  0  0  0  0  0  0  0  # atno 8009 bound_to 7997
  156.2842  140.2152  156.5417 H   0  0  0  0  0  0  0  0  0  0  0  0  # atno 8010 bound_to 7997
  140.2858  144.3103  150.6252 H   0  0  0  0  0  0  0  0  0  0  0  0  # atno 10167 bound_to 10162
  156.0193  130.5371  150.6955 H   0  0  0  0  0  0  0  0  0  0  0  0  # atno 10718 bound_to 10713
  153.6099  135.6996  153.5351 H   0  0  0  0  0  0  0  0  0  0  0  0  # atno 10763 bound_to 10752
  153.3026  135.4124  155.1265 H   0  0  0  0  0  0  0  0  0  0  0  0  # atno 10764 bound_to 10752
  154.8565  135.3652  154.5637 H   0  0  0  0  0  0  0  0  0  0  0  0  # atno 10765 bound_to 10752
  141.0451  133.6764  156.2874 H   0  0  0  0  0  0  0  0  0  0  0  0  # atno 11005 bound_to 11000
  146.2758  139.6749  142.9264 LP  0  0  0  0  0  0  0  0  0  0  0  0  # atno 17320 bound_to 7965
  145.4564  141.0431  143.2776 LP  0  0  0  0  0  0  0  0  0  0  0  0  # atno 17321 bound_to 7965
  140.5773  143.2175  151.7491 LP  0  0  0  0  0  0  0  0  0  0  0  0  # atno 17342 bound_to 10162
  139.4950  144.4131  152.0059 LP  0  0  0  0  0  0  0  0  0  0  0  0  # atno 17343 bound_to 10162
  157.4627  131.0885  151.0728 LP  0  0  0  0  0  0  0  0  0  0  0  0  # atno 17370 bound_to 10713
  157.1212  130.6062  149.5505 LP  0  0  0  0  0  0  0  0  0  0  0  0  # atno 17371 bound_to 10713
  140.6162  134.5408  157.5541 LP  0  0  0  0  0  0  0  0  0  0  0  0  # atno 17394 bound_to 11000
  139.9305  134.7972  156.0943 LP  0  0  0  0  0  0  0  0  0  0  0  0  # atno 17395 bound_to 11000

$$$$
