AV-unprocessed.smi:663|AV-procd|sdf|3247|dock4
  -GOLD-   22720 0193D 1   1.00000     0.00000
 Structure written by MMmdl.
 30 31  0  0  0  0  0  0  0  0  1 V2000
  149.4664  138.5990  153.4903 N   0  0  0  0  0  0  0  0  0  0  0  0
  150.4345  138.8534  154.3741 C   0  0  0  0  0  0  0  0  0  0  0  0
  150.7262  139.9999  154.7091 O   0  0  0  0  0  0  0  0  0  0  0  0
  151.1948  137.6472  154.9432 C   0  0  0  0  0  0  0  0  0  0  0  0
  151.3264  137.6481  156.4846 C   0  0  2  0  0  0  0  0  0  0  0  0
  150.0396  137.3408  157.1081 N   0  0  0  0  0  0  0  0  0  0  0  0
  149.8668  136.8923  158.3596 C   0  0  0  0  0  0  0  0  0  0  0  0
  150.7927  136.7014  159.1479 O   0  0  0  0  0  0  0  0  0  0  0  0
  148.5670  136.6825  158.6226 N   0  0  0  0  0  0  0  0  0  0  0  0
  147.9854  136.2222  159.8302 C   0  0  0  0  0  0  0  0  0  0  0  0
  147.6438  137.1322  160.7502 N   0  0  0  0  0  0  0  0  0  0  0  0
  147.0883  136.5462  161.8810 N   0  0  0  0  0  0  0  0  0  0  0  0
  147.0342  135.2155  161.7698 C   0  0  0  0  0  0  0  0  0  0  0  0
  147.6560  134.5446  160.2726 S   0  0  0  0  0  0  0  0  0  0  0  0
  151.9116  138.9657  156.9664 C   0  0  0  0  0  0  0  0  0  0  0  0
  152.1922  139.2018  158.4318 C   0  0  0  0  0  0  0  0  0  0  0  0
  151.0816  139.9608  157.7428 C   0  0  0  0  0  0  0  0  0  0  0  0
  148.9398  139.3629  153.0913 H   0  0  0  0  0  0  0  0  0  0  0  0
  149.2619  137.6468  153.2238 H   0  0  0  0  0  0  0  0  0  0  0  0
  150.6908  136.7338  154.6233 H   0  0  0  0  0  0  0  0  0  0  0  0
  152.1845  137.6176  154.4856 H   0  0  0  0  0  0  0  0  0  0  0  0
  152.0339  136.8591  156.7494 H   0  0  0  0  0  0  0  0  0  0  0  0
  149.2192  137.4621  156.5322 H   0  0  0  0  0  0  0  0  0  0  0  0
  147.9178  136.8733  157.8736 H   0  0  0  0  0  0  0  0  0  0  0  0
  146.6247  134.6249  162.5756 H   0  0  0  0  0  0  0  0  0  0  0  0
  152.6403  139.3921  156.2792 H   0  0  0  0  0  0  0  0  0  0  0  0
  151.9046  138.4232  159.1357 H   0  0  0  0  0  0  0  0  0  0  0  0
  153.0950  139.7523  158.6881 H   0  0  0  0  0  0  0  0  0  0  0  0
  151.2438  141.0167  157.5370 H   0  0  0  0  0  0  0  0  0  0  0  0
  150.0589  139.6868  157.9941 H   0  0  0  0  0  0  0  0  0  0  0  0
  1  2  1  0  0  0  0
  1 18  1  0  0  0  0
  1 19  1  0  0  0  0
  2  3  2  0  0  0  0
  2  4  1  0  0  0  0
  4  5  1  0  0  0  0
  4 20  1  0  0  0  0
  4 21  1  0  0  0  0
  5  6  1  0  0  0  0
  5 15  1  0  0  0  0
  5 22  1  0  0  0  0
  6  7  1  0  0  0  0
  6 23  1  0  0  0  0
  7  8  2  0  0  0  0
  7  9  1  0  0  0  0
  9 10  1  0  0  0  0
  9 24  1  0  0  0  0
 10 14  1  0  0  0  0
 10 11  2  0  0  0  0
 11 12  1  0  0  0  0
 12 13  2  0  0  0  0
 13 14  1  0  0  0  0
 13 25  1  0  0  0  0
 15 17  1  0  0  0  0
 15 16  1  0  0  0  0
 15 26  1  0  0  0  0
 16 17  1  0  0  0  0
 16 27  1  0  0  0  0
 16 28  1  0  0  0  0
 17 29  1  0  0  0  0
 17 30  1  0  0  0  0
M  END
> <s_m_source_file>
AV-unprocessed.smi

> <i_m_source_file_index>
663

> <i_lp_mmshare_version>
43012

> <i_f3d_flags>
0

> <s_epik_input>
W05IMl1DKD1PKVtDSDJdW0NAQEhdKFtDSF0xW0NIMl1bQ0gyXTEpW05IXUMoPU8pW05IXWMybm5bY0hdczI=

> <s_epik_cmdline>
J2VwaWtfcHl0aG9uJywgJy1waCcsICc3LjAnLCAnLXRuJywgJzgnLCAnLW1hJywgJzIwMCcsICctbWV0YWxfYmluZGluZycsICctaW1hZScsICc8aW5maWxlLm1hZT4nLCAnLW9tYWUnLCAnPG91dGZpbGUubWFlPic=

> <r_lp_tautomer_probability>
1

> <r_epik_Ionization_Penalty>
0.000388224

> <r_epik_Ionization_Penalty_Charging>
0

> <r_epik_Ionization_Penalty_Neutral>
0.000388224

> <r_epik_State_Penalty>
-0

> <r_epik_Charging_Adjusted_Penalty>
0

> <i_epik_Tot_Q>
0

> <i_epik_Tot_abs_Q>
0

> <r_epik_Metal_State_Penalty>
0.191941

> <b_epik_Metal_Only>
0

> <s_lp_Force_Field>
OPLS_2005

> <r_lp_Energy>
6.58878

> <b_lp_Chiralities_Consistent>
1

> <s_lp_Variant>
AV-unprocessed.smi:663-1

> <Gold.Version>
5.8.1

> <Gold.Id.Protein>
6NUR|6NUR_protein|mol2

> <Gold.PLP.Fitness>
38.4199

> <Gold.PLP.PLP>
-26.9943

> <Gold.PLP.part.hbond>
-6.0000

> <Gold.PLP.part.metal>
0.0000

> <Gold.PLP.part.buried>
-6.0772

> <Gold.PLP.part.nonpolar>
-15.5253

> <Gold.PLP.part.repulsive>
0.3118

> <Gold.PLP.ligand.clash>
0.0000

> <Gold.PLP.ligand.torsion>
1.8394

> <Gold.PLP.Chemscore.Hbond>
4.6663

> <Gold.PLP.Chemscore.CHOScore>
0.0000

> <Gold.PLP.Chemscore.Metal>
0.0000

> <Gold.Chemscore.Hbonds>
donor molecule, donor type, donor heavy atom, donor atom, acceptor molecule, acceptor atom, score
      L1  H     1    18       P1  7957  0.21
      L1  H     1    19       P1  7948  1.00
      P1  H  6896  6909       L1     8  1.00
      P1  H  6931  6943       L1    11  0.43
      P1  H  6934  6947       L1    11  0.96
      P1  H  7989  7998       L1     3  1.00

> <Gold.PLP.Chemscore.Internal.Correction>
1.1054

> <Gold.Rescore>
     Score         DG    S(hbond)    S(metal)    S(lipo)     H(rot)  DE(clash)    DE(int)     intcor
     12.83     -16.50       3.91        0.00      37.85       2.52       0.00       3.67       ----

> <Gold.Chemscore.Fitness>
12.8271

> <Gold.Chemscore.DG>
-16.4982

> <Gold.Chemscore.ZeroCoef>
-5.4800

> <Gold.Chemscore.Hbond>
3.9060

> <Gold.Chemscore.Metal>
0.0000

> <Gold.Chemscore.Lipo>
37.8461

> <Gold.Chemscore.Internal_Hbond>
0.0000

> <Gold.Chemscore.DEClash>
0.0000

> <Gold.Chemscore.DEInternal>
3.6711

> <Gold.Chemscore.Rot>
2.5218

> <Gold.Chemscore.Internal.Correction>
   9.000000E+99

> <Gold.Chemscore.Hbonds>
donor molecule, donor type, donor heavy atom, donor atom, acceptor molecule, acceptor atom, score
      L1  H     1    18       P1  7957  0.21
      L1  H     1    19       P1  7948  0.93
      P1  H  6896  6909       L1     8  0.99
      P1  H  6931  6943       L1    11  0.04
      P1  H  6934  6947       L1    11  0.41
      P1  H  7989  7998       L1     3  0.85

> <Gold.Chemscore.Hbond.Weighted>
-13.0461

> <Gold.Chemscore.Metal.Weighted>
-0.0000

> <Gold.Chemscore.Lipo.Weighted>
-4.4280

> <Gold.Chemscore.Internal_Hbond.Weighted>
0.0000

> <Gold.Chemscore.DEClash.Weighted>
0.0000

> <Gold.Chemscore.DEInternal.Weighted>
3.6711

> <Gold.Chemscore.Rot.Weighted>
6.4559

> <Gold.Chemscore.Internal.Correction.Weighted>
   9.000000E+99

> <Gold.Protein.RotatedTorsions>
[ 6907 6896 6895 6894 ] final   93.49 input  -60.11 | X-H torsion
[ 7974 7965 7964 7962 ] final  -48.96 input  175.53 | X-H torsion
[ 8008 7997 7996 7995 ] final   58.74 input   59.86 | X-H torsion
[ 10167 10162 10161 10158 ] final  124.22 input  -65.29 | X-H torsion
[ 10718 10713 10712 10709 ] final  -83.27 input   66.30 | X-H torsion
[ 10763 10752 10751 10750 ] final  155.35 input  -60.55 | X-H torsion
[ 11005 11000 10999 10996 ] final    1.63 input  -57.11 | X-H torsion

> <Gold.Protein.ActiveResidues>
 VAL166  LYS551  ARG553  GLY616  TRP617  ASP618  TYR619  PRO620  LYS621  CYS622 
 ASP623  PHE694  ASN695  SER759  ASP760  ASP761  ALA762  ILE779  LEU786  VAL792 
 PHE793  MET794  SER795  GLU796  ALA797  LYS798  CYS799  TRP800  GLU811  SER814 

> <Gold.Protein.RotatedAtoms>
  152.5452  134.1340  159.8450 H   0  0  0  0  0  0  0  0  0  0  0  0  # atno 6907 bound_to 6896
  151.1382  133.4982  159.2605 H   0  0  0  0  0  0  0  0  0  0  0  0  # atno 6908 bound_to 6896
  151.1601  135.0279  159.8761 H   0  0  0  0  0  0  0  0  0  0  0  0  # atno 6909 bound_to 6896
  145.9456  140.7621  142.9530 H   0  0  0  0  0  0  0  0  0  0  0  0  # atno 7974 bound_to 7965
  155.5550  140.3487  155.4477 H   0  0  0  0  0  0  0  0  0  0  0  0  # atno 8008 bound_to 7997
  156.0556  140.1328  157.0026 H   0  0  0  0  0  0  0  0  0  0  0  0  # atno 8009 bound_to 7997
  154.4455  140.0996  156.6425 H   0  0  0  0  0  0  0  0  0  0  0  0  # atno 8010 bound_to 7997
  139.5754  144.6960  151.3667 H   0  0  0  0  0  0  0  0  0  0  0  0  # atno 10167 bound_to 10162
  156.0021  130.4660  150.4232 H   0  0  0  0  0  0  0  0  0  0  0  0  # atno 10718 bound_to 10713
  154.1670  135.2806  155.3092 H   0  0  0  0  0  0  0  0  0  0  0  0  # atno 10763 bound_to 10752
  154.6104  135.5500  153.7470 H   0  0  0  0  0  0  0  0  0  0  0  0  # atno 10764 bound_to 10752
  153.0175  135.6414  154.1811 H   0  0  0  0  0  0  0  0  0  0  0  0  # atno 10765 bound_to 10752
  140.6133  133.9728  155.8188 H   0  0  0  0  0  0  0  0  0  0  0  0  # atno 11005 bound_to 11000
  144.6786  140.2351  143.7350 LP  0  0  0  0  0  0  0  0  0  0  0  0  # atno 17320 bound_to 7965
  145.8241  139.2056  143.1921 LP  0  0  0  0  0  0  0  0  0  0  0  0  # atno 17321 bound_to 7965
  140.7037  143.7568  150.7445 LP  0  0  0  0  0  0  0  0  0  0  0  0  # atno 17342 bound_to 10162
  140.1087  143.4720  152.2383 LP  0  0  0  0  0  0  0  0  0  0  0  0  # atno 17343 bound_to 10162
  157.2287  131.0499  151.2505 LP  0  0  0  0  0  0  0  0  0  0  0  0  # atno 17370 bound_to 10713
  157.3732  130.7192  149.6579 LP  0  0  0  0  0  0  0  0  0  0  0  0  # atno 17371 bound_to 10713
  141.0793  134.0087  157.3410 LP  0  0  0  0  0  0  0  0  0  0  0  0  # atno 17394 bound_to 11000
  139.9183  135.0199  156.7967 LP  0  0  0  0  0  0  0  0  0  0  0  0  # atno 17395 bound_to 11000

$$$$
