AV-unprocessed.smi:2141|AV-procd|sdf|8718|dock9
  -GOLD-   2272011483D 1   1.00000     0.00000
 Structure written by MMmdl.
 42 43  0  0  0  0  0  0  0  0  1 V2000
  143.2973  135.3176  152.2855 C   0  0  0  0  0  0  0  0  0  0  0  0
  143.3557  136.8534  153.2980 S   0  0  0  0  0  0  0  0  0  0  0  0
  142.0432  137.5135  153.2288 O   0  0  0  0  0  0  0  0  0  0  0  0
  143.9523  136.5221  154.6006 O   0  0  0  0  0  0  0  0  0  0  0  0
  144.4887  137.8468  152.4539 N   0  0  0  0  0  0  0  0  0  0  0  0
  145.9077  137.4811  152.3799 C   0  0  0  0  0  0  0  0  0  0  0  0
  146.7647  138.5868  151.7298 C   0  0  0  0  0  0  0  0  0  0  0  0
  147.4555  139.4958  152.7494 C   0  0  0  0  0  0  0  0  0  0  0  0
  146.8984  140.5316  153.1117 O   0  0  0  0  0  0  0  0  0  0  0  0
  148.6524  139.0718  153.1936 N   0  0  0  0  0  0  0  0  0  0  0  0
  149.4665  139.6482  154.2040 C   0  0  0  0  0  0  0  0  0  0  0  0
  150.6274  139.0401  154.7341 C   0  0  0  0  0  0  0  0  0  0  0  0
  151.3509  139.7129  155.7374 C   0  0  0  0  0  0  0  0  0  0  0  0
  150.8951  140.9722  156.1941 C   0  0  0  0  0  0  0  0  0  0  0  0
  151.6119  141.6672  157.1916 N   0  0  0  0  0  0  0  0  0  0  0  0
  151.8695  140.9242  158.4224 C   0  0  0  0  0  0  0  0  0  0  0  0
  152.9094  141.6605  159.2850 C   0  0  0  0  0  0  0  0  0  0  0  0
  152.4814  142.9976  159.5225 O   0  0  0  0  0  0  0  0  0  0  0  0
  152.3472  143.7337  158.3114 C   0  0  0  0  0  0  0  0  0  0  0  0
  151.2820  143.0727  157.4205 C   0  0  0  0  0  0  0  0  0  0  0  0
  149.7743  141.5452  155.6910 N   0  0  0  0  0  0  0  0  0  0  0  0
  149.0817  140.8955  154.7330 C   0  0  0  0  0  0  0  0  0  0  0  0
  142.6188  134.6042  152.7524 H   0  0  0  0  0  0  0  0  0  0  0  0
  144.2931  134.8787  152.2263 H   0  0  0  0  0  0  0  0  0  0  0  0
  142.9390  135.5478  151.2830 H   0  0  0  0  0  0  0  0  0  0  0  0
  144.2987  138.8469  152.5185 H   0  0  0  0  0  0  0  0  0  0  0  0
  146.2816  137.2567  153.3796 H   0  0  0  0  0  0  0  0  0  0  0  0
  145.9963  136.5596  151.8046 H   0  0  0  0  0  0  0  0  0  0  0  0
  147.5151  138.1352  151.0795 H   0  0  0  0  0  0  0  0  0  0  0  0
  146.1383  139.2039  151.0841 H   0  0  0  0  0  0  0  0  0  0  0  0
  148.9565  138.1713  152.8524 H   0  0  0  0  0  0  0  0  0  0  0  0
  150.9723  138.0742  154.3986 H   0  0  0  0  0  0  0  0  0  0  0  0
  152.2500  139.2637  156.1319 H   0  0  0  0  0  0  0  0  0  0  0  0
  150.9335  140.8227  158.9732 H   0  0  0  0  0  0  0  0  0  0  0  0
  152.2273  139.9160  158.2184 H   0  0  0  0  0  0  0  0  0  0  0  0
  153.0303  141.1521  160.2416 H   0  0  0  0  0  0  0  0  0  0  0  0
  153.8866  141.6613  158.7994 H   0  0  0  0  0  0  0  0  0  0  0  0
  152.0569  144.7575  158.5472 H   0  0  0  0  0  0  0  0  0  0  0  0
  153.3075  143.7859  157.7958 H   0  0  0  0  0  0  0  0  0  0  0  0
  151.2233  143.6065  156.4711 H   0  0  0  0  0  0  0  0  0  0  0  0
  150.3026  143.1415  157.8959 H   0  0  0  0  0  0  0  0  0  0  0  0
  148.1968  141.3969  154.3686 H   0  0  0  0  0  0  0  0  0  0  0  0
  1  2  1  0  0  0  0
  1 23  1  0  0  0  0
  1 24  1  0  0  0  0
  1 25  1  0  0  0  0
  2  3  2  0  0  0  0
  2  4  2  0  0  0  0
  2  5  1  0  0  0  0
  5  6  1  0  0  0  0
  5 26  1  0  0  0  0
  6  7  1  0  0  0  0
  6 27  1  0  0  0  0
  6 28  1  0  0  0  0
  7  8  1  0  0  0  0
  7 29  1  0  0  0  0
  7 30  1  0  0  0  0
  8  9  2  0  0  0  0
  8 10  1  0  0  0  0
 10 11  1  0  0  0  0
 10 31  1  0  0  0  0
 11 22  1  0  0  0  0
 11 12  2  0  0  0  0
 12 13  1  0  0  0  0
 12 32  1  0  0  0  0
 13 14  2  0  0  0  0
 13 33  1  0  0  0  0
 14 15  1  0  0  0  0
 14 21  1  0  0  0  0
 15 20  1  0  0  0  0
 15 16  1  0  0  0  0
 16 17  1  0  0  0  0
 16 34  1  0  0  0  0
 16 35  1  0  0  0  0
 17 18  1  0  0  0  0
 17 36  1  0  0  0  0
 17 37  1  0  0  0  0
 18 19  1  0  0  0  0
 19 20  1  0  0  0  0
 19 38  1  0  0  0  0
 19 39  1  0  0  0  0
 20 40  1  0  0  0  0
 20 41  1  0  0  0  0
 21 22  2  0  0  0  0
 22 42  1  0  0  0  0
M  END
> <s_m_source_file>
AV-unprocessed.smi

> <i_m_source_file_index>
2141

> <i_lp_mmshare_version>
43012

> <i_f3d_flags>
0

> <s_epik_input>
W0NIM11TKD1PKSg9TylbTkhdW0NIMl1bQ0gyXUMoPU8pW05IXWMxW2NIXVtjSF1jKG5bY0hdMSlOMltDSDJdW0NIMl1PW0NIMl1bQ0gyXTI=

> <s_epik_cmdline>
J2VwaWtfcHl0aG9uJywgJy1waCcsICc3LjAnLCAnLXRuJywgJzgnLCAnLW1hJywgJzIwMCcsICctbWV0YWxfYmluZGluZycsICctaW1hZScsICc8aW5maWxlLm1hZT4nLCAnLW9tYWUnLCAnPG91dGZpbGUubWFlPic=

> <r_lp_tautomer_probability>
1

> <r_epik_Ionization_Penalty>
0.000610192

> <r_epik_Ionization_Penalty_Charging>
0

> <r_epik_Ionization_Penalty_Neutral>
0.000610192

> <r_epik_State_Penalty>
0.000370803

> <r_epik_Charging_Adjusted_Penalty>
0.000370803

> <i_epik_Tot_Q>
0

> <i_epik_Tot_abs_Q>
0

> <r_epik_Metal_State_Penalty>
0.0170256

> <b_epik_Metal_Only>
0

> <s_lp_Force_Field>
OPLS_2005

> <r_lp_Energy>
9.95274

> <b_lp_Chiralities_Consistent>
1

> <s_lp_Variant>
AV-unprocessed.smi:2141-1

> <Gold.Version>
5.8.1

> <Gold.Id.Protein>
6NUR|6NUR_protein|mol2

> <Gold.PLP.Fitness>
44.2302

> <Gold.PLP.PLP>
-40.7257

> <Gold.PLP.part.hbond>
-3.3729

> <Gold.PLP.part.metal>
0.0000

> <Gold.PLP.part.buried>
-1.1166

> <Gold.PLP.part.nonpolar>
-36.9842

> <Gold.PLP.part.repulsive>
0.6887

> <Gold.PLP.ligand.clash>
0.2294

> <Gold.PLP.ligand.torsion>
1.3693

> <Gold.PLP.Chemscore.Hbond>
1.6988

> <Gold.PLP.Chemscore.CHOScore>
0.0000

> <Gold.PLP.Chemscore.Metal>
0.0000

> <Gold.Chemscore.Hbonds>
donor molecule, donor type, donor heavy atom, donor atom, acceptor molecule, acceptor atom, score
      L1  H     5    26       P1 10175  1.00
      L1  H    10    31       P1  7948  0.71

> <Gold.PLP.Chemscore.Internal.Correction>
1.3762

> <Gold.Rescore>
     Score         DG    S(hbond)    S(metal)    S(lipo)     H(rot)  DE(clash)    DE(int)     intcor
     12.99     -17.00       1.95        0.00      86.38       1.99       1.21       2.80       ----

> <Gold.Chemscore.Fitness>
12.9923

> <Gold.Chemscore.DG>
-16.9980

> <Gold.Chemscore.ZeroCoef>
-5.4800

> <Gold.Chemscore.Hbond>
1.9498

> <Gold.Chemscore.Metal>
0.0000

> <Gold.Chemscore.Lipo>
86.3807

> <Gold.Chemscore.Internal_Hbond>
0.0000

> <Gold.Chemscore.DEClash>
1.2092

> <Gold.Chemscore.DEInternal>
2.7965

> <Gold.Chemscore.Rot>
1.9925

> <Gold.Chemscore.Internal.Correction>
   9.000000E+99

> <Gold.Chemscore.Hbonds>
donor molecule, donor type, donor heavy atom, donor atom, acceptor molecule, acceptor atom, score
      L1  H     5    26       P1 10175  1.00
      L1  H    10    31       P1  7948  0.70

> <Gold.Chemscore.Hbond.Weighted>
-6.5123

> <Gold.Chemscore.Metal.Weighted>
-0.0000

> <Gold.Chemscore.Lipo.Weighted>
-10.1065

> <Gold.Chemscore.Internal_Hbond.Weighted>
0.0000

> <Gold.Chemscore.DEClash.Weighted>
1.2092

> <Gold.Chemscore.DEInternal.Weighted>
2.7965

> <Gold.Chemscore.Rot.Weighted>
5.1008

> <Gold.Chemscore.Internal.Correction.Weighted>
   9.000000E+99

> <Gold.Protein.RotatedTorsions>
[ 6907 6896 6895 6894 ] final  -89.44 input  -60.11 | X-H torsion
[ 7974 7965 7964 7962 ] final -155.83 input  175.53 | X-H torsion
[ 8008 7997 7996 7995 ] final   84.09 input   59.86 | X-H torsion
[ 10167 10162 10161 10158 ] final   59.11 input  -65.29 | X-H torsion
[ 10718 10713 10712 10709 ] final   45.46 input   66.30 | X-H torsion
[ 10763 10752 10751 10750 ] final -165.87 input  -60.55 | X-H torsion
[ 11005 11000 10999 10996 ] final  -76.58 input  -57.11 | X-H torsion

> <Gold.Protein.ActiveResidues>
 VAL166  LYS551  ARG553  GLY616  TRP617  ASP618  TYR619  PRO620  LYS621  CYS622 
 ASP623  PHE694  ASN695  SER759  ASP760  ASP761  ALA762  ILE779  LEU786  VAL792 
 PHE793  MET794  SER795  GLU796  ALA797  LYS798  CYS799  TRP800  GLU811  SER814 

> <Gold.Protein.RotatedAtoms>
  150.6874  134.2586  159.4539 H   0  0  0  0  0  0  0  0  0  0  0  0  # atno 6907 bound_to 6896
  152.0518  134.9646  160.0584 H   0  0  0  0  0  0  0  0  0  0  0  0  # atno 6908 bound_to 6896
  152.1107  133.4264  159.4667 H   0  0  0  0  0  0  0  0  0  0  0  0  # atno 6909 bound_to 6896
  144.7621  140.4195  143.5968 H   0  0  0  0  0  0  0  0  0  0  0  0  # atno 7974 bound_to 7965
  155.9325  140.3414  155.6261 H   0  0  0  0  0  0  0  0  0  0  0  0  # atno 8008 bound_to 7997
  155.7140  140.0775  157.2378 H   0  0  0  0  0  0  0  0  0  0  0  0  # atno 8009 bound_to 7997
  154.4088  140.1617  156.2315 H   0  0  0  0  0  0  0  0  0  0  0  0  # atno 8010 bound_to 7997
  140.1800  144.4191  150.6620 H   0  0  0  0  0  0  0  0  0  0  0  0  # atno 10167 bound_to 10162
  157.4378  130.8063  149.7665 H   0  0  0  0  0  0  0  0  0  0  0  0  # atno 10718 bound_to 10713
  154.6889  135.2967  154.9507 H   0  0  0  0  0  0  0  0  0  0  0  0  # atno 10763 bound_to 10752
  154.0477  135.6649  153.4801 H   0  0  0  0  0  0  0  0  0  0  0  0  # atno 10764 bound_to 10752
  153.0598  135.5122  154.7971 H   0  0  0  0  0  0  0  0  0  0  0  0  # atno 10765 bound_to 10752
  141.1655  133.6989  156.7691 H   0  0  0  0  0  0  0  0  0  0  0  0  # atno 11005 bound_to 11000
  145.6585  139.1577  143.2822 LP  0  0  0  0  0  0  0  0  0  0  0  0  # atno 17320 bound_to 7965
  146.1695  140.6667  142.9240 LP  0  0  0  0  0  0  0  0  0  0  0  0  # atno 17321 bound_to 7965
  140.6526  143.2229  151.6043 LP  0  0  0  0  0  0  0  0  0  0  0  0  # atno 17342 bound_to 10162
  139.5300  144.2944  152.1126 LP  0  0  0  0  0  0  0  0  0  0  0  0  # atno 17343 bound_to 10162
  155.9937  130.3922  150.2889 LP  0  0  0  0  0  0  0  0  0  0  0  0  # atno 17370 bound_to 10713
  157.1051  131.0206  151.3070 LP  0  0  0  0  0  0  0  0  0  0  0  0  # atno 17371 bound_to 10713
  140.2477  134.8564  157.3637 LP  0  0  0  0  0  0  0  0  0  0  0  0  # atno 17394 bound_to 11000
  140.1733  134.4581  155.7818 LP  0  0  0  0  0  0  0  0  0  0  0  0  # atno 17395 bound_to 11000

$$$$
