AV-unprocessed.smi:1619|AV-procd|sdf|6490|dock2
  -GOLD-   22720 7153D 1   1.00000     0.00000
 Structure written by MMmdl.
 45 47  0  0  0  0  0  0  0  0  3 V2000
  152.4378  143.5966  160.2747 C   0  0  0  0  0  0  0  0  0  0  0  0
  152.1030  142.6539  159.1311 C   0  0  0  0  0  0  0  0  0  0  0  0
  151.1663  143.0771  158.1612 C   0  0  0  0  0  0  0  0  0  0  0  0
  150.8779  142.1919  157.1294 C   0  0  0  0  0  0  0  0  0  0  0  0
  150.0095  142.3059  156.0417 N   0  3  0  0  0  0  0  0  0  0  0  0
  150.0619  141.1673  155.2968 C   0  0  0  0  0  0  0  0  0  0  0  0
  150.9598  140.3318  155.8874 N   0  0  0  0  0  0  0  0  0  0  0  0
  151.3852  138.9796  155.5042 C   0  0  0  0  0  0  0  0  0  0  0  0
  150.2389  138.1053  154.9552 C   0  0  1  0  0  0  0  0  0  0  0  0
  150.0520  138.4535  153.5987 O   0  0  0  0  0  0  0  0  0  0  0  0
  150.5180  136.5892  155.0455 C   0  0  0  0  0  0  0  0  0  0  0  0
  149.4431  135.7788  154.4245 N   0  3  0  0  0  0  0  0  0  0  0  0
  149.7116  134.3272  154.4107 C   0  0  0  0  0  0  0  0  0  0  0  0
  148.3403  133.6768  154.2650 C   0  0  0  0  0  0  0  0  0  0  0  0
  147.4421  134.5862  155.0981 C   0  0  0  0  0  0  0  0  0  0  0  0
  148.0865  135.9751  154.9910 C   0  0  0  0  0  0  0  0  0  0  0  0
  151.4874  140.9254  157.0391 C   0  0  0  0  0  0  0  0  0  0  0  0
  152.4117  140.4918  157.9865 C   0  0  0  0  0  0  0  0  0  0  0  0
  152.7177  141.3778  159.0447 C   0  0  0  0  0  0  0  0  0  0  0  0
  153.7203  140.9327  160.0958 C   0  0  0  0  0  0  0  0  0  0  0  0
  151.8582  144.5182  160.2147 H   0  0  0  0  0  0  0  0  0  0  0  0
  153.4941  143.8653  160.2523 H   0  0  0  0  0  0  0  0  0  0  0  0
  152.2190  143.1287  161.2347 H   0  0  0  0  0  0  0  0  0  0  0  0
  150.6925  144.0462  158.2224 H   0  0  0  0  0  0  0  0  0  0  0  0
  149.4938  140.9648  154.4001 H   0  0  0  0  0  0  0  0  0  0  0  0
  152.1936  139.0685  154.7769 H   0  0  0  0  0  0  0  0  0  0  0  0
  151.8180  138.5170  156.3927 H   0  0  0  0  0  0  0  0  0  0  0  0
  149.3217  138.3454  155.4928 H   0  0  0  0  0  0  0  0  0  0  0  0
  149.5889  137.7520  153.1655 H   0  0  0  0  0  0  0  0  0  0  0  0
  151.4628  136.3664  154.5475 H   0  0  0  0  0  0  0  0  0  0  0  0
  150.6331  136.2762  156.0839 H   0  0  0  0  0  0  0  0  0  0  0  0
  150.3957  134.0513  153.6076 H   0  0  0  0  0  0  0  0  0  0  0  0
  150.1617  134.0257  155.3584 H   0  0  0  0  0  0  0  0  0  0  0  0
  148.0267  133.7000  153.2203 H   0  0  0  0  0  0  0  0  0  0  0  0
  148.3239  132.6391  154.6000 H   0  0  0  0  0  0  0  0  0  0  0  0
  146.4066  134.5764  154.7567 H   0  0  0  0  0  0  0  0  0  0  0  0
  147.4511  134.2566  156.1381 H   0  0  0  0  0  0  0  0  0  0  0  0
  148.1160  136.4563  155.9699 H   0  0  0  0  0  0  0  0  0  0  0  0
  147.5182  136.6213  154.3215 H   0  0  0  0  0  0  0  0  0  0  0  0
  152.8759  139.5188  157.9239 H   0  0  0  0  0  0  0  0  0  0  0  0
  154.1309  139.9490  159.8659 H   0  0  0  0  0  0  0  0  0  0  0  0
  153.2453  140.8748  161.0755 H   0  0  0  0  0  0  0  0  0  0  0  0
  154.5526  141.6345  160.1549 H   0  0  0  0  0  0  0  0  0  0  0  0
  149.3866  136.0581  153.4550 H   0  0  0  0  0  0  0  0  0  0  0  0
  149.4173  143.0980  155.8263 H   0  0  0  0  0  0  0  0  0  0  0  0
  1  2  1  0  0  0  0
  1 21  1  0  0  0  0
  1 22  1  0  0  0  0
  1 23  1  0  0  0  0
  2 19  1  0  0  0  0
  2  3  2  0  0  0  0
  3  4  1  0  0  0  0
  3 24  1  0  0  0  0
  4 17  2  0  0  0  0
  4  5  1  0  0  0  0
  5  6  2  0  0  0  0
  5 45  1  0  0  0  0
  6  7  1  0  0  0  0
  6 25  1  0  0  0  0
  7  8  1  0  0  0  0
  7 17  1  0  0  0  0
  8  9  1  0  0  0  0
  8 26  1  0  0  0  0
  8 27  1  0  0  0  0
  9 10  1  0  0  0  0
  9 11  1  0  0  0  0
  9 28  1  0  0  0  0
 10 29  1  0  0  0  0
 11 12  1  0  0  0  0
 11 30  1  0  0  0  0
 11 31  1  0  0  0  0
 12 16  1  0  0  0  0
 12 13  1  0  0  0  0
 12 44  1  0  0  0  0
 13 14  1  0  0  0  0
 13 32  1  0  0  0  0
 13 33  1  0  0  0  0
 14 15  1  0  0  0  0
 14 34  1  0  0  0  0
 14 35  1  0  0  0  0
 15 16  1  0  0  0  0
 15 36  1  0  0  0  0
 15 37  1  0  0  0  0
 16 38  1  0  0  0  0
 16 39  1  0  0  0  0
 17 18  1  0  0  0  0
 18 19  2  0  0  0  0
 18 40  1  0  0  0  0
 19 20  1  0  0  0  0
 20 41  1  0  0  0  0
 20 42  1  0  0  0  0
 20 43  1  0  0  0  0
M  CHG  1   5   1
M  CHG  1  12   1
M  END
> <s_m_source_file>
AV-unprocessed.smi

> <i_m_source_file_index>
1619

> <i_lp_mmshare_version>
43012

> <i_f3d_flags>
0

> <s_epik_input>
W0NIM11jKFtjSF0xKWMoW0NIM10pW2NIXWMoYzEyKW4oW2NIXW4yKVtDSDJdW0NASF0oW09IXSlbQ0gyXU4zW0NIMl1bQ0gyXVtDSDJdW0NIMl0z

> <s_epik_cmdline>
J2VwaWtfcHl0aG9uJywgJy1waCcsICc3LjAnLCAnLXRuJywgJzgnLCAnLW1hJywgJzIwMCcsICctbWV0YWxfYmluZGluZycsICctaW1hZScsICc8aW5maWxlLm1hZT4nLCAnLW9tYWUnLCAnPG91dGZpbGUubWFlPic=

> <r_epik_Ionization_Penalty>
1.18067

> <r_epik_Ionization_Penalty_Charging>
1.18067

> <r_epik_Ionization_Penalty_Neutral>
1.08888e-06

> <r_epik_State_Penalty>
1.26407

> <r_epik_Charging_Adjusted_Penalty>
2.44473

> <i_epik_Tot_Q>
2

> <i_epik_Tot_abs_Q>
2

> <r_epik_Metal_State_Penalty>
5.27628

> <b_epik_Metal_Only>
0

> <s_lp_Force_Field>
OPLS_2005

> <r_lp_Energy>
43.2678

> <b_lp_Chiralities_Consistent>
1

> <s_lp_Variant>
AV-unprocessed.smi:1619-4

> <Gold.Version>
5.8.1

> <Gold.Id.Protein>
6NUR|6NUR_protein|mol2

> <Gold.PLP.Fitness>
54.7930

> <Gold.PLP.PLP>
-40.8576

> <Gold.PLP.part.hbond>
-4.0000

> <Gold.PLP.part.metal>
0.0000

> <Gold.PLP.part.buried>
-2.8992

> <Gold.PLP.part.nonpolar>
-32.8958

> <Gold.PLP.part.repulsive>
0.1541

> <Gold.PLP.ligand.clash>
0.0000

> <Gold.PLP.ligand.torsion>
0.5259

> <Gold.PLP.Chemscore.Hbond>
4.9913

> <Gold.PLP.Chemscore.CHOScore>
0.0000

> <Gold.PLP.Chemscore.Metal>
0.0000

> <Gold.Chemscore.Hbonds>
donor molecule, donor type, donor heavy atom, donor atom, acceptor molecule, acceptor atom, score
      L1  H     5    45       P1  8028  2.00
      L1  H    10    29       P1  7948  0.91
      L1  H    12    44       P1  7948  2.00

> <Gold.PLP.Chemscore.Internal.Correction>
0.0136

> <Gold.Rescore>
     Score         DG    S(hbond)    S(metal)    S(lipo)     H(rot)  DE(clash)    DE(int)     intcor
     21.31     -21.91       2.86        0.00     104.36       2.08       0.12       0.48       ----

> <Gold.Chemscore.Fitness>
21.3062

> <Gold.Chemscore.DG>
-21.9109

> <Gold.Chemscore.ZeroCoef>
-5.4800

> <Gold.Chemscore.Hbond>
2.8588

> <Gold.Chemscore.Metal>
0.0000

> <Gold.Chemscore.Lipo>
104.3594

> <Gold.Chemscore.Internal_Hbond>
0.0000

> <Gold.Chemscore.DEClash>
0.1208

> <Gold.Chemscore.DEInternal>
0.4840

> <Gold.Chemscore.Rot>
2.0811

> <Gold.Chemscore.Internal.Correction>
   9.000000E+99

> <Gold.Chemscore.Hbonds>
donor molecule, donor type, donor heavy atom, donor atom, acceptor molecule, acceptor atom, score
      L1  H     5    45       P1  8028  1.00
      L1  H    10    29       P1  7948  0.73
      L1  H    12    44       P1  7948  0.60

> <Gold.Chemscore.Hbond.Weighted>
-9.5484

> <Gold.Chemscore.Metal.Weighted>
-0.0000

> <Gold.Chemscore.Lipo.Weighted>
-12.2101

> <Gold.Chemscore.Internal_Hbond.Weighted>
0.0000

> <Gold.Chemscore.DEClash.Weighted>
0.1208

> <Gold.Chemscore.DEInternal.Weighted>
0.4840

> <Gold.Chemscore.Rot.Weighted>
5.3275

> <Gold.Chemscore.Internal.Correction.Weighted>
   9.000000E+99

> <Gold.Protein.RotatedTorsions>
[ 6907 6896 6895 6894 ] final  144.68 input  -60.11 | X-H torsion
[ 7974 7965 7964 7962 ] final   98.84 input  175.53 | X-H torsion
[ 8008 7997 7996 7995 ] final  -24.39 input   59.86 | X-H torsion
[ 10167 10162 10161 10158 ] final  101.61 input  -65.29 | X-H torsion
[ 10718 10713 10712 10709 ] final  134.57 input   66.30 | X-H torsion
[ 10763 10752 10751 10750 ] final  -31.04 input  -60.55 | X-H torsion
[ 11005 11000 10999 10996 ] final  135.21 input  -57.11 | X-H torsion

> <Gold.Protein.ActiveResidues>
 VAL166  LYS551  ARG553  GLY616  TRP617  ASP618  TYR619  PRO620  LYS621  CYS622 
 ASP623  PHE694  ASN695  SER759  ASP760  ASP761  ALA762  ILE779  LEU786  VAL792 
 PHE793  MET794  SER795  GLU796  ALA797  LYS798  CYS799  TRP800  GLU811  SER814 

> <Gold.Protein.RotatedAtoms>
  152.1906  133.4770  159.5005 H   0  0  0  0  0  0  0  0  0  0  0  0  # atno 6907 bound_to 6896
  150.6950  134.1717  159.4224 H   0  0  0  0  0  0  0  0  0  0  0  0  # atno 6908 bound_to 6896
  151.9631  135.0113  160.0599 H   0  0  0  0  0  0  0  0  0  0  0  0  # atno 6909 bound_to 6896
  145.4067  139.2339  143.3270 H   0  0  0  0  0  0  0  0  0  0  0  0  # atno 7974 bound_to 7965
  154.4532  140.1955  156.0457 H   0  0  0  0  0  0  0  0  0  0  0  0  # atno 8008 bound_to 7997
  156.0691  140.3287  155.7527 H   0  0  0  0  0  0  0  0  0  0  0  0  # atno 8009 bound_to 7997
  155.5291  140.0576  157.2883 H   0  0  0  0  0  0  0  0  0  0  0  0  # atno 8010 bound_to 7997
  139.7423  144.7008  151.0557 H   0  0  0  0  0  0  0  0  0  0  0  0  # atno 10167 bound_to 10162
  157.4659  131.1077  150.9863 H   0  0  0  0  0  0  0  0  0  0  0  0  # atno 10718 bound_to 10713
  153.7909  135.6898  153.4872 H   0  0  0  0  0  0  0  0  0  0  0  0  # atno 10763 bound_to 10752
  153.1750  135.4528  154.9952 H   0  0  0  0  0  0  0  0  0  0  0  0  # atno 10764 bound_to 10752
  154.8045  135.3351  154.7405 H   0  0  0  0  0  0  0  0  0  0  0  0  # atno 10765 bound_to 10752
  139.9965  134.9495  156.9975 H   0  0  0  0  0  0  0  0  0  0  0  0  # atno 11005 bound_to 11000
  146.2725  140.4773  142.8809 LP  0  0  0  0  0  0  0  0  0  0  0  0  # atno 17320 bound_to 7965
  144.8336  140.6747  143.6275 LP  0  0  0  0  0  0  0  0  0  0  0  0  # atno 17321 bound_to 7965
  140.7787  143.4909  150.9894 LP  0  0  0  0  0  0  0  0  0  0  0  0  # atno 17342 bound_to 10162
  139.8597  143.7330  152.3174 LP  0  0  0  0  0  0  0  0  0  0  0  0  # atno 17343 bound_to 10162
  157.0644  130.5838  149.5391 LP  0  0  0  0  0  0  0  0  0  0  0  0  # atno 17370 bound_to 10713
  156.0050  130.5135  150.7798 LP  0  0  0  0  0  0  0  0  0  0  0  0  # atno 17371 bound_to 10713
  140.4809  134.1291  155.7217 LP  0  0  0  0  0  0  0  0  0  0  0  0  # atno 17394 bound_to 11000
  141.1608  133.8796  157.1852 LP  0  0  0  0  0  0  0  0  0  0  0  0  # atno 17395 bound_to 11000

$$$$
