AV-unprocessed.smi:1627|AV-procd|sdf|6516|dock8
  -GOLD-   22720 7183D 1   1.00000     0.00000
 Structure written by MMmdl.
 43 44  0  0  0  0  0  0  0  0  1 V2000
  156.0890  139.5575  166.4166 C   0  0  0  0  0  0  0  0  0  0  0  0
  156.3354  141.0638  166.2466 C   0  0  2  0  0  0  0  0  0  0  0  0
  156.2144  141.6642  167.5338 O   0  0  0  0  0  0  0  0  0  0  0  0
  156.8533  142.9280  167.6845 C   0  0  0  0  0  0  0  0  0  0  0  0
  155.9557  143.8531  168.5154 C   0  0  0  0  0  0  0  0  0  0  0  0
  155.7021  143.2799  169.6914 F   0  0  0  0  0  0  0  0  0  0  0  0
  156.5683  145.0171  168.7299 F   0  0  0  0  0  0  0  0  0  0  0  0
  154.8008  144.0638  167.8846 F   0  0  0  0  0  0  0  0  0  0  0  0
  155.3255  141.6870  165.2692 C   0  0  0  0  0  0  0  0  0  0  0  0
  154.6089  142.6148  165.6442 O   0  0  0  0  0  0  0  0  0  0  0  0
  155.2962  141.1495  164.0356 N   0  0  0  0  0  0  0  0  0  0  0  0
  154.5073  141.5401  162.9205 C   0  0  0  0  0  0  0  0  0  0  0  0
  153.6781  142.6715  163.0571 C   0  0  0  0  0  0  0  0  0  0  0  0
  152.8652  143.0622  161.9762 C   0  0  0  0  0  0  0  0  0  0  0  0
  152.9017  142.2997  160.7909 C   0  0  0  0  0  0  0  0  0  0  0  0
  152.0931  142.6796  159.7103 N   0  0  0  0  0  0  0  0  0  0  0  0
  151.5432  141.5417  158.9772 C   0  0  0  0  0  0  0  0  0  0  0  0
  150.5048  142.0086  157.9424 C   0  0  0  0  0  0  0  0  0  0  0  0
  151.1015  143.0737  157.0081 C   0  0  0  0  0  0  0  0  0  0  0  0
  151.6939  144.2300  157.8298 C   0  0  0  0  0  0  0  0  0  0  0  0
  152.7018  143.7062  158.8677 C   0  0  0  0  0  0  0  0  0  0  0  0
  153.6838  141.2032  160.6538 N   0  0  0  0  0  0  0  0  0  0  0  0
  154.4616  140.8340  161.6938 C   0  0  0  0  0  0  0  0  0  0  0  0
  156.1487  139.0357  165.4607 H   0  0  0  0  0  0  0  0  0  0  0  0
  155.1078  139.3565  166.8483 H   0  0  0  0  0  0  0  0  0  0  0  0
  156.8347  139.1172  167.0787 H   0  0  0  0  0  0  0  0  0  0  0  0
  157.3522  141.2058  165.8753 H   0  0  0  0  0  0  0  0  0  0  0  0
  157.8147  142.8001  168.1838 H   0  0  0  0  0  0  0  0  0  0  0  0
  157.0489  143.3877  166.7150 H   0  0  0  0  0  0  0  0  0  0  0  0
  155.8701  140.3306  163.8960 H   0  0  0  0  0  0  0  0  0  0  0  0
  153.6641  143.2374  163.9772 H   0  0  0  0  0  0  0  0  0  0  0  0
  152.2250  143.9285  162.0582 H   0  0  0  0  0  0  0  0  0  0  0  0
  152.3509  141.0071  158.4750 H   0  0  0  0  0  0  0  0  0  0  0  0
  151.0824  140.8419  159.6756 H   0  0  0  0  0  0  0  0  0  0  0  0
  150.1472  141.1577  157.3621 H   0  0  0  0  0  0  0  0  0  0  0  0
  149.6362  142.4206  158.4578 H   0  0  0  0  0  0  0  0  0  0  0  0
  151.8815  142.6251  156.3917 H   0  0  0  0  0  0  0  0  0  0  0  0
  150.3382  143.4475  156.3252 H   0  0  0  0  0  0  0  0  0  0  0  0
  152.1776  144.9506  157.1699 H   0  0  0  0  0  0  0  0  0  0  0  0
  150.8909  144.7647  158.3389 H   0  0  0  0  0  0  0  0  0  0  0  0
  153.0569  144.5298  159.4885 H   0  0  0  0  0  0  0  0  0  0  0  0
  153.5731  143.2909  158.3590 H   0  0  0  0  0  0  0  0  0  0  0  0
  155.0360  139.9356  161.5305 H   0  0  0  0  0  0  0  0  0  0  0  0
  1  2  1  0  0  0  0
  1 24  1  0  0  0  0
  1 25  1  0  0  0  0
  1 26  1  0  0  0  0
  2  3  1  0  0  0  0
  2  9  1  0  0  0  0
  2 27  1  0  0  0  0
  3  4  1  0  0  0  0
  4  5  1  0  0  0  0
  4 28  1  0  0  0  0
  4 29  1  0  0  0  0
  5  6  1  0  0  0  0
  5  7  1  0  0  0  0
  5  8  1  0  0  0  0
  9 10  2  0  0  0  0
  9 11  1  0  0  0  0
 11 12  1  0  0  0  0
 11 30  1  0  0  0  0
 12 23  1  0  0  0  0
 12 13  2  0  0  0  0
 13 14  1  0  0  0  0
 13 31  1  0  0  0  0
 14 15  2  0  0  0  0
 14 32  1  0  0  0  0
 15 16  1  0  0  0  0
 15 22  1  0  0  0  0
 16 21  1  0  0  0  0
 16 17  1  0  0  0  0
 17 18  1  0  0  0  0
 17 33  1  0  0  0  0
 17 34  1  0  0  0  0
 18 19  1  0  0  0  0
 18 35  1  0  0  0  0
 18 36  1  0  0  0  0
 19 20  1  0  0  0  0
 19 37  1  0  0  0  0
 19 38  1  0  0  0  0
 20 21  1  0  0  0  0
 20 39  1  0  0  0  0
 20 40  1  0  0  0  0
 21 41  1  0  0  0  0
 21 42  1  0  0  0  0
 22 23  2  0  0  0  0
 23 43  1  0  0  0  0
M  END
> <s_m_source_file>
AV-unprocessed.smi

> <i_m_source_file_index>
1627

> <i_lp_mmshare_version>
43012

> <i_f3d_flags>
0

> <s_epik_input>
RkMoRikoRilbQ0gyXU9bQ0BASF0oW0NIM10pQyg9TylbTkhdYzFbY0hdW2NIXWMobltjSF0xKU4yW0NIMl1bQ0gyXVtDSDJdW0NIMl1bQ0gyXTI=

> <s_epik_cmdline>
J2VwaWtfcHl0aG9uJywgJy1waCcsICc3LjAnLCAnLXRuJywgJzgnLCAnLW1hJywgJzIwMCcsICctbWV0YWxfYmluZGluZycsICctaW1hZScsICc8aW5maWxlLm1hZT4nLCAnLW9tYWUnLCAnPG91dGZpbGUubWFlPic=

> <r_lp_tautomer_probability>
1

> <r_epik_Ionization_Penalty>
0.0254771

> <r_epik_Ionization_Penalty_Charging>
0

> <r_epik_Ionization_Penalty_Neutral>
0.0254771

> <r_epik_State_Penalty>
0.0187406

> <r_epik_Charging_Adjusted_Penalty>
0.0187406

> <i_epik_Tot_Q>
0

> <i_epik_Tot_abs_Q>
0

> <r_epik_Metal_State_Penalty>
0.017939

> <b_epik_Metal_Only>
0

> <s_lp_Force_Field>
OPLS_2005

> <r_lp_Energy>
26.2479

> <b_lp_Chiralities_Consistent>
1

> <s_lp_Variant>
AV-unprocessed.smi:1627-1

> <Gold.Version>
5.8.1

> <Gold.Id.Protein>
6NUR|6NUR_protein|mol2

> <Gold.PLP.Fitness>
46.8402

> <Gold.PLP.PLP>
-49.0243

> <Gold.PLP.part.hbond>
-1.9822

> <Gold.PLP.part.metal>
0.0000

> <Gold.PLP.part.buried>
-2.9124

> <Gold.PLP.part.nonpolar>
-43.8546

> <Gold.PLP.part.repulsive>
0.0519

> <Gold.PLP.ligand.clash>
0.0000

> <Gold.PLP.ligand.torsion>
1.1865

> <Gold.PLP.Chemscore.Hbond>
0.0000

> <Gold.PLP.Chemscore.CHOScore>
0.0000

> <Gold.PLP.Chemscore.Metal>
0.0000

> <Gold.PLP.Chemscore.Internal.Correction>
0.1889

> <Gold.Rescore>
     Score         DG    S(hbond)    S(metal)    S(lipo)     H(rot)  DE(clash)    DE(int)     intcor
      7.83     -13.54       0.00        0.00     109.72       1.87       0.51       5.19       ----

> <Gold.Chemscore.Fitness>
7.8327

> <Gold.Chemscore.DG>
-13.5391

> <Gold.Chemscore.ZeroCoef>
-5.4800

> <Gold.Chemscore.Hbond>
0.0000

> <Gold.Chemscore.Metal>
0.0000

> <Gold.Chemscore.Lipo>
109.7213

> <Gold.Chemscore.Internal_Hbond>
0.0000

> <Gold.Chemscore.DEClash>
0.5134

> <Gold.Chemscore.DEInternal>
5.1930

> <Gold.Chemscore.Rot>
1.8665

> <Gold.Chemscore.Internal.Correction>
   9.000000E+99

> <Gold.Chemscore.Hbond.Weighted>
-0.0000

> <Gold.Chemscore.Metal.Weighted>
-0.0000

> <Gold.Chemscore.Lipo.Weighted>
-12.8374

> <Gold.Chemscore.Internal_Hbond.Weighted>
0.0000

> <Gold.Chemscore.DEClash.Weighted>
0.5134

> <Gold.Chemscore.DEInternal.Weighted>
5.1930

> <Gold.Chemscore.Rot.Weighted>
4.7783

> <Gold.Chemscore.Internal.Correction.Weighted>
   9.000000E+99

> <Gold.Protein.RotatedTorsions>
[ 6907 6896 6895 6894 ] final   89.16 input  -60.11 | X-H torsion
[ 7974 7965 7964 7962 ] final  -32.16 input  175.53 | X-H torsion
[ 8008 7997 7996 7995 ] final  140.86 input   59.86 | X-H torsion
[ 10167 10162 10161 10158 ] final  -41.93 input  -65.29 | X-H torsion
[ 10718 10713 10712 10709 ] final  -73.10 input   66.30 | X-H torsion
[ 10763 10752 10751 10750 ] final -156.96 input  -60.55 | X-H torsion
[ 11005 11000 10999 10996 ] final -110.25 input  -57.11 | X-H torsion

> <Gold.Protein.ActiveResidues>
 VAL166  LYS551  ARG553  GLY616  TRP617  ASP618  TYR619  PRO620  LYS621  CYS622 
 ASP623  PHE694  ASN695  SER759  ASP760  ASP761  ALA762  ILE779  LEU786  VAL792 
 PHE793  MET794  SER795  GLU796  ALA797  LYS798  CYS799  TRP800  GLU811  SER814 

> <Gold.Protein.RotatedAtoms>
  152.5433  134.2009  159.8711 H   0  0  0  0  0  0  0  0  0  0  0  0  # atno 6907 bound_to 6896
  151.1998  133.4610  159.2603 H   0  0  0  0  0  0  0  0  0  0  0  0  # atno 6908 bound_to 6896
  151.1000  134.9979  159.8500 H   0  0  0  0  0  0  0  0  0  0  0  0  # atno 6909 bound_to 6896
  146.1011  140.5758  142.8820 H   0  0  0  0  0  0  0  0  0  0  0  0  # atno 7974 bound_to 7965
  156.2974  140.2330  156.4470 H   0  0  0  0  0  0  0  0  0  0  0  0  # atno 8008 bound_to 7997
  154.8135  140.0441  157.1380 H   0  0  0  0  0  0  0  0  0  0  0  0  # atno 8009 bound_to 7997
  154.9396  140.3027  155.5131 H   0  0  0  0  0  0  0  0  0  0  0  0  # atno 8010 bound_to 7997
  140.6986  143.3066  151.3136 H   0  0  0  0  0  0  0  0  0  0  0  0  # atno 10167 bound_to 10162
  156.0293  130.4386  150.2692 H   0  0  0  0  0  0  0  0  0  0  0  0  # atno 10718 bound_to 10713
  154.7673  135.3135  154.8260 H   0  0  0  0  0  0  0  0  0  0  0  0  # atno 10763 bound_to 10752
  153.9005  135.6816  153.4760 H   0  0  0  0  0  0  0  0  0  0  0  0  # atno 10764 bound_to 10752
  153.1281  135.4792  154.9238 H   0  0  0  0  0  0  0  0  0  0  0  0  # atno 10765 bound_to 10752
  141.0802  133.9232  157.2304 H   0  0  0  0  0  0  0  0  0  0  0  0  # atno 11005 bound_to 11000
  144.7433  140.5002  143.6853 LP  0  0  0  0  0  0  0  0  0  0  0  0  # atno 17320 bound_to 7965
  145.5852  139.1491  143.3213 LP  0  0  0  0  0  0  0  0  0  0  0  0  # atno 17321 bound_to 7965
  139.6475  144.0425  152.2601 LP  0  0  0  0  0  0  0  0  0  0  0  0  # atno 17342 bound_to 10162
  139.9950  144.6334  150.7780 LP  0  0  0  0  0  0  0  0  0  0  0  0  # atno 17343 bound_to 10162
  157.0795  131.0139  151.3162 LP  0  0  0  0  0  0  0  0  0  0  0  0  # atno 17370 bound_to 10713
  157.4938  130.7838  149.7535 LP  0  0  0  0  0  0  0  0  0  0  0  0  # atno 17371 bound_to 10713
  139.9616  135.0153  156.9275 LP  0  0  0  0  0  0  0  0  0  0  0  0  # atno 17394 bound_to 11000
  140.5485  134.0650  155.7362 LP  0  0  0  0  0  0  0  0  0  0  0  0  # atno 17395 bound_to 11000

$$$$
