AV-unprocessed.smi:616|AV-procd|sdf|3072|dock8
  -GOLD-   2262023593D 1   1.00000     0.00000
 Structure written by MMmdl.
 34 35  0  0  0  0  0  0  0  0  1 V2000
  150.6049  144.7819  158.7925 C   0  0  0  0  0  0  0  0  0  0  0  0
  151.4420  143.5219  158.9392 C   0  0  0  0  0  0  0  0  0  0  0  0
  152.3193  143.4144  159.9620 C   0  0  0  0  0  0  0  0  0  0  0  0
  153.1566  142.2316  160.1666 C   0  0  0  0  0  0  0  0  0  0  0  0
  153.9570  142.1457  161.0984 O   0  0  0  0  0  0  0  0  0  0  0  0
  152.9918  141.2319  159.2574 N   0  0  0  0  0  0  0  0  0  0  0  0
  153.7833  140.0040  159.3730 C   0  0  0  0  0  0  0  0  0  0  0  0
  152.0883  141.3331  158.1857 C   0  0  0  0  0  0  0  0  0  0  0  0
  151.3126  142.4229  157.9899 C   0  0  0  0  0  0  0  0  0  0  0  0
  150.4018  142.5749  156.9296 N   0  0  0  0  0  0  0  0  0  0  0  0
  149.9826  141.6804  156.0144 C   0  0  0  0  0  0  0  0  0  0  0  0
  150.3192  140.4984  155.9476 O   0  0  0  0  0  0  0  0  0  0  0  0
  149.1206  142.2458  155.1576 N   0  0  0  0  0  0  0  0  0  0  0  0
  148.4671  141.5559  154.0530 C   0  0  0  0  0  0  0  0  0  0  0  0
  146.9584  141.7048  154.0104 C   0  0  0  0  0  0  0  0  0  0  0  0
  146.3098  143.0582  153.8317 C   0  0  0  0  0  0  0  0  0  0  0  0
  146.2237  142.3509  155.1618 C   0  0  0  0  0  0  0  0  0  0  0  0
  150.8230  145.5063  159.5779 H   0  0  0  0  0  0  0  0  0  0  0  0
  149.5431  144.5394  158.8455 H   0  0  0  0  0  0  0  0  0  0  0  0
  150.8024  145.2590  157.8323 H   0  0  0  0  0  0  0  0  0  0  0  0
  152.4148  144.2289  160.6653 H   0  0  0  0  0  0  0  0  0  0  0  0
  153.4904  139.2415  158.6508 H   0  0  0  0  0  0  0  0  0  0  0  0
  153.6716  139.5634  160.3651 H   0  0  0  0  0  0  0  0  0  0  0  0
  154.8410  140.2182  159.2137 H   0  0  0  0  0  0  0  0  0  0  0  0
  152.0909  140.4656  157.5468 H   0  0  0  0  0  0  0  0  0  0  0  0
  150.0057  143.5003  156.8526 H   0  0  0  0  0  0  0  0  0  0  0  0
  148.8956  143.2223  155.2811 H   0  0  0  0  0  0  0  0  0  0  0  0
  148.8732  141.9625  153.1266 H   0  0  0  0  0  0  0  0  0  0  0  0
  148.7330  140.4972  154.0630 H   0  0  0  0  0  0  0  0  0  0  0  0
  146.4486  140.8612  153.5487 H   0  0  0  0  0  0  0  0  0  0  0  0
  146.9600  143.9282  153.7668 H   0  0  0  0  0  0  0  0  0  0  0  0
  145.4072  143.1050  153.2261 H   0  0  0  0  0  0  0  0  0  0  0  0
  145.2623  141.9275  155.4449 H   0  0  0  0  0  0  0  0  0  0  0  0
  146.8160  142.7535  155.9811 H   0  0  0  0  0  0  0  0  0  0  0  0
  1  2  1  0  0  0  0
  1 18  1  0  0  0  0
  1 19  1  0  0  0  0
  1 20  1  0  0  0  0
  2  9  1  0  0  0  0
  2  3  2  0  0  0  0
  3  4  1  0  0  0  0
  3 21  1  0  0  0  0
  4  5  2  0  0  0  0
  4  6  1  0  0  0  0
  6  7  1  0  0  0  0
  6  8  1  0  0  0  0
  7 22  1  0  0  0  0
  7 23  1  0  0  0  0
  7 24  1  0  0  0  0
  8  9  2  0  0  0  0
  8 25  1  0  0  0  0
  9 10  1  0  0  0  0
 10 11  1  0  0  0  0
 10 26  1  0  0  0  0
 11 12  2  0  0  0  0
 11 13  1  0  0  0  0
 13 14  1  0  0  0  0
 13 27  1  0  0  0  0
 14 15  1  0  0  0  0
 14 28  1  0  0  0  0
 14 29  1  0  0  0  0
 15 17  1  0  0  0  0
 15 16  1  0  0  0  0
 15 30  1  0  0  0  0
 16 17  1  0  0  0  0
 16 31  1  0  0  0  0
 16 32  1  0  0  0  0
 17 33  1  0  0  0  0
 17 34  1  0  0  0  0
M  END
> <s_m_source_file>
AV-unprocessed.smi

> <i_m_source_file_index>
616

> <i_lp_mmshare_version>
43012

> <i_f3d_flags>
0

> <s_epik_input>
W0NIM11jMVtjSF1jKD1PKW4oW0NIM10pW2NIXWMxW05IXUMoPU8pW05IXVtDSDJdW0NIXTJbQ0gyXVtDSDJdMg==

> <s_epik_cmdline>
J2VwaWtfcHl0aG9uJywgJy1waCcsICc3LjAnLCAnLXRuJywgJzgnLCAnLW1hJywgJzIwMCcsICctbWV0YWxfYmluZGluZycsICctaW1hZScsICc8aW5maWxlLm1hZT4nLCAnLW9tYWUnLCAnPG91dGZpbGUubWFlPic=

> <r_lp_tautomer_probability>
1

> <r_epik_Ionization_Penalty>
2.97505e-05

> <r_epik_Ionization_Penalty_Charging>
8.23988e-06

> <r_epik_Ionization_Penalty_Neutral>
2.15106e-05

> <r_epik_State_Penalty>
-0

> <r_epik_Charging_Adjusted_Penalty>
8.23988e-06

> <i_epik_Tot_Q>
0

> <i_epik_Tot_abs_Q>
0

> <r_epik_Metal_State_Penalty>
-0

> <b_epik_Metal_Only>
0

> <s_lp_Force_Field>
OPLS_2005

> <r_lp_Energy>
26.2007

> <b_lp_Chiralities_Consistent>
1

> <s_lp_Variant>
AV-unprocessed.smi:616-1

> <Gold.Version>
5.8.1

> <Gold.Id.Protein>
6NUR|6NUR_protein|mol2

> <Gold.PLP.Fitness>
44.3599

> <Gold.PLP.PLP>
-38.8947

> <Gold.PLP.part.hbond>
-2.5742

> <Gold.PLP.part.metal>
0.0000

> <Gold.PLP.part.buried>
-3.9085

> <Gold.PLP.part.nonpolar>
-32.6197

> <Gold.PLP.part.repulsive>
0.2525

> <Gold.PLP.ligand.clash>
0.0000

> <Gold.PLP.ligand.torsion>
0.4045

> <Gold.PLP.Chemscore.Hbond>
1.9120

> <Gold.PLP.Chemscore.CHOScore>
0.0000

> <Gold.PLP.Chemscore.Metal>
0.0000

> <Gold.Chemscore.Hbonds>
donor molecule, donor type, donor heavy atom, donor atom, acceptor molecule, acceptor atom, score
      L1  H    10    26       P1  8028  0.89
      L1  H    13    27       P1  8028  1.00

> <Gold.PLP.Chemscore.Internal.Correction>
0.5382

> <Gold.Rescore>
     Score         DG    S(hbond)    S(metal)    S(lipo)     H(rot)  DE(clash)    DE(int)     intcor
     16.58     -18.30       1.88        0.00      81.69       1.18       0.10       1.62       ----

> <Gold.Chemscore.Fitness>
16.5812

> <Gold.Chemscore.DG>
-18.3010

> <Gold.Chemscore.ZeroCoef>
-5.4800

> <Gold.Chemscore.Hbond>
1.8849

> <Gold.Chemscore.Metal>
0.0000

> <Gold.Chemscore.Lipo>
81.6862

> <Gold.Chemscore.Internal_Hbond>
0.0000

> <Gold.Chemscore.DEClash>
0.0965

> <Gold.Chemscore.DEInternal>
1.6233

> <Gold.Chemscore.Rot>
1.1844

> <Gold.Chemscore.Internal.Correction>
   9.000000E+99

> <Gold.Chemscore.Hbonds>
donor molecule, donor type, donor heavy atom, donor atom, acceptor molecule, acceptor atom, score
      L1  H    10    26       P1  8028  0.81
      L1  H    13    27       P1  8028  0.93

> <Gold.Chemscore.Hbond.Weighted>
-6.2957

> <Gold.Chemscore.Metal.Weighted>
-0.0000

> <Gold.Chemscore.Lipo.Weighted>
-9.5573

> <Gold.Chemscore.Internal_Hbond.Weighted>
0.0000

> <Gold.Chemscore.DEClash.Weighted>
0.0965

> <Gold.Chemscore.DEInternal.Weighted>
1.6233

> <Gold.Chemscore.Rot.Weighted>
3.0320

> <Gold.Chemscore.Internal.Correction.Weighted>
   9.000000E+99

> <Gold.Protein.RotatedTorsions>
[ 6907 6896 6895 6894 ] final   82.39 input  -60.11 | X-H torsion
[ 7974 7965 7964 7962 ] final   87.11 input  175.53 | X-H torsion
[ 8008 7997 7996 7995 ] final  171.57 input   59.86 | X-H torsion
[ 10167 10162 10161 10158 ] final  145.24 input  -65.29 | X-H torsion
[ 10718 10713 10712 10709 ] final   69.89 input   66.30 | X-H torsion
[ 10763 10752 10751 10750 ] final   84.19 input  -60.55 | X-H torsion
[ 11005 11000 10999 10996 ] final   32.17 input  -57.11 | X-H torsion

> <Gold.Protein.ActiveResidues>
 VAL166  LYS551  ARG553  GLY616  TRP617  ASP618  TYR619  PRO620  LYS621  CYS622 
 ASP623  PHE694  ASN695  SER759  ASP760  ASP761  ALA762  ILE779  LEU786  VAL792 
 PHE793  MET794  SER795  GLU796  ALA797  LYS798  CYS799  TRP800  GLU811  SER814 

> <Gold.Protein.RotatedAtoms>
  152.5298  134.3057  159.9094 H   0  0  0  0  0  0  0  0  0  0  0  0  # atno 6907 bound_to 6896
  151.3007  133.4117  159.2647 H   0  0  0  0  0  0  0  0  0  0  0  0  # atno 6908 bound_to 6896
  151.0122  134.9421  159.8070 H   0  0  0  0  0  0  0  0  0  0  0  0  # atno 6909 bound_to 6896
  145.5634  139.2306  143.2447 H   0  0  0  0  0  0  0  0  0  0  0  0  # atno 7974 bound_to 7965
  156.1258  140.1508  156.9138 H   0  0  0  0  0  0  0  0  0  0  0  0  # atno 8008 bound_to 7997
  154.4870  140.0862  156.7550 H   0  0  0  0  0  0  0  0  0  0  0  0  # atno 8009 bound_to 7997
  155.4346  140.3428  155.4286 H   0  0  0  0  0  0  0  0  0  0  0  0  # atno 8010 bound_to 7997
  139.4930  144.5916  151.6670 H   0  0  0  0  0  0  0  0  0  0  0  0  # atno 10167 bound_to 10162
  157.6370  130.9449  150.0575 H   0  0  0  0  0  0  0  0  0  0  0  0  # atno 10718 bound_to 10713
  153.1359  135.4663  154.9421 H   0  0  0  0  0  0  0  0  0  0  0  0  # atno 10763 bound_to 10752
  154.7705  135.3157  154.8201 H   0  0  0  0  0  0  0  0  0  0  0  0  # atno 10764 bound_to 10752
  153.8734  135.6901  153.4826 H   0  0  0  0  0  0  0  0  0  0  0  0  # atno 10765 bound_to 10752
  140.2763  134.3024  155.7813 H   0  0  0  0  0  0  0  0  0  0  0  0  # atno 11005 bound_to 11000
  146.1835  140.6459  142.9178 LP  0  0  0  0  0  0  0  0  0  0  0  0  # atno 17320 bound_to 7965
  144.7472  140.5098  143.6827 LP  0  0  0  0  0  0  0  0  0  0  0  0  # atno 17321 bound_to 7965
  140.5544  144.0373  150.6141 LP  0  0  0  0  0  0  0  0  0  0  0  0  # atno 17342 bound_to 10162
  140.3438  143.3004  152.0560 LP  0  0  0  0  0  0  0  0  0  0  0  0  # atno 17343 bound_to 10162
  156.1618  130.3644  149.9289 LP  0  0  0  0  0  0  0  0  0  0  0  0  # atno 17370 bound_to 10713
  156.7285  130.9034  151.3624 LP  0  0  0  0  0  0  0  0  0  0  0  0  # atno 17371 bound_to 10713
  141.2170  133.7498  156.9412 LP  0  0  0  0  0  0  0  0  0  0  0  0  # atno 17394 bound_to 11000
  140.1325  134.9346  157.2357 LP  0  0  0  0  0  0  0  0  0  0  0  0  # atno 17395 bound_to 11000

$$$$
