AV-unprocessed.smi:2217|AV-procd|sdf|8968|dock3
  -GOLD-   2272012183D 1   1.00000     0.00000
 Structure written by MMmdl.
 45 48  0  0  0  0  0  0  0  0  1 V2000
  143.9991  132.3194  151.3048 C   0  0  0  0  0  0  0  0  0  0  0  0
  144.2620  133.7766  151.6220 C   0  0  0  0  0  0  0  0  0  0  0  0
  145.4248  134.4215  151.1611 C   0  0  0  0  0  0  0  0  0  0  0  0
  145.6203  135.7788  151.4812 C   0  0  0  0  0  0  0  0  0  0  0  0
  144.6535  136.4622  152.2529 C   0  0  0  0  0  0  0  0  0  0  0  0
  144.9614  137.8319  152.5056 N   0  0  0  0  0  0  0  0  0  0  0  0
  146.1325  138.4531  152.7622 C   0  0  0  0  0  0  0  0  0  0  0  0
  147.1880  137.8237  152.8076 O   0  0  0  0  0  0  0  0  0  0  0  0
  146.0705  139.7790  152.9572 N   0  0  0  0  0  0  0  0  0  0  0  0
  147.2189  140.6498  153.1705 C   0  0  2  0  0  0  0  0  0  0  0  0
  148.1411  140.1371  154.2763 C   0  0  1  0  0  0  0  0  0  0  0  0
  149.5249  139.5938  154.3065 C   0  0  0  0  0  0  0  0  0  0  0  0
  150.0639  140.4416  155.4885 C   0  0  0  0  0  0  0  0  0  0  0  0
  149.0558  141.4478  155.7483 O   0  0  0  0  0  0  0  0  0  0  0  0
  148.4099  141.6116  154.5019 C   0  0  2  0  0  0  0  0  0  0  0  0
  146.9279  141.8518  154.1482 C   0  0  0  0  0  0  0  0  0  0  0  0
  146.5785  143.1972  153.4967 C   0  0  0  0  0  0  0  0  0  0  0  0
  145.3950  143.8107  154.2485 C   0  0  0  0  0  0  0  0  0  0  0  0
  144.7207  142.6323  154.9360 C   0  0  0  0  0  0  0  0  0  0  0  0
  145.8788  141.6979  155.2695 C   0  0  0  0  0  0  0  0  0  0  0  0
  143.5337  135.8296  152.6878 N   0  0  0  0  0  0  0  0  0  0  0  0
  143.3460  134.5288  152.3815 C   0  0  0  0  0  0  0  0  0  0  0  0
  144.9337  131.7802  151.1479 H   0  0  0  0  0  0  0  0  0  0  0  0
  143.3962  132.2347  150.4005 H   0  0  0  0  0  0  0  0  0  0  0  0
  143.4628  131.8366  152.1223 H   0  0  0  0  0  0  0  0  0  0  0  0
  146.1567  133.8889  150.5716 H   0  0  0  0  0  0  0  0  0  0  0  0
  146.5082  136.2872  151.1337 H   0  0  0  0  0  0  0  0  0  0  0  0
  144.1552  138.4384  152.5380 H   0  0  0  0  0  0  0  0  0  0  0  0
  145.1628  140.2207  152.9089 H   0  0  0  0  0  0  0  0  0  0  0  0
  147.7497  140.9273  152.2549 H   0  0  0  0  0  0  0  0  0  0  0  0
  147.5553  139.6897  155.0854 H   0  0  0  0  0  0  0  0  0  0  0  0
  149.5554  138.5231  154.5105 H   0  0  0  0  0  0  0  0  0  0  0  0
  150.0630  139.7964  153.3796 H   0  0  0  0  0  0  0  0  0  0  0  0
  150.2184  139.8400  156.3846 H   0  0  0  0  0  0  0  0  0  0  0  0
  151.0129  140.9118  155.2276 H   0  0  0  0  0  0  0  0  0  0  0  0
  149.0907  142.0587  153.7683 H   0  0  0  0  0  0  0  0  0  0  0  0
  147.4261  143.8831  153.4950 H   0  0  0  0  0  0  0  0  0  0  0  0
  146.3026  143.0480  152.4527 H   0  0  0  0  0  0  0  0  0  0  0  0
  145.7642  144.5074  155.0022 H   0  0  0  0  0  0  0  0  0  0  0  0
  144.7178  144.3588  153.5928 H   0  0  0  0  0  0  0  0  0  0  0  0
  144.1458  142.9258  155.8144 H   0  0  0  0  0  0  0  0  0  0  0  0
  144.0418  142.1390  154.2390 H   0  0  0  0  0  0  0  0  0  0  0  0
  145.5200  140.6765  155.3977 H   0  0  0  0  0  0  0  0  0  0  0  0
  146.3141  141.9953  156.2245 H   0  0  0  0  0  0  0  0  0  0  0  0
  142.4376  134.0781  152.7540 H   0  0  0  0  0  0  0  0  0  0  0  0
  1  2  1  0  0  0  0
  1 23  1  0  0  0  0
  1 24  1  0  0  0  0
  1 25  1  0  0  0  0
  2 22  1  0  0  0  0
  2  3  2  0  0  0  0
  3  4  1  0  0  0  0
  3 26  1  0  0  0  0
  4  5  2  0  0  0  0
  4 27  1  0  0  0  0
  5  6  1  0  0  0  0
  5 21  1  0  0  0  0
  6  7  1  0  0  0  0
  6 28  1  0  0  0  0
  7  8  2  0  0  0  0
  7  9  1  0  0  0  0
  9 10  1  0  0  0  0
  9 29  1  0  0  0  0
 10 16  1  0  0  0  0
 10 11  1  0  0  0  0
 10 30  1  0  0  0  0
 11 15  1  0  0  0  0
 11 12  1  0  0  0  0
 11 31  1  0  0  0  0
 12 13  1  0  0  0  0
 12 32  1  0  0  0  0
 12 33  1  0  0  0  0
 13 14  1  0  0  0  0
 13 34  1  0  0  0  0
 13 35  1  0  0  0  0
 14 15  1  0  0  0  0
 15 16  1  0  0  0  0
 15 36  1  0  0  0  0
 16 20  1  0  0  0  0
 16 17  1  0  0  0  0
 17 18  1  0  0  0  0
 17 37  1  0  0  0  0
 17 38  1  0  0  0  0
 18 19  1  0  0  0  0
 18 39  1  0  0  0  0
 18 40  1  0  0  0  0
 19 20  1  0  0  0  0
 19 41  1  0  0  0  0
 19 42  1  0  0  0  0
 20 43  1  0  0  0  0
 20 44  1  0  0  0  0
 21 22  2  0  0  0  0
 22 45  1  0  0  0  0
M  END
> <s_m_source_file>
AV-unprocessed.smi

> <i_m_source_file_index>
2217

> <i_lp_mmshare_version>
43012

> <i_f3d_flags>
0

> <s_epik_input>
W0NIM11jMVtjSF1bY0hdYyhuW2NIXTEpW05IXUMoPU8pW05IXVtDQEBIXTJbQ0BASF0oW0NIMl1bQ0gyXU8zKVtDQEhdM0MyNFtDSDJdW0NIMl1bQ0gyXVtDSDJdNA==

> <s_epik_cmdline>
J2VwaWtfcHl0aG9uJywgJy1waCcsICc3LjAnLCAnLXRuJywgJzgnLCAnLW1hJywgJzIwMCcsICctbWV0YWxfYmluZGluZycsICctaW1hZScsICc8aW5maWxlLm1hZT4nLCAnLW9tYWUnLCAnPG91dGZpbGUubWFlPic=

> <r_lp_tautomer_probability>
1

> <r_epik_Ionization_Penalty>
6.14796e-05

> <r_epik_Ionization_Penalty_Charging>
0

> <r_epik_Ionization_Penalty_Neutral>
6.14796e-05

> <r_epik_State_Penalty>
-0

> <r_epik_Charging_Adjusted_Penalty>
0

> <i_epik_Tot_Q>
0

> <i_epik_Tot_abs_Q>
0

> <r_epik_Metal_State_Penalty>
-0

> <b_epik_Metal_Only>
0

> <s_lp_Force_Field>
OPLS_2005

> <r_lp_Energy>
79.4862

> <b_lp_Chiralities_Consistent>
1

> <s_lp_Variant>
AV-unprocessed.smi:2217-1

> <Gold.Version>
5.8.1

> <Gold.Id.Protein>
6NUR|6NUR_protein|mol2

> <Gold.PLP.Fitness>
42.6856

> <Gold.PLP.PLP>
-38.0832

> <Gold.PLP.part.hbond>
-2.8510

> <Gold.PLP.part.metal>
0.0000

> <Gold.PLP.part.buried>
-3.6887

> <Gold.PLP.part.nonpolar>
-35.4129

> <Gold.PLP.part.repulsive>
4.0944

> <Gold.PLP.ligand.clash>
0.0000

> <Gold.PLP.ligand.torsion>
0.4915

> <Gold.PLP.Chemscore.Hbond>
1.7680

> <Gold.PLP.Chemscore.CHOScore>
0.0000

> <Gold.PLP.Chemscore.Metal>
0.0000

> <Gold.Chemscore.Hbonds>
donor molecule, donor type, donor heavy atom, donor atom, acceptor molecule, acceptor atom, score
      L1  H     6    28       P1 10175  0.76
      L1  H     9    29       P1 10175  1.00

> <Gold.PLP.Chemscore.Internal.Correction>
0.2814

> <Gold.Rescore>
     Score         DG    S(hbond)    S(metal)    S(lipo)     H(rot)  DE(clash)    DE(int)     intcor
     14.29     -19.29       1.84        0.00      87.52       1.00       1.99       3.02       ----

> <Gold.Chemscore.Fitness>
14.2897

> <Gold.Chemscore.DG>
-19.2939

> <Gold.Chemscore.ZeroCoef>
-5.4800

> <Gold.Chemscore.Hbond>
1.8366

> <Gold.Chemscore.Metal>
0.0000

> <Gold.Chemscore.Lipo>
87.5200

> <Gold.Chemscore.Internal_Hbond>
0.0000

> <Gold.Chemscore.DEClash>
1.9889

> <Gold.Chemscore.DEInternal>
3.0153

> <Gold.Chemscore.Rot>
1.0000

> <Gold.Chemscore.Internal.Correction>
   9.000000E+99

> <Gold.Chemscore.Hbonds>
donor molecule, donor type, donor heavy atom, donor atom, acceptor molecule, acceptor atom, score
      L1  H     6    28       P1 10175  0.72
      L1  H     9    29       P1 10175  0.94

> <Gold.Chemscore.Hbond.Weighted>
-6.1341

> <Gold.Chemscore.Metal.Weighted>
-0.0000

> <Gold.Chemscore.Lipo.Weighted>
-10.2398

> <Gold.Chemscore.Internal_Hbond.Weighted>
0.0000

> <Gold.Chemscore.DEClash.Weighted>
1.9889

> <Gold.Chemscore.DEInternal.Weighted>
3.0153

> <Gold.Chemscore.Rot.Weighted>
2.5600

> <Gold.Chemscore.Internal.Correction.Weighted>
   9.000000E+99

> <Gold.Protein.RotatedTorsions>
[ 6907 6896 6895 6894 ] final  137.33 input  -60.11 | X-H torsion
[ 7974 7965 7964 7962 ] final -116.91 input  175.53 | X-H torsion
[ 8008 7997 7996 7995 ] final   47.48 input   59.86 | X-H torsion
[ 10167 10162 10161 10158 ] final   22.60 input  -65.29 | X-H torsion
[ 10718 10713 10712 10709 ] final   58.66 input   66.30 | X-H torsion
[ 10763 10752 10751 10750 ] final  158.86 input  -60.55 | X-H torsion
[ 11005 11000 10999 10996 ] final   23.97 input  -57.11 | X-H torsion

> <Gold.Protein.ActiveResidues>
 VAL166  LYS551  ARG553  GLY616  TRP617  ASP618  TYR619  PRO620  LYS621  CYS622 
 ASP623  PHE694  ASN695  SER759  ASP760  ASP761  ALA762  ILE779  LEU786  VAL792 
 PHE793  MET794  SER795  GLU796  ALA797  LYS798  CYS799  TRP800  GLU811  SER814 

> <Gold.Protein.RotatedAtoms>
  152.2792  133.5455  159.5487 H   0  0  0  0  0  0  0  0  0  0  0  0  # atno 6907 bound_to 6896
  150.7189  134.0588  159.3833 H   0  0  0  0  0  0  0  0  0  0  0  0  # atno 6908 bound_to 6896
  151.8499  135.0561  160.0508 H   0  0  0  0  0  0  0  0  0  0  0  0  # atno 6909 bound_to 6896
  145.0913  140.8491  143.3981 H   0  0  0  0  0  0  0  0  0  0  0  0  # atno 7974 bound_to 7965
  155.3698  140.3423  155.4243 H   0  0  0  0  0  0  0  0  0  0  0  0  # atno 8008 bound_to 7997
  156.1668  140.1619  156.8551 H   0  0  0  0  0  0  0  0  0  0  0  0  # atno 8009 bound_to 7997
  154.5193  140.0770  156.8124 H   0  0  0  0  0  0  0  0  0  0  0  0  # atno 8010 bound_to 7997
  140.5336  143.9799  150.6479 H   0  0  0  0  0  0  0  0  0  0  0  0  # atno 10167 bound_to 10162
  157.5614  130.8838  149.9117 H   0  0  0  0  0  0  0  0  0  0  0  0  # atno 10718 bound_to 10713
  154.2227  135.2781  155.2919 H   0  0  0  0  0  0  0  0  0  0  0  0  # atno 10763 bound_to 10752
  154.5688  135.5624  153.7079 H   0  0  0  0  0  0  0  0  0  0  0  0  # atno 10764 bound_to 10752
  153.0038  135.6316  154.2367 H   0  0  0  0  0  0  0  0  0  0  0  0  # atno 10765 bound_to 10752
  140.3638  134.2096  155.7670 H   0  0  0  0  0  0  0  0  0  0  0  0  # atno 11005 bound_to 11000
  145.1063  139.2788  143.5660 LP  0  0  0  0  0  0  0  0  0  0  0  0  # atno 17320 bound_to 7965
  146.3531  140.0645  142.8627 LP  0  0  0  0  0  0  0  0  0  0  0  0  # atno 17321 bound_to 7965
  140.3181  143.3155  152.0812 LP  0  0  0  0  0  0  0  0  0  0  0  0  # atno 17342 bound_to 10162
  139.4963  144.6592  151.6503 LP  0  0  0  0  0  0  0  0  0  0  0  0  # atno 17343 bound_to 10162
  156.0666  130.3691  150.0865 LP  0  0  0  0  0  0  0  0  0  0  0  0  # atno 17370 bound_to 10713
  156.9029  130.9626  151.3574 LP  0  0  0  0  0  0  0  0  0  0  0  0  # atno 17371 bound_to 10713
  141.1976  133.8056  157.0621 LP  0  0  0  0  0  0  0  0  0  0  0  0  # atno 17394 bound_to 11000
  140.0605  134.9757  157.1297 LP  0  0  0  0  0  0  0  0  0  0  0  0  # atno 17395 bound_to 11000

$$$$
