AV-unprocessed.smi:1041|AV-procd|sdf|4531|dock5
  -GOLD-   22720 2553D 1   1.00000     0.00000
 Structure written by MMmdl.
 53 54  0  0  0  0  0  0  0  0  2 V2000
  152.1725  142.7703  161.9467 C   0  0  0  0  0  0  0  0  0  0  0  0
  151.3481  143.2519  160.8995 O   0  0  0  0  0  0  0  0  0  0  0  0
  151.9255  143.0577  159.6192 C   0  0  0  0  0  0  0  0  0  0  0  0
  151.2238  143.9810  158.6112 C   0  0  0  0  0  0  0  0  0  0  0  0
  150.3404  143.2405  157.6745 N   0  3  2  0  0  0  0  0  0  0  0  0
  149.3052  142.4511  158.3914 C   0  0  0  0  0  0  0  0  0  0  0  0
  148.3255  141.7788  157.4108 C   0  0  0  0  0  0  0  0  0  0  0  0
  149.0491  140.9038  156.3707 C   0  0  2  0  0  0  0  0  0  0  0  0
  149.5699  139.5819  156.9831 C   0  0  0  0  0  0  0  0  0  0  0  0
  148.4765  138.7118  157.4014 N   0  0  0  0  0  0  0  0  0  0  0  0
  148.5947  137.6412  158.2021 C   0  0  0  0  0  0  0  0  0  0  0  0
  149.6466  137.3096  158.7479 O   0  0  0  0  0  0  0  0  0  0  0  0
  147.3397  136.7870  158.3739 C   0  0  0  0  0  0  0  0  0  0  0  0
  147.5150  135.5902  159.3059 C   0  0  0  0  0  0  0  0  0  0  0  0
  147.6610  134.3163  158.8605 C   0  0  0  0  0  0  0  0  0  0  0  0
  147.6864  133.9154  157.3959 C   0  0  0  0  0  0  0  0  0  0  0  0
  147.7989  133.2608  159.7448 N   0  0  0  0  0  0  0  0  0  0  0  0
  147.7714  133.5421  161.1007 C   0  0  0  0  0  0  0  0  0  0  0  0
  147.9241  132.3193  161.9793 C   0  0  0  0  0  0  0  0  0  0  0  0
  147.6323  134.7227  161.6226 N   0  0  0  0  0  0  0  0  0  0  0  0
  147.4954  135.8287  160.7686 C   0  0  0  0  0  0  0  0  0  0  0  0
  147.3536  136.9592  161.2330 O   0  0  0  0  0  0  0  0  0  0  0  0
  150.1313  141.7596  155.6794 C   0  0  0  0  0  0  0  0  0  0  0  0
  151.0872  142.4074  156.6948 C   0  0  0  0  0  0  0  0  0  0  0  0
  147.9127  132.3294  159.3714 H   0  0  0  0  0  0  0  0  0  0  0  0
  151.6811  142.9357  162.9054 H   0  0  0  0  0  0  0  0  0  0  0  0
  153.1307  143.2914  161.9654 H   0  0  0  0  0  0  0  0  0  0  0  0
  152.3574  141.7004  161.8439 H   0  0  0  0  0  0  0  0  0  0  0  0
  153.0007  143.2343  159.6486 H   0  0  0  0  0  0  0  0  0  0  0  0
  151.7837  142.0200  159.3129 H   0  0  0  0  0  0  0  0  0  0  0  0
  150.6445  144.7443  159.1325 H   0  0  0  0  0  0  0  0  0  0  0  0
  151.9942  144.5116  158.0498 H   0  0  0  0  0  0  0  0  0  0  0  0
  149.7874  141.7066  159.0259 H   0  0  0  0  0  0  0  0  0  0  0  0
  148.7425  143.1081  159.0558 H   0  0  0  0  0  0  0  0  0  0  0  0
  147.5930  141.1866  157.9605 H   0  0  0  0  0  0  0  0  0  0  0  0
  147.7579  142.5534  156.8930 H   0  0  0  0  0  0  0  0  0  0  0  0
  148.3178  140.6275  155.6095 H   0  0  0  0  0  0  0  0  0  0  0  0
  150.2374  139.0648  156.2934 H   0  0  0  0  0  0  0  0  0  0  0  0
  150.1693  139.8017  157.8671 H   0  0  0  0  0  0  0  0  0  0  0  0
  147.5686  138.9011  157.0011 H   0  0  0  0  0  0  0  0  0  0  0  0
  146.5449  137.4317  158.7490 H   0  0  0  0  0  0  0  0  0  0  0  0
  146.9833  136.4519  157.3985 H   0  0  0  0  0  0  0  0  0  0  0  0
  148.5313  134.3810  156.8881 H   0  0  0  0  0  0  0  0  0  0  0  0
  146.7685  134.2270  156.8979 H   0  0  0  0  0  0  0  0  0  0  0  0
  147.7797  132.8352  157.2766 H   0  0  0  0  0  0  0  0  0  0  0  0
  147.6788  132.5518  163.0163 H   0  0  0  0  0  0  0  0  0  0  0  0
  148.9511  131.9551  161.9443 H   0  0  0  0  0  0  0  0  0  0  0  0
  147.2609  131.5205  161.6454 H   0  0  0  0  0  0  0  0  0  0  0  0
  150.6947  141.1737  154.9534 H   0  0  0  0  0  0  0  0  0  0  0  0
  149.6456  142.5474  155.1021 H   0  0  0  0  0  0  0  0  0  0  0  0
  151.8080  143.0159  156.1509 H   0  0  0  0  0  0  0  0  0  0  0  0
  151.6597  141.6430  157.2214 H   0  0  0  0  0  0  0  0  0  0  0  0
  149.8401  143.9401  157.1444 H   0  0  0  0  0  0  0  0  0  0  0  0
  1  2  1  0  0  0  0
  1 26  1  0  0  0  0
  1 27  1  0  0  0  0
  1 28  1  0  0  0  0
  2  3  1  0  0  0  0
  3  4  1  0  0  0  0
  3 29  1  0  0  0  0
  3 30  1  0  0  0  0
  4  5  1  0  0  0  0
  4 31  1  0  0  0  0
  4 32  1  0  0  0  0
  5 24  1  0  0  0  0
  5  6  1  0  0  0  0
  5 53  1  0  0  0  0
  6  7  1  0  0  0  0
  6 33  1  0  0  0  0
  6 34  1  0  0  0  0
  7  8  1  0  0  0  0
  7 35  1  0  0  0  0
  7 36  1  0  0  0  0
  8  9  1  0  0  0  0
  8 23  1  0  0  0  0
  8 37  1  0  0  0  0
  9 10  1  0  0  0  0
  9 38  1  0  0  0  0
  9 39  1  0  0  0  0
 10 11  1  0  0  0  0
 10 40  1  0  0  0  0
 11 12  2  0  0  0  0
 11 13  1  0  0  0  0
 13 41  1  0  0  0  0
 13 42  1  0  0  0  0
 13 14  1  0  0  0  0
 14 21  1  0  0  0  0
 14 15  2  0  0  0  0
 15 16  1  0  0  0  0
 15 17  1  0  0  0  0
 16 43  1  0  0  0  0
 16 44  1  0  0  0  0
 16 45  1  0  0  0  0
 17 25  1  0  0  0  0
 17 18  1  0  0  0  0
 18 19  1  0  0  0  0
 18 20  2  0  0  0  0
 19 46  1  0  0  0  0
 19 47  1  0  0  0  0
 19 48  1  0  0  0  0
 20 21  1  0  0  0  0
 21 22  2  0  0  0  0
 23 24  1  0  0  0  0
 23 49  1  0  0  0  0
 23 50  1  0  0  0  0
 24 51  1  0  0  0  0
 24 52  1  0  0  0  0
M  CHG  1   5   1
M  END
> <s_m_source_file>
AV-unprocessed.smi

> <i_m_source_file_index>
1041

> <i_lp_mmshare_version>
43012

> <i_f3d_flags>
0

> <s_epik_input>
W0NIM11PW0NIMl1bQ0gyXU4xW0NIMl1bQ0gyXVtDSF0oW0NIMl1bQ0gyXTEpW0NIMl1bTkhdQyg9TylbQ0gyXWMyYyhbQ0gzXSluYyhbQ0gzXSlbbkhdYzI9Tw==

> <s_epik_cmdline>
J2VwaWtfcHl0aG9uJywgJy1waCcsICc3LjAnLCAnLXRuJywgJzgnLCAnLW1hJywgJzIwMCcsICctbWV0YWxfYmluZGluZycsICctaW1hZScsICc8aW5maWxlLm1hZT4nLCAnLW9tYWUnLCAnPG91dGZpbGUubWFlPic=

> <r_lp_tautomer_probability>
0.156392

> <r_epik_Ionization_Penalty>
0.0240251

> <r_epik_Ionization_Penalty_Charging>
0.0239146

> <r_epik_Ionization_Penalty_Neutral>
0.000110474

> <r_epik_State_Penalty>
1.15942

> <r_epik_Charging_Adjusted_Penalty>
1.18333

> <i_epik_Tot_Q>
1

> <i_epik_Tot_abs_Q>
1

> <r_epik_Metal_State_Penalty>
1.33297

> <b_epik_Metal_Only>
0

> <s_lp_Force_Field>
OPLS_2005

> <r_lp_Energy>
25.6342

> <b_lp_Chiralities_Consistent>
1

> <s_lp_Variant>
AV-unprocessed.smi:1041-4

> <Gold.Version>
5.8.1

> <Gold.Id.Protein>
6NUR|6NUR_protein|mol2

> <Gold.PLP.Fitness>
44.9379

> <Gold.PLP.PLP>
-34.9350

> <Gold.PLP.part.hbond>
-3.3877

> <Gold.PLP.part.metal>
0.0000

> <Gold.PLP.part.buried>
-7.2381

> <Gold.PLP.part.nonpolar>
-23.9528

> <Gold.PLP.part.repulsive>
0.2414

> <Gold.PLP.ligand.clash>
0.0000

> <Gold.PLP.ligand.torsion>
0.8107

> <Gold.PLP.Chemscore.Hbond>
3.8240

> <Gold.PLP.Chemscore.CHOScore>
0.0000

> <Gold.PLP.Chemscore.Metal>
0.0000

> <Gold.Chemscore.Hbonds>
donor molecule, donor type, donor heavy atom, donor atom, acceptor molecule, acceptor atom, score
      L1  H     5    53       P1  8028  2.00
      P1  H  6931  6943       L1    22  0.50
      P1  H  6934  6947       L1    22  0.84

> <Gold.PLP.Chemscore.Internal.Correction>
0.1523

> <Gold.Rescore>
     Score         DG    S(hbond)    S(metal)    S(lipo)     H(rot)  DE(clash)    DE(int)     intcor
     16.09     -17.36       2.76        0.00      75.90       2.43       0.60       0.67       ----

> <Gold.Chemscore.Fitness>
16.0853

> <Gold.Chemscore.DG>
-17.3566

> <Gold.Chemscore.ZeroCoef>
-5.4800

> <Gold.Chemscore.Hbond>
2.7589

> <Gold.Chemscore.Metal>
0.0000

> <Gold.Chemscore.Lipo>
75.9008

> <Gold.Chemscore.Internal_Hbond>
0.0000

> <Gold.Chemscore.DEClash>
0.6017

> <Gold.Chemscore.DEInternal>
0.6697

> <Gold.Chemscore.Rot>
2.4291

> <Gold.Chemscore.Internal.Correction>
   9.000000E+99

> <Gold.Chemscore.Hbonds>
donor molecule, donor type, donor heavy atom, donor atom, acceptor molecule, acceptor atom, score
      L1  H     5    53       P1  8028  0.82
      P1  H  6931  6943       L1    22  0.48
      P1  H  6934  6947       L1    22  0.81

> <Gold.Chemscore.Hbond.Weighted>
-9.2148

> <Gold.Chemscore.Metal.Weighted>
-0.0000

> <Gold.Chemscore.Lipo.Weighted>
-8.8804

> <Gold.Chemscore.Internal_Hbond.Weighted>
0.0000

> <Gold.Chemscore.DEClash.Weighted>
0.6017

> <Gold.Chemscore.DEInternal.Weighted>
0.6697

> <Gold.Chemscore.Rot.Weighted>
6.2186

> <Gold.Chemscore.Internal.Correction.Weighted>
   9.000000E+99

> <Gold.Protein.RotatedTorsions>
[ 6907 6896 6895 6894 ] final -161.83 input  -60.11 | X-H torsion
[ 7974 7965 7964 7962 ] final  162.53 input  175.53 | X-H torsion
[ 8008 7997 7996 7995 ] final  -54.17 input   59.86 | X-H torsion
[ 10167 10162 10161 10158 ] final  -94.61 input  -65.29 | X-H torsion
[ 10718 10713 10712 10709 ] final  -94.13 input   66.30 | X-H torsion
[ 10763 10752 10751 10750 ] final  110.19 input  -60.55 | X-H torsion
[ 11005 11000 10999 10996 ] final  -91.24 input  -57.11 | X-H torsion

> <Gold.Protein.ActiveResidues>
 VAL166  LYS551  ARG553  GLY616  TRP617  ASP618  TYR619  PRO620  LYS621  CYS622 
 ASP623  PHE694  ASN695  SER759  ASP760  ASP761  ALA762  ILE779  LEU786  VAL792 
 PHE793  MET794  SER795  GLU796  ALA797  LYS798  CYS799  TRP800  GLU811  SER814 

> <Gold.Protein.RotatedAtoms>
  151.3708  133.3855  159.2699 H   0  0  0  0  0  0  0  0  0  0  0  0  # atno 6907 bound_to 6896
  150.9652  134.9035  159.7765 H   0  0  0  0  0  0  0  0  0  0  0  0  # atno 6908 bound_to 6896
  152.5164  134.3668  159.9356 H   0  0  0  0  0  0  0  0  0  0  0  0  # atno 6909 bound_to 6896
  144.7632  139.8052  143.6325 H   0  0  0  0  0  0  0  0  0  0  0  0  # atno 7974 bound_to 7965
  154.4154  140.1182  156.5272 H   0  0  0  0  0  0  0  0  0  0  0  0  # atno 8008 bound_to 7997
  155.6643  140.3496  155.4775 H   0  0  0  0  0  0  0  0  0  0  0  0  # atno 8009 bound_to 7997
  155.9687  140.1137  157.0821 H   0  0  0  0  0  0  0  0  0  0  0  0  # atno 8010 bound_to 7997
  140.3126  143.3096  152.0132 H   0  0  0  0  0  0  0  0  0  0  0  0  # atno 10167 bound_to 10162
  156.0022  130.5055  150.5880 H   0  0  0  0  0  0  0  0  0  0  0  0  # atno 10718 bound_to 10713
  153.4454  135.3756  155.2252 H   0  0  0  0  0  0  0  0  0  0  0  0  # atno 10763 bound_to 10752
  154.8755  135.3873  154.4102 H   0  0  0  0  0  0  0  0  0  0  0  0  # atno 10764 bound_to 10752
  153.4654  135.7087  153.6089 H   0  0  0  0  0  0  0  0  0  0  0  0  # atno 10765 bound_to 10752
  141.1549  133.7743  156.9851 H   0  0  0  0  0  0  0  0  0  0  0  0  # atno 11005 bound_to 11000
  146.1716  139.4869  142.9924 LP  0  0  0  0  0  0  0  0  0  0  0  0  # atno 17320 bound_to 7965
  145.6551  141.0254  143.1739 LP  0  0  0  0  0  0  0  0  0  0  0  0  # atno 17321 bound_to 7965
  139.4890  144.6373  151.6950 LP  0  0  0  0  0  0  0  0  0  0  0  0  # atno 17342 bound_to 10162
  140.5554  144.0356  150.6145 LP  0  0  0  0  0  0  0  0  0  0  0  0  # atno 17343 bound_to 10162
  157.3750  131.0771  151.1526 LP  0  0  0  0  0  0  0  0  0  0  0  0  # atno 17370 bound_to 10713
  157.2267  130.6506  149.5833 LP  0  0  0  0  0  0  0  0  0  0  0  0  # atno 17371 bound_to 10713
  140.1040  134.9518  157.1966 LP  0  0  0  0  0  0  0  0  0  0  0  0  # atno 17394 bound_to 11000
  140.3280  134.2841  155.7233 LP  0  0  0  0  0  0  0  0  0  0  0  0  # atno 17395 bound_to 11000

$$$$
