AV-unprocessed.smi:1584|AV-procd|sdf|6368|dock9
  -GOLD-   22720 6593D 1   1.00000     0.00000
 Structure written by MMmdl.
 39 40  0  0  0  0  0  0  0  0  1 V2000
  151.5329  137.8173  154.8784 C   0  0  0  0  0  0  0  0  0  0  0  0
  150.7058  139.1020  154.7269 C   0  0  1  0  0  0  0  0  0  0  0  0
  149.2436  138.7979  154.3473 C   0  0  0  0  0  0  0  0  0  0  0  0
  148.4842  140.0049  154.0712 N   0  0  0  0  0  0  0  0  0  0  0  0
  147.2482  140.1217  153.4705 C   0  0  0  0  0  0  0  0  0  0  0  0
  146.9344  141.4503  153.4419 C   0  0  0  0  0  0  0  0  0  0  0  0
  148.0563  142.0753  154.0543 C   0  0  0  0  0  0  0  0  0  0  0  0
  148.9825  141.2078  154.4295 N   0  0  0  0  0  0  0  0  0  0  0  0
  150.7470  139.8628  155.9743 N   0  0  0  0  0  0  0  0  0  0  0  0
  151.8304  140.0488  156.7436 C   0  0  0  0  0  0  0  0  0  0  0  0
  152.9275  139.5437  156.5035 O   0  0  0  0  0  0  0  0  0  0  0  0
  151.6435  140.9514  157.9700 C   0  0  1  0  0  0  0  0  0  0  0  0
  152.9029  140.9565  158.8448 C   0  0  0  0  0  0  0  0  0  0  0  0
  152.6666  141.8092  160.0982 C   0  0  0  0  0  0  0  0  0  0  0  0
  152.0637  143.1196  159.8145 N   0  0  0  0  0  0  0  0  0  0  0  0
  152.1718  144.0968  160.8992 C   0  0  0  0  0  0  0  0  0  0  0  0
  151.3825  143.4240  158.6832 C   0  0  0  0  0  0  0  0  0  0  0  0
  150.8390  144.5157  158.5134 O   0  0  0  0  0  0  0  0  0  0  0  0
  151.3031  142.3934  157.5444 C   0  0  0  0  0  0  0  0  0  0  0  0
  151.5320  137.2399  153.9537 H   0  0  0  0  0  0  0  0  0  0  0  0
  151.1361  137.1800  155.6694 H   0  0  0  0  0  0  0  0  0  0  0  0
  152.5712  138.0449  155.1220 H   0  0  0  0  0  0  0  0  0  0  0  0
  151.1462  139.6897  153.9190 H   0  0  0  0  0  0  0  0  0  0  0  0
  149.2077  138.1622  153.4614 H   0  0  0  0  0  0  0  0  0  0  0  0
  148.7454  138.2466  155.1460 H   0  0  0  0  0  0  0  0  0  0  0  0
  146.6991  139.2593  153.1225 H   0  0  0  0  0  0  0  0  0  0  0  0
  146.0396  141.9061  153.0451 H   0  0  0  0  0  0  0  0  0  0  0  0
  148.2237  143.1264  154.2371 H   0  0  0  0  0  0  0  0  0  0  0  0
  149.8883  140.3123  156.2570 H   0  0  0  0  0  0  0  0  0  0  0  0
  150.8146  140.5609  158.5640 H   0  0  0  0  0  0  0  0  0  0  0  0
  153.1787  139.9418  159.1354 H   0  0  0  0  0  0  0  0  0  0  0  0
  153.7486  141.3615  158.2860 H   0  0  0  0  0  0  0  0  0  0  0  0
  152.0032  141.2764  160.7806 H   0  0  0  0  0  0  0  0  0  0  0  0
  153.6146  141.9385  160.6224 H   0  0  0  0  0  0  0  0  0  0  0  0
  151.1844  144.4425  161.2095 H   0  0  0  0  0  0  0  0  0  0  0  0
  152.7516  144.9626  160.5764 H   0  0  0  0  0  0  0  0  0  0  0  0
  152.6599  143.6812  161.7815 H   0  0  0  0  0  0  0  0  0  0  0  0
  151.9845  142.7313  156.7618 H   0  0  0  0  0  0  0  0  0  0  0  0
  150.3015  142.4231  157.1130 H   0  0  0  0  0  0  0  0  0  0  0  0
  1  2  1  0  0  0  0
  1 20  1  0  0  0  0
  1 21  1  0  0  0  0
  1 22  1  0  0  0  0
  2  3  1  0  0  0  0
  2  9  1  0  0  0  0
  2 23  1  0  0  0  0
  3  4  1  0  0  0  0
  3 24  1  0  0  0  0
  3 25  1  0  0  0  0
  4  8  1  0  0  0  0
  4  5  1  0  0  0  0
  5  6  2  0  0  0  0
  5 26  1  0  0  0  0
  6  7  1  0  0  0  0
  6 27  1  0  0  0  0
  7  8  2  0  0  0  0
  7 28  1  0  0  0  0
  9 10  1  0  0  0  0
  9 29  1  0  0  0  0
 10 11  2  0  0  0  0
 10 12  1  0  0  0  0
 12 19  1  0  0  0  0
 12 13  1  0  0  0  0
 12 30  1  0  0  0  0
 13 14  1  0  0  0  0
 13 31  1  0  0  0  0
 13 32  1  0  0  0  0
 14 15  1  0  0  0  0
 14 33  1  0  0  0  0
 14 34  1  0  0  0  0
 15 16  1  0  0  0  0
 15 17  1  0  0  0  0
 16 35  1  0  0  0  0
 16 36  1  0  0  0  0
 16 37  1  0  0  0  0
 17 18  2  0  0  0  0
 17 19  1  0  0  0  0
 19 38  1  0  0  0  0
 19 39  1  0  0  0  0
M  END
> <s_m_source_file>
AV-unprocessed.smi

> <i_m_source_file_index>
1584

> <i_lp_mmshare_version>
43012

> <i_f3d_flags>
0

> <s_epik_input>
bjFbY0hdW2NIXVtjSF1uMVtDSDJdW0NAQEhdKFtDSDNdKVtOSF1DKD1PKVtDQEBIXTJbQ0gyXVtDSDJdTihbQ0gzXSlDKD1PKVtDSDJdMg==

> <s_epik_cmdline>
J2VwaWtfcHl0aG9uJywgJy1waCcsICc3LjAnLCAnLXRuJywgJzgnLCAnLW1hJywgJzIwMCcsICctbWV0YWxfYmluZGluZycsICctaW1hZScsICc8aW5maWxlLm1hZT4nLCAnLW9tYWUnLCAnPG91dGZpbGUubWFlPic=

> <r_lp_tautomer_probability>
1

> <r_epik_Ionization_Penalty>
0.000299422

> <r_epik_Ionization_Penalty_Charging>
0

> <r_epik_Ionization_Penalty_Neutral>
0.000299422

> <r_epik_State_Penalty>
-0

> <r_epik_Charging_Adjusted_Penalty>
0

> <i_epik_Tot_Q>
0

> <i_epik_Tot_abs_Q>
0

> <r_epik_Metal_State_Penalty>
-0

> <b_epik_Metal_Only>
0

> <s_lp_Force_Field>
OPLS_2005

> <r_lp_Energy>
13.2703

> <b_lp_Chiralities_Consistent>
1

> <s_lp_Variant>
AV-unprocessed.smi:1584-4

> <Gold.Version>
5.8.1

> <Gold.Id.Protein>
6NUR|6NUR_protein|mol2

> <Gold.PLP.Fitness>
45.5972

> <Gold.PLP.PLP>
-40.4891

> <Gold.PLP.part.hbond>
-0.8615

> <Gold.PLP.part.metal>
0.0000

> <Gold.PLP.part.buried>
-4.4626

> <Gold.PLP.part.nonpolar>
-34.8521

> <Gold.PLP.part.repulsive>
0.3934

> <Gold.PLP.ligand.clash>
0.0000

> <Gold.PLP.ligand.torsion>
0.4580

> <Gold.PLP.Chemscore.Hbond>
1.0000

> <Gold.PLP.Chemscore.CHOScore>
1.0000

> <Gold.PLP.Chemscore.Metal>
0.0000

> <Gold.Chemscore.Hbonds>
donor molecule, donor type, donor heavy atom, donor atom, acceptor molecule, acceptor atom, score
      P1  H  7997  8009       L1    11  1.00
      L1  C     7    28       P1  8028  1.00

> <Gold.PLP.Chemscore.Internal.Correction>
0.0240

> <Gold.Rescore>
     Score         DG    S(hbond)    S(metal)    S(lipo)     H(rot)  DE(clash)    DE(int)     intcor
     12.87     -14.59       0.97        0.00      86.83       1.67       0.02       1.70       ----

> <Gold.Chemscore.Fitness>
12.8658

> <Gold.Chemscore.DG>
-14.5858

> <Gold.Chemscore.ZeroCoef>
-5.4800

> <Gold.Chemscore.Hbond>
0.9674

> <Gold.Chemscore.Metal>
0.0000

> <Gold.Chemscore.Lipo>
86.8272

> <Gold.Chemscore.Internal_Hbond>
0.0000

> <Gold.Chemscore.DEClash>
0.0157

> <Gold.Chemscore.DEInternal>
1.7043

> <Gold.Chemscore.Rot>
1.6734

> <Gold.Chemscore.Internal.Correction>
   9.000000E+99

> <Gold.Chemscore.Hbonds>
donor molecule, donor type, donor heavy atom, donor atom, acceptor molecule, acceptor atom, score
      P1  H  7997  8009       L1    11  0.96

> <Gold.Chemscore.Hbond.Weighted>
-3.2310

> <Gold.Chemscore.Metal.Weighted>
-0.0000

> <Gold.Chemscore.Lipo.Weighted>
-10.1588

> <Gold.Chemscore.Internal_Hbond.Weighted>
0.0000

> <Gold.Chemscore.DEClash.Weighted>
0.0157

> <Gold.Chemscore.DEInternal.Weighted>
1.7043

> <Gold.Chemscore.Rot.Weighted>
4.2840

> <Gold.Chemscore.Internal.Correction.Weighted>
   9.000000E+99

> <Gold.Protein.RotatedTorsions>
[ 6907 6896 6895 6894 ] final -115.79 input  -60.11 | X-H torsion
[ 7974 7965 7964 7962 ] final  168.76 input  175.53 | X-H torsion
[ 8008 7997 7996 7995 ] final  175.82 input   59.86 | X-H torsion
[ 10167 10162 10161 10158 ] final   -8.37 input  -65.29 | X-H torsion
[ 10718 10713 10712 10709 ] final    4.51 input   66.30 | X-H torsion
[ 10763 10752 10751 10750 ] final   50.33 input  -60.55 | X-H torsion
[ 11005 11000 10999 10996 ] final  108.65 input  -57.11 | X-H torsion

> <Gold.Protein.ActiveResidues>
 VAL166  LYS551  ARG553  GLY616  TRP617  ASP618  TYR619  PRO620  LYS621  CYS622 
 ASP623  PHE694  ASN695  SER759  ASP760  ASP761  ALA762  ILE779  LEU786  VAL792 
 PHE793  MET794  SER795  GLU796  ALA797  LYS798  CYS799  TRP800  GLU811  SER814 

> <Gold.Protein.RotatedAtoms>
  150.8005  133.8609  159.3231 H   0  0  0  0  0  0  0  0  0  0  0  0  # atno 6907 bound_to 6896
  151.6422  135.1009  160.0153 H   0  0  0  0  0  0  0  0  0  0  0  0  # atno 6908 bound_to 6896
  152.4091  133.6896  159.6417 H   0  0  0  0  0  0  0  0  0  0  0  0  # atno 6909 bound_to 6896
  144.7377  139.8955  143.6406 H   0  0  0  0  0  0  0  0  0  0  0  0  # atno 7974 bound_to 7965
  156.0830  140.1399  156.9688 H   0  0  0  0  0  0  0  0  0  0  0  0  # atno 8008 bound_to 7997
  154.4596  140.0948  156.6905 H   0  0  0  0  0  0  0  0  0  0  0  0  # atno 8009 bound_to 7997
  155.5044  140.3452  155.4379 H   0  0  0  0  0  0  0  0  0  0  0  0  # atno 8010 bound_to 7997
  140.7057  143.5976  150.8830 H   0  0  0  0  0  0  0  0  0  0  0  0  # atno 10167 bound_to 10162
  156.8936  130.5696  149.5649 H   0  0  0  0  0  0  0  0  0  0  0  0  # atno 10718 bound_to 10713
  152.9785  135.5882  154.4235 H   0  0  0  0  0  0  0  0  0  0  0  0  # atno 10763 bound_to 10752
  154.3856  135.2767  155.2187 H   0  0  0  0  0  0  0  0  0  0  0  0  # atno 10764 bound_to 10752
  154.4081  135.6088  153.5991 H   0  0  0  0  0  0  0  0  0  0  0  0  # atno 10765 bound_to 10752
  139.8848  134.9436  156.6005 H   0  0  0  0  0  0  0  0  0  0  0  0  # atno 11005 bound_to 11000
  146.1110  139.4115  143.0287 LP  0  0  0  0  0  0  0  0  0  0  0  0  # atno 17320 bound_to 7965
  145.7442  140.9997  143.1285 LP  0  0  0  0  0  0  0  0  0  0  0  0  # atno 17321 bound_to 7965
  139.9701  143.6066  152.2976 LP  0  0  0  0  0  0  0  0  0  0  0  0  # atno 17342 bound_to 10162
  139.6650  144.7662  151.1891 LP  0  0  0  0  0  0  0  0  0  0  0  0  # atno 17343 bound_to 10162
  156.0616  130.5668  150.9205 LP  0  0  0  0  0  0  0  0  0  0  0  0  # atno 17370 bound_to 10713
  157.6069  131.0938  150.8864 LP  0  0  0  0  0  0  0  0  0  0  0  0  # atno 17371 bound_to 10713
  140.7887  133.8600  155.8628 LP  0  0  0  0  0  0  0  0  0  0  0  0  # atno 17394 bound_to 11000
  140.9696  134.1548  157.4587 LP  0  0  0  0  0  0  0  0  0  0  0  0  # atno 17395 bound_to 11000

$$$$
