AV-unprocessed.smi:250|AV-procd|sdf|1931|dock6
  -GOLD-   2262021 53D 1   1.00000     0.00000
 Structure written by MMmdl.
 56 60  0  0  0  0  0  0  0  0  1 V2000
  152.5212  144.0211  160.9584 C   0  0  0  0  0  0  0  0  0  0  0  0
  151.8223  143.8371  159.6933 N   0  0  0  0  0  0  0  0  0  0  0  0
  151.2115  144.7874  158.9548 C   0  0  0  0  0  0  0  0  0  0  0  0
  151.1145  145.9799  159.2375 O   0  0  0  0  0  0  0  0  0  0  0  0
  150.7208  144.2100  157.8445 N   0  0  0  0  0  0  0  0  0  0  0  0
  150.7855  142.7727  157.9680 C   0  0  1  0  0  0  0  0  0  0  0  0
  151.0074  141.8774  156.7520 C   0  0  0  0  0  0  0  0  0  0  0  0
  151.1039  140.4935  157.2442 N   0  0  0  0  0  0  0  0  0  0  0  0
  150.9542  139.5367  156.2947 C   0  0  0  0  0  0  0  0  0  0  0  0
  150.6652  139.8951  155.0151 N   0  0  0  0  0  0  0  0  0  0  0  0
  150.5026  138.9613  154.0735 C   0  0  0  0  0  0  0  0  0  0  0  0
  150.5836  137.6349  154.1913 N   0  0  0  0  0  0  0  0  0  0  0  0
  150.8802  137.2678  155.4707 C   0  0  0  0  0  0  0  0  0  0  0  0
  151.0878  138.1466  156.5716 C   0  0  0  0  0  0  0  0  0  0  0  0
  151.4041  137.4127  157.7086 N   0  0  0  0  0  0  0  0  0  0  0  0
  151.3742  136.1724  157.3057 C   0  0  0  0  0  0  0  0  0  0  0  0
  151.0451  135.9910  155.9811 N   0  0  0  0  0  0  0  0  0  0  0  0
  150.9424  134.7205  155.2781 C   0  0  0  0  0  0  0  0  0  0  0  0
  149.5201  134.0827  155.2362 C   0  0  0  0  0  0  0  0  0  0  0  0
  149.2781  133.1785  156.4826 C   0  0  0  0  0  0  0  0  0  0  0  0
  149.5315  133.8225  157.7148 O   0  0  0  0  0  0  0  0  0  0  0  0
  148.4249  135.1707  155.0921 C   0  0  0  0  0  0  0  0  0  0  0  0
  147.0514  134.5830  154.7265 C   0  0  0  0  0  0  0  0  0  0  0  0
  147.1503  133.8533  153.5106 O   0  0  0  0  0  0  0  0  0  0  0  0
  148.0290  132.7400  153.6052 C   0  0  0  0  0  0  0  0  0  0  0  0
  149.4541  133.2131  153.9544 C   0  0  0  0  0  0  0  0  0  0  0  0
  152.0390  140.2182  158.3551 C   0  0  0  0  0  0  0  0  0  0  0  0
  151.9088  141.2340  159.5232 C   0  0  0  0  0  0  0  0  0  0  0  0
  151.9640  142.6305  158.9014 C   0  0  2  0  0  0  0  0  0  0  0  0
  149.8592  142.4661  158.4612 H   0  0  0  0  0  0  0  0  0  0  0  0
  152.9046  142.7317  158.3532 H   0  0  0  0  0  0  0  0  0  0  0  0
  152.2222  144.9456  161.4542 H   0  0  0  0  0  0  0  0  0  0  0  0
  153.5981  144.0546  160.7925 H   0  0  0  0  0  0  0  0  0  0  0  0
  152.3039  143.1956  161.6365 H   0  0  0  0  0  0  0  0  0  0  0  0
  150.1948  144.6872  157.1269 H   0  0  0  0  0  0  0  0  0  0  0  0
  150.1874  142.0041  156.0468 H   0  0  0  0  0  0  0  0  0  0  0  0
  151.9267  142.1457  156.2297 H   0  0  0  0  0  0  0  0  0  0  0  0
  150.2724  139.3294  153.0845 H   0  0  0  0  0  0  0  0  0  0  0  0
  151.5801  135.3471  157.9717 H   0  0  0  0  0  0  0  0  0  0  0  0
  151.3104  134.8821  154.2640 H   0  0  0  0  0  0  0  0  0  0  0  0
  151.6469  134.0259  155.7378 H   0  0  0  0  0  0  0  0  0  0  0  0
  148.2482  132.8298  156.5289 H   0  0  0  0  0  0  0  0  0  0  0  0
  149.8965  132.2823  156.4257 H   0  0  0  0  0  0  0  0  0  0  0  0
  148.8841  134.4999  157.8387 H   0  0  0  0  0  0  0  0  0  0  0  0
  148.3384  135.7686  155.9992 H   0  0  0  0  0  0  0  0  0  0  0  0
  148.7119  135.8670  154.3032 H   0  0  0  0  0  0  0  0  0  0  0  0
  146.6641  133.9462  155.5226 H   0  0  0  0  0  0  0  0  0  0  0  0
  146.3294  135.3881  154.5902 H   0  0  0  0  0  0  0  0  0  0  0  0
  147.6485  132.0220  154.3313 H   0  0  0  0  0  0  0  0  0  0  0  0
  148.0381  132.2258  152.6440 H   0  0  0  0  0  0  0  0  0  0  0  0
  149.8257  133.7882  153.1049 H   0  0  0  0  0  0  0  0  0  0  0  0
  150.1171  132.3518  154.0448 H   0  0  0  0  0  0  0  0  0  0  0  0
  151.8729  139.2091  158.7347 H   0  0  0  0  0  0  0  0  0  0  0  0
  153.0580  140.2462  157.9665 H   0  0  0  0  0  0  0  0  0  0  0  0
  150.9712  141.0850  160.0605 H   0  0  0  0  0  0  0  0  0  0  0  0
  152.7174  141.0918  160.2401 H   0  0  0  0  0  0  0  0  0  0  0  0
  1  2  1  0  0  0  0
  1 32  1  0  0  0  0
  1 33  1  0  0  0  0
  1 34  1  0  0  0  0
  2 29  1  0  0  0  0
  2  3  1  0  0  0  0
  3  4  2  0  0  0  0
  3  5  1  0  0  0  0
  5  6  1  0  0  0  0
  5 35  1  0  0  0  0
  6 30  1  0  0  0  0
  6 29  1  0  0  0  0
  6  7  1  0  0  0  0
  7  8  1  0  0  0  0
  7 36  1  0  0  0  0
  7 37  1  0  0  0  0
  8  9  1  0  0  0  0
  8 27  1  0  0  0  0
  9 14  1  0  0  0  0
  9 10  2  0  0  0  0
 10 11  1  0  0  0  0
 11 12  2  0  0  0  0
 11 38  1  0  0  0  0
 12 13  1  0  0  0  0
 13 17  1  0  0  0  0
 13 14  2  0  0  0  0
 14 15  1  0  0  0  0
 15 16  2  0  0  0  0
 16 17  1  0  0  0  0
 16 39  1  0  0  0  0
 17 18  1  0  0  0  0
 18 19  1  0  0  0  0
 18 40  1  0  0  0  0
 18 41  1  0  0  0  0
 19 26  1  0  0  0  0
 19 20  1  0  0  0  0
 19 22  1  0  0  0  0
 20 21  1  0  0  0  0
 20 42  1  0  0  0  0
 20 43  1  0  0  0  0
 21 44  1  0  0  0  0
 22 23  1  0  0  0  0
 22 45  1  0  0  0  0
 22 46  1  0  0  0  0
 23 24  1  0  0  0  0
 23 47  1  0  0  0  0
 23 48  1  0  0  0  0
 24 25  1  0  0  0  0
 25 26  1  0  0  0  0
 25 49  1  0  0  0  0
 25 50  1  0  0  0  0
 26 51  1  0  0  0  0
 26 52  1  0  0  0  0
 27 28  1  0  0  0  0
 27 53  1  0  0  0  0
 27 54  1  0  0  0  0
 28 29  1  0  0  0  0
 28 55  1  0  0  0  0
 28 56  1  0  0  0  0
 29 31  1  0  0  0  0
M  END
> <s_m_source_file>
AV-unprocessed.smi

> <i_m_source_file_index>
250

> <i_lp_mmshare_version>
43012

> <i_f3d_flags>
0

> <s_epik_input>
Tz1DKFtOSF0xKU4oW0NIM10pW0NASF0oW0NASF0xMilbQ0gyXVtDSDJdTihbQ0gyXTIpYyhuW2NIXW4zKWMoYzM0KW5bY0hdbjRbQ0gyXUM1KFtDSDJdW09IXSlbQ0gyXVtDSDJdT1tDSDJdW0NIMl01

> <s_epik_cmdline>
J2VwaWtfcHl0aG9uJywgJy1waCcsICc3LjAnLCAnLXRuJywgJzgnLCAnLW1hJywgJzIwMCcsICctbWV0YWxfYmluZGluZycsICctaW1hZScsICc8aW5maWxlLm1hZT4nLCAnLW9tYWUnLCAnPG91dGZpbGUubWFlPic=

> <r_lp_tautomer_probability>
1

> <r_epik_Ionization_Penalty>
0.00229024

> <r_epik_Ionization_Penalty_Charging>
0

> <r_epik_Ionization_Penalty_Neutral>
0.00229024

> <r_epik_State_Penalty>
0.0013961

> <r_epik_Charging_Adjusted_Penalty>
0.0013961

> <i_epik_Tot_Q>
0

> <i_epik_Tot_abs_Q>
0

> <r_epik_Metal_State_Penalty>
-0

> <b_epik_Metal_Only>
0

> <s_lp_Force_Field>
OPLS_2005

> <r_lp_Energy>
73.7244

> <b_lp_Chiralities_Consistent>
1

> <s_lp_Variant>
AV-unprocessed.smi:250-2

> <Gold.Version>
5.8.1

> <Gold.Id.Protein>
6NUR|6NUR_protein|mol2

> <Gold.PLP.Fitness>
49.5384

> <Gold.PLP.PLP>
-42.0183

> <Gold.PLP.part.hbond>
-4.9722

> <Gold.PLP.part.metal>
0.0000

> <Gold.PLP.part.buried>
-4.4292

> <Gold.PLP.part.nonpolar>
-33.2940

> <Gold.PLP.part.repulsive>
0.6871

> <Gold.PLP.ligand.clash>
0.0000

> <Gold.PLP.ligand.torsion>
1.1002

> <Gold.PLP.Chemscore.Hbond>
2.1438

> <Gold.PLP.Chemscore.CHOScore>
1.0000

> <Gold.PLP.Chemscore.Metal>
0.0000

> <Gold.Chemscore.Hbonds>
donor molecule, donor type, donor heavy atom, donor atom, acceptor molecule, acceptor atom, score
      L1  H     5    35       P1  8028  1.00
      P1  H  6896  6909       L1    21  1.00
      P1  H  7989  7998       L1    10  0.10
      L1  C    11    38       P1  7957  1.00

> <Gold.PLP.Chemscore.Internal.Correction>
0.2891

> <Gold.Rescore>
     Score         DG    S(hbond)    S(metal)    S(lipo)     H(rot)  DE(clash)    DE(int)     intcor
     10.22     -13.92       1.28        0.00      84.02       2.22       1.49       2.21       ----

> <Gold.Chemscore.Fitness>
10.2219

> <Gold.Chemscore.DG>
-13.9248

> <Gold.Chemscore.ZeroCoef>
-5.4800

> <Gold.Chemscore.Hbond>
1.2845

> <Gold.Chemscore.Metal>
0.0000

> <Gold.Chemscore.Lipo>
84.0189

> <Gold.Chemscore.Internal_Hbond>
0.0000

> <Gold.Chemscore.DEClash>
1.4911

> <Gold.Chemscore.DEInternal>
2.2118

> <Gold.Chemscore.Rot>
2.2170

> <Gold.Chemscore.Internal.Correction>
   9.000000E+99

> <Gold.Chemscore.Hbonds>
donor molecule, donor type, donor heavy atom, donor atom, acceptor molecule, acceptor atom, score
      L1  H     5    35       P1  8028  0.39
      P1  H  6896  6909       L1    21  0.64

> <Gold.Chemscore.Hbond.Weighted>
-4.2902

> <Gold.Chemscore.Metal.Weighted>
-0.0000

> <Gold.Chemscore.Lipo.Weighted>
-9.8302

> <Gold.Chemscore.Internal_Hbond.Weighted>
0.0000

> <Gold.Chemscore.DEClash.Weighted>
1.4911

> <Gold.Chemscore.DEInternal.Weighted>
2.2118

> <Gold.Chemscore.Rot.Weighted>
5.6756

> <Gold.Chemscore.Internal.Correction.Weighted>
   9.000000E+99

> <Gold.Protein.RotatedTorsions>
[ 6907 6896 6895 6894 ] final    4.51 input  -60.11 | X-H torsion
[ 7974 7965 7964 7962 ] final  177.45 input  175.53 | X-H torsion
[ 8008 7997 7996 7995 ] final  -12.82 input   59.86 | X-H torsion
[ 10167 10162 10161 10158 ] final   88.22 input  -65.29 | X-H torsion
[ 10718 10713 10712 10709 ] final  -23.24 input   66.30 | X-H torsion
[ 10763 10752 10751 10750 ] final -134.15 input  -60.55 | X-H torsion
[ 11005 11000 10999 10996 ] final  -80.90 input  -57.11 | X-H torsion

> <Gold.Protein.ActiveResidues>
 VAL166  LYS551  ARG553  GLY616  TRP617  ASP618  TYR619  PRO620  LYS621  CYS622 
 ASP623  PHE694  ASN695  SER759  ASP760  ASP761  ALA762  ILE779  LEU786  VAL792 
 PHE793  MET794  SER795  GLU796  ALA797  LYS798  CYS799  TRP800  GLU811  SER814 

> <Gold.Protein.RotatedAtoms>
  151.6425  135.1011  160.0143 H   0  0  0  0  0  0  0  0  0  0  0  0  # atno 6907 bound_to 6896
  152.4046  133.6865  159.6354 H   0  0  0  0  0  0  0  0  0  0  0  0  # atno 6908 bound_to 6896
  150.7942  133.8648  159.3283 H   0  0  0  0  0  0  0  0  0  0  0  0  # atno 6909 bound_to 6896
  144.7169  140.0249  143.6439 H   0  0  0  0  0  0  0  0  0  0  0  0  # atno 7974 bound_to 7965
  154.5345  140.2266  155.8747 H   0  0  0  0  0  0  0  0  0  0  0  0  # atno 8008 bound_to 7997
  156.1797  140.3103  155.9089 H   0  0  0  0  0  0  0  0  0  0  0  0  # atno 8009 bound_to 7997
  155.3383  140.0449  157.3035 H   0  0  0  0  0  0  0  0  0  0  0  0  # atno 8010 bound_to 7997
  139.8695  144.6501  150.8966 H   0  0  0  0  0  0  0  0  0  0  0  0  # atno 10167 bound_to 10162
  156.4937  130.4572  149.6741 H   0  0  0  0  0  0  0  0  0  0  0  0  # atno 10718 bound_to 10713
  154.8723  135.3743  154.4688 H   0  0  0  0  0  0  0  0  0  0  0  0  # atno 10763 bound_to 10752
  153.5350  135.7027  153.5669 H   0  0  0  0  0  0  0  0  0  0  0  0  # atno 10764 bound_to 10752
  153.3856  135.3985  155.1852 H   0  0  0  0  0  0  0  0  0  0  0  0  # atno 10765 bound_to 10752
  141.1667  133.7171  156.8342 H   0  0  0  0  0  0  0  0  0  0  0  0  # atno 11005 bound_to 11000
  146.0150  139.3202  143.0847 LP  0  0  0  0  0  0  0  0  0  0  0  0  # atno 17320 bound_to 7965
  145.8636  140.9461  143.0687 LP  0  0  0  0  0  0  0  0  0  0  0  0  # atno 17321 bound_to 7965
  140.7763  143.3676  151.1709 LP  0  0  0  0  0  0  0  0  0  0  0  0  # atno 17342 bound_to 10162
  139.7298  143.9091  152.3015 LP  0  0  0  0  0  0  0  0  0  0  0  0  # atno 17343 bound_to 10162
  156.3401  130.7377  151.2321 LP  0  0  0  0  0  0  0  0  0  0  0  0  # atno 17370 bound_to 10713
  157.7471  131.0406  150.4605 LP  0  0  0  0  0  0  0  0  0  0  0  0  # atno 17371 bound_to 10713
  140.2030  134.8883  157.3190 LP  0  0  0  0  0  0  0  0  0  0  0  0  # atno 17394 bound_to 11000
  140.2168  134.4072  155.7585 LP  0  0  0  0  0  0  0  0  0  0  0  0  # atno 17395 bound_to 11000

$$$$
