AV-unprocessed.smi:1381|AV-procd|sdf|5611|dock5
  -GOLD-   22720 5223D 1   1.00000     0.00000
 Structure written by MMmdl.
 41 42  0  0  0  0  0  0  0  0  2 V2000
  143.8794  143.5050  162.3654 C   0  0  0  0  0  0  0  0  0  0  0  0
  144.9194  143.3021  161.3178 C   0  0  0  0  0  0  0  0  0  0  0  0
  144.9037  143.4165  159.9566 C   0  0  0  0  0  0  0  0  0  0  0  0
  146.2367  143.0879  159.5877 C   0  0  0  0  0  0  0  0  0  0  0  0
  146.7209  143.0505  158.3365 N   0  5  0  0  0  0  0  0  0  0  0  0
  147.5914  142.0801  157.9732 C   0  0  0  0  0  0  0  0  0  0  0  0
  147.6057  140.9185  158.3875 O   0  0  0  0  0  0  0  0  0  0  0  0
  148.5049  142.4816  157.0772 N   0  0  0  0  0  0  0  0  0  0  0  0
  149.5660  141.6563  156.5108 C   0  0  0  0  0  0  0  0  0  0  0  0
  150.4747  141.0762  157.6111 C   0  0  0  0  0  0  0  0  0  0  0  0
  150.9793  142.0534  158.5747 N   0  0  0  0  0  0  0  0  0  0  0  0
  151.5033  143.2322  157.8931 C   0  0  0  0  0  0  0  0  0  0  0  0
  152.0500  144.2939  158.8680 C   0  0  1  0  0  0  0  0  0  0  0  0
  150.9466  145.0566  159.6210 C   0  0  0  0  0  0  0  0  0  0  0  0
  152.9926  143.7020  159.7636 O   0  0  0  0  0  0  0  0  0  0  0  0
  152.5287  142.5436  160.4552 C   0  0  2  0  0  0  0  0  0  0  0  0
  153.6840  142.0008  161.3027 C   0  0  0  0  0  0  0  0  0  0  0  0
  152.0189  141.5048  159.4395 C   0  0  0  0  0  0  0  0  0  0  0  0
  146.9890  142.7811  160.6314 N   0  0  0  0  0  0  0  0  0  0  0  0
  146.1533  142.9231  161.7456 O   0  0  0  0  0  0  0  0  0  0  0  0
  143.5897  142.5536  162.8110 H   0  0  0  0  0  0  0  0  0  0  0  0
  142.9871  143.9675  161.9432 H   0  0  0  0  0  0  0  0  0  0  0  0
  144.2515  144.1528  163.1593 H   0  0  0  0  0  0  0  0  0  0  0  0
  144.0740  143.6955  159.3245 H   0  0  0  0  0  0  0  0  0  0  0  0
  148.4554  143.4397  156.7636 H   0  0  0  0  0  0  0  0  0  0  0  0
  149.1351  140.8556  155.9071 H   0  0  0  0  0  0  0  0  0  0  0  0
  150.1352  142.2886  155.8308 H   0  0  0  0  0  0  0  0  0  0  0  0
  149.9484  140.2778  158.1363 H   0  0  0  0  0  0  0  0  0  0  0  0
  151.3266  140.6004  157.1236 H   0  0  0  0  0  0  0  0  0  0  0  0
  152.3054  142.9307  157.2176 H   0  0  0  0  0  0  0  0  0  0  0  0
  150.7285  143.6777  157.2677 H   0  0  0  0  0  0  0  0  0  0  0  0
  152.6030  145.0305  158.2845 H   0  0  0  0  0  0  0  0  0  0  0  0
  150.3015  145.5920  158.9240 H   0  0  0  0  0  0  0  0  0  0  0  0
  151.3766  145.7901  160.3030 H   0  0  0  0  0  0  0  0  0  0  0  0
  150.3117  144.3895  160.2037 H   0  0  0  0  0  0  0  0  0  0  0  0
  151.7158  142.8246  161.1253 H   0  0  0  0  0  0  0  0  0  0  0  0
  153.3777  141.1179  161.8643 H   0  0  0  0  0  0  0  0  0  0  0  0
  154.0254  142.7484  162.0192 H   0  0  0  0  0  0  0  0  0  0  0  0
  154.5348  141.7237  160.6794 H   0  0  0  0  0  0  0  0  0  0  0  0
  151.6380  140.6442  159.9880 H   0  0  0  0  0  0  0  0  0  0  0  0
  152.8518  141.1457  158.8328 H   0  0  0  0  0  0  0  0  0  0  0  0
  1  2  1  0  0  0  0
  1 21  1  0  0  0  0
  1 22  1  0  0  0  0
  1 23  1  0  0  0  0
  2 20  1  0  0  0  0
  2  3  2  0  0  0  0
  3  4  1  0  0  0  0
  3 24  1  0  0  0  0
  4  5  1  0  0  0  0
  4 19  2  0  0  0  0
  5  6  1  0  0  0  0
  6  7  2  0  0  0  0
  6  8  1  0  0  0  0
  8  9  1  0  0  0  0
  8 25  1  0  0  0  0
  9 10  1  0  0  0  0
  9 26  1  0  0  0  0
  9 27  1  0  0  0  0
 10 11  1  0  0  0  0
 10 28  1  0  0  0  0
 10 29  1  0  0  0  0
 11 18  1  0  0  0  0
 11 12  1  0  0  0  0
 12 13  1  0  0  0  0
 12 30  1  0  0  0  0
 12 31  1  0  0  0  0
 13 14  1  0  0  0  0
 13 15  1  0  0  0  0
 13 32  1  0  0  0  0
 14 33  1  0  0  0  0
 14 34  1  0  0  0  0
 14 35  1  0  0  0  0
 15 16  1  0  0  0  0
 16 17  1  0  0  0  0
 16 18  1  0  0  0  0
 16 36  1  0  0  0  0
 17 37  1  0  0  0  0
 17 38  1  0  0  0  0
 17 39  1  0  0  0  0
 18 40  1  0  0  0  0
 18 41  1  0  0  0  0
 19 20  1  0  0  0  0
M  CHG  1   5  -1
M  END
> <s_m_source_file>
AV-unprocessed.smi

> <i_m_source_file_index>
1381

> <i_lp_mmshare_version>
43012

> <i_f3d_flags>
0

> <s_epik_input>
W0NIM11jMVtjSF1jKG5vMSlbTkhdQyg9TylbTkhdW0NIMl1bQ0gyXU4yW0NIMl1bQ0BASF0oW0NIM10pT1tDQEBIXShbQ0gzXSlbQ0gyXTI=

> <s_epik_cmdline>
J2VwaWtfcHl0aG9uJywgJy1waCcsICc3LjAnLCAnLXRuJywgJzgnLCAnLW1hJywgJzIwMCcsICctbWV0YWxfYmluZGluZycsICctaW1hZScsICc8aW5maWxlLm1hZT4nLCAnLW9tYWUnLCAnPG91dGZpbGUubWFlPic=

> <r_epik_Ionization_Penalty>
6.88366

> <r_epik_Ionization_Penalty_Charging>
6.57198

> <r_epik_Ionization_Penalty_Neutral>
0.311678

> <r_epik_State_Penalty>
6.77619

> <r_epik_Charging_Adjusted_Penalty>
13.3482

> <i_epik_Tot_Q>
-1

> <i_epik_Tot_abs_Q>
1

> <r_epik_Metal_State_Penalty>
2.70524

> <b_epik_Metal_Only>
1

> <s_lp_Force_Field>
OPLS_2005

> <r_lp_Energy>
15.952

> <b_lp_Chiralities_Consistent>
1

> <s_lp_Variant>
AV-unprocessed.smi:1381-10

> <Gold.Version>
5.8.1

> <Gold.Id.Protein>
6NUR|6NUR_protein|mol2

> <Gold.PLP.Fitness>
45.3220

> <Gold.PLP.PLP>
-39.0327

> <Gold.PLP.part.hbond>
-4.3721

> <Gold.PLP.part.metal>
0.0000

> <Gold.PLP.part.buried>
-5.6685

> <Gold.PLP.part.nonpolar>
-29.5424

> <Gold.PLP.part.repulsive>
0.3538

> <Gold.PLP.ligand.clash>
0.0000

> <Gold.PLP.ligand.torsion>
0.6136

> <Gold.PLP.Chemscore.Hbond>
2.4960

> <Gold.PLP.Chemscore.CHOScore>
0.0000

> <Gold.PLP.Chemscore.Metal>
0.0000

> <Gold.Chemscore.Hbonds>
donor molecule, donor type, donor heavy atom, donor atom, acceptor molecule, acceptor atom, score
      L1  H     8    25       P1  8028  1.00
      P1  H  6933  6944       L1    19  0.85
      P1  H  6934  6946       L1    19  0.47

> <Gold.PLP.Chemscore.Internal.Correction>
0.0286

> <Gold.Rescore>
     Score         DG    S(hbond)    S(metal)    S(lipo)     H(rot)  DE(clash)    DE(int)     intcor
     12.60     -15.68       0.99        0.00      92.55       1.54       0.03       3.05       ----

> <Gold.Chemscore.Fitness>
12.5986

> <Gold.Chemscore.DG>
-15.6806

> <Gold.Chemscore.ZeroCoef>
-5.4800

> <Gold.Chemscore.Hbond>
0.9930

> <Gold.Chemscore.Metal>
0.0000

> <Gold.Chemscore.Lipo>
92.5531

> <Gold.Chemscore.Internal_Hbond>
0.0000

> <Gold.Chemscore.DEClash>
0.0290

> <Gold.Chemscore.DEInternal>
3.0530

> <Gold.Chemscore.Rot>
1.5409

> <Gold.Chemscore.Internal.Correction>
   9.000000E+99

> <Gold.Chemscore.Hbonds>
donor molecule, donor type, donor heavy atom, donor atom, acceptor molecule, acceptor atom, score
      L1  H     8    25       P1  8028  0.29
      P1  H  6933  6944       L1    19  0.19
      P1  H  6934  6946       L1    19  0.02

> <Gold.Chemscore.Hbond.Weighted>
-3.3166

> <Gold.Chemscore.Metal.Weighted>
-0.0000

> <Gold.Chemscore.Lipo.Weighted>
-10.8287

> <Gold.Chemscore.Internal_Hbond.Weighted>
0.0000

> <Gold.Chemscore.DEClash.Weighted>
0.0290

> <Gold.Chemscore.DEInternal.Weighted>
3.0530

> <Gold.Chemscore.Rot.Weighted>
3.9446

> <Gold.Chemscore.Internal.Correction.Weighted>
   9.000000E+99

> <Gold.Protein.RotatedTorsions>
[ 6907 6896 6895 6894 ] final  -55.87 input  -60.11 | X-H torsion
[ 7974 7965 7964 7962 ] final  -63.50 input  175.53 | X-H torsion
[ 8008 7997 7996 7995 ] final  177.06 input   59.86 | X-H torsion
[ 10167 10162 10161 10158 ] final   15.91 input  -65.29 | X-H torsion
[ 10718 10713 10712 10709 ] final  159.75 input   66.30 | X-H torsion
[ 10763 10752 10751 10750 ] final  -49.03 input  -60.55 | X-H torsion
[ 11005 11000 10999 10996 ] final  169.16 input  -57.11 | X-H torsion

> <Gold.Protein.ActiveResidues>
 VAL166  LYS551  ARG553  GLY616  TRP617  ASP618  TYR619  PRO620  LYS621  CYS622 
 ASP623  PHE694  ASN695  SER759  ASP760  ASP761  ALA762  ILE779  LEU786  VAL792 
 PHE793  MET794  SER795  GLU796  ALA797  LYS798  CYS799  TRP800  GLU811  SER814 

> <Gold.Protein.RotatedAtoms>
  150.8215  134.7425  159.6776 H   0  0  0  0  0  0  0  0  0  0  0  0  # atno 6907 bound_to 6896
  152.4330  134.5737  159.9938 H   0  0  0  0  0  0  0  0  0  0  0  0  # atno 6908 bound_to 6896
  151.5920  133.3328  159.3065 H   0  0  0  0  0  0  0  0  0  0  0  0  # atno 6909 bound_to 6896
  145.7783  140.8776  143.0344 H   0  0  0  0  0  0  0  0  0  0  0  0  # atno 7974 bound_to 7965
  156.0698  140.1368  156.9843 H   0  0  0  0  0  0  0  0  0  0  0  0  # atno 8008 bound_to 7997
  154.4525  140.0974  156.6713 H   0  0  0  0  0  0  0  0  0  0  0  0  # atno 8009 bound_to 7997
  155.5247  140.3457  155.4416 H   0  0  0  0  0  0  0  0  0  0  0  0  # atno 8010 bound_to 7997
  140.5834  143.8936  150.6809 H   0  0  0  0  0  0  0  0  0  0  0  0  # atno 10167 bound_to 10162
  157.1598  131.0584  151.2238 H   0  0  0  0  0  0  0  0  0  0  0  0  # atno 10718 bound_to 10713
  154.0874  135.6582  153.4847 H   0  0  0  0  0  0  0  0  0  0  0  0  # atno 10763 bound_to 10752
  153.0334  135.5194  154.7414 H   0  0  0  0  0  0  0  0  0  0  0  0  # atno 10764 bound_to 10752
  154.6528  135.3003  154.9934 H   0  0  0  0  0  0  0  0  0  0  0  0  # atno 10765 bound_to 10752
  140.2949  134.7643  157.3868 H   0  0  0  0  0  0  0  0  0  0  0  0  # atno 11005 bound_to 11000
  144.6801  139.9953  143.7484 LP  0  0  0  0  0  0  0  0  0  0  0  0  # atno 17320 bound_to 7965
  146.0100  139.3162  143.0876 LP  0  0  0  0  0  0  0  0  0  0  0  0  # atno 17321 bound_to 7965
  140.2441  143.3642  152.1462 LP  0  0  0  0  0  0  0  0  0  0  0  0  # atno 17342 bound_to 10162
  139.5183  144.7004  151.5509 LP  0  0  0  0  0  0  0  0  0  0  0  0  # atno 17343 bound_to 10162
  157.4143  130.7402  149.6863 LP  0  0  0  0  0  0  0  0  0  0  0  0  # atno 17370 bound_to 10713
  155.9756  130.4087  150.3840 LP  0  0  0  0  0  0  0  0  0  0  0  0  # atno 17371 bound_to 10713
  140.1162  134.5280  155.8223 LP  0  0  0  0  0  0  0  0  0  0  0  0  # atno 17394 bound_to 11000
  141.2139  133.6741  156.6781 LP  0  0  0  0  0  0  0  0  0  0  0  0  # atno 17395 bound_to 11000

$$$$
