AV-unprocessed.smi:1840|AV-procd|sdf|7490|dock10
  -GOLD-   22720 9193D 1   1.00000     0.00000
 Structure written by MMmdl.
 43 44  0  0  0  0  0  0  0  0  1 V2000
  146.4207  139.5311  154.8980 C   0  0  0  0  0  0  0  0  0  0  0  0
  147.7786  138.8169  154.8620 C   0  0  2  0  0  0  0  0  0  0  0  0
  148.8686  139.7112  154.2329 C   0  0  0  0  0  0  0  0  0  0  0  0
  150.2127  139.2284  154.4975 N   0  0  0  0  0  0  0  0  0  0  0  0
  150.7278  137.9664  154.2863 C   0  0  0  0  0  0  0  0  0  0  0  0
  152.0262  137.9825  154.7078 C   0  0  0  0  0  0  0  0  0  0  0  0
  152.2172  139.3174  155.1622 C   0  0  0  0  0  0  0  0  0  0  0  0
  151.1312  140.0618  155.0315 N   0  0  0  0  0  0  0  0  0  0  0  0
  147.6393  137.5688  154.1127 N   0  0  0  0  0  0  0  0  0  0  0  0
  146.8148  136.5588  154.4257 C   0  0  0  0  0  0  0  0  0  0  0  0
  146.0196  136.5784  155.3652 O   0  0  0  0  0  0  0  0  0  0  0  0
  146.9849  135.5140  153.6050 N   0  0  0  0  0  0  0  0  0  0  0  0
  146.2976  134.2262  153.7096 C   0  0  1  0  0  0  0  0  0  0  0  0
  144.8420  134.3507  153.2152 C   0  0  0  0  0  0  0  0  0  0  0  0
  144.7625  134.5563  151.6926 C   0  0  0  0  0  0  0  0  0  0  0  0
  145.5105  133.4440  150.9425 C   0  0  0  0  0  0  0  0  0  0  0  0
  146.9699  133.3348  151.4128 C   0  0  0  0  0  0  0  0  0  0  0  0
  147.0613  133.1216  152.9382 C   0  0  1  0  0  0  0  0  0  0  0  0
  148.5206  132.9715  153.4033 C   0  0  0  0  0  0  0  0  0  0  0  0
  146.4792  140.4529  155.4776 H   0  0  0  0  0  0  0  0  0  0  0  0
  145.6582  138.9018  155.3582 H   0  0  0  0  0  0  0  0  0  0  0  0
  146.0800  139.7900  153.8949 H   0  0  0  0  0  0  0  0  0  0  0  0
  148.0559  138.6011  155.8956 H   0  0  0  0  0  0  0  0  0  0  0  0
  148.7299  139.7830  153.1532 H   0  0  0  0  0  0  0  0  0  0  0  0
  148.7918  140.7270  154.6233 H   0  0  0  0  0  0  0  0  0  0  0  0
  150.1313  137.1690  153.8680 H   0  0  0  0  0  0  0  0  0  0  0  0
  152.7315  137.1648  154.6963 H   0  0  0  0  0  0  0  0  0  0  0  0
  153.1069  139.7647  155.5806 H   0  0  0  0  0  0  0  0  0  0  0  0
  148.2484  137.4502  153.3168 H   0  0  0  0  0  0  0  0  0  0  0  0
  147.6626  135.6020  152.8623 H   0  0  0  0  0  0  0  0  0  0  0  0
  146.2689  133.9275  154.7592 H   0  0  0  0  0  0  0  0  0  0  0  0
  144.2970  133.4436  153.4796 H   0  0  0  0  0  0  0  0  0  0  0  0
  144.3354  135.1678  153.7303 H   0  0  0  0  0  0  0  0  0  0  0  0
  143.7193  134.5805  151.3761 H   0  0  0  0  0  0  0  0  0  0  0  0
  145.1856  135.5259  151.4276 H   0  0  0  0  0  0  0  0  0  0  0  0
  145.0034  132.4917  151.1023 H   0  0  0  0  0  0  0  0  0  0  0  0
  145.4791  133.6341  149.8693 H   0  0  0  0  0  0  0  0  0  0  0  0
  147.4572  132.5093  150.8928 H   0  0  0  0  0  0  0  0  0  0  0  0
  147.5127  134.2374  151.1289 H   0  0  0  0  0  0  0  0  0  0  0  0
  146.5638  132.1762  153.1605 H   0  0  0  0  0  0  0  0  0  0  0  0
  149.1142  133.8554  153.1687 H   0  0  0  0  0  0  0  0  0  0  0  0
  148.9978  132.1185  152.9206 H   0  0  0  0  0  0  0  0  0  0  0  0
  148.5742  132.8121  154.4806 H   0  0  0  0  0  0  0  0  0  0  0  0
  1  2  1  0  0  0  0
  1 20  1  0  0  0  0
  1 21  1  0  0  0  0
  1 22  1  0  0  0  0
  2  3  1  0  0  0  0
  2  9  1  0  0  0  0
  2 23  1  0  0  0  0
  3  4  1  0  0  0  0
  3 24  1  0  0  0  0
  3 25  1  0  0  0  0
  4  8  1  0  0  0  0
  4  5  1  0  0  0  0
  5  6  2  0  0  0  0
  5 26  1  0  0  0  0
  6  7  1  0  0  0  0
  6 27  1  0  0  0  0
  7  8  2  0  0  0  0
  7 28  1  0  0  0  0
  9 10  1  0  0  0  0
  9 29  1  0  0  0  0
 10 11  2  0  0  0  0
 10 12  1  0  0  0  0
 12 13  1  0  0  0  0
 12 30  1  0  0  0  0
 13 18  1  0  0  0  0
 13 14  1  0  0  0  0
 13 31  1  0  0  0  0
 14 15  1  0  0  0  0
 14 32  1  0  0  0  0
 14 33  1  0  0  0  0
 15 16  1  0  0  0  0
 15 34  1  0  0  0  0
 15 35  1  0  0  0  0
 16 17  1  0  0  0  0
 16 36  1  0  0  0  0
 16 37  1  0  0  0  0
 17 18  1  0  0  0  0
 17 38  1  0  0  0  0
 17 39  1  0  0  0  0
 18 19  1  0  0  0  0
 18 40  1  0  0  0  0
 19 41  1  0  0  0  0
 19 42  1  0  0  0  0
 19 43  1  0  0  0  0
M  END
> <s_m_source_file>
AV-unprocessed.smi

> <i_m_source_file_index>
1840

> <i_lp_mmshare_version>
43012

> <i_f3d_flags>
0

> <s_epik_input>
bjFbY0hdW2NIXVtjSF1uMVtDSDJdW0NAQEhdKFtDSDNdKVtOSF1DKD1PKVtOSF1bQ0BASF0yW0NIMl1bQ0gyXVtDSDJdW0NIMl1bQ0BIXTJbQ0gzXQ==

> <s_epik_cmdline>
J2VwaWtfcHl0aG9uJywgJy1waCcsICc3LjAnLCAnLXRuJywgJzgnLCAnLW1hJywgJzIwMCcsICctbWV0YWxfYmluZGluZycsICctaW1hZScsICc8aW5maWxlLm1hZT4nLCAnLW9tYWUnLCAnPG91dGZpbGUubWFlPic=

> <r_lp_tautomer_probability>
1

> <r_epik_Ionization_Penalty>
7.38659e-05

> <r_epik_Ionization_Penalty_Charging>
0

> <r_epik_Ionization_Penalty_Neutral>
7.38659e-05

> <r_epik_State_Penalty>
-0

> <r_epik_Charging_Adjusted_Penalty>
0

> <i_epik_Tot_Q>
0

> <i_epik_Tot_abs_Q>
0

> <r_epik_Metal_State_Penalty>
-0

> <b_epik_Metal_Only>
0

> <s_lp_Force_Field>
OPLS_2005

> <r_lp_Energy>
7.22709

> <b_lp_Chiralities_Consistent>
1

> <s_lp_Variant>
AV-unprocessed.smi:1840-3

> <Gold.Version>
5.8.1

> <Gold.Id.Protein>
6NUR|6NUR_protein|mol2

> <Gold.PLP.Fitness>
42.3042

> <Gold.PLP.PLP>
-31.3752

> <Gold.PLP.part.hbond>
-3.0000

> <Gold.PLP.part.metal>
0.0000

> <Gold.PLP.part.buried>
-2.9278

> <Gold.PLP.part.nonpolar>
-26.6034

> <Gold.PLP.part.repulsive>
0.0749

> <Gold.PLP.ligand.clash>
0.0000

> <Gold.PLP.ligand.torsion>
0.4014

> <Gold.PLP.Chemscore.Hbond>
2.8310

> <Gold.PLP.Chemscore.CHOScore>
1.0739

> <Gold.PLP.Chemscore.Metal>
0.0000

> <Gold.Chemscore.Hbonds>
donor molecule, donor type, donor heavy atom, donor atom, acceptor molecule, acceptor atom, score
      L1  H     9    29       P1  7948  0.98
      L1  H    12    30       P1  7948  1.00
      P1  H  7989  7998       L1     8  0.72
      L1  C     5    26       P1  7948  1.00
      L1  C     5    26       P1  7949  0.03

> <Gold.PLP.Chemscore.Internal.Correction>
0.0172

> <Gold.Rescore>
     Score         DG    S(hbond)    S(metal)    S(lipo)     H(rot)  DE(clash)    DE(int)     intcor
     15.76     -16.20       1.91        0.00      71.30       1.56       0.09       0.35       ----

> <Gold.Chemscore.Fitness>
15.7648

> <Gold.Chemscore.DG>
-16.2015

> <Gold.Chemscore.ZeroCoef>
-5.4800

> <Gold.Chemscore.Hbond>
1.9062

> <Gold.Chemscore.Metal>
0.0000

> <Gold.Chemscore.Lipo>
71.3022

> <Gold.Chemscore.Internal_Hbond>
0.0000

> <Gold.Chemscore.DEClash>
0.0871

> <Gold.Chemscore.DEInternal>
0.3495

> <Gold.Chemscore.Rot>
1.5576

> <Gold.Chemscore.Internal.Correction>
   9.000000E+99

> <Gold.Chemscore.Hbonds>
donor molecule, donor type, donor heavy atom, donor atom, acceptor molecule, acceptor atom, score
      L1  H     9    29       P1  7948  0.88
      L1  H    12    30       P1  7948  1.00
      P1  H  7989  7998       L1     8  0.02

> <Gold.Chemscore.Hbond.Weighted>
-6.3666

> <Gold.Chemscore.Metal.Weighted>
-0.0000

> <Gold.Chemscore.Lipo.Weighted>
-8.3424

> <Gold.Chemscore.Internal_Hbond.Weighted>
0.0000

> <Gold.Chemscore.DEClash.Weighted>
0.0871

> <Gold.Chemscore.DEInternal.Weighted>
0.3495

> <Gold.Chemscore.Rot.Weighted>
3.9875

> <Gold.Chemscore.Internal.Correction.Weighted>
   9.000000E+99

> <Gold.Protein.RotatedTorsions>
[ 6907 6896 6895 6894 ] final  136.25 input  -60.11 | X-H torsion
[ 7974 7965 7964 7962 ] final -100.48 input  175.53 | X-H torsion
[ 8008 7997 7996 7995 ] final  -78.29 input   59.86 | X-H torsion
[ 10167 10162 10161 10158 ] final -127.92 input  -65.29 | X-H torsion
[ 10718 10713 10712 10709 ] final   -1.25 input   66.30 | X-H torsion
[ 10763 10752 10751 10750 ] final  147.01 input  -60.55 | X-H torsion
[ 11005 11000 10999 10996 ] final -131.12 input  -57.11 | X-H torsion

> <Gold.Protein.ActiveResidues>
 VAL166  LYS551  ARG553  GLY616  TRP617  ASP618  TYR619  PRO620  LYS621  CYS622 
 ASP623  PHE694  ASN695  SER759  ASP760  ASP761  ALA762  ILE779  LEU786  VAL792 
 PHE793  MET794  SER795  GLU796  ALA797  LYS798  CYS799  TRP800  GLU811  SER814 

> <Gold.Protein.RotatedAtoms>
  152.2915  133.5566  159.5560 H   0  0  0  0  0  0  0  0  0  0  0  0  # atno 6907 bound_to 6896
  150.7237  134.0422  159.3778 H   0  0  0  0  0  0  0  0  0  0  0  0  # atno 6908 bound_to 6896
  151.8327  135.0616  160.0489 H   0  0  0  0  0  0  0  0  0  0  0  0  # atno 6909 bound_to 6896
  145.2940  140.9360  143.2862 H   0  0  0  0  0  0  0  0  0  0  0  0  # atno 7974 bound_to 7965
  154.5676  140.0696  156.8915 H   0  0  0  0  0  0  0  0  0  0  0  0  # atno 8008 bound_to 7997
  155.2695  140.3364  155.4248 H   0  0  0  0  0  0  0  0  0  0  0  0  # atno 8009 bound_to 7997
  156.2092  140.1752  156.7717 H   0  0  0  0  0  0  0  0  0  0  0  0  # atno 8010 bound_to 7997
  139.9557  143.6006  152.2461 H   0  0  0  0  0  0  0  0  0  0  0  0  # atno 10167 bound_to 10162
  156.8084  130.5416  149.5712 H   0  0  0  0  0  0  0  0  0  0  0  0  # atno 10718 bound_to 10713
  154.0313  135.2897  155.3368 H   0  0  0  0  0  0  0  0  0  0  0  0  # atno 10763 bound_to 10752
  154.6986  135.5197  153.8497 H   0  0  0  0  0  0  0  0  0  0  0  0  # atno 10764 bound_to 10752
  153.0639  135.6624  154.0526 H   0  0  0  0  0  0  0  0  0  0  0  0  # atno 10765 bound_to 10752
  140.9286  134.1349  157.4254 H   0  0  0  0  0  0  0  0  0  0  0  0  # atno 11005 bound_to 11000
  144.9149  139.4482  143.6569 LP  0  0  0  0  0  0  0  0  0  0  0  0  # atno 17320 bound_to 7965
  146.3175  139.7978  142.8972 LP  0  0  0  0  0  0  0  0  0  0  0  0  # atno 17321 bound_to 7965
  139.6593  144.7662  151.1994 LP  0  0  0  0  0  0  0  0  0  0  0  0  # atno 17342 bound_to 10162
  140.7569  143.6035  150.8676 LP  0  0  0  0  0  0  0  0  0  0  0  0  # atno 17343 bound_to 10162
  156.1059  130.6004  150.9970 LP  0  0  0  0  0  0  0  0  0  0  0  0  # atno 17370 bound_to 10713
  157.6518  131.0895  150.8033 LP  0  0  0  0  0  0  0  0  0  0  0  0  # atno 17371 bound_to 10713
  139.8791  134.9997  156.5969 LP  0  0  0  0  0  0  0  0  0  0  0  0  # atno 17394 bound_to 11000
  140.7893  133.8596  155.8632 LP  0  0  0  0  0  0  0  0  0  0  0  0  # atno 17395 bound_to 11000

$$$$
