AV-unprocessed.smi:102|AV-procd|sdf|964|dock7
  -GOLD-   2262017503D 1   1.00000     0.00000
 Structure written by MMmdl.
 43 44  0  0  0  0  0  0  0  0  2 V2000
  148.1968  131.4840  161.3485 C   0  0  0  0  0  0  0  0  0  0  0  0
  147.6552  132.8941  161.1501 C   0  0  0  0  0  0  0  0  0  0  0  0
  147.1725  133.5322  162.0859 O   0  0  0  0  0  0  0  0  0  0  0  0
  147.7734  133.3199  159.8837 O   0  0  0  0  0  0  0  0  0  0  0  0
  147.3181  134.6168  159.5372 C   0  0  0  0  0  0  0  0  0  0  0  0
  148.4448  135.6380  159.7854 C   0  0  1  0  0  0  0  0  0  0  0  0
  149.3650  135.5897  158.7006 O   0  0  0  0  0  0  0  0  0  0  0  0
  148.9147  136.4213  157.6735 C   0  0  2  0  0  0  0  0  0  0  0  0
  150.1068  137.0337  156.9734 N   0  0  0  0  0  0  0  0  0  0  0  0
  150.1404  138.4039  156.7832 C   0  0  0  0  0  0  0  0  0  0  0  0
  151.1634  138.9982  156.1358 C   0  0  0  0  0  0  0  0  0  0  0  0
  151.1680  140.3324  155.9728 F   0  0  0  0  0  0  0  0  0  0  0  0
  152.2586  138.1833  155.6141 C   0  0  0  0  0  0  0  0  0  0  0  0
  153.1966  138.7314  155.0369 O   0  0  0  0  0  0  0  0  0  0  0  0
  152.1880  136.8325  155.7922 N   0  5  0  0  0  0  0  0  0  0  0  0
  151.1496  136.2255  156.4383 C   0  0  0  0  0  0  0  0  0  0  0  0
  151.0722  135.0060  156.5765 O   0  0  0  0  0  0  0  0  0  0  0  0
  147.9608  137.4659  158.2824 C   0  0  1  0  0  0  0  0  0  0  0  0
  146.6717  137.2920  157.7002 O   0  0  0  0  0  0  0  0  0  0  0  0
  145.6639  138.1281  158.0054 C   0  0  0  0  0  0  0  0  0  0  0  0
  144.3683  137.7546  157.2977 C   0  0  0  0  0  0  0  0  0  0  0  0
  145.7234  139.0911  158.7696 O   0  0  0  0  0  0  0  0  0  0  0  0
  147.9879  137.1037  159.7680 C   0  0  1  0  0  0  0  0  0  0  0  0
  146.7444  137.3398  160.4215 O   0  0  0  0  0  0  0  0  0  0  0  0
  146.6288  137.1653  161.7488 C   0  0  0  0  0  0  0  0  0  0  0  0
  145.1787  137.1950  162.2129 C   0  0  0  0  0  0  0  0  0  0  0  0
  147.5538  136.9862  162.5409 O   0  0  0  0  0  0  0  0  0  0  0  0
  148.5080  131.0480  160.3989 H   0  0  0  0  0  0  0  0  0  0  0  0
  147.4309  130.8440  161.7866 H   0  0  0  0  0  0  0  0  0  0  0  0
  149.0567  131.5020  162.0182 H   0  0  0  0  0  0  0  0  0  0  0  0
  146.9848  134.6417  158.4992 H   0  0  0  0  0  0  0  0  0  0  0  0
  146.4549  134.8518  160.1610 H   0  0  0  0  0  0  0  0  0  0  0  0
  148.9494  135.4095  160.7248 H   0  0  0  0  0  0  0  0  0  0  0  0
  148.4204  135.8038  156.9219 H   0  0  0  0  0  0  0  0  0  0  0  0
  149.3367  139.0186  157.1612 H   0  0  0  0  0  0  0  0  0  0  0  0
  148.3428  138.4727  158.1086 H   0  0  0  0  0  0  0  0  0  0  0  0
  144.5605  137.5170  156.2512 H   0  0  0  0  0  0  0  0  0  0  0  0
  143.6581  138.5808  157.3385 H   0  0  0  0  0  0  0  0  0  0  0  0
  143.9157  136.8850  157.7745 H   0  0  0  0  0  0  0  0  0  0  0  0
  148.7623  137.7104  160.2387 H   0  0  0  0  0  0  0  0  0  0  0  0
  144.6130  137.9413  161.6547 H   0  0  0  0  0  0  0  0  0  0  0  0
  145.1225  137.4409  163.2734 H   0  0  0  0  0  0  0  0  0  0  0  0
  144.7148  136.2208  162.0584 H   0  0  0  0  0  0  0  0  0  0  0  0
  1  2  1  0  0  0  0
  1 28  1  0  0  0  0
  1 29  1  0  0  0  0
  1 30  1  0  0  0  0
  2  3  2  0  0  0  0
  2  4  1  0  0  0  0
  4  5  1  0  0  0  0
  5  6  1  0  0  0  0
  5 31  1  0  0  0  0
  5 32  1  0  0  0  0
  6 23  1  0  0  0  0
  6  7  1  0  0  0  0
  6 33  1  0  0  0  0
  7  8  1  0  0  0  0
  8  9  1  0  0  0  0
  8 18  1  0  0  0  0
  8 34  1  0  0  0  0
  9 16  1  0  0  0  0
  9 10  1  0  0  0  0
 10 11  2  0  0  0  0
 10 35  1  0  0  0  0
 11 12  1  0  0  0  0
 11 13  1  0  0  0  0
 13 14  2  0  0  0  0
 13 15  1  0  0  0  0
 15 16  1  0  0  0  0
 16 17  2  0  0  0  0
 18 19  1  0  0  0  0
 18 23  1  0  0  0  0
 18 36  1  0  0  0  0
 19 20  1  0  0  0  0
 20 21  1  0  0  0  0
 20 22  2  0  0  0  0
 21 37  1  0  0  0  0
 21 38  1  0  0  0  0
 21 39  1  0  0  0  0
 23 24  1  0  0  0  0
 23 40  1  0  0  0  0
 24 25  1  0  0  0  0
 25 26  1  0  0  0  0
 25 27  2  0  0  0  0
 26 41  1  0  0  0  0
 26 42  1  0  0  0  0
 26 43  1  0  0  0  0
M  CHG  1  15  -1
M  END
> <s_m_source_file>
AV-unprocessed.smi

> <i_m_source_file_index>
102

> <i_lp_mmshare_version>
43012

> <i_f3d_flags>
0

> <s_epik_input>
W0NIM11DKD1PKU9bQ0gyXVtDQEBIXTFPW0NASF0oW0NAQEhdKE9DKD1PKVtDSDNdKVtDQEhdMU9DKD1PKVtDSDNdKW4yW2NIXWMoRiljKD1PKVtuSF1jMj1P

> <s_epik_cmdline>
J2VwaWtfcHl0aG9uJywgJy1waCcsICc3LjAnLCAnLXRuJywgJzgnLCAnLW1hJywgJzIwMCcsICctbWV0YWxfYmluZGluZycsICctaW1hZScsICc8aW5maWxlLm1hZT4nLCAnLW9tYWUnLCAnPG91dGZpbGUubWFlPic=

> <r_epik_Ionization_Penalty>
1.40304

> <r_epik_Ionization_Penalty_Charging>
1.43915e-08

> <r_epik_Ionization_Penalty_Neutral>
1.40304

> <r_epik_State_Penalty>
1.48536

> <r_epik_Charging_Adjusted_Penalty>
1.48536

> <i_epik_Tot_Q>
-1

> <i_epik_Tot_abs_Q>
1

> <r_epik_Metal_State_Penalty>
0.00663881

> <b_epik_Metal_Only>
0

> <s_epik_Chemistry_Notes>
This compound has an ester and may undergo hydrolysis at high or low pH. This compound contains an acetal/aminal-like group ( X-CH(R)-Y where X, Y are N, S, or O) that may be acid/base labile, releasing an aldehyde.

> <s_lp_Force_Field>
OPLS_2005

> <r_lp_Energy>
22.8402

> <b_lp_Chiralities_Consistent>
1

> <s_lp_Variant>
AV-unprocessed.smi:102-20

> <Gold.Version>
5.8.1

> <Gold.Id.Protein>
6NUR|6NUR_protein|mol2

> <Gold.PLP.Fitness>
42.7020

> <Gold.PLP.PLP>
-29.1782

> <Gold.PLP.part.hbond>
-6.4692

> <Gold.PLP.part.metal>
0.0000

> <Gold.PLP.part.buried>
-3.9997

> <Gold.PLP.part.nonpolar>
-18.9108

> <Gold.PLP.part.repulsive>
0.0142

> <Gold.PLP.ligand.clash>
0.0000

> <Gold.PLP.ligand.torsion>
0.5643

> <Gold.PLP.Chemscore.Hbond>
4.8400

> <Gold.PLP.Chemscore.CHOScore>
0.0000

> <Gold.PLP.Chemscore.Metal>
0.0000

> <Gold.Chemscore.Hbonds>
donor molecule, donor type, donor heavy atom, donor atom, acceptor molecule, acceptor atom, score
      P1  H  6896  6907       L1     7  0.85
      P1  H  6931  6943       L1    27  0.89
      P1  H  7997  8008       L1    14  0.83
      P1  H 10752 10763       L1    15  2.00

> <Gold.PLP.Chemscore.Internal.Correction>
0.1324

> <Gold.Rescore>
     Score         DG    S(hbond)    S(metal)    S(lipo)     H(rot)  DE(clash)    DE(int)     intcor
      0.98      -6.38       2.28        0.00      29.95       4.00       1.12       4.28       ----

> <Gold.Chemscore.Fitness>
0.9834

> <Gold.Chemscore.DG>
-6.3828

> <Gold.Chemscore.ZeroCoef>
-5.4800

> <Gold.Chemscore.Hbond>
2.2833

> <Gold.Chemscore.Metal>
0.0000

> <Gold.Chemscore.Lipo>
29.9497

> <Gold.Chemscore.Internal_Hbond>
0.0000

> <Gold.Chemscore.DEClash>
1.1190

> <Gold.Chemscore.DEInternal>
4.2804

> <Gold.Chemscore.Rot>
3.9951

> <Gold.Chemscore.Internal.Correction>
   9.000000E+99

> <Gold.Chemscore.Hbonds>
donor molecule, donor type, donor heavy atom, donor atom, acceptor molecule, acceptor atom, score
      P1  H  6896  6907       L1     7  0.14
      P1  H  6931  6943       L1    27  0.41
      P1  H  7997  8008       L1    14  0.78
      P1  H 10752 10763       L1    15  0.52

> <Gold.Chemscore.Hbond.Weighted>
-7.6261

> <Gold.Chemscore.Metal.Weighted>
-0.0000

> <Gold.Chemscore.Lipo.Weighted>
-3.5041

> <Gold.Chemscore.Internal_Hbond.Weighted>
0.0000

> <Gold.Chemscore.DEClash.Weighted>
1.1190

> <Gold.Chemscore.DEInternal.Weighted>
4.2804

> <Gold.Chemscore.Rot.Weighted>
10.2274

> <Gold.Chemscore.Internal.Correction.Weighted>
   9.000000E+99

> <Gold.Protein.RotatedTorsions>
[ 6907 6896 6895 6894 ] final  -51.66 input  -60.11 | X-H torsion
[ 7974 7965 7964 7962 ] final -161.94 input  175.53 | X-H torsion
[ 8008 7997 7996 7995 ] final  -16.52 input   59.86 | X-H torsion
[ 10167 10162 10161 10158 ] final  -14.60 input  -65.29 | X-H torsion
[ 10718 10713 10712 10709 ] final  -10.06 input   66.30 | X-H torsion
[ 10763 10752 10751 10750 ] final   82.81 input  -60.55 | X-H torsion
[ 11005 11000 10999 10996 ] final  -26.78 input  -57.11 | X-H torsion

> <Gold.Protein.ActiveResidues>
 VAL166  LYS551  ARG553  GLY616  TRP617  ASP618  TYR619  PRO620  LYS621  CYS622 
 ASP623  PHE694  ASN695  SER759  ASP760  ASP761  ALA762  ILE779  LEU786  VAL792 
 PHE793  MET794  SER795  GLU796  ALA797  LYS798  CYS799  TRP800  GLU811  SER814 

> <Gold.Protein.RotatedAtoms>
  150.8591  134.7938  159.7068 H   0  0  0  0  0  0  0  0  0  0  0  0  # atno 6907 bound_to 6896
  152.4633  134.5130  159.9769 H   0  0  0  0  0  0  0  0  0  0  0  0  # atno 6908 bound_to 6896
  151.5237  133.3423  159.2941 H   0  0  0  0  0  0  0  0  0  0  0  0  # atno 6909 bound_to 6896
  144.7374  140.3325  143.6150 H   0  0  0  0  0  0  0  0  0  0  0  0  # atno 7974 bound_to 7965
  154.5046  140.2167  155.9276 H   0  0  0  0  0  0  0  0  0  0  0  0  # atno 8008 bound_to 7997
  156.1478  140.3167  155.8565 H   0  0  0  0  0  0  0  0  0  0  0  0  # atno 8009 bound_to 7997
  155.3998  140.0483  157.3028 H   0  0  0  0  0  0  0  0  0  0  0  0  # atno 8010 bound_to 7997
  140.7204  143.5305  150.9525 H   0  0  0  0  0  0  0  0  0  0  0  0  # atno 10167 bound_to 10162
  156.6790  130.5031  149.5977 H   0  0  0  0  0  0  0  0  0  0  0  0  # atno 10718 bound_to 10713
  153.1235  135.4714  154.9235 H   0  0  0  0  0  0  0  0  0  0  0  0  # atno 10763 bound_to 10752
  154.7598  135.3128  154.8402 H   0  0  0  0  0  0  0  0  0  0  0  0  # atno 10764 bound_to 10752
  153.8961  135.6880  153.4811 H   0  0  0  0  0  0  0  0  0  0  0  0  # atno 10765 bound_to 10752
  140.9060  133.7492  156.0606 H   0  0  0  0  0  0  0  0  0  0  0  0  # atno 11005 bound_to 11000
  145.7457  139.1778  143.2350 LP  0  0  0  0  0  0  0  0  0  0  0  0  # atno 17320 bound_to 7965
  146.1100  140.7440  142.9508 LP  0  0  0  0  0  0  0  0  0  0  0  0  # atno 17321 bound_to 7965
  139.9025  143.6818  152.3129 LP  0  0  0  0  0  0  0  0  0  0  0  0  # atno 17342 bound_to 10162
  139.7173  144.7609  151.1013 LP  0  0  0  0  0  0  0  0  0  0  0  0  # atno 17343 bound_to 10162
  156.1881  130.6542  151.1030 LP  0  0  0  0  0  0  0  0  0  0  0  0  # atno 17370 bound_to 10713
  157.7050  131.0760  150.6696 LP  0  0  0  0  0  0  0  0  0  0  0  0  # atno 17371 bound_to 10713
  140.8170  134.3333  157.5394 LP  0  0  0  0  0  0  0  0  0  0  0  0  # atno 17394 bound_to 11000
  139.8749  134.9287  156.3458 LP  0  0  0  0  0  0  0  0  0  0  0  0  # atno 17395 bound_to 11000

$$$$
