AV-unprocessed.smi:1925|AV-procd|sdf|7792|dock2
  -GOLD-   22720 9533D 1   1.00000     0.00000
 Structure written by MMmdl.
 31 32  0  0  0  0  0  0  0  0  1 V2000
  151.4584  141.4954  157.3777 O   0  0  0  0  0  0  0  0  0  0  0  0
  150.8394  142.4416  156.8897 C   0  0  0  0  0  0  0  0  0  0  0  0
  151.0579  143.7203  157.2285 N   0  0  0  0  0  0  0  0  0  0  0  0
  152.0403  144.1724  158.2084 C   0  0  0  0  0  0  0  0  0  0  0  0
  151.6322  143.8141  159.6504 C   0  0  2  0  0  0  0  0  0  0  0  0
  152.1529  144.7651  160.7183 C   0  0  0  0  0  0  0  0  0  0  0  0
  152.3196  143.8770  161.9565 C   0  0  0  0  0  0  0  0  0  0  0  0
  152.0171  142.5505  161.5379 O   0  0  0  0  0  0  0  0  0  0  0  0
  152.1794  142.4747  160.1316 C   0  0  0  0  0  0  0  0  0  0  0  0
  149.8712  142.3434  155.9616 N   0  0  0  0  0  0  0  0  0  0  0  0
  149.3428  141.1681  155.3643 C   0  0  0  0  0  0  0  0  0  0  0  0
  147.9885  141.2542  154.9694 C   0  0  0  0  0  0  0  0  0  0  0  0
  147.3694  140.1410  154.3686 C   0  0  0  0  0  0  0  0  0  0  0  0
  148.1214  138.9681  154.1784 C   0  0  0  0  0  0  0  0  0  0  0  0
  149.4636  138.9654  154.6007 C   0  0  0  0  0  0  0  0  0  0  0  0
  150.0589  140.0314  155.1762 N   0  0  0  0  0  0  0  0  0  0  0  0
  150.5053  144.4343  156.7773 H   0  0  0  0  0  0  0  0  0  0  0  0
  153.0183  143.7475  157.9763 H   0  0  0  0  0  0  0  0  0  0  0  0
  152.1438  145.2530  158.1065 H   0  0  0  0  0  0  0  0  0  0  0  0
  150.5441  143.7759  159.7237 H   0  0  0  0  0  0  0  0  0  0  0  0
  153.1197  145.1809  160.4307 H   0  0  0  0  0  0  0  0  0  0  0  0
  151.4701  145.5976  160.8916 H   0  0  0  0  0  0  0  0  0  0  0  0
  153.3432  143.9219  162.3296 H   0  0  0  0  0  0  0  0  0  0  0  0
  151.6509  144.1721  162.7653 H   0  0  0  0  0  0  0  0  0  0  0  0
  151.6429  141.6237  159.7114 H   0  0  0  0  0  0  0  0  0  0  0  0
  153.2390  142.3693  159.8925 H   0  0  0  0  0  0  0  0  0  0  0  0
  149.4615  143.2106  155.6477 H   0  0  0  0  0  0  0  0  0  0  0  0
  147.4250  142.1631  155.1231 H   0  0  0  0  0  0  0  0  0  0  0  0
  146.3356  140.1874  154.0595 H   0  0  0  0  0  0  0  0  0  0  0  0
  147.6817  138.0939  153.7213 H   0  0  0  0  0  0  0  0  0  0  0  0
  150.0760  138.0849  154.4738 H   0  0  0  0  0  0  0  0  0  0  0  0
  1  2  2  0  0  0  0
  2  3  1  0  0  0  0
  2 10  1  0  0  0  0
  3  4  1  0  0  0  0
  3 17  1  0  0  0  0
  4  5  1  0  0  0  0
  4 18  1  0  0  0  0
  4 19  1  0  0  0  0
  5  9  1  0  0  0  0
  5  6  1  0  0  0  0
  5 20  1  0  0  0  0
  6  7  1  0  0  0  0
  6 21  1  0  0  0  0
  6 22  1  0  0  0  0
  7  8  1  0  0  0  0
  7 23  1  0  0  0  0
  7 24  1  0  0  0  0
  8  9  1  0  0  0  0
  9 25  1  0  0  0  0
  9 26  1  0  0  0  0
 10 11  1  0  0  0  0
 10 27  1  0  0  0  0
 11 16  1  0  0  0  0
 11 12  2  0  0  0  0
 12 13  1  0  0  0  0
 12 28  1  0  0  0  0
 13 14  2  0  0  0  0
 13 29  1  0  0  0  0
 14 15  1  0  0  0  0
 14 30  1  0  0  0  0
 15 16  2  0  0  0  0
 15 31  1  0  0  0  0
M  END
> <s_m_source_file>
AV-unprocessed.smi

> <i_m_source_file_index>
1925

> <i_lp_mmshare_version>
43012

> <i_f3d_flags>
0

> <s_epik_input>
bjFbY0hdW2NIXVtjSF1bY0hdYzFbTkhdQyg9TylbTkhdW0NIMl1bQ0BASF0yW0NIMl1bQ0gyXU9bQ0gyXTI=

> <s_epik_cmdline>
J2VwaWtfcHl0aG9uJywgJy1waCcsICc3LjAnLCAnLXRuJywgJzgnLCAnLW1hJywgJzIwMCcsICctbWV0YWxfYmluZGluZycsICctaW1hZScsICc8aW5maWxlLm1hZT4nLCAnLW9tYWUnLCAnPG91dGZpbGUubWFlPic=

> <r_lp_tautomer_probability>
1

> <r_epik_Ionization_Penalty>
4.81143e-05

> <r_epik_Ionization_Penalty_Charging>
0

> <r_epik_Ionization_Penalty_Neutral>
4.81143e-05

> <r_epik_State_Penalty>
-0

> <r_epik_Charging_Adjusted_Penalty>
0

> <i_epik_Tot_Q>
0

> <i_epik_Tot_abs_Q>
0

> <r_epik_Metal_State_Penalty>
-0

> <b_epik_Metal_Only>
0

> <s_lp_Force_Field>
OPLS_2005

> <r_lp_Energy>
20.9741

> <b_lp_Chiralities_Consistent>
1

> <s_lp_Variant>
AV-unprocessed.smi:1925-1

> <Gold.Version>
5.8.1

> <Gold.Id.Protein>
6NUR|6NUR_protein|mol2

> <Gold.PLP.Fitness>
44.7133

> <Gold.PLP.PLP>
-36.9670

> <Gold.PLP.part.hbond>
-3.6152

> <Gold.PLP.part.metal>
0.0000

> <Gold.PLP.part.buried>
-3.4105

> <Gold.PLP.part.nonpolar>
-30.7066

> <Gold.PLP.part.repulsive>
0.3123

> <Gold.PLP.ligand.clash>
0.0000

> <Gold.PLP.ligand.torsion>
0.6242

> <Gold.PLP.Chemscore.Hbond>
2.9973

> <Gold.PLP.Chemscore.CHOScore>
0.0000

> <Gold.PLP.Chemscore.Metal>
0.0000

> <Gold.Chemscore.Hbonds>
donor molecule, donor type, donor heavy atom, donor atom, acceptor molecule, acceptor atom, score
      L1  H     3    17       P1  8028  0.90
      L1  H    10    27       P1  8028  1.00
      P1  H  6933  6945       L1     8  0.34

> <Gold.PLP.Chemscore.Internal.Correction>
0.0030

> <Gold.Rescore>
     Score         DG    S(hbond)    S(metal)    S(lipo)     H(rot)  DE(clash)    DE(int)     intcor
     18.51     -20.41       2.52        0.00      83.30       1.27       0.09       1.81       ----

> <Gold.Chemscore.Fitness>
18.5067

> <Gold.Chemscore.DG>
-20.4102

> <Gold.Chemscore.ZeroCoef>
-5.4800

> <Gold.Chemscore.Hbond>
2.5237

> <Gold.Chemscore.Metal>
0.0000

> <Gold.Chemscore.Lipo>
83.3040

> <Gold.Chemscore.Internal_Hbond>
0.0000

> <Gold.Chemscore.DEClash>
0.0900

> <Gold.Chemscore.DEInternal>
1.8135

> <Gold.Chemscore.Rot>
1.2678

> <Gold.Chemscore.Internal.Correction>
   9.000000E+99

> <Gold.Chemscore.Hbonds>
donor molecule, donor type, donor heavy atom, donor atom, acceptor molecule, acceptor atom, score
      L1  H     3    17       P1  8028  0.83
      L1  H    10    27       P1  8028  0.99
      P1  H  6933  6945       L1     8  0.26

> <Gold.Chemscore.Hbond.Weighted>
-8.4291

> <Gold.Chemscore.Metal.Weighted>
-0.0000

> <Gold.Chemscore.Lipo.Weighted>
-9.7466

> <Gold.Chemscore.Internal_Hbond.Weighted>
0.0000

> <Gold.Chemscore.DEClash.Weighted>
0.0900

> <Gold.Chemscore.DEInternal.Weighted>
1.8135

> <Gold.Chemscore.Rot.Weighted>
3.2455

> <Gold.Chemscore.Internal.Correction.Weighted>
   9.000000E+99

> <Gold.Protein.RotatedTorsions>
[ 6907 6896 6895 6894 ] final  -53.03 input  -60.11 | X-H torsion
[ 7974 7965 7964 7962 ] final   23.87 input  175.53 | X-H torsion
[ 8008 7997 7996 7995 ] final   52.05 input   59.86 | X-H torsion
[ 10167 10162 10161 10158 ] final -136.24 input  -65.29 | X-H torsion
[ 10718 10713 10712 10709 ] final  168.73 input   66.30 | X-H torsion
[ 10763 10752 10751 10750 ] final  -75.57 input  -60.55 | X-H torsion
[ 11005 11000 10999 10996 ] final  103.49 input  -57.11 | X-H torsion

> <Gold.Protein.ActiveResidues>
 VAL166  LYS551  ARG553  GLY616  TRP617  ASP618  TYR619  PRO620  LYS621  CYS622 
 ASP623  PHE694  ASN695  SER759  ASP760  ASP761  ALA762  ILE779  LEU786  VAL792 
 PHE793  MET794  SER795  GLU796  ALA797  LYS798  CYS799  TRP800  GLU811  SER814 

> <Gold.Protein.RotatedAtoms>
  150.8463  134.7773  159.6972 H   0  0  0  0  0  0  0  0  0  0  0  0  # atno 6907 bound_to 6896
  152.4539  134.5331  159.9826 H   0  0  0  0  0  0  0  0  0  0  0  0  # atno 6908 bound_to 6896
  151.5460  133.3387  159.2980 H   0  0  0  0  0  0  0  0  0  0  0  0  # atno 6909 bound_to 6896
  146.1964  139.7684  142.8794 H   0  0  0  0  0  0  0  0  0  0  0  0  # atno 7974 bound_to 7965
  155.4454  140.3456  155.4294 H   0  0  0  0  0  0  0  0  0  0  0  0  # atno 8008 bound_to 7997
  156.1253  140.1498  156.9175 H   0  0  0  0  0  0  0  0  0  0  0  0  # atno 8009 bound_to 7997
  154.4853  140.0857  156.7452 H   0  0  0  0  0  0  0  0  0  0  0  0  # atno 8010 bound_to 7997
  139.8698  143.6971  152.2641 H   0  0  0  0  0  0  0  0  0  0  0  0  # atno 10167 bound_to 10162
  157.0329  131.0265  151.2738 H   0  0  0  0  0  0  0  0  0  0  0  0  # atno 10718 bound_to 10713
  154.4883  135.5827  153.6440 H   0  0  0  0  0  0  0  0  0  0  0  0  # atno 10763 bound_to 10752
  152.9858  135.6106  154.3157 H   0  0  0  0  0  0  0  0  0  0  0  0  # atno 10764 bound_to 10752
  154.3055  135.2846  155.2570 H   0  0  0  0  0  0  0  0  0  0  0  0  # atno 10765 bound_to 10752
  139.8784  134.9265  156.5217 H   0  0  0  0  0  0  0  0  0  0  0  0  # atno 11005 bound_to 11000
  145.3628  141.0329  143.3275 LP  0  0  0  0  0  0  0  0  0  0  0  0  # atno 17320 bound_to 7965
  144.8590  139.5206  143.6821 LP  0  0  0  0  0  0  0  0  0  0  0  0  # atno 17321 bound_to 7965
  139.7294  144.7585  151.0826 LP  0  0  0  0  0  0  0  0  0  0  0  0  # atno 17342 bound_to 10162
  140.7762  143.5107  150.9656 LP  0  0  0  0  0  0  0  0  0  0  0  0  # atno 17343 bound_to 10162
  157.5163  130.7970  149.7760 LP  0  0  0  0  0  0  0  0  0  0  0  0  # atno 17370 bound_to 10713
  156.0063  130.3854  150.2419 LP  0  0  0  0  0  0  0  0  0  0  0  0  # atno 17371 bound_to 10713
  140.8446  133.8179  155.9108 LP  0  0  0  0  0  0  0  0  0  0  0  0  # atno 17394 bound_to 11000
  140.9204  134.2148  157.4930 LP  0  0  0  0  0  0  0  0  0  0  0  0  # atno 17395 bound_to 11000

$$$$
