AV-unprocessed.smi:62|AV-procd|sdf|605|dock6
  -GOLD-   2262016503D 1   1.00000     0.00000
 Structure written by MMmdl.
 30 31  0  0  0  0  0  0  0  0  2 V2000
  151.0588  144.2722  159.0115 C   0  0  0  0  0  0  0  0  0  0  0  0
  151.3296  143.0042  158.3693 N   0  0  0  0  0  0  0  0  0  0  0  0
  150.9797  142.5867  157.1059 C   0  0  0  0  0  0  0  0  0  0  0  0
  151.4444  141.3117  156.9382 C   0  0  0  0  0  0  0  0  0  0  0  0
  151.2710  140.4627  155.7011 C   0  0  0  0  0  0  0  0  0  0  0  0
  149.8682  140.2558  155.3548 N   0  0  0  0  0  0  0  0  0  0  0  0
  149.2499  141.3835  154.6770 C   0  0  0  0  0  0  0  0  0  0  0  0
  148.0115  140.8341  153.9546 C   0  0  0  0  0  0  0  0  0  0  0  0
  148.2216  139.3110  153.9590 C   0  0  1  0  0  0  0  0  0  0  0  0
  148.0236  138.7255  152.6891 O   0  0  0  0  0  0  0  0  0  0  0  0
  149.6617  139.1488  154.4461 C   0  0  0  0  0  0  0  0  0  0  0  0
  152.0869  141.0328  158.1928 C   0  0  0  0  0  0  0  0  0  0  0  0
  152.7659  139.7199  158.4835 C   0  0  0  0  0  0  0  0  0  0  0  0
  153.1832  139.0051  157.5460 O   0  0  0  0  0  0  0  0  0  0  0  0
  152.8979  139.3848  159.6819 O   0  5  0  0  0  0  0  0  0  0  0  0
  152.0076  142.0531  159.0376 N   0  0  0  0  0  0  0  0  0  0  0  0
  150.6015  144.9614  158.3011 H   0  0  0  0  0  0  0  0  0  0  0  0
  151.9887  144.7073  159.3790 H   0  0  0  0  0  0  0  0  0  0  0  0
  150.3776  144.1214  159.8494 H   0  0  0  0  0  0  0  0  0  0  0  0
  150.4268  143.2240  156.4318 H   0  0  0  0  0  0  0  0  0  0  0  0
  151.7886  140.9145  154.8538 H   0  0  0  0  0  0  0  0  0  0  0  0
  151.7528  139.4945  155.8380 H   0  0  0  0  0  0  0  0  0  0  0  0
  148.9996  142.1810  155.3772 H   0  0  0  0  0  0  0  0  0  0  0  0
  149.9379  141.7967  153.9376 H   0  0  0  0  0  0  0  0  0  0  0  0
  147.0947  141.0958  154.4838 H   0  0  0  0  0  0  0  0  0  0  0  0
  147.9440  141.2453  152.9463 H   0  0  0  0  0  0  0  0  0  0  0  0
  147.5405  138.8506  154.6761 H   0  0  0  0  0  0  0  0  0  0  0  0
  148.4334  139.2766  152.0398 H   0  0  0  0  0  0  0  0  0  0  0  0
  150.3531  139.2259  153.6050 H   0  0  0  0  0  0  0  0  0  0  0  0
  149.8318  138.1891  154.9352 H   0  0  0  0  0  0  0  0  0  0  0  0
  1  2  1  0  0  0  0
  1 17  1  0  0  0  0
  1 18  1  0  0  0  0
  1 19  1  0  0  0  0
  2 16  1  0  0  0  0
  2  3  1  0  0  0  0
  3  4  2  0  0  0  0
  3 20  1  0  0  0  0
  4  5  1  0  0  0  0
  4 12  1  0  0  0  0
  5  6  1  0  0  0  0
  5 21  1  0  0  0  0
  5 22  1  0  0  0  0
  6 11  1  0  0  0  0
  6  7  1  0  0  0  0
  7  8  1  0  0  0  0
  7 23  1  0  0  0  0
  7 24  1  0  0  0  0
  8  9  1  0  0  0  0
  8 25  1  0  0  0  0
  8 26  1  0  0  0  0
  9 10  1  0  0  0  0
  9 11  1  0  0  0  0
  9 27  1  0  0  0  0
 10 28  1  0  0  0  0
 11 29  1  0  0  0  0
 11 30  1  0  0  0  0
 12 13  1  0  0  0  0
 12 16  2  0  0  0  0
 13 14  2  0  0  0  0
 13 15  1  0  0  0  0
M  CHG  1  15  -1
M  END
> <s_m_source_file>
AV-unprocessed.smi

> <i_m_source_file_index>
62

> <i_lp_mmshare_version>
43012

> <i_f3d_flags>
0

> <s_epik_input>
W0NIM11uMVtjSF1jKGMobjEpQyg9TylbT0hdKVtDSDJdTjJbQ0gyXVtDSDJdW0NAQEhdKFtPSF0pW0NIMl0y

> <s_epik_cmdline>
J2VwaWtfcHl0aG9uJywgJy1waCcsICc3LjAnLCAnLXRuJywgJzgnLCAnLW1hJywgJzIwMCcsICctbWV0YWxfYmluZGluZycsICctaW1hZScsICc8aW5maWxlLm1hZT4nLCAnLW9tYWUnLCAnPG91dGZpbGUubWFlPic=

> <r_epik_Ionization_Penalty>
1.46526

> <r_epik_Ionization_Penalty_Charging>
0.000523675

> <r_epik_Ionization_Penalty_Neutral>
1.46474

> <r_epik_State_Penalty>
1.55202

> <r_epik_Charging_Adjusted_Penalty>
1.55254

> <i_epik_Tot_Q>
-1

> <i_epik_Tot_abs_Q>
1

> <r_epik_Metal_State_Penalty>
1.552

> <b_epik_Metal_Only>
0

> <s_lp_Force_Field>
OPLS_2005

> <r_lp_Energy>
37.4644

> <b_lp_Chiralities_Consistent>
1

> <s_lp_Variant>
AV-unprocessed.smi:62-5

> <Gold.Version>
5.8.1

> <Gold.Id.Protein>
6NUR|6NUR_protein|mol2

> <Gold.PLP.Fitness>
41.4221

> <Gold.PLP.PLP>
-30.2084

> <Gold.PLP.part.hbond>
-3.0000

> <Gold.PLP.part.metal>
0.0000

> <Gold.PLP.part.buried>
-3.7493

> <Gold.PLP.part.nonpolar>
-23.9609

> <Gold.PLP.part.repulsive>
0.0608

> <Gold.PLP.ligand.clash>
0.0000

> <Gold.PLP.ligand.torsion>
0.3965

> <Gold.PLP.Chemscore.Hbond>
3.0000

> <Gold.PLP.Chemscore.CHOScore>
1.0000

> <Gold.PLP.Chemscore.Metal>
0.0000

> <Gold.Chemscore.Hbonds>
donor molecule, donor type, donor heavy atom, donor atom, acceptor molecule, acceptor atom, score
      L1  H    10    28       P1  7957  1.00
      P1  H  7997  8010       L1    14  2.00
      L1  C     3    20       P1  8028  1.00

> <Gold.PLP.Chemscore.Internal.Correction>
0.0068

> <Gold.Rescore>
     Score         DG    S(hbond)    S(metal)    S(lipo)     H(rot)  DE(clash)    DE(int)     intcor
     15.06     -15.74       1.97        0.00      70.14       1.77       0.07       0.61       ----

> <Gold.Chemscore.Fitness>
15.0575

> <Gold.Chemscore.DG>
-15.7374

> <Gold.Chemscore.ZeroCoef>
-5.4800

> <Gold.Chemscore.Hbond>
1.9686

> <Gold.Chemscore.Metal>
0.0000

> <Gold.Chemscore.Lipo>
70.1421

> <Gold.Chemscore.Internal_Hbond>
0.0000

> <Gold.Chemscore.DEClash>
0.0726

> <Gold.Chemscore.DEInternal>
0.6072

> <Gold.Chemscore.Rot>
1.7674

> <Gold.Chemscore.Internal.Correction>
   9.000000E+99

> <Gold.Chemscore.Hbonds>
donor molecule, donor type, donor heavy atom, donor atom, acceptor molecule, acceptor atom, score
      L1  H    10    28       P1  7957  0.99
      P1  H  7997  8010       L1    14  0.45

> <Gold.Chemscore.Hbond.Weighted>
-6.5753

> <Gold.Chemscore.Metal.Weighted>
-0.0000

> <Gold.Chemscore.Lipo.Weighted>
-8.2066

> <Gold.Chemscore.Internal_Hbond.Weighted>
0.0000

> <Gold.Chemscore.DEClash.Weighted>
0.0726

> <Gold.Chemscore.DEInternal.Weighted>
0.6072

> <Gold.Chemscore.Rot.Weighted>
4.5245

> <Gold.Chemscore.Internal.Correction.Weighted>
   9.000000E+99

> <Gold.Protein.RotatedTorsions>
[ 6907 6896 6895 6894 ] final  111.83 input  -60.11 | X-H torsion
[ 7974 7965 7964 7962 ] final   98.46 input  175.53 | X-H torsion
[ 8008 7997 7996 7995 ] final   58.09 input   59.86 | X-H torsion
[ 10167 10162 10161 10158 ] final  -19.79 input  -65.29 | X-H torsion
[ 10718 10713 10712 10709 ] final -146.00 input   66.30 | X-H torsion
[ 10763 10752 10751 10750 ] final  -55.78 input  -60.55 | X-H torsion
[ 11005 11000 10999 10996 ] final  122.86 input  -57.11 | X-H torsion

> <Gold.Protein.ActiveResidues>
 VAL166  LYS551  ARG553  GLY616  TRP617  ASP618  TYR619  PRO620  LYS621  CYS622 
 ASP623  PHE694  ASN695  SER759  ASP760  ASP761  ALA762  ILE779  LEU786  VAL792 
 PHE793  MET794  SER795  GLU796  ALA797  LYS798  CYS799  TRP800  GLU811  SER814 

> <Gold.Protein.RotatedAtoms>
  152.4949  133.8602  159.7246 H   0  0  0  0  0  0  0  0  0  0  0  0  # atno 6907 bound_to 6896
  150.9116  133.6982  159.2860 H   0  0  0  0  0  0  0  0  0  0  0  0  # atno 6908 bound_to 6896
  151.4389  135.1022  159.9717 H   0  0  0  0  0  0  0  0  0  0  0  0  # atno 6909 bound_to 6896
  145.4118  139.2333  143.3244 H   0  0  0  0  0  0  0  0  0  0  0  0  # atno 7974 bound_to 7965
  155.5444  140.3485  155.4454 H   0  0  0  0  0  0  0  0  0  0  0  0  # atno 8008 bound_to 7997
  156.0628  140.1344  156.9947 H   0  0  0  0  0  0  0  0  0  0  0  0  # atno 8009 bound_to 7997
  154.4488  140.0982  156.6527 H   0  0  0  0  0  0  0  0  0  0  0  0  # atno 8010 bound_to 7997
  140.7271  143.4785  151.0150 H   0  0  0  0  0  0  0  0  0  0  0  0  # atno 10167 bound_to 10162
  156.3894  130.7878  151.2078 H   0  0  0  0  0  0  0  0  0  0  0  0  # atno 10718 bound_to 10713
  154.1962  135.6419  153.5074 H   0  0  0  0  0  0  0  0  0  0  0  0  # atno 10763 bound_to 10752
  153.0023  135.5440  154.6363 H   0  0  0  0  0  0  0  0  0  0  0  0  # atno 10764 bound_to 10752
  154.5765  135.2921  155.0749 H   0  0  0  0  0  0  0  0  0  0  0  0  # atno 10765 bound_to 10752
  139.9287  134.9641  156.8172 H   0  0  0  0  0  0  0  0  0  0  0  0  # atno 11005 bound_to 11000
  146.2701  140.4831  142.8818 LP  0  0  0  0  0  0  0  0  0  0  0  0  # atno 17320 bound_to 7965
  144.8304  140.6697  143.6295 LP  0  0  0  0  0  0  0  0  0  0  0  0  # atno 17321 bound_to 7965
  139.8482  143.7473  152.3179 LP  0  0  0  0  0  0  0  0  0  0  0  0  # atno 17342 bound_to 10162
  139.7646  144.7496  151.0313 LP  0  0  0  0  0  0  0  0  0  0  0  0  # atno 17343 bound_to 10162
  157.7498  131.0320  150.4207 LP  0  0  0  0  0  0  0  0  0  0  0  0  # atno 17370 bound_to 10713
  156.4465  130.4002  149.6663 LP  0  0  0  0  0  0  0  0  0  0  0  0  # atno 17371 bound_to 10713
  140.6263  133.9947  155.7641 LP  0  0  0  0  0  0  0  0  0  0  0  0  # atno 17394 bound_to 11000
  141.0861  133.9988  157.3310 LP  0  0  0  0  0  0  0  0  0  0  0  0  # atno 17395 bound_to 11000

$$$$
