AV-unprocessed.smi:1723|AV-procd|sdf|6945|dock6
  -GOLD-   22720 8153D 1   1.00000     0.00000
 Structure written by MMmdl.
 38 38  0  0  0  0  0  0  0  0  1 V2000
  146.0969  143.4488  153.7092 C   0  0  0  0  0  0  0  0  0  0  0  0
  146.9418  142.1707  153.7460 C   0  0  0  0  0  0  0  0  0  0  0  0
  148.0066  142.1998  154.8514 C   0  0  0  0  0  0  0  0  0  0  0  0
  149.1245  141.1768  154.6209 C   0  0  0  0  0  0  0  0  0  0  0  0
  149.9497  141.1418  155.7793 O   0  0  0  0  0  0  0  0  0  0  0  0
  151.2465  140.5815  155.5916 C   0  0  2  0  0  0  0  0  0  0  0  0
  151.0665  139.2162  154.9107 C   0  0  0  0  0  0  0  0  0  0  0  0
  151.9672  140.4430  156.9426 C   0  0  0  0  0  0  0  0  0  0  0  0
  152.4787  139.3656  157.2456 O   0  0  0  0  0  0  0  0  0  0  0  0
  151.9494  141.5428  157.7219 N   0  0  0  0  0  0  0  0  0  0  0  0
  152.5017  141.7489  158.9977 C   0  0  0  0  0  0  0  0  0  0  0  0
  153.3691  140.9072  159.6190 C   0  0  0  0  0  0  0  0  0  0  0  0
  153.9089  141.1906  160.9383 C   0  0  0  0  0  0  0  0  0  0  0  0
  154.8099  140.1997  161.6594 C   0  0  0  0  0  0  0  0  0  0  0  0
  155.9532  140.0149  160.9979 F   0  0  0  0  0  0  0  0  0  0  0  0
  155.1018  140.6253  162.8887 F   0  0  0  0  0  0  0  0  0  0  0  0
  154.1955  139.0220  161.7629 F   0  0  0  0  0  0  0  0  0  0  0  0
  153.5013  142.3329  161.5211 C   0  0  0  0  0  0  0  0  0  0  0  0
  152.6291  143.2153  160.8803 N   0  0  0  0  0  0  0  0  0  0  0  0
  152.0972  143.0026  159.6558 C   0  0  0  0  0  0  0  0  0  0  0  0
  151.3304  143.8280  159.1605 O   0  0  0  0  0  0  0  0  0  0  0  0
  152.3858  144.0607  161.3762 H   0  0  0  0  0  0  0  0  0  0  0  0
  145.3485  143.3972  152.9182 H   0  0  0  0  0  0  0  0  0  0  0  0
  146.7176  144.3257  153.5229 H   0  0  0  0  0  0  0  0  0  0  0  0
  145.5732  143.6027  154.6530 H   0  0  0  0  0  0  0  0  0  0  0  0
  146.2875  141.3105  153.8918 H   0  0  0  0  0  0  0  0  0  0  0  0
  147.4235  142.0323  152.7773 H   0  0  0  0  0  0  0  0  0  0  0  0
  148.4413  143.1983  154.9123 H   0  0  0  0  0  0  0  0  0  0  0  0
  147.5357  142.0080  155.8161 H   0  0  0  0  0  0  0  0  0  0  0  0
  148.6974  140.1895  154.4393 H   0  0  0  0  0  0  0  0  0  0  0  0
  149.6990  141.4555  153.7368 H   0  0  0  0  0  0  0  0  0  0  0  0
  151.8251  141.2225  154.9233 H   0  0  0  0  0  0  0  0  0  0  0  0
  152.0253  138.7197  154.7568 H   0  0  0  0  0  0  0  0  0  0  0  0
  150.5963  139.3318  153.9340 H   0  0  0  0  0  0  0  0  0  0  0  0
  150.4351  138.5517  155.5021 H   0  0  0  0  0  0  0  0  0  0  0  0
  151.4367  142.3334  157.3577 H   0  0  0  0  0  0  0  0  0  0  0  0
  153.7049  140.0008  159.1434 H   0  0  0  0  0  0  0  0  0  0  0  0
  153.8002  142.6522  162.5087 H   0  0  0  0  0  0  0  0  0  0  0  0
  1  2  1  0  0  0  0
  1 23  1  0  0  0  0
  1 24  1  0  0  0  0
  1 25  1  0  0  0  0
  2  3  1  0  0  0  0
  2 26  1  0  0  0  0
  2 27  1  0  0  0  0
  3  4  1  0  0  0  0
  3 28  1  0  0  0  0
  3 29  1  0  0  0  0
  4  5  1  0  0  0  0
  4 30  1  0  0  0  0
  4 31  1  0  0  0  0
  5  6  1  0  0  0  0
  6  7  1  0  0  0  0
  6  8  1  0  0  0  0
  6 32  1  0  0  0  0
  7 33  1  0  0  0  0
  7 34  1  0  0  0  0
  7 35  1  0  0  0  0
  8  9  2  0  0  0  0
  8 10  1  0  0  0  0
 10 11  1  0  0  0  0
 10 36  1  0  0  0  0
 11 20  1  0  0  0  0
 11 12  2  0  0  0  0
 12 13  1  0  0  0  0
 12 37  1  0  0  0  0
 13 14  1  0  0  0  0
 13 18  2  0  0  0  0
 14 15  1  0  0  0  0
 14 16  1  0  0  0  0
 14 17  1  0  0  0  0
 18 19  1  0  0  0  0
 18 38  1  0  0  0  0
 19 22  1  0  0  0  0
 19 20  1  0  0  0  0
 20 21  2  0  0  0  0
M  END
> <s_m_source_file>
AV-unprocessed.smi

> <i_m_source_file_index>
1723

> <i_lp_mmshare_version>
43012

> <i_f3d_flags>
0

> <s_epik_input>
W0NIM11bQ0gyXVtDSDJdW0NIMl1PW0NASF0oW0NIM10pQyg9TylbTkhdYzFbY0hdYyhDKEYpKEYpRilbY0hdW25IXWMxPU8=

> <s_epik_cmdline>
J2VwaWtfcHl0aG9uJywgJy1waCcsICc3LjAnLCAnLXRuJywgJzgnLCAnLW1hJywgJzIwMCcsICctbWV0YWxfYmluZGluZycsICctaW1hZScsICc8aW5maWxlLm1hZT4nLCAnLW9tYWUnLCAnPG91dGZpbGUubWFlPic=

> <r_lp_tautomer_probability>
0.999

> <r_epik_Ionization_Penalty>
0.00763408

> <r_epik_Ionization_Penalty_Charging>
0.00763398

> <r_epik_Ionization_Penalty_Neutral>
9.29819e-08

> <r_epik_State_Penalty>
0.00571302

> <r_epik_Charging_Adjusted_Penalty>
0.013347

> <i_epik_Tot_Q>
0

> <i_epik_Tot_abs_Q>
0

> <r_epik_Metal_State_Penalty>
0.392814

> <b_epik_Metal_Only>
0

> <s_lp_Force_Field>
OPLS_2005

> <r_lp_Energy>
19.1413

> <b_lp_Chiralities_Consistent>
1

> <s_lp_Variant>
AV-unprocessed.smi:1723-1

> <Gold.Version>
5.8.1

> <Gold.Id.Protein>
6NUR|6NUR_protein|mol2

> <Gold.PLP.Fitness>
42.4747

> <Gold.PLP.PLP>
-42.1437

> <Gold.PLP.part.hbond>
-0.9875

> <Gold.PLP.part.metal>
0.0000

> <Gold.PLP.part.buried>
1.1522

> <Gold.PLP.part.nonpolar>
-40.2822

> <Gold.PLP.part.repulsive>
0.2764

> <Gold.PLP.ligand.clash>
1.4212

> <Gold.PLP.ligand.torsion>
0.4801

> <Gold.PLP.Chemscore.Hbond>
0.8426

> <Gold.PLP.Chemscore.CHOScore>
0.0000

> <Gold.PLP.Chemscore.Metal>
0.0000

> <Gold.Chemscore.Hbonds>
donor molecule, donor type, donor heavy atom, donor atom, acceptor molecule, acceptor atom, score
      P1  H  7997  8009       L1     9  0.47

> <Gold.PLP.Chemscore.Internal.Correction>
0.1847

> <Gold.Rescore>
     Score         DG    S(hbond)    S(metal)    S(lipo)     H(rot)  DE(clash)    DE(int)     intcor
      8.87     -10.36       0.00        0.00      85.36       1.99       0.13       1.37       ----

> <Gold.Chemscore.Fitness>
8.8686

> <Gold.Chemscore.DG>
-10.3611

> <Gold.Chemscore.ZeroCoef>
-5.4800

> <Gold.Chemscore.Hbond>
0.0000

> <Gold.Chemscore.Metal>
0.0000

> <Gold.Chemscore.Lipo>
85.3617

> <Gold.Chemscore.Internal_Hbond>
0.0000

> <Gold.Chemscore.DEClash>
0.1259

> <Gold.Chemscore.DEInternal>
1.3666

> <Gold.Chemscore.Rot>
1.9946

> <Gold.Chemscore.Internal.Correction>
   9.000000E+99

> <Gold.Chemscore.Hbonds>
donor molecule, donor type, donor heavy atom, donor atom, acceptor molecule, acceptor atom, score
      P1  H  7997  8009       L1     9  0.03

> <Gold.Chemscore.Hbond.Weighted>
-0.0000

> <Gold.Chemscore.Metal.Weighted>
-0.0000

> <Gold.Chemscore.Lipo.Weighted>
-9.9873

> <Gold.Chemscore.Internal_Hbond.Weighted>
0.0000

> <Gold.Chemscore.DEClash.Weighted>
0.1259

> <Gold.Chemscore.DEInternal.Weighted>
1.3666

> <Gold.Chemscore.Rot.Weighted>
5.1062

> <Gold.Chemscore.Internal.Correction.Weighted>
   9.000000E+99

> <Gold.Protein.RotatedTorsions>
[ 6907 6896 6895 6894 ] final -169.40 input  -60.11 | X-H torsion
[ 7974 7965 7964 7962 ] final  -71.77 input  175.53 | X-H torsion
[ 8008 7997 7996 7995 ] final  170.91 input   59.86 | X-H torsion
[ 10167 10162 10161 10158 ] final   76.76 input  -65.29 | X-H torsion
[ 10718 10713 10712 10709 ] final  -31.42 input   66.30 | X-H torsion
[ 10763 10752 10751 10750 ] final   41.64 input  -60.55 | X-H torsion
[ 11005 11000 10999 10996 ] final  -83.97 input  -57.11 | X-H torsion

> <Gold.Protein.ActiveResidues>
 VAL166  LYS551  ARG553  GLY616  TRP617  ASP618  TYR619  PRO620  LYS621  CYS622 
 ASP623  PHE694  ASN695  SER759  ASP760  ASP761  ALA762  ILE779  LEU786  VAL792 
 PHE793  MET794  SER795  GLU796  ALA797  LYS798  CYS799  TRP800  GLU811  SER814 

> <Gold.Protein.RotatedAtoms>
  151.4909  133.3525  159.2853 H   0  0  0  0  0  0  0  0  0  0  0  0  # atno 6907 bound_to 6896
  150.8835  134.8231  159.7253 H   0  0  0  0  0  0  0  0  0  0  0  0  # atno 6908 bound_to 6896
  152.4778  134.4810  159.9717 H   0  0  0  0  0  0  0  0  0  0  0  0  # atno 6909 bound_to 6896
  145.6737  140.9212  143.0869 H   0  0  0  0  0  0  0  0  0  0  0  0  # atno 7974 bound_to 7965
  156.1321  140.1525  156.9050 H   0  0  0  0  0  0  0  0  0  0  0  0  # atno 8008 bound_to 7997
  154.4917  140.0849  156.7649 H   0  0  0  0  0  0  0  0  0  0  0  0  # atno 8009 bound_to 7997
  155.4237  140.3424  155.4276 H   0  0  0  0  0  0  0  0  0  0  0  0  # atno 8010 bound_to 7997
  139.9888  144.5772  150.7836 H   0  0  0  0  0  0  0  0  0  0  0  0  # atno 10167 bound_to 10162
  156.3875  130.4367  149.7420 H   0  0  0  0  0  0  0  0  0  0  0  0  # atno 10718 bound_to 10713
  152.9903  135.6155  154.2820 H   0  0  0  0  0  0  0  0  0  0  0  0  # atno 10763 bound_to 10752
  154.2549  135.2784  155.2803 H   0  0  0  0  0  0  0  0  0  0  0  0  # atno 10764 bound_to 10752
  154.5256  135.5802  153.6774 H   0  0  0  0  0  0  0  0  0  0  0  0  # atno 10765 bound_to 10752
  141.1654  133.7322  156.8799 H   0  0  0  0  0  0  0  0  0  0  0  0  # atno 11005 bound_to 11000
  144.7048  139.8606  143.7433 LP  0  0  0  0  0  0  0  0  0  0  0  0  # atno 17320 bound_to 7965
  146.1023  139.4020  143.0339 LP  0  0  0  0  0  0  0  0  0  0  0  0  # atno 17321 bound_to 7965
  140.7462  143.2887  151.3390 LP  0  0  0  0  0  0  0  0  0  0  0  0  # atno 17342 bound_to 10162
  139.6355  144.0639  152.2512 LP  0  0  0  0  0  0  0  0  0  0  0  0  # atno 17343 bound_to 10162
  156.4486  130.7896  151.2917 LP  0  0  0  0  0  0  0  0  0  0  0  0  # atno 17370 bound_to 10713
  157.7497  131.0102  150.3298 LP  0  0  0  0  0  0  0  0  0  0  0  0  # atno 17371 bound_to 10713
  140.1722  134.9092  157.2847 LP  0  0  0  0  0  0  0  0  0  0  0  0  # atno 17394 bound_to 11000
  140.2489  134.3707  155.7450 LP  0  0  0  0  0  0  0  0  0  0  0  0  # atno 17395 bound_to 11000

$$$$
