AV-unprocessed.smi:1826|AV-procd|sdf|7418|dock2
  -GOLD-   22720 9 93D 1   1.00000     0.00000
 Structure written by MMmdl.
 40 42  0  0  0  0  0  0  0  0  2 V2000
  149.5423  141.1956  153.4663 O   0  0  0  0  0  0  0  0  0  0  0  0
  149.1285  140.7921  154.7553 C   0  0  0  0  0  0  0  0  0  0  0  0
  149.9923  141.3323  155.8500 C   0  0  0  0  0  0  0  0  0  0  0  0
  150.1750  142.6467  156.1648 N   0  3  0  0  0  0  0  0  0  0  0  0
  151.0652  142.7594  157.2329 C   0  0  0  0  0  0  0  0  0  0  0  0
  151.5582  143.8802  157.8937 C   0  0  0  0  0  0  0  0  0  0  0  0
  152.4640  143.6450  158.9490 C   0  0  0  0  0  0  0  0  0  0  0  0
  152.8453  142.3366  159.3113 C   0  0  0  0  0  0  0  0  0  0  0  0
  152.3368  141.2082  158.6350 C   0  0  0  0  0  0  0  0  0  0  0  0
  151.4426  141.4493  157.5923 C   0  0  0  0  0  0  0  0  0  0  0  0
  150.7542  140.6031  156.7152 N   0  0  0  0  0  0  0  0  0  0  0  0
  150.9396  139.1454  156.8206 C   0  0  0  0  0  0  0  0  0  0  0  0
  151.2456  138.4277  155.4786 C   0  0  1  0  0  0  0  0  0  0  0  0
  152.5370  138.7245  154.9758 O   0  0  0  0  0  0  0  0  0  0  0  0
  150.9871  136.9303  155.5707 C   0  0  0  0  0  0  0  0  0  0  0  0
  150.0309  136.3299  154.7250 C   0  0  0  0  0  0  0  0  0  0  0  0
  149.7766  134.9469  154.8067 C   0  0  0  0  0  0  0  0  0  0  0  0
  150.4757  134.1458  155.7349 C   0  0  0  0  0  0  0  0  0  0  0  0
  150.1923  132.6537  155.8282 C   0  0  0  0  0  0  0  0  0  0  0  0
  149.4831  132.2343  154.7797 F   0  0  0  0  0  0  0  0  0  0  0  0
  151.3469  131.9894  155.8580 F   0  0  0  0  0  0  0  0  0  0  0  0
  149.5054  132.3717  156.9356 F   0  0  0  0  0  0  0  0  0  0  0  0
  151.4243  134.7490  156.5886 C   0  0  0  0  0  0  0  0  0  0  0  0
  151.6798  136.1313  156.5063 C   0  0  0  0  0  0  0  0  0  0  0  0
  149.4343  140.4669  152.8740 H   0  0  0  0  0  0  0  0  0  0  0  0
  148.1011  141.1196  154.9160 H   0  0  0  0  0  0  0  0  0  0  0  0
  149.1342  139.7029  154.8022 H   0  0  0  0  0  0  0  0  0  0  0  0
  151.2680  144.8830  157.6163 H   0  0  0  0  0  0  0  0  0  0  0  0
  152.8751  144.4847  159.4902 H   0  0  0  0  0  0  0  0  0  0  0  0
  153.5425  142.1948  160.1244 H   0  0  0  0  0  0  0  0  0  0  0  0
  152.6367  140.2114  158.9213 H   0  0  0  0  0  0  0  0  0  0  0  0
  151.7096  138.9460  157.5666 H   0  0  0  0  0  0  0  0  0  0  0  0
  150.0237  138.7366  157.2483 H   0  0  0  0  0  0  0  0  0  0  0  0
  150.5572  138.8246  154.7312 H   0  0  0  0  0  0  0  0  0  0  0  0
  153.0759  139.0213  155.6934 H   0  0  0  0  0  0  0  0  0  0  0  0
  149.4856  136.9290  154.0104 H   0  0  0  0  0  0  0  0  0  0  0  0
  149.0388  134.5035  154.1541 H   0  0  0  0  0  0  0  0  0  0  0  0
  151.9604  134.1545  157.3136 H   0  0  0  0  0  0  0  0  0  0  0  0
  152.4080  136.5744  157.1698 H   0  0  0  0  0  0  0  0  0  0  0  0
  149.7231  143.4075  155.6737 H   0  0  0  0  0  0  0  0  0  0  0  0
  1  2  1  0  0  0  0
  1 25  1  0  0  0  0
  2  3  1  0  0  0  0
  2 26  1  0  0  0  0
  2 27  1  0  0  0  0
  3 11  1  0  0  0  0
  3  4  2  0  0  0  0
  4  5  1  0  0  0  0
  4 40  1  0  0  0  0
  5 10  2  0  0  0  0
  5  6  1  0  0  0  0
  6  7  2  0  0  0  0
  6 28  1  0  0  0  0
  7  8  1  0  0  0  0
  7 29  1  0  0  0  0
  8  9  2  0  0  0  0
  8 30  1  0  0  0  0
  9 10  1  0  0  0  0
  9 31  1  0  0  0  0
 10 11  1  0  0  0  0
 11 12  1  0  0  0  0
 12 13  1  0  0  0  0
 12 32  1  0  0  0  0
 12 33  1  0  0  0  0
 13 14  1  0  0  0  0
 13 15  1  0  0  0  0
 13 34  1  0  0  0  0
 14 35  1  0  0  0  0
 15 24  1  0  0  0  0
 15 16  2  0  0  0  0
 16 17  1  0  0  0  0
 16 36  1  0  0  0  0
 17 18  2  0  0  0  0
 17 37  1  0  0  0  0
 18 19  1  0  0  0  0
 18 23  1  0  0  0  0
 19 20  1  0  0  0  0
 19 21  1  0  0  0  0
 19 22  1  0  0  0  0
 23 24  2  0  0  0  0
 23 38  1  0  0  0  0
 24 39  1  0  0  0  0
M  CHG  1   4   1
M  END
> <s_m_source_file>
AV-unprocessed.smi

> <i_m_source_file_index>
1826

> <i_lp_mmshare_version>
43012

> <i_f3d_flags>
0

> <s_epik_input>
W2NIXTFbY0hdW2NIXVtjSF1jKGMxMiluKGMobjIpW0NIMl1bT0hdKVtDSDJdW0NASF0oW09IXSljM1tjSF1bY0hdYyhDKEYpKEYpRilbY0hdW2NIXTM=

> <s_epik_cmdline>
J2VwaWtfcHl0aG9uJywgJy1waCcsICc3LjAnLCAnLXRuJywgJzgnLCAnLW1hJywgJzIwMCcsICctbWV0YWxfYmluZGluZycsICctaW1hZScsICc8aW5maWxlLm1hZT4nLCAnLW9tYWUnLCAnPG91dGZpbGUubWFlPic=

> <r_epik_Ionization_Penalty>
1.35643

> <r_epik_Ionization_Penalty_Charging>
1.35557

> <r_epik_Ionization_Penalty_Neutral>
0.000856405

> <r_epik_State_Penalty>
1.43401

> <r_epik_Charging_Adjusted_Penalty>
2.78958

> <i_epik_Tot_Q>
1

> <i_epik_Tot_abs_Q>
1

> <r_epik_Metal_State_Penalty>
5.47166

> <b_epik_Metal_Only>
0

> <s_lp_Force_Field>
OPLS_2005

> <r_lp_Energy>
22.2169

> <b_lp_Chiralities_Consistent>
1

> <s_lp_Variant>
AV-unprocessed.smi:1826-4

> <Gold.Version>
5.8.1

> <Gold.Id.Protein>
6NUR|6NUR_protein|mol2

> <Gold.PLP.Fitness>
55.4338

> <Gold.PLP.PLP>
-44.7177

> <Gold.PLP.part.hbond>
-3.9351

> <Gold.PLP.part.metal>
0.0000

> <Gold.PLP.part.buried>
-3.7526

> <Gold.PLP.part.nonpolar>
-38.6354

> <Gold.PLP.part.repulsive>
0.1161

> <Gold.PLP.ligand.clash>
0.7758

> <Gold.PLP.ligand.torsion>
0.7331

> <Gold.PLP.Chemscore.Hbond>
3.8610

> <Gold.PLP.Chemscore.CHOScore>
0.0000

> <Gold.PLP.Chemscore.Metal>
0.0000

> <Gold.Chemscore.Hbonds>
donor molecule, donor type, donor heavy atom, donor atom, acceptor molecule, acceptor atom, score
      L1  H     1    25       P1  7957  0.82
      L1  H     4    40       P1  8028  2.00
      P1  H  7989  7998       L1     1  0.08
      P1  H  8011  8017       L1     1  0.95

> <Gold.PLP.Chemscore.Internal.Correction>
1.3753

> <Gold.Rescore>
     Score         DG    S(hbond)    S(metal)    S(lipo)     H(rot)  DE(clash)    DE(int)     intcor
     16.95     -17.76       1.91        0.00     115.69       2.98       0.08       0.73       ----

> <Gold.Chemscore.Fitness>
16.9497

> <Gold.Chemscore.DG>
-17.7580

> <Gold.Chemscore.ZeroCoef>
-5.4800

> <Gold.Chemscore.Hbond>
1.9092

> <Gold.Chemscore.Metal>
0.0000

> <Gold.Chemscore.Lipo>
115.6889

> <Gold.Chemscore.Internal_Hbond>
0.0000

> <Gold.Chemscore.DEClash>
0.0810

> <Gold.Chemscore.DEInternal>
0.7273

> <Gold.Chemscore.Rot>
2.9822

> <Gold.Chemscore.Internal.Correction>
   9.000000E+99

> <Gold.Chemscore.Hbonds>
donor molecule, donor type, donor heavy atom, donor atom, acceptor molecule, acceptor atom, score
      L1  H     1    25       P1  7957  0.81
      L1  H     4    40       P1  8028  0.92
      P1  H  8011  8017       L1     1  0.21

> <Gold.Chemscore.Hbond.Weighted>
-6.3767

> <Gold.Chemscore.Metal.Weighted>
-0.0000

> <Gold.Chemscore.Lipo.Weighted>
-13.5356

> <Gold.Chemscore.Internal_Hbond.Weighted>
0.0000

> <Gold.Chemscore.DEClash.Weighted>
0.0810

> <Gold.Chemscore.DEInternal.Weighted>
0.7273

> <Gold.Chemscore.Rot.Weighted>
7.6343

> <Gold.Chemscore.Internal.Correction.Weighted>
   9.000000E+99

> <Gold.Protein.RotatedTorsions>
[ 6907 6896 6895 6894 ] final   36.17 input  -60.11 | X-H torsion
[ 7974 7965 7964 7962 ] final  -71.06 input  175.53 | X-H torsion
[ 8008 7997 7996 7995 ] final   23.92 input   59.86 | X-H torsion
[ 10167 10162 10161 10158 ] final  -22.54 input  -65.29 | X-H torsion
[ 10718 10713 10712 10709 ] final  157.19 input   66.30 | X-H torsion
[ 10763 10752 10751 10750 ] final  -58.98 input  -60.55 | X-H torsion
[ 11005 11000 10999 10996 ] final -147.77 input  -57.11 | X-H torsion

> <Gold.Protein.ActiveResidues>
 VAL166  LYS551  ARG553  GLY616  TRP617  ASP618  TYR619  PRO620  LYS621  CYS622 
 ASP623  PHE694  ASN695  SER759  ASP760  ASP761  ALA762  ILE779  LEU786  VAL792 
 PHE793  MET794  SER795  GLU796  ALA797  LYS798  CYS799  TRP800  GLU811  SER814 

> <Gold.Protein.RotatedAtoms>
  152.1261  134.9170  160.0560 H   0  0  0  0  0  0  0  0  0  0  0  0  # atno 6907 bound_to 6896
  152.0292  133.3925  159.4298 H   0  0  0  0  0  0  0  0  0  0  0  0  # atno 6908 bound_to 6896
  150.6852  134.3461  159.4932 H   0  0  0  0  0  0  0  0  0  0  0  0  # atno 6909 bound_to 6896
  145.6830  140.9181  143.0822 H   0  0  0  0  0  0  0  0  0  0  0  0  # atno 7974 bound_to 7965
  154.9884  140.3110  155.4917 H   0  0  0  0  0  0  0  0  0  0  0  0  # atno 8008 bound_to 7997
  156.2943  140.2254  156.4927 H   0  0  0  0  0  0  0  0  0  0  0  0  # atno 8009 bound_to 7997
  154.7726  140.0451  157.1051 H   0  0  0  0  0  0  0  0  0  0  0  0  # atno 8010 bound_to 7997
  140.7286  143.4525  151.0495 H   0  0  0  0  0  0  0  0  0  0  0  0  # atno 10167 bound_to 10162
  157.1948  131.0663  151.2059 H   0  0  0  0  0  0  0  0  0  0  0  0  # atno 10718 bound_to 10713
  154.2466  135.6333  153.5225 H   0  0  0  0  0  0  0  0  0  0  0  0  # atno 10763 bound_to 10752
  152.9920  135.5555  154.5853 H   0  0  0  0  0  0  0  0  0  0  0  0  # atno 10764 bound_to 10752
  154.5370  135.2892  155.1104 H   0  0  0  0  0  0  0  0  0  0  0  0  # atno 10765 bound_to 10752
  140.7682  134.3219  157.5082 H   0  0  0  0  0  0  0  0  0  0  0  0  # atno 11005 bound_to 11000
  144.7020  139.8721  143.7441 LP  0  0  0  0  0  0  0  0  0  0  0  0  # atno 17320 bound_to 7965
  146.0948  139.3940  143.0383 LP  0  0  0  0  0  0  0  0  0  0  0  0  # atno 17321 bound_to 7965
  139.8203  143.7829  152.3176 LP  0  0  0  0  0  0  0  0  0  0  0  0  # atno 17342 bound_to 10162
  139.7910  144.7410  150.9956 LP  0  0  0  0  0  0  0  0  0  0  0  0  # atno 17343 bound_to 10162
  157.3825  130.7239  149.6640 LP  0  0  0  0  0  0  0  0  0  0  0  0  # atno 17370 bound_to 10713
  155.9707  130.4168  150.4251 LP  0  0  0  0  0  0  0  0  0  0  0  0  # atno 17371 bound_to 10713
  139.8760  134.9244  156.3350 LP  0  0  0  0  0  0  0  0  0  0  0  0  # atno 17394 bound_to 11000
  140.9599  133.7395  156.0386 LP  0  0  0  0  0  0  0  0  0  0  0  0  # atno 17395 bound_to 11000

$$$$
