AV-unprocessed.smi:1240|AV-procd|sdf|5199|dock8
  -GOLD-   22720 4283D 1   1.00000     0.00000
 Structure written by MMmdl.
 48 50  0  0  0  0  0  0  0  0  2 V2000
  144.4247  136.6911  152.0491 O   0  0  0  0  0  0  0  0  0  0  0  0
  145.6299  136.4860  151.9077 C   0  0  0  0  0  0  0  0  0  0  0  0
  146.5756  137.3420  152.3178 N   0  0  0  0  0  0  0  0  0  0  0  0
  146.3235  138.5963  153.0174 C   0  0  0  0  0  0  0  0  0  0  0  0
  146.6663  138.5123  154.5291 C   0  0  2  0  0  0  0  0  0  0  0  0
  145.5679  139.1120  155.4536 C   0  0  2  0  0  0  0  0  0  0  0  0
  144.1648  138.6022  155.1640 C   0  0  0  0  0  0  0  0  0  0  0  0
  143.2971  139.6398  155.8623 C   0  0  0  0  0  0  0  0  0  0  0  0
  143.9777  140.8717  155.6695 O   0  0  0  0  0  0  0  0  0  0  0  0
  145.3406  140.6265  155.3348 C   0  0  0  0  0  0  0  0  0  0  0  0
  147.9860  139.1430  154.8357 N   0  3  0  0  0  0  0  0  0  0  0  0
  149.1571  138.2980  154.4967 C   0  0  0  0  0  0  0  0  0  0  0  0
  150.4473  138.9454  155.0289 C   0  0  0  0  0  0  0  0  0  0  0  0
  150.5768  140.2618  154.5046 O   0  0  0  0  0  0  0  0  0  0  0  0
  149.4959  141.1022  154.8918 C   0  0  0  0  0  0  0  0  0  0  0  0
  148.1793  140.5304  154.3415 C   0  0  0  0  0  0  0  0  0  0  0  0
  146.1776  135.4060  151.3239 N   0  0  0  0  0  0  0  0  0  0  0  0
  145.5384  134.2441  150.8111 C   0  0  0  0  0  0  0  0  0  0  0  0
  146.3504  133.1293  150.5169 C   0  0  0  0  0  0  0  0  0  0  0  0
  145.7435  131.9567  150.0245 C   0  0  0  0  0  0  0  0  0  0  0  0
  144.4142  131.8373  149.8251 N   0  0  0  0  0  0  0  0  0  0  0  0
  143.6365  132.9006  150.1195 C   0  0  0  0  0  0  0  0  0  0  0  0
  144.1415  134.1194  150.6159 C   0  0  0  0  0  0  0  0  0  0  0  0
  147.5409  137.0990  152.1486 H   0  0  0  0  0  0  0  0  0  0  0  0
  146.9186  139.3656  152.5259 H   0  0  0  0  0  0  0  0  0  0  0  0
  145.2772  138.8793  152.8923 H   0  0  0  0  0  0  0  0  0  0  0  0
  146.7573  137.4571  154.7930 H   0  0  0  0  0  0  0  0  0  0  0  0
  145.8021  138.8900  156.4957 H   0  0  0  0  0  0  0  0  0  0  0  0
  143.9671  138.6112  154.0911 H   0  0  0  0  0  0  0  0  0  0  0  0
  143.9856  137.5933  155.5372 H   0  0  0  0  0  0  0  0  0  0  0  0
  142.2818  139.6752  155.4671 H   0  0  0  0  0  0  0  0  0  0  0  0
  143.2409  139.4321  156.9316 H   0  0  0  0  0  0  0  0  0  0  0  0
  146.0008  141.1959  155.9895 H   0  0  0  0  0  0  0  0  0  0  0  0
  145.5016  140.9689  154.3118 H   0  0  0  0  0  0  0  0  0  0  0  0
  149.0423  137.3052  154.9331 H   0  0  0  0  0  0  0  0  0  0  0  0
  149.2286  138.1688  153.4165 H   0  0  0  0  0  0  0  0  0  0  0  0
  150.4471  138.9751  156.1198 H   0  0  0  0  0  0  0  0  0  0  0  0
  151.3147  138.3581  154.7271 H   0  0  0  0  0  0  0  0  0  0  0  0
  149.4582  141.1915  155.9787 H   0  0  0  0  0  0  0  0  0  0  0  0
  149.6661  142.1031  154.4949 H   0  0  0  0  0  0  0  0  0  0  0  0
  148.2110  140.5446  153.2516 H   0  0  0  0  0  0  0  0  0  0  0  0
  147.3505  141.1667  154.6504 H   0  0  0  0  0  0  0  0  0  0  0  0
  147.1804  135.4263  151.2109 H   0  0  0  0  0  0  0  0  0  0  0  0
  147.4204  133.1675  150.6606 H   0  0  0  0  0  0  0  0  0  0  0  0
  146.3430  131.0904  149.7871 H   0  0  0  0  0  0  0  0  0  0  0  0
  142.5757  132.7745  149.9610 H   0  0  0  0  0  0  0  0  0  0  0  0
  143.4512  134.9160  150.8442 H   0  0  0  0  0  0  0  0  0  0  0  0
  148.0046  139.2122  155.8432 H   0  0  0  0  0  0  0  0  0  0  0  0
  1  2  2  0  0  0  0
  2  3  1  0  0  0  0
  2 17  1  0  0  0  0
  3  4  1  0  0  0  0
  3 24  1  0  0  0  0
  4  5  1  0  0  0  0
  4 25  1  0  0  0  0
  4 26  1  0  0  0  0
  5  6  1  0  0  0  0
  5 11  1  0  0  0  0
  5 27  1  0  0  0  0
  6 10  1  0  0  0  0
  6  7  1  0  0  0  0
  6 28  1  0  0  0  0
  7  8  1  0  0  0  0
  7 29  1  0  0  0  0
  7 30  1  0  0  0  0
  8  9  1  0  0  0  0
  8 31  1  0  0  0  0
  8 32  1  0  0  0  0
  9 10  1  0  0  0  0
 10 33  1  0  0  0  0
 10 34  1  0  0  0  0
 11 16  1  0  0  0  0
 11 12  1  0  0  0  0
 11 48  1  0  0  0  0
 12 13  1  0  0  0  0
 12 35  1  0  0  0  0
 12 36  1  0  0  0  0
 13 14  1  0  0  0  0
 13 37  1  0  0  0  0
 13 38  1  0  0  0  0
 14 15  1  0  0  0  0
 15 16  1  0  0  0  0
 15 39  1  0  0  0  0
 15 40  1  0  0  0  0
 16 41  1  0  0  0  0
 16 42  1  0  0  0  0
 17 18  1  0  0  0  0
 17 43  1  0  0  0  0
 18 23  1  0  0  0  0
 18 19  2  0  0  0  0
 19 20  1  0  0  0  0
 19 44  1  0  0  0  0
 20 21  2  0  0  0  0
 20 45  1  0  0  0  0
 21 22  1  0  0  0  0
 22 23  2  0  0  0  0
 22 46  1  0  0  0  0
 23 47  1  0  0  0  0
M  CHG  1  11   1
M  END
> <s_m_source_file>
AV-unprocessed.smi

> <i_m_source_file_index>
1240

> <i_lp_mmshare_version>
43012

> <i_f3d_flags>
0

> <s_epik_input>
W2NIXTFbY0hdbltjSF1bY0hdYzFbTkhdQyg9TylbTkhdW0NIMl1bQ0BIXShbQ0BASF0yW0NIMl1bQ0gyXU9bQ0gyXTIpTjNbQ0gyXVtDSDJdT1tDSDJdW0NIMl0z

> <s_epik_cmdline>
J2VwaWtfcHl0aG9uJywgJy1waCcsICc3LjAnLCAnLXRuJywgJzgnLCAnLW1hJywgJzIwMCcsICctbWV0YWxfYmluZGluZycsICctaW1hZScsICc8aW5maWxlLm1hZT4nLCAnLW9tYWUnLCAnPG91dGZpbGUubWFlPic=

> <r_epik_Ionization_Penalty>
1.08433

> <r_epik_Ionization_Penalty_Charging>
0.98326

> <r_epik_Ionization_Penalty_Neutral>
0.10107

> <r_epik_State_Penalty>
1.11265

> <r_epik_Charging_Adjusted_Penalty>
2.09591

> <i_epik_Tot_Q>
1

> <i_epik_Tot_abs_Q>
1

> <r_epik_Metal_State_Penalty>
1.10731

> <b_epik_Metal_Only>
0

> <s_lp_Force_Field>
OPLS_2005

> <r_lp_Energy>
43.6027

> <b_lp_Chiralities_Consistent>
1

> <s_lp_Variant>
AV-unprocessed.smi:1240-5

> <Gold.Version>
5.8.1

> <Gold.Id.Protein>
6NUR|6NUR_protein|mol2

> <Gold.PLP.Fitness>
45.1454

> <Gold.PLP.PLP>
-32.4804

> <Gold.PLP.part.hbond>
-3.6147

> <Gold.PLP.part.metal>
0.0000

> <Gold.PLP.part.buried>
-4.9856

> <Gold.PLP.part.nonpolar>
-25.9760

> <Gold.PLP.part.repulsive>
1.2679

> <Gold.PLP.ligand.clash>
0.0000

> <Gold.PLP.ligand.torsion>
1.0801

> <Gold.PLP.Chemscore.Hbond>
3.0012

> <Gold.PLP.Chemscore.CHOScore>
1.8780

> <Gold.PLP.Chemscore.Metal>
0.0000

> <Gold.Chemscore.Hbonds>
donor molecule, donor type, donor heavy atom, donor atom, acceptor molecule, acceptor atom, score
      L1  H     3    24       P1  7948  1.00
      L1  H    17    43       P1  7948  0.96
      P1  H  7989  7998       L1    14  1.00
      P1  H 10785 10796       L1    21  0.13
      L1  C    20    45       P1 10747  0.60
      L1  C    22    46       P1 10186  0.96

> <Gold.PLP.Chemscore.Internal.Correction>
0.1878

> <Gold.Rescore>
     Score         DG    S(hbond)    S(metal)    S(lipo)     H(rot)  DE(clash)    DE(int)     intcor
     16.89     -19.25       2.83        0.00      74.26       1.70       0.05       2.31       ----

> <Gold.Chemscore.Fitness>
16.8944

> <Gold.Chemscore.DG>
-19.2503

> <Gold.Chemscore.ZeroCoef>
-5.4800

> <Gold.Chemscore.Hbond>
2.8260

> <Gold.Chemscore.Metal>
0.0000

> <Gold.Chemscore.Lipo>
74.2630

> <Gold.Chemscore.Internal_Hbond>
0.0000

> <Gold.Chemscore.DEClash>
0.0462

> <Gold.Chemscore.DEInternal>
2.3097

> <Gold.Chemscore.Rot>
1.7021

> <Gold.Chemscore.Internal.Correction>
   9.000000E+99

> <Gold.Chemscore.Hbonds>
donor molecule, donor type, donor heavy atom, donor atom, acceptor molecule, acceptor atom, score
      L1  H     3    24       P1  7948  1.00
      L1  H    17    43       P1  7948  0.76
      P1  H  7989  7998       L1    14  0.90
      P1  H 10785 10796       L1    21  0.11

> <Gold.Chemscore.Hbond.Weighted>
-9.4390

> <Gold.Chemscore.Metal.Weighted>
-0.0000

> <Gold.Chemscore.Lipo.Weighted>
-8.6888

> <Gold.Chemscore.Internal_Hbond.Weighted>
0.0000

> <Gold.Chemscore.DEClash.Weighted>
0.0462

> <Gold.Chemscore.DEInternal.Weighted>
2.3097

> <Gold.Chemscore.Rot.Weighted>
4.3575

> <Gold.Chemscore.Internal.Correction.Weighted>
   9.000000E+99

> <Gold.Protein.RotatedTorsions>
[ 6907 6896 6895 6894 ] final -135.37 input  -60.11 | X-H torsion
[ 7974 7965 7964 7962 ] final -166.59 input  175.53 | X-H torsion
[ 8008 7997 7996 7995 ] final  -70.25 input   59.86 | X-H torsion
[ 10167 10162 10161 10158 ] final  -35.32 input  -65.29 | X-H torsion
[ 10718 10713 10712 10709 ] final  104.02 input   66.30 | X-H torsion
[ 10763 10752 10751 10750 ] final   10.83 input  -60.55 | X-H torsion
[ 11005 11000 10999 10996 ] final -170.64 input  -57.11 | X-H torsion

> <Gold.Protein.ActiveResidues>
 VAL166  LYS551  ARG553  GLY616  TRP617  ASP618  TYR619  PRO620  LYS621  CYS622 
 ASP623  PHE694  ASN695  SER759  ASP760  ASP761  ALA762  ILE779  LEU786  VAL792 
 PHE793  MET794  SER795  GLU796  ALA797  LYS798  CYS799  TRP800  GLU811  SER814 

> <Gold.Protein.RotatedAtoms>
  150.9970  133.6093  159.2699 H   0  0  0  0  0  0  0  0  0  0  0  0  # atno 6907 bound_to 6896
  151.3293  135.0837  159.9343 H   0  0  0  0  0  0  0  0  0  0  0  0  # atno 6908 bound_to 6896
  152.5263  133.9603  159.7768 H   0  0  0  0  0  0  0  0  0  0  0  0  # atno 6909 bound_to 6896
  144.7242  140.2644  143.6260 H   0  0  0  0  0  0  0  0  0  0  0  0  # atno 7974 bound_to 7965
  154.4998  140.0838  156.7774 H   0  0  0  0  0  0  0  0  0  0  0  0  # atno 8008 bound_to 7997
  155.4030  140.3438  155.4240 H   0  0  0  0  0  0  0  0  0  0  0  0  # atno 8009 bound_to 7997
  156.1442  140.1538  156.8861 H   0  0  0  0  0  0  0  0  0  0  0  0  # atno 8010 bound_to 7997
  140.7167  143.3485  151.2205 H   0  0  0  0  0  0  0  0  0  0  0  0  # atno 10167 bound_to 10162
  157.6754  131.0793  150.5643 H   0  0  0  0  0  0  0  0  0  0  0  0  # atno 10718 bound_to 10713
  153.1990  135.6853  153.8255 H   0  0  0  0  0  0  0  0  0  0  0  0  # atno 10763 bound_to 10752
  153.7528  135.3221  155.3325 H   0  0  0  0  0  0  0  0  0  0  0  0  # atno 10764 bound_to 10752
  154.8161  135.4685  154.0748 H   0  0  0  0  0  0  0  0  0  0  0  0  # atno 10765 bound_to 10752
  140.5173  134.5744  157.5037 H   0  0  0  0  0  0  0  0  0  0  0  0  # atno 11005 bound_to 11000
  145.8104  139.2001  143.1996 LP  0  0  0  0  0  0  0  0  0  0  0  0  # atno 17320 bound_to 7965
  146.0601  140.7980  142.9739 LP  0  0  0  0  0  0  0  0  0  0  0  0  # atno 17321 bound_to 7965
  139.7010  143.9532  152.2905 LP  0  0  0  0  0  0  0  0  0  0  0  0  # atno 17342 bound_to 10162
  139.9226  144.6790  150.8446 LP  0  0  0  0  0  0  0  0  0  0  0  0  # atno 17343 bound_to 10162
  156.5945  130.4338  149.5923 LP  0  0  0  0  0  0  0  0  0  0  0  0  # atno 17370 bound_to 10713
  156.2556  130.6933  151.1685 LP  0  0  0  0  0  0  0  0  0  0  0  0  # atno 17371 bound_to 10713
  139.9625  134.7428  156.0206 LP  0  0  0  0  0  0  0  0  0  0  0  0  # atno 17394 bound_to 11000
  141.1353  133.6576  156.3578 LP  0  0  0  0  0  0  0  0  0  0  0  0  # atno 17395 bound_to 11000

$$$$
