AV-unprocessed.smi:1423|AV-procd|sdf|5798|dock6
  -GOLD-   22720 5453D 1   1.00000     0.00000
 Structure written by MMmdl.
 43 44  0  0  0  0  0  0  0  0  3 V2000
  152.0705  140.7896  158.2110 C   0  0  0  0  0  0  0  0  0  0  0  0
  152.4947  140.1624  157.0058 O   0  0  0  0  0  0  0  0  0  0  0  0
  151.5704  139.4350  156.2844 C   0  0  0  0  0  0  0  0  0  0  0  0
  151.9981  138.7717  155.1174 C   0  0  0  0  0  0  0  0  0  0  0  0
  151.0625  138.0269  154.3744 C   0  0  0  0  0  0  0  0  0  0  0  0
  149.7232  137.9618  154.8284 C   0  0  0  0  0  0  0  0  0  0  0  0
  148.6803  137.2616  154.1617 N   0  0  0  0  0  0  0  0  0  0  0  0
  147.3880  137.1436  154.5131 C   0  0  0  0  0  0  0  0  0  0  0  0
  146.8615  137.6807  155.4869 O   0  0  0  0  0  0  0  0  0  0  0  0
  146.7187  136.3658  153.6496 N   0  0  0  0  0  0  0  0  0  0  0  0
  145.2957  136.0374  153.7390 C   0  0  2  0  0  0  0  0  0  0  0  0
  145.0663  134.5178  153.8598 C   0  0  0  0  0  0  0  0  0  0  0  0
  145.3787  133.7804  152.5458 C   0  0  0  0  0  0  0  0  0  0  0  0
  144.5922  134.3426  151.4152 N   0  3  2  0  0  0  0  0  0  0  0  0
  144.7572  133.5795  150.1528 C   0  0  0  0  0  0  0  0  0  0  0  0
  144.0371  132.2304  150.2506 C   0  0  0  0  0  0  0  0  0  0  0  0
  143.0365  132.1157  149.3571 N   0  5  0  0  0  0  0  0  0  0  0  0
  144.4126  131.3999  151.0756 O   0  0  0  0  0  0  0  0  0  0  0  0
  144.8543  135.7930  151.2352 C   0  0  0  0  0  0  0  0  0  0  0  0
  144.5354  136.5827  152.5177 C   0  0  0  0  0  0  0  0  0  0  0  0
  149.3953  138.6716  156.0025 C   0  0  0  0  0  0  0  0  0  0  0  0
  150.2869  139.3878  156.7192 N   0  0  0  0  0  0  0  0  0  0  0  0
  152.9143  141.3122  158.6611 H   0  0  0  0  0  0  0  0  0  0  0  0
  151.7097  140.0586  158.9360 H   0  0  0  0  0  0  0  0  0  0  0  0
  151.2874  141.5257  158.0237 H   0  0  0  0  0  0  0  0  0  0  0  0
  153.0266  138.8364  154.7945 H   0  0  0  0  0  0  0  0  0  0  0  0
  151.3908  137.5375  153.4712 H   0  0  0  0  0  0  0  0  0  0  0  0
  148.9444  136.8264  153.2901 H   0  0  0  0  0  0  0  0  0  0  0  0
  147.2294  135.9742  152.8719 H   0  0  0  0  0  0  0  0  0  0  0  0
  144.8939  136.5250  154.6293 H   0  0  0  0  0  0  0  0  0  0  0  0
  145.6621  134.1013  154.6726 H   0  0  0  0  0  0  0  0  0  0  0  0
  144.0248  134.3347  154.1281 H   0  0  0  0  0  0  0  0  0  0  0  0
  146.4440  133.8459  152.3188 H   0  0  0  0  0  0  0  0  0  0  0  0
  145.1518  132.7216  152.6730 H   0  0  0  0  0  0  0  0  0  0  0  0
  144.2964  134.1220  149.3262 H   0  0  0  0  0  0  0  0  0  0  0  0
  145.8160  133.4785  149.9046 H   0  0  0  0  0  0  0  0  0  0  0  0
  142.3954  132.9083  149.2305 H   0  0  0  0  0  0  0  0  0  0  0  0
  145.8952  135.9421  150.9437 H   0  0  0  0  0  0  0  0  0  0  0  0
  144.2404  136.1780  150.4203 H   0  0  0  0  0  0  0  0  0  0  0  0
  143.4631  136.5244  152.7105 H   0  0  0  0  0  0  0  0  0  0  0  0
  144.7589  137.6404  152.3726 H   0  0  0  0  0  0  0  0  0  0  0  0
  148.3840  138.6641  156.3825 H   0  0  0  0  0  0  0  0  0  0  0  0
  143.6165  134.2558  151.6623 H   0  0  0  0  0  0  0  0  0  0  0  0
  1  2  1  0  0  0  0
  1 23  1  0  0  0  0
  1 24  1  0  0  0  0
  1 25  1  0  0  0  0
  2  3  1  0  0  0  0
  3 22  1  0  0  0  0
  3  4  2  0  0  0  0
  4  5  1  0  0  0  0
  4 26  1  0  0  0  0
  5  6  2  0  0  0  0
  5 27  1  0  0  0  0
  6  7  1  0  0  0  0
  6 21  1  0  0  0  0
  7  8  1  0  0  0  0
  7 28  1  0  0  0  0
  8  9  2  0  0  0  0
  8 10  1  0  0  0  0
 10 11  1  0  0  0  0
 10 29  1  0  0  0  0
 11 20  1  0  0  0  0
 11 12  1  0  0  0  0
 11 30  1  0  0  0  0
 12 13  1  0  0  0  0
 12 31  1  0  0  0  0
 12 32  1  0  0  0  0
 13 14  1  0  0  0  0
 13 33  1  0  0  0  0
 13 34  1  0  0  0  0
 14 15  1  0  0  0  0
 14 19  1  0  0  0  0
 14 43  1  0  0  0  0
 15 16  1  0  0  0  0
 15 35  1  0  0  0  0
 15 36  1  0  0  0  0
 16 17  1  0  0  0  0
 16 18  2  0  0  0  0
 17 37  1  0  0  0  0
 19 20  1  0  0  0  0
 19 38  1  0  0  0  0
 19 39  1  0  0  0  0
 20 40  1  0  0  0  0
 20 41  1  0  0  0  0
 21 22  2  0  0  0  0
 21 42  1  0  0  0  0
M  CHG  1  14   1
M  CHG  1  17  -1
M  END
> <s_m_source_file>
AV-unprocessed.smi

> <i_m_source_file_index>
1423

> <i_lp_mmshare_version>
43012

> <i_f3d_flags>
0

> <s_epik_input>
W0NIM11PYzFbY0hdW2NIXWMoW2NIXW4xKVtOSF1DKD1PKVtOSF1bQ0hdMltDSDJdW0NIMl1OKFtDSDJdW0NIMl0yKVtDSDJdQyg9TylbTkgyXQ==

> <s_epik_cmdline>
J2VwaWtfcHl0aG9uJywgJy1waCcsICc3LjAnLCAnLXRuJywgJzgnLCAnLW1hJywgJzIwMCcsICctbWV0YWxfYmluZGluZycsICctaW1hZScsICc8aW5maWxlLm1hZT4nLCAnLW9tYWUnLCAnPG91dGZpbGUubWFlPic=

> <r_lp_tautomer_probability>
1

> <r_epik_Ionization_Penalty>
5.72888

> <r_epik_Ionization_Penalty_Charging>
5.7288

> <r_epik_Ionization_Penalty_Neutral>
7.8452e-05

> <r_epik_State_Penalty>
6.54882

> <r_epik_Charging_Adjusted_Penalty>
12.2776

> <i_epik_Tot_Q>
0

> <i_epik_Tot_abs_Q>
2

> <r_epik_Metal_State_Penalty>
2.51301

> <b_epik_Metal_Only>
1

> <s_lp_Force_Field>
OPLS_2005

> <r_lp_Energy>
11.3515

> <b_lp_Chiralities_Consistent>
1

> <s_lp_Variant>
AV-unprocessed.smi:1423-5

> <Gold.Version>
5.8.1

> <Gold.Id.Protein>
6NUR|6NUR_protein|mol2

> <Gold.PLP.Fitness>
45.1587

> <Gold.PLP.PLP>
-31.4425

> <Gold.PLP.part.hbond>
-5.7988

> <Gold.PLP.part.metal>
0.0000

> <Gold.PLP.part.buried>
-4.2158

> <Gold.PLP.part.nonpolar>
-21.3277

> <Gold.PLP.part.repulsive>
0.1862

> <Gold.PLP.ligand.clash>
0.0000

> <Gold.PLP.ligand.torsion>
0.1447

> <Gold.PLP.Chemscore.Hbond>
4.6520

> <Gold.PLP.Chemscore.CHOScore>
0.0000

> <Gold.PLP.Chemscore.Metal>
0.0000

> <Gold.Chemscore.Hbonds>
donor molecule, donor type, donor heavy atom, donor atom, acceptor molecule, acceptor atom, score
      L1  H     7    28       P1  7948  1.00
      L1  H    10    29       P1  7948  0.83
      L1  H    17    37       P1 10186  0.91
      P1  H  7997  8009       L1     2  1.00
      P1  H 10785 10796       L1    17  0.89

> <Gold.PLP.Chemscore.Internal.Correction>
0.0496

> <Gold.Rescore>
     Score         DG    S(hbond)    S(metal)    S(lipo)     H(rot)  DE(clash)    DE(int)     intcor
     16.99     -19.83       4.13        0.00      54.76       2.29       0.07       2.77       ----

> <Gold.Chemscore.Fitness>
16.9943

> <Gold.Chemscore.DG>
-19.8335

> <Gold.Chemscore.ZeroCoef>
-5.4800

> <Gold.Chemscore.Hbond>
4.1339

> <Gold.Chemscore.Metal>
0.0000

> <Gold.Chemscore.Lipo>
54.7610

> <Gold.Chemscore.Internal_Hbond>
0.0000

> <Gold.Chemscore.DEClash>
0.0650

> <Gold.Chemscore.DEInternal>
2.7742

> <Gold.Chemscore.Rot>
2.2894

> <Gold.Chemscore.Internal.Correction>
   9.000000E+99

> <Gold.Chemscore.Hbonds>
donor molecule, donor type, donor heavy atom, donor atom, acceptor molecule, acceptor atom, score
      L1  H     7    28       P1  7948  0.93
      L1  H    10    29       P1  7948  0.78
      L1  H    17    37       P1 10186  0.87
      P1  H  7997  8009       L1     2  0.89
      P1  H 10785 10796       L1    17  0.34

> <Gold.Chemscore.Hbond.Weighted>
-13.8073

> <Gold.Chemscore.Metal.Weighted>
-0.0000

> <Gold.Chemscore.Lipo.Weighted>
-6.4070

> <Gold.Chemscore.Internal_Hbond.Weighted>
0.0000

> <Gold.Chemscore.DEClash.Weighted>
0.0650

> <Gold.Chemscore.DEInternal.Weighted>
2.7742

> <Gold.Chemscore.Rot.Weighted>
5.8608

> <Gold.Chemscore.Internal.Correction.Weighted>
   9.000000E+99

> <Gold.Protein.RotatedTorsions>
[ 6907 6896 6895 6894 ] final -132.43 input  -60.11 | X-H torsion
[ 7974 7965 7964 7962 ] final   41.25 input  175.53 | X-H torsion
[ 8008 7997 7996 7995 ] final -165.95 input   59.86 | X-H torsion
[ 10167 10162 10161 10158 ] final -121.97 input  -65.29 | X-H torsion
[ 10718 10713 10712 10709 ] final   75.75 input   66.30 | X-H torsion
[ 10763 10752 10751 10750 ] final  129.87 input  -60.55 | X-H torsion
[ 11005 11000 10999 10996 ] final -121.64 input  -57.11 | X-H torsion

> <Gold.Protein.ActiveResidues>
 VAL166  LYS551  ARG553  GLY616  TRP617  ASP618  TYR619  PRO620  LYS621  CYS622 
 ASP623  PHE694  ASN695  SER759  ASP760  ASP761  ALA762  ILE779  LEU786  VAL792 
 PHE793  MET794  SER795  GLU796  ALA797  LYS798  CYS799  TRP800  GLU811  SER814 

> <Gold.Protein.RotatedAtoms>
  150.9623  133.6432  159.2751 H   0  0  0  0  0  0  0  0  0  0  0  0  # atno 6907 bound_to 6896
  151.3750  135.0928  159.9487 H   0  0  0  0  0  0  0  0  0  0  0  0  # atno 6908 bound_to 6896
  152.5152  133.9170  159.7570 H   0  0  0  0  0  0  0  0  0  0  0  0  # atno 6909 bound_to 6896
  146.0838  139.5437  142.9519 H   0  0  0  0  0  0  0  0  0  0  0  0  # atno 7974 bound_to 7965
  155.8570  140.0972  157.1638 H   0  0  0  0  0  0  0  0  0  0  0  0  # atno 8008 bound_to 7997
  154.3988  140.1372  156.3976 H   0  0  0  0  0  0  0  0  0  0  0  0  # atno 8009 bound_to 7997
  155.7899  140.3456  155.5346 H   0  0  0  0  0  0  0  0  0  0  0  0  # atno 8010 bound_to 7997
  140.0193  143.5360  152.2228 H   0  0  0  0  0  0  0  0  0  0  0  0  # atno 10167 bound_to 10162
  157.6646  130.9741  150.1398 H   0  0  0  0  0  0  0  0  0  0  0  0  # atno 10718 bound_to 10713
  153.7487  135.3213  155.3317 H   0  0  0  0  0  0  0  0  0  0  0  0  # atno 10763 bound_to 10752
  154.8270  135.4562  154.0953 H   0  0  0  0  0  0  0  0  0  0  0  0  # atno 10764 bound_to 10752
  153.2149  135.6940  153.8151 H   0  0  0  0  0  0  0  0  0  0  0  0  # atno 10765 bound_to 10752
  141.0055  134.0340  157.3482 H   0  0  0  0  0  0  0  0  0  0  0  0  # atno 11005 bound_to 11000
  145.6167  141.0330  143.1937 LP  0  0  0  0  0  0  0  0  0  0  0  0  # atno 17320 bound_to 7965
  144.7312  139.7721  143.7346 LP  0  0  0  0  0  0  0  0  0  0  0  0  # atno 17321 bound_to 7965
  139.6150  144.7617  151.2866 LP  0  0  0  0  0  0  0  0  0  0  0  0  # atno 17342 bound_to 10162
  140.7349  143.6753  150.8047 LP  0  0  0  0  0  0  0  0  0  0  0  0  # atno 17343 bound_to 10162
  156.2223  130.3675  149.8541 LP  0  0  0  0  0  0  0  0  0  0  0  0  # atno 17370 bound_to 10713
  156.6390  130.8697  151.3510 LP  0  0  0  0  0  0  0  0  0  0  0  0  # atno 17371 bound_to 10713
  139.9061  135.0180  156.7492 LP  0  0  0  0  0  0  0  0  0  0  0  0  # atno 17394 bound_to 11000
  140.6819  133.9467  155.7915 LP  0  0  0  0  0  0  0  0  0  0  0  0  # atno 17395 bound_to 11000

$$$$
