AV-unprocessed.smi:2845|AV-procd|sdf|10947|dock2
  -GOLD-   2272015393D 1   1.00000     0.00000
 Structure written by MMmdl.
 43 45  0  0  0  0  0  0  0  0  2 V2000
  152.5737  143.3057  161.4180 C   0  0  0  0  0  0  0  0  0  0  0  0
  152.0952  142.8028  160.0666 C   0  0  0  0  0  0  0  0  0  0  0  0
  152.6003  141.5728  159.5874 C   0  0  0  0  0  0  0  0  0  0  0  0
  152.1428  141.1385  158.3491 C   0  0  0  0  0  0  0  0  0  0  0  0
  152.4413  139.9890  157.6138 N   0  3  0  0  0  0  0  0  0  0  0  0
  151.7391  140.0012  156.4468 C   0  0  0  0  0  0  0  0  0  0  0  0
  150.9978  141.1418  156.4269 N   0  0  0  0  0  0  0  0  0  0  0  0
  150.0643  141.6409  155.4094 C   0  0  0  0  0  0  0  0  0  0  0  0
  149.2749  140.5080  154.7195 C   0  0  2  0  0  0  0  0  0  0  0  0
  150.1152  139.8509  153.7895 O   0  0  0  0  0  0  0  0  0  0  0  0
  147.9874  140.9913  154.0173 C   0  0  0  0  0  0  0  0  0  0  0  0
  147.0310  141.6218  154.9119 N   0  0  0  0  0  0  0  0  0  0  0  0
  145.7757  142.0260  154.6940 C   0  0  0  0  0  0  0  0  0  0  0  0
  145.1913  142.5674  155.7542 N   0  0  0  0  0  0  0  0  0  0  0  0
  146.2208  142.4573  156.6436 C   0  0  0  0  0  0  0  0  0  0  0  0
  146.0699  143.0438  158.3601 S   0  0  1  0  0  0  0  0  0  0  0  0
  144.2931  143.5576  158.2227 C   0  0  0  0  0  0  0  0  0  0  0  0
  146.1077  141.7918  159.2389 O   0  0  0  0  0  0  0  0  0  0  0  0
  147.3473  141.9055  156.1981 N   0  0  0  0  0  0  0  0  0  0  0  0
  151.2166  141.8823  157.5926 C   0  0  0  0  0  0  0  0  0  0  0  0
  150.7086  143.0960  158.0490 C   0  0  0  0  0  0  0  0  0  0  0  0
  151.1614  143.5547  159.3069 C   0  0  0  0  0  0  0  0  0  0  0  0
  150.6256  144.8760  159.8319 C   0  0  0  0  0  0  0  0  0  0  0  0
  153.2909  142.6188  161.8684 H   0  0  0  0  0  0  0  0  0  0  0  0
  151.7352  143.4102  162.1069 H   0  0  0  0  0  0  0  0  0  0  0  0
  153.0612  144.2755  161.3155 H   0  0  0  0  0  0  0  0  0  0  0  0
  153.3114  140.9956  160.1601 H   0  0  0  0  0  0  0  0  0  0  0  0
  151.7614  139.2419  155.6782 H   0  0  0  0  0  0  0  0  0  0  0  0
  149.3907  142.3589  155.8786 H   0  0  0  0  0  0  0  0  0  0  0  0
  150.6539  142.1995  154.6812 H   0  0  0  0  0  0  0  0  0  0  0  0
  148.9902  139.7675  155.4675 H   0  0  0  0  0  0  0  0  0  0  0  0
  149.6887  139.8502  152.9460 H   0  0  0  0  0  0  0  0  0  0  0  0
  148.2305  141.6908  153.2159 H   0  0  0  0  0  0  0  0  0  0  0  0
  147.4922  140.1437  153.5420 H   0  0  0  0  0  0  0  0  0  0  0  0
  145.2783  141.9176  153.7412 H   0  0  0  0  0  0  0  0  0  0  0  0
  144.0475  143.8525  157.2022 H   0  0  0  0  0  0  0  0  0  0  0  0
  144.0978  144.4043  158.8803 H   0  0  0  0  0  0  0  0  0  0  0  0
  143.6392  142.7355  158.5132 H   0  0  0  0  0  0  0  0  0  0  0  0
  149.9976  143.6667  157.4703 H   0  0  0  0  0  0  0  0  0  0  0  0
  149.9222  145.3283  159.1320 H   0  0  0  0  0  0  0  0  0  0  0  0
  151.4396  145.5838  159.9897 H   0  0  0  0  0  0  0  0  0  0  0  0
  150.1050  144.7294  160.7785 H   0  0  0  0  0  0  0  0  0  0  0  0
  153.0750  139.2482  157.8858 H   0  0  0  0  0  0  0  0  0  0  0  0
  1  2  1  0  0  0  0
  1 24  1  0  0  0  0
  1 25  1  0  0  0  0
  1 26  1  0  0  0  0
  2 22  1  0  0  0  0
  2  3  2  0  0  0  0
  3  4  1  0  0  0  0
  3 27  1  0  0  0  0
  4 20  2  0  0  0  0
  4  5  1  0  0  0  0
  5  6  2  0  0  0  0
  5 43  1  0  0  0  0
  6  7  1  0  0  0  0
  6 28  1  0  0  0  0
  7  8  1  0  0  0  0
  7 20  1  0  0  0  0
  8  9  1  0  0  0  0
  8 29  1  0  0  0  0
  8 30  1  0  0  0  0
  9 10  1  0  0  0  0
  9 11  1  0  0  0  0
  9 31  1  0  0  0  0
 10 32  1  0  0  0  0
 11 12  1  0  0  0  0
 11 33  1  0  0  0  0
 11 34  1  0  0  0  0
 12 19  1  0  0  0  0
 12 13  1  0  0  0  0
 13 14  2  0  0  0  0
 13 35  1  0  0  0  0
 14 15  1  0  0  0  0
 15 16  1  0  0  0  0
 15 19  2  0  0  0  0
 16 17  1  0  0  0  0
 16 18  2  0  0  0  0
 17 36  1  0  0  0  0
 17 37  1  0  0  0  0
 17 38  1  0  0  0  0
 20 21  1  0  0  0  0
 21 22  2  0  0  0  0
 21 39  1  0  0  0  0
 22 23  1  0  0  0  0
 23 40  1  0  0  0  0
 23 41  1  0  0  0  0
 23 42  1  0  0  0  0
M  CHG  1   5   1
M  END
> <s_m_source_file>
AV-unprocessed.smi

> <i_m_source_file_index>
2845

> <i_lp_mmshare_version>
43012

> <i_f3d_flags>
0

> <s_epik_input>
W0NIM11jKFtjSF0xKWMoW0NIM10pW2NIXWMoYzEyKW4oW2NIXW4yKVtDSDJdW0NASF0oW09IXSlbQ0gyXW4zW2NIXW5jKG4zKVtTQF0oPU8pW0NIM10=

> <s_epik_cmdline>
J2VwaWtfcHl0aG9uJywgJy1waCcsICc3LjAnLCAnLXRuJywgJzgnLCAnLW1hJywgJzIwMCcsICctbWV0YWxfYmluZGluZycsICctaW1hZScsICc8aW5maWxlLm1hZT4nLCAnLW9tYWUnLCAnPG91dGZpbGUubWFlPic=

> <r_lp_tautomer_probability>
1

> <r_epik_Ionization_Penalty>
1.12076

> <r_epik_Ionization_Penalty_Charging>
1.12075

> <r_epik_Ionization_Penalty_Neutral>
1.54566e-06

> <r_epik_State_Penalty>
1.17957

> <r_epik_Charging_Adjusted_Penalty>
2.30033

> <i_epik_Tot_Q>
1

> <i_epik_Tot_abs_Q>
1

> <r_epik_Metal_State_Penalty>
1.26402

> <b_epik_Metal_Only>
0

> <s_lp_Force_Field>
OPLS_2005

> <r_lp_Energy>
15.2254

> <b_lp_Chiralities_Consistent>
1

> <s_lp_Variant>
AV-unprocessed.smi:2845-5

> <Gold.Version>
5.8.1

> <Gold.Id.Protein>
6NUR|6NUR_protein|mol2

> <Gold.PLP.Fitness>
53.9261

> <Gold.PLP.PLP>
-45.0879

> <Gold.PLP.part.hbond>
-3.0000

> <Gold.PLP.part.metal>
0.0000

> <Gold.PLP.part.buried>
-6.6093

> <Gold.PLP.part.nonpolar>
-36.2666

> <Gold.PLP.part.repulsive>
0.8640

> <Gold.PLP.ligand.clash>
0.0000

> <Gold.PLP.ligand.torsion>
1.2041

> <Gold.PLP.Chemscore.Hbond>
2.8960

> <Gold.PLP.Chemscore.CHOScore>
0.4973

> <Gold.PLP.Chemscore.Metal>
0.0000

> <Gold.Chemscore.Hbonds>
donor molecule, donor type, donor heavy atom, donor atom, acceptor molecule, acceptor atom, score
      L1  H    10    32       P1  7957  1.00
      P1  H  6934  6946       L1    18  0.99
      P1  H  7989  7998       L1    10  0.88
      L1  C    13    35       P1 10175  0.55

> <Gold.PLP.Chemscore.Internal.Correction>
1.0665

> <Gold.Rescore>
     Score         DG    S(hbond)    S(metal)    S(lipo)     H(rot)  DE(clash)    DE(int)     intcor
     14.89     -17.89       2.17        0.00     104.56       2.77       0.60       2.40       ----

> <Gold.Chemscore.Fitness>
14.8907

> <Gold.Chemscore.DG>
-17.8914

> <Gold.Chemscore.ZeroCoef>
-5.4800

> <Gold.Chemscore.Hbond>
2.1748

> <Gold.Chemscore.Metal>
0.0000

> <Gold.Chemscore.Lipo>
104.5627

> <Gold.Chemscore.Internal_Hbond>
0.0000

> <Gold.Chemscore.DEClash>
0.5982

> <Gold.Chemscore.DEInternal>
2.4026

> <Gold.Chemscore.Rot>
2.7681

> <Gold.Chemscore.Internal.Correction>
   9.000000E+99

> <Gold.Chemscore.Hbonds>
donor molecule, donor type, donor heavy atom, donor atom, acceptor molecule, acceptor atom, score
      L1  H    10    32       P1  7957  0.98
      P1  H  6934  6946       L1    18  0.93
      P1  H  7989  7998       L1    10  0.22

> <Gold.Chemscore.Hbond.Weighted>
-7.2639

> <Gold.Chemscore.Metal.Weighted>
-0.0000

> <Gold.Chemscore.Lipo.Weighted>
-12.2338

> <Gold.Chemscore.Internal_Hbond.Weighted>
0.0000

> <Gold.Chemscore.DEClash.Weighted>
0.5982

> <Gold.Chemscore.DEInternal.Weighted>
2.4026

> <Gold.Chemscore.Rot.Weighted>
7.0863

> <Gold.Chemscore.Internal.Correction.Weighted>
   9.000000E+99

> <Gold.Protein.RotatedTorsions>
[ 6907 6896 6895 6894 ] final -155.84 input  -60.11 | X-H torsion
[ 7974 7965 7964 7962 ] final  -46.05 input  175.53 | X-H torsion
[ 8008 7997 7996 7995 ] final  -13.17 input   59.86 | X-H torsion
[ 10167 10162 10161 10158 ] final -112.58 input  -65.29 | X-H torsion
[ 10718 10713 10712 10709 ] final -162.47 input   66.30 | X-H torsion
[ 10763 10752 10751 10750 ] final  -75.08 input  -60.55 | X-H torsion
[ 11005 11000 10999 10996 ] final  164.97 input  -57.11 | X-H torsion

> <Gold.Protein.ActiveResidues>
 VAL166  LYS551  ARG553  GLY616  TRP617  ASP618  TYR619  PRO620  LYS621  CYS622 
 ASP623  PHE694  ASN695  SER759  ASP760  ASP761  ALA762  ILE779  LEU786  VAL792 
 PHE793  MET794  SER795  GLU796  ALA797  LYS798  CYS799  TRP800  GLU811  SER814 

> <Gold.Protein.RotatedAtoms>
  151.2786  133.4220  159.2625 H   0  0  0  0  0  0  0  0  0  0  0  0  # atno 6907 bound_to 6896
  151.0381  134.9588  159.8157 H   0  0  0  0  0  0  0  0  0  0  0  0  # atno 6908 bound_to 6896
  152.5359  134.2745  159.9036 H   0  0  0  0  0  0  0  0  0  0  0  0  # atno 6909 bound_to 6896
  145.9758  140.7335  142.9388 H   0  0  0  0  0  0  0  0  0  0  0  0  # atno 7974 bound_to 7965
  154.5315  140.2257  155.8796 H   0  0  0  0  0  0  0  0  0  0  0  0  # atno 8008 bound_to 7997
  156.1768  140.3109  155.9038 H   0  0  0  0  0  0  0  0  0  0  0  0  # atno 8009 bound_to 7997
  155.3441  140.0452  157.3036 H   0  0  0  0  0  0  0  0  0  0  0  0  # atno 8010 bound_to 7997
  140.1212  143.4442  152.1690 H   0  0  0  0  0  0  0  0  0  0  0  0  # atno 10167 bound_to 10162
  156.6109  130.8850  151.2936 H   0  0  0  0  0  0  0  0  0  0  0  0  # atno 10718 bound_to 10713
  154.4817  135.5843  153.6394 H   0  0  0  0  0  0  0  0  0  0  0  0  # atno 10763 bound_to 10752
  152.9848  135.6091  154.3238 H   0  0  0  0  0  0  0  0  0  0  0  0  # atno 10764 bound_to 10752
  154.3130  135.2845  155.2536 H   0  0  0  0  0  0  0  0  0  0  0  0  # atno 10765 bound_to 10752
  140.2513  134.7974  157.3504 H   0  0  0  0  0  0  0  0  0  0  0  0  # atno 11005 bound_to 11000
  144.6848  140.2825  143.7290 LP  0  0  0  0  0  0  0  0  0  0  0  0  # atno 17320 bound_to 7965
  145.7841  139.1902  143.2141 LP  0  0  0  0  0  0  0  0  0  0  0  0  # atno 17321 bound_to 7965
  139.5568  144.7378  151.4271 LP  0  0  0  0  0  0  0  0  0  0  0  0  # atno 17342 bound_to 10162
  140.6871  143.7948  150.7202 LP  0  0  0  0  0  0  0  0  0  0  0  0  # atno 17343 bound_to 10162
  157.7254  130.9616  150.1614 LP  0  0  0  0  0  0  0  0  0  0  0  0  # atno 17370 bound_to 10713
  156.2390  130.3689  149.8358 LP  0  0  0  0  0  0  0  0  0  0  0  0  # atno 17371 bound_to 10713
  140.1555  134.4795  155.7931 LP  0  0  0  0  0  0  0  0  0  0  0  0  # atno 17394 bound_to 11000
  141.2201  133.6880  156.7453 LP  0  0  0  0  0  0  0  0  0  0  0  0  # atno 17395 bound_to 11000

$$$$
