AV-unprocessed.smi:213|AV-procd|sdf|1642|dock5
  -GOLD-   2262020 13D 1   1.00000     0.00000
 Structure written by MMmdl.
 58 61  0  0  0  0  0  0  0  0  1 V2000
  151.2564  138.2660  158.1099 C   0  0  0  0  0  0  0  0  0  0  0  0
  150.7998  139.7352  158.1714 C   0  0  1  0  0  0  0  0  0  0  0  0
  151.9427  140.7773  158.2448 C   0  0  0  0  0  0  0  0  0  0  0  0
  151.6427  142.0254  158.9523 N   0  0  0  0  0  0  0  0  0  0  0  0
  151.5497  143.1426  158.0159 C   0  0  0  0  0  0  0  0  0  0  0  0
  151.2306  144.4694  158.7263 C   0  0  0  0  0  0  0  0  0  0  0  0
  152.2242  144.7334  159.7104 O   0  0  0  0  0  0  0  0  0  0  0  0
  152.3294  143.6898  160.6722 C   0  0  0  0  0  0  0  0  0  0  0  0
  152.6463  142.3618  159.9620 C   0  0  0  0  0  0  0  0  0  0  0  0
  149.9333  140.0263  157.0263 N   0  0  0  0  0  0  0  0  0  0  0  0
  150.2349  141.1176  156.1036 C   0  0  0  0  0  0  0  0  0  0  0  0
  148.8799  139.2170  156.7464 C   0  0  0  0  0  0  0  0  0  0  0  0
  148.4374  138.3750  157.7175 N   0  0  0  0  0  0  0  0  0  0  0  0
  147.3969  137.5681  157.4916 C   0  0  0  0  0  0  0  0  0  0  0  0
  146.6698  137.4356  156.3811 N   0  0  0  0  0  0  0  0  0  0  0  0
  147.1196  138.2631  155.3955 C   0  0  0  0  0  0  0  0  0  0  0  0
  148.2069  139.1783  155.4898 C   0  0  0  0  0  0  0  0  0  0  0  0
  148.3734  139.8327  154.2732 N   0  0  0  0  0  0  0  0  0  0  0  0
  147.4360  139.3406  153.5107 C   0  0  0  0  0  0  0  0  0  0  0  0
  146.6378  138.3908  154.1053 N   0  0  0  0  0  0  0  0  0  0  0  0
  145.5302  137.6759  153.4966 C   0  0  0  0  0  0  0  0  0  0  0  0
  145.9558  136.9024  152.2334 C   0  0  2  0  0  0  0  0  0  0  0  0
  146.3044  137.7976  151.1943 O   0  0  0  0  0  0  0  0  0  0  0  0
  144.8816  135.9074  151.7508 C   0  0  2  0  0  0  0  0  0  0  0  0
  144.3624  134.9100  152.7905 C   0  0  0  0  0  0  0  0  0  0  0  0
  143.8673  133.7889  151.9048 C   0  0  0  0  0  0  0  0  0  0  0  0
  144.9222  133.7773  150.8015 C   0  0  0  0  0  0  0  0  0  0  0  0
  145.3342  135.1322  150.6426 O   0  0  0  0  0  0  0  0  0  0  0  0
  151.6197  137.9137  159.0727 H   0  0  0  0  0  0  0  0  0  0  0  0
  152.0409  138.1156  157.3680 H   0  0  0  0  0  0  0  0  0  0  0  0
  150.4227  137.6135  157.8479 H   0  0  0  0  0  0  0  0  0  0  0  0
  150.2057  139.8247  159.0802 H   0  0  0  0  0  0  0  0  0  0  0  0
  152.8537  140.3268  158.6406 H   0  0  0  0  0  0  0  0  0  0  0  0
  152.1817  141.0308  157.2107 H   0  0  0  0  0  0  0  0  0  0  0  0
  152.4859  143.2432  157.4645 H   0  0  0  0  0  0  0  0  0  0  0  0
  150.7730  142.9425  157.2768 H   0  0  0  0  0  0  0  0  0  0  0  0
  151.2126  145.2900  158.0090 H   0  0  0  0  0  0  0  0  0  0  0  0
  150.2458  144.4298  159.1945 H   0  0  0  0  0  0  0  0  0  0  0  0
  153.1189  143.9379  161.3819 H   0  0  0  0  0  0  0  0  0  0  0  0
  151.4004  143.6123  161.2393 H   0  0  0  0  0  0  0  0  0  0  0  0
  152.7186  141.5840  160.7149 H   0  0  0  0  0  0  0  0  0  0  0  0
  153.6305  142.4322  159.4961 H   0  0  0  0  0  0  0  0  0  0  0  0
  149.3193  141.6046  155.7659 H   0  0  0  0  0  0  0  0  0  0  0  0
  150.7687  140.7419  155.2302 H   0  0  0  0  0  0  0  0  0  0  0  0
  150.8572  141.8747  156.5804 H   0  0  0  0  0  0  0  0  0  0  0  0
  147.1054  136.9390  158.3197 H   0  0  0  0  0  0  0  0  0  0  0  0
  147.3046  139.6543  152.4853 H   0  0  0  0  0  0  0  0  0  0  0  0
  145.1199  136.9899  154.2387 H   0  0  0  0  0  0  0  0  0  0  0  0
  144.7410  138.3913  153.2624 H   0  0  0  0  0  0  0  0  0  0  0  0
  146.8560  136.3319  152.4645 H   0  0  0  0  0  0  0  0  0  0  0  0
  145.5528  138.3378  151.0036 H   0  0  0  0  0  0  0  0  0  0  0  0
  144.0267  136.4781  151.3844 H   0  0  0  0  0  0  0  0  0  0  0  0
  145.1637  134.5406  153.4311 H   0  0  0  0  0  0  0  0  0  0  0  0
  143.5832  135.3286  153.4280 H   0  0  0  0  0  0  0  0  0  0  0  0
  143.7834  132.8347  152.4255 H   0  0  0  0  0  0  0  0  0  0  0  0
  142.8904  134.0411  151.4901 H   0  0  0  0  0  0  0  0  0  0  0  0
  145.7866  133.1881  151.1106 H   0  0  0  0  0  0  0  0  0  0  0  0
  144.5462  133.3614  149.8666 H   0  0  0  0  0  0  0  0  0  0  0  0
  1  2  1  0  0  0  0
  1 29  1  0  0  0  0
  1 30  1  0  0  0  0
  1 31  1  0  0  0  0
  2  3  1  0  0  0  0
  2 10  1  0  0  0  0
  2 32  1  0  0  0  0
  3  4  1  0  0  0  0
  3 33  1  0  0  0  0
  3 34  1  0  0  0  0
  4  9  1  0  0  0  0
  4  5  1  0  0  0  0
  5  6  1  0  0  0  0
  5 35  1  0  0  0  0
  5 36  1  0  0  0  0
  6  7  1  0  0  0  0
  6 37  1  0  0  0  0
  6 38  1  0  0  0  0
  7  8  1  0  0  0  0
  8  9  1  0  0  0  0
  8 39  1  0  0  0  0
  8 40  1  0  0  0  0
  9 41  1  0  0  0  0
  9 42  1  0  0  0  0
 10 11  1  0  0  0  0
 10 12  1  0  0  0  0
 11 43  1  0  0  0  0
 11 44  1  0  0  0  0
 11 45  1  0  0  0  0
 12 17  1  0  0  0  0
 12 13  2  0  0  0  0
 13 14  1  0  0  0  0
 14 15  2  0  0  0  0
 14 46  1  0  0  0  0
 15 16  1  0  0  0  0
 16 20  1  0  0  0  0
 16 17  2  0  0  0  0
 17 18  1  0  0  0  0
 18 19  2  0  0  0  0
 19 20  1  0  0  0  0
 19 47  1  0  0  0  0
 20 21  1  0  0  0  0
 21 22  1  0  0  0  0
 21 48  1  0  0  0  0
 21 49  1  0  0  0  0
 22 23  1  0  0  0  0
 22 24  1  0  0  0  0
 22 50  1  0  0  0  0
 23 51  1  0  0  0  0
 24 28  1  0  0  0  0
 24 25  1  0  0  0  0
 24 52  1  0  0  0  0
 25 26  1  0  0  0  0
 25 53  1  0  0  0  0
 25 54  1  0  0  0  0
 26 27  1  0  0  0  0
 26 55  1  0  0  0  0
 26 56  1  0  0  0  0
 27 28  1  0  0  0  0
 27 57  1  0  0  0  0
 27 58  1  0  0  0  0
M  END
> <s_m_source_file>
AV-unprocessed.smi

> <i_m_source_file_index>
213

> <i_lp_mmshare_version>
43012

> <i_f3d_flags>
0

> <s_epik_input>
W0NIMl0xW0NIMl1PW0NIMl1bQ0gyXU4xW0NIMl1bQ0BASF0oW0NIM10pTihbQ0gzXSljKG5bY0hdbjIpYyhjMjMpbltjSF1uM1tDSDJdW0NASF0oW09IXSlbQ0BASF00W0NIMl1bQ0gyXVtDSDJdTzQ=

> <s_epik_cmdline>
J2VwaWtfcHl0aG9uJywgJy1waCcsICc3LjAnLCAnLXRuJywgJzgnLCAnLW1hJywgJzIwMCcsICctbWV0YWxfYmluZGluZycsICctaW1hZScsICc8aW5maWxlLm1hZT4nLCAnLW9tYWUnLCAnPG91dGZpbGUubWFlPic=

> <r_lp_tautomer_probability>
1

> <r_epik_Ionization_Penalty>
0.423322

> <r_epik_Ionization_Penalty_Charging>
0

> <r_epik_Ionization_Penalty_Neutral>
0.423322

> <r_epik_State_Penalty>
0.569486

> <r_epik_Charging_Adjusted_Penalty>
0.569486

> <i_epik_Tot_Q>
0

> <i_epik_Tot_abs_Q>
0

> <r_epik_Metal_State_Penalty>
0.568671

> <b_epik_Metal_Only>
0

> <s_lp_Force_Field>
OPLS_2005

> <r_lp_Energy>
55.7593

> <b_lp_Chiralities_Consistent>
1

> <s_lp_Variant>
AV-unprocessed.smi:213-10

> <Gold.Version>
5.8.1

> <Gold.Id.Protein>
6NUR|6NUR_protein|mol2

> <Gold.PLP.Fitness>
46.3628

> <Gold.PLP.PLP>
-40.4716

> <Gold.PLP.part.hbond>
-2.8950

> <Gold.PLP.part.metal>
0.0000

> <Gold.PLP.part.buried>
-6.7785

> <Gold.PLP.part.nonpolar>
-32.5210

> <Gold.PLP.part.repulsive>
1.5396

> <Gold.PLP.ligand.clash>
0.0000

> <Gold.PLP.ligand.torsion>
1.2708

> <Gold.PLP.Chemscore.Hbond>
1.9913

> <Gold.PLP.Chemscore.CHOScore>
0.6930

> <Gold.PLP.Chemscore.Metal>
0.0000

> <Gold.Chemscore.Hbonds>
donor molecule, donor type, donor heavy atom, donor atom, acceptor molecule, acceptor atom, score
      L1  H    23    51       P1 10171  0.84
      P1  H  7954  7966       L1    23  0.41
      L1  C    19    47       P1  7957  0.47

> <Gold.PLP.Chemscore.Internal.Correction>
0.3801

> <Gold.Rescore>
     Score         DG    S(hbond)    S(metal)    S(lipo)     H(rot)  DE(clash)    DE(int)     intcor
     11.06     -15.37       1.65        0.00      97.18       2.74       0.51       3.79       ----

> <Gold.Chemscore.Fitness>
11.0617

> <Gold.Chemscore.DG>
-15.3659

> <Gold.Chemscore.ZeroCoef>
-5.4800

> <Gold.Chemscore.Hbond>
1.6541

> <Gold.Chemscore.Metal>
0.0000

> <Gold.Chemscore.Lipo>
97.1790

> <Gold.Chemscore.Internal_Hbond>
0.0000

> <Gold.Chemscore.DEClash>
0.5102

> <Gold.Chemscore.DEInternal>
3.7940

> <Gold.Chemscore.Rot>
2.7378

> <Gold.Chemscore.Internal.Correction>
   9.000000E+99

> <Gold.Chemscore.Hbonds>
donor molecule, donor type, donor heavy atom, donor atom, acceptor molecule, acceptor atom, score
      L1  H    23    51       P1 10171  0.78
      P1  H  7954  7966       L1    23  0.41

> <Gold.Chemscore.Hbond.Weighted>
-5.5246

> <Gold.Chemscore.Metal.Weighted>
-0.0000

> <Gold.Chemscore.Lipo.Weighted>
-11.3699

> <Gold.Chemscore.Internal_Hbond.Weighted>
0.0000

> <Gold.Chemscore.DEClash.Weighted>
0.5102

> <Gold.Chemscore.DEInternal.Weighted>
3.7940

> <Gold.Chemscore.Rot.Weighted>
7.0087

> <Gold.Chemscore.Internal.Correction.Weighted>
   9.000000E+99

> <Gold.Protein.RotatedTorsions>
[ 6907 6896 6895 6894 ] final  -28.32 input  -60.11 | X-H torsion
[ 7974 7965 7964 7962 ] final -155.60 input  175.53 | X-H torsion
[ 8008 7997 7996 7995 ] final  -58.01 input   59.86 | X-H torsion
[ 10167 10162 10161 10158 ] final -172.75 input  -65.29 | X-H torsion
[ 10718 10713 10712 10709 ] final -159.99 input   66.30 | X-H torsion
[ 10763 10752 10751 10750 ] final  -83.93 input  -60.55 | X-H torsion
[ 11005 11000 10999 10996 ] final -112.54 input  -57.11 | X-H torsion

> <Gold.Protein.ActiveResidues>
 VAL166  LYS551  ARG553  GLY616  TRP617  ASP618  TYR619  PRO620  LYS621  CYS622 
 ASP623  PHE694  ASN695  SER759  ASP760  ASP761  ALA762  ILE779  LEU786  VAL792 
 PHE793  MET794  SER795  GLU796  ALA797  LYS798  CYS799  TRP800  GLU811  SER814 

> <Gold.Protein.RotatedAtoms>
  151.1346  135.0148  159.8597 H   0  0  0  0  0  0  0  0  0  0  0  0  # atno 6907 bound_to 6896
  152.5451  134.1570  159.8552 H   0  0  0  0  0  0  0  0  0  0  0  0  # atno 6908 bound_to 6896
  151.1640  133.4781  159.2627 H   0  0  0  0  0  0  0  0  0  0  0  0  # atno 6909 bound_to 6896
  144.7632  140.4226  143.5961 H   0  0  0  0  0  0  0  0  0  0  0  0  # atno 7974 bound_to 7965
  154.4291  140.1094  156.5889 H   0  0  0  0  0  0  0  0  0  0  0  0  # atno 8008 bound_to 7997
  155.6033  140.3493  155.4581 H   0  0  0  0  0  0  0  0  0  0  0  0  # atno 8009 bound_to 7997
  156.0156  140.1228  157.0399 H   0  0  0  0  0  0  0  0  0  0  0  0  # atno 8010 bound_to 7997
  139.5727  144.1605  152.1406 H   0  0  0  0  0  0  0  0  0  0  0  0  # atno 10167 bound_to 10162
  156.5758  130.8708  151.2850 H   0  0  0  0  0  0  0  0  0  0  0  0  # atno 10718 bound_to 10713
  154.5936  135.5538  153.7303 H   0  0  0  0  0  0  0  0  0  0  0  0  # atno 10763 bound_to 10752
  153.0126  135.6349  154.1815 H   0  0  0  0  0  0  0  0  0  0  0  0  # atno 10764 bound_to 10752
  154.1755  135.2890  155.3048 H   0  0  0  0  0  0  0  0  0  0  0  0  # atno 10765 bound_to 10752
  141.0669  133.9444  157.2561 H   0  0  0  0  0  0  0  0  0  0  0  0  # atno 11005 bound_to 11000
  145.6552  139.1572  143.2839 LP  0  0  0  0  0  0  0  0  0  0  0  0  # atno 17320 bound_to 7965
  146.1715  140.6637  142.9231 LP  0  0  0  0  0  0  0  0  0  0  0  0  # atno 17321 bound_to 7965
  140.1141  144.5431  150.6905 LP  0  0  0  0  0  0  0  0  0  0  0  0  # atno 17342 bound_to 10162
  140.7010  143.2435  151.4863 LP  0  0  0  0  0  0  0  0  0  0  0  0  # atno 17343 bound_to 10162
  157.7338  130.9736  150.1995 LP  0  0  0  0  0  0  0  0  0  0  0  0  # atno 17370 bound_to 10713
  156.2675  130.3718  149.8066 LP  0  0  0  0  0  0  0  0  0  0  0  0  # atno 17371 bound_to 10713
  139.9485  135.0180  156.8924 LP  0  0  0  0  0  0  0  0  0  0  0  0  # atno 17394 bound_to 11000
  140.5754  134.0403  155.7445 LP  0  0  0  0  0  0  0  0  0  0  0  0  # atno 17395 bound_to 11000

$$$$
