AV-unprocessed.smi:261|AV-procd|sdf|1985|dock6
  -GOLD-   2262021163D 1   1.00000     0.00000
 Structure written by MMmdl.
 51 54  0  0  0  0  0  0  0  0  1 V2000
  146.1486  134.7549  152.0435 C   0  0  0  0  0  0  0  0  0  0  0  0
  147.4048  134.1583  152.3217 O   0  0  0  0  0  0  0  0  0  0  0  0
  147.7566  134.1987  153.6968 C   0  0  1  0  0  0  0  0  0  0  0  0
  148.9702  133.3332  154.0396 C   0  0  0  0  0  0  0  0  0  0  0  0
  149.5680  133.9868  155.3005 C   0  0  2  0  0  0  0  0  0  0  0  0
  149.1120  133.2804  156.5868 C   0  0  0  0  0  0  0  0  0  0  0  0
  147.7967  133.1210  156.7512 N   0  0  0  0  0  0  0  0  0  0  0  0
  149.9247  132.8995  157.4281 O   0  0  0  0  0  0  0  0  0  0  0  0
  149.0758  135.3671  155.2711 N   0  0  0  0  0  0  0  0  0  0  0  0
  149.9635  136.3415  155.5634 C   0  0  0  0  0  0  0  0  0  0  0  0
  150.9106  136.6947  154.6551 N   0  0  0  0  0  0  0  0  0  0  0  0
  151.7896  137.6575  154.9513 C   0  0  0  0  0  0  0  0  0  0  0  0
  151.8952  138.3774  156.0713 N   0  0  0  0  0  0  0  0  0  0  0  0
  150.9419  138.0214  156.9803 C   0  0  0  0  0  0  0  0  0  0  0  0
  149.9449  137.0221  156.8074 C   0  0  0  0  0  0  0  0  0  0  0  0
  149.1511  136.9356  157.9438 N   0  0  0  0  0  0  0  0  0  0  0  0
  149.6528  137.8343  158.7470 C   0  0  0  0  0  0  0  0  0  0  0  0
  150.7307  138.5315  158.2481 N   0  0  0  0  0  0  0  0  0  0  0  0
  151.4818  139.5766  158.9195 C   0  0  0  0  0  0  0  0  0  0  0  0
  151.1368  140.9801  158.3855 C   0  0  2  0  0  0  0  0  0  0  0  0
  151.2931  141.0298  156.9800 O   0  0  0  0  0  0  0  0  0  0  0  0
  151.9598  142.0945  159.0625 C   0  0  2  0  0  0  0  0  0  0  0  0
  151.6283  142.3955  160.5266 C   0  0  0  0  0  0  0  0  0  0  0  0
  152.1508  143.8084  160.6601 C   0  0  0  0  0  0  0  0  0  0  0  0
  151.7813  144.4079  159.3050 C   0  0  0  0  0  0  0  0  0  0  0  0
  151.8498  143.3353  158.3687 O   0  0  0  0  0  0  0  0  0  0  0  0
  148.2515  135.5863  154.0909 C   0  0  0  0  0  0  0  0  0  0  0  0
  146.9073  133.9278  154.3275 H   0  0  0  0  0  0  0  0  0  0  0  0
  150.6580  133.9442  155.2492 H   0  0  0  0  0  0  0  0  0  0  0  0
  145.9552  134.7124  150.9717 H   0  0  0  0  0  0  0  0  0  0  0  0
  146.1345  135.8031  152.3450 H   0  0  0  0  0  0  0  0  0  0  0  0
  145.3355  134.2338  152.5497 H   0  0  0  0  0  0  0  0  0  0  0  0
  148.7113  132.2818  154.1731 H   0  0  0  0  0  0  0  0  0  0  0  0
  149.6987  133.3872  153.2292 H   0  0  0  0  0  0  0  0  0  0  0  0
  147.4430  132.6652  157.5797 H   0  0  0  0  0  0  0  0  0  0  0  0
  147.1598  133.4600  156.0448 H   0  0  0  0  0  0  0  0  0  0  0  0
  152.5118  137.8838  154.1808 H   0  0  0  0  0  0  0  0  0  0  0  0
  149.2505  138.0117  159.7339 H   0  0  0  0  0  0  0  0  0  0  0  0
  151.2677  139.5166  159.9873 H   0  0  0  0  0  0  0  0  0  0  0  0
  152.5464  139.3702  158.8020 H   0  0  0  0  0  0  0  0  0  0  0  0
  150.0830  141.1772  158.5862 H   0  0  0  0  0  0  0  0  0  0  0  0
  152.0866  141.5051  156.7858 H   0  0  0  0  0  0  0  0  0  0  0  0
  153.0144  141.8180  159.0123 H   0  0  0  0  0  0  0  0  0  0  0  0
  150.5531  142.3864  160.7076 H   0  0  0  0  0  0  0  0  0  0  0  0
  152.0969  141.6976  161.2208 H   0  0  0  0  0  0  0  0  0  0  0  0
  151.7154  144.3505  161.4999 H   0  0  0  0  0  0  0  0  0  0  0  0
  153.2346  143.7972  160.7840 H   0  0  0  0  0  0  0  0  0  0  0  0
  150.7578  144.7845  159.3235 H   0  0  0  0  0  0  0  0  0  0  0  0
  152.4388  145.2294  159.0195 H   0  0  0  0  0  0  0  0  0  0  0  0
  148.8405  136.0242  153.2828 H   0  0  0  0  0  0  0  0  0  0  0  0
  147.4229  136.2612  154.3079 H   0  0  0  0  0  0  0  0  0  0  0  0
  1  2  1  0  0  0  0
  1 30  1  0  0  0  0
  1 31  1  0  0  0  0
  1 32  1  0  0  0  0
  2  3  1  0  0  0  0
  3 28  1  0  0  0  0
  3 27  1  0  0  0  0
  3  4  1  0  0  0  0
  4  5  1  0  0  0  0
  4 33  1  0  0  0  0
  4 34  1  0  0  0  0
  5 29  1  0  0  0  0
  5  6  1  0  0  0  0
  5  9  1  0  0  0  0
  6  7  1  0  0  0  0
  6  8  2  0  0  0  0
  7 35  1  0  0  0  0
  7 36  1  0  0  0  0
  9 10  1  0  0  0  0
  9 27  1  0  0  0  0
 10 15  1  0  0  0  0
 10 11  2  0  0  0  0
 11 12  1  0  0  0  0
 12 13  2  0  0  0  0
 12 37  1  0  0  0  0
 13 14  1  0  0  0  0
 14 18  1  0  0  0  0
 14 15  2  0  0  0  0
 15 16  1  0  0  0  0
 16 17  2  0  0  0  0
 17 18  1  0  0  0  0
 17 38  1  0  0  0  0
 18 19  1  0  0  0  0
 19 20  1  0  0  0  0
 19 39  1  0  0  0  0
 19 40  1  0  0  0  0
 20 21  1  0  0  0  0
 20 22  1  0  0  0  0
 20 41  1  0  0  0  0
 21 42  1  0  0  0  0
 22 26  1  0  0  0  0
 22 23  1  0  0  0  0
 22 43  1  0  0  0  0
 23 24  1  0  0  0  0
 23 44  1  0  0  0  0
 23 45  1  0  0  0  0
 24 25  1  0  0  0  0
 24 46  1  0  0  0  0
 24 47  1  0  0  0  0
 25 26  1  0  0  0  0
 25 48  1  0  0  0  0
 25 49  1  0  0  0  0
 27 50  1  0  0  0  0
 27 51  1  0  0  0  0
M  END
> <s_m_source_file>
AV-unprocessed.smi

> <i_m_source_file_index>
261

> <i_lp_mmshare_version>
43012

> <i_f3d_flags>
0

> <s_epik_input>
W0NIM11PW0NASF0xW0NIMl1bQ0BASF0oQyg9TylbTkgyXSlOKFtDSDJdMSljKG5bY0hdbjIpYyhjMjMpbltjSF1uM1tDSDJdW0NASF0oW09IXSlbQ0BASF00W0NIMl1bQ0gyXVtDSDJdTzQ=

> <s_epik_cmdline>
J2VwaWtfcHl0aG9uJywgJy1waCcsICc3LjAnLCAnLXRuJywgJzgnLCAnLW1hJywgJzIwMCcsICctbWV0YWxfYmluZGluZycsICctaW1hZScsICc8aW5maWxlLm1hZT4nLCAnLW9tYWUnLCAnPG91dGZpbGUubWFlPic=

> <r_lp_tautomer_probability>
1

> <r_epik_Ionization_Penalty>
0.000713824

> <r_epik_Ionization_Penalty_Charging>
0

> <r_epik_Ionization_Penalty_Neutral>
0.000713824

> <r_epik_State_Penalty>
0.000402132

> <r_epik_Charging_Adjusted_Penalty>
0.000402132

> <i_epik_Tot_Q>
0

> <i_epik_Tot_abs_Q>
0

> <r_epik_Metal_State_Penalty>
-0

> <b_epik_Metal_Only>
0

> <s_lp_Force_Field>
OPLS_2005

> <r_lp_Energy>
48.1487

> <b_lp_Chiralities_Consistent>
1

> <s_lp_Variant>
AV-unprocessed.smi:261-3

> <Gold.Version>
5.8.1

> <Gold.Id.Protein>
6NUR|6NUR_protein|mol2

> <Gold.PLP.Fitness>
42.2045

> <Gold.PLP.PLP>
-38.6311

> <Gold.PLP.part.hbond>
-2.9908

> <Gold.PLP.part.metal>
0.0000

> <Gold.PLP.part.buried>
-7.3928

> <Gold.PLP.part.nonpolar>
-29.0305

> <Gold.PLP.part.repulsive>
0.5022

> <Gold.PLP.ligand.clash>
0.0000

> <Gold.PLP.ligand.torsion>
0.7657

> <Gold.PLP.Chemscore.Hbond>
1.6149

> <Gold.PLP.Chemscore.CHOScore>
0.0000

> <Gold.PLP.Chemscore.Metal>
0.0000

> <Gold.PLP.Chemscore.Internal.Correction>
0.2601

> <Gold.Rescore>
     Score         DG    S(hbond)    S(metal)    S(lipo)     H(rot)  DE(clash)    DE(int)     intcor
      8.14      -9.81       1.14        0.00      82.64       3.57       0.05       1.62       ----

> <Gold.Chemscore.Fitness>
8.1390

> <Gold.Chemscore.DG>
-9.8076

> <Gold.Chemscore.ZeroCoef>
-5.4800

> <Gold.Chemscore.Hbond>
1.1401

> <Gold.Chemscore.Metal>
0.0000

> <Gold.Chemscore.Lipo>
82.6425

> <Gold.Chemscore.Internal_Hbond>
0.0000

> <Gold.Chemscore.DEClash>
0.0474

> <Gold.Chemscore.DEInternal>
1.6212

> <Gold.Chemscore.Rot>
3.5740

> <Gold.Chemscore.Internal.Correction>
   9.000000E+99

> <Gold.Chemscore.Hbonds>
donor molecule, donor type, donor heavy atom, donor atom, acceptor molecule, acceptor atom, score
      P1  H  6896  6907       L1     8  0.03

> <Gold.Chemscore.Hbond.Weighted>
-3.8079

> <Gold.Chemscore.Metal.Weighted>
-0.0000

> <Gold.Chemscore.Lipo.Weighted>
-9.6692

> <Gold.Chemscore.Internal_Hbond.Weighted>
0.0000

> <Gold.Chemscore.DEClash.Weighted>
0.0474

> <Gold.Chemscore.DEInternal.Weighted>
1.6212

> <Gold.Chemscore.Rot.Weighted>
9.1495

> <Gold.Chemscore.Internal.Correction.Weighted>
   9.000000E+99

> <Gold.Protein.RotatedTorsions>
[ 6907 6896 6895 6894 ] final -172.94 input  -60.11 | X-H torsion
[ 7974 7965 7964 7962 ] final   15.24 input  175.53 | X-H torsion
[ 8008 7997 7996 7995 ] final   64.81 input   59.86 | X-H torsion
[ 10167 10162 10161 10158 ] final  172.83 input  -65.29 | X-H torsion
[ 10718 10713 10712 10709 ] final   43.37 input   66.30 | X-H torsion
[ 10763 10752 10751 10750 ] final -131.80 input  -60.55 | X-H torsion
[ 11005 11000 10999 10996 ] final   82.32 input  -57.11 | X-H torsion

> <Gold.Protein.ActiveResidues>
 VAL166  LYS551  ARG553  GLY616  TRP617  ASP618  TYR619  PRO620  LYS621  CYS622 
 ASP623  PHE694  ASN695  SER759  ASP760  ASP761  ALA762  ILE779  LEU786  VAL792 
 PHE793  MET794  SER795  GLU796  ALA797  LYS798  CYS799  TRP800  GLU811  SER814 

> <Gold.Protein.RotatedAtoms>
  151.5481  133.3422  159.2947 H   0  0  0  0  0  0  0  0  0  0  0  0  # atno 6907 bound_to 6896
  150.8495  134.7817  159.7008 H   0  0  0  0  0  0  0  0  0  0  0  0  # atno 6908 bound_to 6896
  152.4544  134.5331  159.9868 H   0  0  0  0  0  0  0  0  0  0  0  0  # atno 6909 bound_to 6896
  146.2284  139.8923  142.8552 H   0  0  0  0  0  0  0  0  0  0  0  0  # atno 7974 bound_to 7965
  155.6519  140.3497  155.4751 H   0  0  0  0  0  0  0  0  0  0  0  0  # atno 8008 bound_to 7997
  155.9840  140.1180  157.0723 H   0  0  0  0  0  0  0  0  0  0  0  0  # atno 8009 bound_to 7997
  154.4200  140.1132  156.5461 H   0  0  0  0  0  0  0  0  0  0  0  0  # atno 8010 bound_to 7997
  139.5089  144.3330  152.0093 H   0  0  0  0  0  0  0  0  0  0  0  0  # atno 10167 bound_to 10162
  157.4152  130.7937  149.7466 H   0  0  0  0  0  0  0  0  0  0  0  0  # atno 10718 bound_to 10713
  154.8748  135.3818  154.4306 H   0  0  0  0  0  0  0  0  0  0  0  0  # atno 10763 bound_to 10752
  153.5001  135.7030  153.5842 H   0  0  0  0  0  0  0  0  0  0  0  0  # atno 10764 bound_to 10752
  153.4177  135.3909  155.2058 H   0  0  0  0  0  0  0  0  0  0  0  0  # atno 10765 bound_to 10752
  139.9068  134.8062  156.2159 H   0  0  0  0  0  0  0  0  0  0  0  0  # atno 11005 bound_to 11000
  145.2405  141.0007  143.3939 LP  0  0  0  0  0  0  0  0  0  0  0  0  # atno 17320 bound_to 7965
  144.9456  139.4140  143.6427 LP  0  0  0  0  0  0  0  0  0  0  0  0  # atno 17321 bound_to 7965
  140.2769  144.3903  150.6132 LP  0  0  0  0  0  0  0  0  0  0  0  0  # atno 17342 bound_to 10162
  140.6047  143.2167  151.7004 LP  0  0  0  0  0  0  0  0  0  0  0  0  # atno 17343 bound_to 10162
  155.9863  130.3976  150.3220 LP  0  0  0  0  0  0  0  0  0  0  0  0  # atno 17370 bound_to 10713
  157.1362  131.0284  151.2948 LP  0  0  0  0  0  0  0  0  0  0  0  0  # atno 17371 bound_to 10713
  141.0436  133.6925  156.1643 LP  0  0  0  0  0  0  0  0  0  0  0  0  # atno 17394 bound_to 11000
  140.6918  134.4658  157.5588 LP  0  0  0  0  0  0  0  0  0  0  0  0  # atno 17395 bound_to 11000

$$$$
