AV-unprocessed.smi:2223|AV-procd|sdf|8989|dock5
  -GOLD-   2272012203D 1   1.00000     0.00000
 Structure written by MMmdl.
 46 47  0  0  0  0  0  0  0  0  1 V2000
  145.4301  131.9592  149.1537 C   0  0  0  0  0  0  0  0  0  0  0  0
  146.2191  131.6641  150.4121 C   0  0  0  0  0  0  0  0  0  0  0  0
  146.2104  130.3769  150.9825 C   0  0  0  0  0  0  0  0  0  0  0  0
  146.9666  130.1624  152.1514 C   0  0  0  0  0  0  0  0  0  0  0  0
  147.0024  128.8024  152.8162 C   0  0  0  0  0  0  0  0  0  0  0  0
  147.6981  131.1305  152.7438 N   0  0  0  0  0  0  0  0  0  0  0  0
  147.7145  132.3740  152.2027 C   0  0  0  0  0  0  0  0  0  0  0  0
  148.4450  133.4619  152.7500 N   0  0  0  0  0  0  0  0  0  0  0  0
  149.1608  133.4945  153.8877 C   0  0  0  0  0  0  0  0  0  0  0  0
  149.3228  132.5469  154.6573 O   0  0  0  0  0  0  0  0  0  0  0  0
  149.6965  134.7071  154.0878 N   0  0  0  0  0  0  0  0  0  0  0  0
  150.5356  135.0726  155.2259 C   0  0  2  0  0  0  0  0  0  0  0  0
  149.8048  134.8715  156.5544 C   0  0  0  0  0  0  0  0  0  0  0  0
  150.0400  136.1728  157.3005 C   0  0  0  0  0  0  0  0  0  0  0  0
  149.6545  136.3272  158.4585 O   0  0  0  0  0  0  0  0  0  0  0  0
  150.6886  137.0789  156.5443 N   0  0  0  0  0  0  0  0  0  0  0  0
  151.0430  138.4709  156.9289 C   0  0  0  0  0  0  0  0  0  0  0  0
  151.7266  139.1779  155.7377 C   0  0  0  0  0  0  0  0  0  0  0  0
  152.0240  138.5088  158.1251 C   0  0  0  0  0  0  0  0  0  0  0  0
  149.7737  139.2504  157.3415 C   0  0  0  0  0  0  0  0  0  0  0  0
  150.9232  136.5617  155.1966 C   0  0  0  0  0  0  0  0  0  0  0  0
  146.9820  132.6741  151.0323 C   0  0  0  0  0  0  0  0  0  0  0  0
  144.6348  131.2273  149.0088 H   0  0  0  0  0  0  0  0  0  0  0  0
  146.0862  131.9306  148.2836 H   0  0  0  0  0  0  0  0  0  0  0  0
  144.9742  132.9481  149.2088 H   0  0  0  0  0  0  0  0  0  0  0  0
  145.6400  129.5756  150.5356 H   0  0  0  0  0  0  0  0  0  0  0  0
  146.2232  128.1501  152.4210 H   0  0  0  0  0  0  0  0  0  0  0  0
  146.8505  128.8974  153.8920 H   0  0  0  0  0  0  0  0  0  0  0  0
  147.9676  128.3252  152.6461 H   0  0  0  0  0  0  0  0  0  0  0  0
  148.4154  134.3162  152.2139 H   0  0  0  0  0  0  0  0  0  0  0  0
  149.5141  135.4284  153.4057 H   0  0  0  0  0  0  0  0  0  0  0  0
  151.4391  134.4591  155.2300 H   0  0  0  0  0  0  0  0  0  0  0  0
  148.7317  134.7253  156.4227 H   0  0  0  0  0  0  0  0  0  0  0  0
  150.2028  134.0241  157.1138 H   0  0  0  0  0  0  0  0  0  0  0  0
  152.0464  140.1851  156.0072 H   0  0  0  0  0  0  0  0  0  0  0  0
  151.0640  139.2765  154.8779 H   0  0  0  0  0  0  0  0  0  0  0  0
  152.6117  138.6311  155.4102 H   0  0  0  0  0  0  0  0  0  0  0  0
  152.9617  137.9979  157.9035 H   0  0  0  0  0  0  0  0  0  0  0  0
  151.5931  138.0556  159.0184 H   0  0  0  0  0  0  0  0  0  0  0  0
  152.2814  139.5356  158.3877 H   0  0  0  0  0  0  0  0  0  0  0  0
  150.0249  140.2483  157.7022 H   0  0  0  0  0  0  0  0  0  0  0  0
  149.2405  138.7386  158.1435 H   0  0  0  0  0  0  0  0  0  0  0  0
  149.0766  139.3846  156.5150 H   0  0  0  0  0  0  0  0  0  0  0  0
  151.9657  136.6679  154.8956 H   0  0  0  0  0  0  0  0  0  0  0  0
  150.3076  137.1213  154.4900 H   0  0  0  0  0  0  0  0  0  0  0  0
  147.0042  133.6690  150.6111 H   0  0  0  0  0  0  0  0  0  0  0  0
  1  2  1  0  0  0  0
  1 23  1  0  0  0  0
  1 24  1  0  0  0  0
  1 25  1  0  0  0  0
  2 22  1  0  0  0  0
  2  3  2  0  0  0  0
  3  4  1  0  0  0  0
  3 26  1  0  0  0  0
  4  5  1  0  0  0  0
  4  6  2  0  0  0  0
  5 27  1  0  0  0  0
  5 28  1  0  0  0  0
  5 29  1  0  0  0  0
  6  7  1  0  0  0  0
  7  8  1  0  0  0  0
  7 22  2  0  0  0  0
  8  9  1  0  0  0  0
  8 30  1  0  0  0  0
  9 10  2  0  0  0  0
  9 11  1  0  0  0  0
 11 12  1  0  0  0  0
 11 31  1  0  0  0  0
 12 21  1  0  0  0  0
 12 13  1  0  0  0  0
 12 32  1  0  0  0  0
 13 14  1  0  0  0  0
 13 33  1  0  0  0  0
 13 34  1  0  0  0  0
 14 15  2  0  0  0  0
 14 16  1  0  0  0  0
 16 17  1  0  0  0  0
 16 21  1  0  0  0  0
 17 18  1  0  0  0  0
 17 19  1  0  0  0  0
 17 20  1  0  0  0  0
 18 35  1  0  0  0  0
 18 36  1  0  0  0  0
 18 37  1  0  0  0  0
 19 38  1  0  0  0  0
 19 39  1  0  0  0  0
 19 40  1  0  0  0  0
 20 41  1  0  0  0  0
 20 42  1  0  0  0  0
 20 43  1  0  0  0  0
 21 44  1  0  0  0  0
 21 45  1  0  0  0  0
 22 46  1  0  0  0  0
M  END
> <s_m_source_file>
AV-unprocessed.smi

> <i_m_source_file_index>
2223

> <i_lp_mmshare_version>
43012

> <i_f3d_flags>
0

> <s_epik_input>
W0NIM11jMVtjSF1jKFtDSDNdKW5jKFtjSF0xKVtOSF1DKD1PKVtOSF1bQ0BASF0yW0NIMl1DKD1PKU4oW0NIMl0yKUMoW0NIM10pKFtDSDNdKVtDSDNd

> <s_epik_cmdline>
J2VwaWtfcHl0aG9uJywgJy1waCcsICc3LjAnLCAnLXRuJywgJzgnLCAnLW1hJywgJzIwMCcsICctbWV0YWxfYmluZGluZycsICctaW1hZScsICc8aW5maWxlLm1hZT4nLCAnLW9tYWUnLCAnPG91dGZpbGUubWFlPic=

> <r_lp_tautomer_probability>
1

> <r_epik_Ionization_Penalty>
0.000228403

> <r_epik_Ionization_Penalty_Charging>
0

> <r_epik_Ionization_Penalty_Neutral>
0.000228403

> <r_epik_State_Penalty>
-0

> <r_epik_Charging_Adjusted_Penalty>
0

> <i_epik_Tot_Q>
0

> <i_epik_Tot_abs_Q>
0

> <r_epik_Metal_State_Penalty>
-0

> <b_epik_Metal_Only>
0

> <s_lp_Force_Field>
OPLS_2005

> <r_lp_Energy>
26.8517

> <b_lp_Chiralities_Consistent>
1

> <s_lp_Variant>
AV-unprocessed.smi:2223-1

> <Gold.Version>
5.8.1

> <Gold.Id.Protein>
6NUR|6NUR_protein|mol2

> <Gold.PLP.Fitness>
43.7159

> <Gold.PLP.PLP>
-34.9007

> <Gold.PLP.part.hbond>
-3.1022

> <Gold.PLP.part.metal>
0.0000

> <Gold.PLP.part.buried>
-5.4071

> <Gold.PLP.part.nonpolar>
-27.0411

> <Gold.PLP.part.repulsive>
0.1647

> <Gold.PLP.ligand.clash>
0.0000

> <Gold.PLP.ligand.torsion>
0.0327

> <Gold.PLP.Chemscore.Hbond>
2.9440

> <Gold.PLP.Chemscore.CHOScore>
0.0000

> <Gold.PLP.Chemscore.Metal>
0.0000

> <Gold.Chemscore.Hbonds>
donor molecule, donor type, donor heavy atom, donor atom, acceptor molecule, acceptor atom, score
      L1  H     8    30       P1  7948  0.45
      L1  H    11    31       P1  7948  0.70
      P1  H  6896  6908       L1    15  0.46

> <Gold.PLP.Chemscore.Internal.Correction>
0.0485

> <Gold.Rescore>
     Score         DG    S(hbond)    S(metal)    S(lipo)     H(rot)  DE(clash)    DE(int)     intcor
     17.68     -19.09       2.04        0.00      84.62       1.21       0.10       1.31       ----

> <Gold.Chemscore.Fitness>
17.6844

> <Gold.Chemscore.DG>
-19.0946

> <Gold.Chemscore.ZeroCoef>
-5.4800

> <Gold.Chemscore.Hbond>
2.0361

> <Gold.Chemscore.Metal>
0.0000

> <Gold.Chemscore.Lipo>
84.6152

> <Gold.Chemscore.Internal_Hbond>
0.0000

> <Gold.Chemscore.DEClash>
0.0966

> <Gold.Chemscore.DEInternal>
1.3135

> <Gold.Chemscore.Rot>
1.2055

> <Gold.Chemscore.Internal.Correction>
   9.000000E+99

> <Gold.Chemscore.Hbonds>
donor molecule, donor type, donor heavy atom, donor atom, acceptor molecule, acceptor atom, score
      L1  H     8    30       P1  7948  0.02
      L1  H    11    31       P1  7948  0.07
      P1  H  6896  6908       L1    15  0.23

> <Gold.Chemscore.Hbond.Weighted>
-6.8006

> <Gold.Chemscore.Metal.Weighted>
-0.0000

> <Gold.Chemscore.Lipo.Weighted>
-9.9000

> <Gold.Chemscore.Internal_Hbond.Weighted>
0.0000

> <Gold.Chemscore.DEClash.Weighted>
0.0966

> <Gold.Chemscore.DEInternal.Weighted>
1.3135

> <Gold.Chemscore.Rot.Weighted>
3.0861

> <Gold.Chemscore.Internal.Correction.Weighted>
   9.000000E+99

> <Gold.Protein.RotatedTorsions>
[ 6907 6896 6895 6894 ] final -175.50 input  -60.11 | X-H torsion
[ 7974 7965 7964 7962 ] final    4.25 input  175.53 | X-H torsion
[ 8008 7997 7996 7995 ] final  -73.09 input   59.86 | X-H torsion
[ 10167 10162 10161 10158 ] final  136.37 input  -65.29 | X-H torsion
[ 10718 10713 10712 10709 ] final  127.30 input   66.30 | X-H torsion
[ 10763 10752 10751 10750 ] final   88.69 input  -60.55 | X-H torsion
[ 11005 11000 10999 10996 ] final   -4.07 input  -57.11 | X-H torsion

> <Gold.Protein.ActiveResidues>
 VAL166  LYS551  ARG553  GLY616  TRP617  ASP618  TYR619  PRO620  LYS621  CYS622 
 ASP623  PHE694  ASN695  SER759  ASP760  ASP761  ALA762  ILE779  LEU786  VAL792 
 PHE793  MET794  SER795  GLU796  ALA797  LYS798  CYS799  TRP800  GLU811  SER814 

> <Gold.Protein.RotatedAtoms>
  151.5895  133.3368  159.3024 H   0  0  0  0  0  0  0  0  0  0  0  0  # atno 6907 bound_to 6896
  150.8268  134.7506  159.6831 H   0  0  0  0  0  0  0  0  0  0  0  0  # atno 6908 bound_to 6896
  152.4356  134.5698  159.9969 H   0  0  0  0  0  0  0  0  0  0  0  0  # atno 6909 bound_to 6896
  146.2444  140.0563  142.8371 H   0  0  0  0  0  0  0  0  0  0  0  0  # atno 7974 bound_to 7965
  154.5219  140.0785  156.8187 H   0  0  0  0  0  0  0  0  0  0  0  0  # atno 8008 bound_to 7997
  155.3558  140.3415  155.4222 H   0  0  0  0  0  0  0  0  0  0  0  0  # atno 8009 bound_to 7997
  156.1690  140.1613  156.8468 H   0  0  0  0  0  0  0  0  0  0  0  0  # atno 8010 bound_to 7997
  139.5182  144.6468  151.5417 H   0  0  0  0  0  0  0  0  0  0  0  0  # atno 10167 bound_to 10162
  157.5345  131.1098  150.8957 H   0  0  0  0  0  0  0  0  0  0  0  0  # atno 10718 bound_to 10713
  153.1794  135.4498  155.0008 H   0  0  0  0  0  0  0  0  0  0  0  0  # atno 10763 bound_to 10752
  154.8020  135.3259  154.7529 H   0  0  0  0  0  0  0  0  0  0  0  0  # atno 10764 bound_to 10752
  153.7995  135.6963  153.4913 H   0  0  0  0  0  0  0  0  0  0  0  0  # atno 10765 bound_to 10752
  140.6762  133.9193  155.8526 H   0  0  0  0  0  0  0  0  0  0  0  0  # atno 11005 bound_to 11000
  145.0939  140.9302  143.4752 LP  0  0  0  0  0  0  0  0  0  0  0  0  # atno 17320 bound_to 7965
  145.0742  139.3008  143.5816 LP  0  0  0  0  0  0  0  0  0  0  0  0  # atno 17321 bound_to 7965
  140.6256  143.9175  150.6562 LP  0  0  0  0  0  0  0  0  0  0  0  0  # atno 17342 bound_to 10162
  140.2462  143.3627  152.1444 LP  0  0  0  0  0  0  0  0  0  0  0  0  # atno 17343 bound_to 10162
  156.9529  130.5426  149.5283 LP  0  0  0  0  0  0  0  0  0  0  0  0  # atno 17370 bound_to 10713
  156.0448  130.5525  150.8854 LP  0  0  0  0  0  0  0  0  0  0  0  0  # atno 17371 bound_to 10713
  141.0353  134.0698  157.3966 LP  0  0  0  0  0  0  0  0  0  0  0  0  # atno 17394 bound_to 11000
  139.8966  135.0146  156.7058 LP  0  0  0  0  0  0  0  0  0  0  0  0  # atno 17395 bound_to 11000

$$$$
