AV-unprocessed.smi:1019|AV-procd|sdf|4448|dock9
  -GOLD-   22720 2413D 1   1.00000     0.00000
 Structure written by MMmdl.
 45 47  0  0  0  0  0  0  0  0  3 V2000
  146.6176  138.3405  153.5493 C   0  0  0  0  0  0  0  0  0  0  0  0
  147.3882  137.1222  153.8896 N   0  3  2  0  0  0  0  0  0  0  0  0
  146.4976  135.9717  154.1837 C   0  0  0  0  0  0  0  0  0  0  0  0
  145.9711  135.3183  152.9167 C   0  0  0  0  0  0  0  0  0  0  0  0
  146.2219  133.9516  152.6705 C   0  0  0  0  0  0  0  0  0  0  0  0
  145.7234  133.3396  151.5040 C   0  0  0  0  0  0  0  0  0  0  0  0
  144.9762  134.0920  150.5776 C   0  0  0  0  0  0  0  0  0  0  0  0
  144.7286  135.4573  150.8167 C   0  0  0  0  0  0  0  0  0  0  0  0
  145.2258  136.0700  151.9831 C   0  0  0  0  0  0  0  0  0  0  0  0
  148.4162  137.3666  154.9368 C   0  0  0  0  0  0  0  0  0  0  0  0
  149.2373  138.6387  154.6524 C   0  0  2  0  0  0  0  0  0  0  0  0
  150.0014  138.4315  153.4795 O   0  0  0  0  0  0  0  0  0  0  0  0
  150.1745  138.9909  155.8246 C   0  0  0  0  0  0  0  0  0  0  0  0
  150.1837  140.4278  156.1350 N   0  0  0  0  0  0  0  0  0  0  0  0
  149.5123  141.4477  155.5334 C   0  0  0  0  0  0  0  0  0  0  0  0
  149.8458  142.5990  156.1792 N   0  3  0  0  0  0  0  0  0  0  0  0
  150.7427  142.3128  157.2099 C   0  0  0  0  0  0  0  0  0  0  0  0
  151.3612  143.1478  158.1353 C   0  0  0  0  0  0  0  0  0  0  0  0
  152.2297  142.5334  159.0609 C   0  0  0  0  0  0  0  0  0  0  0  0
  152.4553  141.1417  159.0436 C   0  0  0  0  0  0  0  0  0  0  0  0
  151.8224  140.3044  158.1012 C   0  0  0  0  0  0  0  0  0  0  0  0
  150.9646  140.9189  157.1890 C   0  0  0  0  0  0  0  0  0  0  0  0
  146.0111  138.6672  154.3949 H   0  0  0  0  0  0  0  0  0  0  0  0
  145.9517  138.1514  152.7067 H   0  0  0  0  0  0  0  0  0  0  0  0
  147.2755  139.1611  153.2650 H   0  0  0  0  0  0  0  0  0  0  0  0
  147.0227  135.2436  154.8043 H   0  0  0  0  0  0  0  0  0  0  0  0
  145.6355  136.3099  154.7605 H   0  0  0  0  0  0  0  0  0  0  0  0
  146.7921  133.3675  153.3780 H   0  0  0  0  0  0  0  0  0  0  0  0
  145.9139  132.2925  151.3193 H   0  0  0  0  0  0  0  0  0  0  0  0
  144.5947  133.6222  149.6828 H   0  0  0  0  0  0  0  0  0  0  0  0
  144.1573  136.0349  150.1050 H   0  0  0  0  0  0  0  0  0  0  0  0
  145.0292  137.1176  152.1595 H   0  0  0  0  0  0  0  0  0  0  0  0
  147.9293  137.4326  155.9109 H   0  0  0  0  0  0  0  0  0  0  0  0
  149.1067  136.5265  155.0105 H   0  0  0  0  0  0  0  0  0  0  0  0
  148.5702  139.4824  154.4755 H   0  0  0  0  0  0  0  0  0  0  0  0
  149.6260  137.7119  152.9951 H   0  0  0  0  0  0  0  0  0  0  0  0
  149.8462  138.4745  156.7274 H   0  0  0  0  0  0  0  0  0  0  0  0
  151.1944  138.6545  155.6362 H   0  0  0  0  0  0  0  0  0  0  0  0
  148.8364  141.3602  154.6950 H   0  0  0  0  0  0  0  0  0  0  0  0
  151.1905  144.2144  158.1506 H   0  0  0  0  0  0  0  0  0  0  0  0
  152.7330  143.1420  159.7983 H   0  0  0  0  0  0  0  0  0  0  0  0
  153.1285  140.7073  159.7683 H   0  0  0  0  0  0  0  0  0  0  0  0
  152.0067  139.2408  158.0985 H   0  0  0  0  0  0  0  0  0  0  0  0
  147.8959  136.8624  153.0555 H   0  0  0  0  0  0  0  0  0  0  0  0
  149.4856  143.5121  155.9327 H   0  0  0  0  0  0  0  0  0  0  0  0
  1  2  1  0  0  0  0
  1 23  1  0  0  0  0
  1 24  1  0  0  0  0
  1 25  1  0  0  0  0
  2  3  1  0  0  0  0
  2 10  1  0  0  0  0
  2 44  1  0  0  0  0
  3  4  1  0  0  0  0
  3 26  1  0  0  0  0
  3 27  1  0  0  0  0
  4  9  1  0  0  0  0
  4  5  2  0  0  0  0
  5  6  1  0  0  0  0
  5 28  1  0  0  0  0
  6  7  2  0  0  0  0
  6 29  1  0  0  0  0
  7  8  1  0  0  0  0
  7 30  1  0  0  0  0
  8  9  2  0  0  0  0
  8 31  1  0  0  0  0
  9 32  1  0  0  0  0
 10 11  1  0  0  0  0
 10 33  1  0  0  0  0
 10 34  1  0  0  0  0
 11 12  1  0  0  0  0
 11 13  1  0  0  0  0
 11 35  1  0  0  0  0
 12 36  1  0  0  0  0
 13 14  1  0  0  0  0
 13 37  1  0  0  0  0
 13 38  1  0  0  0  0
 14 22  1  0  0  0  0
 14 15  1  0  0  0  0
 15 16  2  0  0  0  0
 15 39  1  0  0  0  0
 16 17  1  0  0  0  0
 16 45  1  0  0  0  0
 17 22  2  0  0  0  0
 17 18  1  0  0  0  0
 18 19  2  0  0  0  0
 18 40  1  0  0  0  0
 19 20  1  0  0  0  0
 19 41  1  0  0  0  0
 20 21  2  0  0  0  0
 20 42  1  0  0  0  0
 21 22  1  0  0  0  0
 21 43  1  0  0  0  0
M  CHG  1   2   1
M  CHG  1  16   1
M  END
> <s_m_source_file>
AV-unprocessed.smi

> <i_m_source_file_index>
1019

> <i_lp_mmshare_version>
43012

> <i_f3d_flags>
0

> <s_epik_input>
W2NIXTFbY0hdW2NIXVtjSF1bY0hdYzFbQ0gyXU4oW0NIM10pW0NIMl1bQ0BIXShbT0hdKVtDSDJdbihbY0hdbjIpYyhjMjMpW2NIXVtjSF1bY0hdW2NIXTM=

> <s_epik_cmdline>
J2VwaWtfcHl0aG9uJywgJy1waCcsICc3LjAnLCAnLXRuJywgJzgnLCAnLW1hJywgJzIwMCcsICctbWV0YWxfYmluZGluZycsICctaW1hZScsICc8aW5maWxlLm1hZT4nLCAnLW9tYWUnLCAnPG91dGZpbGUubWFlPic=

> <r_epik_Ionization_Penalty>
1.5198

> <r_epik_Ionization_Penalty_Charging>
1.5198

> <r_epik_Ionization_Penalty_Neutral>
3.13312e-06

> <r_epik_State_Penalty>
1.624

> <r_epik_Charging_Adjusted_Penalty>
3.1438

> <i_epik_Tot_Q>
2

> <i_epik_Tot_abs_Q>
2

> <r_epik_Metal_State_Penalty>
5.67392

> <b_epik_Metal_Only>
0

> <s_lp_Force_Field>
OPLS_2005

> <r_lp_Energy>
24.0682

> <b_lp_Chiralities_Consistent>
1

> <s_lp_Variant>
AV-unprocessed.smi:1019-6

> <Gold.Version>
5.8.1

> <Gold.Id.Protein>
6NUR|6NUR_protein|mol2

> <Gold.PLP.Fitness>
52.6013

> <Gold.PLP.PLP>
-39.2790

> <Gold.PLP.part.hbond>
-4.1857

> <Gold.PLP.part.metal>
0.0000

> <Gold.PLP.part.buried>
-3.5109

> <Gold.PLP.part.nonpolar>
-32.3775

> <Gold.PLP.part.repulsive>
0.1505

> <Gold.PLP.ligand.clash>
0.0000

> <Gold.PLP.ligand.torsion>
0.9422

> <Gold.PLP.Chemscore.Hbond>
5.0000

> <Gold.PLP.Chemscore.CHOScore>
0.0000

> <Gold.PLP.Chemscore.Metal>
0.0000

> <Gold.Chemscore.Hbonds>
donor molecule, donor type, donor heavy atom, donor atom, acceptor molecule, acceptor atom, score
      L1  H     2    44       P1  7948  2.00
      L1  H    12    36       P1  7948  1.00
      L1  H    16    45       P1  8028  1.24

> <Gold.PLP.Chemscore.Internal.Correction>
0.2067

> <Gold.Rescore>
     Score         DG    S(hbond)    S(metal)    S(lipo)     H(rot)  DE(clash)    DE(int)     intcor
     18.45     -19.53       2.85        0.00      92.54       2.46       0.00       1.08       ----

> <Gold.Chemscore.Fitness>
18.4451

> <Gold.Chemscore.DG>
-19.5278

> <Gold.Chemscore.ZeroCoef>
-5.4800

> <Gold.Chemscore.Hbond>
2.8462

> <Gold.Chemscore.Metal>
0.0000

> <Gold.Chemscore.Lipo>
92.5376

> <Gold.Chemscore.Internal_Hbond>
0.0000

> <Gold.Chemscore.DEClash>
0.0048

> <Gold.Chemscore.DEInternal>
1.0780

> <Gold.Chemscore.Rot>
2.4552

> <Gold.Chemscore.Internal.Correction>
   9.000000E+99

> <Gold.Chemscore.Hbonds>
donor molecule, donor type, donor heavy atom, donor atom, acceptor molecule, acceptor atom, score
      L1  H     2    44       P1  7948  1.00
      L1  H    12    36       P1  7948  0.74
      L1  H    16    45       P1  8028  0.60

> <Gold.Chemscore.Hbond.Weighted>
-9.5063

> <Gold.Chemscore.Metal.Weighted>
-0.0000

> <Gold.Chemscore.Lipo.Weighted>
-10.8269

> <Gold.Chemscore.Internal_Hbond.Weighted>
0.0000

> <Gold.Chemscore.DEClash.Weighted>
0.0048

> <Gold.Chemscore.DEInternal.Weighted>
1.0780

> <Gold.Chemscore.Rot.Weighted>
6.2854

> <Gold.Chemscore.Internal.Correction.Weighted>
   9.000000E+99

> <Gold.Protein.RotatedTorsions>
[ 6907 6896 6895 6894 ] final -152.11 input  -60.11 | X-H torsion
[ 7974 7965 7964 7962 ] final   71.58 input  175.53 | X-H torsion
[ 8008 7997 7996 7995 ] final   55.03 input   59.86 | X-H torsion
[ 10167 10162 10161 10158 ] final  -70.74 input  -65.29 | X-H torsion
[ 10718 10713 10712 10709 ] final  135.06 input   66.30 | X-H torsion
[ 10763 10752 10751 10750 ] final -157.96 input  -60.55 | X-H torsion
[ 11005 11000 10999 10996 ] final  -12.24 input  -57.11 | X-H torsion

> <Gold.Protein.ActiveResidues>
 VAL166  LYS551  ARG553  GLY616  TRP617  ASP618  TYR619  PRO620  LYS621  CYS622 
 ASP623  PHE694  ASN695  SER759  ASP760  ASP761  ALA762  ILE779  LEU786  VAL792 
 PHE793  MET794  SER795  GLU796  ALA797  LYS798  CYS799  TRP800  GLU811  SER814 

> <Gold.Protein.RotatedAtoms>
  151.2230  133.4492  159.2601 H   0  0  0  0  0  0  0  0  0  0  0  0  # atno 6907 bound_to 6896
  151.0867  134.9891  159.8393 H   0  0  0  0  0  0  0  0  0  0  0  0  # atno 6908 bound_to 6896
  152.5430  134.2166  159.8824 H   0  0  0  0  0  0  0  0  0  0  0  0  # atno 6909 bound_to 6896
  145.7641  139.2813  143.1359 H   0  0  0  0  0  0  0  0  0  0  0  0  # atno 7974 bound_to 7965
  155.4944  140.3472  155.4360 H   0  0  0  0  0  0  0  0  0  0  0  0  # atno 8008 bound_to 7997
  156.0955  140.1422  156.9564 H   0  0  0  0  0  0  0  0  0  0  0  0  # atno 8009 bound_to 7997
  154.4661  140.0917  156.7001 H   0  0  0  0  0  0  0  0  0  0  0  0  # atno 8010 bound_to 7997
  140.5328  143.2320  151.7231 H   0  0  0  0  0  0  0  0  0  0  0  0  # atno 10167 bound_to 10162
  157.4609  131.1073  150.9921 H   0  0  0  0  0  0  0  0  0  0  0  0  # atno 10718 bound_to 10713
  154.7595  135.3114  154.8406 H   0  0  0  0  0  0  0  0  0  0  0  0  # atno 10763 bound_to 10752
  153.9171  135.6799  153.4753 H   0  0  0  0  0  0  0  0  0  0  0  0  # atno 10764 bound_to 10752
  153.1194  135.4829  154.9101 H   0  0  0  0  0  0  0  0  0  0  0  0  # atno 10765 bound_to 10752
  140.7637  133.8494  155.9146 H   0  0  0  0  0  0  0  0  0  0  0  0  # atno 11005 bound_to 11000
  146.0235  140.8326  142.9911 LP  0  0  0  0  0  0  0  0  0  0  0  0  # atno 17320 bound_to 7965
  144.6825  140.2663  143.7312 LP  0  0  0  0  0  0  0  0  0  0  0  0  # atno 17321 bound_to 7965
  139.4960  144.4088  152.0103 LP  0  0  0  0  0  0  0  0  0  0  0  0  # atno 17342 bound_to 10162
  140.3191  144.3448  150.6014 LP  0  0  0  0  0  0  0  0  0  0  0  0  # atno 17343 bound_to 10162
  157.0719  130.5867  149.5404 LP  0  0  0  0  0  0  0  0  0  0  0  0  # atno 17370 bound_to 10713
  156.0028  130.5110  150.7724 LP  0  0  0  0  0  0  0  0  0  0  0  0  # atno 17371 bound_to 10713
  140.9639  134.1619  157.4632 LP  0  0  0  0  0  0  0  0  0  0  0  0  # atno 17394 bound_to 11000
  139.8766  134.9955  156.5745 LP  0  0  0  0  0  0  0  0  0  0  0  0  # atno 17395 bound_to 11000

$$$$
