AV-unprocessed.smi:1154|AV-procd|sdf|4901|dock4
  -GOLD-   22720 3473D 1   1.00000     0.00000
 Structure written by MMmdl.
 42 43  0  0  0  0  0  0  0  0  2 V2000
  145.8608  129.4308  152.6619 C   0  0  0  0  0  0  0  0  0  0  0  0
  146.6131  130.6767  152.1728 C   0  0  1  0  0  0  0  0  0  0  0  0
  145.6406  131.7822  151.7291 C   0  0  0  0  0  0  0  0  0  0  0  0
  146.4126  133.0266  151.2600 C   0  0  1  0  0  0  0  0  0  0  0  0
  145.4578  134.1506  150.8333 C   0  0  0  0  0  0  0  0  0  0  0  0
  147.3828  133.4978  152.3606 C   0  0  0  0  0  0  0  0  0  0  0  0
  148.3129  132.4123  152.7664 N   0  3  1  0  0  0  0  0  0  0  0  0
  149.3465  132.8882  153.7208 C   0  0  0  0  0  0  0  0  0  0  0  0
  148.7914  133.9116  154.7250 C   0  0  0  0  0  0  0  0  0  0  0  0
  149.1931  135.2609  154.3529 N   0  0  0  0  0  0  0  0  0  0  0  0
  149.6664  136.1741  155.2149 C   0  0  0  0  0  0  0  0  0  0  0  0
  149.7814  135.9632  156.4216 O   0  0  0  0  0  0  0  0  0  0  0  0
  150.0628  137.5351  154.6362 C   0  0  0  0  0  0  0  0  0  0  0  0
  151.4016  137.9242  155.0418 N   0  0  0  0  0  0  0  0  0  0  0  0
  152.0511  139.0838  154.9220 C   0  0  0  0  0  0  0  0  0  0  0  0
  153.2773  139.0111  155.4163 N   0  0  0  0  0  0  0  0  0  0  0  0
  153.3564  137.7053  155.8707 N   0  0  0  0  0  0  0  0  0  0  0  0
  152.2459  137.0560  155.6530 N   0  0  0  0  0  0  0  0  0  0  0  0
  147.5753  131.2144  153.2494 C   0  0  0  0  0  0  0  0  0  0  0  0
  145.2406  129.6556  153.5303 H   0  0  0  0  0  0  0  0  0  0  0  0
  146.5546  128.6385  152.9449 H   0  0  0  0  0  0  0  0  0  0  0  0
  145.2100  129.0340  151.8820 H   0  0  0  0  0  0  0  0  0  0  0  0
  147.2073  130.3808  151.3067 H   0  0  0  0  0  0  0  0  0  0  0  0
  145.0025  131.4150  150.9241 H   0  0  0  0  0  0  0  0  0  0  0  0
  144.9783  132.0470  152.5549 H   0  0  0  0  0  0  0  0  0  0  0  0
  147.0030  132.7483  150.3856 H   0  0  0  0  0  0  0  0  0  0  0  0
  144.8370  134.4815  151.6664 H   0  0  0  0  0  0  0  0  0  0  0  0
  144.7933  133.8192  150.0348 H   0  0  0  0  0  0  0  0  0  0  0  0
  146.0087  135.0161  150.4642 H   0  0  0  0  0  0  0  0  0  0  0  0
  147.9570  134.3479  151.9894 H   0  0  0  0  0  0  0  0  0  0  0  0
  146.8285  133.8467  153.2337 H   0  0  0  0  0  0  0  0  0  0  0  0
  149.7300  132.0382  154.2875 H   0  0  0  0  0  0  0  0  0  0  0  0
  150.1950  133.3005  153.1724 H   0  0  0  0  0  0  0  0  0  0  0  0
  147.7026  133.8780  154.7641 H   0  0  0  0  0  0  0  0  0  0  0  0
  149.1589  133.6830  155.7271 H   0  0  0  0  0  0  0  0  0  0  0  0
  149.1219  135.5137  153.3779 H   0  0  0  0  0  0  0  0  0  0  0  0
  150.0189  137.4958  153.5470 H   0  0  0  0  0  0  0  0  0  0  0  0
  149.3588  138.3031  154.9604 H   0  0  0  0  0  0  0  0  0  0  0  0
  151.6321  139.9709  154.4708 H   0  0  0  0  0  0  0  0  0  0  0  0
  147.0239  131.4688  154.1563 H   0  0  0  0  0  0  0  0  0  0  0  0
  148.2765  130.4258  153.5196 H   0  0  0  0  0  0  0  0  0  0  0  0
  148.8044  132.1375  151.9279 H   0  0  0  0  0  0  0  0  0  0  0  0
  1  2  1  0  0  0  0
  1 20  1  0  0  0  0
  1 21  1  0  0  0  0
  1 22  1  0  0  0  0
  2 19  1  0  0  0  0
  2  3  1  0  0  0  0
  2 23  1  0  0  0  0
  3  4  1  0  0  0  0
  3 24  1  0  0  0  0
  3 25  1  0  0  0  0
  4  5  1  0  0  0  0
  4  6  1  0  0  0  0
  4 26  1  0  0  0  0
  5 27  1  0  0  0  0
  5 28  1  0  0  0  0
  5 29  1  0  0  0  0
  6  7  1  0  0  0  0
  6 30  1  0  0  0  0
  6 31  1  0  0  0  0
  7  8  1  0  0  0  0
  7 19  1  0  0  0  0
  7 42  1  0  0  0  0
  8  9  1  0  0  0  0
  8 32  1  0  0  0  0
  8 33  1  0  0  0  0
  9 10  1  0  0  0  0
  9 34  1  0  0  0  0
  9 35  1  0  0  0  0
 10 11  1  0  0  0  0
 10 36  1  0  0  0  0
 11 12  2  0  0  0  0
 11 13  1  0  0  0  0
 13 14  1  0  0  0  0
 13 37  1  0  0  0  0
 13 38  1  0  0  0  0
 14 18  1  0  0  0  0
 14 15  1  0  0  0  0
 15 16  2  0  0  0  0
 15 39  1  0  0  0  0
 16 17  1  0  0  0  0
 17 18  2  0  0  0  0
 19 40  1  0  0  0  0
 19 41  1  0  0  0  0
M  CHG  1   7   1
M  END
> <s_m_source_file>
AV-unprocessed.smi

> <i_m_source_file_index>
1154

> <i_lp_mmshare_version>
43012

> <i_f3d_flags>
0

> <s_epik_input>
W0NIM11bQ0BASF0xW0NIMl1bQ0BASF0oW0NIM10pW0NIMl1OKFtDSDJdMSlbQ0gyXVtDSDJdW05IXUMoPU8pW0NIMl1uMltjSF1ubm4y

> <s_epik_cmdline>
J2VwaWtfcHl0aG9uJywgJy1waCcsICc3LjAnLCAnLXRuJywgJzgnLCAnLW1hJywgJzIwMCcsICctbWV0YWxfYmluZGluZycsICctaW1hZScsICc8aW5maWxlLm1hZT4nLCAnLW9tYWUnLCAnPG91dGZpbGUubWFlPic=

> <r_lp_tautomer_probability>
1

> <r_epik_Ionization_Penalty>
0.00217773

> <r_epik_Ionization_Penalty_Charging>
0.00217329

> <r_epik_Ionization_Penalty_Neutral>
4.43997e-06

> <r_epik_State_Penalty>
0.00149294

> <r_epik_Charging_Adjusted_Penalty>
0.00366623

> <i_epik_Tot_Q>
1

> <i_epik_Tot_abs_Q>
1

> <r_epik_Metal_State_Penalty>
-0

> <b_epik_Metal_Only>
0

> <s_lp_Force_Field>
OPLS_2005

> <r_lp_Energy>
19.913

> <b_lp_Chiralities_Consistent>
1

> <s_lp_Variant>
AV-unprocessed.smi:1154-2

> <Gold.Version>
5.8.1

> <Gold.Id.Protein>
6NUR|6NUR_protein|mol2

> <Gold.PLP.Fitness>
43.3384

> <Gold.PLP.PLP>
-33.6719

> <Gold.PLP.part.hbond>
-5.0000

> <Gold.PLP.part.metal>
0.0000

> <Gold.PLP.part.buried>
-2.0459

> <Gold.PLP.part.nonpolar>
-25.7512

> <Gold.PLP.part.repulsive>
0.0660

> <Gold.PLP.ligand.clash>
0.0000

> <Gold.PLP.ligand.torsion>
0.8739

> <Gold.PLP.Chemscore.Hbond>
3.7833

> <Gold.PLP.Chemscore.CHOScore>
0.0000

> <Gold.PLP.Chemscore.Metal>
0.0000

> <Gold.Chemscore.Hbonds>
donor molecule, donor type, donor heavy atom, donor atom, acceptor molecule, acceptor atom, score
      L1  H     7    42       P1 10747  0.88
      L1  H    10    36       P1  7948  1.00
      P1  H  7997  8008       L1    16  1.00
      P1  H 10752 10765       L1    18  0.75

> <Gold.PLP.Chemscore.Internal.Correction>
0.0643

> <Gold.Rescore>
     Score         DG    S(hbond)    S(metal)    S(lipo)     H(rot)  DE(clash)    DE(int)     intcor
     14.05     -15.43       2.83        0.00      62.47       2.67       0.39       0.99       ----

> <Gold.Chemscore.Fitness>
14.0510

> <Gold.Chemscore.DG>
-15.4259

> <Gold.Chemscore.ZeroCoef>
-5.4800

> <Gold.Chemscore.Hbond>
2.8340

> <Gold.Chemscore.Metal>
0.0000

> <Gold.Chemscore.Lipo>
62.4689

> <Gold.Chemscore.Internal_Hbond>
0.0000

> <Gold.Chemscore.DEClash>
0.3850

> <Gold.Chemscore.DEInternal>
0.9899

> <Gold.Chemscore.Rot>
2.6674

> <Gold.Chemscore.Internal.Correction>
   9.000000E+99

> <Gold.Chemscore.Hbonds>
donor molecule, donor type, donor heavy atom, donor atom, acceptor molecule, acceptor atom, score
      L1  H     7    42       P1 10747  0.78
      L1  H    10    36       P1  7948  0.50
      P1  H  7997  8008       L1    16  0.90
      P1  H 10752 10765       L1    18  0.15

> <Gold.Chemscore.Hbond.Weighted>
-9.4656

> <Gold.Chemscore.Metal.Weighted>
-0.0000

> <Gold.Chemscore.Lipo.Weighted>
-7.3089

> <Gold.Chemscore.Internal_Hbond.Weighted>
0.0000

> <Gold.Chemscore.DEClash.Weighted>
0.3850

> <Gold.Chemscore.DEInternal.Weighted>
0.9899

> <Gold.Chemscore.Rot.Weighted>
6.8286

> <Gold.Chemscore.Internal.Correction.Weighted>
   9.000000E+99

> <Gold.Protein.RotatedTorsions>
[ 6907 6896 6895 6894 ] final    4.23 input  -60.11 | X-H torsion
[ 7974 7965 7964 7962 ] final  138.03 input  175.53 | X-H torsion
[ 8008 7997 7996 7995 ] final  -32.82 input   59.86 | X-H torsion
[ 10167 10162 10161 10158 ] final  105.44 input  -65.29 | X-H torsion
[ 10718 10713 10712 10709 ] final -122.47 input   66.30 | X-H torsion
[ 10763 10752 10751 10750 ] final -175.18 input  -60.55 | X-H torsion
[ 11005 11000 10999 10996 ] final  -66.22 input  -57.11 | X-H torsion

> <Gold.Protein.ActiveResidues>
 VAL166  LYS551  ARG553  GLY616  TRP617  ASP618  TYR619  PRO620  LYS621  CYS622 
 ASP623  PHE694  ASN695  SER759  ASP760  ASP761  ALA762  ILE779  LEU786  VAL792 
 PHE793  MET794  SER795  GLU796  ALA797  LYS798  CYS799  TRP800  GLU811  SER814 

> <Gold.Protein.RotatedAtoms>
  151.6380  135.1016  160.0135 H   0  0  0  0  0  0  0  0  0  0  0  0  # atno 6907 bound_to 6896
  152.4070  133.6900  159.6373 H   0  0  0  0  0  0  0  0  0  0  0  0  # atno 6908 bound_to 6896
  150.7963  133.8609  159.3272 H   0  0  0  0  0  0  0  0  0  0  0  0  # atno 6909 bound_to 6896
  144.9411  139.4929  143.5571 H   0  0  0  0  0  0  0  0  0  0  0  0  # atno 7974 bound_to 7965
  154.4168  140.1727  156.1789 H   0  0  0  0  0  0  0  0  0  0  0  0  # atno 8008 bound_to 7997
  155.9699  140.3386  155.6542 H   0  0  0  0  0  0  0  0  0  0  0  0  # atno 8009 bound_to 7997
  155.6639  140.0704  157.2535 H   0  0  0  0  0  0  0  0  0  0  0  0  # atno 8010 bound_to 7997
  139.7092  144.7080  151.1055 H   0  0  0  0  0  0  0  0  0  0  0  0  # atno 10167 bound_to 10162
  156.1422  130.6474  150.9787 H   0  0  0  0  0  0  0  0  0  0  0  0  # atno 10718 bound_to 10713
  154.5874  135.2842  155.0670 H   0  0  0  0  0  0  0  0  0  0  0  0  # atno 10763 bound_to 10752
  154.1984  135.6429  153.5083 H   0  0  0  0  0  0  0  0  0  0  0  0  # atno 10764 bound_to 10752
  153.0109  135.5463  154.6549 H   0  0  0  0  0  0  0  0  0  0  0  0  # atno 10765 bound_to 10752
  141.1476  133.6695  156.6106 H   0  0  0  0  0  0  0  0  0  0  0  0  # atno 11005 bound_to 11000
  146.3286  139.8431  142.8887 LP  0  0  0  0  0  0  0  0  0  0  0  0  # atno 17320 bound_to 7965
  145.2989  141.0189  143.3620 LP  0  0  0  0  0  0  0  0  0  0  0  0  # atno 17321 bound_to 7965
  140.7729  143.5316  150.9417 LP  0  0  0  0  0  0  0  0  0  0  0  0  # atno 17342 bound_to 10162
  139.9000  143.6847  152.3133 LP  0  0  0  0  0  0  0  0  0  0  0  0  # atno 17343 bound_to 10162
  157.6585  131.0885  150.7892 LP  0  0  0  0  0  0  0  0  0  0  0  0  # atno 17370 bound_to 10713
  156.7967  130.4907  149.5376 LP  0  0  0  0  0  0  0  0  0  0  0  0  # atno 17371 bound_to 10713
  140.3617  134.7682  157.4538 LP  0  0  0  0  0  0  0  0  0  0  0  0  # atno 17394 bound_to 11000
  140.0780  134.5771  155.8571 LP  0  0  0  0  0  0  0  0  0  0  0  0  # atno 17395 bound_to 11000

$$$$
