AV-unprocessed.smi:1376|AV-procd|sdf|5590|dock8
  -GOLD-   22720 5193D 1   1.00000     0.00000
 Structure written by MMmdl.
 42 43  0  0  0  0  0  0  0  0  1 V2000
  150.3648  141.5203  158.8653 O   0  0  0  0  0  0  0  0  0  0  0  0
  150.8332  142.2819  158.0180 C   0  0  0  0  0  0  0  0  0  0  0  0
  151.9169  143.3029  158.3921 C   0  0  0  0  0  0  0  0  0  0  0  0
  152.2347  143.3136  159.8298 N   0  0  0  0  0  0  0  0  0  0  0  0
  152.9228  142.1963  160.3439 C   0  0  0  0  0  0  0  0  0  0  0  0
  153.2620  142.1056  161.6395 C   0  0  0  0  0  0  0  0  0  0  0  0
  152.9037  143.1947  162.5166 C   0  0  0  0  0  0  0  0  0  0  0  0
  152.2414  144.2660  162.0364 C   0  0  0  0  0  0  0  0  0  0  0  0
  151.8645  144.3673  160.6216 C   0  0  0  0  0  0  0  0  0  0  0  0
  151.2549  145.3399  160.1756 O   0  0  0  0  0  0  0  0  0  0  0  0
  150.4621  142.2654  156.7287 N   0  0  0  0  0  0  0  0  0  0  0  0
  149.4597  141.3762  156.1487 C   0  0  2  0  0  0  0  0  0  0  0  0
  149.8705  139.9020  156.3375 C   0  0  0  0  0  0  0  0  0  0  0  0
  148.8688  138.9513  155.6646 C   0  0  0  0  0  0  0  0  0  0  0  0
  148.6884  139.2886  154.1750 C   0  0  0  0  0  0  0  0  0  0  0  0
  148.2759  140.7568  153.9664 C   0  0  1  0  0  0  0  0  0  0  0  0
  146.9614  140.9148  154.4891 O   0  0  0  0  0  0  0  0  0  0  0  0
  146.3238  142.1378  154.1467 C   0  0  0  0  0  0  0  0  0  0  0  0
  145.2731  142.4743  155.2116 C   0  0  0  0  0  0  0  0  0  0  0  0
  144.4426  141.4419  155.3523 F   0  0  0  0  0  0  0  0  0  0  0  0
  145.8634  142.7107  156.3829 F   0  0  0  0  0  0  0  0  0  0  0  0
  144.5682  143.5431  154.8415 F   0  0  0  0  0  0  0  0  0  0  0  0
  149.2812  141.7061  154.6543 C   0  0  0  0  0  0  0  0  0  0  0  0
  152.8093  143.0789  157.8062 H   0  0  0  0  0  0  0  0  0  0  0  0
  151.6071  144.2986  158.0690 H   0  0  0  0  0  0  0  0  0  0  0  0
  153.1464  141.4223  159.6239 H   0  0  0  0  0  0  0  0  0  0  0  0
  153.7854  141.2393  162.0165 H   0  0  0  0  0  0  0  0  0  0  0  0
  153.1670  143.1500  163.5631 H   0  0  0  0  0  0  0  0  0  0  0  0
  151.9810  145.0712  162.7075 H   0  0  0  0  0  0  0  0  0  0  0  0
  150.9051  142.9210  156.1014 H   0  0  0  0  0  0  0  0  0  0  0  0
  148.5036  141.5442  156.6489 H   0  0  0  0  0  0  0  0  0  0  0  0
  150.8631  139.7376  155.9155 H   0  0  0  0  0  0  0  0  0  0  0  0
  149.9431  139.6631  157.3993 H   0  0  0  0  0  0  0  0  0  0  0  0
  149.2055  137.9200  155.7732 H   0  0  0  0  0  0  0  0  0  0  0  0
  147.9069  139.0162  156.1749 H   0  0  0  0  0  0  0  0  0  0  0  0
  149.6240  139.0976  153.6478 H   0  0  0  0  0  0  0  0  0  0  0  0
  147.9456  138.6256  153.7301 H   0  0  0  0  0  0  0  0  0  0  0  0
  148.2627  140.9542  152.8933 H   0  0  0  0  0  0  0  0  0  0  0  0
  147.0496  142.9482  154.0813 H   0  0  0  0  0  0  0  0  0  0  0  0
  145.8433  142.0489  153.1713 H   0  0  0  0  0  0  0  0  0  0  0  0
  148.9786  142.7458  154.5331 H   0  0  0  0  0  0  0  0  0  0  0  0
  150.2448  141.6181  154.1503 H   0  0  0  0  0  0  0  0  0  0  0  0
  1  2  2  0  0  0  0
  2  3  1  0  0  0  0
  2 11  1  0  0  0  0
  3  4  1  0  0  0  0
  3 24  1  0  0  0  0
  3 25  1  0  0  0  0
  4  9  1  0  0  0  0
  4  5  1  0  0  0  0
  5  6  2  0  0  0  0
  5 26  1  0  0  0  0
  6  7  1  0  0  0  0
  6 27  1  0  0  0  0
  7  8  2  0  0  0  0
  7 28  1  0  0  0  0
  8  9  1  0  0  0  0
  8 29  1  0  0  0  0
  9 10  2  0  0  0  0
 11 12  1  0  0  0  0
 11 30  1  0  0  0  0
 12 23  1  0  0  0  0
 12 13  1  0  0  0  0
 12 31  1  0  0  0  0
 13 14  1  0  0  0  0
 13 32  1  0  0  0  0
 13 33  1  0  0  0  0
 14 15  1  0  0  0  0
 14 34  1  0  0  0  0
 14 35  1  0  0  0  0
 15 16  1  0  0  0  0
 15 36  1  0  0  0  0
 15 37  1  0  0  0  0
 16 17  1  0  0  0  0
 16 23  1  0  0  0  0
 16 38  1  0  0  0  0
 17 18  1  0  0  0  0
 18 19  1  0  0  0  0
 18 39  1  0  0  0  0
 18 40  1  0  0  0  0
 19 20  1  0  0  0  0
 19 21  1  0  0  0  0
 19 22  1  0  0  0  0
 23 41  1  0  0  0  0
 23 42  1  0  0  0  0
M  END
> <s_m_source_file>
AV-unprocessed.smi

> <i_m_source_file_index>
1376

> <i_lp_mmshare_version>
43012

> <i_f3d_flags>
0

> <s_epik_input>
Tz1jMVtjSF1bY0hdW2NIXVtjSF1uMVtDSDJdQyg9TylbTkhdW0NAQEhdMltDSDJdW0NIMl1bQ0gyXVtDQEhdKFtDSDJdMilPW0NIMl1DKEYpKEYpRg==

> <s_epik_cmdline>
J2VwaWtfcHl0aG9uJywgJy1waCcsICc3LjAnLCAnLXRuJywgJzgnLCAnLW1hJywgJzIwMCcsICctbWV0YWxfYmluZGluZycsICctaW1hZScsICc8aW5maWxlLm1hZT4nLCAnLW9tYWUnLCAnPG91dGZpbGUubWFlPic=

> <r_lp_tautomer_probability>
1

> <r_epik_Ionization_Penalty>
4.08567e-07

> <r_epik_Ionization_Penalty_Charging>
3.90028e-07

> <r_epik_Ionization_Penalty_Neutral>
1.85393e-08

> <r_epik_State_Penalty>
-0

> <r_epik_Charging_Adjusted_Penalty>
3.90028e-07

> <i_epik_Tot_Q>
0

> <i_epik_Tot_abs_Q>
0

> <r_epik_Metal_State_Penalty>
-0

> <b_epik_Metal_Only>
0

> <s_lp_Force_Field>
OPLS_2005

> <r_lp_Energy>
21.1399

> <b_lp_Chiralities_Consistent>
1

> <s_lp_Variant>
AV-unprocessed.smi:1376-1

> <Gold.Version>
5.8.1

> <Gold.Id.Protein>
6NUR|6NUR_protein|mol2

> <Gold.PLP.Fitness>
47.4554

> <Gold.PLP.PLP>
-48.0965

> <Gold.PLP.part.hbond>
-0.7936

> <Gold.PLP.part.metal>
0.0000

> <Gold.PLP.part.buried>
-3.8535

> <Gold.PLP.part.nonpolar>
-41.7283

> <Gold.PLP.part.repulsive>
0.3371

> <Gold.PLP.ligand.clash>
0.0000

> <Gold.PLP.ligand.torsion>
0.3460

> <Gold.PLP.Chemscore.Hbond>
0.0000

> <Gold.PLP.Chemscore.CHOScore>
0.0000

> <Gold.PLP.Chemscore.Metal>
0.0000

> <Gold.PLP.Chemscore.Internal.Correction>
0.0508

> <Gold.Rescore>
     Score         DG    S(hbond)    S(metal)    S(lipo)     H(rot)  DE(clash)    DE(int)     intcor
     11.26     -11.88       0.00        0.00     102.39       2.18       0.15       0.47       ----

> <Gold.Chemscore.Fitness>
11.2611

> <Gold.Chemscore.DG>
-11.8796

> <Gold.Chemscore.ZeroCoef>
-5.4800

> <Gold.Chemscore.Hbond>
0.0000

> <Gold.Chemscore.Metal>
0.0000

> <Gold.Chemscore.Lipo>
102.3908

> <Gold.Chemscore.Internal_Hbond>
0.0000

> <Gold.Chemscore.DEClash>
0.1468

> <Gold.Chemscore.DEInternal>
0.4717

> <Gold.Chemscore.Rot>
2.1797

> <Gold.Chemscore.Internal.Correction>
   9.000000E+99

> <Gold.Chemscore.Hbond.Weighted>
-0.0000

> <Gold.Chemscore.Metal.Weighted>
-0.0000

> <Gold.Chemscore.Lipo.Weighted>
-11.9797

> <Gold.Chemscore.Internal_Hbond.Weighted>
0.0000

> <Gold.Chemscore.DEClash.Weighted>
0.1468

> <Gold.Chemscore.DEInternal.Weighted>
0.4717

> <Gold.Chemscore.Rot.Weighted>
5.5802

> <Gold.Chemscore.Internal.Correction.Weighted>
   9.000000E+99

> <Gold.Protein.RotatedTorsions>
[ 6907 6896 6895 6894 ] final  -98.96 input  -60.11 | X-H torsion
[ 7974 7965 7964 7962 ] final -145.54 input  175.53 | X-H torsion
[ 8008 7997 7996 7995 ] final -107.53 input   59.86 | X-H torsion
[ 10167 10162 10161 10158 ] final  -73.93 input  -65.29 | X-H torsion
[ 10718 10713 10712 10709 ] final  -34.31 input   66.30 | X-H torsion
[ 10763 10752 10751 10750 ] final   78.37 input  -60.55 | X-H torsion
[ 11005 11000 10999 10996 ] final -176.27 input  -57.11 | X-H torsion

> <Gold.Protein.ActiveResidues>
 VAL166  LYS551  ARG553  GLY616  TRP617  ASP618  TYR619  PRO620  LYS621  CYS622 
 ASP623  PHE694  ASN695  SER759  ASP760  ASP761  ALA762  ILE779  LEU786  VAL792 
 PHE793  MET794  SER795  GLU796  ALA797  LYS798  CYS799  TRP800  GLU811  SER814 

> <Gold.Protein.RotatedAtoms>
  150.7064  134.1115  159.4001 H   0  0  0  0  0  0  0  0  0  0  0  0  # atno 6907 bound_to 6896
  151.9101  135.0340  160.0523 H   0  0  0  0  0  0  0  0  0  0  0  0  # atno 6908 bound_to 6896
  152.2342  133.5048  159.5270 H   0  0  0  0  0  0  0  0  0  0  0  0  # atno 6909 bound_to 6896
  144.8220  140.5570  143.5572 H   0  0  0  0  0  0  0  0  0  0  0  0  # atno 7974 bound_to 7965
  154.9307  140.0405  157.2046 H   0  0  0  0  0  0  0  0  0  0  0  0  # atno 8008 bound_to 7997
  154.8164  140.2876  155.5796 H   0  0  0  0  0  0  0  0  0  0  0  0  # atno 8009 bound_to 7997
  156.2976  140.2527  156.3062 H   0  0  0  0  0  0  0  0  0  0  0  0  # atno 8010 bound_to 7997
  140.5070  143.2351  151.7658 H   0  0  0  0  0  0  0  0  0  0  0  0  # atno 10167 bound_to 10162
  156.3521  130.4310  149.7695 H   0  0  0  0  0  0  0  0  0  0  0  0  # atno 10718 bound_to 10713
  153.0869  135.4879  154.8615 H   0  0  0  0  0  0  0  0  0  0  0  0  # atno 10763 bound_to 10752
  154.7222  135.3042  154.9031 H   0  0  0  0  0  0  0  0  0  0  0  0  # atno 10764 bound_to 10752
  153.9692  135.6803  153.4800 H   0  0  0  0  0  0  0  0  0  0  0  0  # atno 10765 bound_to 10752
  140.4540  134.6317  157.4814 H   0  0  0  0  0  0  0  0  0  0  0  0  # atno 11005 bound_to 11000
  145.5084  139.1480  143.3618 LP  0  0  0  0  0  0  0  0  0  0  0  0  # atno 17320 bound_to 7965
  146.2525  140.5224  142.8887 LP  0  0  0  0  0  0  0  0  0  0  0  0  # atno 17321 bound_to 7965
  139.4886  144.4444  151.9727 LP  0  0  0  0  0  0  0  0  0  0  0  0  # atno 17342 bound_to 10162
  140.3535  144.3060  150.5945 LP  0  0  0  0  0  0  0  0  0  0  0  0  # atno 17343 bound_to 10162
  156.4892  130.8077  151.3087 LP  0  0  0  0  0  0  0  0  0  0  0  0  # atno 17370 bound_to 10713
  157.7462  130.9981  150.2840 LP  0  0  0  0  0  0  0  0  0  0  0  0  # atno 17371 bound_to 10713
  139.9988  134.6869  155.9564 LP  0  0  0  0  0  0  0  0  0  0  0  0  # atno 17394 bound_to 11000
  141.1651  133.6537  156.4453 LP  0  0  0  0  0  0  0  0  0  0  0  0  # atno 17395 bound_to 11000

$$$$
