AV-unprocessed.smi:283|AV-procd|sdf|2148|dock1
  -GOLD-   2262021483D 1   1.00000     0.00000
 Structure written by MMmdl.
 48 51  0  0  0  0  0  0  0  0  1 V2000
  148.1370  136.7529  162.6933 C   0  0  0  0  0  0  0  0  0  0  0  0
  146.9793  136.7910  161.6796 C   0  0  1  0  0  0  0  0  0  0  0  0
  147.3758  136.1981  160.4026 N   0  0  0  0  0  0  0  0  0  0  0  0
  148.3272  136.7576  159.6225 C   0  0  0  0  0  0  0  0  0  0  0  0
  149.4361  137.3306  160.1588 N   0  0  0  0  0  0  0  0  0  0  0  0
  150.3592  137.8755  159.3610 C   0  0  0  0  0  0  0  0  0  0  0  0
  150.3652  137.9610  158.0289 N   0  0  0  0  0  0  0  0  0  0  0  0
  149.2466  137.3989  157.4856 C   0  0  0  0  0  0  0  0  0  0  0  0
  148.1947  136.7733  158.2100 C   0  0  0  0  0  0  0  0  0  0  0  0
  147.2387  136.2908  157.3270 N   0  0  0  0  0  0  0  0  0  0  0  0
  147.7080  136.6079  156.1504 C   0  0  0  0  0  0  0  0  0  0  0  0
  148.8935  137.3139  156.1539 N   0  0  0  0  0  0  0  0  0  0  0  0
  149.7029  137.8017  154.9881 C   0  0  1  0  0  0  0  0  0  0  0  0
  149.3735  139.1408  154.7506 O   0  0  0  0  0  0  0  0  0  0  0  0
  150.3794  140.0085  155.2656 C   0  0  1  0  0  0  0  0  0  0  0  0
  150.0542  140.3884  156.7281 C   0  0  0  0  0  0  0  0  0  0  0  0
  151.0450  141.2447  157.2576 O   0  0  0  0  0  0  0  0  0  0  0  0
  151.6591  139.1912  155.0436 C   0  0  1  0  0  0  0  0  0  0  0  0
  152.7133  139.5650  155.9091 O   0  0  0  0  0  0  0  0  0  0  0  0
  151.2159  137.7535  155.2902 C   0  0  2  0  0  0  0  0  0  0  0  0
  151.8978  136.8854  154.4068 O   0  0  0  0  0  0  0  0  0  0  0  0
  145.7392  136.1271  162.2770 C   0  0  0  0  0  0  0  0  0  0  0  0
  144.5304  136.8544  162.3882 C   0  0  0  0  0  0  0  0  0  0  0  0
  143.3782  136.2550  162.9310 C   0  0  0  0  0  0  0  0  0  0  0  0
  143.4188  134.9174  163.3631 C   0  0  0  0  0  0  0  0  0  0  0  0
  144.6110  134.1799  163.2457 C   0  0  0  0  0  0  0  0  0  0  0  0
  145.7679  134.7745  162.7031 C   0  0  0  0  0  0  0  0  0  0  0  0
  147.1984  133.8121  162.5676 Cl  0  0  0  0  0  0  0  0  0  0  0  0
  149.3847  137.1683  154.1588 H   0  0  0  0  0  0  0  0  0  0  0  0
  150.3895  140.9143  154.6578 H   0  0  0  0  0  0  0  0  0  0  0  0
  151.9786  139.3205  154.0079 H   0  0  0  0  0  0  0  0  0  0  0  0
  151.3882  137.4643  156.3281 H   0  0  0  0  0  0  0  0  0  0  0  0
  147.8538  137.2396  163.6271 H   0  0  0  0  0  0  0  0  0  0  0  0
  149.0229  137.2655  162.3185 H   0  0  0  0  0  0  0  0  0  0  0  0
  148.4231  135.7271  162.9279 H   0  0  0  0  0  0  0  0  0  0  0  0
  146.7261  137.8313  161.4794 H   0  0  0  0  0  0  0  0  0  0  0  0
  146.9412  135.3144  160.1799 H   0  0  0  0  0  0  0  0  0  0  0  0
  151.2141  138.3064  159.8610 H   0  0  0  0  0  0  0  0  0  0  0  0
  147.1904  136.3322  155.2436 H   0  0  0  0  0  0  0  0  0  0  0  0
  149.1116  140.9335  156.7688 H   0  0  0  0  0  0  0  0  0  0  0  0
  149.9458  139.5077  157.3617 H   0  0  0  0  0  0  0  0  0  0  0  0
  150.7548  142.1384  157.1564 H   0  0  0  0  0  0  0  0  0  0  0  0
  152.3579  139.6991  156.7745 H   0  0  0  0  0  0  0  0  0  0  0  0
  151.4119  136.8374  153.5981 H   0  0  0  0  0  0  0  0  0  0  0  0
  144.4738  137.8797  162.0531 H   0  0  0  0  0  0  0  0  0  0  0  0
  142.4623  136.8211  163.0130 H   0  0  0  0  0  0  0  0  0  0  0  0
  142.5356  134.4556  163.7791 H   0  0  0  0  0  0  0  0  0  0  0  0
  144.6363  133.1503  163.5710 H   0  0  0  0  0  0  0  0  0  0  0  0
  1  2  1  0  0  0  0
  1 33  1  0  0  0  0
  1 34  1  0  0  0  0
  1 35  1  0  0  0  0
  2  3  1  0  0  0  0
  2 22  1  0  0  0  0
  2 36  1  0  0  0  0
  3  4  1  0  0  0  0
  3 37  1  0  0  0  0
  4  9  1  0  0  0  0
  4  5  2  0  0  0  0
  5  6  1  0  0  0  0
  6  7  2  0  0  0  0
  6 38  1  0  0  0  0
  7  8  1  0  0  0  0
  8 12  1  0  0  0  0
  8  9  2  0  0  0  0
  9 10  1  0  0  0  0
 10 11  2  0  0  0  0
 11 12  1  0  0  0  0
 11 39  1  0  0  0  0
 12 13  1  0  0  0  0
 13 29  1  0  0  0  0
 13 20  1  0  0  0  0
 13 14  1  0  0  0  0
 14 15  1  0  0  0  0
 15 30  1  0  0  0  0
 15 16  1  0  0  0  0
 15 18  1  0  0  0  0
 16 17  1  0  0  0  0
 16 40  1  0  0  0  0
 16 41  1  0  0  0  0
 17 42  1  0  0  0  0
 18 31  1  0  0  0  0
 18 19  1  0  0  0  0
 18 20  1  0  0  0  0
 19 43  1  0  0  0  0
 20 32  1  0  0  0  0
 20 21  1  0  0  0  0
 21 44  1  0  0  0  0
 22 27  1  0  0  0  0
 22 23  2  0  0  0  0
 23 24  1  0  0  0  0
 23 45  1  0  0  0  0
 24 25  2  0  0  0  0
 24 46  1  0  0  0  0
 25 26  1  0  0  0  0
 25 47  1  0  0  0  0
 26 27  2  0  0  0  0
 26 48  1  0  0  0  0
 27 28  1  0  0  0  0
M  END
> <s_m_source_file>
AV-unprocessed.smi

> <i_m_source_file_index>
283

> <i_lp_mmshare_version>
43012

> <i_f3d_flags>
0

> <s_epik_input>
Q2xjMVtjSF1bY0hdW2NIXVtjSF1jMVtDQEhdKFtDSDNdKVtOSF1jKG5bY0hdbjIpYyhjMjMpbltjSF1uM1tDQEBIXTRPW0NASF0oW0NIMl1bT0hdKVtDQEBIXShbT0hdKVtDQEhdNFtPSF0=

> <s_epik_cmdline>
J2VwaWtfcHl0aG9uJywgJy1waCcsICc3LjAnLCAnLXRuJywgJzgnLCAnLW1hJywgJzIwMCcsICctbWV0YWxfYmluZGluZycsICctaW1hZScsICc8aW5maWxlLm1hZT4nLCAnLW9tYWUnLCAnPG91dGZpbGUubWFlPic=

> <r_lp_tautomer_probability>
1

> <r_epik_Ionization_Penalty>
0.000266407

> <r_epik_Ionization_Penalty_Charging>
0

> <r_epik_Ionization_Penalty_Neutral>
0.000266407

> <r_epik_State_Penalty>
-0

> <r_epik_Charging_Adjusted_Penalty>
0

> <i_epik_Tot_Q>
0

> <i_epik_Tot_abs_Q>
0

> <r_epik_Metal_State_Penalty>
-0

> <b_epik_Metal_Only>
0

> <s_epik_Chemistry_Notes>
This compound contains an acetal/aminal-like group ( X-CH(R)-Y where X, Y are N, S, or O) that may be acid/base labile, releasing an aldehyde.

> <s_lp_Force_Field>
OPLS_2005

> <r_lp_Energy>
43.8521

> <b_lp_Chiralities_Consistent>
1

> <s_lp_Variant>
AV-unprocessed.smi:283-24

> <Gold.Version>
5.8.1

> <Gold.Id.Protein>
6NUR|6NUR_protein|mol2

> <Gold.PLP.Fitness>
50.9873

> <Gold.PLP.PLP>
-44.0055

> <Gold.PLP.part.hbond>
-3.8960

> <Gold.PLP.part.metal>
0.0000

> <Gold.PLP.part.buried>
-7.6566

> <Gold.PLP.part.nonpolar>
-33.2640

> <Gold.PLP.part.repulsive>
0.2375

> <Gold.PLP.ligand.clash>
0.0000

> <Gold.PLP.ligand.torsion>
1.1069

> <Gold.PLP.Chemscore.Hbond>
3.0204

> <Gold.PLP.Chemscore.CHOScore>
0.0000

> <Gold.PLP.Chemscore.Metal>
0.0000

> <Gold.Chemscore.Hbonds>
donor molecule, donor type, donor heavy atom, donor atom, acceptor molecule, acceptor atom, score
      L1  H    21    44       P1  7949  0.37
      P1  H  6931  6943       L1     5  0.34
      P1  H  7997  8010       L1    19  1.00
      P1  H 10752 10764       L1    21  1.00

> <Gold.PLP.Chemscore.Internal.Correction>
0.1344

> <Gold.Rescore>
     Score         DG    S(hbond)    S(metal)    S(lipo)     H(rot)  DE(clash)    DE(int)     intcor
      8.72     -12.55       2.08        0.00      90.67       4.10       0.19       3.64       ----

> <Gold.Chemscore.Fitness>
8.7206

> <Gold.Chemscore.DG>
-12.5505

> <Gold.Chemscore.ZeroCoef>
-5.4800

> <Gold.Chemscore.Hbond>
2.0807

> <Gold.Chemscore.Metal>
0.0000

> <Gold.Chemscore.Lipo>
90.6745

> <Gold.Chemscore.Internal_Hbond>
0.0000

> <Gold.Chemscore.DEClash>
0.1935

> <Gold.Chemscore.DEInternal>
3.6364

> <Gold.Chemscore.Rot>
4.0968

> <Gold.Chemscore.Internal.Correction>
   9.000000E+99

> <Gold.Chemscore.Hbonds>
donor molecule, donor type, donor heavy atom, donor atom, acceptor molecule, acceptor atom, score
      L1  H    21    44       P1  7949  0.27
      P1  H  6931  6943       L1     5  0.26
      P1  H  7997  8010       L1    19  0.58
      P1  H 10752 10764       L1    21  0.59

> <Gold.Chemscore.Hbond.Weighted>
-6.9495

> <Gold.Chemscore.Metal.Weighted>
-0.0000

> <Gold.Chemscore.Lipo.Weighted>
-10.6089

> <Gold.Chemscore.Internal_Hbond.Weighted>
0.0000

> <Gold.Chemscore.DEClash.Weighted>
0.1935

> <Gold.Chemscore.DEInternal.Weighted>
3.6364

> <Gold.Chemscore.Rot.Weighted>
10.4879

> <Gold.Chemscore.Internal.Correction.Weighted>
   9.000000E+99

> <Gold.Protein.RotatedTorsions>
[ 6907 6896 6895 6894 ] final   15.89 input  -60.11 | X-H torsion
[ 7974 7965 7964 7962 ] final   69.04 input  175.53 | X-H torsion
[ 8008 7997 7996 7995 ] final  102.94 input   59.86 | X-H torsion
[ 10167 10162 10161 10158 ] final  -74.03 input  -65.29 | X-H torsion
[ 10718 10713 10712 10709 ] final  142.76 input   66.30 | X-H torsion
[ 10763 10752 10751 10750 ] final  -69.46 input  -60.55 | X-H torsion
[ 11005 11000 10999 10996 ] final  -59.34 input  -57.11 | X-H torsion

> <Gold.Protein.ActiveResidues>
 VAL166  LYS551  ARG553  GLY616  TRP617  ASP618  TYR619  PRO620  LYS621  CYS622 
 ASP623  PHE694  ASN695  SER759  ASP760  ASP761  ALA762  ILE779  LEU786  VAL792 
 PHE793  MET794  SER795  GLU796  ALA797  LYS798  CYS799  TRP800  GLU811  SER814 

> <Gold.Protein.RotatedAtoms>
  151.8252  135.0639  160.0429 H   0  0  0  0  0  0  0  0  0  0  0  0  # atno 6907 bound_to 6896
  152.2921  133.5567  159.5573 H   0  0  0  0  0  0  0  0  0  0  0  0  # atno 6908 bound_to 6896
  150.7235  134.0329  159.3781 H   0  0  0  0  0  0  0  0  0  0  0  0  # atno 6909 bound_to 6896
  145.7953  139.2954  143.1186 H   0  0  0  0  0  0  0  0  0  0  0  0  # atno 7974 bound_to 7965
  156.1439  140.3173  155.8539 H   0  0  0  0  0  0  0  0  0  0  0  0  # atno 8008 bound_to 7997
  155.4102  140.0505  157.3049 H   0  0  0  0  0  0  0  0  0  0  0  0  # atno 8009 bound_to 7997
  154.4999  140.2125  155.9380 H   0  0  0  0  0  0  0  0  0  0  0  0  # atno 8010 bound_to 7997
  140.5061  143.2352  151.7671 H   0  0  0  0  0  0  0  0  0  0  0  0  # atno 10167 bound_to 10162
  157.3768  131.0986  151.0776 H   0  0  0  0  0  0  0  0  0  0  0  0  # atno 10718 bound_to 10713
  154.4037  135.6025  153.5912 H   0  0  0  0  0  0  0  0  0  0  0  0  # atno 10763 bound_to 10752
  152.9788  135.5912  154.4153 H   0  0  0  0  0  0  0  0  0  0  0  0  # atno 10764 bound_to 10752
  154.3955  135.2842  155.2107 H   0  0  0  0  0  0  0  0  0  0  0  0  # atno 10765 bound_to 10752
  141.1244  133.6616  156.5057 H   0  0  0  0  0  0  0  0  0  0  0  0  # atno 11005 bound_to 11000
  145.9935  140.8582  143.0055 LP  0  0  0  0  0  0  0  0  0  0  0  0  # atno 17320 bound_to 7965
  144.6776  140.2249  143.7362 LP  0  0  0  0  0  0  0  0  0  0  0  0  # atno 17321 bound_to 7965
  139.4884  144.4455  151.9715 LP  0  0  0  0  0  0  0  0  0  0  0  0  # atno 17342 bound_to 10162
  140.3546  144.3047  150.5943 LP  0  0  0  0  0  0  0  0  0  0  0  0  # atno 17343 bound_to 10162
  157.1860  130.6330  149.5688 LP  0  0  0  0  0  0  0  0  0  0  0  0  # atno 17370 bound_to 10713
  155.9767  130.4738  150.6545 LP  0  0  0  0  0  0  0  0  0  0  0  0  # atno 17371 bound_to 10713
  140.4409  134.7016  157.4991 LP  0  0  0  0  0  0  0  0  0  0  0  0  # atno 17394 bound_to 11000
  140.0229  134.6520  155.9213 LP  0  0  0  0  0  0  0  0  0  0  0  0  # atno 17395 bound_to 11000

$$$$
