AV-unprocessed.smi:766|AV-procd|sdf|3653|dock3
  -GOLD-   22720 1 63D 1   1.00000     0.00000
 Structure written by MMmdl.
 48 50  0  0  0  0  0  0  0  0  3 V2000
  152.1358  143.4416  160.8073 C   0  0  0  0  0  0  0  0  0  0  0  0
  151.3578  142.7210  159.7192 C   0  0  0  0  0  0  0  0  0  0  0  0
  150.8556  141.4289  159.9925 C   0  0  0  0  0  0  0  0  0  0  0  0
  150.1457  140.7968  158.9789 C   0  0  0  0  0  0  0  0  0  0  0  0
  149.5354  139.5417  158.9374 N   0  3  0  0  0  0  0  0  0  0  0  0
  148.9528  139.3594  157.7204 C   0  0  0  0  0  0  0  0  0  0  0  0
  149.1843  140.4790  156.9816 N   0  0  0  0  0  0  0  0  0  0  0  0
  148.7644  140.7989  155.6091 C   0  0  0  0  0  0  0  0  0  0  0  0
  149.5931  140.0601  154.5401 C   0  0  2  0  0  0  0  0  0  0  0  0
  149.6416  140.8344  153.3576 O   0  0  0  0  0  0  0  0  0  0  0  0
  148.9957  138.6844  154.2013 C   0  0  0  0  0  0  0  0  0  0  0  0
  148.3062  138.7073  152.8961 N   0  3  0  0  0  0  0  0  0  0  0  0
  146.8578  138.9814  152.9820 C   0  0  0  0  0  0  0  0  0  0  0  0
  146.1382  138.6392  151.6645 C   0  0  0  0  0  0  0  0  0  0  0  0
  145.6196  137.2807  151.6218 N   0  0  0  0  0  0  0  0  0  0  0  0
  145.1588  136.5801  150.5264 C   0  0  0  0  0  0  0  0  0  0  0  0
  144.8034  135.3344  150.9580 C   0  0  0  0  0  0  0  0  0  0  0  0
  145.1029  135.3602  152.3484 C   0  0  0  0  0  0  0  0  0  0  0  0
  145.5995  136.5224  152.7404 N   0  0  0  0  0  0  0  0  0  0  0  0
  149.9262  141.4044  157.7269 C   0  0  0  0  0  0  0  0  0  0  0  0
  150.4176  142.6762  157.4405 C   0  0  0  0  0  0  0  0  0  0  0  0
  151.1426  143.3362  158.4586 C   0  0  0  0  0  0  0  0  0  0  0  0
  151.6906  144.7245  158.1747 C   0  0  0  0  0  0  0  0  0  0  0  0
  152.2223  142.8313  161.7068 H   0  0  0  0  0  0  0  0  0  0  0  0
  151.6369  144.3711  161.0823 H   0  0  0  0  0  0  0  0  0  0  0  0
  153.1444  143.6767  160.4668 H   0  0  0  0  0  0  0  0  0  0  0  0
  151.0169  140.9541  160.9493 H   0  0  0  0  0  0  0  0  0  0  0  0
  148.4037  138.4851  157.4016 H   0  0  0  0  0  0  0  0  0  0  0  0
  147.7150  140.5133  155.5246 H   0  0  0  0  0  0  0  0  0  0  0  0
  148.7966  141.8788  155.4626 H   0  0  0  0  0  0  0  0  0  0  0  0
  150.6123  139.9333  154.9084 H   0  0  0  0  0  0  0  0  0  0  0  0
  149.5054  140.2624  152.6173 H   0  0  0  0  0  0  0  0  0  0  0  0
  149.7893  137.9373  154.1558 H   0  0  0  0  0  0  0  0  0  0  0  0
  148.3026  138.3668  154.9822 H   0  0  0  0  0  0  0  0  0  0  0  0
  148.7294  139.4299  152.3302 H   0  0  0  0  0  0  0  0  0  0  0  0
  146.4315  138.3898  153.7930 H   0  0  0  0  0  0  0  0  0  0  0  0
  146.6994  140.0289  153.2416 H   0  0  0  0  0  0  0  0  0  0  0  0
  145.3105  139.3308  151.5017 H   0  0  0  0  0  0  0  0  0  0  0  0
  146.8212  138.7657  150.8238 H   0  0  0  0  0  0  0  0  0  0  0  0
  145.1207  137.0209  149.5411 H   0  0  0  0  0  0  0  0  0  0  0  0
  144.3982  134.5253  150.3687 H   0  0  0  0  0  0  0  0  0  0  0  0
  144.9791  134.5736  153.0779 H   0  0  0  0  0  0  0  0  0  0  0  0
  150.2592  143.1456  156.4808 H   0  0  0  0  0  0  0  0  0  0  0  0
  151.4393  145.0547  157.1663 H   0  0  0  0  0  0  0  0  0  0  0  0
  152.7768  144.7338  158.2669 H   0  0  0  0  0  0  0  0  0  0  0  0
  151.2765  145.4501  158.8751 H   0  0  0  0  0  0  0  0  0  0  0  0
  148.4439  137.8172  152.4397 H   0  0  0  0  0  0  0  0  0  0  0  0
  149.5139  138.8593  159.6849 H   0  0  0  0  0  0  0  0  0  0  0  0
  1  2  1  0  0  0  0
  1 24  1  0  0  0  0
  1 25  1  0  0  0  0
  1 26  1  0  0  0  0
  2 22  1  0  0  0  0
  2  3  2  0  0  0  0
  3  4  1  0  0  0  0
  3 27  1  0  0  0  0
  4 20  2  0  0  0  0
  4  5  1  0  0  0  0
  5  6  2  0  0  0  0
  5 48  1  0  0  0  0
  6  7  1  0  0  0  0
  6 28  1  0  0  0  0
  7  8  1  0  0  0  0
  7 20  1  0  0  0  0
  8  9  1  0  0  0  0
  8 29  1  0  0  0  0
  8 30  1  0  0  0  0
  9 10  1  0  0  0  0
  9 11  1  0  0  0  0
  9 31  1  0  0  0  0
 10 32  1  0  0  0  0
 11 12  1  0  0  0  0
 11 33  1  0  0  0  0
 11 34  1  0  0  0  0
 12 13  1  0  0  0  0
 12 35  1  0  0  0  0
 12 47  1  0  0  0  0
 13 14  1  0  0  0  0
 13 36  1  0  0  0  0
 13 37  1  0  0  0  0
 14 15  1  0  0  0  0
 14 38  1  0  0  0  0
 14 39  1  0  0  0  0
 15 19  1  0  0  0  0
 15 16  1  0  0  0  0
 16 17  2  0  0  0  0
 16 40  1  0  0  0  0
 17 18  1  0  0  0  0
 17 41  1  0  0  0  0
 18 19  2  0  0  0  0
 18 42  1  0  0  0  0
 20 21  1  0  0  0  0
 21 22  2  0  0  0  0
 21 43  1  0  0  0  0
 22 23  1  0  0  0  0
 23 44  1  0  0  0  0
 23 45  1  0  0  0  0
 23 46  1  0  0  0  0
M  CHG  1   5   1
M  CHG  1  12   1
M  END
> <s_m_source_file>
AV-unprocessed.smi

> <i_m_source_file_index>
766

> <i_lp_mmshare_version>
43012

> <i_f3d_flags>
0

> <s_epik_input>
W0NIM11jKFtjSF0xKWMoW0NIM10pW2NIXWMoYzEyKW4oW2NIXW4yKVtDSDJdW0NASF0oW09IXSlbQ0gyXVtOSF1bQ0gyXVtDSDJdbjNbY0hdW2NIXVtjSF1uMw==

> <s_epik_cmdline>
J2VwaWtfcHl0aG9uJywgJy1waCcsICc3LjAnLCAnLXRuJywgJzgnLCAnLW1hJywgJzIwMCcsICctbWV0YWxfYmluZGluZycsICctaW1hZScsICc8aW5maWxlLm1hZT4nLCAnLW9tYWUnLCAnPG91dGZpbGUubWFlPic=

> <r_lp_tautomer_probability>
1

> <r_epik_Ionization_Penalty>
1.25103

> <r_epik_Ionization_Penalty_Charging>
1.25102

> <r_epik_Ionization_Penalty_Neutral>
6.05394e-06

> <r_epik_State_Penalty>
1.2613

> <r_epik_Charging_Adjusted_Penalty>
2.51232

> <i_epik_Tot_Q>
2

> <i_epik_Tot_abs_Q>
2

> <r_epik_Metal_State_Penalty>
1.33164

> <b_epik_Metal_Only>
0

> <s_lp_Force_Field>
OPLS_2005

> <r_lp_Energy>
19.7351

> <b_lp_Chiralities_Consistent>
1

> <s_lp_Variant>
AV-unprocessed.smi:766-3

> <Gold.Version>
5.8.1

> <Gold.Id.Protein>
6NUR|6NUR_protein|mol2

> <Gold.PLP.Fitness>
57.0850

> <Gold.PLP.PLP>
-43.8462

> <Gold.PLP.part.hbond>
-4.5619

> <Gold.PLP.part.metal>
0.0000

> <Gold.PLP.part.buried>
-3.8915

> <Gold.PLP.part.nonpolar>
-37.2978

> <Gold.PLP.part.repulsive>
0.7551

> <Gold.PLP.ligand.clash>
0.0000

> <Gold.PLP.ligand.torsion>
1.7840

> <Gold.PLP.Chemscore.Hbond>
4.5368

> <Gold.PLP.Chemscore.CHOScore>
1.0000

> <Gold.PLP.Chemscore.Metal>
0.0000

> <Gold.Chemscore.Hbonds>
donor molecule, donor type, donor heavy atom, donor atom, acceptor molecule, acceptor atom, score
      L1  H    10    32       P1  7957  0.83
      L1  H    12    35       P1  7957  1.00
      L1  H    12    47       P1  7948  2.00
      P1  H  7989  7998       L1    10  0.15
      P1  H  8011  8017       L1    10  0.75
      L1  C    16    40       P1 10171  0.44

> <Gold.PLP.Chemscore.Internal.Correction>
0.1964

> <Gold.Rescore>
     Score         DG    S(hbond)    S(metal)    S(lipo)     H(rot)  DE(clash)    DE(int)     intcor
     19.19     -20.97       2.90        0.00     115.58       3.02       0.22       1.56       ----

> <Gold.Chemscore.Fitness>
19.1926

> <Gold.Chemscore.DG>
-20.9664

> <Gold.Chemscore.ZeroCoef>
-5.4800

> <Gold.Chemscore.Hbond>
2.9050

> <Gold.Chemscore.Metal>
0.0000

> <Gold.Chemscore.Lipo>
115.5757

> <Gold.Chemscore.Internal_Hbond>
0.0000

> <Gold.Chemscore.DEClash>
0.2170

> <Gold.Chemscore.DEInternal>
1.5568

> <Gold.Chemscore.Rot>
3.0229

> <Gold.Chemscore.Internal.Correction>
   9.000000E+99

> <Gold.Chemscore.Hbonds>
donor molecule, donor type, donor heavy atom, donor atom, acceptor molecule, acceptor atom, score
      L1  H    10    32       P1  7957  0.77
      L1  H    12    35       P1  7957  0.96
      L1  H    12    47       P1  7948  1.00
      P1  H  8011  8017       L1    10  0.09

> <Gold.Chemscore.Hbond.Weighted>
-9.7027

> <Gold.Chemscore.Metal.Weighted>
-0.0000

> <Gold.Chemscore.Lipo.Weighted>
-13.5224

> <Gold.Chemscore.Internal_Hbond.Weighted>
0.0000

> <Gold.Chemscore.DEClash.Weighted>
0.2170

> <Gold.Chemscore.DEInternal.Weighted>
1.5568

> <Gold.Chemscore.Rot.Weighted>
7.7386

> <Gold.Chemscore.Internal.Correction.Weighted>
   9.000000E+99

> <Gold.Protein.RotatedTorsions>
[ 6907 6896 6895 6894 ] final -126.79 input  -60.11 | X-H torsion
[ 7974 7965 7964 7962 ] final  150.49 input  175.53 | X-H torsion
[ 8008 7997 7996 7995 ] final  -45.39 input   59.86 | X-H torsion
[ 10167 10162 10161 10158 ] final  145.25 input  -65.29 | X-H torsion
[ 10718 10713 10712 10709 ] final -158.35 input   66.30 | X-H torsion
[ 10763 10752 10751 10750 ] final -102.95 input  -60.55 | X-H torsion
[ 11005 11000 10999 10996 ] final  153.37 input  -57.11 | X-H torsion

> <Gold.Protein.ActiveResidues>
 VAL166  LYS551  ARG553  GLY616  TRP617  ASP618  TYR619  PRO620  LYS621  CYS622 
 ASP623  PHE694  ASN695  SER759  ASP760  ASP761  ALA762  ILE779  LEU786  VAL792 
 PHE793  MET794  SER795  GLU796  ALA797  LYS798  CYS799  TRP800  GLU811  SER814 

> <Gold.Protein.RotatedAtoms>
  150.9006  133.7124  159.2879 H   0  0  0  0  0  0  0  0  0  0  0  0  # atno 6907 bound_to 6896
  151.4644  135.1039  159.9743 H   0  0  0  0  0  0  0  0  0  0  0  0  # atno 6908 bound_to 6896
  152.4874  133.8361  159.7184 H   0  0  0  0  0  0  0  0  0  0  0  0  # atno 6909 bound_to 6896
  144.8360  139.6415  143.6037 H   0  0  0  0  0  0  0  0  0  0  0  0  # atno 7974 bound_to 7965
  154.4001  140.1398  156.3839 H   0  0  0  0  0  0  0  0  0  0  0  0  # atno 8008 bound_to 7997
  155.7977  140.3477  155.5364 H   0  0  0  0  0  0  0  0  0  0  0  0  # atno 8009 bound_to 7997
  155.8515  140.0942  157.1662 H   0  0  0  0  0  0  0  0  0  0  0  0  # atno 8010 bound_to 7997
  139.4930  144.5915  151.6671 H   0  0  0  0  0  0  0  0  0  0  0  0  # atno 10167 bound_to 10162
  156.5529  130.8613  151.2785 H   0  0  0  0  0  0  0  0  0  0  0  0  # atno 10718 bound_to 10713
  154.7772  135.4841  153.9769 H   0  0  0  0  0  0  0  0  0  0  0  0  # atno 10763 bound_to 10752
  153.1445  135.6779  153.8984 H   0  0  0  0  0  0  0  0  0  0  0  0  # atno 10764 bound_to 10752
  153.8648  135.3151  155.3418 H   0  0  0  0  0  0  0  0  0  0  0  0  # atno 10765 bound_to 10752
  140.1392  134.8750  157.2308 H   0  0  0  0  0  0  0  0  0  0  0  0  # atno 11005 bound_to 11000
  146.2659  139.6518  142.9330 LP  0  0  0  0  0  0  0  0  0  0  0  0  # atno 17320 bound_to 7965
  145.4793  141.0437  143.2655 LP  0  0  0  0  0  0  0  0  0  0  0  0  # atno 17321 bound_to 7965
  140.5543  144.0374  150.6141 LP  0  0  0  0  0  0  0  0  0  0  0  0  # atno 17342 bound_to 10162
  140.3438  143.3003  152.0560 LP  0  0  0  0  0  0  0  0  0  0  0  0  # atno 17343 bound_to 10162
  157.7384  130.9812  150.2249 LP  0  0  0  0  0  0  0  0  0  0  0  0  # atno 17370 bound_to 10713
  156.2868  130.3740  149.7881 LP  0  0  0  0  0  0  0  0  0  0  0  0  # atno 17371 bound_to 10713
  140.2744  134.3423  155.7363 LP  0  0  0  0  0  0  0  0  0  0  0  0  # atno 17394 bound_to 11000
  141.2183  133.7442  156.9270 LP  0  0  0  0  0  0  0  0  0  0  0  0  # atno 17395 bound_to 11000

$$$$
