AV-unprocessed.smi:38|AV-procd|sdf|338|dock8
  -GOLD-   2262016173D 1   1.00000     0.00000
 Structure written by MMmdl.
 28 29  0  0  0  0  0  0  0  0  1 V2000
  153.4324  143.4427  163.7233 O   0  0  0  0  0  0  0  0  0  0  0  0
  153.1110  143.2421  162.5537 C   0  0  0  0  0  0  0  0  0  0  0  0
  152.2444  144.1243  161.9016 N   0  0  0  0  0  0  0  0  0  0  0  0
  151.8090  144.0062  160.5801 C   0  0  0  0  0  0  0  0  0  0  0  0
  151.0294  144.8369  160.1160 O   0  0  0  0  0  0  0  0  0  0  0  0
  152.2950  142.9067  159.8378 N   0  0  0  0  0  0  0  0  0  0  0  0
  151.8654  142.7268  158.3999 C   0  0  2  0  0  0  0  0  0  0  0  0
  150.3441  142.8498  158.2649 C   0  0  0  0  0  0  0  0  0  0  0  0
  150.0235  141.7664  157.2544 C   0  0  1  0  0  0  0  0  0  0  0  0
  150.1351  142.2667  155.9352 O   0  0  0  0  0  0  0  0  0  0  0  0
  151.0890  140.7066  157.5699 C   0  0  1  0  0  0  0  0  0  0  0  0
  151.4396  139.7148  156.4471 C   0  0  0  0  0  0  0  0  0  0  0  0
  151.8770  140.4094  155.2985 O   0  0  0  0  0  0  0  0  0  0  0  0
  152.2378  141.4490  157.9721 O   0  0  0  0  0  0  0  0  0  0  0  0
  153.1468  141.9969  160.4497 C   0  0  0  0  0  0  0  0  0  0  0  0
  153.5584  142.1204  161.7335 C   0  0  0  0  0  0  0  0  0  0  0  0
  154.3825  141.1974  162.2579 F   0  0  0  0  0  0  0  0  0  0  0  0
  151.9012  144.9114  162.4330 H   0  0  0  0  0  0  0  0  0  0  0  0
  152.4121  143.4462  157.7884 H   0  0  0  0  0  0  0  0  0  0  0  0
  149.0141  141.3754  157.3873 H   0  0  0  0  0  0  0  0  0  0  0  0
  150.7583  140.1436  158.4438 H   0  0  0  0  0  0  0  0  0  0  0  0
  149.8699  142.6177  159.2197 H   0  0  0  0  0  0  0  0  0  0  0  0
  150.0496  143.8555  157.9622 H   0  0  0  0  0  0  0  0  0  0  0  0
  149.7195  143.1152  155.9013 H   0  0  0  0  0  0  0  0  0  0  0  0
  152.2032  139.0036  156.7624 H   0  0  0  0  0  0  0  0  0  0  0  0
  150.5574  139.1332  156.1786 H   0  0  0  0  0  0  0  0  0  0  0  0
  152.7943  140.6122  155.4017 H   0  0  0  0  0  0  0  0  0  0  0  0
  153.5013  141.1449  159.8898 H   0  0  0  0  0  0  0  0  0  0  0  0
  1  2  2  0  0  0  0
  2 16  1  0  0  0  0
  2  3  1  0  0  0  0
  3 18  1  0  0  0  0
  3  4  1  0  0  0  0
  4  5  2  0  0  0  0
  4  6  1  0  0  0  0
  6  7  1  0  0  0  0
  6 15  1  0  0  0  0
  7 19  1  0  0  0  0
  7 14  1  0  0  0  0
  7  8  1  0  0  0  0
  8  9  1  0  0  0  0
  8 22  1  0  0  0  0
  8 23  1  0  0  0  0
  9 20  1  0  0  0  0
  9 10  1  0  0  0  0
  9 11  1  0  0  0  0
 10 24  1  0  0  0  0
 11 21  1  0  0  0  0
 11 12  1  0  0  0  0
 11 14  1  0  0  0  0
 12 13  1  0  0  0  0
 12 25  1  0  0  0  0
 12 26  1  0  0  0  0
 13 27  1  0  0  0  0
 15 16  2  0  0  0  0
 15 28  1  0  0  0  0
 16 17  1  0  0  0  0
M  END
> <s_m_source_file>
AV-unprocessed.smi

> <i_m_source_file_index>
38

> <i_lp_mmshare_version>
43012

> <i_f3d_flags>
0

> <s_epik_input>
Tz1jMVtuSF1jKD1PKW4oW2NIXWMxRilbQ0BIXTJbQ0gyXVtDQEhdKFtPSF0pW0NASF0oTzIpW0NIMl1bT0hd

> <s_epik_cmdline>
J2VwaWtfcHl0aG9uJywgJy1waCcsICc3LjAnLCAnLXRuJywgJzgnLCAnLW1hJywgJzIwMCcsICctbWV0YWxfYmluZGluZycsICctaW1hZScsICc8aW5maWxlLm1hZT4nLCAnLW9tYWUnLCAnPG91dGZpbGUubWFlPic=

> <r_lp_tautomer_probability>
0.999537

> <r_epik_Ionization_Penalty>
0.0357432

> <r_epik_Ionization_Penalty_Charging>
0.0357431

> <r_epik_Ionization_Penalty_Neutral>
1.19946e-07

> <r_epik_State_Penalty>
0.0298169

> <r_epik_Charging_Adjusted_Penalty>
0.06556

> <i_epik_Tot_Q>
0

> <i_epik_Tot_abs_Q>
0

> <r_epik_Metal_State_Penalty>
2.348

> <b_epik_Metal_Only>
0

> <s_epik_Chemistry_Notes>
This compound contains an acetal/aminal-like group ( X-CH(R)-Y where X, Y are N, S, or O) that may be acid/base labile, releasing an aldehyde.

> <s_lp_Force_Field>
OPLS_2005

> <r_lp_Energy>
29.3981

> <b_lp_Chiralities_Consistent>
1

> <s_lp_Variant>
AV-unprocessed.smi:38-4

> <Gold.Version>
5.8.1

> <Gold.Id.Protein>
6NUR|6NUR_protein|mol2

> <Gold.PLP.Fitness>
41.8600

> <Gold.PLP.PLP>
-37.0762

> <Gold.PLP.part.hbond>
-2.5469

> <Gold.PLP.part.metal>
0.0000

> <Gold.PLP.part.buried>
-4.4269

> <Gold.PLP.part.nonpolar>
-28.0840

> <Gold.PLP.part.repulsive>
0.3289

> <Gold.PLP.ligand.clash>
0.0000

> <Gold.PLP.ligand.torsion>
0.2372

> <Gold.PLP.Chemscore.Hbond>
1.7520

> <Gold.PLP.Chemscore.CHOScore>
0.0000

> <Gold.PLP.Chemscore.Metal>
0.0000

> <Gold.Chemscore.Hbonds>
donor molecule, donor type, donor heavy atom, donor atom, acceptor molecule, acceptor atom, score
      L1  H    10    24       P1  8028  1.00
      P1  H  7989  7998       L1    13  0.70

> <Gold.PLP.Chemscore.Internal.Correction>
0.0023

> <Gold.Rescore>
     Score         DG    S(hbond)    S(metal)    S(lipo)     H(rot)  DE(clash)    DE(int)     intcor
      6.29      -8.03       1.43        0.00      44.81       2.91       0.25       1.48       ----

> <Gold.Chemscore.Fitness>
6.2946

> <Gold.Chemscore.DG>
-8.0329

> <Gold.Chemscore.ZeroCoef>
-5.4800

> <Gold.Chemscore.Hbond>
1.4281

> <Gold.Chemscore.Metal>
0.0000

> <Gold.Chemscore.Lipo>
44.8129

> <Gold.Chemscore.Internal_Hbond>
0.0000

> <Gold.Chemscore.DEClash>
0.2540

> <Gold.Chemscore.DEInternal>
1.4843

> <Gold.Chemscore.Rot>
2.9141

> <Gold.Chemscore.Internal.Correction>
   9.000000E+99

> <Gold.Chemscore.Hbonds>
donor molecule, donor type, donor heavy atom, donor atom, acceptor molecule, acceptor atom, score
      L1  H    10    24       P1  8028  1.00
      P1  H  7989  7998       L1    13  0.16

> <Gold.Chemscore.Hbond.Weighted>
-4.7699

> <Gold.Chemscore.Metal.Weighted>
-0.0000

> <Gold.Chemscore.Lipo.Weighted>
-5.2431

> <Gold.Chemscore.Internal_Hbond.Weighted>
0.0000

> <Gold.Chemscore.DEClash.Weighted>
0.2540

> <Gold.Chemscore.DEInternal.Weighted>
1.4843

> <Gold.Chemscore.Rot.Weighted>
7.4601

> <Gold.Chemscore.Internal.Correction.Weighted>
   9.000000E+99

> <Gold.Protein.RotatedTorsions>
[ 6907 6896 6895 6894 ] final  150.58 input  -60.11 | X-H torsion
[ 7974 7965 7964 7962 ] final   30.90 input  175.53 | X-H torsion
[ 8008 7997 7996 7995 ] final  -32.77 input   59.86 | X-H torsion
[ 10167 10162 10161 10158 ] final    9.84 input  -65.29 | X-H torsion
[ 10718 10713 10712 10709 ] final  174.78 input   66.30 | X-H torsion
[ 10763 10752 10751 10750 ] final -155.49 input  -60.55 | X-H torsion
[ 11005 11000 10999 10996 ] final  -31.53 input  -57.11 | X-H torsion

> <Gold.Protein.ActiveResidues>
 VAL166  LYS551  ARG553  GLY616  TRP617  ASP618  TYR619  PRO620  LYS621  CYS622 
 ASP623  PHE694  ASN695  SER759  ASP760  ASP761  ALA762  ILE779  LEU786  VAL792 
 PHE793  MET794  SER795  GLU796  ALA797  LYS798  CYS799  TRP800  GLU811  SER814 

> <Gold.Protein.RotatedAtoms>
  152.1125  133.4308  159.4637 H   0  0  0  0  0  0  0  0  0  0  0  0  # atno 6907 bound_to 6896
  150.6868  134.2631  159.4566 H   0  0  0  0  0  0  0  0  0  0  0  0  # atno 6908 bound_to 6896
  152.0501  134.9658  160.0625 H   0  0  0  0  0  0  0  0  0  0  0  0  # atno 6909 bound_to 6896
  146.1584  139.6728  142.9051 H   0  0  0  0  0  0  0  0  0  0  0  0  # atno 7974 bound_to 7965
  154.4169  140.1728  156.1781 H   0  0  0  0  0  0  0  0  0  0  0  0  # atno 8008 bound_to 7997
  155.9705  140.3386  155.6547 H   0  0  0  0  0  0  0  0  0  0  0  0  # atno 8009 bound_to 7997
  155.6632  140.0703  157.2537 H   0  0  0  0  0  0  0  0  0  0  0  0  # atno 8010 bound_to 7997
  140.6230  143.8162  150.7199 H   0  0  0  0  0  0  0  0  0  0  0  0  # atno 10167 bound_to 10162
  156.9445  131.0012  151.2961 H   0  0  0  0  0  0  0  0  0  0  0  0  # atno 10718 bound_to 10713
  154.7783  135.3166  154.8045 H   0  0  0  0  0  0  0  0  0  0  0  0  # atno 10763 bound_to 10752
  153.8763  135.6839  153.4774 H   0  0  0  0  0  0  0  0  0  0  0  0  # atno 10764 bound_to 10752
  153.1412  135.4738  154.9435 H   0  0  0  0  0  0  0  0  0  0  0  0  # atno 10765 bound_to 10752
  140.9476  133.7240  156.1170 H   0  0  0  0  0  0  0  0  0  0  0  0  # atno 11005 bound_to 11000
  145.4651  141.0434  143.2729 LP  0  0  0  0  0  0  0  0  0  0  0  0  # atno 17320 bound_to 7965
  144.7993  139.6172  143.7078 LP  0  0  0  0  0  0  0  0  0  0  0  0  # atno 17321 bound_to 7965
  140.1756  143.4157  152.1969 LP  0  0  0  0  0  0  0  0  0  0  0  0  # atno 17342 bound_to 10162
  139.5455  144.7295  151.4596 LP  0  0  0  0  0  0  0  0  0  0  0  0  # atno 17343 bound_to 10162
  157.5763  130.8345  149.8460 LP  0  0  0  0  0  0  0  0  0  0  0  0  # atno 17370 bound_to 10713
  156.0390  130.3744  150.1486 LP  0  0  0  0  0  0  0  0  0  0  0  0  # atno 17371 bound_to 10713
  140.7647  134.3899  157.5519 LP  0  0  0  0  0  0  0  0  0  0  0  0  # atno 17394 bound_to 11000
  139.8838  134.8984  156.2744 LP  0  0  0  0  0  0  0  0  0  0  0  0  # atno 17395 bound_to 11000

$$$$
