AV-unprocessed.smi:2418|AV-procd|sdf|9550|dock3
  -GOLD-   2272013183D 1   1.00000     0.00000
 Structure written by MMmdl.
 34 35  0  0  0  0  0  0  0  0  1 V2000
  148.2455  139.0010  153.7644 C   0  0  0  0  0  0  0  0  0  0  0  0
  149.3210  139.7022  154.5750 C   0  0  0  0  0  0  0  0  0  0  0  0
  148.9833  140.9700  155.0570 N   0  0  0  0  0  0  0  0  0  0  0  0
  149.8372  141.6414  155.7576 C   0  0  0  0  0  0  0  0  0  0  0  0
  151.1119  141.1309  156.0570 N   0  0  0  0  0  0  0  0  0  0  0  0
  151.9902  141.9988  156.8608 C   0  0  0  0  0  0  0  0  0  0  0  0
  151.1936  142.9918  157.7365 C   0  0  2  0  0  0  0  0  0  0  0  0
  151.2251  144.2686  157.1286 O   0  0  0  0  0  0  0  0  0  0  0  0
  151.7544  143.0316  159.1527 C   0  0  0  0  0  0  0  0  0  0  0  0
  152.6417  142.0271  159.6015 C   0  0  0  0  0  0  0  0  0  0  0  0
  153.1498  142.0598  160.9145 C   0  0  0  0  0  0  0  0  0  0  0  0
  154.0006  141.0943  161.3352 F   0  0  0  0  0  0  0  0  0  0  0  0
  152.7721  143.0949  161.7903 C   0  0  0  0  0  0  0  0  0  0  0  0
  151.8823  144.0945  161.3531 C   0  0  0  0  0  0  0  0  0  0  0  0
  151.3719  144.0631  160.0405 C   0  0  0  0  0  0  0  0  0  0  0  0
  150.5080  145.0272  159.6412 F   0  0  0  0  0  0  0  0  0  0  0  0
  151.5231  139.9046  155.6229 C   0  0  0  0  0  0  0  0  0  0  0  0
  152.6441  139.4655  155.8858 O   0  0  0  0  0  0  0  0  0  0  0  0
  150.5402  139.1517  154.8266 C   0  0  0  0  0  0  0  0  0  0  0  0
  150.9630  137.7758  154.3268 C   0  0  0  0  0  0  0  0  0  0  0  0
  148.5998  138.7998  152.7532 H   0  0  0  0  0  0  0  0  0  0  0  0
  147.3446  139.6111  153.6879 H   0  0  0  0  0  0  0  0  0  0  0  0
  147.9685  138.0562  154.2328 H   0  0  0  0  0  0  0  0  0  0  0  0
  149.6266  142.6371  156.1523 H   0  0  0  0  0  0  0  0  0  0  0  0
  152.5977  141.3621  157.5077 H   0  0  0  0  0  0  0  0  0  0  0  0
  152.7223  142.5281  156.2480 H   0  0  0  0  0  0  0  0  0  0  0  0
  150.1471  142.6897  157.7878 H   0  0  0  0  0  0  0  0  0  0  0  0
  150.5140  144.3240  156.5086 H   0  0  0  0  0  0  0  0  0  0  0  0
  152.9345  141.2238  158.9412 H   0  0  0  0  0  0  0  0  0  0  0  0
  153.1614  143.1203  162.7974 H   0  0  0  0  0  0  0  0  0  0  0  0
  151.5884  144.8858  162.0269 H   0  0  0  0  0  0  0  0  0  0  0  0
  151.2158  137.1315  155.1695 H   0  0  0  0  0  0  0  0  0  0  0  0
  151.8432  137.8611  153.6885 H   0  0  0  0  0  0  0  0  0  0  0  0
  150.1893  137.2713  153.7506 H   0  0  0  0  0  0  0  0  0  0  0  0
  1  2  1  0  0  0  0
  1 21  1  0  0  0  0
  1 22  1  0  0  0  0
  1 23  1  0  0  0  0
  2 19  2  0  0  0  0
  2  3  1  0  0  0  0
  3  4  2  0  0  0  0
  4  5  1  0  0  0  0
  4 24  1  0  0  0  0
  5  6  1  0  0  0  0
  5 17  1  0  0  0  0
  6  7  1  0  0  0  0
  6 25  1  0  0  0  0
  6 26  1  0  0  0  0
  7  8  1  0  0  0  0
  7  9  1  0  0  0  0
  7 27  1  0  0  0  0
  8 28  1  0  0  0  0
  9 15  1  0  0  0  0
  9 10  2  0  0  0  0
 10 11  1  0  0  0  0
 10 29  1  0  0  0  0
 11 12  1  0  0  0  0
 11 13  2  0  0  0  0
 13 14  1  0  0  0  0
 13 30  1  0  0  0  0
 14 15  2  0  0  0  0
 14 31  1  0  0  0  0
 15 16  1  0  0  0  0
 17 18  2  0  0  0  0
 17 19  1  0  0  0  0
 19 20  1  0  0  0  0
 20 32  1  0  0  0  0
 20 33  1  0  0  0  0
 20 34  1  0  0  0  0
M  END
> <s_m_source_file>
AV-unprocessed.smi

> <i_m_source_file_index>
2418

> <i_lp_mmshare_version>
43012

> <i_f3d_flags>
0

> <s_epik_input>
W0NIM11jMW5bY0hdbihjKD1PKWMxW0NIM10pW0NIMl1bQ0BIXShbT0hdKWMyW2NIXWMoRilbY0hdW2NIXWMyRg==

> <s_epik_cmdline>
J2VwaWtfcHl0aG9uJywgJy1waCcsICc3LjAnLCAnLXRuJywgJzgnLCAnLW1hJywgJzIwMCcsICctbWV0YWxfYmluZGluZycsICctaW1hZScsICc8aW5maWxlLm1hZT4nLCAnLW9tYWUnLCAnPG91dGZpbGUubWFlPic=

> <r_lp_tautomer_probability>
1

> <r_epik_Ionization_Penalty>
5.08222e-05

> <r_epik_Ionization_Penalty_Charging>
7.56727e-08

> <r_epik_Ionization_Penalty_Neutral>
5.07465e-05

> <r_epik_State_Penalty>
-0

> <r_epik_Charging_Adjusted_Penalty>
7.56727e-08

> <i_epik_Tot_Q>
0

> <i_epik_Tot_abs_Q>
0

> <r_epik_Metal_State_Penalty>
-0

> <b_epik_Metal_Only>
0

> <s_lp_Force_Field>
OPLS_2005

> <r_lp_Energy>
19.2488

> <b_lp_Chiralities_Consistent>
1

> <s_lp_Variant>
AV-unprocessed.smi:2418-1

> <Gold.Version>
5.8.1

> <Gold.Id.Protein>
6NUR|6NUR_protein|mol2

> <Gold.PLP.Fitness>
54.1900

> <Gold.PLP.PLP>
-47.8612

> <Gold.PLP.part.hbond>
-2.0000

> <Gold.PLP.part.metal>
0.0000

> <Gold.PLP.part.buried>
-6.2845

> <Gold.PLP.part.nonpolar>
-39.9568

> <Gold.PLP.part.repulsive>
0.1105

> <Gold.PLP.ligand.clash>
0.0000

> <Gold.PLP.ligand.torsion>
1.3416

> <Gold.PLP.Chemscore.Hbond>
2.0000

> <Gold.PLP.Chemscore.CHOScore>
1.0000

> <Gold.PLP.Chemscore.Metal>
0.0000

> <Gold.Chemscore.Hbonds>
donor molecule, donor type, donor heavy atom, donor atom, acceptor molecule, acceptor atom, score
      L1  H     8    28       P1  8028  1.00
      P1  H  7997  8009       L1    18  1.00
      L1  C     4    24       P1  8028  1.00

> <Gold.PLP.Chemscore.Internal.Correction>
0.0120

> <Gold.Rescore>
     Score         DG    S(hbond)    S(metal)    S(lipo)     H(rot)  DE(clash)    DE(int)     intcor
     15.87     -20.08       1.99        0.00     114.08       2.11       1.75       2.46       ----

> <Gold.Chemscore.Fitness>
15.8669

> <Gold.Chemscore.DG>
-20.0841

> <Gold.Chemscore.ZeroCoef>
-5.4800

> <Gold.Chemscore.Hbond>
1.9933

> <Gold.Chemscore.Metal>
0.0000

> <Gold.Chemscore.Lipo>
114.0820

> <Gold.Chemscore.Internal_Hbond>
0.0000

> <Gold.Chemscore.DEClash>
1.7532

> <Gold.Chemscore.DEInternal>
2.4641

> <Gold.Chemscore.Rot>
2.1097

> <Gold.Chemscore.Internal.Correction>
   9.000000E+99

> <Gold.Chemscore.Hbonds>
donor molecule, donor type, donor heavy atom, donor atom, acceptor molecule, acceptor atom, score
      L1  H     8    28       P1  8028  1.00
      P1  H  7997  8009       L1    18  1.00

> <Gold.Chemscore.Hbond.Weighted>
-6.6575

> <Gold.Chemscore.Metal.Weighted>
-0.0000

> <Gold.Chemscore.Lipo.Weighted>
-13.3476

> <Gold.Chemscore.Internal_Hbond.Weighted>
0.0000

> <Gold.Chemscore.DEClash.Weighted>
1.7532

> <Gold.Chemscore.DEInternal.Weighted>
2.4641

> <Gold.Chemscore.Rot.Weighted>
5.4009

> <Gold.Chemscore.Internal.Correction.Weighted>
   9.000000E+99

> <Gold.Protein.RotatedTorsions>
[ 6907 6896 6895 6894 ] final    4.62 input  -60.11 | X-H torsion
[ 7974 7965 7964 7962 ] final  -48.72 input  175.53 | X-H torsion
[ 8008 7997 7996 7995 ] final -160.37 input   59.86 | X-H torsion
[ 10167 10162 10161 10158 ] final   -7.00 input  -65.29 | X-H torsion
[ 10718 10713 10712 10709 ] final   70.60 input   66.30 | X-H torsion
[ 10763 10752 10751 10750 ] final  -66.80 input  -60.55 | X-H torsion
[ 11005 11000 10999 10996 ] final   64.31 input  -57.11 | X-H torsion

> <Gold.Protein.ActiveResidues>
 VAL166  LYS551  ARG553  GLY616  TRP617  ASP618  TYR619  PRO620  LYS621  CYS622 
 ASP623  PHE694  ASN695  SER759  ASP760  ASP761  ALA762  ILE779  LEU786  VAL792 
 PHE793  MET794  SER795  GLU796  ALA797  LYS798  CYS799  TRP800  GLU811  SER814 

> <Gold.Protein.RotatedAtoms>
  151.6443  135.1009  160.0147 H   0  0  0  0  0  0  0  0  0  0  0  0  # atno 6907 bound_to 6896
  152.4036  133.6851  159.6346 H   0  0  0  0  0  0  0  0  0  0  0  0  # atno 6908 bound_to 6896
  150.7933  133.8664  159.3287 H   0  0  0  0  0  0  0  0  0  0  0  0  # atno 6909 bound_to 6896
  145.9481  140.7598  142.9518 H   0  0  0  0  0  0  0  0  0  0  0  0  # atno 7974 bound_to 7965
  155.7764  140.0859  157.2081 H   0  0  0  0  0  0  0  0  0  0  0  0  # atno 8008 bound_to 7997
  154.3993  140.1516  156.3059 H   0  0  0  0  0  0  0  0  0  0  0  0  # atno 8009 bound_to 7997
  155.8696  140.3426  155.5815 H   0  0  0  0  0  0  0  0  0  0  0  0  # atno 8010 bound_to 7997
  140.7015  143.6131  150.8685 H   0  0  0  0  0  0  0  0  0  0  0  0  # atno 10167 bound_to 10162
  157.6408  130.9486  150.0673 H   0  0  0  0  0  0  0  0  0  0  0  0  # atno 10718 bound_to 10713
  154.3651  135.6107  153.5711 H   0  0  0  0  0  0  0  0  0  0  0  0  # atno 10763 bound_to 10752
  152.9792  135.5824  154.4587 H   0  0  0  0  0  0  0  0  0  0  0  0  # atno 10764 bound_to 10752
  154.4332  135.2848  155.1876 H   0  0  0  0  0  0  0  0  0  0  0  0  # atno 10765 bound_to 10752
  139.9967  134.6506  155.9998 H   0  0  0  0  0  0  0  0  0  0  0  0  # atno 11005 bound_to 11000
  144.6791  140.2390  143.7346 LP  0  0  0  0  0  0  0  0  0  0  0  0  # atno 17320 bound_to 7965
  145.8208  139.2043  143.1939 LP  0  0  0  0  0  0  0  0  0  0  0  0  # atno 17321 bound_to 7965
  139.9853  143.5906  152.2929 LP  0  0  0  0  0  0  0  0  0  0  0  0  # atno 17342 bound_to 10162
  139.6542  144.7661  151.2089 LP  0  0  0  0  0  0  0  0  0  0  0  0  # atno 17343 bound_to 10162
  156.1688  130.3646  149.9194 LP  0  0  0  0  0  0  0  0  0  0  0  0  # atno 17370 bound_to 10713
  156.7175  130.8994  151.3615 LP  0  0  0  0  0  0  0  0  0  0  0  0  # atno 17371 bound_to 10713
  141.1610  133.6539  156.4319 LP  0  0  0  0  0  0  0  0  0  0  0  0  # atno 17394 bound_to 11000
  140.4804  134.6670  157.5168 LP  0  0  0  0  0  0  0  0  0  0  0  0  # atno 17395 bound_to 11000

$$$$
