AV-unprocessed.smi:702|AV-procd|sdf|3420|dock3
  -GOLD-   22720 0403D 1   1.00000     0.00000
 Structure written by MMmdl.
 51 53  0  0  0  0  0  0  0  0  3 V2000
  144.5752  136.0218  151.4704 C   0  0  0  0  0  0  0  0  0  0  0  0
  145.5496  135.5139  152.5577 C   0  0  2  0  0  0  0  0  0  0  0  0
  146.5937  136.5248  152.7528 N   0  0  0  0  0  0  0  0  0  0  0  0
  146.4273  137.7621  153.2438 C   0  0  0  0  0  0  0  0  0  0  0  0
  145.3489  138.1950  153.6467 O   0  0  0  0  0  0  0  0  0  0  0  0
  147.5835  138.4486  153.2236 N   0  0  0  0  0  0  0  0  0  0  0  0
  147.8302  139.7989  153.5980 C   0  0  0  0  0  0  0  0  0  0  0  0
  149.0930  140.0954  154.1583 C   0  0  0  0  0  0  0  0  0  0  0  0
  149.3884  141.4158  154.5540 C   0  0  0  0  0  0  0  0  0  0  0  0
  148.4617  142.3856  154.4028 N   0  3  0  0  0  0  0  0  0  0  0  0
  147.2372  142.1502  153.8851 C   0  0  0  0  0  0  0  0  0  0  0  0
  146.8839  140.8487  153.4726 C   0  0  0  0  0  0  0  0  0  0  0  0
  146.1847  134.0910  152.3282 C   0  0  0  0  0  0  0  0  0  0  0  0
  147.4217  133.9309  153.1879 N   0  3  0  0  0  0  0  0  0  0  0  0
  147.2493  134.2780  154.6299 C   0  0  0  0  0  0  0  0  0  0  0  0
  148.6055  134.2781  155.3532 C   0  0  0  0  0  0  0  0  0  0  0  0
  149.2092  132.9990  155.2322 O   0  0  0  0  0  0  0  0  0  0  0  0
  149.4599  132.6667  153.8749 C   0  0  0  0  0  0  0  0  0  0  0  0
  148.1344  132.6197  153.0961 C   0  0  0  0  0  0  0  0  0  0  0  0
  145.1582  132.9550  152.6136 C   0  0  0  0  0  0  0  0  0  0  0  0
  144.7275  132.3980  151.2551 C   0  0  0  0  0  0  0  0  0  0  0  0
  145.9637  132.5686  150.3807 C   0  0  0  0  0  0  0  0  0  0  0  0
  146.5253  133.9240  150.8121 C   0  0  0  0  0  0  0  0  0  0  0  0
  143.7528  135.3282  151.3010 H   0  0  0  0  0  0  0  0  0  0  0  0
  145.0546  136.2092  150.5110 H   0  0  0  0  0  0  0  0  0  0  0  0
  144.1238  136.9650  151.7807 H   0  0  0  0  0  0  0  0  0  0  0  0
  144.9167  135.4744  153.4416 H   0  0  0  0  0  0  0  0  0  0  0  0
  147.5209  136.2666  152.4469 H   0  0  0  0  0  0  0  0  0  0  0  0
  148.3709  137.9676  152.8136 H   0  0  0  0  0  0  0  0  0  0  0  0
  149.8365  139.3205  154.2803 H   0  0  0  0  0  0  0  0  0  0  0  0
  150.3308  141.7224  154.9842 H   0  0  0  0  0  0  0  0  0  0  0  0
  146.5781  143.0037  153.8205 H   0  0  0  0  0  0  0  0  0  0  0  0
  145.8931  140.6868  153.0783 H   0  0  0  0  0  0  0  0  0  0  0  0
  146.8097  135.2600  154.7734 H   0  0  0  0  0  0  0  0  0  0  0  0
  146.5816  133.5657  155.1150 H   0  0  0  0  0  0  0  0  0  0  0  0
  149.2635  135.0487  154.9478 H   0  0  0  0  0  0  0  0  0  0  0  0
  148.4669  134.5022  156.4108 H   0  0  0  0  0  0  0  0  0  0  0  0
  150.1479  133.3881  153.4308 H   0  0  0  0  0  0  0  0  0  0  0  0
  149.9515  131.6943  153.8368 H   0  0  0  0  0  0  0  0  0  0  0  0
  147.5130  131.8184  153.4953 H   0  0  0  0  0  0  0  0  0  0  0  0
  148.3768  132.3414  152.0738 H   0  0  0  0  0  0  0  0  0  0  0  0
  145.6068  132.1349  153.1719 H   0  0  0  0  0  0  0  0  0  0  0  0
  144.3074  133.2843  153.2105 H   0  0  0  0  0  0  0  0  0  0  0  0
  144.3952  131.3612  151.3139 H   0  0  0  0  0  0  0  0  0  0  0  0
  143.9043  132.9875  150.8501 H   0  0  0  0  0  0  0  0  0  0  0  0
  146.6816  131.7759  150.5937 H   0  0  0  0  0  0  0  0  0  0  0  0
  145.7321  132.5304  149.3158 H   0  0  0  0  0  0  0  0  0  0  0  0
  146.0285  134.6766  150.2050 H   0  0  0  0  0  0  0  0  0  0  0  0
  147.5778  134.0533  150.5647 H   0  0  0  0  0  0  0  0  0  0  0  0
  148.0736  134.6102  152.8228 H   0  0  0  0  0  0  0  0  0  0  0  0
  148.6950  143.3352  154.6953 H   0  0  0  0  0  0  0  0  0  0  0  0
  1  2  1  0  0  0  0
  1 24  1  0  0  0  0
  1 25  1  0  0  0  0
  1 26  1  0  0  0  0
  2  3  1  0  0  0  0
  2 13  1  0  0  0  0
  2 27  1  0  0  0  0
  3  4  1  0  0  0  0
  3 28  1  0  0  0  0
  4  5  2  0  0  0  0
  4  6  1  0  0  0  0
  6  7  1  0  0  0  0
  6 29  1  0  0  0  0
  7 12  1  0  0  0  0
  7  8  2  0  0  0  0
  8  9  1  0  0  0  0
  8 30  1  0  0  0  0
  9 10  2  0  0  0  0
  9 31  1  0  0  0  0
 10 11  1  0  0  0  0
 10 51  1  0  0  0  0
 11 12  2  0  0  0  0
 11 32  1  0  0  0  0
 12 33  1  0  0  0  0
 13 23  1  0  0  0  0
 13 14  1  0  0  0  0
 13 20  1  0  0  0  0
 14 19  1  0  0  0  0
 14 15  1  0  0  0  0
 14 50  1  0  0  0  0
 15 16  1  0  0  0  0
 15 34  1  0  0  0  0
 15 35  1  0  0  0  0
 16 17  1  0  0  0  0
 16 36  1  0  0  0  0
 16 37  1  0  0  0  0
 17 18  1  0  0  0  0
 18 19  1  0  0  0  0
 18 38  1  0  0  0  0
 18 39  1  0  0  0  0
 19 40  1  0  0  0  0
 19 41  1  0  0  0  0
 20 21  1  0  0  0  0
 20 42  1  0  0  0  0
 20 43  1  0  0  0  0
 21 22  1  0  0  0  0
 21 44  1  0  0  0  0
 21 45  1  0  0  0  0
 22 23  1  0  0  0  0
 22 46  1  0  0  0  0
 22 47  1  0  0  0  0
 23 48  1  0  0  0  0
 23 49  1  0  0  0  0
M  CHG  1  10   1
M  CHG  1  14   1
M  END
> <s_m_source_file>
AV-unprocessed.smi

> <i_m_source_file_index>
702

> <i_lp_mmshare_version>
43012

> <i_f3d_flags>
0

> <s_epik_input>
W0NIMl0xW0NIMl1PW0NIMl1bQ0gyXU4xQzIoW0NIMl1bQ0gyXVtDSDJdW0NIMl0yKVtDQEhdKFtDSDNdKVtOSF1DKD1PKVtOSF1jM1tjSF1bY0hdbltjSF1bY0hdMw==

> <s_epik_cmdline>
J2VwaWtfcHl0aG9uJywgJy1waCcsICc3LjAnLCAnLXRuJywgJzgnLCAnLW1hJywgJzIwMCcsICctbWV0YWxfYmluZGluZycsICctaW1hZScsICc8aW5maWxlLm1hZT4nLCAnLW9tYWUnLCAnPG91dGZpbGUubWFlPic=

> <r_epik_Ionization_Penalty>
1.42147

> <r_epik_Ionization_Penalty_Charging>
1.42145

> <r_epik_Ionization_Penalty_Neutral>
1.94713e-05

> <r_epik_State_Penalty>
1.44789

> <r_epik_Charging_Adjusted_Penalty>
2.86934

> <i_epik_Tot_Q>
2

> <i_epik_Tot_abs_Q>
2

> <r_epik_Metal_State_Penalty>
1.5401

> <b_epik_Metal_Only>
0

> <s_lp_Force_Field>
OPLS_2005

> <r_lp_Energy>
70.747

> <b_lp_Chiralities_Consistent>
1

> <s_lp_Variant>
AV-unprocessed.smi:702-5

> <Gold.Version>
5.8.1

> <Gold.Id.Protein>
6NUR|6NUR_protein|mol2

> <Gold.PLP.Fitness>
52.9015

> <Gold.PLP.PLP>
-37.4260

> <Gold.PLP.part.hbond>
-4.0000

> <Gold.PLP.part.metal>
0.0000

> <Gold.PLP.part.buried>
-4.7594

> <Gold.PLP.part.nonpolar>
-28.4372

> <Gold.PLP.part.repulsive>
0.4439

> <Gold.PLP.ligand.clash>
0.0000

> <Gold.PLP.ligand.torsion>
1.0168

> <Gold.PLP.Chemscore.Hbond>
5.7833

> <Gold.PLP.Chemscore.CHOScore>
0.0000

> <Gold.PLP.Chemscore.Metal>
0.0000

> <Gold.Chemscore.Hbonds>
donor molecule, donor type, donor heavy atom, donor atom, acceptor molecule, acceptor atom, score
      L1  H     3    28       P1  7948  1.00
      L1  H     6    29       P1  7948  0.86
      L1  H    10    51       P1  8028  2.00
      L1  H    14    50       P1  7948  1.95

> <Gold.PLP.Chemscore.Internal.Correction>
0.1591

> <Gold.Rescore>
     Score         DG    S(hbond)    S(metal)    S(lipo)     H(rot)  DE(clash)    DE(int)     intcor
     22.93     -24.34       3.44        0.00      95.30       1.48       0.51       0.90       ----

> <Gold.Chemscore.Fitness>
22.9308

> <Gold.Chemscore.DG>
-24.3400

> <Gold.Chemscore.ZeroCoef>
-5.4800

> <Gold.Chemscore.Hbond>
3.4416

> <Gold.Chemscore.Metal>
0.0000

> <Gold.Chemscore.Lipo>
95.3014

> <Gold.Chemscore.Internal_Hbond>
0.0000

> <Gold.Chemscore.DEClash>
0.5108

> <Gold.Chemscore.DEInternal>
0.8983

> <Gold.Chemscore.Rot>
1.4787

> <Gold.Chemscore.Internal.Correction>
   9.000000E+99

> <Gold.Chemscore.Hbonds>
donor molecule, donor type, donor heavy atom, donor atom, acceptor molecule, acceptor atom, score
      L1  H     3    28       P1  7948  0.94
      L1  H     6    29       P1  7948  0.80
      L1  H    10    51       P1  8028  1.00
      L1  H    14    50       P1  7948  0.60

> <Gold.Chemscore.Hbond.Weighted>
-11.4951

> <Gold.Chemscore.Metal.Weighted>
-0.0000

> <Gold.Chemscore.Lipo.Weighted>
-11.1503

> <Gold.Chemscore.Internal_Hbond.Weighted>
0.0000

> <Gold.Chemscore.DEClash.Weighted>
0.5108

> <Gold.Chemscore.DEInternal.Weighted>
0.8983

> <Gold.Chemscore.Rot.Weighted>
3.7854

> <Gold.Chemscore.Internal.Correction.Weighted>
   9.000000E+99

> <Gold.Protein.RotatedTorsions>
[ 6907 6896 6895 6894 ] final   35.18 input  -60.11 | X-H torsion
[ 7974 7965 7964 7962 ] final  -88.32 input  175.53 | X-H torsion
[ 8008 7997 7996 7995 ] final  -73.27 input   59.86 | X-H torsion
[ 10167 10162 10161 10158 ] final -168.35 input  -65.29 | X-H torsion
[ 10718 10713 10712 10709 ] final    4.22 input   66.30 | X-H torsion
[ 10763 10752 10751 10750 ] final  -99.82 input  -60.55 | X-H torsion
[ 11005 11000 10999 10996 ] final   63.52 input  -57.11 | X-H torsion

> <Gold.Protein.ActiveResidues>
 VAL166  LYS551  ARG553  GLY616  TRP617  ASP618  TYR619  PRO620  LYS621  CYS622 
 ASP623  PHE694  ASN695  SER759  ASP760  ASP761  ALA762  ILE779  LEU786  VAL792 
 PHE793  MET794  SER795  GLU796  ALA797  LYS798  CYS799  TRP800  GLU811  SER814 

> <Gold.Protein.RotatedAtoms>
  152.1126  134.9264  160.0565 H   0  0  0  0  0  0  0  0  0  0  0  0  # atno 6907 bound_to 6896
  152.0435  133.3983  159.4355 H   0  0  0  0  0  0  0  0  0  0  0  0  # atno 6908 bound_to 6896
  150.6844  134.3308  159.4870 H   0  0  0  0  0  0  0  0  0  0  0  0  # atno 6909 bound_to 6896
  145.4548  140.9561  143.2002 H   0  0  0  0  0  0  0  0  0  0  0  0  # atno 7974 bound_to 7965
  154.5233  140.0782  156.8212 H   0  0  0  0  0  0  0  0  0  0  0  0  # atno 8008 bound_to 7997
  155.3529  140.3413  155.4221 H   0  0  0  0  0  0  0  0  0  0  0  0  # atno 8009 bound_to 7997
  156.1705  140.1618  156.8443 H   0  0  0  0  0  0  0  0  0  0  0  0  # atno 8010 bound_to 7997
  139.5991  144.1049  152.1722 H   0  0  0  0  0  0  0  0  0  0  0  0  # atno 10167 bound_to 10162
  156.8894  130.5682  149.5650 H   0  0  0  0  0  0  0  0  0  0  0  0  # atno 10718 bound_to 10713
  154.7529  135.4958  153.9322 H   0  0  0  0  0  0  0  0  0  0  0  0  # atno 10763 bound_to 10752
  153.1163  135.6721  153.9419 H   0  0  0  0  0  0  0  0  0  0  0  0  # atno 10764 bound_to 10752
  153.9164  135.3093  155.3427 H   0  0  0  0  0  0  0  0  0  0  0  0  # atno 10765 bound_to 10752
  140.0019  134.6429  155.9917 H   0  0  0  0  0  0  0  0  0  0  0  0  # atno 11005 bound_to 11000
  144.8039  139.6088  143.7059 LP  0  0  0  0  0  0  0  0  0  0  0  0  # atno 17320 bound_to 7965
  146.2484  139.6148  142.9444 LP  0  0  0  0  0  0  0  0  0  0  0  0  # atno 17321 bound_to 7965
  140.0641  144.5832  150.7240 LP  0  0  0  0  0  0  0  0  0  0  0  0  # atno 17342 bound_to 10162
  140.7235  143.2612  151.4198 LP  0  0  0  0  0  0  0  0  0  0  0  0  # atno 17343 bound_to 10162
  156.0637  130.5684  150.9244 LP  0  0  0  0  0  0  0  0  0  0  0  0  # atno 17370 bound_to 10713
  157.6093  131.0937  150.8824 LP  0  0  0  0  0  0  0  0  0  0  0  0  # atno 17371 bound_to 10713
  141.1648  133.6537  156.4442 LP  0  0  0  0  0  0  0  0  0  0  0  0  # atno 17394 bound_to 11000
  140.4712  134.6751  157.5130 LP  0  0  0  0  0  0  0  0  0  0  0  0  # atno 17395 bound_to 11000

$$$$
