AV-unprocessed.smi:1860|AV-procd|sdf|7547|dock2
  -GOLD-   22720 9263D 1   1.00000     0.00000
 Structure written by MMmdl.
 31 32  0  0  0  0  0  0  0  0  1 V2000
  154.0716  136.8051  164.2348 C   0  0  0  0  0  0  0  0  0  0  0  0
  154.3595  136.4332  162.7743 C   0  0  0  0  0  0  0  0  0  0  0  0
  154.8222  137.5859  162.0112 N   0  0  0  0  0  0  0  0  0  0  0  0
  154.2231  138.0779  160.9154 C   0  0  0  0  0  0  0  0  0  0  0  0
  153.2092  137.5877  160.4184 O   0  0  0  0  0  0  0  0  0  0  0  0
  154.8627  139.3156  160.2849 C   0  0  0  0  0  0  0  0  0  0  0  0
  154.1101  140.5492  160.6910 C   0  0  0  0  0  0  0  0  0  0  0  0
  154.0112  141.0754  161.9562 C   0  0  0  0  0  0  0  0  0  0  0  0
  153.0357  142.5184  161.9899 S   0  0  0  0  0  0  0  0  0  0  0  0
  152.7989  142.3582  160.2472 C   0  0  0  0  0  0  0  0  0  0  0  0
  152.0414  143.2321  159.4121 N   0  0  0  0  0  0  0  0  0  0  0  0
  151.7750  144.6161  159.7917 C   0  0  0  0  0  0  0  0  0  0  0  0
  150.9485  145.1614  158.6313 C   0  0  0  0  0  0  0  0  0  0  0  0
  150.8611  144.0164  157.7562 N   0  0  0  0  0  0  0  0  0  0  0  0
  151.4882  142.9329  158.2198 C   0  0  0  0  0  0  0  0  0  0  0  0
  151.5307  141.8571  157.6259 O   0  0  0  0  0  0  0  0  0  0  0  0
  153.4191  141.2930  159.7285 N   0  0  0  0  0  0  0  0  0  0  0  0
  153.7582  135.9288  164.8024 H   0  0  0  0  0  0  0  0  0  0  0  0
  153.2760  137.5473  164.3065 H   0  0  0  0  0  0  0  0  0  0  0  0
  154.9577  137.2157  164.7195 H   0  0  0  0  0  0  0  0  0  0  0  0
  155.1339  135.6671  162.7360 H   0  0  0  0  0  0  0  0  0  0  0  0
  153.4720  136.0012  162.3094 H   0  0  0  0  0  0  0  0  0  0  0  0
  155.6513  138.0531  162.3485 H   0  0  0  0  0  0  0  0  0  0  0  0
  155.9077  139.3836  160.5899 H   0  0  0  0  0  0  0  0  0  0  0  0
  154.8673  139.2020  159.1999 H   0  0  0  0  0  0  0  0  0  0  0  0
  154.4482  140.6996  162.8692 H   0  0  0  0  0  0  0  0  0  0  0  0
  151.2207  144.6588  160.7304 H   0  0  0  0  0  0  0  0  0  0  0  0
  152.7075  145.1694  159.9116 H   0  0  0  0  0  0  0  0  0  0  0  0
  149.9547  145.4787  158.9488 H   0  0  0  0  0  0  0  0  0  0  0  0
  151.4447  145.9922  158.1286 H   0  0  0  0  0  0  0  0  0  0  0  0
  150.3669  144.0449  156.8761 H   0  0  0  0  0  0  0  0  0  0  0  0
  1  2  1  0  0  0  0
  1 18  1  0  0  0  0
  1 19  1  0  0  0  0
  1 20  1  0  0  0  0
  2  3  1  0  0  0  0
  2 21  1  0  0  0  0
  2 22  1  0  0  0  0
  3  4  1  0  0  0  0
  3 23  1  0  0  0  0
  4  5  2  0  0  0  0
  4  6  1  0  0  0  0
  6  7  1  0  0  0  0
  6 24  1  0  0  0  0
  6 25  1  0  0  0  0
  7 17  1  0  0  0  0
  7  8  2  0  0  0  0
  8  9  1  0  0  0  0
  8 26  1  0  0  0  0
  9 10  1  0  0  0  0
 10 11  1  0  0  0  0
 10 17  2  0  0  0  0
 11 15  1  0  0  0  0
 11 12  1  0  0  0  0
 12 13  1  0  0  0  0
 12 27  1  0  0  0  0
 12 28  1  0  0  0  0
 13 14  1  0  0  0  0
 13 29  1  0  0  0  0
 13 30  1  0  0  0  0
 14 15  1  0  0  0  0
 14 31  1  0  0  0  0
 15 16  2  0  0  0  0
M  END
> <s_m_source_file>
AV-unprocessed.smi

> <i_m_source_file_index>
1860

> <i_lp_mmshare_version>
43012

> <i_f3d_flags>
0

> <s_epik_input>
W0NIM11bQ0gyXVtOSF1DKD1PKVtDSDJdYzFbY0hdc2MobjEpTjJbQ0gyXVtDSDJdW05IXUMyPU8=

> <s_epik_cmdline>
J2VwaWtfcHl0aG9uJywgJy1waCcsICc3LjAnLCAnLXRuJywgJzgnLCAnLW1hJywgJzIwMCcsICctbWV0YWxfYmluZGluZycsICctaW1hZScsICc8aW5maWxlLm1hZT4nLCAnLW9tYWUnLCAnPG91dGZpbGUubWFlPic=

> <r_lp_tautomer_probability>
1

> <r_epik_Ionization_Penalty>
0.000119829

> <r_epik_Ionization_Penalty_Charging>
0

> <r_epik_Ionization_Penalty_Neutral>
0.000119829

> <r_epik_State_Penalty>
-0

> <r_epik_Charging_Adjusted_Penalty>
0

> <i_epik_Tot_Q>
0

> <i_epik_Tot_abs_Q>
0

> <r_epik_Metal_State_Penalty>
-0

> <b_epik_Metal_Only>
0

> <s_lp_Force_Field>
OPLS_2005

> <r_lp_Energy>
29.5586

> <b_lp_Chiralities_Consistent>
1

> <s_lp_Variant>
AV-unprocessed.smi:1860-1

> <Gold.Version>
5.8.1

> <Gold.Id.Protein>
6NUR|6NUR_protein|mol2

> <Gold.PLP.Fitness>
43.1231

> <Gold.PLP.PLP>
-41.1927

> <Gold.PLP.part.hbond>
-1.0000

> <Gold.PLP.part.metal>
0.0000

> <Gold.PLP.part.buried>
-5.9755

> <Gold.PLP.part.nonpolar>
-34.1852

> <Gold.PLP.part.repulsive>
0.0552

> <Gold.PLP.ligand.clash>
0.0000

> <Gold.PLP.ligand.torsion>
0.5408

> <Gold.PLP.Chemscore.Hbond>
1.0000

> <Gold.PLP.Chemscore.CHOScore>
0.0000

> <Gold.PLP.Chemscore.Metal>
0.0000

> <Gold.Chemscore.Hbonds>
donor molecule, donor type, donor heavy atom, donor atom, acceptor molecule, acceptor atom, score
      L1  H    14    31       P1  8028  1.00

> <Gold.PLP.Chemscore.Internal.Correction>
0.0120

> <Gold.Rescore>
     Score         DG    S(hbond)    S(metal)    S(lipo)     H(rot)  DE(clash)    DE(int)     intcor
     11.63     -13.33       0.97        0.00      75.03       1.62       0.00       1.70       ----

> <Gold.Chemscore.Fitness>
11.6322

> <Gold.Chemscore.DG>
-13.3303

> <Gold.Chemscore.ZeroCoef>
-5.4800

> <Gold.Chemscore.Hbond>
0.9663

> <Gold.Chemscore.Metal>
0.0000

> <Gold.Chemscore.Lipo>
75.0274

> <Gold.Chemscore.Internal_Hbond>
0.0000

> <Gold.Chemscore.DEClash>
0.0000

> <Gold.Chemscore.DEInternal>
1.6981

> <Gold.Chemscore.Rot>
1.6231

> <Gold.Chemscore.Internal.Correction>
   9.000000E+99

> <Gold.Chemscore.Hbonds>
donor molecule, donor type, donor heavy atom, donor atom, acceptor molecule, acceptor atom, score
      L1  H    14    31       P1  8028  0.91

> <Gold.Chemscore.Hbond.Weighted>
-3.2274

> <Gold.Chemscore.Metal.Weighted>
-0.0000

> <Gold.Chemscore.Lipo.Weighted>
-8.7782

> <Gold.Chemscore.Internal_Hbond.Weighted>
0.0000

> <Gold.Chemscore.DEClash.Weighted>
0.0000

> <Gold.Chemscore.DEInternal.Weighted>
1.6981

> <Gold.Chemscore.Rot.Weighted>
4.1553

> <Gold.Chemscore.Internal.Correction.Weighted>
   9.000000E+99

> <Gold.Protein.RotatedTorsions>
[ 6907 6896 6895 6894 ] final  -36.84 input  -60.11 | X-H torsion
[ 7974 7965 7964 7962 ] final -148.52 input  175.53 | X-H torsion
[ 8008 7997 7996 7995 ] final  -40.94 input   59.86 | X-H torsion
[ 10167 10162 10161 10158 ] final  141.56 input  -65.29 | X-H torsion
[ 10718 10713 10712 10709 ] final -119.08 input   66.30 | X-H torsion
[ 10763 10752 10751 10750 ] final  -10.76 input  -60.55 | X-H torsion
[ 11005 11000 10999 10996 ] final -154.49 input  -57.11 | X-H torsion

> <Gold.Protein.ActiveResidues>
 VAL166  LYS551  ARG553  GLY616  TRP617  ASP618  TYR619  PRO620  LYS621  CYS622 
 ASP623  PHE694  ASN695  SER759  ASP760  ASP761  ALA762  ILE779  LEU786  VAL792 
 PHE793  MET794  SER795  GLU796  ALA797  LYS798  CYS799  TRP800  GLU811  SER814 

> <Gold.Protein.RotatedAtoms>
  151.0221  134.9477  159.8064 H   0  0  0  0  0  0  0  0  0  0  0  0  # atno 6907 bound_to 6896
  152.5327  134.2890  159.9046 H   0  0  0  0  0  0  0  0  0  0  0  0  # atno 6908 bound_to 6896
  151.2898  133.4129  159.2666 H   0  0  0  0  0  0  0  0  0  0  0  0  # atno 6909 bound_to 6896
  144.8024  140.5185  143.5698 H   0  0  0  0  0  0  0  0  0  0  0  0  # atno 7974 bound_to 7965
  154.4008  140.1512  156.3110 H   0  0  0  0  0  0  0  0  0  0  0  0  # atno 8008 bound_to 7997
  155.8615  140.3453  155.5738 H   0  0  0  0  0  0  0  0  0  0  0  0  # atno 8009 bound_to 7997
  155.7874  140.0852  157.2017 H   0  0  0  0  0  0  0  0  0  0  0  0  # atno 8010 bound_to 7997
  139.5017  144.6163  151.6155 H   0  0  0  0  0  0  0  0  0  0  0  0  # atno 10167 bound_to 10162
  156.1154  130.6282  150.9372 H   0  0  0  0  0  0  0  0  0  0  0  0  # atno 10718 bound_to 10713
  153.4739  135.7017  153.5977 H   0  0  0  0  0  0  0  0  0  0  0  0  # atno 10763 bound_to 10752
  153.4219  135.3823  155.2117 H   0  0  0  0  0  0  0  0  0  0  0  0  # atno 10764 bound_to 10752
  154.8724  135.3930  154.4181 H   0  0  0  0  0  0  0  0  0  0  0  0  # atno 10765 bound_to 10752
  140.6968  134.3981  157.5214 H   0  0  0  0  0  0  0  0  0  0  0  0  # atno 11005 bound_to 11000
  145.5520  139.1477  143.3389 LP  0  0  0  0  0  0  0  0  0  0  0  0  # atno 17320 bound_to 7965
  146.2308  140.5658  142.8976 LP  0  0  0  0  0  0  0  0  0  0  0  0  # atno 17321 bound_to 7965
  140.5852  143.9876  150.6291 LP  0  0  0  0  0  0  0  0  0  0  0  0  # atno 17342 bound_to 10162
  140.3038  143.3243  152.0946 LP  0  0  0  0  0  0  0  0  0  0  0  0  # atno 17343 bound_to 10162
  157.6337  131.0918  150.8390 LP  0  0  0  0  0  0  0  0  0  0  0  0  # atno 17370 bound_to 10713
  156.8494  130.5075  149.5313 LP  0  0  0  0  0  0  0  0  0  0  0  0  # atno 17371 bound_to 10713
  139.8908  134.8796  156.2352 LP  0  0  0  0  0  0  0  0  0  0  0  0  # atno 17394 bound_to 11000
  141.0197  133.7048  156.1247 LP  0  0  0  0  0  0  0  0  0  0  0  0  # atno 17395 bound_to 11000

$$$$
