AV-unprocessed.smi:2999|AV-procd|sdf|11421|dock3
  -GOLD-   2272016343D 1   1.00000     0.00000
 Structure written by MMmdl.
 38 40  0  0  0  0  0  0  0  0  2 V2000
  144.4405  136.6224  151.9093 O   0  0  0  0  0  0  0  0  0  0  0  0
  145.6457  136.3936  151.8068 C   0  0  0  0  0  0  0  0  0  0  0  0
  146.5917  137.3143  152.0406 N   0  0  0  0  0  0  0  0  0  0  0  0
  146.3336  138.6965  152.4308 C   0  0  0  0  0  0  0  0  0  0  0  0
  147.5537  139.3435  153.1111 C   0  0  2  0  0  0  0  0  0  0  0  0
  148.0748  138.4873  154.2850 C   0  0  0  0  0  0  0  0  0  0  0  0
  149.1852  139.1623  154.9990 N   0  3  1  0  0  0  0  0  0  0  0  0
  150.4780  139.0927  154.2782 C   0  0  0  0  0  0  0  0  0  0  0  0
  151.2218  137.7956  154.4944 C   0  0  0  0  0  0  0  0  0  0  0  0
  151.6787  139.0560  155.1946 C   0  0  0  0  0  0  0  0  0  0  0  0
  148.8042  140.5398  155.3908 C   0  0  0  0  0  0  0  0  0  0  0  0
  148.2525  141.3299  154.1901 C   0  0  0  0  0  0  0  0  0  0  0  0
  147.1645  140.6186  153.6131 O   0  0  0  0  0  0  0  0  0  0  0  0
  146.1869  135.2167  151.4537 N   0  0  0  0  0  0  0  0  0  0  0  0
  145.5121  134.0080  151.1524 C   0  0  0  0  0  0  0  0  0  0  0  0
  144.2231  134.0569  150.8116 N   0  0  0  0  0  0  0  0  0  0  0  0
  143.7032  132.7876  150.5421 C   0  0  0  0  0  0  0  0  0  0  0  0
  144.6199  131.7750  150.6803 C   0  0  0  0  0  0  0  0  0  0  0  0
  146.1840  132.3753  151.1610 S   0  0  0  0  0  0  0  0  0  0  0  0
  147.5587  137.0424  151.9369 H   0  0  0  0  0  0  0  0  0  0  0  0
  146.0595  139.2595  151.5383 H   0  0  0  0  0  0  0  0  0  0  0  0
  145.4677  138.7288  153.0944 H   0  0  0  0  0  0  0  0  0  0  0  0
  148.3472  139.4717  152.3734 H   0  0  0  0  0  0  0  0  0  0  0  0
  147.2675  138.3121  154.9974 H   0  0  0  0  0  0  0  0  0  0  0  0
  148.3970  137.5058  153.9350 H   0  0  0  0  0  0  0  0  0  0  0  0
  150.5375  139.6061  153.3207 H   0  0  0  0  0  0  0  0  0  0  0  0
  150.7523  137.0257  155.1043 H   0  0  0  0  0  0  0  0  0  0  0  0
  151.8386  137.4286  153.6766 H   0  0  0  0  0  0  0  0  0  0  0  0
  152.5967  139.5189  154.8380 H   0  0  0  0  0  0  0  0  0  0  0  0
  151.5102  139.1238  156.2679 H   0  0  0  0  0  0  0  0  0  0  0  0
  148.0379  140.4770  156.1646 H   0  0  0  0  0  0  0  0  0  0  0  0
  149.6542  141.0572  155.8372 H   0  0  0  0  0  0  0  0  0  0  0  0
  147.8983  142.3072  154.5180 H   0  0  0  0  0  0  0  0  0  0  0  0
  149.0258  141.5103  153.4420 H   0  0  0  0  0  0  0  0  0  0  0  0
  147.1939  135.1784  151.3947 H   0  0  0  0  0  0  0  0  0  0  0  0
  142.6659  132.6957  150.2563 H   0  0  0  0  0  0  0  0  0  0  0  0
  144.4705  130.7163  150.5295 H   0  0  0  0  0  0  0  0  0  0  0  0
  149.3292  138.6490  155.8571 H   0  0  0  0  0  0  0  0  0  0  0  0
  1  2  2  0  0  0  0
  2  3  1  0  0  0  0
  2 14  1  0  0  0  0
  3  4  1  0  0  0  0
  3 20  1  0  0  0  0
  4  5  1  0  0  0  0
  4 21  1  0  0  0  0
  4 22  1  0  0  0  0
  5 13  1  0  0  0  0
  5  6  1  0  0  0  0
  5 23  1  0  0  0  0
  6  7  1  0  0  0  0
  6 24  1  0  0  0  0
  6 25  1  0  0  0  0
  7  8  1  0  0  0  0
  7 11  1  0  0  0  0
  7 38  1  0  0  0  0
  8 10  1  0  0  0  0
  8  9  1  0  0  0  0
  8 26  1  0  0  0  0
  9 10  1  0  0  0  0
  9 27  1  0  0  0  0
  9 28  1  0  0  0  0
 10 29  1  0  0  0  0
 10 30  1  0  0  0  0
 11 12  1  0  0  0  0
 11 31  1  0  0  0  0
 11 32  1  0  0  0  0
 12 13  1  0  0  0  0
 12 33  1  0  0  0  0
 12 34  1  0  0  0  0
 14 15  1  0  0  0  0
 14 35  1  0  0  0  0
 15 19  1  0  0  0  0
 15 16  2  0  0  0  0
 16 17  1  0  0  0  0
 17 18  2  0  0  0  0
 17 36  1  0  0  0  0
 18 19  1  0  0  0  0
 18 37  1  0  0  0  0
M  CHG  1   7   1
M  END
> <s_m_source_file>
AV-unprocessed.smi

> <i_m_source_file_index>
2999

> <i_lp_mmshare_version>
43012

> <i_f3d_flags>
0

> <s_epik_input>
czFbY0hdW2NIXW5jMVtOSF1DKD1PKVtOSF1bQ0gyXVtDQEBIXTJbQ0gyXU4oW0NIMl1bQ0gyXU8yKVtDSF0zW0NIMl1bQ0gyXTM=

> <s_epik_cmdline>
J2VwaWtfcHl0aG9uJywgJy1waCcsICc3LjAnLCAnLXRuJywgJzgnLCAnLW1hJywgJzIwMCcsICctbWV0YWxfYmluZGluZycsICctaW1hZScsICc8aW5maWxlLm1hZT4nLCAnLW9tYWUnLCAnPG91dGZpbGUubWFlPic=

> <r_lp_tautomer_probability>
0.999

> <r_epik_Ionization_Penalty>
1.55235

> <r_epik_Ionization_Penalty_Charging>
1.55221

> <r_epik_Ionization_Penalty_Neutral>
0.000139685

> <r_epik_State_Penalty>
1.64652

> <r_epik_Charging_Adjusted_Penalty>
3.19873

> <i_epik_Tot_Q>
1

> <i_epik_Tot_abs_Q>
1

> <r_epik_Metal_State_Penalty>
1.68612

> <b_epik_Metal_Only>
0

> <s_lp_Force_Field>
OPLS_2005

> <r_lp_Energy>
21.4475

> <b_lp_Chiralities_Consistent>
1

> <s_lp_Variant>
AV-unprocessed.smi:2999-5

> <Gold.Version>
5.8.1

> <Gold.Id.Protein>
6NUR|6NUR_protein|mol2

> <Gold.PLP.Fitness>
41.6139

> <Gold.PLP.PLP>
-33.4684

> <Gold.PLP.part.hbond>
-2.0000

> <Gold.PLP.part.metal>
0.0000

> <Gold.PLP.part.buried>
-2.8414

> <Gold.PLP.part.nonpolar>
-30.5746

> <Gold.PLP.part.repulsive>
1.7017

> <Gold.PLP.ligand.clash>
0.0000

> <Gold.PLP.ligand.torsion>
0.8946

> <Gold.PLP.Chemscore.Hbond>
1.8882

> <Gold.PLP.Chemscore.CHOScore>
1.0000

> <Gold.PLP.Chemscore.Metal>
0.0000

> <Gold.Chemscore.Hbonds>
donor molecule, donor type, donor heavy atom, donor atom, acceptor molecule, acceptor atom, score
      L1  H     3    20       P1  7948  1.00
      L1  H    14    35       P1  7948  0.84
      L1  C    17    36       P1 10186  1.00

> <Gold.PLP.Chemscore.Internal.Correction>
1.2702

> <Gold.Rescore>
     Score         DG    S(hbond)    S(metal)    S(lipo)     H(rot)  DE(clash)    DE(int)     intcor
     14.19     -16.59       1.84        0.00      77.01       1.58       0.11       2.29       ----

> <Gold.Chemscore.Fitness>
14.1930

> <Gold.Chemscore.DG>
-16.5909

> <Gold.Chemscore.ZeroCoef>
-5.4800

> <Gold.Chemscore.Hbond>
1.8397

> <Gold.Chemscore.Metal>
0.0000

> <Gold.Chemscore.Lipo>
77.0061

> <Gold.Chemscore.Internal_Hbond>
0.0000

> <Gold.Chemscore.DEClash>
0.1113

> <Gold.Chemscore.DEInternal>
2.2866

> <Gold.Chemscore.Rot>
1.5795

> <Gold.Chemscore.Internal.Correction>
   9.000000E+99

> <Gold.Chemscore.Hbonds>
donor molecule, donor type, donor heavy atom, donor atom, acceptor molecule, acceptor atom, score
      L1  H     3    20       P1  7948  0.98
      L1  H    14    35       P1  7948  0.65

> <Gold.Chemscore.Hbond.Weighted>
-6.1447

> <Gold.Chemscore.Metal.Weighted>
-0.0000

> <Gold.Chemscore.Lipo.Weighted>
-9.0097

> <Gold.Chemscore.Internal_Hbond.Weighted>
0.0000

> <Gold.Chemscore.DEClash.Weighted>
0.1113

> <Gold.Chemscore.DEInternal.Weighted>
2.2866

> <Gold.Chemscore.Rot.Weighted>
4.0434

> <Gold.Chemscore.Internal.Correction.Weighted>
   9.000000E+99

> <Gold.Protein.RotatedTorsions>
[ 6907 6896 6895 6894 ] final   25.83 input  -60.11 | X-H torsion
[ 7974 7965 7964 7962 ] final  136.68 input  175.53 | X-H torsion
[ 8008 7997 7996 7995 ] final  -11.61 input   59.86 | X-H torsion
[ 10167 10162 10161 10158 ] final -179.79 input  -65.29 | X-H torsion
[ 10718 10713 10712 10709 ] final  154.29 input   66.30 | X-H torsion
[ 10763 10752 10751 10750 ] final   38.74 input  -60.55 | X-H torsion
[ 11005 11000 10999 10996 ] final -107.57 input  -57.11 | X-H torsion

> <Gold.Protein.ActiveResidues>
 VAL166  LYS551  ARG553  GLY616  TRP617  ASP618  TYR619  PRO620  LYS621  CYS622 
 ASP623  PHE694  ASN695  SER759  ASP760  ASP761  ALA762  ILE779  LEU786  VAL792 
 PHE793  MET794  SER795  GLU796  ALA797  LYS798  CYS799  TRP800  GLU811  SER814 

> <Gold.Protein.RotatedAtoms>
  151.9784  135.0041  160.0555 H   0  0  0  0  0  0  0  0  0  0  0  0  # atno 6907 bound_to 6896
  152.1719  133.4644  159.4921 H   0  0  0  0  0  0  0  0  0  0  0  0  # atno 6908 bound_to 6896
  150.6903  134.1860  159.4310 H   0  0  0  0  0  0  0  0  0  0  0  0  # atno 6909 bound_to 6896
  144.9542  139.4784  143.5511 H   0  0  0  0  0  0  0  0  0  0  0  0  # atno 7974 bound_to 7965
  154.5449  140.2298  155.8579 H   0  0  0  0  0  0  0  0  0  0  0  0  # atno 8008 bound_to 7997
  156.1894  140.3081  155.9263 H   0  0  0  0  0  0  0  0  0  0  0  0  # atno 8009 bound_to 7997
  155.3183  140.0439  157.3029 H   0  0  0  0  0  0  0  0  0  0  0  0  # atno 8010 bound_to 7997
  139.5370  144.2469  152.0816 H   0  0  0  0  0  0  0  0  0  0  0  0  # atno 10167 bound_to 10162
  157.2336  131.0744  151.1837 H   0  0  0  0  0  0  0  0  0  0  0  0  # atno 10718 bound_to 10713
  152.9991  135.6241  154.2352 H   0  0  0  0  0  0  0  0  0  0  0  0  # atno 10763 bound_to 10752
  154.2094  135.2800  155.2965 H   0  0  0  0  0  0  0  0  0  0  0  0  # atno 10764 bound_to 10752
  154.5619  135.5702  153.7074 H   0  0  0  0  0  0  0  0  0  0  0  0  # atno 10765 bound_to 10752
  141.0947  133.8992  157.1992 H   0  0  0  0  0  0  0  0  0  0  0  0  # atno 11005 bound_to 11000
  146.3331  139.8647  142.8850 LP  0  0  0  0  0  0  0  0  0  0  0  0  # atno 17320 bound_to 7965
  145.2798  141.0135  143.3724 LP  0  0  0  0  0  0  0  0  0  0  0  0  # atno 17321 bound_to 7965
  140.1941  144.4723  150.6464 LP  0  0  0  0  0  0  0  0  0  0  0  0  # atno 17342 bound_to 10162
  140.6582  143.2244  151.5919 LP  0  0  0  0  0  0  0  0  0  0  0  0  # atno 17343 bound_to 10162
  157.3452  130.7054  149.6406 LP  0  0  0  0  0  0  0  0  0  0  0  0  # atno 17370 bound_to 10713
  155.9674  130.4268  150.4716 LP  0  0  0  0  0  0  0  0  0  0  0  0  # atno 17371 bound_to 10713
  139.9781  135.0107  156.9681 LP  0  0  0  0  0  0  0  0  0  0  0  0  # atno 17394 bound_to 11000
  140.5168  134.0947  155.7283 LP  0  0  0  0  0  0  0  0  0  0  0  0  # atno 17395 bound_to 11000

$$$$
