AV-unprocessed.smi:3298|AV-procd|sdf|12642|dock6
  -GOLD-   2272018573D 1   1.00000     0.00000
 Structure written by MMmdl.
 35 36  0  0  0  0  0  0  0  0  1 V2000
  146.5483  142.6259  154.1444 C   0  0  0  0  0  0  0  0  0  0  0  0
  147.3658  141.3511  154.1253 C   0  0  0  0  0  0  0  0  0  0  0  0
  146.8531  140.1715  153.5442 C   0  0  0  0  0  0  0  0  0  0  0  0
  147.6594  139.0067  153.5479 C   0  0  0  0  0  0  0  0  0  0  0  0
  147.2720  137.7486  153.0075 N   0  0  0  0  0  0  0  0  0  0  0  0
  146.0415  137.2424  152.8095 C   0  0  0  0  0  0  0  0  0  0  0  0
  144.9802  137.8108  153.0645 O   0  0  0  0  0  0  0  0  0  0  0  0
  146.1071  136.0125  152.2787 N   0  0  0  0  0  0  0  0  0  0  0  0
  144.9557  135.1809  151.9422 C   0  0  2  0  0  0  0  0  0  0  0  0
  145.1996  133.7356  152.2878 C   0  0  0  0  0  0  0  0  0  0  0  0
  145.1354  132.9362  151.2257 C   0  0  0  0  0  0  0  0  0  0  0  0
  144.8605  133.6824  149.9462 C   0  0  1  0  0  0  0  0  0  0  0  0
  143.6378  133.1213  149.2012 C   0  0  0  0  0  0  0  0  0  0  0  0
  143.3399  133.9236  148.0781 O   0  0  0  0  0  0  0  0  0  0  0  0
  144.6924  135.1519  150.4161 C   0  0  0  0  0  0  0  0  0  0  0  0
  148.9330  139.0868  154.1489 C   0  0  0  0  0  0  0  0  0  0  0  0
  149.3500  140.3134  154.7021 C   0  0  0  0  0  0  0  0  0  0  0  0
  148.5889  141.4273  154.6927 N   0  0  0  0  0  0  0  0  0  0  0  0
  144.0656  135.5299  152.4687 H   0  0  0  0  0  0  0  0  0  0  0  0
  145.7479  133.5911  149.3185 H   0  0  0  0  0  0  0  0  0  0  0  0
  145.5667  142.4748  153.6943 H   0  0  0  0  0  0  0  0  0  0  0  0
  147.0597  143.4120  153.5882 H   0  0  0  0  0  0  0  0  0  0  0  0
  146.4025  142.9688  155.1691 H   0  0  0  0  0  0  0  0  0  0  0  0
  145.8619  140.1864  153.1202 H   0  0  0  0  0  0  0  0  0  0  0  0
  148.0366  137.1635  152.7046 H   0  0  0  0  0  0  0  0  0  0  0  0
  147.0191  135.6194  152.0976 H   0  0  0  0  0  0  0  0  0  0  0  0
  145.3916  133.4107  153.3000 H   0  0  0  0  0  0  0  0  0  0  0  0
  145.2786  131.8658  151.2467 H   0  0  0  0  0  0  0  0  0  0  0  0
  143.8356  132.1061  148.8559 H   0  0  0  0  0  0  0  0  0  0  0  0
  142.7668  133.0765  149.8562 H   0  0  0  0  0  0  0  0  0  0  0  0
  144.1461  134.2880  147.7459 H   0  0  0  0  0  0  0  0  0  0  0  0
  143.6836  135.5145  150.2133 H   0  0  0  0  0  0  0  0  0  0  0  0
  145.3718  135.8080  149.8702 H   0  0  0  0  0  0  0  0  0  0  0  0
  149.5844  138.2260  154.1857 H   0  0  0  0  0  0  0  0  0  0  0  0
  150.3215  140.4016  155.1652 H   0  0  0  0  0  0  0  0  0  0  0  0
  1  2  1  0  0  0  0
  1 21  1  0  0  0  0
  1 22  1  0  0  0  0
  1 23  1  0  0  0  0
  2 18  1  0  0  0  0
  2  3  2  0  0  0  0
  3  4  1  0  0  0  0
  3 24  1  0  0  0  0
  4  5  1  0  0  0  0
  4 16  2  0  0  0  0
  5  6  1  0  0  0  0
  5 25  1  0  0  0  0
  6  7  2  0  0  0  0
  6  8  1  0  0  0  0
  8  9  1  0  0  0  0
  8 26  1  0  0  0  0
  9 19  1  0  0  0  0
  9 15  1  0  0  0  0
  9 10  1  0  0  0  0
 10 11  2  0  0  0  0
 10 27  1  0  0  0  0
 11 12  1  0  0  0  0
 11 28  1  0  0  0  0
 12 20  1  0  0  0  0
 12 13  1  0  0  0  0
 12 15  1  0  0  0  0
 13 14  1  0  0  0  0
 13 29  1  0  0  0  0
 13 30  1  0  0  0  0
 14 31  1  0  0  0  0
 15 32  1  0  0  0  0
 15 33  1  0  0  0  0
 16 17  1  0  0  0  0
 16 34  1  0  0  0  0
 17 18  2  0  0  0  0
 17 35  1  0  0  0  0
M  END
> <s_m_source_file>
AV-unprocessed.smi

> <i_m_source_file_index>
3298

> <i_lp_mmshare_version>
43012

> <i_f3d_flags>
0

> <s_epik_input>
W0NIM11jMVtjSF1jKFtjSF1bY0hdbjEpW05IXUMoPU8pW05IXVtDQEBIXTJbQ0hdPVtDSF1bQ0BASF0oW0NIMl0yKVtDSDJdW09IXQ==

> <s_epik_cmdline>
J2VwaWtfcHl0aG9uJywgJy1waCcsICc3LjAnLCAnLXRuJywgJzgnLCAnLW1hJywgJzIwMCcsICctbWV0YWxfYmluZGluZycsICctaW1hZScsICc8aW5maWxlLm1hZT4nLCAnLW9tYWUnLCAnPG91dGZpbGUubWFlPic=

> <r_epik_Ionization_Penalty>
0.379275

> <r_epik_Ionization_Penalty_Charging>
0

> <r_epik_Ionization_Penalty_Neutral>
0.379275

> <r_epik_State_Penalty>
0.377195

> <r_epik_Charging_Adjusted_Penalty>
0.377195

> <i_epik_Tot_Q>
0

> <i_epik_Tot_abs_Q>
0

> <r_epik_Metal_State_Penalty>
0.22815

> <b_epik_Metal_Only>
0

> <s_lp_Force_Field>
OPLS_2005

> <r_lp_Energy>
21.788

> <b_lp_Chiralities_Consistent>
1

> <s_lp_Variant>
AV-unprocessed.smi:3298-3

> <Gold.Version>
5.8.1

> <Gold.Id.Protein>
6NUR|6NUR_protein|mol2

> <Gold.PLP.Fitness>
43.1354

> <Gold.PLP.PLP>
-32.5001

> <Gold.PLP.part.hbond>
-5.9183

> <Gold.PLP.part.metal>
0.0000

> <Gold.PLP.part.buried>
-0.6581

> <Gold.PLP.part.nonpolar>
-27.7735

> <Gold.PLP.part.repulsive>
1.2149

> <Gold.PLP.ligand.clash>
0.0000

> <Gold.PLP.ligand.torsion>
0.3895

> <Gold.PLP.Chemscore.Hbond>
3.8000

> <Gold.PLP.Chemscore.CHOScore>
0.0000

> <Gold.PLP.Chemscore.Metal>
0.0000

> <Gold.Chemscore.Hbonds>
donor molecule, donor type, donor heavy atom, donor atom, acceptor molecule, acceptor atom, score
      L1  H     5    25       P1  7948  1.00
      L1  H     8    26       P1  7948  0.80
      L1  H    14    31       P1  7921  1.00
      P1  H 10192 10197       L1    14  0.94

> <Gold.PLP.Chemscore.Internal.Correction>
0.0143

> <Gold.Rescore>
     Score         DG    S(hbond)    S(metal)    S(lipo)     H(rot)  DE(clash)    DE(int)     intcor
     19.36     -22.13       3.64        0.00      77.27       1.78       2.29       0.48       ----

> <Gold.Chemscore.Fitness>
19.3603

> <Gold.Chemscore.DG>
-22.1322

> <Gold.Chemscore.ZeroCoef>
-5.4800

> <Gold.Chemscore.Hbond>
3.6429

> <Gold.Chemscore.Metal>
0.0000

> <Gold.Chemscore.Lipo>
77.2701

> <Gold.Chemscore.Internal_Hbond>
0.0000

> <Gold.Chemscore.DEClash>
2.2898

> <Gold.Chemscore.DEInternal>
0.4820

> <Gold.Chemscore.Rot>
1.7796

> <Gold.Chemscore.Internal.Correction>
   9.000000E+99

> <Gold.Chemscore.Hbonds>
donor molecule, donor type, donor heavy atom, donor atom, acceptor molecule, acceptor atom, score
      L1  H     5    25       P1  7948  0.95
      L1  H     8    26       P1  7948  0.75
      L1  H    14    31       P1  7921  0.93
      P1  H 10192 10197       L1    14  0.20

> <Gold.Chemscore.Hbond.Weighted>
-12.1674

> <Gold.Chemscore.Metal.Weighted>
-0.0000

> <Gold.Chemscore.Lipo.Weighted>
-9.0406

> <Gold.Chemscore.Internal_Hbond.Weighted>
0.0000

> <Gold.Chemscore.DEClash.Weighted>
2.2898

> <Gold.Chemscore.DEInternal.Weighted>
0.4820

> <Gold.Chemscore.Rot.Weighted>
4.5558

> <Gold.Chemscore.Internal.Correction.Weighted>
   9.000000E+99

> <Gold.Protein.RotatedTorsions>
[ 6907 6896 6895 6894 ] final   34.29 input  -60.11 | X-H torsion
[ 7974 7965 7964 7962 ] final -170.14 input  175.53 | X-H torsion
[ 8008 7997 7996 7995 ] final  -43.80 input   59.86 | X-H torsion
[ 10167 10162 10161 10158 ] final -137.06 input  -65.29 | X-H torsion
[ 10718 10713 10712 10709 ] final  149.65 input   66.30 | X-H torsion
[ 10763 10752 10751 10750 ] final   75.87 input  -60.55 | X-H torsion
[ 11005 11000 10999 10996 ] final  -19.54 input  -57.11 | X-H torsion

> <Gold.Protein.ActiveResidues>
 VAL166  LYS551  ARG553  GLY616  TRP617  ASP618  TYR619  PRO620  LYS621  CYS622 
 ASP623  PHE694  ASN695  SER759  ASP760  ASP761  ALA762  ILE779  LEU786  VAL792 
 PHE793  MET794  SER795  GLU796  ALA797  LYS798  CYS799  TRP800  GLU811  SER814 

> <Gold.Protein.RotatedAtoms>
  152.1003  134.9346  160.0569 H   0  0  0  0  0  0  0  0  0  0  0  0  # atno 6907 bound_to 6896
  152.0563  133.4037  159.4407 H   0  0  0  0  0  0  0  0  0  0  0  0  # atno 6908 bound_to 6896
  150.6839  134.3171  159.4814 H   0  0  0  0  0  0  0  0  0  0  0  0  # atno 6909 bound_to 6896
  144.7174  140.2117  143.6326 H   0  0  0  0  0  0  0  0  0  0  0  0  # atno 7974 bound_to 7965
  154.3997  140.1438  156.3578 H   0  0  0  0  0  0  0  0  0  0  0  0  # atno 8008 bound_to 7997
  155.8209  140.3469  155.5493 H   0  0  0  0  0  0  0  0  0  0  0  0  # atno 8009 bound_to 7997
  155.8289  140.0909  157.1795 H   0  0  0  0  0  0  0  0  0  0  0  0  # atno 8010 bound_to 7997
  139.8615  143.7071  152.2649 H   0  0  0  0  0  0  0  0  0  0  0  0  # atno 10167 bound_to 10162
  157.2934  131.0857  151.1444 H   0  0  0  0  0  0  0  0  0  0  0  0  # atno 10718 bound_to 10713
  153.0685  135.4972  154.8254 H   0  0  0  0  0  0  0  0  0  0  0  0  # atno 10763 bound_to 10752
  154.6989  135.2998  154.9373 H   0  0  0  0  0  0  0  0  0  0  0  0  # atno 10764 bound_to 10752
  154.0103  135.6755  153.4818 H   0  0  0  0  0  0  0  0  0  0  0  0  # atno 10765 bound_to 10752
  140.8377  133.7950  155.9826 H   0  0  0  0  0  0  0  0  0  0  0  0  # atno 11005 bound_to 11000
  145.8585  139.2210  143.1731 LP  0  0  0  0  0  0  0  0  0  0  0  0  # atno 17320 bound_to 7965
  146.0196  140.8361  142.9930 LP  0  0  0  0  0  0  0  0  0  0  0  0  # atno 17321 bound_to 7965
  139.7369  144.7569  151.0713 LP  0  0  0  0  0  0  0  0  0  0  0  0  # atno 17342 bound_to 10162
  140.7774  143.5020  150.9760 LP  0  0  0  0  0  0  0  0  0  0  0  0  # atno 17343 bound_to 10162
  157.2832  130.6760  149.6076 LP  0  0  0  0  0  0  0  0  0  0  0  0  # atno 17370 bound_to 10713
  155.9668  130.4443  150.5457 LP  0  0  0  0  0  0  0  0  0  0  0  0  # atno 17371 bound_to 10713
  140.8930  134.2472  157.5084 LP  0  0  0  0  0  0  0  0  0  0  0  0  # atno 17394 bound_to 11000
  139.8704  134.9670  156.4583 LP  0  0  0  0  0  0  0  0  0  0  0  0  # atno 17395 bound_to 11000

$$$$
