AV-unprocessed.smi:1205|AV-procd|sdf|5040|dock6
  -GOLD-   22720 4 63D 1   1.00000     0.00000
 Structure written by MMmdl.
 49 50  0  0  0  0  0  0  0  0  2 V2000
  150.8134  141.7984  155.9747 C   0  0  0  0  0  0  0  0  0  0  0  0
  150.9703  140.4033  155.4452 C   0  0  0  0  0  0  0  0  0  0  0  0
  149.9712  139.3950  155.3173 C   0  0  0  0  0  0  0  0  0  0  0  0
  150.6698  138.3446  154.7879 C   0  0  0  0  0  0  0  0  0  0  0  0
  150.2263  137.1020  154.4592 N   0  0  0  0  0  0  0  0  0  0  0  0
  149.8527  136.1007  155.2747 C   0  0  0  0  0  0  0  0  0  0  0  0
  149.8485  136.1420  156.5053 O   0  0  0  0  0  0  0  0  0  0  0  0
  149.4661  135.0243  154.5752 N   0  0  0  0  0  0  0  0  0  0  0  0
  148.9958  133.7735  155.1623 C   0  0  0  0  0  0  0  0  0  0  0  0
  149.1853  132.5631  154.2118 C   0  0  1  0  0  0  0  0  0  0  0  0
  149.9191  131.3884  154.8867 C   0  0  0  0  0  0  0  0  0  0  0  0
  147.9108  132.1000  153.5886 N   0  3  1  0  0  0  0  0  0  0  0  0
  147.3046  133.0367  152.6035 C   0  0  0  0  0  0  0  0  0  0  0  0
  145.8912  132.5754  152.2155 C   0  0  0  0  0  0  0  0  0  0  0  0
  145.9156  131.1435  151.6646 C   0  0  0  0  0  0  0  0  0  0  0  0
  146.5794  130.1920  152.6752 C   0  0  1  0  0  0  0  0  0  0  0  0
  146.6394  128.7555  152.1374 C   0  0  0  0  0  0  0  0  0  0  0  0
  147.9801  130.7117  153.0582 C   0  0  0  0  0  0  0  0  0  0  0  0
  151.9843  138.7215  154.6237 N   0  0  0  0  0  0  0  0  0  0  0  0
  153.1051  137.9597  154.1081 C   0  0  0  0  0  0  0  0  0  0  0  0
  152.1651  139.9962  155.0313 N   0  0  0  0  0  0  0  0  0  0  0  0
  149.7802  141.9975  156.2606 H   0  0  0  0  0  0  0  0  0  0  0  0
  151.0981  142.5375  155.2260 H   0  0  0  0  0  0  0  0  0  0  0  0
  151.4371  141.9563  156.8549 H   0  0  0  0  0  0  0  0  0  0  0  0
  148.9256  139.4536  155.5794 H   0  0  0  0  0  0  0  0  0  0  0  0
  150.1597  136.9190  153.4687 H   0  0  0  0  0  0  0  0  0  0  0  0
  149.5020  135.0719  153.5672 H   0  0  0  0  0  0  0  0  0  0  0  0
  149.5573  133.6264  156.0846 H   0  0  0  0  0  0  0  0  0  0  0  0
  147.9501  133.8859  155.4519 H   0  0  0  0  0  0  0  0  0  0  0  0
  149.8318  132.8781  153.3915 H   0  0  0  0  0  0  0  0  0  0  0  0
  150.9282  131.6722  155.1863 H   0  0  0  0  0  0  0  0  0  0  0  0
  150.0135  130.5419  154.2058 H   0  0  0  0  0  0  0  0  0  0  0  0
  149.4015  131.0423  155.7810 H   0  0  0  0  0  0  0  0  0  0  0  0
  147.2480  134.0429  153.0174 H   0  0  0  0  0  0  0  0  0  0  0  0
  147.9254  133.0938  151.7085 H   0  0  0  0  0  0  0  0  0  0  0  0
  145.2363  132.6236  153.0866 H   0  0  0  0  0  0  0  0  0  0  0  0
  145.4692  133.2526  151.4725 H   0  0  0  0  0  0  0  0  0  0  0  0
  144.8998  130.8136  151.4435 H   0  0  0  0  0  0  0  0  0  0  0  0
  146.4621  131.1241  150.7206 H   0  0  0  0  0  0  0  0  0  0  0  0
  145.9670  130.1780  153.5783 H   0  0  0  0  0  0  0  0  0  0  0  0
  147.2348  128.6974  151.2257 H   0  0  0  0  0  0  0  0  0  0  0  0
  145.6414  128.3809  151.9078 H   0  0  0  0  0  0  0  0  0  0  0  0
  147.0837  128.0799  152.8690 H   0  0  0  0  0  0  0  0  0  0  0  0
  148.6420  130.6786  152.1918 H   0  0  0  0  0  0  0  0  0  0  0  0
  148.4121  130.0517  153.8117 H   0  0  0  0  0  0  0  0  0  0  0  0
  152.8156  137.4550  153.1860 H   0  0  0  0  0  0  0  0  0  0  0  0
  153.4096  137.2147  154.8436 H   0  0  0  0  0  0  0  0  0  0  0  0
  153.9501  138.6167  153.8977 H   0  0  0  0  0  0  0  0  0  0  0  0
  147.2548  132.0496  154.3550 H   0  0  0  0  0  0  0  0  0  0  0  0
  1  2  1  0  0  0  0
  1 22  1  0  0  0  0
  1 23  1  0  0  0  0
  1 24  1  0  0  0  0
  2 21  2  0  0  0  0
  2  3  1  0  0  0  0
  3  4  2  0  0  0  0
  3 25  1  0  0  0  0
  4  5  1  0  0  0  0
  4 19  1  0  0  0  0
  5  6  1  0  0  0  0
  5 26  1  0  0  0  0
  6  7  2  0  0  0  0
  6  8  1  0  0  0  0
  8  9  1  0  0  0  0
  8 27  1  0  0  0  0
  9 10  1  0  0  0  0
  9 28  1  0  0  0  0
  9 29  1  0  0  0  0
 10 11  1  0  0  0  0
 10 12  1  0  0  0  0
 10 30  1  0  0  0  0
 11 31  1  0  0  0  0
 11 32  1  0  0  0  0
 11 33  1  0  0  0  0
 12 18  1  0  0  0  0
 12 13  1  0  0  0  0
 12 49  1  0  0  0  0
 13 14  1  0  0  0  0
 13 34  1  0  0  0  0
 13 35  1  0  0  0  0
 14 15  1  0  0  0  0
 14 36  1  0  0  0  0
 14 37  1  0  0  0  0
 15 16  1  0  0  0  0
 15 38  1  0  0  0  0
 15 39  1  0  0  0  0
 16 17  1  0  0  0  0
 16 18  1  0  0  0  0
 16 40  1  0  0  0  0
 17 41  1  0  0  0  0
 17 42  1  0  0  0  0
 17 43  1  0  0  0  0
 18 44  1  0  0  0  0
 18 45  1  0  0  0  0
 19 20  1  0  0  0  0
 19 21  1  0  0  0  0
 20 46  1  0  0  0  0
 20 47  1  0  0  0  0
 20 48  1  0  0  0  0
M  CHG  1  12   1
M  END
> <s_m_source_file>
AV-unprocessed.smi

> <i_m_source_file_index>
1205

> <i_lp_mmshare_version>
43012

> <i_f3d_flags>
0

> <s_epik_input>
W0NIM11jMVtjSF1jKG4objEpW0NIM10pW05IXUMoPU8pW05IXVtDSDJdW0NASF0oW0NIM10pTjJbQ0gyXVtDSDJdW0NIMl1bQ0BASF0oW0NIM10pW0NIMl0y

> <s_epik_cmdline>
J2VwaWtfcHl0aG9uJywgJy1waCcsICc3LjAnLCAnLXRuJywgJzgnLCAnLW1hJywgJzIwMCcsICctbWV0YWxfYmluZGluZycsICctaW1hZScsICc8aW5maWxlLm1hZT4nLCAnLW9tYWUnLCAnPG91dGZpbGUubWFlPic=

> <r_lp_tautomer_probability>
1

> <r_epik_Ionization_Penalty>
0.0020309

> <r_epik_Ionization_Penalty_Charging>
0.00195276

> <r_epik_Ionization_Penalty_Neutral>
7.81448e-05

> <r_epik_State_Penalty>
0.00133177

> <r_epik_Charging_Adjusted_Penalty>
0.00328452

> <i_epik_Tot_Q>
1

> <i_epik_Tot_abs_Q>
1

> <r_epik_Metal_State_Penalty>
-0

> <b_epik_Metal_Only>
0

> <s_lp_Force_Field>
OPLS_2005

> <r_lp_Energy>
21.6269

> <b_lp_Chiralities_Consistent>
1

> <s_lp_Variant>
AV-unprocessed.smi:1205-2

> <Gold.Version>
5.8.1

> <Gold.Id.Protein>
6NUR|6NUR_protein|mol2

> <Gold.PLP.Fitness>
39.8679

> <Gold.PLP.PLP>
-35.5569

> <Gold.PLP.part.hbond>
-3.0000

> <Gold.PLP.part.metal>
0.0000

> <Gold.PLP.part.buried>
-0.6999

> <Gold.PLP.part.nonpolar>
-32.2759

> <Gold.PLP.part.repulsive>
0.0818

> <Gold.PLP.ligand.clash>
0.0108

> <Gold.PLP.ligand.torsion>
1.8447

> <Gold.PLP.Chemscore.Hbond>
2.6317

> <Gold.PLP.Chemscore.CHOScore>
0.0000

> <Gold.PLP.Chemscore.Metal>
0.0000

> <Gold.Chemscore.Hbonds>
donor molecule, donor type, donor heavy atom, donor atom, acceptor molecule, acceptor atom, score
      L1  H     5    26       P1  7948  0.70
      L1  H     8    27       P1  7948  0.52
      P1  H  7989  7998       L1    21  0.11

> <Gold.PLP.Chemscore.Internal.Correction>
0.1161

> <Gold.Rescore>
     Score         DG    S(hbond)    S(metal)    S(lipo)     H(rot)  DE(clash)    DE(int)     intcor
     14.76     -17.13       1.72        0.00      82.41       1.47       0.43       1.94       ----

> <Gold.Chemscore.Fitness>
14.7570

> <Gold.Chemscore.DG>
-17.1286

> <Gold.Chemscore.ZeroCoef>
-5.4800

> <Gold.Chemscore.Hbond>
1.7241

> <Gold.Chemscore.Metal>
0.0000

> <Gold.Chemscore.Lipo>
82.4150

> <Gold.Chemscore.Internal_Hbond>
0.0000

> <Gold.Chemscore.DEClash>
0.4315

> <Gold.Chemscore.DEInternal>
1.9401

> <Gold.Chemscore.Rot>
1.4658

> <Gold.Chemscore.Internal.Correction>
   9.000000E+99

> <Gold.Chemscore.Hbonds>
donor molecule, donor type, donor heavy atom, donor atom, acceptor molecule, acceptor atom, score
      L1  H     5    26       P1  7948  0.09
      L1  H     8    27       P1  7948  0.04

> <Gold.Chemscore.Hbond.Weighted>
-5.7586

> <Gold.Chemscore.Metal.Weighted>
-0.0000

> <Gold.Chemscore.Lipo.Weighted>
-9.6426

> <Gold.Chemscore.Internal_Hbond.Weighted>
0.0000

> <Gold.Chemscore.DEClash.Weighted>
0.4315

> <Gold.Chemscore.DEInternal.Weighted>
1.9401

> <Gold.Chemscore.Rot.Weighted>
3.7526

> <Gold.Chemscore.Internal.Correction.Weighted>
   9.000000E+99

> <Gold.Protein.RotatedTorsions>
[ 6907 6896 6895 6894 ] final   47.30 input  -60.11 | X-H torsion
[ 7974 7965 7964 7962 ] final   80.04 input  175.53 | X-H torsion
[ 8008 7997 7996 7995 ] final  168.51 input   59.86 | X-H torsion
[ 10167 10162 10161 10158 ] final  -90.52 input  -65.29 | X-H torsion
[ 10718 10713 10712 10709 ] final  114.60 input   66.30 | X-H torsion
[ 10763 10752 10751 10750 ] final   60.55 input  -60.55 | X-H torsion
[ 11005 11000 10999 10996 ] final  -94.80 input  -57.11 | X-H torsion

> <Gold.Protein.ActiveResidues>
 VAL166  LYS551  ARG553  GLY616  TRP617  ASP618  TYR619  PRO620  LYS621  CYS622 
 ASP623  PHE694  ASN695  SER759  ASP760  ASP761  ALA762  ILE779  LEU786  VAL792 
 PHE793  MET794  SER795  GLU796  ALA797  LYS798  CYS799  TRP800  GLU811  SER814 

> <Gold.Protein.RotatedAtoms>
  152.2664  134.7979  160.0421 H   0  0  0  0  0  0  0  0  0  0  0  0  # atno 6907 bound_to 6896
  151.8607  133.3451  159.3711 H   0  0  0  0  0  0  0  0  0  0  0  0  # atno 6908 bound_to 6896
  150.7135  134.5136  159.5664 H   0  0  0  0  0  0  0  0  0  0  0  0  # atno 6909 bound_to 6896
  145.6564  139.2460  143.1947 H   0  0  0  0  0  0  0  0  0  0  0  0  # atno 7974 bound_to 7965
  156.1540  140.1588  156.8723 H   0  0  0  0  0  0  0  0  0  0  0  0  # atno 8008 bound_to 7997
  154.5097  140.0804  156.8002 H   0  0  0  0  0  0  0  0  0  0  0  0  # atno 8009 bound_to 7997
  155.3840  140.3406  155.4250 H   0  0  0  0  0  0  0  0  0  0  0  0  # atno 8010 bound_to 7997
  140.3541  143.2876  151.9692 H   0  0  0  0  0  0  0  0  0  0  0  0  # atno 10167 bound_to 10162
  157.6272  131.1001  150.7209 H   0  0  0  0  0  0  0  0  0  0  0  0  # atno 10718 bound_to 10713
  152.9924  135.5532  154.5892 H   0  0  0  0  0  0  0  0  0  0  0  0  # atno 10763 bound_to 10752
  154.5257  135.2810  155.1226 H   0  0  0  0  0  0  0  0  0  0  0  0  # atno 10764 bound_to 10752
  154.2561  135.6390  153.5310 H   0  0  0  0  0  0  0  0  0  0  0  0  # atno 10765 bound_to 10752
  141.1460  133.7981  157.0348 H   0  0  0  0  0  0  0  0  0  0  0  0  # atno 11005 bound_to 11000
  146.1161  140.7367  142.9480 LP  0  0  0  0  0  0  0  0  0  0  0  0  # atno 17320 bound_to 7965
  144.7104  140.4017  143.7085 LP  0  0  0  0  0  0  0  0  0  0  0  0  # atno 17321 bound_to 7965
  139.4822  144.6050  151.7537 LP  0  0  0  0  0  0  0  0  0  0  0  0  # atno 17342 bound_to 10162
  140.5191  144.0907  150.6017 LP  0  0  0  0  0  0  0  0  0  0  0  0  # atno 17343 bound_to 10162
  156.7555  130.4782  149.5447 LP  0  0  0  0  0  0  0  0  0  0  0  0  # atno 17370 bound_to 10713
  156.1451  130.6271  151.0520 LP  0  0  0  0  0  0  0  0  0  0  0  0  # atno 17371 bound_to 10713
  140.0731  134.9691  157.1500 LP  0  0  0  0  0  0  0  0  0  0  0  0  # atno 17394 bound_to 11000
  140.3683  134.2418  155.7180 LP  0  0  0  0  0  0  0  0  0  0  0  0  # atno 17395 bound_to 11000

$$$$
