AV-unprocessed.smi:1925|AV-procd|sdf|7793|dock9
  -GOLD-   22720 9533D 1   1.00000     0.00000
 Structure written by MMmdl.
 31 32  0  0  0  0  0  0  0  0  1 V2000
  144.7510  137.0240  152.3965 O   0  0  0  0  0  0  0  0  0  0  0  0
  145.9456  136.7515  152.2754 C   0  0  0  0  0  0  0  0  0  0  0  0
  146.9327  137.5917  152.6176 N   0  0  0  0  0  0  0  0  0  0  0  0
  146.7406  138.9350  153.1536 C   0  0  0  0  0  0  0  0  0  0  0  0
  148.0613  139.7262  153.2181 C   0  0  1  0  0  0  0  0  0  0  0  0
  147.9208  141.1189  153.8226 C   0  0  0  0  0  0  0  0  0  0  0  0
  149.1760  141.2899  154.6847 C   0  0  0  0  0  0  0  0  0  0  0  0
  150.0019  140.1773  154.3732 O   0  0  0  0  0  0  0  0  0  0  0  0
  149.1444  139.0870  154.0864 C   0  0  0  0  0  0  0  0  0  0  0  0
  146.4359  135.5991  151.7857 N   0  0  0  0  0  0  0  0  0  0  0  0
  145.7166  134.4691  151.3132 C   0  0  0  0  0  0  0  0  0  0  0  0
  146.5175  133.4001  150.8516 C   0  0  0  0  0  0  0  0  0  0  0  0
  145.9003  132.2329  150.3619 C   0  0  0  0  0  0  0  0  0  0  0  0
  144.4958  132.1640  150.3475 C   0  0  0  0  0  0  0  0  0  0  0  0
  143.7728  133.2720  150.8260 C   0  0  0  0  0  0  0  0  0  0  0  0
  144.3624  134.3917  151.2956 N   0  0  0  0  0  0  0  0  0  0  0  0
  147.8859  137.2861  152.4880 H   0  0  0  0  0  0  0  0  0  0  0  0
  146.0057  139.4742  152.5534 H   0  0  0  0  0  0  0  0  0  0  0  0
  146.3120  138.8400  154.1518 H   0  0  0  0  0  0  0  0  0  0  0  0
  148.4642  139.8405  152.2104 H   0  0  0  0  0  0  0  0  0  0  0  0
  147.8627  141.8769  153.0406 H   0  0  0  0  0  0  0  0  0  0  0  0
  147.0260  141.2101  154.4394 H   0  0  0  0  0  0  0  0  0  0  0  0
  149.6942  142.2288  154.4888 H   0  0  0  0  0  0  0  0  0  0  0  0
  148.9187  141.2584  155.7443 H   0  0  0  0  0  0  0  0  0  0  0  0
  148.7300  138.6921  155.0156 H   0  0  0  0  0  0  0  0  0  0  0  0
  149.6752  138.2837  153.5751 H   0  0  0  0  0  0  0  0  0  0  0  0
  147.4411  135.5241  151.7378 H   0  0  0  0  0  0  0  0  0  0  0  0
  147.5955  133.4698  150.8691 H   0  0  0  0  0  0  0  0  0  0  0  0
  146.4947  131.4057  150.0034 H   0  0  0  0  0  0  0  0  0  0  0  0
  143.9862  131.2857  149.9796 H   0  0  0  0  0  0  0  0  0  0  0  0
  142.6929  133.2595  150.8322 H   0  0  0  0  0  0  0  0  0  0  0  0
  1  2  2  0  0  0  0
  2  3  1  0  0  0  0
  2 10  1  0  0  0  0
  3  4  1  0  0  0  0
  3 17  1  0  0  0  0
  4  5  1  0  0  0  0
  4 18  1  0  0  0  0
  4 19  1  0  0  0  0
  5  9  1  0  0  0  0
  5  6  1  0  0  0  0
  5 20  1  0  0  0  0
  6  7  1  0  0  0  0
  6 21  1  0  0  0  0
  6 22  1  0  0  0  0
  7  8  1  0  0  0  0
  7 23  1  0  0  0  0
  7 24  1  0  0  0  0
  8  9  1  0  0  0  0
  9 25  1  0  0  0  0
  9 26  1  0  0  0  0
 10 11  1  0  0  0  0
 10 27  1  0  0  0  0
 11 16  1  0  0  0  0
 11 12  2  0  0  0  0
 12 13  1  0  0  0  0
 12 28  1  0  0  0  0
 13 14  2  0  0  0  0
 13 29  1  0  0  0  0
 14 15  1  0  0  0  0
 14 30  1  0  0  0  0
 15 16  2  0  0  0  0
 15 31  1  0  0  0  0
M  END
> <s_m_source_file>
AV-unprocessed.smi

> <i_m_source_file_index>
1925

> <i_lp_mmshare_version>
43012

> <i_f3d_flags>
0

> <s_epik_input>
bjFbY0hdW2NIXVtjSF1bY0hdYzFbTkhdQyg9TylbTkhdW0NIMl1bQ0BASF0yW0NIMl1bQ0gyXU9bQ0gyXTI=

> <s_epik_cmdline>
J2VwaWtfcHl0aG9uJywgJy1waCcsICc3LjAnLCAnLXRuJywgJzgnLCAnLW1hJywgJzIwMCcsICctbWV0YWxfYmluZGluZycsICctaW1hZScsICc8aW5maWxlLm1hZT4nLCAnLW9tYWUnLCAnPG91dGZpbGUubWFlPic=

> <r_lp_tautomer_probability>
1

> <r_epik_Ionization_Penalty>
4.81143e-05

> <r_epik_Ionization_Penalty_Charging>
0

> <r_epik_Ionization_Penalty_Neutral>
4.81143e-05

> <r_epik_State_Penalty>
-0

> <r_epik_Charging_Adjusted_Penalty>
0

> <i_epik_Tot_Q>
0

> <i_epik_Tot_abs_Q>
0

> <r_epik_Metal_State_Penalty>
-0

> <b_epik_Metal_Only>
0

> <s_lp_Force_Field>
OPLS_2005

> <r_lp_Energy>
20.4602

> <b_lp_Chiralities_Consistent>
1

> <s_lp_Variant>
AV-unprocessed.smi:1925-2

> <Gold.Version>
5.8.1

> <Gold.Id.Protein>
6NUR|6NUR_protein|mol2

> <Gold.PLP.Fitness>
40.7865

> <Gold.PLP.PLP>
-28.8995

> <Gold.PLP.part.hbond>
-3.0000

> <Gold.PLP.part.metal>
0.0000

> <Gold.PLP.part.buried>
-0.3202

> <Gold.PLP.part.nonpolar>
-26.5525

> <Gold.PLP.part.repulsive>
0.5835

> <Gold.PLP.ligand.clash>
0.0000

> <Gold.PLP.ligand.torsion>
0.0453

> <Gold.PLP.Chemscore.Hbond>
2.9920

> <Gold.PLP.Chemscore.CHOScore>
1.0000

> <Gold.PLP.Chemscore.Metal>
0.0000

> <Gold.Chemscore.Hbonds>
donor molecule, donor type, donor heavy atom, donor atom, acceptor molecule, acceptor atom, score
      L1  H     3    17       P1  7948  1.00
      L1  H    10    27       P1  7948  1.00
      P1  H  7989  7998       L1     8  0.98
      L1  C    15    31       P1 10186  1.00

> <Gold.PLP.Chemscore.Internal.Correction>
0.0017

> <Gold.Rescore>
     Score         DG    S(hbond)    S(metal)    S(lipo)     H(rot)  DE(clash)    DE(int)     intcor
     16.00     -19.16       2.64        0.00      69.39       1.27       1.82       1.34       ----

> <Gold.Chemscore.Fitness>
15.9979

> <Gold.Chemscore.DG>
-19.1636

> <Gold.Chemscore.ZeroCoef>
-5.4800

> <Gold.Chemscore.Hbond>
2.6377

> <Gold.Chemscore.Metal>
0.0000

> <Gold.Chemscore.Lipo>
69.3929

> <Gold.Chemscore.Internal_Hbond>
0.0000

> <Gold.Chemscore.DEClash>
1.8247

> <Gold.Chemscore.DEInternal>
1.3410

> <Gold.Chemscore.Rot>
1.2678

> <Gold.Chemscore.Internal.Correction>
   9.000000E+99

> <Gold.Chemscore.Hbonds>
donor molecule, donor type, donor heavy atom, donor atom, acceptor molecule, acceptor atom, score
      L1  H     3    17       P1  7948  0.94
      L1  H    10    27       P1  7948  0.94
      P1  H  7989  7998       L1     8  0.55

> <Gold.Chemscore.Hbond.Weighted>
-8.8101

> <Gold.Chemscore.Metal.Weighted>
-0.0000

> <Gold.Chemscore.Lipo.Weighted>
-8.1190

> <Gold.Chemscore.Internal_Hbond.Weighted>
0.0000

> <Gold.Chemscore.DEClash.Weighted>
1.8247

> <Gold.Chemscore.DEInternal.Weighted>
1.3410

> <Gold.Chemscore.Rot.Weighted>
3.2455

> <Gold.Chemscore.Internal.Correction.Weighted>
   9.000000E+99

> <Gold.Protein.RotatedTorsions>
[ 6907 6896 6895 6894 ] final -128.54 input  -60.11 | X-H torsion
[ 7974 7965 7964 7962 ] final  -71.17 input  175.53 | X-H torsion
[ 8008 7997 7996 7995 ] final   42.07 input   59.86 | X-H torsion
[ 10167 10162 10161 10158 ] final   35.43 input  -65.29 | X-H torsion
[ 10718 10713 10712 10709 ] final -133.85 input   66.30 | X-H torsion
[ 10763 10752 10751 10750 ] final  160.87 input  -60.55 | X-H torsion
[ 11005 11000 10999 10996 ] final  -96.64 input  -57.11 | X-H torsion

> <Gold.Protein.ActiveResidues>
 VAL166  LYS551  ARG553  GLY616  TRP617  ASP618  TYR619  PRO620  LYS621  CYS622 
 ASP623  PHE694  ASN695  SER759  ASP760  ASP761  ALA762  ILE779  LEU786  VAL792 
 PHE793  MET794  SER795  GLU796  ALA797  LYS798  CYS799  TRP800  GLU811  SER814 

> <Gold.Protein.RotatedAtoms>
  150.9190  133.6904  159.2836 H   0  0  0  0  0  0  0  0  0  0  0  0  # atno 6907 bound_to 6896
  151.4365  135.1014  159.9667 H   0  0  0  0  0  0  0  0  0  0  0  0  # atno 6908 bound_to 6896
  152.4969  133.8608  159.7304 H   0  0  0  0  0  0  0  0  0  0  0  0  # atno 6909 bound_to 6896
  145.6815  140.9186  143.0830 H   0  0  0  0  0  0  0  0  0  0  0  0  # atno 7974 bound_to 7965
  155.2801  140.3372  155.4259 H   0  0  0  0  0  0  0  0  0  0  0  0  # atno 8008 bound_to 7997
  156.2093  140.1763  156.7770 H   0  0  0  0  0  0  0  0  0  0  0  0  # atno 8009 bound_to 7997
  154.5664  140.0678  156.8883 H   0  0  0  0  0  0  0  0  0  0  0  0  # atno 8010 bound_to 7997
  140.4223  144.1443  150.6149 H   0  0  0  0  0  0  0  0  0  0  0  0  # atno 10167 bound_to 10162
  156.2492  130.7143  151.1035 H   0  0  0  0  0  0  0  0  0  0  0  0  # atno 10718 bound_to 10713
  154.2542  135.2770  155.2804 H   0  0  0  0  0  0  0  0  0  0  0  0  # atno 10763 bound_to 10752
  154.5439  135.5694  153.6867 H   0  0  0  0  0  0  0  0  0  0  0  0  # atno 10764 bound_to 10752
  152.9974  135.6258  154.2690 H   0  0  0  0  0  0  0  0  0  0  0  0  # atno 10765 bound_to 10752
  141.1405  133.8113  157.0599 H   0  0  0  0  0  0  0  0  0  0  0  0  # atno 11005 bound_to 11000
  144.7024  139.8703  143.7440 LP  0  0  0  0  0  0  0  0  0  0  0  0  # atno 17320 bound_to 7965
  146.0960  139.3952  143.0376 LP  0  0  0  0  0  0  0  0  0  0  0  0  # atno 17321 bound_to 7965
  140.4520  143.2483  151.9335 LP  0  0  0  0  0  0  0  0  0  0  0  0  # atno 17342 bound_to 10162
  139.4783  144.5552  151.8324 LP  0  0  0  0  0  0  0  0  0  0  0  0  # atno 17343 bound_to 10162
  157.7208  131.0683  150.6144 LP  0  0  0  0  0  0  0  0  0  0  0  0  # atno 17370 bound_to 10713
  156.6223  130.4409  149.5817 LP  0  0  0  0  0  0  0  0  0  0  0  0  # atno 17371 bound_to 10713
  140.0578  134.9771  157.1251 LP  0  0  0  0  0  0  0  0  0  0  0  0  # atno 17394 bound_to 11000
  140.3893  134.2201  155.7167 LP  0  0  0  0  0  0  0  0  0  0  0  0  # atno 17395 bound_to 11000

$$$$
