AV-unprocessed.smi:72|AV-procd|sdf|720|dock1
  -GOLD-   2262017 43D 1   1.00000     0.00000
 Structure written by MMmdl.
 28 29  0  0  0  0  0  0  0  0  2 V2000
  148.4702  136.6983  161.1652 N   0  0  0  0  0  0  0  0  0  0  0  0
  148.5147  136.7673  159.9074 C   0  0  0  0  0  0  0  0  0  0  0  0
  147.7581  137.7825  159.2088 N   0  0  0  0  0  0  0  0  0  0  0  0
  147.8630  137.8332  157.9165 C   0  0  0  0  0  0  0  0  0  0  0  0
  148.7292  136.9221  157.1754 N   0  0  0  0  0  0  0  0  0  0  0  0
  148.8564  136.9620  155.6588 C   0  0  1  0  0  0  0  0  0  0  0  0
  148.0188  137.9457  155.1246 O   0  0  0  0  0  0  0  0  0  0  0  0
  148.7724  139.1267  154.8944 C   0  0  2  0  0  0  0  0  0  0  0  0
  148.0244  140.0793  153.9448 C   0  0  0  0  0  0  0  0  0  0  0  0
  148.8952  140.9846  153.2981 O   0  0  0  0  0  0  0  0  0  0  0  0
  150.1433  138.6185  154.4423 C   0  0  1  0  0  0  0  0  0  0  0  0
  151.1502  139.5443  154.8002 O   0  0  0  0  0  0  0  0  0  0  0  0
  150.3014  137.3165  155.2278 C   0  0  2  0  0  0  0  0  0  0  0  0
  150.8557  136.3141  154.4005 O   0  0  0  0  0  0  0  0  0  0  0  0
  149.4159  135.9011  157.8875 C   0  0  0  0  0  0  0  0  0  0  0  0
  150.0924  135.0991  157.2428 O   0  0  0  0  0  0  0  0  0  0  0  0
  149.2970  135.8496  159.2434 N   0  5  0  0  0  0  0  0  0  0  0  0
  148.5146  135.9794  155.3284 H   0  0  0  0  0  0  0  0  0  0  0  0
  148.8801  139.6263  155.8586 H   0  0  0  0  0  0  0  0  0  0  0  0
  150.1647  138.4285  153.3687 H   0  0  0  0  0  0  0  0  0  0  0  0
  150.9310  137.4579  156.1082 H   0  0  0  0  0  0  0  0  0  0  0  0
  149.0390  135.9470  161.5281 H   0  0  0  0  0  0  0  0  0  0  0  0
  147.3087  138.5557  157.3182 H   0  0  0  0  0  0  0  0  0  0  0  0
  147.4664  139.5134  153.1985 H   0  0  0  0  0  0  0  0  0  0  0  0
  147.2983  140.6631  154.5106 H   0  0  0  0  0  0  0  0  0  0  0  0
  149.0711  140.6624  152.4274 H   0  0  0  0  0  0  0  0  0  0  0  0
  151.5948  139.2162  155.5669 H   0  0  0  0  0  0  0  0  0  0  0  0
  150.4226  136.3532  153.5608 H   0  0  0  0  0  0  0  0  0  0  0  0
  1  2  2  0  0  0  0
  1 22  1  0  0  0  0
  2 17  1  0  0  0  0
  2  3  1  0  0  0  0
  3  4  2  0  0  0  0
  4  5  1  0  0  0  0
  4 23  1  0  0  0  0
  5  6  1  0  0  0  0
  5 15  1  0  0  0  0
  6 18  1  0  0  0  0
  6 13  1  0  0  0  0
  6  7  1  0  0  0  0
  7  8  1  0  0  0  0
  8 19  1  0  0  0  0
  8  9  1  0  0  0  0
  8 11  1  0  0  0  0
  9 10  1  0  0  0  0
  9 24  1  0  0  0  0
  9 25  1  0  0  0  0
 10 26  1  0  0  0  0
 11 20  1  0  0  0  0
 11 12  1  0  0  0  0
 11 13  1  0  0  0  0
 12 27  1  0  0  0  0
 13 21  1  0  0  0  0
 13 14  1  0  0  0  0
 14 28  1  0  0  0  0
 15 16  2  0  0  0  0
 15 17  1  0  0  0  0
M  CHG  1  17  -1
M  END
> <s_m_source_file>
AV-unprocessed.smi

> <i_m_source_file_index>
72

> <i_lp_mmshare_version>
43012

> <i_f3d_flags>
0

> <s_epik_input>
W05IMl1jMW5bY0hdbihjKD1PKW4xKVtDQEBIXTJPW0NASF0oW0NIMl1bT0hdKVtDQEBIXShbT0hdKVtDQEhdMltPSF0=

> <s_epik_cmdline>
J2VwaWtfcHl0aG9uJywgJy1waCcsICc3LjAnLCAnLXRuJywgJzgnLCAnLW1hJywgJzIwMCcsICctbWV0YWxfYmluZGluZycsICctaW1hZScsICc8aW5maWxlLm1hZT4nLCAnLW9tYWUnLCAnPG91dGZpbGUubWFlPic=

> <r_lp_tautomer_probability>
7.17554e-07

> <r_epik_Ionization_Penalty>
12.8705

> <r_epik_Ionization_Penalty_Charging>
5.64144

> <r_epik_Ionization_Penalty_Neutral>
7.22905

> <r_epik_State_Penalty>
3.30104

> <r_epik_Charging_Adjusted_Penalty>
8.94249

> <i_epik_Tot_Q>
-1

> <i_epik_Tot_abs_Q>
1

> <r_epik_Metal_State_Penalty>
0.529074

> <b_epik_Metal_Only>
1

> <s_epik_Chemistry_Notes>
This compound contains an acetal/aminal-like group ( X-CH(R)-Y where X, Y are N, S, or O) that may be acid/base labile, releasing an aldehyde.

> <s_lp_Force_Field>
OPLS_2005

> <r_lp_Energy>
31.8888

> <b_lp_Chiralities_Consistent>
1

> <s_lp_Variant>
AV-unprocessed.smi:72-58

> <Gold.Version>
5.8.1

> <Gold.Id.Protein>
6NUR|6NUR_protein|mol2

> <Gold.PLP.Fitness>
43.0474

> <Gold.PLP.PLP>
-23.4599

> <Gold.PLP.part.hbond>
-8.9914

> <Gold.PLP.part.metal>
0.0000

> <Gold.PLP.part.buried>
-3.0871

> <Gold.PLP.part.nonpolar>
-11.3506

> <Gold.PLP.part.repulsive>
0.1007

> <Gold.PLP.ligand.clash>
0.0000

> <Gold.PLP.ligand.torsion>
0.2703

> <Gold.PLP.Chemscore.Hbond>
6.7028

> <Gold.PLP.Chemscore.CHOScore>
0.0000

> <Gold.PLP.Chemscore.Metal>
0.0000

> <Gold.Chemscore.Hbonds>
donor molecule, donor type, donor heavy atom, donor atom, acceptor molecule, acceptor atom, score
      L1  H    10    26       P1  7957  0.93
      L1  H    14    28       P1  7948  0.18
      P1  H  6896  6908       L1    17  1.70
      P1  H  6931  6943       L1     1  1.00
      P1  H  6934  6947       L1     3  0.32
      P1  H  7989  7998       L1    12  1.00
      P1  H 10752 10765       L1    14  0.63

> <Gold.PLP.Chemscore.Internal.Correction>
0.0198

> <Gold.Rescore>
     Score         DG    S(hbond)    S(metal)    S(lipo)     H(rot)  DE(clash)    DE(int)     intcor
     10.87     -12.44       4.32        0.00      24.54       4.04       0.26       1.31       ----

> <Gold.Chemscore.Fitness>
10.8693

> <Gold.Chemscore.DG>
-12.4383

> <Gold.Chemscore.ZeroCoef>
-5.4800

> <Gold.Chemscore.Hbond>
4.3204

> <Gold.Chemscore.Metal>
0.0000

> <Gold.Chemscore.Lipo>
24.5402

> <Gold.Chemscore.Internal_Hbond>
0.0000

> <Gold.Chemscore.DEClash>
0.2563

> <Gold.Chemscore.DEInternal>
1.3127

> <Gold.Chemscore.Rot>
4.0403

> <Gold.Chemscore.Internal.Correction>
   9.000000E+99

> <Gold.Chemscore.Hbonds>
donor molecule, donor type, donor heavy atom, donor atom, acceptor molecule, acceptor atom, score
      L1  H    10    26       P1  7957  0.89
      P1  H  6896  6908       L1    17  0.15
      P1  H  6931  6943       L1     1  0.48
      P1  H  6934  6947       L1     3  0.08
      P1  H  7989  7998       L1    12  0.94
      P1  H 10752 10765       L1    14  0.55

> <Gold.Chemscore.Hbond.Weighted>
-14.4302

> <Gold.Chemscore.Metal.Weighted>
-0.0000

> <Gold.Chemscore.Lipo.Weighted>
-2.8712

> <Gold.Chemscore.Internal_Hbond.Weighted>
0.0000

> <Gold.Chemscore.DEClash.Weighted>
0.2563

> <Gold.Chemscore.DEInternal.Weighted>
1.3127

> <Gold.Chemscore.Rot.Weighted>
10.3431

> <Gold.Chemscore.Internal.Correction.Weighted>
   9.000000E+99

> <Gold.Protein.RotatedTorsions>
[ 6907 6896 6895 6894 ] final  168.66 input  -60.11 | X-H torsion
[ 7974 7965 7964 7962 ] final  130.71 input  175.53 | X-H torsion
[ 8008 7997 7996 7995 ] final  -73.53 input   59.86 | X-H torsion
[ 10167 10162 10161 10158 ] final  147.59 input  -65.29 | X-H torsion
[ 10718 10713 10712 10709 ] final   74.22 input   66.30 | X-H torsion
[ 10763 10752 10751 10750 ] final  163.58 input  -60.55 | X-H torsion
[ 11005 11000 10999 10996 ] final  -54.18 input  -57.11 | X-H torsion

> <Gold.Protein.ActiveResidues>
 VAL166  LYS551  ARG553  GLY616  TRP617  ASP618  TYR619  PRO620  LYS621  CYS622 
 ASP623  PHE694  ASN695  SER759  ASP760  ASP761  ALA762  ILE779  LEU786  VAL792 
 PHE793  MET794  SER795  GLU796  ALA797  LYS798  CYS799  TRP800  GLU811  SER814 

> <Gold.Protein.RotatedAtoms>
  151.8441  133.3428  159.3652 H   0  0  0  0  0  0  0  0  0  0  0  0  # atno 6907 bound_to 6896
  150.7226  134.5363  159.5734 H   0  0  0  0  0  0  0  0  0  0  0  0  # atno 6908 bound_to 6896
  152.2842  134.7795  160.0441 H   0  0  0  0  0  0  0  0  0  0  0  0  # atno 6909 bound_to 6896
  145.0150  139.4184  143.5226 H   0  0  0  0  0  0  0  0  0  0  0  0  # atno 7974 bound_to 7965
  154.5255  140.0777  156.8250 H   0  0  0  0  0  0  0  0  0  0  0  0  # atno 8008 bound_to 7997
  155.3485  140.3411  155.4221 H   0  0  0  0  0  0  0  0  0  0  0  0  # atno 8009 bound_to 7997
  156.1727  140.1625  156.8406 H   0  0  0  0  0  0  0  0  0  0  0  0  # atno 8010 bound_to 7997
  139.4887  144.5743  151.6994 H   0  0  0  0  0  0  0  0  0  0  0  0  # atno 10167 bound_to 10162
  157.6583  130.9667  150.1180 H   0  0  0  0  0  0  0  0  0  0  0  0  # atno 10718 bound_to 10713
  154.2959  135.2760  155.2633 H   0  0  0  0  0  0  0  0  0  0  0  0  # atno 10763 bound_to 10752
  154.5092  135.5787  153.6595 H   0  0  0  0  0  0  0  0  0  0  0  0  # atno 10764 bound_to 10752
  152.9907  135.6177  154.3126 H   0  0  0  0  0  0  0  0  0  0  0  0  # atno 10765 bound_to 10752
  141.1013  133.6618  156.4282 H   0  0  0  0  0  0  0  0  0  0  0  0  # atno 11005 bound_to 11000
  146.3476  139.9616  142.8716 LP  0  0  0  0  0  0  0  0  0  0  0  0  # atno 17320 bound_to 7965
  145.1972  140.9838  143.4177 LP  0  0  0  0  0  0  0  0  0  0  0  0  # atno 17321 bound_to 7965
  140.5337  144.0690  150.6062 LP  0  0  0  0  0  0  0  0  0  0  0  0  # atno 17342 bound_to 10162
  140.3689  143.2866  152.0301 LP  0  0  0  0  0  0  0  0  0  0  0  0  # atno 17343 bound_to 10162
  156.2059  130.3663  149.8730 LP  0  0  0  0  0  0  0  0  0  0  0  0  # atno 17370 bound_to 10713
  156.6621  130.8786  151.3549 LP  0  0  0  0  0  0  0  0  0  0  0  0  # atno 17371 bound_to 10713
  140.5015  134.6481  157.5250 LP  0  0  0  0  0  0  0  0  0  0  0  0  # atno 17394 bound_to 11000
  139.9866  134.7052  155.9764 LP  0  0  0  0  0  0  0  0  0  0  0  0  # atno 17395 bound_to 11000

$$$$
