AV-unprocessed.smi:290|AV-procd|sdf|2238|dock7
  -GOLD-   2262022113D 1   1.00000     0.00000
 Structure written by MMmdl.
 59 62  0  0  0  0  0  0  0  0  2 V2000
  152.7810  141.7890  159.3708 C   0  0  0  0  0  0  0  0  0  0  0  0
  151.8604  143.0119  159.5045 C   0  0  1  0  0  0  0  0  0  0  0  0
  152.6138  144.0635  160.1016 O   0  0  0  0  0  0  0  0  0  0  0  0
  152.0857  145.3023  159.6637 C   0  0  0  0  0  0  0  0  0  0  0  0
  151.8175  145.0360  158.1902 C   0  0  0  0  0  0  0  0  0  0  0  0
  151.2816  143.6056  158.1883 C   0  0  2  0  0  0  0  0  0  0  0  0
  149.8731  143.6710  158.3329 O   0  0  0  0  0  0  0  0  0  0  0  0
  151.5951  142.8278  156.8824 C   0  0  0  0  0  0  0  0  0  0  0  0
  150.8665  141.5732  156.7656 N   0  0  0  0  0  0  0  0  0  0  0  0
  149.5524  141.4181  156.3851 C   0  0  0  0  0  0  0  0  0  0  0  0
  149.1215  140.1866  156.3584 N   0  0  0  0  0  0  0  0  0  0  0  0
  150.2242  139.4341  156.7433 C   0  0  0  0  0  0  0  0  0  0  0  0
  150.4650  138.0436  156.9307 C   0  0  0  0  0  0  0  0  0  0  0  0
  149.5512  137.0672  156.7437 N   0  0  0  0  0  0  0  0  0  0  0  0
  148.2661  137.2502  157.4117 C   0  0  0  0  0  0  0  0  0  0  0  0
  147.1986  136.7769  156.4232 C   0  0  0  0  0  0  0  0  0  0  0  0
  147.8605  137.0278  155.0641 C   0  0  2  0  0  0  0  0  0  0  0  0
  147.2457  136.3204  153.9017 N   0  3  1  0  0  0  0  0  0  0  0  0
  146.7835  134.9510  154.2451 C   0  0  0  0  0  0  0  0  0  0  0  0
  146.1721  137.1244  153.2531 C   0  0  0  0  0  0  0  0  0  0  0  0
  145.8394  136.6559  151.8241 C   0  0  0  0  0  0  0  0  0  0  0  0
  146.4251  137.5192  150.8735 O   0  0  0  0  0  0  0  0  0  0  0  0
  149.3328  136.6587  155.3588 C   0  0  2  0  0  0  0  0  0  0  0  0
  149.6580  135.1601  155.2138 C   0  0  0  0  0  0  0  0  0  0  0  0
  151.7061  137.6576  157.3127 N   0  0  0  0  0  0  0  0  0  0  0  0
  152.6592  138.5738  157.5095 C   0  0  0  0  0  0  0  0  0  0  0  0
  152.5815  139.9004  157.3808 N   0  0  0  0  0  0  0  0  0  0  0  0
  151.3331  140.2902  156.9934 C   0  0  0  0  0  0  0  0  0  0  0  0
  147.7998  138.0986  154.8643 H   0  0  0  0  0  0  0  0  0  0  0  0
  149.9918  137.2170  154.6914 H   0  0  0  0  0  0  0  0  0  0  0  0
  152.2589  140.9445  158.9207 H   0  0  0  0  0  0  0  0  0  0  0  0
  153.1358  141.4682  160.3505 H   0  0  0  0  0  0  0  0  0  0  0  0
  153.6592  142.0120  158.7647 H   0  0  0  0  0  0  0  0  0  0  0  0
  151.0525  142.7590  160.1940 H   0  0  0  0  0  0  0  0  0  0  0  0
  151.1620  145.5239  160.2010 H   0  0  0  0  0  0  0  0  0  0  0  0
  152.7877  146.1202  159.8251 H   0  0  0  0  0  0  0  0  0  0  0  0
  151.1417  145.7634  157.7382 H   0  0  0  0  0  0  0  0  0  0  0  0
  152.7647  145.0824  157.6512 H   0  0  0  0  0  0  0  0  0  0  0  0
  149.5071  144.0494  157.5480 H   0  0  0  0  0  0  0  0  0  0  0  0
  151.3410  143.4311  156.0107 H   0  0  0  0  0  0  0  0  0  0  0  0
  152.6622  142.6134  156.8095 H   0  0  0  0  0  0  0  0  0  0  0  0
  148.9172  142.2541  156.1307 H   0  0  0  0  0  0  0  0  0  0  0  0
  148.2294  136.6752  158.3373 H   0  0  0  0  0  0  0  0  0  0  0  0
  148.1025  138.2973  157.6698 H   0  0  0  0  0  0  0  0  0  0  0  0
  147.0065  135.7126  156.5662 H   0  0  0  0  0  0  0  0  0  0  0  0
  146.2581  137.3135  156.5521 H   0  0  0  0  0  0  0  0  0  0  0  0
  146.0363  134.9808  155.0393 H   0  0  0  0  0  0  0  0  0  0  0  0
  147.6095  134.3227  154.5770 H   0  0  0  0  0  0  0  0  0  0  0  0
  146.3442  134.4424  153.3889 H   0  0  0  0  0  0  0  0  0  0  0  0
  145.2757  137.0925  153.8744 H   0  0  0  0  0  0  0  0  0  0  0  0
  146.4593  138.1743  153.1999 H   0  0  0  0  0  0  0  0  0  0  0  0
  146.1565  135.6317  151.6341 H   0  0  0  0  0  0  0  0  0  0  0  0
  144.7592  136.6770  151.6774 H   0  0  0  0  0  0  0  0  0  0  0  0
  145.7395  137.8844  150.3343 H   0  0  0  0  0  0  0  0  0  0  0  0
  149.5616  134.8249  154.1826 H   0  0  0  0  0  0  0  0  0  0  0  0
  149.0059  134.5405  155.8299 H   0  0  0  0  0  0  0  0  0  0  0  0
  150.6854  134.9585  155.5186 H   0  0  0  0  0  0  0  0  0  0  0  0
  153.6214  138.1898  157.8154 H   0  0  0  0  0  0  0  0  0  0  0  0
  147.9797  136.2169  153.2149 H   0  0  0  0  0  0  0  0  0  0  0  0
  1  2  1  0  0  0  0
  1 31  1  0  0  0  0
  1 32  1  0  0  0  0
  1 33  1  0  0  0  0
  2  6  1  0  0  0  0
  2  3  1  0  0  0  0
  2 34  1  0  0  0  0
  3  4  1  0  0  0  0
  4  5  1  0  0  0  0
  4 35  1  0  0  0  0
  4 36  1  0  0  0  0
  5  6  1  0  0  0  0
  5 37  1  0  0  0  0
  5 38  1  0  0  0  0
  6  7  1  0  0  0  0
  6  8  1  0  0  0  0
  7 39  1  0  0  0  0
  8  9  1  0  0  0  0
  8 40  1  0  0  0  0
  8 41  1  0  0  0  0
  9 28  1  0  0  0  0
  9 10  1  0  0  0  0
 10 11  2  0  0  0  0
 10 42  1  0  0  0  0
 11 12  1  0  0  0  0
 12 28  2  0  0  0  0
 12 13  1  0  0  0  0
 13 14  1  0  0  0  0
 13 25  2  0  0  0  0
 14 23  1  0  0  0  0
 14 15  1  0  0  0  0
 15 16  1  0  0  0  0
 15 43  1  0  0  0  0
 15 44  1  0  0  0  0
 16 17  1  0  0  0  0
 16 45  1  0  0  0  0
 16 46  1  0  0  0  0
 17 29  1  0  0  0  0
 17 18  1  0  0  0  0
 17 23  1  0  0  0  0
 18 19  1  0  0  0  0
 18 20  1  0  0  0  0
 18 59  1  0  0  0  0
 19 47  1  0  0  0  0
 19 48  1  0  0  0  0
 19 49  1  0  0  0  0
 20 21  1  0  0  0  0
 20 50  1  0  0  0  0
 20 51  1  0  0  0  0
 21 22  1  0  0  0  0
 21 52  1  0  0  0  0
 21 53  1  0  0  0  0
 22 54  1  0  0  0  0
 23 30  1  0  0  0  0
 23 24  1  0  0  0  0
 24 55  1  0  0  0  0
 24 56  1  0  0  0  0
 24 57  1  0  0  0  0
 25 26  1  0  0  0  0
 26 27  2  0  0  0  0
 26 58  1  0  0  0  0
 27 28  1  0  0  0  0
M  CHG  1  18   1
M  END
> <s_m_source_file>
AV-unprocessed.smi

> <i_m_source_file_index>
290

> <i_lp_mmshare_version>
43012

> <i_f3d_flags>
0

> <s_epik_input>
W0NIMl0xW0NIMl1PW0NAQEhdKFtDSDNdKVtDQEBdMShbT0hdKVtDSDJdbihbY0hdbjIpYyhjMjMpbltjSF1uYzNONFtDSDJdW0NIMl1bQ0BIXShbQ0BIXTRbQ0gzXSlOKFtDSDNdKVtDSDJdW0NIMl1bT0hd

> <s_epik_cmdline>
J2VwaWtfcHl0aG9uJywgJy1waCcsICc3LjAnLCAnLXRuJywgJzgnLCAnLW1hJywgJzIwMCcsICctbWV0YWxfYmluZGluZycsICctaW1hZScsICc8aW5maWxlLm1hZT4nLCAnLW9tYWUnLCAnPG91dGZpbGUubWFlPic=

> <r_lp_tautomer_probability>
1

> <r_epik_Ionization_Penalty>
0.0036983

> <r_epik_Ionization_Penalty_Charging>
0.0032725

> <r_epik_Ionization_Penalty_Neutral>
0.000425798

> <r_epik_State_Penalty>
-0

> <r_epik_Charging_Adjusted_Penalty>
0.0032725

> <i_epik_Tot_Q>
1

> <i_epik_Tot_abs_Q>
1

> <r_epik_Metal_State_Penalty>
-0

> <b_epik_Metal_Only>
0

> <s_lp_Force_Field>
OPLS_2005

> <r_lp_Energy>
65.2736

> <b_lp_Chiralities_Consistent>
1

> <s_lp_Variant>
AV-unprocessed.smi:290-24

> <Gold.Version>
5.8.1

> <Gold.Id.Protein>
6NUR|6NUR_protein|mol2

> <Gold.PLP.Fitness>
54.9516

> <Gold.PLP.PLP>
-37.6362

> <Gold.PLP.part.hbond>
-6.5906

> <Gold.PLP.part.metal>
0.0000

> <Gold.PLP.part.buried>
-5.8381

> <Gold.PLP.part.nonpolar>
-25.9325

> <Gold.PLP.part.repulsive>
0.0465

> <Gold.PLP.ligand.clash>
0.1535

> <Gold.PLP.ligand.torsion>
1.7163

> <Gold.PLP.Chemscore.Hbond>
5.8250

> <Gold.PLP.Chemscore.CHOScore>
1.0000

> <Gold.PLP.Chemscore.Metal>
0.0000

> <Gold.Chemscore.Hbonds>
donor molecule, donor type, donor heavy atom, donor atom, acceptor molecule, acceptor atom, score
      L1  H     7    39       P1  8028  0.85
      L1  H    18    59       P1  7948  2.00
      L1  H    22    54       P1 10171  0.96
      P1  H  7954  7966       L1    22  1.00
      P1  H  7997  8010       L1    27  0.70
      L1  C    10    42       P1  8028  1.00

> <Gold.PLP.Chemscore.Internal.Correction>
0.4266

> <Gold.Rescore>
     Score         DG    S(hbond)    S(metal)    S(lipo)     H(rot)  DE(clash)    DE(int)     intcor
     15.27     -21.92       4.38        0.00      95.54       3.67       1.80       4.84       ----

> <Gold.Chemscore.Fitness>
15.2690

> <Gold.Chemscore.DG>
-21.9151

> <Gold.Chemscore.ZeroCoef>
-5.4800

> <Gold.Chemscore.Hbond>
4.3836

> <Gold.Chemscore.Metal>
0.0000

> <Gold.Chemscore.Lipo>
95.5404

> <Gold.Chemscore.Internal_Hbond>
0.0000

> <Gold.Chemscore.DEClash>
1.8014

> <Gold.Chemscore.DEInternal>
4.8447

> <Gold.Chemscore.Rot>
3.6658

> <Gold.Chemscore.Internal.Correction>
   9.000000E+99

> <Gold.Chemscore.Hbonds>
donor molecule, donor type, donor heavy atom, donor atom, acceptor molecule, acceptor atom, score
      L1  H     7    39       P1  8028  0.19
      L1  H    18    59       P1  7948  1.00
      L1  H    22    54       P1 10171  0.90
      P1  H  7954  7966       L1    22  0.51
      P1  H  7997  8010       L1    27  0.07

> <Gold.Chemscore.Hbond.Weighted>
-14.6413

> <Gold.Chemscore.Metal.Weighted>
-0.0000

> <Gold.Chemscore.Lipo.Weighted>
-11.1782

> <Gold.Chemscore.Internal_Hbond.Weighted>
0.0000

> <Gold.Chemscore.DEClash.Weighted>
1.8014

> <Gold.Chemscore.DEInternal.Weighted>
4.8447

> <Gold.Chemscore.Rot.Weighted>
9.3844

> <Gold.Chemscore.Internal.Correction.Weighted>
   9.000000E+99

> <Gold.Protein.RotatedTorsions>
[ 6907 6896 6895 6894 ] final -138.30 input  -60.11 | X-H torsion
[ 7974 7965 7964 7962 ] final  148.35 input  175.53 | X-H torsion
[ 8008 7997 7996 7995 ] final   57.52 input   59.86 | X-H torsion
[ 10167 10162 10161 10158 ] final   23.42 input  -65.29 | X-H torsion
[ 10718 10713 10712 10709 ] final -118.29 input   66.30 | X-H torsion
[ 10763 10752 10751 10750 ] final  -32.96 input  -60.55 | X-H torsion
[ 11005 11000 10999 10996 ] final   20.22 input  -57.11 | X-H torsion

> <Gold.Protein.ActiveResidues>
 VAL166  LYS551  ARG553  GLY616  TRP617  ASP618  TYR619  PRO620  LYS621  CYS622 
 ASP623  PHE694  ASN695  SER759  ASP760  ASP761  ALA762  ILE779  LEU786  VAL792 
 PHE793  MET794  SER795  GLU796  ALA797  LYS798  CYS799  TRP800  GLU811  SER814 

> <Gold.Protein.RotatedAtoms>
  151.0332  133.5771  159.2658 H   0  0  0  0  0  0  0  0  0  0  0  0  # atno 6907 bound_to 6896
  151.2845  135.0723  159.9191 H   0  0  0  0  0  0  0  0  0  0  0  0  # atno 6908 bound_to 6896
  152.5349  134.0041  159.7962 H   0  0  0  0  0  0  0  0  0  0  0  0  # atno 6909 bound_to 6896
  144.8520  139.6143  143.5969 H   0  0  0  0  0  0  0  0  0  0  0  0  # atno 7974 bound_to 7965
  155.5351  140.3483  155.4434 H   0  0  0  0  0  0  0  0  0  0  0  0  # atno 8008 bound_to 7997
  156.0691  140.1358  156.9877 H   0  0  0  0  0  0  0  0  0  0  0  0  # atno 8009 bound_to 7997
  154.4518  140.0969  156.6616 H   0  0  0  0  0  0  0  0  0  0  0  0  # atno 8010 bound_to 7997
  140.5271  143.9905  150.6446 H   0  0  0  0  0  0  0  0  0  0  0  0  # atno 10167 bound_to 10162
  156.1095  130.6237  150.9272 H   0  0  0  0  0  0  0  0  0  0  0  0  # atno 10718 bound_to 10713
  153.8223  135.6873  153.4825 H   0  0  0  0  0  0  0  0  0  0  0  0  # atno 10763 bound_to 10752
  153.1562  135.4598  154.9705 H   0  0  0  0  0  0  0  0  0  0  0  0  # atno 10764 bound_to 10752
  154.7922  135.3306  154.7694 H   0  0  0  0  0  0  0  0  0  0  0  0  # atno 10765 bound_to 10752
  140.4050  134.1678  155.7665 H   0  0  0  0  0  0  0  0  0  0  0  0  # atno 11005 bound_to 11000
  146.2793  139.6834  142.9241 LP  0  0  0  0  0  0  0  0  0  0  0  0  # atno 17320 bound_to 7965
  145.4480  141.0426  143.2820 LP  0  0  0  0  0  0  0  0  0  0  0  0  # atno 17321 bound_to 7965
  140.3270  143.3101  152.0726 LP  0  0  0  0  0  0  0  0  0  0  0  0  # atno 17342 bound_to 10162
  139.4942  144.6535  151.6623 LP  0  0  0  0  0  0  0  0  0  0  0  0  # atno 17343 bound_to 10162
  157.6275  131.0924  150.8505 LP  0  0  0  0  0  0  0  0  0  0  0  0  # atno 17370 bound_to 10713
  156.8618  130.5116  149.5303 LP  0  0  0  0  0  0  0  0  0  0  0  0  # atno 17371 bound_to 10713
  141.1842  133.8348  157.1147 LP  0  0  0  0  0  0  0  0  0  0  0  0  # atno 17394 bound_to 11000
  140.0308  134.9902  157.0777 LP  0  0  0  0  0  0  0  0  0  0  0  0  # atno 17395 bound_to 11000

$$$$
