AV-unprocessed.smi:1154|AV-procd|sdf|4901|dock6
  -GOLD-   22720 3473D 1   1.00000     0.00000
 Structure written by MMmdl.
 42 43  0  0  0  0  0  0  0  0  2 V2000
  151.9713  145.1614  158.9820 C   0  0  0  0  0  0  0  0  0  0  0  0
  152.5617  143.7478  158.8771 C   0  0  1  0  0  0  0  0  0  0  0  0
  153.0239  143.2286  160.2487 C   0  0  0  0  0  0  0  0  0  0  0  0
  153.5950  141.8063  160.1252 C   0  0  1  0  0  0  0  0  0  0  0  0
  154.0420  141.2615  161.4892 C   0  0  0  0  0  0  0  0  0  0  0  0
  152.5658  140.8752  159.4556 C   0  0  0  0  0  0  0  0  0  0  0  0
  152.1406  141.3983  158.1313 N   0  3  1  0  0  0  0  0  0  0  0  0
  151.2601  140.4448  157.4091 C   0  0  0  0  0  0  0  0  0  0  0  0
  150.8170  140.9790  156.0372 C   0  0  0  0  0  0  0  0  0  0  0  0
  149.7303  140.1709  155.5019 N   0  0  0  0  0  0  0  0  0  0  0  0
  148.9476  140.5397  154.4761 C   0  0  0  0  0  0  0  0  0  0  0  0
  149.0586  141.6218  153.9012 O   0  0  0  0  0  0  0  0  0  0  0  0
  147.8696  139.5466  154.0334 C   0  0  0  0  0  0  0  0  0  0  0  0
  146.9354  139.2517  155.1051 N   0  0  0  0  0  0  0  0  0  0  0  0
  145.6132  139.4147  155.1844 C   0  0  0  0  0  0  0  0  0  0  0  0
  145.1420  139.0264  156.3592 N   0  0  0  0  0  0  0  0  0  0  0  0
  146.2761  138.5930  157.0254 N   0  0  0  0  0  0  0  0  0  0  0  0
  147.3430  138.7224  156.2856 N   0  0  0  0  0  0  0  0  0  0  0  0
  151.5597  142.7628  158.2448 C   0  0  0  0  0  0  0  0  0  0  0  0
  151.0908  145.1782  159.6251 H   0  0  0  0  0  0  0  0  0  0  0  0
  151.6748  145.5373  158.0023 H   0  0  0  0  0  0  0  0  0  0  0  0
  152.6987  145.8607  159.3955 H   0  0  0  0  0  0  0  0  0  0  0  0
  153.4348  143.8058  158.2252 H   0  0  0  0  0  0  0  0  0  0  0  0
  153.7786  143.8977  160.6646 H   0  0  0  0  0  0  0  0  0  0  0  0
  152.1862  143.2317  160.9481 H   0  0  0  0  0  0  0  0  0  0  0  0
  154.4773  141.8508  159.4848 H   0  0  0  0  0  0  0  0  0  0  0  0
  153.2026  141.1865  162.1810 H   0  0  0  0  0  0  0  0  0  0  0  0
  154.7911  141.9100  161.9446 H   0  0  0  0  0  0  0  0  0  0  0  0
  154.4827  140.2689  161.3914 H   0  0  0  0  0  0  0  0  0  0  0  0
  153.0085  139.8862  159.3301 H   0  0  0  0  0  0  0  0  0  0  0  0
  151.6902  140.7517  160.0955 H   0  0  0  0  0  0  0  0  0  0  0  0
  151.8006  139.5111  157.2454 H   0  0  0  0  0  0  0  0  0  0  0  0
  150.3968  140.1964  158.0283 H   0  0  0  0  0  0  0  0  0  0  0  0
  150.4731  142.0111  156.1060 H   0  0  0  0  0  0  0  0  0  0  0  0
  151.6605  140.9640  155.3446 H   0  0  0  0  0  0  0  0  0  0  0  0
  149.5709  139.2685  155.9262 H   0  0  0  0  0  0  0  0  0  0  0  0
  147.3197  139.9581  153.1860 H   0  0  0  0  0  0  0  0  0  0  0  0
  148.3285  138.6149  153.6991 H   0  0  0  0  0  0  0  0  0  0  0  0
  145.0026  139.8203  154.3915 H   0  0  0  0  0  0  0  0  0  0  0  0
  150.6454  142.7198  158.8392 H   0  0  0  0  0  0  0  0  0  0  0  0
  151.2765  143.1331  157.2602 H   0  0  0  0  0  0  0  0  0  0  0  0
  152.9830  141.4815  157.5802 H   0  0  0  0  0  0  0  0  0  0  0  0
  1  2  1  0  0  0  0
  1 20  1  0  0  0  0
  1 21  1  0  0  0  0
  1 22  1  0  0  0  0
  2 19  1  0  0  0  0
  2  3  1  0  0  0  0
  2 23  1  0  0  0  0
  3  4  1  0  0  0  0
  3 24  1  0  0  0  0
  3 25  1  0  0  0  0
  4  5  1  0  0  0  0
  4  6  1  0  0  0  0
  4 26  1  0  0  0  0
  5 27  1  0  0  0  0
  5 28  1  0  0  0  0
  5 29  1  0  0  0  0
  6  7  1  0  0  0  0
  6 30  1  0  0  0  0
  6 31  1  0  0  0  0
  7  8  1  0  0  0  0
  7 19  1  0  0  0  0
  7 42  1  0  0  0  0
  8  9  1  0  0  0  0
  8 32  1  0  0  0  0
  8 33  1  0  0  0  0
  9 10  1  0  0  0  0
  9 34  1  0  0  0  0
  9 35  1  0  0  0  0
 10 11  1  0  0  0  0
 10 36  1  0  0  0  0
 11 12  2  0  0  0  0
 11 13  1  0  0  0  0
 13 14  1  0  0  0  0
 13 37  1  0  0  0  0
 13 38  1  0  0  0  0
 14 18  1  0  0  0  0
 14 15  1  0  0  0  0
 15 16  2  0  0  0  0
 15 39  1  0  0  0  0
 16 17  1  0  0  0  0
 17 18  2  0  0  0  0
 19 40  1  0  0  0  0
 19 41  1  0  0  0  0
M  CHG  1   7   1
M  END
> <s_m_source_file>
AV-unprocessed.smi

> <i_m_source_file_index>
1154

> <i_lp_mmshare_version>
43012

> <i_f3d_flags>
0

> <s_epik_input>
W0NIM11bQ0BASF0xW0NIMl1bQ0BASF0oW0NIM10pW0NIMl1OKFtDSDJdMSlbQ0gyXVtDSDJdW05IXUMoPU8pW0NIMl1uMltjSF1ubm4y

> <s_epik_cmdline>
J2VwaWtfcHl0aG9uJywgJy1waCcsICc3LjAnLCAnLXRuJywgJzgnLCAnLW1hJywgJzIwMCcsICctbWV0YWxfYmluZGluZycsICctaW1hZScsICc8aW5maWxlLm1hZT4nLCAnLW9tYWUnLCAnPG91dGZpbGUubWFlPic=

> <r_lp_tautomer_probability>
1

> <r_epik_Ionization_Penalty>
0.00217773

> <r_epik_Ionization_Penalty_Charging>
0.00217329

> <r_epik_Ionization_Penalty_Neutral>
4.43997e-06

> <r_epik_State_Penalty>
0.00149294

> <r_epik_Charging_Adjusted_Penalty>
0.00366623

> <i_epik_Tot_Q>
1

> <i_epik_Tot_abs_Q>
1

> <r_epik_Metal_State_Penalty>
-0

> <b_epik_Metal_Only>
0

> <s_lp_Force_Field>
OPLS_2005

> <r_lp_Energy>
19.913

> <b_lp_Chiralities_Consistent>
1

> <s_lp_Variant>
AV-unprocessed.smi:1154-2

> <Gold.Version>
5.8.1

> <Gold.Id.Protein>
6NUR|6NUR_protein|mol2

> <Gold.PLP.Fitness>
41.3032

> <Gold.PLP.PLP>
-36.1794

> <Gold.PLP.part.hbond>
-2.0000

> <Gold.PLP.part.metal>
0.0000

> <Gold.PLP.part.buried>
-4.3956

> <Gold.PLP.part.nonpolar>
-31.3900

> <Gold.PLP.part.repulsive>
1.1453

> <Gold.PLP.ligand.clash>
0.0000

> <Gold.PLP.ligand.torsion>
0.1462

> <Gold.PLP.Chemscore.Hbond>
0.7840

> <Gold.PLP.Chemscore.CHOScore>
1.0000

> <Gold.PLP.Chemscore.Metal>
0.0000

> <Gold.Chemscore.Hbonds>
donor molecule, donor type, donor heavy atom, donor atom, acceptor molecule, acceptor atom, score
      P1  H  8011  8017       L1    12  0.66
      L1  C    15    39       P1 10175  1.00

> <Gold.PLP.Chemscore.Internal.Correction>
0.0643

> <Gold.Rescore>
     Score         DG    S(hbond)    S(metal)    S(lipo)     H(rot)  DE(clash)    DE(int)     intcor
     11.35     -12.70       0.95        0.00      93.08       2.67       0.29       1.06       ----

> <Gold.Chemscore.Fitness>
11.3456

> <Gold.Chemscore.DG>
-12.7008

> <Gold.Chemscore.ZeroCoef>
-5.4800

> <Gold.Chemscore.Hbond>
0.9459

> <Gold.Chemscore.Metal>
0.0000

> <Gold.Chemscore.Lipo>
93.0781

> <Gold.Chemscore.Internal_Hbond>
0.0000

> <Gold.Chemscore.DEClash>
0.2927

> <Gold.Chemscore.DEInternal>
1.0626

> <Gold.Chemscore.Rot>
2.6674

> <Gold.Chemscore.Internal.Correction>
   9.000000E+99

> <Gold.Chemscore.Hbonds>
donor molecule, donor type, donor heavy atom, donor atom, acceptor molecule, acceptor atom, score
      P1  H  8011  8017       L1    12  0.66

> <Gold.Chemscore.Hbond.Weighted>
-3.1593

> <Gold.Chemscore.Metal.Weighted>
-0.0000

> <Gold.Chemscore.Lipo.Weighted>
-10.8901

> <Gold.Chemscore.Internal_Hbond.Weighted>
0.0000

> <Gold.Chemscore.DEClash.Weighted>
0.2927

> <Gold.Chemscore.DEInternal.Weighted>
1.0626

> <Gold.Chemscore.Rot.Weighted>
6.8286

> <Gold.Chemscore.Internal.Correction.Weighted>
   9.000000E+99

> <Gold.Protein.RotatedTorsions>
[ 6907 6896 6895 6894 ] final  -68.73 input  -60.11 | X-H torsion
[ 7974 7965 7964 7962 ] final  -10.68 input  175.53 | X-H torsion
[ 8008 7997 7996 7995 ] final   28.11 input   59.86 | X-H torsion
[ 10167 10162 10161 10158 ] final  132.81 input  -65.29 | X-H torsion
[ 10718 10713 10712 10709 ] final    8.61 input   66.30 | X-H torsion
[ 10763 10752 10751 10750 ] final  -40.84 input  -60.55 | X-H torsion
[ 11005 11000 10999 10996 ] final -115.17 input  -57.11 | X-H torsion

> <Gold.Protein.ActiveResidues>
 VAL166  LYS551  ARG553  GLY616  TRP617  ASP618  TYR619  PRO620  LYS621  CYS622 
 ASP623  PHE694  ASN695  SER759  ASP760  ASP761  ALA762  ILE779  LEU786  VAL792 
 PHE793  MET794  SER795  GLU796  ALA797  LYS798  CYS799  TRP800  GLU811  SER814 

> <Gold.Protein.RotatedAtoms>
  150.7341  134.5697  159.5883 H   0  0  0  0  0  0  0  0  0  0  0  0  # atno 6907 bound_to 6896
  152.3139  134.7460  160.0339 H   0  0  0  0  0  0  0  0  0  0  0  0  # atno 6908 bound_to 6896
  151.7999  133.3333  159.3560 H   0  0  0  0  0  0  0  0  0  0  0  0  # atno 6909 bound_to 6896
  146.2213  140.2799  142.8361 H   0  0  0  0  0  0  0  0  0  0  0  0  # atno 7974 bound_to 7965
  155.0534  140.3182  155.4684 H   0  0  0  0  0  0  0  0  0  0  0  0  # atno 8008 bound_to 7997
  156.2829  140.2142  156.5604 H   0  0  0  0  0  0  0  0  0  0  0  0  # atno 8009 bound_to 7997
  154.7191  140.0491  157.0610 H   0  0  0  0  0  0  0  0  0  0  0  0  # atno 8010 bound_to 7997
  139.5323  144.6645  151.4906 H   0  0  0  0  0  0  0  0  0  0  0  0  # atno 10167 bound_to 10162
  156.9542  130.5908  149.5658 H   0  0  0  0  0  0  0  0  0  0  0  0  # atno 10718 bound_to 10713
  153.9526  135.6749  153.4744 H   0  0  0  0  0  0  0  0  0  0  0  0  # atno 10763 bound_to 10752
  153.0877  135.4890  154.8626 H   0  0  0  0  0  0  0  0  0  0  0  0  # atno 10764 bound_to 10752
  154.7317  135.3140  154.8839 H   0  0  0  0  0  0  0  0  0  0  0  0  # atno 10765 bound_to 10752
  141.0505  133.9695  157.2845 H   0  0  0  0  0  0  0  0  0  0  0  0  # atno 11005 bound_to 11000
  144.9205  140.7862  143.5751 LP  0  0  0  0  0  0  0  0  0  0  0  0  # atno 17320 bound_to 7965
  145.2735  139.1945  143.4829 LP  0  0  0  0  0  0  0  0  0  0  0  0  # atno 17321 bound_to 7965
  140.6509  143.8697  150.6785 LP  0  0  0  0  0  0  0  0  0  0  0  0  # atno 17342 bound_to 10162
  140.2062  143.3920  152.1753 LP  0  0  0  0  0  0  0  0  0  0  0  0  # atno 17343 bound_to 10162
  156.0350  130.5438  150.8630 LP  0  0  0  0  0  0  0  0  0  0  0  0  # atno 17370 bound_to 10713
  157.5702  131.0946  150.9430 LP  0  0  0  0  0  0  0  0  0  0  0  0  # atno 17371 bound_to 10713
  139.9346  135.0197  156.8514 LP  0  0  0  0  0  0  0  0  0  0  0  0  # atno 17394 bound_to 11000
  140.6065  134.0123  155.7558 LP  0  0  0  0  0  0  0  0  0  0  0  0  # atno 17395 bound_to 11000

$$$$
