AV-unprocessed.smi:1424|AV-procd|sdf|5801|dock4
  -GOLD-   22720 5453D 1   1.00000     0.00000
 Structure written by MMmdl.
 46 48  0  0  0  0  0  0  0  0  2 V2000
  149.5067  133.0195  155.1899 O   0  0  0  0  0  0  0  0  0  0  0  0
  149.2575  133.8572  154.3233 C   0  0  0  0  0  0  0  0  0  0  0  0
  149.7497  135.1038  154.3341 N   0  0  0  0  0  0  0  0  0  0  0  0
  150.6438  135.6434  155.3539 C   0  0  0  0  0  0  0  0  0  0  0  0
  150.3993  137.1456  155.6285 C   0  0  2  0  0  0  0  0  0  0  0  0
  150.8249  138.0464  154.4464 C   0  0  0  0  0  0  0  0  0  0  0  0
  152.3496  138.2198  154.4646 C   0  0  0  0  0  0  0  0  0  0  0  0
  152.8431  138.1258  156.2275 S   0  0  0  0  0  0  0  0  0  0  0  0
  153.7891  137.0124  156.3969 O   0  0  0  0  0  0  0  0  0  0  0  0
  153.1599  139.4722  156.7271 O   0  0  0  0  0  0  0  0  0  0  0  0
  151.1941  137.6253  156.8536 C   0  0  0  0  0  0  0  0  0  0  0  0
  148.4512  133.6607  153.2665 N   0  0  0  0  0  0  0  0  0  0  0  0
  147.7233  132.4862  152.9206 C   0  0  0  0  0  0  0  0  0  0  0  0
  148.0961  131.2127  153.4235 C   0  0  0  0  0  0  0  0  0  0  0  0
  147.3445  130.0731  153.0809 C   0  0  0  0  0  0  0  0  0  0  0  0
  146.2317  130.2215  152.2361 C   0  0  0  0  0  0  0  0  0  0  0  0
  145.9143  131.4419  151.7575 N   0  3  0  0  0  0  0  0  0  0  0  0
  146.6071  132.5741  152.0378 C   0  0  0  0  0  0  0  0  0  0  0  0
  146.1627  133.7807  151.4499 N   0  0  0  0  0  0  0  0  0  0  0  0
  145.9002  134.9529  152.2770 C   0  0  0  0  0  0  0  0  0  0  0  0
  145.1173  135.9052  151.3772 C   0  0  0  0  0  0  0  0  0  0  0  0
  144.2797  134.9470  150.5361 C   0  0  0  0  0  0  0  0  0  0  0  0
  145.1880  133.7249  150.3650 C   0  0  0  0  0  0  0  0  0  0  0  0
  149.4915  135.7270  153.5831 H   0  0  0  0  0  0  0  0  0  0  0  0
  150.5296  135.0688  156.2747 H   0  0  0  0  0  0  0  0  0  0  0  0
  151.6687  135.4789  155.0210 H   0  0  0  0  0  0  0  0  0  0  0  0
  149.3355  137.2849  155.8245 H   0  0  0  0  0  0  0  0  0  0  0  0
  150.4738  137.6772  153.4828 H   0  0  0  0  0  0  0  0  0  0  0  0
  150.3669  139.0268  154.5823 H   0  0  0  0  0  0  0  0  0  0  0  0
  152.8422  137.4065  153.9317 H   0  0  0  0  0  0  0  0  0  0  0  0
  152.6743  139.1666  154.0326 H   0  0  0  0  0  0  0  0  0  0  0  0
  150.7247  138.5071  157.2903 H   0  0  0  0  0  0  0  0  0  0  0  0
  151.2975  136.8718  157.6346 H   0  0  0  0  0  0  0  0  0  0  0  0
  148.2622  134.4727  152.6977 H   0  0  0  0  0  0  0  0  0  0  0  0
  148.9548  131.0889  154.0657 H   0  0  0  0  0  0  0  0  0  0  0  0
  147.6178  129.1003  153.4632 H   0  0  0  0  0  0  0  0  0  0  0  0
  145.5949  129.4066  151.9234 H   0  0  0  0  0  0  0  0  0  0  0  0
  145.2912  134.6832  153.1407 H   0  0  0  0  0  0  0  0  0  0  0  0
  146.8261  135.4038  152.6353 H   0  0  0  0  0  0  0  0  0  0  0  0
  144.5158  136.6220  151.9369 H   0  0  0  0  0  0  0  0  0  0  0  0
  145.8018  136.4629  150.7361 H   0  0  0  0  0  0  0  0  0  0  0  0
  143.3833  134.6640  151.0895 H   0  0  0  0  0  0  0  0  0  0  0  0
  143.9649  135.3777  149.5851 H   0  0  0  0  0  0  0  0  0  0  0  0
  145.7181  133.7866  149.4144 H   0  0  0  0  0  0  0  0  0  0  0  0
  144.6121  132.7985  150.3763 H   0  0  0  0  0  0  0  0  0  0  0  0
  145.1070  131.5153  151.1383 H   0  0  0  0  0  0  0  0  0  0  0  0
  1  2  2  0  0  0  0
  2  3  1  0  0  0  0
  2 12  1  0  0  0  0
  3  4  1  0  0  0  0
  3 24  1  0  0  0  0
  4  5  1  0  0  0  0
  4 25  1  0  0  0  0
  4 26  1  0  0  0  0
  5 11  1  0  0  0  0
  5  6  1  0  0  0  0
  5 27  1  0  0  0  0
  6  7  1  0  0  0  0
  6 28  1  0  0  0  0
  6 29  1  0  0  0  0
  7  8  1  0  0  0  0
  7 30  1  0  0  0  0
  7 31  1  0  0  0  0
  8  9  2  0  0  0  0
  8 10  2  0  0  0  0
  8 11  1  0  0  0  0
 11 32  1  0  0  0  0
 11 33  1  0  0  0  0
 12 13  1  0  0  0  0
 12 34  1  0  0  0  0
 13 18  1  0  0  0  0
 13 14  2  0  0  0  0
 14 15  1  0  0  0  0
 14 35  1  0  0  0  0
 15 16  2  0  0  0  0
 15 36  1  0  0  0  0
 16 17  1  0  0  0  0
 16 37  1  0  0  0  0
 17 18  2  0  0  0  0
 17 46  1  0  0  0  0
 18 19  1  0  0  0  0
 19 23  1  0  0  0  0
 19 20  1  0  0  0  0
 20 21  1  0  0  0  0
 20 38  1  0  0  0  0
 20 39  1  0  0  0  0
 21 22  1  0  0  0  0
 21 40  1  0  0  0  0
 21 41  1  0  0  0  0
 22 23  1  0  0  0  0
 22 42  1  0  0  0  0
 22 43  1  0  0  0  0
 23 44  1  0  0  0  0
 23 45  1  0  0  0  0
M  CHG  1  17   1
M  END
> <s_m_source_file>
AV-unprocessed.smi

> <i_m_source_file_index>
1424

> <i_lp_mmshare_version>
43012

> <i_f3d_flags>
0

> <s_epik_input>
Tz1TMSg9TylbQ0gyXVtDSDJdW0NASF0oW0NIMl0xKVtDSDJdW05IXUMoPU8pW05IXWMyW2NIXVtjSF1bY0hdbmMyTjNbQ0gyXVtDSDJdW0NIMl1bQ0gyXTM=

> <s_epik_cmdline>
J2VwaWtfcHl0aG9uJywgJy1waCcsICc3LjAnLCAnLXRuJywgJzgnLCAnLW1hJywgJzIwMCcsICctbWV0YWxfYmluZGluZycsICctaW1hZScsICc8aW5maWxlLm1hZT4nLCAnLW9tYWUnLCAnPG91dGZpbGUubWFlPic=

> <r_lp_tautomer_probability>
0.999994

> <r_epik_Ionization_Penalty>
1.12573

> <r_epik_Ionization_Penalty_Charging>
1.12571

> <r_epik_Ionization_Penalty_Neutral>
1.92863e-05

> <r_epik_State_Penalty>
1.18495

> <r_epik_Charging_Adjusted_Penalty>
2.31065

> <i_epik_Tot_Q>
1

> <i_epik_Tot_abs_Q>
1

> <r_epik_Metal_State_Penalty>
1.26881

> <b_epik_Metal_Only>
0

> <s_lp_Force_Field>
OPLS_2005

> <r_lp_Energy>
41.4787

> <b_lp_Chiralities_Consistent>
1

> <s_lp_Variant>
AV-unprocessed.smi:1424-3

> <Gold.Version>
5.8.1

> <Gold.Id.Protein>
6NUR|6NUR_protein|mol2

> <Gold.PLP.Fitness>
47.4568

> <Gold.PLP.PLP>
-37.1276

> <Gold.PLP.part.hbond>
-3.7447

> <Gold.PLP.part.metal>
0.0000

> <Gold.PLP.part.buried>
-4.6289

> <Gold.PLP.part.nonpolar>
-29.6253

> <Gold.PLP.part.repulsive>
0.2400

> <Gold.PLP.ligand.clash>
0.0000

> <Gold.PLP.ligand.torsion>
0.5138

> <Gold.PLP.Chemscore.Hbond>
3.6560

> <Gold.PLP.Chemscore.CHOScore>
0.0000

> <Gold.PLP.Chemscore.Metal>
0.0000

> <Gold.Chemscore.Hbonds>
donor molecule, donor type, donor heavy atom, donor atom, acceptor molecule, acceptor atom, score
      L1  H     3    24       P1  7948  1.00
      L1  H    12    34       P1  7948  0.96
      P1  H  7997  8009       L1    10  0.73
      P1  H 10752 10764       L1     9  0.61

> <Gold.PLP.Chemscore.Internal.Correction>
0.3888

> <Gold.Rescore>
     Score         DG    S(hbond)    S(metal)    S(lipo)     H(rot)  DE(clash)    DE(int)     intcor
     15.85     -18.59       2.38        0.00      76.76       1.50       0.03       2.71       ----

> <Gold.Chemscore.Fitness>
15.8541

> <Gold.Chemscore.DG>
-18.5922

> <Gold.Chemscore.ZeroCoef>
-5.4800

> <Gold.Chemscore.Hbond>
2.3837

> <Gold.Chemscore.Metal>
0.0000

> <Gold.Chemscore.Lipo>
76.7592

> <Gold.Chemscore.Internal_Hbond>
0.0000

> <Gold.Chemscore.DEClash>
0.0310

> <Gold.Chemscore.DEInternal>
2.7072

> <Gold.Chemscore.Rot>
1.4962

> <Gold.Chemscore.Internal.Correction>
   9.000000E+99

> <Gold.Chemscore.Hbonds>
donor molecule, donor type, donor heavy atom, donor atom, acceptor molecule, acceptor atom, score
      L1  H     3    24       P1  7948  0.30
      L1  H    12    34       P1  7948  0.26
      P1  H  7997  8009       L1    10  0.69
      P1  H 10752 10764       L1     9  0.61

> <Gold.Chemscore.Hbond.Weighted>
-7.9617

> <Gold.Chemscore.Metal.Weighted>
-0.0000

> <Gold.Chemscore.Lipo.Weighted>
-8.9808

> <Gold.Chemscore.Internal_Hbond.Weighted>
0.0000

> <Gold.Chemscore.DEClash.Weighted>
0.0310

> <Gold.Chemscore.DEInternal.Weighted>
2.7072

> <Gold.Chemscore.Rot.Weighted>
3.8303

> <Gold.Chemscore.Internal.Correction.Weighted>
   9.000000E+99

> <Gold.Protein.RotatedTorsions>
[ 6907 6896 6895 6894 ] final -109.96 input  -60.11 | X-H torsion
[ 7974 7965 7964 7962 ] final   92.76 input  175.53 | X-H torsion
[ 8008 7997 7996 7995 ] final -157.98 input   59.86 | X-H torsion
[ 10167 10162 10161 10158 ] final   95.43 input  -65.29 | X-H torsion
[ 10718 10713 10712 10709 ] final  -90.83 input   66.30 | X-H torsion
[ 10763 10752 10751 10750 ] final    8.01 input  -60.55 | X-H torsion
[ 11005 11000 10999 10996 ] final -104.02 input  -57.11 | X-H torsion

> <Gold.Protein.ActiveResidues>
 VAL166  LYS551  ARG553  GLY616  TRP617  ASP618  TYR619  PRO620  LYS621  CYS622 
 ASP623  PHE694  ASN695  SER759  ASP760  ASP761  ALA762  ILE779  LEU786  VAL792 
 PHE793  MET794  SER795  GLU796  ALA797  LYS798  CYS799  TRP800  GLU811  SER814 

> <Gold.Protein.RotatedAtoms>
  150.7594  133.9453  159.3468 H   0  0  0  0  0  0  0  0  0  0  0  0  # atno 6907 bound_to 6896
  151.7365  135.0861  160.0318 H   0  0  0  0  0  0  0  0  0  0  0  0  # atno 6908 bound_to 6896
  152.3556  133.6196  159.6013 H   0  0  0  0  0  0  0  0  0  0  0  0  # atno 6909 bound_to 6896
  145.4880  139.2277  143.2846 H   0  0  0  0  0  0  0  0  0  0  0  0  # atno 7974 bound_to 7965
  155.7406  140.0813  157.2247 H   0  0  0  0  0  0  0  0  0  0  0  0  # atno 8008 bound_to 7997
  154.4022  140.1578  156.2667 H   0  0  0  0  0  0  0  0  0  0  0  0  # atno 8009 bound_to 7997
  155.9024  140.3409  155.6039 H   0  0  0  0  0  0  0  0  0  0  0  0  # atno 8010 bound_to 7997
  139.7989  144.6822  150.9791 H   0  0  0  0  0  0  0  0  0  0  0  0  # atno 10167 bound_to 10162
  155.9990  130.4925  150.5383 H   0  0  0  0  0  0  0  0  0  0  0  0  # atno 10718 bound_to 10713
  153.2298  135.6891  153.7903 H   0  0  0  0  0  0  0  0  0  0  0  0  # atno 10763 bound_to 10752
  153.7071  135.3288  155.3239 H   0  0  0  0  0  0  0  0  0  0  0  0  # atno 10764 bound_to 10752
  154.8309  135.4581  154.1179 H   0  0  0  0  0  0  0  0  0  0  0  0  # atno 10765 bound_to 10752
  141.1119  133.8688  157.1559 H   0  0  0  0  0  0  0  0  0  0  0  0  # atno 11005 bound_to 11000
  146.2301  140.5672  142.8979 LP  0  0  0  0  0  0  0  0  0  0  0  0  # atno 17320 bound_to 7965
  144.7850  140.5918  143.6580 LP  0  0  0  0  0  0  0  0  0  0  0  0  # atno 17321 bound_to 7965
  140.7820  143.4302  151.0706 LP  0  0  0  0  0  0  0  0  0  0  0  0  # atno 17342 bound_to 10162
  139.7975  143.8131  152.3159 LP  0  0  0  0  0  0  0  0  0  0  0  0  # atno 17343 bound_to 10162
  157.3323  131.0701  151.1852 LP  0  0  0  0  0  0  0  0  0  0  0  0  # atno 17370 bound_to 10713
  157.2728  130.6712  149.6028 LP  0  0  0  0  0  0  0  0  0  0  0  0  # atno 17371 bound_to 10713
  140.0019  135.0024  157.0207 LP  0  0  0  0  0  0  0  0  0  0  0  0  # atno 17394 bound_to 11000
  140.4751  134.1347  155.7208 LP  0  0  0  0  0  0  0  0  0  0  0  0  # atno 17395 bound_to 11000

$$$$
