AV-unprocessed.smi:1424|AV-procd|sdf|5801|dock6
  -GOLD-   22720 5453D 1   1.00000     0.00000
 Structure written by MMmdl.
 46 48  0  0  0  0  0  0  0  0  2 V2000
  148.8664  134.2605  155.9893 O   0  0  0  0  0  0  0  0  0  0  0  0
  148.7710  134.7904  154.8826 C   0  0  0  0  0  0  0  0  0  0  0  0
  148.7864  136.1171  154.6922 N   0  0  0  0  0  0  0  0  0  0  0  0
  148.9222  137.1143  155.7494 C   0  0  0  0  0  0  0  0  0  0  0  0
  150.1651  136.8769  156.6385 C   0  0  2  0  0  0  0  0  0  0  0  0
  150.0237  137.5054  158.0438 C   0  0  0  0  0  0  0  0  0  0  0  0
  150.2901  139.0141  157.9535 C   0  0  0  0  0  0  0  0  0  0  0  0
  151.4895  139.2295  156.5841 S   0  0  0  0  0  0  0  0  0  0  0  0
  150.8925  140.1039  155.5633 O   0  0  0  0  0  0  0  0  0  0  0  0
  152.8253  139.5074  157.1330 O   0  0  0  0  0  0  0  0  0  0  0  0
  151.4265  137.4896  156.0091 C   0  0  0  0  0  0  0  0  0  0  0  0
  148.6168  134.1331  153.7208 N   0  0  0  0  0  0  0  0  0  0  0  0
  148.5268  132.7273  153.5096 C   0  0  0  0  0  0  0  0  0  0  0  0
  149.3430  131.8192  154.2328 C   0  0  0  0  0  0  0  0  0  0  0  0
  149.2163  130.4340  154.0177 C   0  0  0  0  0  0  0  0  0  0  0  0
  148.2773  129.9751  153.0787 C   0  0  0  0  0  0  0  0  0  0  0  0
  147.5301  130.8636  152.3920 N   0  3  0  0  0  0  0  0  0  0  0  0
  147.6163  132.2091  152.5425 C   0  0  0  0  0  0  0  0  0  0  0  0
  146.7771  133.0165  151.7407 N   0  0  0  0  0  0  0  0  0  0  0  0
  145.9503  134.0536  152.3474 C   0  0  0  0  0  0  0  0  0  0  0  0
  144.9504  134.4474  151.2638 C   0  0  0  0  0  0  0  0  0  0  0  0
  144.6992  133.1215  150.5523 C   0  0  0  0  0  0  0  0  0  0  0  0
  146.0510  132.4044  150.6325 C   0  0  0  0  0  0  0  0  0  0  0  0
  148.7006  136.4664  153.7489 H   0  0  0  0  0  0  0  0  0  0  0  0
  148.9624  138.1096  155.3037 H   0  0  0  0  0  0  0  0  0  0  0  0
  148.0133  137.0898  156.3508 H   0  0  0  0  0  0  0  0  0  0  0  0
  150.3101  135.8004  156.7368 H   0  0  0  0  0  0  0  0  0  0  0  0
  149.0607  137.2945  158.5088 H   0  0  0  0  0  0  0  0  0  0  0  0
  150.7793  137.0624  158.6935 H   0  0  0  0  0  0  0  0  0  0  0  0
  149.3809  139.5571  157.6952 H   0  0  0  0  0  0  0  0  0  0  0  0
  150.6940  139.4298  158.8768 H   0  0  0  0  0  0  0  0  0  0  0  0
  152.3197  136.9863  156.3798 H   0  0  0  0  0  0  0  0  0  0  0  0
  151.4395  137.4494  154.9197 H   0  0  0  0  0  0  0  0  0  0  0  0
  148.4498  134.7065  152.9072 H   0  0  0  0  0  0  0  0  0  0  0  0
  150.0730  132.1641  154.9493 H   0  0  0  0  0  0  0  0  0  0  0  0
  149.8298  129.7351  154.5674 H   0  0  0  0  0  0  0  0  0  0  0  0
  148.1076  128.9327  152.8507 H   0  0  0  0  0  0  0  0  0  0  0  0
  145.4152  133.6592  153.2122 H   0  0  0  0  0  0  0  0  0  0  0  0
  146.5511  134.9037  152.6721 H   0  0  0  0  0  0  0  0  0  0  0  0
  144.0419  134.8968  151.6657 H   0  0  0  0  0  0  0  0  0  0  0  0
  145.4060  135.1597  150.5743 H   0  0  0  0  0  0  0  0  0  0  0  0
  143.9475  132.5507  151.0991 H   0  0  0  0  0  0  0  0  0  0  0  0
  144.3460  133.2469  149.5284 H   0  0  0  0  0  0  0  0  0  0  0  0
  146.6130  132.5679  149.7128 H   0  0  0  0  0  0  0  0  0  0  0  0
  145.9220  131.3297  150.7684 H   0  0  0  0  0  0  0  0  0  0  0  0
  146.8647  130.4996  151.7099 H   0  0  0  0  0  0  0  0  0  0  0  0
  1  2  2  0  0  0  0
  2  3  1  0  0  0  0
  2 12  1  0  0  0  0
  3  4  1  0  0  0  0
  3 24  1  0  0  0  0
  4  5  1  0  0  0  0
  4 25  1  0  0  0  0
  4 26  1  0  0  0  0
  5 11  1  0  0  0  0
  5  6  1  0  0  0  0
  5 27  1  0  0  0  0
  6  7  1  0  0  0  0
  6 28  1  0  0  0  0
  6 29  1  0  0  0  0
  7  8  1  0  0  0  0
  7 30  1  0  0  0  0
  7 31  1  0  0  0  0
  8  9  2  0  0  0  0
  8 10  2  0  0  0  0
  8 11  1  0  0  0  0
 11 32  1  0  0  0  0
 11 33  1  0  0  0  0
 12 13  1  0  0  0  0
 12 34  1  0  0  0  0
 13 18  1  0  0  0  0
 13 14  2  0  0  0  0
 14 15  1  0  0  0  0
 14 35  1  0  0  0  0
 15 16  2  0  0  0  0
 15 36  1  0  0  0  0
 16 17  1  0  0  0  0
 16 37  1  0  0  0  0
 17 18  2  0  0  0  0
 17 46  1  0  0  0  0
 18 19  1  0  0  0  0
 19 23  1  0  0  0  0
 19 20  1  0  0  0  0
 20 21  1  0  0  0  0
 20 38  1  0  0  0  0
 20 39  1  0  0  0  0
 21 22  1  0  0  0  0
 21 40  1  0  0  0  0
 21 41  1  0  0  0  0
 22 23  1  0  0  0  0
 22 42  1  0  0  0  0
 22 43  1  0  0  0  0
 23 44  1  0  0  0  0
 23 45  1  0  0  0  0
M  CHG  1  17   1
M  END
> <s_m_source_file>
AV-unprocessed.smi

> <i_m_source_file_index>
1424

> <i_lp_mmshare_version>
43012

> <i_f3d_flags>
0

> <s_epik_input>
Tz1TMSg9TylbQ0gyXVtDSDJdW0NASF0oW0NIMl0xKVtDSDJdW05IXUMoPU8pW05IXWMyW2NIXVtjSF1bY0hdbmMyTjNbQ0gyXVtDSDJdW0NIMl1bQ0gyXTM=

> <s_epik_cmdline>
J2VwaWtfcHl0aG9uJywgJy1waCcsICc3LjAnLCAnLXRuJywgJzgnLCAnLW1hJywgJzIwMCcsICctbWV0YWxfYmluZGluZycsICctaW1hZScsICc8aW5maWxlLm1hZT4nLCAnLW9tYWUnLCAnPG91dGZpbGUubWFlPic=

> <r_lp_tautomer_probability>
0.999994

> <r_epik_Ionization_Penalty>
1.12573

> <r_epik_Ionization_Penalty_Charging>
1.12571

> <r_epik_Ionization_Penalty_Neutral>
1.92863e-05

> <r_epik_State_Penalty>
1.18495

> <r_epik_Charging_Adjusted_Penalty>
2.31065

> <i_epik_Tot_Q>
1

> <i_epik_Tot_abs_Q>
1

> <r_epik_Metal_State_Penalty>
1.26881

> <b_epik_Metal_Only>
0

> <s_lp_Force_Field>
OPLS_2005

> <r_lp_Energy>
41.4787

> <b_lp_Chiralities_Consistent>
1

> <s_lp_Variant>
AV-unprocessed.smi:1424-3

> <Gold.Version>
5.8.1

> <Gold.Id.Protein>
6NUR|6NUR_protein|mol2

> <Gold.PLP.Fitness>
42.6249

> <Gold.PLP.PLP>
-31.9974

> <Gold.PLP.part.hbond>
-4.7621

> <Gold.PLP.part.metal>
0.0000

> <Gold.PLP.part.buried>
-3.3408

> <Gold.PLP.part.nonpolar>
-23.9305

> <Gold.PLP.part.repulsive>
0.2227

> <Gold.PLP.ligand.clash>
0.0000

> <Gold.PLP.ligand.torsion>
0.7726

> <Gold.PLP.Chemscore.Hbond>
3.9280

> <Gold.PLP.Chemscore.CHOScore>
0.0000

> <Gold.PLP.Chemscore.Metal>
0.0000

> <Gold.Chemscore.Hbonds>
donor molecule, donor type, donor heavy atom, donor atom, acceptor molecule, acceptor atom, score
      L1  H     3    24       P1  7948  0.99
      L1  H    12    34       P1  7948  0.96
      P1  H  7989  7998       L1     9  0.28
      P1  H  7997  8009       L1    10  1.00

> <Gold.PLP.Chemscore.Internal.Correction>
0.3888

> <Gold.Rescore>
     Score         DG    S(hbond)    S(metal)    S(lipo)     H(rot)  DE(clash)    DE(int)     intcor
     16.79     -19.65       3.26        0.00      60.72       1.50       0.00       2.86       ----

> <Gold.Chemscore.Fitness>
16.7860

> <Gold.Chemscore.DG>
-19.6503

> <Gold.Chemscore.ZeroCoef>
-5.4800

> <Gold.Chemscore.Hbond>
3.2623

> <Gold.Chemscore.Metal>
0.0000

> <Gold.Chemscore.Lipo>
60.7224

> <Gold.Chemscore.Internal_Hbond>
0.0000

> <Gold.Chemscore.DEClash>
0.0021

> <Gold.Chemscore.DEInternal>
2.8621

> <Gold.Chemscore.Rot>
1.4962

> <Gold.Chemscore.Internal.Correction>
   9.000000E+99

> <Gold.Chemscore.Hbonds>
donor molecule, donor type, donor heavy atom, donor atom, acceptor molecule, acceptor atom, score
      L1  H     3    24       P1  7948  0.93
      L1  H    12    34       P1  7948  0.37
      P1  H  7989  7998       L1     9  0.27
      P1  H  7997  8009       L1    10  0.99

> <Gold.Chemscore.Hbond.Weighted>
-10.8960

> <Gold.Chemscore.Metal.Weighted>
-0.0000

> <Gold.Chemscore.Lipo.Weighted>
-7.1045

> <Gold.Chemscore.Internal_Hbond.Weighted>
0.0000

> <Gold.Chemscore.DEClash.Weighted>
0.0021

> <Gold.Chemscore.DEInternal.Weighted>
2.8621

> <Gold.Chemscore.Rot.Weighted>
3.8303

> <Gold.Chemscore.Internal.Correction.Weighted>
   9.000000E+99

> <Gold.Protein.RotatedTorsions>
[ 6907 6896 6895 6894 ] final  122.97 input  -60.11 | X-H torsion
[ 7974 7965 7964 7962 ] final  -51.54 input  175.53 | X-H torsion
[ 8008 7997 7996 7995 ] final  164.46 input   59.86 | X-H torsion
[ 10167 10162 10161 10158 ] final -122.01 input  -65.29 | X-H torsion
[ 10718 10713 10712 10709 ] final   75.10 input   66.30 | X-H torsion
[ 10763 10752 10751 10750 ] final   -0.17 input  -60.55 | X-H torsion
[ 11005 11000 10999 10996 ] final -177.29 input  -57.11 | X-H torsion

> <Gold.Protein.ActiveResidues>
 VAL166  LYS551  ARG553  GLY616  TRP617  ASP618  TYR619  PRO620  LYS621  CYS622 
 ASP623  PHE694  ASN695  SER759  ASP760  ASP761  ALA762  ILE779  LEU786  VAL792 
 PHE793  MET794  SER795  GLU796  ALA797  LYS798  CYS799  TRP800  GLU811  SER814 

> <Gold.Protein.RotatedAtoms>
  152.4200  133.7101  159.6473 H   0  0  0  0  0  0  0  0  0  0  0  0  # atno 6907 bound_to 6896
  150.8076  133.8470  159.3203 H   0  0  0  0  0  0  0  0  0  0  0  0  # atno 6908 bound_to 6896
  151.6189  135.1036  160.0149 H   0  0  0  0  0  0  0  0  0  0  0  0  # atno 6909 bound_to 6896
  145.9178  140.7860  142.9662 H   0  0  0  0  0  0  0  0  0  0  0  0  # atno 7974 bound_to 7965
  156.1878  140.1696  156.8152 H   0  0  0  0  0  0  0  0  0  0  0  0  # atno 8008 bound_to 7997
  154.5434  140.0732  156.8581 H   0  0  0  0  0  0  0  0  0  0  0  0  # atno 8009 bound_to 7997
  155.3169  140.3371  155.4244 H   0  0  0  0  0  0  0  0  0  0  0  0  # atno 8010 bound_to 7997
  140.0189  143.5365  152.2230 H   0  0  0  0  0  0  0  0  0  0  0  0  # atno 10167 bound_to 10162
  157.6620  130.9710  150.1305 H   0  0  0  0  0  0  0  0  0  0  0  0  # atno 10718 bound_to 10713
  153.3285  135.6973  153.6968 H   0  0  0  0  0  0  0  0  0  0  0  0  # atno 10763 bound_to 10752
  153.5780  135.3503  155.2864 H   0  0  0  0  0  0  0  0  0  0  0  0  # atno 10764 bound_to 10752
  154.8613  135.4288  154.2468 H   0  0  0  0  0  0  0  0  0  0  0  0  # atno 10765 bound_to 10752
  140.4426  134.6418  157.4764 H   0  0  0  0  0  0  0  0  0  0  0  0  # atno 11005 bound_to 11000
  144.6749  140.1927  143.7395 LP  0  0  0  0  0  0  0  0  0  0  0  0  # atno 17320 bound_to 7965
  145.8589  139.2213  143.1728 LP  0  0  0  0  0  0  0  0  0  0  0  0  # atno 17321 bound_to 7965
  139.6153  144.7618  151.2859 LP  0  0  0  0  0  0  0  0  0  0  0  0  # atno 17342 bound_to 10162
  140.7351  143.6747  150.8051 LP  0  0  0  0  0  0  0  0  0  0  0  0  # atno 17343 bound_to 10162
  156.2153  130.3670  149.8620 LP  0  0  0  0  0  0  0  0  0  0  0  0  # atno 17370 bound_to 10713
  156.6488  130.8735  151.3527 LP  0  0  0  0  0  0  0  0  0  0  0  0  # atno 17371 bound_to 10713
  140.0060  134.6763  155.9455 LP  0  0  0  0  0  0  0  0  0  0  0  0  # atno 17394 bound_to 11000
  141.1699  133.6537  156.4614 LP  0  0  0  0  0  0  0  0  0  0  0  0  # atno 17395 bound_to 11000

$$$$
