AV-unprocessed.smi:2355|AV-procd|sdf|9385|dock1
  -GOLD-   2272013 13D 1   1.00000     0.00000
 Structure written by MMmdl.
 48 49  0  0  0  0  0  0  0  0  1 V2000
  144.8245  132.1972  150.1464 C   0  0  0  0  0  0  0  0  0  0  0  0
  144.4931  133.3265  151.0990 C   0  0  0  0  0  0  0  0  0  0  0  0
  143.2079  133.4448  151.6619 C   0  0  0  0  0  0  0  0  0  0  0  0
  142.9635  134.5184  152.5406 C   0  0  0  0  0  0  0  0  0  0  0  0
  141.6038  134.7092  153.1789 C   0  0  0  0  0  0  0  0  0  0  0  0
  143.9021  135.4329  152.8653 N   0  0  0  0  0  0  0  0  0  0  0  0
  145.1440  135.3282  152.3305 C   0  0  0  0  0  0  0  0  0  0  0  0
  146.2019  136.2333  152.6112 N   0  0  0  0  0  0  0  0  0  0  0  0
  146.2528  137.1826  153.5620 C   0  0  0  0  0  0  0  0  0  0  0  0
  145.3462  137.4479  154.3522 O   0  0  0  0  0  0  0  0  0  0  0  0
  147.4351  137.8155  153.5483 N   0  0  0  0  0  0  0  0  0  0  0  0
  147.8515  138.8703  154.4728 C   0  0  2  0  0  0  0  0  0  0  0  0
  147.8233  140.2316  153.7546 C   0  0  0  0  0  0  0  0  0  0  0  0
  149.2184  138.5123  155.1370 C   0  0  2  0  0  0  0  0  0  0  0  0
  150.3698  138.7183  154.1186 C   0  0  0  0  0  0  0  0  0  0  0  0
  149.2448  137.1645  155.7609 N   0  0  0  0  0  0  0  0  0  0  0  0
  150.5929  136.7610  156.1775 C   0  0  0  0  0  0  0  0  0  0  0  0
  150.6251  135.3717  156.8381 C   0  0  0  0  0  0  0  0  0  0  0  0
  149.7424  135.3490  157.9509 O   0  0  0  0  0  0  0  0  0  0  0  0
  148.4069  135.6559  157.5768 C   0  0  0  0  0  0  0  0  0  0  0  0
  148.3579  137.0485  156.9254 C   0  0  0  0  0  0  0  0  0  0  0  0
  145.4719  134.2821  151.4391 C   0  0  0  0  0  0  0  0  0  0  0  0
  143.9712  131.5330  150.0050 H   0  0  0  0  0  0  0  0  0  0  0  0
  145.6549  131.6071  150.5348 H   0  0  0  0  0  0  0  0  0  0  0  0
  145.1112  132.5967  149.1733 H   0  0  0  0  0  0  0  0  0  0  0  0
  142.4302  132.7330  151.4265 H   0  0  0  0  0  0  0  0  0  0  0  0
  140.9399  133.8742  152.9529 H   0  0  0  0  0  0  0  0  0  0  0  0
  141.1390  135.6240  152.8104 H   0  0  0  0  0  0  0  0  0  0  0  0
  141.6987  134.7844  154.2627 H   0  0  0  0  0  0  0  0  0  0  0  0
  147.0222  136.1347  152.0318 H   0  0  0  0  0  0  0  0  0  0  0  0
  148.1173  137.5260  152.8630 H   0  0  0  0  0  0  0  0  0  0  0  0
  147.1119  138.9846  155.2637 H   0  0  0  0  0  0  0  0  0  0  0  0
  148.2201  141.0218  154.3924 H   0  0  0  0  0  0  0  0  0  0  0  0
  146.8003  140.5058  153.4946 H   0  0  0  0  0  0  0  0  0  0  0  0
  148.3939  140.2253  152.8264 H   0  0  0  0  0  0  0  0  0  0  0  0
  149.3735  139.2437  155.9319 H   0  0  0  0  0  0  0  0  0  0  0  0
  150.3315  139.6957  153.6419 H   0  0  0  0  0  0  0  0  0  0  0  0
  150.3489  137.9646  153.3310 H   0  0  0  0  0  0  0  0  0  0  0  0
  151.3500  138.6811  154.5911 H   0  0  0  0  0  0  0  0  0  0  0  0
  151.2642  136.7197  155.3220 H   0  0  0  0  0  0  0  0  0  0  0  0
  151.0031  137.4995  156.8680 H   0  0  0  0  0  0  0  0  0  0  0  0
  150.3438  134.5971  156.1232 H   0  0  0  0  0  0  0  0  0  0  0  0
  151.6336  135.1395  157.1806 H   0  0  0  0  0  0  0  0  0  0  0  0
  148.0278  134.8960  156.8916 H   0  0  0  0  0  0  0  0  0  0  0  0
  147.7739  135.6305  158.4639 H   0  0  0  0  0  0  0  0  0  0  0  0
  148.6160  137.8069  157.6661 H   0  0  0  0  0  0  0  0  0  0  0  0
  147.3218  137.2199  156.6412 H   0  0  0  0  0  0  0  0  0  0  0  0
  146.4650  134.2099  151.0192 H   0  0  0  0  0  0  0  0  0  0  0  0
  1  2  1  0  0  0  0
  1 23  1  0  0  0  0
  1 24  1  0  0  0  0
  1 25  1  0  0  0  0
  2 22  1  0  0  0  0
  2  3  2  0  0  0  0
  3  4  1  0  0  0  0
  3 26  1  0  0  0  0
  4  5  1  0  0  0  0
  4  6  2  0  0  0  0
  5 27  1  0  0  0  0
  5 28  1  0  0  0  0
  5 29  1  0  0  0  0
  6  7  1  0  0  0  0
  7  8  1  0  0  0  0
  7 22  2  0  0  0  0
  8  9  1  0  0  0  0
  8 30  1  0  0  0  0
  9 10  2  0  0  0  0
  9 11  1  0  0  0  0
 11 12  1  0  0  0  0
 11 31  1  0  0  0  0
 12 13  1  0  0  0  0
 12 14  1  0  0  0  0
 12 32  1  0  0  0  0
 13 33  1  0  0  0  0
 13 34  1  0  0  0  0
 13 35  1  0  0  0  0
 14 15  1  0  0  0  0
 14 16  1  0  0  0  0
 14 36  1  0  0  0  0
 15 37  1  0  0  0  0
 15 38  1  0  0  0  0
 15 39  1  0  0  0  0
 16 21  1  0  0  0  0
 16 17  1  0  0  0  0
 17 18  1  0  0  0  0
 17 40  1  0  0  0  0
 17 41  1  0  0  0  0
 18 19  1  0  0  0  0
 18 42  1  0  0  0  0
 18 43  1  0  0  0  0
 19 20  1  0  0  0  0
 20 21  1  0  0  0  0
 20 44  1  0  0  0  0
 20 45  1  0  0  0  0
 21 46  1  0  0  0  0
 21 47  1  0  0  0  0
 22 48  1  0  0  0  0
M  END
> <s_m_source_file>
AV-unprocessed.smi

> <i_m_source_file_index>
2355

> <i_lp_mmshare_version>
43012

> <i_f3d_flags>
0

> <s_epik_input>
W0NIM11jMVtjSF1jKFtDSDNdKW5jKFtjSF0xKVtOSF1DKD1PKVtOSF1bQ0BIXShbQ0gzXSlbQ0BIXShbQ0gzXSlOMltDSDJdW0NIMl1PW0NIMl1bQ0gyXTI=

> <s_epik_cmdline>
J2VwaWtfcHl0aG9uJywgJy1waCcsICc3LjAnLCAnLXRuJywgJzgnLCAnLW1hJywgJzIwMCcsICctbWV0YWxfYmluZGluZycsICctaW1hZScsICc8aW5maWxlLm1hZT4nLCAnLW9tYWUnLCAnPG91dGZpbGUubWFlPic=

> <r_epik_Ionization_Penalty>
0.266238

> <r_epik_Ionization_Penalty_Charging>
0

> <r_epik_Ionization_Penalty_Neutral>
0.266238

> <r_epik_State_Penalty>
0.257924

> <r_epik_Charging_Adjusted_Penalty>
0.257924

> <i_epik_Tot_Q>
0

> <i_epik_Tot_abs_Q>
0

> <r_epik_Metal_State_Penalty>
0.257904

> <b_epik_Metal_Only>
0

> <s_lp_Force_Field>
OPLS_2005

> <r_lp_Energy>
36.7742

> <b_lp_Chiralities_Consistent>
1

> <s_lp_Variant>
AV-unprocessed.smi:2355-1

> <Gold.Version>
5.8.1

> <Gold.Id.Protein>
6NUR|6NUR_protein|mol2

> <Gold.PLP.Fitness>
37.7678

> <Gold.PLP.PLP>
-29.4235

> <Gold.PLP.part.hbond>
-3.0000

> <Gold.PLP.part.metal>
0.0000

> <Gold.PLP.part.buried>
-4.8831

> <Gold.PLP.part.nonpolar>
-21.8496

> <Gold.PLP.part.repulsive>
0.2559

> <Gold.PLP.ligand.clash>
0.0000

> <Gold.PLP.ligand.torsion>
0.3665

> <Gold.PLP.Chemscore.Hbond>
2.9680

> <Gold.PLP.Chemscore.CHOScore>
0.0000

> <Gold.PLP.Chemscore.Metal>
0.0000

> <Gold.Chemscore.Hbonds>
donor molecule, donor type, donor heavy atom, donor atom, acceptor molecule, acceptor atom, score
      L1  H     8    30       P1  7948  1.00
      L1  H    11    31       P1  7948  1.00
      P1  H  6896  6907       L1    19  1.00

> <Gold.PLP.Chemscore.Internal.Correction>
0.1734

> <Gold.Rescore>
     Score         DG    S(hbond)    S(metal)    S(lipo)     H(rot)  DE(clash)    DE(int)     intcor
     17.59     -19.44       2.73        0.00      72.02       1.40       0.13       1.72       ----

> <Gold.Chemscore.Fitness>
17.5906

> <Gold.Chemscore.DG>
-19.4418

> <Gold.Chemscore.ZeroCoef>
-5.4800

> <Gold.Chemscore.Hbond>
2.7315

> <Gold.Chemscore.Metal>
0.0000

> <Gold.Chemscore.Lipo>
72.0195

> <Gold.Chemscore.Internal_Hbond>
0.0000

> <Gold.Chemscore.DEClash>
0.1334

> <Gold.Chemscore.DEInternal>
1.7178

> <Gold.Chemscore.Rot>
1.4015

> <Gold.Chemscore.Internal.Correction>
   9.000000E+99

> <Gold.Chemscore.Hbonds>
donor molecule, donor type, donor heavy atom, donor atom, acceptor molecule, acceptor atom, score
      L1  H     8    30       P1  7948  0.94
      L1  H    11    31       P1  7948  0.97
      P1  H  6896  6907       L1    19  0.60

> <Gold.Chemscore.Hbond.Weighted>
-9.1233

> <Gold.Chemscore.Metal.Weighted>
-0.0000

> <Gold.Chemscore.Lipo.Weighted>
-8.4263

> <Gold.Chemscore.Internal_Hbond.Weighted>
0.0000

> <Gold.Chemscore.DEClash.Weighted>
0.1334

> <Gold.Chemscore.DEInternal.Weighted>
1.7178

> <Gold.Chemscore.Rot.Weighted>
3.5878

> <Gold.Chemscore.Internal.Correction.Weighted>
   9.000000E+99

> <Gold.Protein.RotatedTorsions>
[ 6907 6896 6895 6894 ] final  -81.08 input  -60.11 | X-H torsion
[ 7974 7965 7964 7962 ] final  -98.04 input  175.53 | X-H torsion
[ 8008 7997 7996 7995 ] final  105.11 input   59.86 | X-H torsion
[ 10167 10162 10161 10158 ] final  -85.24 input  -65.29 | X-H torsion
[ 10718 10713 10712 10709 ] final  155.86 input   66.30 | X-H torsion
[ 10763 10752 10751 10750 ] final   68.58 input  -60.55 | X-H torsion
[ 11005 11000 10999 10996 ] final -101.88 input  -57.11 | X-H torsion

> <Gold.Protein.ActiveResidues>
 VAL166  LYS551  ARG553  GLY616  TRP617  ASP618  TYR619  PRO620  LYS621  CYS622 
 ASP623  PHE694  ASN695  SER759  ASP760  ASP761  ALA762  ILE779  LEU786  VAL792 
 PHE793  MET794  SER795  GLU796  ALA797  LYS798  CYS799  TRP800  GLU811  SER814 

> <Gold.Protein.RotatedAtoms>
  150.6918  134.3872  159.5060 H   0  0  0  0  0  0  0  0  0  0  0  0  # atno 6907 bound_to 6896
  152.1666  134.8866  160.0547 H   0  0  0  0  0  0  0  0  0  0  0  0  # atno 6908 bound_to 6896
  151.9908  133.3755  159.4180 H   0  0  0  0  0  0  0  0  0  0  0  0  # atno 6909 bound_to 6896
  145.3259  140.9431  143.2689 H   0  0  0  0  0  0  0  0  0  0  0  0  # atno 7974 bound_to 7965
  156.1631  140.3136  155.8841 H   0  0  0  0  0  0  0  0  0  0  0  0  # atno 8008 bound_to 7997
  155.3742  140.0484  157.3062 H   0  0  0  0  0  0  0  0  0  0  0  0  # atno 8009 bound_to 7997
  154.5166  140.2183  155.9066 H   0  0  0  0  0  0  0  0  0  0  0  0  # atno 8010 bound_to 7997
  140.4056  143.2644  151.9085 H   0  0  0  0  0  0  0  0  0  0  0  0  # atno 10167 bound_to 10162
  157.2128  131.0701  151.1959 H   0  0  0  0  0  0  0  0  0  0  0  0  # atno 10718 bound_to 10713
  153.0242  135.5242  154.7156 H   0  0  0  0  0  0  0  0  0  0  0  0  # atno 10763 bound_to 10752
  154.6226  135.2891  155.0311 H   0  0  0  0  0  0  0  0  0  0  0  0  # atno 10764 bound_to 10752
  154.1292  135.6595  153.4971 H   0  0  0  0  0  0  0  0  0  0  0  0  # atno 10765 bound_to 10752
  141.1212  133.8513  157.1288 H   0  0  0  0  0  0  0  0  0  0  0  0  # atno 11005 bound_to 11000
  144.8903  139.4784  143.6681 LP  0  0  0  0  0  0  0  0  0  0  0  0  # atno 17320 bound_to 7965
  146.3064  139.7596  142.9052 LP  0  0  0  0  0  0  0  0  0  0  0  0  # atno 17321 bound_to 7965
  139.4783  144.5589  151.8270 LP  0  0  0  0  0  0  0  0  0  0  0  0  # atno 17342 bound_to 10162
  140.4693  144.1610  150.5916 LP  0  0  0  0  0  0  0  0  0  0  0  0  # atno 17343 bound_to 10162
  157.3655  130.7154  149.6530 LP  0  0  0  0  0  0  0  0  0  0  0  0  # atno 17370 bound_to 10713
  155.9689  130.4213  150.4464 LP  0  0  0  0  0  0  0  0  0  0  0  0  # atno 17371 bound_to 10713
  140.0172  134.9962  157.0517 LP  0  0  0  0  0  0  0  0  0  0  0  0  # atno 17394 bound_to 11000
  140.4500  134.1592  155.7181 LP  0  0  0  0  0  0  0  0  0  0  0  0  # atno 17395 bound_to 11000

$$$$
