AV-unprocessed.smi:281|AV-procd|sdf|2110|dock6
  -GOLD-   2262021403D 1   1.00000     0.00000
 Structure written by MMmdl.
 55 59  0  0  0  0  0  0  0  0  1 V2000
  147.8568  134.6604  158.9143 C   0  0  0  0  0  0  0  0  0  0  0  0
  148.6511  134.6960  157.6049 C   0  0  1  0  0  0  0  0  0  0  0  0
  149.4211  136.0130  157.4333 C   0  0  0  0  0  0  0  0  0  0  0  0
  150.2270  135.9650  156.2178 N   0  0  0  0  0  0  0  0  0  0  0  0
  150.7763  137.1283  155.7800 C   0  0  0  0  0  0  0  0  0  0  0  0
  151.5753  137.1293  154.6785 N   0  0  0  0  0  0  0  0  0  0  0  0
  152.1133  138.2678  154.2320 C   0  0  0  0  0  0  0  0  0  0  0  0
  151.9895  139.4993  154.7283 N   0  0  0  0  0  0  0  0  0  0  0  0
  151.1990  139.5071  155.8393 C   0  0  0  0  0  0  0  0  0  0  0  0
  150.5563  138.3792  156.4251 C   0  0  0  0  0  0  0  0  0  0  0  0
  149.8397  138.7788  157.5469 N   0  0  0  0  0  0  0  0  0  0  0  0
  150.0384  140.0663  157.6145 C   0  0  0  0  0  0  0  0  0  0  0  0
  150.8524  140.5862  156.6343 N   0  0  0  0  0  0  0  0  0  0  0  0
  151.2466  141.9774  156.4707 C   0  0  0  0  0  0  0  0  0  0  0  0
  151.1179  142.8160  157.7644 C   0  0  1  0  0  0  0  0  0  0  0  0
  149.7454  143.0244  158.0497 O   0  0  0  0  0  0  0  0  0  0  0  0
  151.7611  142.1418  158.9697 C   0  0  0  0  0  0  0  0  0  0  0  0
  152.1686  143.3239  159.8381 C   0  0  0  0  0  0  0  0  0  0  0  0
  152.6352  144.2669  158.8882 O   0  0  0  0  0  0  0  0  0  0  0  0
  151.8221  144.1884  157.7209 C   0  0  0  0  0  0  0  0  0  0  0  0
  151.1248  134.8146  156.1762 C   0  0  0  0  0  0  0  0  0  0  0  0
  150.3735  133.4824  156.4372 C   0  0  2  0  0  0  0  0  0  0  0  0
  151.3680  132.3587  156.7136 C   0  0  0  0  0  0  0  0  0  0  0  0
  150.6465  131.1168  156.2192 C   0  0  0  0  0  0  0  0  0  0  0  0
  150.0447  131.5861  155.0286 O   0  0  0  0  0  0  0  0  0  0  0  0
  149.5166  132.8841  155.2794 C   0  0  2  0  0  0  0  0  0  0  0  0
  149.4885  133.6558  153.9528 C   0  0  0  0  0  0  0  0  0  0  0  0
  149.5783  133.6112  157.6210 O   0  0  0  0  0  0  0  0  0  0  0  0
  147.1253  135.4677  158.9521 H   0  0  0  0  0  0  0  0  0  0  0  0
  148.5146  134.7630  159.7778 H   0  0  0  0  0  0  0  0  0  0  0  0
  147.3173  133.7185  159.0163 H   0  0  0  0  0  0  0  0  0  0  0  0
  147.9507  134.5796  156.7775 H   0  0  0  0  0  0  0  0  0  0  0  0
  148.7165  136.8445  157.3823 H   0  0  0  0  0  0  0  0  0  0  0  0
  150.0694  136.1845  158.2942 H   0  0  0  0  0  0  0  0  0  0  0  0
  152.7323  138.1792  153.3514 H   0  0  0  0  0  0  0  0  0  0  0  0
  149.5949  140.6731  158.3903 H   0  0  0  0  0  0  0  0  0  0  0  0
  152.2756  142.0012  156.1090 H   0  0  0  0  0  0  0  0  0  0  0  0
  150.6356  142.4121  155.6785 H   0  0  0  0  0  0  0  0  0  0  0  0
  149.2501  142.8942  157.2555 H   0  0  0  0  0  0  0  0  0  0  0  0
  151.1044  141.4375  159.4822 H   0  0  0  0  0  0  0  0  0  0  0  0
  152.6575  141.5988  158.6657 H   0  0  0  0  0  0  0  0  0  0  0  0
  151.3095  143.7337  160.3716 H   0  0  0  0  0  0  0  0  0  0  0  0
  152.9392  143.0697  160.5661 H   0  0  0  0  0  0  0  0  0  0  0  0
  152.4729  144.2920  156.8534 H   0  0  0  0  0  0  0  0  0  0  0  0
  151.1133  145.0176  157.6985 H   0  0  0  0  0  0  0  0  0  0  0  0
  151.6735  134.7600  155.2372 H   0  0  0  0  0  0  0  0  0  0  0  0
  151.8764  134.9599  156.9538 H   0  0  0  0  0  0  0  0  0  0  0  0
  152.2733  132.4988  156.1210 H   0  0  0  0  0  0  0  0  0  0  0  0
  151.6646  132.2912  157.7608 H   0  0  0  0  0  0  0  0  0  0  0  0
  151.3207  130.2814  156.0299 H   0  0  0  0  0  0  0  0  0  0  0  0
  149.8792  130.7962  156.9258 H   0  0  0  0  0  0  0  0  0  0  0  0
  148.4906  132.7347  155.6168 H   0  0  0  0  0  0  0  0  0  0  0  0
  149.0671  134.6529  154.0793 H   0  0  0  0  0  0  0  0  0  0  0  0
  148.8730  133.1351  153.2192 H   0  0  0  0  0  0  0  0  0  0  0  0
  150.4870  133.7543  153.5275 H   0  0  0  0  0  0  0  0  0  0  0  0
  1  2  1  0  0  0  0
  1 29  1  0  0  0  0
  1 30  1  0  0  0  0
  1 31  1  0  0  0  0
  2 28  1  0  0  0  0
  2  3  1  0  0  0  0
  2 32  1  0  0  0  0
  3  4  1  0  0  0  0
  3 33  1  0  0  0  0
  3 34  1  0  0  0  0
  4  5  1  0  0  0  0
  4 21  1  0  0  0  0
  5 10  1  0  0  0  0
  5  6  2  0  0  0  0
  6  7  1  0  0  0  0
  7  8  2  0  0  0  0
  7 35  1  0  0  0  0
  8  9  1  0  0  0  0
  9 13  1  0  0  0  0
  9 10  2  0  0  0  0
 10 11  1  0  0  0  0
 11 12  2  0  0  0  0
 12 13  1  0  0  0  0
 12 36  1  0  0  0  0
 13 14  1  0  0  0  0
 14 15  1  0  0  0  0
 14 37  1  0  0  0  0
 14 38  1  0  0  0  0
 15 20  1  0  0  0  0
 15 16  1  0  0  0  0
 15 17  1  0  0  0  0
 16 39  1  0  0  0  0
 17 18  1  0  0  0  0
 17 40  1  0  0  0  0
 17 41  1  0  0  0  0
 18 19  1  0  0  0  0
 18 42  1  0  0  0  0
 18 43  1  0  0  0  0
 19 20  1  0  0  0  0
 20 44  1  0  0  0  0
 20 45  1  0  0  0  0
 21 22  1  0  0  0  0
 21 46  1  0  0  0  0
 21 47  1  0  0  0  0
 22 26  1  0  0  0  0
 22 23  1  0  0  0  0
 22 28  1  0  0  0  0
 23 24  1  0  0  0  0
 23 48  1  0  0  0  0
 23 49  1  0  0  0  0
 24 25  1  0  0  0  0
 24 50  1  0  0  0  0
 24 51  1  0  0  0  0
 25 26  1  0  0  0  0
 26 27  1  0  0  0  0
 26 52  1  0  0  0  0
 27 53  1  0  0  0  0
 27 54  1  0  0  0  0
 27 55  1  0  0  0  0
M  END
> <s_m_source_file>
AV-unprocessed.smi

> <i_m_source_file_index>
281

> <i_lp_mmshare_version>
43012

> <i_f3d_flags>
0

> <s_epik_input>
W0NIM11bQ0BASF0xT1tDSDJdW0NIMl1bQ0BAXTEyW0NIMl1OKFtDSDJdW0NASF0oTzIpW0NIM10pYyhuW2NIXW4zKWMoYzM0KW5bY0hdbjRbQ0gyXVtDQEBdNShbT0hdKVtDSDJdW0NIMl1PW0NIMl01

> <s_epik_cmdline>
J2VwaWtfcHl0aG9uJywgJy1waCcsICc3LjAnLCAnLXRuJywgJzgnLCAnLW1hJywgJzIwMCcsICctbWV0YWxfYmluZGluZycsICctaW1hZScsICc8aW5maWxlLm1hZT4nLCAnLW9tYWUnLCAnPG91dGZpbGUubWFlPic=

> <r_lp_tautomer_probability>
1

> <r_epik_Ionization_Penalty>
0.00571331

> <r_epik_Ionization_Penalty_Charging>
0

> <r_epik_Ionization_Penalty_Neutral>
0.00571331

> <r_epik_State_Penalty>
0.00399586

> <r_epik_Charging_Adjusted_Penalty>
0.00399586

> <i_epik_Tot_Q>
0

> <i_epik_Tot_abs_Q>
0

> <r_epik_Metal_State_Penalty>
-0

> <b_epik_Metal_Only>
0

> <s_lp_Force_Field>
OPLS_2005

> <r_lp_Energy>
52.955

> <b_lp_Chiralities_Consistent>
1

> <s_lp_Variant>
AV-unprocessed.smi:281-10

> <Gold.Version>
5.8.1

> <Gold.Id.Protein>
6NUR|6NUR_protein|mol2

> <Gold.PLP.Fitness>
50.3487

> <Gold.PLP.PLP>
-42.6159

> <Gold.PLP.part.hbond>
-3.7653

> <Gold.PLP.part.metal>
0.0000

> <Gold.PLP.part.buried>
-7.8370

> <Gold.PLP.part.nonpolar>
-31.1739

> <Gold.PLP.part.repulsive>
0.2247

> <Gold.PLP.ligand.clash>
0.0000

> <Gold.PLP.ligand.torsion>
0.6663

> <Gold.PLP.Chemscore.Hbond>
2.9353

> <Gold.PLP.Chemscore.CHOScore>
0.0000

> <Gold.PLP.Chemscore.Metal>
0.0000

> <Gold.Chemscore.Hbonds>
donor molecule, donor type, donor heavy atom, donor atom, acceptor molecule, acceptor atom, score
      P1  H  6896  6908       L1    28  0.96
      P1  H  7989  7998       L1     8  0.93
      P1  H 10752 10764       L1     6  0.98

> <Gold.PLP.Chemscore.Internal.Correction>
0.2596

> <Gold.Rescore>
     Score         DG    S(hbond)    S(metal)    S(lipo)     H(rot)  DE(clash)    DE(int)     intcor
     15.17     -18.62       2.19        0.00      95.68       2.09       0.26       3.19       ----

> <Gold.Chemscore.Fitness>
15.1697

> <Gold.Chemscore.DG>
-18.6215

> <Gold.Chemscore.ZeroCoef>
-5.4800

> <Gold.Chemscore.Hbond>
2.1868

> <Gold.Chemscore.Metal>
0.0000

> <Gold.Chemscore.Lipo>
95.6835

> <Gold.Chemscore.Internal_Hbond>
0.0000

> <Gold.Chemscore.DEClash>
0.2641

> <Gold.Chemscore.DEInternal>
3.1877

> <Gold.Chemscore.Rot>
2.0927

> <Gold.Chemscore.Internal.Correction>
   9.000000E+99

> <Gold.Chemscore.Hbonds>
donor molecule, donor type, donor heavy atom, donor atom, acceptor molecule, acceptor atom, score
      L1  H    16    39       P1  8028  0.02
      P1  H  6896  6908       L1    28  0.47
      P1  H  7989  7998       L1     8  0.77
      P1  H 10752 10764       L1     6  0.50

> <Gold.Chemscore.Hbond.Weighted>
-7.3039

> <Gold.Chemscore.Metal.Weighted>
-0.0000

> <Gold.Chemscore.Lipo.Weighted>
-11.1950

> <Gold.Chemscore.Internal_Hbond.Weighted>
0.0000

> <Gold.Chemscore.DEClash.Weighted>
0.2641

> <Gold.Chemscore.DEInternal.Weighted>
3.1877

> <Gold.Chemscore.Rot.Weighted>
5.3573

> <Gold.Chemscore.Internal.Correction.Weighted>
   9.000000E+99

> <Gold.Protein.RotatedTorsions>
[ 6907 6896 6895 6894 ] final  117.55 input  -60.11 | X-H torsion
[ 7974 7965 7964 7962 ] final  -22.46 input  175.53 | X-H torsion
[ 8008 7997 7996 7995 ] final -113.85 input   59.86 | X-H torsion
[ 10167 10162 10161 10158 ] final  -11.58 input  -65.29 | X-H torsion
[ 10718 10713 10712 10709 ] final   62.46 input   66.30 | X-H torsion
[ 10763 10752 10751 10750 ] final  -77.71 input  -60.55 | X-H torsion
[ 11005 11000 10999 10996 ] final -117.60 input  -57.11 | X-H torsion

> <Gold.Protein.ActiveResidues>
 VAL166  LYS551  ARG553  GLY616  TRP617  ASP618  TYR619  PRO620  LYS621  CYS622 
 ASP623  PHE694  ASN695  SER759  ASP760  ASP761  ALA762  ILE779  LEU786  VAL792 
 PHE793  MET794  SER795  GLU796  ALA797  LYS798  CYS799  TRP800  GLU811  SER814 

> <Gold.Protein.RotatedAtoms>
  152.4604  133.7810  159.6850 H   0  0  0  0  0  0  0  0  0  0  0  0  # atno 6907 bound_to 6896
  150.8546  133.7725  159.3020 H   0  0  0  0  0  0  0  0  0  0  0  0  # atno 6908 bound_to 6896
  151.5310  135.1071  159.9954 H   0  0  0  0  0  0  0  0  0  0  0  0  # atno 6909 bound_to 6896
  146.1674  140.4482  142.8546 H   0  0  0  0  0  0  0  0  0  0  0  0  # atno 7974 bound_to 7965
  155.0271  140.0393  157.2460 H   0  0  0  0  0  0  0  0  0  0  0  0  # atno 8008 bound_to 7997
  154.7328  140.2734  155.6418 H   0  0  0  0  0  0  0  0  0  0  0  0  # atno 8009 bound_to 7997
  156.2845  140.2681  156.2033 H   0  0  0  0  0  0  0  0  0  0  0  0  # atno 8010 bound_to 7997
  140.7142  143.5624  150.9181 H   0  0  0  0  0  0  0  0  0  0  0  0  # atno 10167 bound_to 10162
  157.5902  130.9051  149.9591 H   0  0  0  0  0  0  0  0  0  0  0  0  # atno 10718 bound_to 10713
  154.5165  135.5754  153.6646 H   0  0  0  0  0  0  0  0  0  0  0  0  # atno 10763 bound_to 10752
  152.9908  135.6171  154.2810 H   0  0  0  0  0  0  0  0  0  0  0  0  # atno 10764 bound_to 10752
  154.2728  135.2853  155.2710 H   0  0  0  0  0  0  0  0  0  0  0  0  # atno 10765 bound_to 10752
  141.0344  133.9932  157.3094 H   0  0  0  0  0  0  0  0  0  0  0  0  # atno 11005 bound_to 11000
  144.8112  140.6389  143.6414 LP  0  0  0  0  0  0  0  0  0  0  0  0  # atno 17320 bound_to 7965
  145.4431  139.1533  143.3959 LP  0  0  0  0  0  0  0  0  0  0  0  0  # atno 17321 bound_to 7965
  139.9350  143.6449  152.3067 LP  0  0  0  0  0  0  0  0  0  0  0  0  # atno 17342 bound_to 10162
  139.6913  144.7646  151.1434 LP  0  0  0  0  0  0  0  0  0  0  0  0  # atno 17343 bound_to 10162
  156.0956  130.3659  150.0312 LP  0  0  0  0  0  0  0  0  0  0  0  0  # atno 17370 bound_to 10713
  156.8436  130.9434  151.3630 LP  0  0  0  0  0  0  0  0  0  0  0  0  # atno 17371 bound_to 10713
  139.9230  135.0201  156.8133 LP  0  0  0  0  0  0  0  0  0  0  0  0  # atno 17394 bound_to 11000
  140.6349  133.9871  155.7679 LP  0  0  0  0  0  0  0  0  0  0  0  0  # atno 17395 bound_to 11000

$$$$
