AV-unprocessed.smi:249|AV-procd|sdf|1910|dock1
  -GOLD-   2262020593D 1   1.00000     0.00000
 Structure written by MMmdl.
 64 67  0  0  0  0  0  0  0  0  2 V2000
  153.1808  142.5022  162.1236 C   0  0  0  0  0  0  0  0  0  0  0  0
  153.1337  143.2085  160.7587 C   0  0  0  0  0  0  0  0  0  0  0  0
  152.2206  142.5535  159.7771 N   0  3  2  0  0  0  0  0  0  0  0  0
  152.6593  141.1657  159.4514 C   0  0  0  0  0  0  0  0  0  0  0  0
  151.6606  140.4396  158.5400 C   0  0  0  0  0  0  0  0  0  0  0  0
  151.4474  141.2241  157.2354 C   0  0  1  0  0  0  0  0  0  0  0  0
  150.5651  140.5405  156.2796 N   0  0  0  0  0  0  0  0  0  0  0  0
  149.8032  141.3801  155.3614 C   0  0  0  0  0  0  0  0  0  0  0  0
  151.0206  139.3943  155.7184 C   0  0  0  0  0  0  0  0  0  0  0  0
  151.7929  139.4488  154.6012 N   0  0  0  0  0  0  0  0  0  0  0  0
  152.2508  138.3213  154.0487 C   0  0  0  0  0  0  0  0  0  0  0  0
  152.0562  137.0606  154.4412 N   0  0  0  0  0  0  0  0  0  0  0  0
  151.2704  137.0026  155.5546 C   0  0  0  0  0  0  0  0  0  0  0  0
  150.7174  138.1127  156.2517 C   0  0  0  0  0  0  0  0  0  0  0  0
  149.9789  137.6715  157.3422 N   0  0  0  0  0  0  0  0  0  0  0  0
  150.0949  136.3722  157.2979 C   0  0  0  0  0  0  0  0  0  0  0  0
  150.8358  135.8841  156.2444 N   0  0  0  0  0  0  0  0  0  0  0  0
  151.1252  134.4886  155.9632 C   0  0  0  0  0  0  0  0  0  0  0  0
  149.8901  133.5495  155.9819 C   0  0  1  0  0  0  0  0  0  0  0  0
  148.8582  134.0485  154.9440 C   0  0  0  0  0  0  0  0  0  0  0  0
  149.4320  134.1748  153.6585 O   0  0  0  0  0  0  0  0  0  0  0  0
  150.2189  132.0372  155.8090 C   0  0  1  0  0  0  0  0  0  0  0  0
  150.8035  131.6302  154.4641 C   0  0  0  0  0  0  0  0  0  0  0  0
  151.4729  130.2925  154.7665 C   0  0  0  0  0  0  0  0  0  0  0  0
  151.8099  130.3220  156.1476 O   0  0  0  0  0  0  0  0  0  0  0  0
  151.3301  131.5252  156.7328 C   0  0  0  0  0  0  0  0  0  0  0  0
  150.9925  142.6496  157.5947 C   0  0  0  0  0  0  0  0  0  0  0  0
  151.9898  143.3605  158.5340 C   0  0  1  0  0  0  0  0  0  0  0  0
  151.4654  144.7838  158.8181 C   0  0  0  0  0  0  0  0  0  0  0  0
  153.7225  143.1126  162.8468 H   0  0  0  0  0  0  0  0  0  0  0  0
  153.6938  141.5422  162.0785 H   0  0  0  0  0  0  0  0  0  0  0  0
  152.1783  142.3374  162.5197 H   0  0  0  0  0  0  0  0  0  0  0  0
  152.8010  144.2231  160.9651 H   0  0  0  0  0  0  0  0  0  0  0  0
  154.1368  143.2893  160.3376 H   0  0  0  0  0  0  0  0  0  0  0  0
  153.6424  141.1965  158.9789 H   0  0  0  0  0  0  0  0  0  0  0  0
  152.7651  140.5721  160.3577 H   0  0  0  0  0  0  0  0  0  0  0  0
  152.0342  139.4379  158.3268 H   0  0  0  0  0  0  0  0  0  0  0  0
  150.7161  140.3136  159.0703 H   0  0  0  0  0  0  0  0  0  0  0  0
  152.4147  141.3101  156.7381 H   0  0  0  0  0  0  0  0  0  0  0  0
  149.0373  140.7954  154.8502 H   0  0  0  0  0  0  0  0  0  0  0  0
  150.4464  141.8339  154.6071 H   0  0  0  0  0  0  0  0  0  0  0  0
  149.3017  142.1806  155.9057 H   0  0  0  0  0  0  0  0  0  0  0  0
  152.8606  138.4467  153.1660 H   0  0  0  0  0  0  0  0  0  0  0  0
  149.6273  135.7290  158.0296 H   0  0  0  0  0  0  0  0  0  0  0  0
  151.6025  134.4534  154.9832 H   0  0  0  0  0  0  0  0  0  0  0  0
  151.8714  134.1397  156.6780 H   0  0  0  0  0  0  0  0  0  0  0  0
  149.4059  133.6633  156.9522 H   0  0  0  0  0  0  0  0  0  0  0  0
  148.0032  133.3755  154.8833 H   0  0  0  0  0  0  0  0  0  0  0  0
  148.4572  135.0177  155.2424 H   0  0  0  0  0  0  0  0  0  0  0  0
  149.1559  134.9979  153.2851 H   0  0  0  0  0  0  0  0  0  0  0  0
  149.3204  131.4455  155.9909 H   0  0  0  0  0  0  0  0  0  0  0  0
  150.0603  131.5284  153.6756 H   0  0  0  0  0  0  0  0  0  0  0  0
  151.5506  132.3555  154.1383 H   0  0  0  0  0  0  0  0  0  0  0  0
  150.7783  129.4689  154.5985 H   0  0  0  0  0  0  0  0  0  0  0  0
  152.3537  130.1244  154.1466 H   0  0  0  0  0  0  0  0  0  0  0  0
  152.1550  132.2381  156.7752 H   0  0  0  0  0  0  0  0  0  0  0  0
  150.9841  131.3474  157.7513 H   0  0  0  0  0  0  0  0  0  0  0  0
  150.8804  143.2302  156.6783 H   0  0  0  0  0  0  0  0  0  0  0  0
  150.0122  142.6276  158.0734 H   0  0  0  0  0  0  0  0  0  0  0  0
  152.9437  143.4515  158.0116 H   0  0  0  0  0  0  0  0  0  0  0  0
  151.1571  145.2761  157.8950 H   0  0  0  0  0  0  0  0  0  0  0  0
  152.2259  145.4267  159.2601 H   0  0  0  0  0  0  0  0  0  0  0  0
  150.6010  144.7660  159.4826 H   0  0  0  0  0  0  0  0  0  0  0  0
  151.3225  142.4738  160.2326 H   0  0  0  0  0  0  0  0  0  0  0  0
  1  2  1  0  0  0  0
  1 30  1  0  0  0  0
  1 31  1  0  0  0  0
  1 32  1  0  0  0  0
  2  3  1  0  0  0  0
  2 33  1  0  0  0  0
  2 34  1  0  0  0  0
  3 28  1  0  0  0  0
  3  4  1  0  0  0  0
  3 64  1  0  0  0  0
  4  5  1  0  0  0  0
  4 35  1  0  0  0  0
  4 36  1  0  0  0  0
  5  6  1  0  0  0  0
  5 37  1  0  0  0  0
  5 38  1  0  0  0  0
  6  7  1  0  0  0  0
  6 27  1  0  0  0  0
  6 39  1  0  0  0  0
  7  8  1  0  0  0  0
  7  9  1  0  0  0  0
  8 40  1  0  0  0  0
  8 41  1  0  0  0  0
  8 42  1  0  0  0  0
  9 14  1  0  0  0  0
  9 10  2  0  0  0  0
 10 11  1  0  0  0  0
 11 12  2  0  0  0  0
 11 43  1  0  0  0  0
 12 13  1  0  0  0  0
 13 17  1  0  0  0  0
 13 14  2  0  0  0  0
 14 15  1  0  0  0  0
 15 16  2  0  0  0  0
 16 17  1  0  0  0  0
 16 44  1  0  0  0  0
 17 18  1  0  0  0  0
 18 19  1  0  0  0  0
 18 45  1  0  0  0  0
 18 46  1  0  0  0  0
 19 20  1  0  0  0  0
 19 22  1  0  0  0  0
 19 47  1  0  0  0  0
 20 21  1  0  0  0  0
 20 48  1  0  0  0  0
 20 49  1  0  0  0  0
 21 50  1  0  0  0  0
 22 26  1  0  0  0  0
 22 23  1  0  0  0  0
 22 51  1  0  0  0  0
 23 24  1  0  0  0  0
 23 52  1  0  0  0  0
 23 53  1  0  0  0  0
 24 25  1  0  0  0  0
 24 54  1  0  0  0  0
 24 55  1  0  0  0  0
 25 26  1  0  0  0  0
 26 56  1  0  0  0  0
 26 57  1  0  0  0  0
 27 28  1  0  0  0  0
 27 58  1  0  0  0  0
 27 59  1  0  0  0  0
 28 29  1  0  0  0  0
 28 60  1  0  0  0  0
 29 61  1  0  0  0  0
 29 62  1  0  0  0  0
 29 63  1  0  0  0  0
M  CHG  1   3   1
M  END
> <s_m_source_file>
AV-unprocessed.smi

> <i_m_source_file_index>
249

> <i_lp_mmshare_version>
43012

> <i_f3d_flags>
0

> <s_epik_input>
W0NIM11bQ0gyXU4xW0NIMl1bQ0gyXVtDQEhdKFtDSDJdW0NASF0xW0NIM10pTihbQ0gzXSljKG5bY0hdbjIpYyhjMjMpbltjSF1uM1tDSDJdW0NASF0oW0NIMl1bT0hdKVtDQEBIXTRbQ0gyXVtDSDJdT1tDSDJdNA==

> <s_epik_cmdline>
J2VwaWtfcHl0aG9uJywgJy1waCcsICc3LjAnLCAnLXRuJywgJzgnLCAnLW1hJywgJzIwMCcsICctbWV0YWxfYmluZGluZycsICctaW1hZScsICc8aW5maWxlLm1hZT4nLCAnLW9tYWUnLCAnPG91dGZpbGUubWFlPic=

> <r_lp_tautomer_probability>
1

> <r_epik_Ionization_Penalty>
0.00294688

> <r_epik_Ionization_Penalty_Charging>
0.00169971

> <r_epik_Ionization_Penalty_Neutral>
0.00124717

> <r_epik_State_Penalty>
-0

> <r_epik_Charging_Adjusted_Penalty>
0.00169971

> <i_epik_Tot_Q>
1

> <i_epik_Tot_abs_Q>
1

> <r_epik_Metal_State_Penalty>
-0

> <b_epik_Metal_Only>
0

> <s_lp_Force_Field>
OPLS_2005

> <r_lp_Energy>
54.6385

> <b_lp_Chiralities_Consistent>
1

> <s_lp_Variant>
AV-unprocessed.smi:249-13

> <Gold.Version>
5.8.1

> <Gold.Id.Protein>
6NUR|6NUR_protein|mol2

> <Gold.PLP.Fitness>
56.7928

> <Gold.PLP.PLP>
-48.8448

> <Gold.PLP.part.hbond>
-3.0000

> <Gold.PLP.part.metal>
0.0000

> <Gold.PLP.part.buried>
-8.1879

> <Gold.PLP.part.nonpolar>
-36.9117

> <Gold.PLP.part.repulsive>
0.3005

> <Gold.PLP.ligand.clash>
0.0000

> <Gold.PLP.ligand.torsion>
1.0643

> <Gold.PLP.Chemscore.Hbond>
3.0000

> <Gold.PLP.Chemscore.CHOScore>
0.0000

> <Gold.PLP.Chemscore.Metal>
0.0000

> <Gold.Chemscore.Hbonds>
donor molecule, donor type, donor heavy atom, donor atom, acceptor molecule, acceptor atom, score
      L1  H    21    50       P1  7948  0.80
      P1  H  7989  7998       L1    10  1.00
      P1  H 10752 10764       L1    12  0.93

> <Gold.PLP.Chemscore.Internal.Correction>
1.0766

> <Gold.Rescore>
     Score         DG    S(hbond)    S(metal)    S(lipo)     H(rot)  DE(clash)    DE(int)     intcor
     18.74     -19.70       2.38        0.00     116.93       2.90       0.05       0.90       ----

> <Gold.Chemscore.Fitness>
18.7425

> <Gold.Chemscore.DG>
-19.6981

> <Gold.Chemscore.ZeroCoef>
-5.4800

> <Gold.Chemscore.Hbond>
2.3841

> <Gold.Chemscore.Metal>
0.0000

> <Gold.Chemscore.Lipo>
116.9298

> <Gold.Chemscore.Internal_Hbond>
0.0000

> <Gold.Chemscore.DEClash>
0.0546

> <Gold.Chemscore.DEInternal>
0.9010

> <Gold.Chemscore.Rot>
2.9006

> <Gold.Chemscore.Internal.Correction>
   9.000000E+99

> <Gold.Chemscore.Hbonds>
donor molecule, donor type, donor heavy atom, donor atom, acceptor molecule, acceptor atom, score
      L1  H    21    50       P1  7948  0.11
      P1  H  7989  7998       L1    10  0.84
      P1  H 10752 10764       L1    12  0.50

> <Gold.Chemscore.Hbond.Weighted>
-7.9630

> <Gold.Chemscore.Metal.Weighted>
-0.0000

> <Gold.Chemscore.Lipo.Weighted>
-13.6808

> <Gold.Chemscore.Internal_Hbond.Weighted>
0.0000

> <Gold.Chemscore.DEClash.Weighted>
0.0546

> <Gold.Chemscore.DEInternal.Weighted>
0.9010

> <Gold.Chemscore.Rot.Weighted>
7.4256

> <Gold.Chemscore.Internal.Correction.Weighted>
   9.000000E+99

> <Gold.Protein.RotatedTorsions>
[ 6907 6896 6895 6894 ] final  128.53 input  -60.11 | X-H torsion
[ 7974 7965 7964 7962 ] final   28.34 input  175.53 | X-H torsion
[ 8008 7997 7996 7995 ] final  -78.69 input   59.86 | X-H torsion
[ 10167 10162 10161 10158 ] final  -60.84 input  -65.29 | X-H torsion
[ 10718 10713 10712 10709 ] final  110.23 input   66.30 | X-H torsion
[ 10763 10752 10751 10750 ] final  -68.67 input  -60.55 | X-H torsion
[ 11005 11000 10999 10996 ] final -125.77 input  -57.11 | X-H torsion

> <Gold.Protein.ActiveResidues>
 VAL166  LYS551  ARG553  GLY616  TRP617  ASP618  TYR619  PRO620  LYS621  CYS622 
 ASP623  PHE694  ASN695  SER759  ASP760  ASP761  ALA762  ILE779  LEU786  VAL792 
 PHE793  MET794  SER795  GLU796  ALA797  LYS798  CYS799  TRP800  GLU811  SER814 

> <Gold.Protein.RotatedAtoms>
  152.3710  133.6419  159.6087 H   0  0  0  0  0  0  0  0  0  0  0  0  # atno 6907 bound_to 6896
  150.7669  133.9270  159.3424 H   0  0  0  0  0  0  0  0  0  0  0  0  # atno 6908 bound_to 6896
  151.7092  135.0917  160.0316 H   0  0  0  0  0  0  0  0  0  0  0  0  # atno 6909 bound_to 6896
  146.1734  139.7069  142.8951 H   0  0  0  0  0  0  0  0  0  0  0  0  # atno 7974 bound_to 7965
  154.5713  140.0690  156.8969 H   0  0  0  0  0  0  0  0  0  0  0  0  # atno 8008 bound_to 7997
  155.2629  140.3360  155.4253 H   0  0  0  0  0  0  0  0  0  0  0  0  # atno 8009 bound_to 7997
  156.2120  140.1763  156.7658 H   0  0  0  0  0  0  0  0  0  0  0  0  # atno 8010 bound_to 7997
  140.6045  143.2370  151.5853 H   0  0  0  0  0  0  0  0  0  0  0  0  # atno 10167 bound_to 10162
  157.6504  131.0929  150.6570 H   0  0  0  0  0  0  0  0  0  0  0  0  # atno 10718 bound_to 10713
  154.3924  135.6050  153.5850 H   0  0  0  0  0  0  0  0  0  0  0  0  # atno 10763 bound_to 10752
  152.9787  135.5887  154.4282 H   0  0  0  0  0  0  0  0  0  0  0  0  # atno 10764 bound_to 10752
  154.4068  135.2843  155.2040 H   0  0  0  0  0  0  0  0  0  0  0  0  # atno 10765 bound_to 10752
  140.9735  134.0772  157.3843 H   0  0  0  0  0  0  0  0  0  0  0  0  # atno 11005 bound_to 11000
  145.4278  141.0412  143.2928 LP  0  0  0  0  0  0  0  0  0  0  0  0  # atno 17320 bound_to 7965
  144.8198  139.5811  143.6992 LP  0  0  0  0  0  0  0  0  0  0  0  0  # atno 17321 bound_to 7965
  139.5315  144.2903  152.1157 LP  0  0  0  0  0  0  0  0  0  0  0  0  # atno 17342 bound_to 10162
  140.2090  144.4582  150.6395 LP  0  0  0  0  0  0  0  0  0  0  0  0  # atno 17343 bound_to 10162
  156.6882  130.4587  149.5607 LP  0  0  0  0  0  0  0  0  0  0  0  0  # atno 17370 bound_to 10713
  156.1880  130.6542  151.1029 LP  0  0  0  0  0  0  0  0  0  0  0  0  # atno 17371 bound_to 10713
  139.8921  135.0123  156.6830 LP  0  0  0  0  0  0  0  0  0  0  0  0  # atno 17394 bound_to 11000
  140.7293  133.9073  155.8200 LP  0  0  0  0  0  0  0  0  0  0  0  0  # atno 17395 bound_to 11000

$$$$
