AV-unprocessed.smi:101|AV-procd|sdf|919|dock8
  -GOLD-   2262017423D 1   1.00000     0.00000
 Structure written by MMmdl.
 44 46  0  0  0  0  0  0  0  0  1 V2000
  155.4322  133.4612  159.6267 C   0  0  0  0  0  0  0  0  0  0  0  0
  155.3076  133.7564  161.1122 C   0  0  0  0  0  0  0  0  0  0  0  0
  154.9479  134.9776  161.5835 C   0  0  0  0  0  0  0  0  0  0  0  0
  154.8282  135.2774  162.9338 N   0  0  0  0  0  0  0  0  0  0  0  0
  154.4393  136.6613  163.3989 C   0  0  2  0  0  0  0  0  0  0  0  0
  154.3071  137.4846  162.2805 O   0  0  0  0  0  0  0  0  0  0  0  0
  154.8991  138.7486  162.5465 C   0  0  2  0  0  0  0  0  0  0  0  0
  155.2709  139.4661  161.2414 C   0  0  0  0  0  0  0  0  0  0  0  0
  154.5320  140.6727  161.1506 O   0  0  0  0  0  0  0  0  0  0  0  0
  153.7092  140.8828  160.1050 C   0  0  0  0  0  0  0  0  0  0  0  0
  153.5330  140.0639  159.2005 O   0  0  0  0  0  0  0  0  0  0  0  0
  153.0321  142.2108  160.1573 C   0  0  0  0  0  0  0  0  0  0  0  0
  152.9391  142.8930  161.3928 C   0  0  0  0  0  0  0  0  0  0  0  0
  152.3075  144.1494  161.4731 C   0  0  0  0  0  0  0  0  0  0  0  0
  151.7627  144.7400  160.3180 C   0  0  0  0  0  0  0  0  0  0  0  0
  151.8494  144.0721  159.0826 C   0  0  0  0  0  0  0  0  0  0  0  0
  152.4790  142.8147  159.0009 C   0  0  0  0  0  0  0  0  0  0  0  0
  156.0691  138.4188  163.4823 C   0  0  2  0  0  0  0  0  0  0  0  0
  157.2168  138.0229  162.7535 O   0  0  0  0  0  0  0  0  0  0  0  0
  155.5313  137.2556  164.3084 C   0  0  1  0  0  0  0  0  0  0  0  0
  154.9838  137.7362  165.5206 O   0  0  0  0  0  0  0  0  0  0  0  0
  155.1194  134.2843  163.8911 C   0  0  0  0  0  0  0  0  0  0  0  0
  155.0706  134.4871  165.1037 O   0  0  0  0  0  0  0  0  0  0  0  0
  155.4825  133.0284  163.4080 N   0  0  0  0  0  0  0  0  0  0  0  0
  155.5962  132.6770  162.0606 C   0  0  0  0  0  0  0  0  0  0  0  0
  155.9219  131.5304  161.7575 O   0  0  0  0  0  0  0  0  0  0  0  0
  155.6856  132.3126  164.0902 H   0  0  0  0  0  0  0  0  0  0  0  0
  155.1991  134.3361  159.0192 H   0  0  0  0  0  0  0  0  0  0  0  0
  154.7483  132.6621  159.3381 H   0  0  0  0  0  0  0  0  0  0  0  0
  156.4481  133.1475  159.3842 H   0  0  0  0  0  0  0  0  0  0  0  0
  154.7500  135.7573  160.8626 H   0  0  0  0  0  0  0  0  0  0  0  0
  153.4603  136.5771  163.8750 H   0  0  0  0  0  0  0  0  0  0  0  0
  154.1755  139.3475  163.1026 H   0  0  0  0  0  0  0  0  0  0  0  0
  156.3359  139.7019  161.2356 H   0  0  0  0  0  0  0  0  0  0  0  0
  155.0672  138.8269  160.3809 H   0  0  0  0  0  0  0  0  0  0  0  0
  153.3521  142.4605  162.2928 H   0  0  0  0  0  0  0  0  0  0  0  0
  152.2424  144.6606  162.4222 H   0  0  0  0  0  0  0  0  0  0  0  0
  151.2796  145.7041  160.3795 H   0  0  0  0  0  0  0  0  0  0  0  0
  151.4329  144.5250  158.1950 H   0  0  0  0  0  0  0  0  0  0  0  0
  152.5281  142.3296  158.0369 H   0  0  0  0  0  0  0  0  0  0  0  0
  156.3482  139.2757  164.0974 H   0  0  0  0  0  0  0  0  0  0  0  0
  157.9558  138.5285  163.0557 H   0  0  0  0  0  0  0  0  0  0  0  0
  156.3001  136.5171  164.5428 H   0  0  0  0  0  0  0  0  0  0  0  0
  155.1746  138.6589  165.5922 H   0  0  0  0  0  0  0  0  0  0  0  0
  1  2  1  0  0  0  0
  1 28  1  0  0  0  0
  1 29  1  0  0  0  0
  1 30  1  0  0  0  0
  2 25  1  0  0  0  0
  2  3  2  0  0  0  0
  3  4  1  0  0  0  0
  3 31  1  0  0  0  0
  4  5  1  0  0  0  0
  4 22  1  0  0  0  0
  5 20  1  0  0  0  0
  5  6  1  0  0  0  0
  5 32  1  0  0  0  0
  6  7  1  0  0  0  0
  7  8  1  0  0  0  0
  7 18  1  0  0  0  0
  7 33  1  0  0  0  0
  8  9  1  0  0  0  0
  8 34  1  0  0  0  0
  8 35  1  0  0  0  0
  9 10  1  0  0  0  0
 10 11  2  0  0  0  0
 10 12  1  0  0  0  0
 12 17  1  0  0  0  0
 12 13  2  0  0  0  0
 13 14  1  0  0  0  0
 13 36  1  0  0  0  0
 14 15  2  0  0  0  0
 14 37  1  0  0  0  0
 15 16  1  0  0  0  0
 15 38  1  0  0  0  0
 16 17  2  0  0  0  0
 16 39  1  0  0  0  0
 17 40  1  0  0  0  0
 18 19  1  0  0  0  0
 18 20  1  0  0  0  0
 18 41  1  0  0  0  0
 19 42  1  0  0  0  0
 20 21  1  0  0  0  0
 20 43  1  0  0  0  0
 21 44  1  0  0  0  0
 22 23  2  0  0  0  0
 22 24  1  0  0  0  0
 24 27  1  0  0  0  0
 24 25  1  0  0  0  0
 25 26  2  0  0  0  0
M  END
> <s_m_source_file>
AV-unprocessed.smi

> <i_m_source_file_index>
101

> <i_lp_mmshare_version>
43012

> <i_f3d_flags>
0

> <s_epik_input>
Tz1jMVtuSF1jKD1PKW4oW2NIXWMxW0NIM10pW0NAQEhdMk9bQ0BIXShbQ0BASF0oW09IXSlbQ0BIXTJbT0hdKVtDSDJdT0MoPU8pYzNbY0hdW2NIXVtjSF1bY0hdW2NIXTM=

> <s_epik_cmdline>
J2VwaWtfcHl0aG9uJywgJy1waCcsICc3LjAnLCAnLXRuJywgJzgnLCAnLW1hJywgJzIwMCcsICctbWV0YWxfYmluZGluZycsICctaW1hZScsICc8aW5maWxlLm1hZT4nLCAnLW9tYWUnLCAnPG91dGZpbGUubWFlPic=

> <r_lp_tautomer_probability>
0.999537

> <r_epik_Ionization_Penalty>
0.00263537

> <r_epik_Ionization_Penalty_Charging>
0.00263428

> <r_epik_Ionization_Penalty_Neutral>
1.09111e-06

> <r_epik_State_Penalty>
0.00183335

> <r_epik_Charging_Adjusted_Penalty>
0.00446763

> <i_epik_Tot_Q>
0

> <i_epik_Tot_abs_Q>
0

> <r_epik_Metal_State_Penalty>
1.00528

> <b_epik_Metal_Only>
0

> <s_epik_Chemistry_Notes>
This compound has an ester and may undergo hydrolysis at high or low pH. This compound contains an acetal/aminal-like group ( X-CH(R)-Y where X, Y are N, S, or O) that may be acid/base labile, releasing an aldehyde.

> <s_lp_Force_Field>
OPLS_2005

> <r_lp_Energy>
30.9331

> <b_lp_Chiralities_Consistent>
1

> <s_lp_Variant>
AV-unprocessed.smi:101-7

> <Gold.Version>
5.8.1

> <Gold.Id.Protein>
6NUR|6NUR_protein|mol2

> <Gold.PLP.Fitness>
48.9767

> <Gold.PLP.PLP>
-48.9206

> <Gold.PLP.part.hbond>
-2.5715

> <Gold.PLP.part.metal>
0.0000

> <Gold.PLP.part.buried>
-6.0553

> <Gold.PLP.part.nonpolar>
-39.0931

> <Gold.PLP.part.repulsive>
0.0858

> <Gold.PLP.ligand.clash>
0.0000

> <Gold.PLP.ligand.torsion>
1.3229

> <Gold.PLP.Chemscore.Hbond>
0.8882

> <Gold.PLP.Chemscore.CHOScore>
0.0000

> <Gold.PLP.Chemscore.Metal>
0.0000

> <Gold.Chemscore.Hbonds>
donor molecule, donor type, donor heavy atom, donor atom, acceptor molecule, acceptor atom, score
      P1  H  7997  8010       L1    11  0.18

> <Gold.PLP.Chemscore.Internal.Correction>
0.0373

> <Gold.Rescore>
     Score         DG    S(hbond)    S(metal)    S(lipo)     H(rot)  DE(clash)    DE(int)     intcor
      9.89     -12.22       0.96        0.00     102.70       3.32       0.04       2.29       ----

> <Gold.Chemscore.Fitness>
9.8852

> <Gold.Chemscore.DG>
-12.2151

> <Gold.Chemscore.ZeroCoef>
-5.4800

> <Gold.Chemscore.Hbond>
0.9613

> <Gold.Chemscore.Metal>
0.0000

> <Gold.Chemscore.Lipo>
102.7042

> <Gold.Chemscore.Internal_Hbond>
0.0000

> <Gold.Chemscore.DEClash>
0.0383

> <Gold.Chemscore.DEInternal>
2.2917

> <Gold.Chemscore.Rot>
3.3172

> <Gold.Chemscore.Internal.Correction>
   9.000000E+99

> <Gold.Chemscore.Hbonds>
donor molecule, donor type, donor heavy atom, donor atom, acceptor molecule, acceptor atom, score
      P1  H  7997  8010       L1    11  0.18

> <Gold.Chemscore.Hbond.Weighted>
-3.2108

> <Gold.Chemscore.Metal.Weighted>
-0.0000

> <Gold.Chemscore.Lipo.Weighted>
-12.0164

> <Gold.Chemscore.Internal_Hbond.Weighted>
0.0000

> <Gold.Chemscore.DEClash.Weighted>
0.0383

> <Gold.Chemscore.DEInternal.Weighted>
2.2917

> <Gold.Chemscore.Rot.Weighted>
8.4920

> <Gold.Chemscore.Internal.Correction.Weighted>
   9.000000E+99

> <Gold.Protein.RotatedTorsions>
[ 6907 6896 6895 6894 ] final  135.64 input  -60.11 | X-H torsion
[ 7974 7965 7964 7962 ] final -139.18 input  175.53 | X-H torsion
[ 8008 7997 7996 7995 ] final   19.95 input   59.86 | X-H torsion
[ 10167 10162 10161 10158 ] final  101.72 input  -65.29 | X-H torsion
[ 10718 10713 10712 10709 ] final   83.55 input   66.30 | X-H torsion
[ 10763 10752 10751 10750 ] final   -9.05 input  -60.55 | X-H torsion
[ 11005 11000 10999 10996 ] final  -33.98 input  -57.11 | X-H torsion

> <Gold.Protein.ActiveResidues>
 VAL166  LYS551  ARG553  GLY616  TRP617  ASP618  TYR619  PRO620  LYS621  CYS622 
 ASP623  PHE694  ASN695  SER759  ASP760  ASP761  ALA762  ILE779  LEU786  VAL792 
 PHE793  MET794  SER795  GLU796  ALA797  LYS798  CYS799  TRP800  GLU811  SER814 

> <Gold.Protein.RotatedAtoms>
  152.2982  133.5629  159.5601 H   0  0  0  0  0  0  0  0  0  0  0  0  # atno 6907 bound_to 6896
  150.7265  134.0330  159.3748 H   0  0  0  0  0  0  0  0  0  0  0  0  # atno 6908 bound_to 6896
  151.8231  135.0645  160.0478 H   0  0  0  0  0  0  0  0  0  0  0  0  # atno 6909 bound_to 6896
  144.8697  140.6348  143.5274 H   0  0  0  0  0  0  0  0  0  0  0  0  # atno 7974 bound_to 7965
  154.9283  140.3037  155.5180 H   0  0  0  0  0  0  0  0  0  0  0  0  # atno 8008 bound_to 7997
  156.3005  140.2358  156.4277 H   0  0  0  0  0  0  0  0  0  0  0  0  # atno 8009 bound_to 7997
  154.8262  140.0421  157.1434 H   0  0  0  0  0  0  0  0  0  0  0  0  # atno 8010 bound_to 7997
  139.7413  144.7010  151.0571 H   0  0  0  0  0  0  0  0  0  0  0  0  # atno 10167 bound_to 10162
  157.6881  131.0096  150.2541 H   0  0  0  0  0  0  0  0  0  0  0  0  # atno 10718 bound_to 10713
  153.4491  135.7015  153.6120 H   0  0  0  0  0  0  0  0  0  0  0  0  # atno 10763 bound_to 10752
  153.4462  135.3768  155.2257 H   0  0  0  0  0  0  0  0  0  0  0  0  # atno 10764 bound_to 10752
  154.8728  135.3986  154.3901 H   0  0  0  0  0  0  0  0  0  0  0  0  # atno 10765 bound_to 10752
  140.9679  133.7126  156.1475 H   0  0  0  0  0  0  0  0  0  0  0  0  # atno 11005 bound_to 11000
  145.4153  139.1573  143.4103 LP  0  0  0  0  0  0  0  0  0  0  0  0  # atno 17320 bound_to 7965
  146.2922  140.4260  142.8735 LP  0  0  0  0  0  0  0  0  0  0  0  0  # atno 17321 bound_to 7965
  140.7786  143.4921  150.9880 LP  0  0  0  0  0  0  0  0  0  0  0  0  # atno 17342 bound_to 10162
  139.8609  143.7316  152.3173 LP  0  0  0  0  0  0  0  0  0  0  0  0  # atno 17343 bound_to 10162
  156.3132  130.3775  149.7642 LP  0  0  0  0  0  0  0  0  0  0  0  0  # atno 17370 bound_to 10713
  156.5236  130.8226  151.3212 LP  0  0  0  0  0  0  0  0  0  0  0  0  # atno 17371 bound_to 10713
  140.7372  134.4190  157.5559 LP  0  0  0  0  0  0  0  0  0  0  0  0  # atno 17394 bound_to 11000
  139.8901  134.8813  156.2386 LP  0  0  0  0  0  0  0  0  0  0  0  0  # atno 17395 bound_to 11000

$$$$
