AV-unprocessed.smi:1022|AV-procd|sdf|4459|dock7
  -GOLD-   22720 2433D 1   1.00000     0.00000
 Structure written by MMmdl.
 33 34  0  0  0  0  0  0  0  0  1 V2000
  152.8212  141.4002  159.5567 C   0  0  0  0  0  0  0  0  0  0  0  0
  152.3540  142.4594  158.7399 O   0  0  0  0  0  0  0  0  0  0  0  0
  152.6513  143.7363  159.2819 C   0  0  0  0  0  0  0  0  0  0  0  0
  152.0234  144.8259  158.3992 C   0  0  1  0  0  0  0  0  0  0  0  0
  152.5744  144.7734  156.9648 C   0  0  0  0  0  0  0  0  0  0  0  0
  150.5710  144.6687  158.3889 N   0  0  0  0  0  0  0  0  0  0  0  0
  149.8162  144.3678  159.4557 C   0  0  0  0  0  0  0  0  0  0  0  0
  150.2741  144.2026  160.5867 O   0  0  0  0  0  0  0  0  0  0  0  0
  148.5172  144.2741  159.1209 N   0  0  0  0  0  0  0  0  0  0  0  0
  147.4095  143.9915  159.9634 C   0  0  0  0  0  0  0  0  0  0  0  0
  147.4962  143.8837  161.2964 N   0  0  0  0  0  0  0  0  0  0  0  0
  146.2648  143.6098  161.8751 N   0  0  0  0  0  0  0  0  0  0  0  0
  145.2861  143.5156  160.9668 C   0  0  0  0  0  0  0  0  0  0  0  0
  143.8720  143.2276  161.3469 C   0  0  0  0  0  0  0  0  0  0  0  0
  142.9671  144.3275  161.8538 C   0  0  0  0  0  0  0  0  0  0  0  0
  143.4231  143.2393  162.7920 C   0  0  0  0  0  0  0  0  0  0  0  0
  145.8003  143.7634  159.3009 S   0  0  0  0  0  0  0  0  0  0  0  0
  152.5694  140.4447  159.0968 H   0  0  0  0  0  0  0  0  0  0  0  0
  152.3603  141.4298  160.5450 H   0  0  0  0  0  0  0  0  0  0  0  0
  153.9050  141.4413  159.6740 H   0  0  0  0  0  0  0  0  0  0  0  0
  152.2490  143.8014  160.2943 H   0  0  0  0  0  0  0  0  0  0  0  0
  153.7313  143.8778  159.3511 H   0  0  0  0  0  0  0  0  0  0  0  0
  152.2774  145.7962  158.8304 H   0  0  0  0  0  0  0  0  0  0  0  0
  153.6574  144.8978  156.9571 H   0  0  0  0  0  0  0  0  0  0  0  0
  152.1511  145.5662  156.3473 H   0  0  0  0  0  0  0  0  0  0  0  0
  152.3455  143.8206  156.4864 H   0  0  0  0  0  0  0  0  0  0  0  0
  150.1113  144.7817  157.4972 H   0  0  0  0  0  0  0  0  0  0  0  0
  148.2938  144.4259  158.1485 H   0  0  0  0  0  0  0  0  0  0  0  0
  143.4420  142.4764  160.6871 H   0  0  0  0  0  0  0  0  0  0  0  0
  143.3995  145.3178  161.9854 H   0  0  0  0  0  0  0  0  0  0  0  0
  141.9282  144.3108  161.5307 H   0  0  0  0  0  0  0  0  0  0  0  0
  142.6886  142.4954  163.0938 H   0  0  0  0  0  0  0  0  0  0  0  0
  144.1480  143.5145  163.5555 H   0  0  0  0  0  0  0  0  0  0  0  0
  1  2  1  0  0  0  0
  1 18  1  0  0  0  0
  1 19  1  0  0  0  0
  1 20  1  0  0  0  0
  2  3  1  0  0  0  0
  3  4  1  0  0  0  0
  3 21  1  0  0  0  0
  3 22  1  0  0  0  0
  4  5  1  0  0  0  0
  4  6  1  0  0  0  0
  4 23  1  0  0  0  0
  5 24  1  0  0  0  0
  5 25  1  0  0  0  0
  5 26  1  0  0  0  0
  6  7  1  0  0  0  0
  6 27  1  0  0  0  0
  7  8  2  0  0  0  0
  7  9  1  0  0  0  0
  9 10  1  0  0  0  0
  9 28  1  0  0  0  0
 10 17  1  0  0  0  0
 10 11  2  0  0  0  0
 11 12  1  0  0  0  0
 12 13  2  0  0  0  0
 13 14  1  0  0  0  0
 13 17  1  0  0  0  0
 14 16  1  0  0  0  0
 14 15  1  0  0  0  0
 14 29  1  0  0  0  0
 15 16  1  0  0  0  0
 15 30  1  0  0  0  0
 15 31  1  0  0  0  0
 16 32  1  0  0  0  0
 16 33  1  0  0  0  0
M  END
> <s_m_source_file>
AV-unprocessed.smi

> <i_m_source_file_index>
1022

> <i_lp_mmshare_version>
43012

> <i_f3d_flags>
0

> <s_epik_input>
W0NIM11PW0NIMl1bQ0BIXShbQ0gzXSlbTkhdQyg9TylbTkhdYzFubmMoczEpW0NIXTJbQ0gyXVtDSDJdMg==

> <s_epik_cmdline>
J2VwaWtfcHl0aG9uJywgJy1waCcsICc3LjAnLCAnLXRuJywgJzgnLCAnLW1hJywgJzIwMCcsICctbWV0YWxfYmluZGluZycsICctaW1hZScsICc8aW5maWxlLm1hZT4nLCAnLW9tYWUnLCAnPG91dGZpbGUubWFlPic=

> <r_lp_tautomer_probability>
1

> <r_epik_Ionization_Penalty>
0.00129266

> <r_epik_Ionization_Penalty_Charging>
0

> <r_epik_Ionization_Penalty_Neutral>
0.00129266

> <r_epik_State_Penalty>
-0

> <r_epik_Charging_Adjusted_Penalty>
0

> <i_epik_Tot_Q>
0

> <i_epik_Tot_abs_Q>
0

> <r_epik_Metal_State_Penalty>
0.30857

> <b_epik_Metal_Only>
0

> <s_lp_Force_Field>
OPLS_2005

> <r_lp_Energy>
1.4297

> <b_lp_Chiralities_Consistent>
1

> <s_lp_Variant>
AV-unprocessed.smi:1022-2

> <Gold.Version>
5.8.1

> <Gold.Id.Protein>
6NUR|6NUR_protein|mol2

> <Gold.PLP.Fitness>
36.4861

> <Gold.PLP.PLP>
-31.2707

> <Gold.PLP.part.hbond>
-3.7937

> <Gold.PLP.part.metal>
0.0000

> <Gold.PLP.part.buried>
-5.5731

> <Gold.PLP.part.nonpolar>
-22.2964

> <Gold.PLP.part.repulsive>
0.6275

> <Gold.PLP.ligand.clash>
0.0000

> <Gold.PLP.ligand.torsion>
0.6317

> <Gold.PLP.Chemscore.Hbond>
2.1110

> <Gold.PLP.Chemscore.CHOScore>
0.0000

> <Gold.PLP.Chemscore.Metal>
0.0000

> <Gold.Chemscore.Hbonds>
donor molecule, donor type, donor heavy atom, donor atom, acceptor molecule, acceptor atom, score
      L1  H     6    27       P1  8028  0.53
      L1  H     9    28       P1  8029  0.62
      P1  H  6933  6944       L1    11  1.00

> <Gold.PLP.Chemscore.Internal.Correction>
0.1459

> <Gold.Rescore>
     Score         DG    S(hbond)    S(metal)    S(lipo)     H(rot)  DE(clash)    DE(int)     intcor
     11.83     -16.17       1.70        0.00      80.81       1.73       1.57       2.77       ----

> <Gold.Chemscore.Fitness>
11.8332

> <Gold.Chemscore.DG>
-16.1712

> <Gold.Chemscore.ZeroCoef>
-5.4800

> <Gold.Chemscore.Hbond>
1.6975

> <Gold.Chemscore.Metal>
0.0000

> <Gold.Chemscore.Lipo>
80.8114

> <Gold.Chemscore.Internal_Hbond>
0.0000

> <Gold.Chemscore.DEClash>
1.5727

> <Gold.Chemscore.DEInternal>
2.7653

> <Gold.Chemscore.Rot>
1.7318

> <Gold.Chemscore.Internal.Correction>
   9.000000E+99

> <Gold.Chemscore.Hbonds>
donor molecule, donor type, donor heavy atom, donor atom, acceptor molecule, acceptor atom, score
      L1  H     6    27       P1  8028  0.08
      L1  H     9    28       P1  8029  0.25
      P1  H  6933  6944       L1    11  0.18

> <Gold.Chemscore.Hbond.Weighted>
-5.6697

> <Gold.Chemscore.Metal.Weighted>
-0.0000

> <Gold.Chemscore.Lipo.Weighted>
-9.4549

> <Gold.Chemscore.Internal_Hbond.Weighted>
0.0000

> <Gold.Chemscore.DEClash.Weighted>
1.5727

> <Gold.Chemscore.DEInternal.Weighted>
2.7653

> <Gold.Chemscore.Rot.Weighted>
4.4335

> <Gold.Chemscore.Internal.Correction.Weighted>
   9.000000E+99

> <Gold.Protein.RotatedTorsions>
[ 6907 6896 6895 6894 ] final -177.05 input  -60.11 | X-H torsion
[ 7974 7965 7964 7962 ] final    0.53 input  175.53 | X-H torsion
[ 8008 7997 7996 7995 ] final -123.03 input   59.86 | X-H torsion
[ 10167 10162 10161 10158 ] final   29.99 input  -65.29 | X-H torsion
[ 10718 10713 10712 10709 ] final  154.80 input   66.30 | X-H torsion
[ 10763 10752 10751 10750 ] final  -55.11 input  -60.55 | X-H torsion
[ 11005 11000 10999 10996 ] final -178.08 input  -57.11 | X-H torsion

> <Gold.Protein.ActiveResidues>
 VAL166  LYS551  ARG553  GLY616  TRP617  ASP618  TYR619  PRO620  LYS621  CYS622 
 ASP623  PHE694  ASN695  SER759  ASP760  ASP761  ALA762  ILE779  LEU786  VAL792 
 PHE793  MET794  SER795  GLU796  ALA797  LYS798  CYS799  TRP800  GLU811  SER814 

> <Gold.Protein.RotatedAtoms>
  151.6148  133.3344  159.3074 H   0  0  0  0  0  0  0  0  0  0  0  0  # atno 6907 bound_to 6896
  150.8137  134.7311  159.6722 H   0  0  0  0  0  0  0  0  0  0  0  0  # atno 6908 bound_to 6896
  152.4234  134.5919  160.0028 H   0  0  0  0  0  0  0  0  0  0  0  0  # atno 6909 bound_to 6896
  146.2435  140.1124  142.8343 H   0  0  0  0  0  0  0  0  0  0  0  0  # atno 7974 bound_to 7965
  155.1739  140.0409  157.2868 H   0  0  0  0  0  0  0  0  0  0  0  0  # atno 8008 bound_to 7997
  154.6250  140.2510  155.7475 H   0  0  0  0  0  0  0  0  0  0  0  0  # atno 8009 bound_to 7997
  156.2454  140.2887  156.0576 H   0  0  0  0  0  0  0  0  0  0  0  0  # atno 8010 bound_to 7997
  140.4717  144.0751  150.6239 H   0  0  0  0  0  0  0  0  0  0  0  0  # atno 10167 bound_to 10162
  157.2268  131.0730  151.1878 H   0  0  0  0  0  0  0  0  0  0  0  0  # atno 10718 bound_to 10713
  154.1855  135.6436  153.5046 H   0  0  0  0  0  0  0  0  0  0  0  0  # atno 10763 bound_to 10752
  153.0048  135.5416  154.6469 H   0  0  0  0  0  0  0  0  0  0  0  0  # atno 10764 bound_to 10752
  154.5845  135.2928  155.0672 H   0  0  0  0  0  0  0  0  0  0  0  0  # atno 10765 bound_to 10752
  140.4337  134.6495  157.4724 H   0  0  0  0  0  0  0  0  0  0  0  0  # atno 11005 bound_to 11000
  145.0476  140.8993  143.5015 LP  0  0  0  0  0  0  0  0  0  0  0  0  # atno 17320 bound_to 7965
  145.1216  139.2690  143.5585 LP  0  0  0  0  0  0  0  0  0  0  0  0  # atno 17321 bound_to 7965
  140.3968  143.2724  151.9995 LP  0  0  0  0  0  0  0  0  0  0  0  0  # atno 17342 bound_to 10162
  139.4819  144.6031  151.7570 LP  0  0  0  0  0  0  0  0  0  0  0  0  # atno 17343 bound_to 10162
  157.3519  130.7086  149.6446 LP  0  0  0  0  0  0  0  0  0  0  0  0  # atno 17370 bound_to 10713
  155.9678  130.4250  150.4634 LP  0  0  0  0  0  0  0  0  0  0  0  0  # atno 17371 bound_to 10713
  140.0117  134.6681  155.9371 LP  0  0  0  0  0  0  0  0  0  0  0  0  # atno 17394 bound_to 11000
  141.1735  133.6538  156.4739 LP  0  0  0  0  0  0  0  0  0  0  0  0  # atno 17395 bound_to 11000

$$$$
