AV-unprocessed.smi:334|AV-procd|sdf|2369|dock3
  -GOLD-   2262022283D 1   1.00000     0.00000
 Structure written by MMmdl.
 44 46  0  0  0  0  0  0  0  0  3 V2000
  151.8997  141.1444  156.9118 C   0  0  0  0  0  0  0  0  0  0  0  0
  151.2842  142.5314  156.6646 C   0  0  1  0  0  0  0  0  0  0  0  0
  149.9682  142.3494  156.0544 N   0  0  0  0  0  0  0  0  0  0  0  0
  149.6884  141.5683  154.9993 C   0  0  0  0  0  0  0  0  0  0  0  0
  150.5253  140.8650  154.4323 O   0  0  0  0  0  0  0  0  0  0  0  0
  148.2305  141.5845  154.5196 C   0  0  0  0  0  0  0  0  0  0  0  0
  147.6281  140.2415  154.4683 N   0  0  0  0  0  0  0  0  0  0  0  0
  147.3308  139.7174  153.1943 C   0  0  0  0  0  0  0  0  0  0  0  0
  146.7749  138.5005  153.0328 C   0  0  0  0  0  0  0  0  0  0  0  0
  146.4742  137.9786  151.7175 N   0  3  0  0  0  0  0  0  0  0  0  0
  146.8079  138.6327  150.7346 O   0  0  0  0  0  0  0  0  0  0  0  0
  145.8951  136.9004  151.6224 O   0  5  0  0  0  0  0  0  0  0  0  0
  146.4835  137.7286  154.2252 C   0  0  0  0  0  0  0  0  0  0  0  0
  146.7631  138.2249  155.4463 C   0  0  0  0  0  0  0  0  0  0  0  0
  147.3688  139.5489  155.6201 C   0  0  0  0  0  0  0  0  0  0  0  0
  147.6274  140.0075  156.7332 O   0  0  0  0  0  0  0  0  0  0  0  0
  151.1592  143.3596  157.9682 C   0  0  1  0  0  0  0  0  0  0  0  0
  151.2427  142.5000  159.2537 C   0  0  0  0  0  0  0  0  0  0  0  0
  152.3624  143.1777  160.0631 C   0  0  2  0  0  0  0  0  0  0  0  0
  151.8744  144.5467  160.5696 C   0  0  0  0  0  0  0  0  0  0  0  0
  151.8517  145.3924  159.2831 C   0  0  0  0  0  0  0  0  0  0  0  0
  152.2987  144.3859  158.2054 C   0  0  1  0  0  0  0  0  0  0  0  0
  153.3407  143.5722  158.9646 C   0  0  0  0  0  0  0  0  0  0  0  0
  152.9092  141.2184  157.3157 H   0  0  0  0  0  0  0  0  0  0  0  0
  151.9639  140.5745  155.9844 H   0  0  0  0  0  0  0  0  0  0  0  0
  151.3027  140.5651  157.6171 H   0  0  0  0  0  0  0  0  0  0  0  0
  151.9424  143.0641  155.9766 H   0  0  0  0  0  0  0  0  0  0  0  0
  149.2110  142.8858  156.4526 H   0  0  0  0  0  0  0  0  0  0  0  0
  147.6645  142.2407  155.1821 H   0  0  0  0  0  0  0  0  0  0  0  0
  148.1713  142.0529  153.5351 H   0  0  0  0  0  0  0  0  0  0  0  0
  147.5791  140.3712  152.3707 H   0  0  0  0  0  0  0  0  0  0  0  0
  146.0373  136.7479  154.1482 H   0  0  0  0  0  0  0  0  0  0  0  0
  146.5353  137.6336  156.3213 H   0  0  0  0  0  0  0  0  0  0  0  0
  150.2041  143.8871  157.9400 H   0  0  0  0  0  0  0  0  0  0  0  0
  150.2970  142.4724  159.7957 H   0  0  0  0  0  0  0  0  0  0  0  0
  151.5239  141.4702  159.0305 H   0  0  0  0  0  0  0  0  0  0  0  0
  152.7801  142.5445  160.8464 H   0  0  0  0  0  0  0  0  0  0  0  0
  150.8951  144.4851  161.0456 H   0  0  0  0  0  0  0  0  0  0  0  0
  152.5740  144.9673  161.2932 H   0  0  0  0  0  0  0  0  0  0  0  0
  150.8677  145.8160  159.0785 H   0  0  0  0  0  0  0  0  0  0  0  0
  152.5598  146.2188  159.3571 H   0  0  0  0  0  0  0  0  0  0  0  0
  152.6713  144.8759  157.3063 H   0  0  0  0  0  0  0  0  0  0  0  0
  154.1782  144.1716  159.3261 H   0  0  0  0  0  0  0  0  0  0  0  0
  153.7278  142.7225  158.4002 H   0  0  0  0  0  0  0  0  0  0  0  0
  1  2  1  0  0  0  0
  1 24  1  0  0  0  0
  1 25  1  0  0  0  0
  1 26  1  0  0  0  0
  2  3  1  0  0  0  0
  2 17  1  0  0  0  0
  2 27  1  0  0  0  0
  3  4  1  0  0  0  0
  3 28  1  0  0  0  0
  4  5  2  0  0  0  0
  4  6  1  0  0  0  0
  6  7  1  0  0  0  0
  6 29  1  0  0  0  0
  6 30  1  0  0  0  0
  7 15  1  0  0  0  0
  7  8  1  0  0  0  0
  8  9  2  0  0  0  0
  8 31  1  0  0  0  0
  9 10  1  0  0  0  0
  9 13  1  0  0  0  0
 10 11  2  0  0  0  0
 10 12  1  0  0  0  0
 13 14  2  0  0  0  0
 13 32  1  0  0  0  0
 14 15  1  0  0  0  0
 14 33  1  0  0  0  0
 15 16  2  0  0  0  0
 17 22  1  0  0  0  0
 17 18  1  0  0  0  0
 17 34  1  0  0  0  0
 18 19  1  0  0  0  0
 18 35  1  0  0  0  0
 18 36  1  0  0  0  0
 19 23  1  0  0  0  0
 19 20  1  0  0  0  0
 19 37  1  0  0  0  0
 20 21  1  0  0  0  0
 20 38  1  0  0  0  0
 20 39  1  0  0  0  0
 21 22  1  0  0  0  0
 21 40  1  0  0  0  0
 21 41  1  0  0  0  0
 22 23  1  0  0  0  0
 22 42  1  0  0  0  0
 23 43  1  0  0  0  0
 23 44  1  0  0  0  0
M  CHG  1  10   1
M  CHG  1  12  -1
M  END
> <s_m_source_file>
AV-unprocessed.smi

> <i_m_source_file_index>
334

> <i_lp_mmshare_version>
43012

> <i_f3d_flags>
0

> <s_epik_input>
W0NIMl0xW0NIMl1bQ0BIXShbQ0gyXTIpW0NAQEhdKFtDSDJdW0NAQEhdMTIpW0NASF0oW0NIM10pW05IXUMoPU8pW0NIMl1uM1tjSF1jKFtOK10oPU8pW08tXSlbY0hdW2NIXWMzPU8=

> <s_epik_cmdline>
J2VwaWtfcHl0aG9uJywgJy1waCcsICc3LjAnLCAnLXRuJywgJzgnLCAnLW1hJywgJzIwMCcsICctbWV0YWxfYmluZGluZycsICctaW1hZScsICc8aW5maWxlLm1hZT4nLCAnLW9tYWUnLCAnPG91dGZpbGUubWFlPic=

> <r_lp_tautomer_probability>
1

> <r_epik_Ionization_Penalty>
2.17081e-08

> <r_epik_Ionization_Penalty_Charging>
8.1195e-11

> <r_epik_Ionization_Penalty_Neutral>
2.16269e-08

> <r_epik_State_Penalty>
-0

> <r_epik_Charging_Adjusted_Penalty>
8.1195e-11

> <i_epik_Tot_Q>
0

> <i_epik_Tot_abs_Q>
2

> <r_epik_Metal_State_Penalty>
-0

> <b_epik_Metal_Only>
0

> <s_lp_Force_Field>
OPLS_2005

> <r_lp_Energy>
62.1709

> <b_lp_Chiralities_Consistent>
1

> <s_lp_Variant>
AV-unprocessed.smi:334-8

> <Gold.Version>
5.8.1

> <Gold.Id.Protein>
6NUR|6NUR_protein|mol2

> <Gold.PLP.Fitness>
53.7421

> <Gold.PLP.PLP>
-44.8928

> <Gold.PLP.part.hbond>
-3.0000

> <Gold.PLP.part.metal>
0.0000

> <Gold.PLP.part.buried>
-4.7214

> <Gold.PLP.part.nonpolar>
-38.4616

> <Gold.PLP.part.repulsive>
1.5606

> <Gold.PLP.ligand.clash>
0.0000

> <Gold.PLP.ligand.torsion>
1.3194

> <Gold.PLP.Chemscore.Hbond>
2.8160

> <Gold.PLP.Chemscore.CHOScore>
1.0000

> <Gold.PLP.Chemscore.Metal>
0.0000

> <Gold.Chemscore.Hbonds>
donor molecule, donor type, donor heavy atom, donor atom, acceptor molecule, acceptor atom, score
      L1  H     3    28       P1  8028  0.34
      P1  H  7954  7966       L1    11  0.88
      P1  H  7989  7998       L1     5  0.57
      L1  C     8    31       P1  7957  0.82

> <Gold.PLP.Chemscore.Internal.Correction>
0.0401

> <Gold.Rescore>
     Score         DG    S(hbond)    S(metal)    S(lipo)     H(rot)  DE(clash)    DE(int)     intcor
     19.38     -23.42       2.58        0.00     117.91       1.75       0.21       3.83       ----

> <Gold.Chemscore.Fitness>
19.3820

> <Gold.Chemscore.DG>
-23.4216

> <Gold.Chemscore.ZeroCoef>
-5.4800

> <Gold.Chemscore.Hbond>
2.5807

> <Gold.Chemscore.Metal>
0.0000

> <Gold.Chemscore.Lipo>
117.9103

> <Gold.Chemscore.Internal_Hbond>
0.0000

> <Gold.Chemscore.DEClash>
0.2140

> <Gold.Chemscore.DEInternal>
3.8256

> <Gold.Chemscore.Rot>
1.7474

> <Gold.Chemscore.Internal.Correction>
   9.000000E+99

> <Gold.Chemscore.Hbonds>
donor molecule, donor type, donor heavy atom, donor atom, acceptor molecule, acceptor atom, score
      L1  H     3    28       P1  8028  0.32
      P1  H  7954  7966       L1    11  0.71
      P1  H  7989  7998       L1     5  0.58

> <Gold.Chemscore.Hbond.Weighted>
-8.6194

> <Gold.Chemscore.Metal.Weighted>
-0.0000

> <Gold.Chemscore.Lipo.Weighted>
-13.7955

> <Gold.Chemscore.Internal_Hbond.Weighted>
0.0000

> <Gold.Chemscore.DEClash.Weighted>
0.2140

> <Gold.Chemscore.DEInternal.Weighted>
3.8256

> <Gold.Chemscore.Rot.Weighted>
4.4733

> <Gold.Chemscore.Internal.Correction.Weighted>
   9.000000E+99

> <Gold.Protein.RotatedTorsions>
[ 6907 6896 6895 6894 ] final  -35.55 input  -60.11 | X-H torsion
[ 7974 7965 7964 7962 ] final   26.76 input  175.53 | X-H torsion
[ 8008 7997 7996 7995 ] final  155.60 input   59.86 | X-H torsion
[ 10167 10162 10161 10158 ] final   55.09 input  -65.29 | X-H torsion
[ 10718 10713 10712 10709 ] final -127.37 input   66.30 | X-H torsion
[ 10763 10752 10751 10750 ] final   28.04 input  -60.55 | X-H torsion
[ 11005 11000 10999 10996 ] final  -23.89 input  -57.11 | X-H torsion

> <Gold.Protein.ActiveResidues>
 VAL166  LYS551  ARG553  GLY616  TRP617  ASP618  TYR619  PRO620  LYS621  CYS622 
 ASP623  PHE694  ASN695  SER759  ASP760  ASP761  ALA762  ILE779  LEU786  VAL792 
 PHE793  MET794  SER795  GLU796  ALA797  LYS798  CYS799  TRP800  GLU811  SER814 

> <Gold.Protein.RotatedAtoms>
  151.0384  134.9589  159.8148 H   0  0  0  0  0  0  0  0  0  0  0  0  # atno 6907 bound_to 6896
  152.5359  134.2690  159.8974 H   0  0  0  0  0  0  0  0  0  0  0  0  # atno 6908 bound_to 6896
  151.2702  133.4216  159.2655 H   0  0  0  0  0  0  0  0  0  0  0  0  # atno 6909 bound_to 6896
  146.1821  139.7284  142.8893 H   0  0  0  0  0  0  0  0  0  0  0  0  # atno 7974 bound_to 7965
  156.2469  140.1935  156.6826 H   0  0  0  0  0  0  0  0  0  0  0  0  # atno 8008 bound_to 7997
  154.6310  140.0596  156.9758 H   0  0  0  0  0  0  0  0  0  0  0  0  # atno 8009 bound_to 7997
  155.1710  140.3268  155.4395 H   0  0  0  0  0  0  0  0  0  0  0  0  # atno 8010 bound_to 7997
  140.2232  144.3766  150.6442 H   0  0  0  0  0  0  0  0  0  0  0  0  # atno 10167 bound_to 10162
  156.1851  130.6758  151.0354 H   0  0  0  0  0  0  0  0  0  0  0  0  # atno 10718 bound_to 10713
  153.0517  135.6522  154.0678 H   0  0  0  0  0  0  0  0  0  0  0  0  # atno 10763 bound_to 10752
  154.0365  135.2907  155.3362 H   0  0  0  0  0  0  0  0  0  0  0  0  # atno 10764 bound_to 10752
  154.6809  135.5320  153.8328 H   0  0  0  0  0  0  0  0  0  0  0  0  # atno 10765 bound_to 10752
  140.8794  133.7664  156.0283 H   0  0  0  0  0  0  0  0  0  0  0  0  # atno 11005 bound_to 11000
  145.4047  141.0389  143.3051 LP  0  0  0  0  0  0  0  0  0  0  0  0  # atno 17320 bound_to 7965
  144.8332  139.5593  143.6934 LP  0  0  0  0  0  0  0  0  0  0  0  0  # atno 17321 bound_to 7965
  140.6240  143.2179  151.6635 LP  0  0  0  0  0  0  0  0  0  0  0  0  # atno 17342 bound_to 10162
  139.5137  144.3436  152.0718 LP  0  0  0  0  0  0  0  0  0  0  0  0  # atno 17343 bound_to 10162
  157.6893  131.0815  150.7152 LP  0  0  0  0  0  0  0  0  0  0  0  0  # atno 17370 bound_to 10713
  156.7209  130.4680  149.5523 LP  0  0  0  0  0  0  0  0  0  0  0  0  # atno 17371 bound_to 10713
  140.8479  134.2989  157.5287 LP  0  0  0  0  0  0  0  0  0  0  0  0  # atno 17394 bound_to 11000
  139.8718  134.9452  156.3902 LP  0  0  0  0  0  0  0  0  0  0  0  0  # atno 17395 bound_to 11000

$$$$
