AV-unprocessed.smi:3287|AV-procd|sdf|12605|dock2
  -GOLD-   2272018533D 1   1.00000     0.00000
 Structure written by MMmdl.
 43 44  0  0  0  0  0  0  0  0  2 V2000
  151.8413  140.8991  157.2787 C   0  0  0  0  0  0  0  0  0  0  0  0
  150.9921  140.5513  156.0431 C   0  0  1  0  0  0  0  0  0  0  0  0
  151.5574  139.2890  155.3608 C   0  0  0  0  0  0  0  0  0  0  0  0
  150.7525  138.8899  154.1163 C   0  0  0  0  0  0  0  0  0  0  0  0
  149.2672  138.6791  154.4636 C   0  0  2  0  0  0  0  0  0  0  0  0
  148.4680  138.3289  153.2685 N   0  3  0  0  0  0  0  0  0  0  0  0
  147.0015  138.3491  153.4603 C   0  0  0  0  0  0  0  0  0  0  0  0
  146.2561  138.2253  152.1202 C   0  0  1  0  0  0  0  0  0  0  0  0
  147.1769  138.4271  151.0656 O   0  0  0  0  0  0  0  0  0  0  0  0
  145.5531  136.8815  152.0085 C   0  0  0  0  0  0  0  0  0  0  0  0
  144.6544  136.4396  153.0041 C   0  0  0  0  0  0  0  0  0  0  0  0
  144.0256  135.1895  152.8375 C   0  0  0  0  0  0  0  0  0  0  0  0
  144.2363  134.3903  151.7699 N   0  0  0  0  0  0  0  0  0  0  0  0
  145.0947  134.8183  150.8199 C   0  0  0  0  0  0  0  0  0  0  0  0
  145.7750  136.0506  150.8902 C   0  0  0  0  0  0  0  0  0  0  0  0
  148.6987  139.9506  155.1166 C   0  0  0  0  0  0  0  0  0  0  0  0
  149.4878  140.3662  156.3759 C   0  0  2  0  0  0  0  0  0  0  0  0
  148.8530  141.6219  157.0001 C   0  0  0  0  0  0  0  0  0  0  0  0
  151.7325  140.1458  158.0597 H   0  0  0  0  0  0  0  0  0  0  0  0
  151.5659  141.8645  157.7021 H   0  0  0  0  0  0  0  0  0  0  0  0
  152.8994  140.9580  157.0220 H   0  0  0  0  0  0  0  0  0  0  0  0
  151.0850  141.3781  155.3372 H   0  0  0  0  0  0  0  0  0  0  0  0
  152.5978  139.4539  155.0781 H   0  0  0  0  0  0  0  0  0  0  0  0
  151.5609  138.4591  156.0691 H   0  0  0  0  0  0  0  0  0  0  0  0
  150.8517  139.6630  153.3531 H   0  0  0  0  0  0  0  0  0  0  0  0
  151.1845  137.9817  153.6962 H   0  0  0  0  0  0  0  0  0  0  0  0
  149.1790  137.8623  155.1820 H   0  0  0  0  0  0  0  0  0  0  0  0
  148.6851  139.0029  152.5485 H   0  0  0  0  0  0  0  0  0  0  0  0
  146.6980  137.5460  154.1322 H   0  0  0  0  0  0  0  0  0  0  0  0
  146.7275  139.2890  153.9415 H   0  0  0  0  0  0  0  0  0  0  0  0
  145.5048  139.0135  152.0512 H   0  0  0  0  0  0  0  0  0  0  0  0
  147.7711  137.6919  151.0422 H   0  0  0  0  0  0  0  0  0  0  0  0
  144.4464  137.0419  153.8763 H   0  0  0  0  0  0  0  0  0  0  0  0
  143.3331  134.8228  153.5806 H   0  0  0  0  0  0  0  0  0  0  0  0
  145.2424  134.1600  149.9767 H   0  0  0  0  0  0  0  0  0  0  0  0
  146.4495  136.3459  150.0998 H   0  0  0  0  0  0  0  0  0  0  0  0
  148.7074  140.7695  154.3952 H   0  0  0  0  0  0  0  0  0  0  0  0
  147.6529  139.7855  155.3793 H   0  0  0  0  0  0  0  0  0  0  0  0
  149.3979  139.5585  157.1040 H   0  0  0  0  0  0  0  0  0  0  0  0
  148.9685  142.4903  156.3509 H   0  0  0  0  0  0  0  0  0  0  0  0
  149.2970  141.8633  157.9654 H   0  0  0  0  0  0  0  0  0  0  0  0
  147.7861  141.4771  157.1722 H   0  0  0  0  0  0  0  0  0  0  0  0
  148.7449  137.4140  152.9414 H   0  0  0  0  0  0  0  0  0  0  0  0
  1  2  1  0  0  0  0
  1 19  1  0  0  0  0
  1 20  1  0  0  0  0
  1 21  1  0  0  0  0
  2 17  1  0  0  0  0
  2  3  1  0  0  0  0
  2 22  1  0  0  0  0
  3  4  1  0  0  0  0
  3 23  1  0  0  0  0
  3 24  1  0  0  0  0
  4  5  1  0  0  0  0
  4 25  1  0  0  0  0
  4 26  1  0  0  0  0
  5  6  1  0  0  0  0
  5 16  1  0  0  0  0
  5 27  1  0  0  0  0
  6  7  1  0  0  0  0
  6 28  1  0  0  0  0
  6 43  1  0  0  0  0
  7  8  1  0  0  0  0
  7 29  1  0  0  0  0
  7 30  1  0  0  0  0
  8  9  1  0  0  0  0
  8 10  1  0  0  0  0
  8 31  1  0  0  0  0
  9 32  1  0  0  0  0
 10 15  1  0  0  0  0
 10 11  2  0  0  0  0
 11 12  1  0  0  0  0
 11 33  1  0  0  0  0
 12 13  2  0  0  0  0
 12 34  1  0  0  0  0
 13 14  1  0  0  0  0
 14 15  2  0  0  0  0
 14 35  1  0  0  0  0
 15 36  1  0  0  0  0
 16 17  1  0  0  0  0
 16 37  1  0  0  0  0
 16 38  1  0  0  0  0
 17 18  1  0  0  0  0
 17 39  1  0  0  0  0
 18 40  1  0  0  0  0
 18 41  1  0  0  0  0
 18 42  1  0  0  0  0
M  CHG  1   6   1
M  END
> <s_m_source_file>
AV-unprocessed.smi

> <i_m_source_file_index>
3287

> <i_lp_mmshare_version>
43012

> <i_f3d_flags>
0

> <s_epik_input>
W0NIM11bQ0BASF0xW0NIMl1bQ0gyXVtDQEhdKFtDSDJdW0NASF0xW0NIM10pW05IXVtDSDJdW0NASF0oW09IXSljMltjSF1bY0hdbltjSF1bY0hdMg==

> <s_epik_cmdline>
J2VwaWtfcHl0aG9uJywgJy1waCcsICc3LjAnLCAnLXRuJywgJzgnLCAnLW1hJywgJzIwMCcsICctbWV0YWxfYmluZGluZycsICctaW1hZScsICc8aW5maWxlLm1hZT4nLCAnLW9tYWUnLCAnPG91dGZpbGUubWFlPic=

> <r_lp_tautomer_probability>
1

> <r_epik_Ionization_Penalty>
0.00537262

> <r_epik_Ionization_Penalty_Charging>
0.00321624

> <r_epik_Ionization_Penalty_Neutral>
0.00215638

> <r_epik_State_Penalty>
-0

> <r_epik_Charging_Adjusted_Penalty>
0.00321624

> <i_epik_Tot_Q>
1

> <i_epik_Tot_abs_Q>
1

> <r_epik_Metal_State_Penalty>
-0

> <b_epik_Metal_Only>
0

> <s_lp_Force_Field>
OPLS_2005

> <r_lp_Energy>
15.7065

> <b_lp_Chiralities_Consistent>
1

> <s_lp_Variant>
AV-unprocessed.smi:3287-16

> <Gold.Version>
5.8.1

> <Gold.Id.Protein>
6NUR|6NUR_protein|mol2

> <Gold.PLP.Fitness>
46.9357

> <Gold.PLP.PLP>
-33.6822

> <Gold.PLP.part.hbond>
-5.0000

> <Gold.PLP.part.metal>
0.0000

> <Gold.PLP.part.buried>
-3.8548

> <Gold.PLP.part.nonpolar>
-25.2946

> <Gold.PLP.part.repulsive>
0.1805

> <Gold.PLP.ligand.clash>
0.0000

> <Gold.PLP.ligand.torsion>
0.8384

> <Gold.PLP.Chemscore.Hbond>
3.9913

> <Gold.PLP.Chemscore.CHOScore>
0.9714

> <Gold.PLP.Chemscore.Metal>
0.0000

> <Gold.Chemscore.Hbonds>
donor molecule, donor type, donor heavy atom, donor atom, acceptor molecule, acceptor atom, score
      L1  H     6    28       P1  7957  1.00
      L1  H     6    43       P1  7948  2.00
      L1  H     9    32       P1  7948  1.00
      L1  C    14    35       P1  7921  0.80

> <Gold.PLP.Chemscore.Internal.Correction>
0.0426

> <Gold.Rescore>
     Score         DG    S(hbond)    S(metal)    S(lipo)     H(rot)  DE(clash)    DE(int)     intcor
     19.84     -20.66       2.94        0.00      87.50       1.90       0.03       0.79       ----

> <Gold.Chemscore.Fitness>
19.8421

> <Gold.Chemscore.DG>
-20.6566

> <Gold.Chemscore.ZeroCoef>
-5.4800

> <Gold.Chemscore.Hbond>
2.9378

> <Gold.Chemscore.Metal>
0.0000

> <Gold.Chemscore.Lipo>
87.4981

> <Gold.Chemscore.Internal_Hbond>
0.0000

> <Gold.Chemscore.DEClash>
0.0250

> <Gold.Chemscore.DEInternal>
0.7894

> <Gold.Chemscore.Rot>
1.9035

> <Gold.Chemscore.Internal.Correction>
   9.000000E+99

> <Gold.Chemscore.Hbonds>
donor molecule, donor type, donor heavy atom, donor atom, acceptor molecule, acceptor atom, score
      L1  H     6    28       P1  7957  0.99
      L1  H     6    43       P1  7948  0.97
      L1  H     9    32       P1  7948  0.95

> <Gold.Chemscore.Hbond.Weighted>
-9.8122

> <Gold.Chemscore.Metal.Weighted>
-0.0000

> <Gold.Chemscore.Lipo.Weighted>
-10.2373

> <Gold.Chemscore.Internal_Hbond.Weighted>
0.0000

> <Gold.Chemscore.DEClash.Weighted>
0.0250

> <Gold.Chemscore.DEInternal.Weighted>
0.7894

> <Gold.Chemscore.Rot.Weighted>
4.8729

> <Gold.Chemscore.Internal.Correction.Weighted>
   9.000000E+99

> <Gold.Protein.RotatedTorsions>
[ 6907 6896 6895 6894 ] final   59.36 input  -60.11 | X-H torsion
[ 7974 7965 7964 7962 ] final   35.78 input  175.53 | X-H torsion
[ 8008 7997 7996 7995 ] final   85.43 input   59.86 | X-H torsion
[ 10167 10162 10161 10158 ] final -174.42 input  -65.29 | X-H torsion
[ 10718 10713 10712 10709 ] final -138.72 input   66.30 | X-H torsion
[ 10763 10752 10751 10750 ] final  155.45 input  -60.55 | X-H torsion
[ 11005 11000 10999 10996 ] final  108.56 input  -57.11 | X-H torsion

> <Gold.Protein.ActiveResidues>
 VAL166  LYS551  ARG553  GLY616  TRP617  ASP618  TYR619  PRO620  LYS621  CYS622 
 ASP623  PHE694  ASN695  SER759  ASP760  ASP761  ALA762  ILE779  LEU786  VAL792 
 PHE793  MET794  SER795  GLU796  ALA797  LYS798  CYS799  TRP800  GLU811  SER814 

> <Gold.Protein.RotatedAtoms>
  152.3908  134.6444  160.0107 H   0  0  0  0  0  0  0  0  0  0  0  0  # atno 6907 bound_to 6896
  151.6679  133.3309  159.3197 H   0  0  0  0  0  0  0  0  0  0  0  0  # atno 6908 bound_to 6896
  150.7824  134.6825  159.6496 H   0  0  0  0  0  0  0  0  0  0  0  0  # atno 6909 bound_to 6896
  146.1258  139.6099  142.9259 H   0  0  0  0  0  0  0  0  0  0  0  0  # atno 7974 bound_to 7965
  155.9499  140.3401  155.6399 H   0  0  0  0  0  0  0  0  0  0  0  0  # atno 8008 bound_to 7997
  155.6933  140.0751  157.2458 H   0  0  0  0  0  0  0  0  0  0  0  0  # atno 8009 bound_to 7997
  154.4120  140.1653  156.2097 H   0  0  0  0  0  0  0  0  0  0  0  0  # atno 8010 bound_to 7997
  139.5635  144.1812  152.1276 H   0  0  0  0  0  0  0  0  0  0  0  0  # atno 10167 bound_to 10162
  156.3025  130.7437  151.1492 H   0  0  0  0  0  0  0  0  0  0  0  0  # atno 10718 bound_to 10713
  154.1686  135.2806  155.3088 H   0  0  0  0  0  0  0  0  0  0  0  0  # atno 10763 bound_to 10752
  154.6093  135.5504  153.7459 H   0  0  0  0  0  0  0  0  0  0  0  0  # atno 10764 bound_to 10752
  153.0171  135.6411  154.1826 H   0  0  0  0  0  0  0  0  0  0  0  0  # atno 10765 bound_to 10752
  139.8846  134.9434  156.5991 H   0  0  0  0  0  0  0  0  0  0  0  0  # atno 11005 bound_to 11000
  145.5368  141.0423  143.2353 LP  0  0  0  0  0  0  0  0  0  0  0  0  # atno 17320 bound_to 7965
  144.7641  139.6886  143.7222 LP  0  0  0  0  0  0  0  0  0  0  0  0  # atno 17321 bound_to 7965
  140.1330  144.5271  150.6790 LP  0  0  0  0  0  0  0  0  0  0  0  0  # atno 17342 bound_to 10162
  140.6917  143.2380  151.5113 LP  0  0  0  0  0  0  0  0  0  0  0  0  # atno 17343 bound_to 10162
  157.7371  131.0555  150.5372 LP  0  0  0  0  0  0  0  0  0  0  0  0  # atno 17370 bound_to 10713
  156.5501  130.4229  149.6112 LP  0  0  0  0  0  0  0  0  0  0  0  0  # atno 17371 bound_to 10713
  140.7897  133.8592  155.8635 LP  0  0  0  0  0  0  0  0  0  0  0  0  # atno 17394 bound_to 11000
  140.9688  134.1558  157.4593 LP  0  0  0  0  0  0  0  0  0  0  0  0  # atno 17395 bound_to 11000

$$$$
