AV-unprocessed.smi:2066|AV-procd|sdf|8421|dock10
  -GOLD-   2272011113D 1   1.00000     0.00000
 Structure written by MMmdl.
 38 39  0  0  0  0  0  0  0  0  2 V2000
  146.7920  142.5224  154.3752 C   0  0  0  0  0  0  0  0  0  0  0  0
  147.3891  141.0977  154.4701 C   0  0  0  0  0  0  0  0  0  0  0  0
  147.0911  140.3825  153.1277 C   0  0  0  0  0  0  0  0  0  0  0  0
  148.9349  141.2530  154.5486 C   0  0  0  0  0  0  0  0  0  0  0  0
  149.3648  141.8986  155.7860 N   0  0  0  0  0  0  0  0  0  0  0  0
  150.2876  141.4194  156.6294 C   0  0  0  0  0  0  0  0  0  0  0  0
  150.8365  140.3412  156.3903 O   0  0  0  0  0  0  0  0  0  0  0  0
  150.5198  142.2194  157.6948 N   0  5  0  0  0  0  0  0  0  0  0  0
  151.3487  141.8147  158.6705 C   0  0  0  0  0  0  0  0  0  0  0  0
  151.8558  140.5781  158.7312 N   0  0  0  0  0  0  0  0  0  0  0  0
  152.6892  140.3732  159.8320 C   0  0  0  0  0  0  0  0  0  0  0  0
  152.8110  141.4764  160.6347 C   0  0  0  0  0  0  0  0  0  0  0  0
  151.8786  142.8145  160.0264 S   0  0  0  0  0  0  0  0  0  0  0  0
  146.8544  140.3174  155.6212 N   0  0  0  0  0  0  0  0  0  0  0  0
  147.4587  138.9938  155.8086 C   0  0  0  0  0  0  0  0  0  0  0  0
  146.9490  138.3014  157.0843 C   0  0  0  0  0  0  0  0  0  0  0  0
  145.5305  138.2032  157.0438 O   0  0  0  0  0  0  0  0  0  0  0  0
  144.9034  139.4744  156.9240 C   0  0  0  0  0  0  0  0  0  0  0  0
  145.3938  140.1757  155.6464 C   0  0  0  0  0  0  0  0  0  0  0  0
  147.2065  143.0633  153.5236 H   0  0  0  0  0  0  0  0  0  0  0  0
  147.0099  143.1190  155.2607 H   0  0  0  0  0  0  0  0  0  0  0  0
  145.7107  142.5085  154.2416 H   0  0  0  0  0  0  0  0  0  0  0  0
  147.6198  140.8524  152.2976 H   0  0  0  0  0  0  0  0  0  0  0  0
  146.0330  140.4126  152.8682 H   0  0  0  0  0  0  0  0  0  0  0  0
  147.3948  139.3352  153.1539 H   0  0  0  0  0  0  0  0  0  0  0  0
  149.4176  140.2760  154.4887 H   0  0  0  0  0  0  0  0  0  0  0  0
  149.3152  141.8126  153.6932 H   0  0  0  0  0  0  0  0  0  0  0  0
  148.9395  142.7863  156.0101 H   0  0  0  0  0  0  0  0  0  0  0  0
  153.1539  139.4079  159.9674 H   0  0  0  0  0  0  0  0  0  0  0  0
  153.3878  141.5840  161.5409 H   0  0  0  0  0  0  0  0  0  0  0  0
  147.2417  138.3557  154.9520 H   0  0  0  0  0  0  0  0  0  0  0  0
  148.5420  139.0678  155.8834 H   0  0  0  0  0  0  0  0  0  0  0  0
  147.3725  137.3005  157.1667 H   0  0  0  0  0  0  0  0  0  0  0  0
  147.2579  138.8539  157.9732 H   0  0  0  0  0  0  0  0  0  0  0  0
  143.8228  139.3366  156.8895 H   0  0  0  0  0  0  0  0  0  0  0  0
  145.1209  140.0814  157.8043 H   0  0  0  0  0  0  0  0  0  0  0  0
  144.9072  141.1482  155.5980 H   0  0  0  0  0  0  0  0  0  0  0  0
  145.0548  139.6074  154.7802 H   0  0  0  0  0  0  0  0  0  0  0  0
  1  2  1  0  0  0  0
  1 20  1  0  0  0  0
  1 21  1  0  0  0  0
  1 22  1  0  0  0  0
  2  3  1  0  0  0  0
  2  4  1  0  0  0  0
  2 14  1  0  0  0  0
  3 23  1  0  0  0  0
  3 24  1  0  0  0  0
  3 25  1  0  0  0  0
  4  5  1  0  0  0  0
  4 26  1  0  0  0  0
  4 27  1  0  0  0  0
  5  6  1  0  0  0  0
  5 28  1  0  0  0  0
  6  7  2  0  0  0  0
  6  8  1  0  0  0  0
  8  9  1  0  0  0  0
  9 13  1  0  0  0  0
  9 10  2  0  0  0  0
 10 11  1  0  0  0  0
 11 12  2  0  0  0  0
 11 29  1  0  0  0  0
 12 13  1  0  0  0  0
 12 30  1  0  0  0  0
 14 19  1  0  0  0  0
 14 15  1  0  0  0  0
 15 16  1  0  0  0  0
 15 31  1  0  0  0  0
 15 32  1  0  0  0  0
 16 17  1  0  0  0  0
 16 33  1  0  0  0  0
 16 34  1  0  0  0  0
 17 18  1  0  0  0  0
 18 19  1  0  0  0  0
 18 35  1  0  0  0  0
 18 36  1  0  0  0  0
 19 37  1  0  0  0  0
 19 38  1  0  0  0  0
M  CHG  1   8  -1
M  END
> <s_m_source_file>
AV-unprocessed.smi

> <i_m_source_file_index>
2066

> <i_lp_mmshare_version>
43012

> <i_f3d_flags>
0

> <s_epik_input>
W0NIMl0xW0NIMl1PW0NIMl1bQ0gyXU4xQyhbQ0gzXSkoW0NIM10pW0NIMl1bTkhdQyg9TylbTkhdYzJuW2NIXVtjSF1zMg==

> <s_epik_cmdline>
J2VwaWtfcHl0aG9uJywgJy1waCcsICc3LjAnLCAnLXRuJywgJzgnLCAnLW1hJywgJzIwMCcsICctbWV0YWxfYmluZGluZycsICctaW1hZScsICc8aW5maWxlLm1hZT4nLCAnLW9tYWUnLCAnPG91dGZpbGUubWFlPic=

> <r_lp_tautomer_probability>
0.999

> <r_epik_Ionization_Penalty>
7.22375

> <r_epik_Ionization_Penalty_Charging>
5.82415

> <r_epik_Ionization_Penalty_Neutral>
1.39959

> <r_epik_State_Penalty>
6.03347

> <r_epik_Charging_Adjusted_Penalty>
11.8576

> <i_epik_Tot_Q>
-1

> <i_epik_Tot_abs_Q>
1

> <r_epik_Metal_State_Penalty>
2.0104

> <b_epik_Metal_Only>
1

> <s_lp_Force_Field>
OPLS_2005

> <r_lp_Energy>
36.7798

> <b_lp_Chiralities_Consistent>
1

> <s_lp_Variant>
AV-unprocessed.smi:2066-3

> <Gold.Version>
5.8.1

> <Gold.Id.Protein>
6NUR|6NUR_protein|mol2

> <Gold.PLP.Fitness>
33.7923

> <Gold.PLP.PLP>
-30.8892

> <Gold.PLP.part.hbond>
-1.0000

> <Gold.PLP.part.metal>
0.0000

> <Gold.PLP.part.buried>
-4.4273

> <Gold.PLP.part.nonpolar>
-26.4135

> <Gold.PLP.part.repulsive>
1.0020

> <Gold.PLP.ligand.clash>
0.0000

> <Gold.PLP.ligand.torsion>
0.0807

> <Gold.PLP.Chemscore.Hbond>
1.0000

> <Gold.PLP.Chemscore.CHOScore>
0.0000

> <Gold.PLP.Chemscore.Metal>
0.0000

> <Gold.Chemscore.Hbonds>
donor molecule, donor type, donor heavy atom, donor atom, acceptor molecule, acceptor atom, score
      L1  H     5    28       P1  8028  0.94

> <Gold.PLP.Chemscore.Internal.Correction>
0.0644

> <Gold.Rescore>
     Score         DG    S(hbond)    S(metal)    S(lipo)     H(rot)  DE(clash)    DE(int)     intcor
     10.65     -12.58       0.99        0.00      66.46       1.55       0.13       1.81       ----

> <Gold.Chemscore.Fitness>
10.6474

> <Gold.Chemscore.DG>
-12.5834

> <Gold.Chemscore.ZeroCoef>
-5.4800

> <Gold.Chemscore.Hbond>
0.9863

> <Gold.Chemscore.Metal>
0.0000

> <Gold.Chemscore.Lipo>
66.4596

> <Gold.Chemscore.Internal_Hbond>
0.0000

> <Gold.Chemscore.DEClash>
0.1309

> <Gold.Chemscore.DEInternal>
1.8052

> <Gold.Chemscore.Rot>
1.5495

> <Gold.Chemscore.Internal.Correction>
   9.000000E+99

> <Gold.Chemscore.Hbonds>
donor molecule, donor type, donor heavy atom, donor atom, acceptor molecule, acceptor atom, score
      L1  H     5    28       P1  8028  0.90

> <Gold.Chemscore.Hbond.Weighted>
-3.2943

> <Gold.Chemscore.Metal.Weighted>
-0.0000

> <Gold.Chemscore.Lipo.Weighted>
-7.7758

> <Gold.Chemscore.Internal_Hbond.Weighted>
0.0000

> <Gold.Chemscore.DEClash.Weighted>
0.1309

> <Gold.Chemscore.DEInternal.Weighted>
1.8052

> <Gold.Chemscore.Rot.Weighted>
3.9666

> <Gold.Chemscore.Internal.Correction.Weighted>
   9.000000E+99

> <Gold.Protein.RotatedTorsions>
[ 6907 6896 6895 6894 ] final   37.64 input  -60.11 | X-H torsion
[ 7974 7965 7964 7962 ] final   82.22 input  175.53 | X-H torsion
[ 8008 7997 7996 7995 ] final   56.47 input   59.86 | X-H torsion
[ 10167 10162 10161 10158 ] final  -43.92 input  -65.29 | X-H torsion
[ 10718 10713 10712 10709 ] final  -83.51 input   66.30 | X-H torsion
[ 10763 10752 10751 10750 ] final  -91.10 input  -60.55 | X-H torsion
[ 11005 11000 10999 10996 ] final  -97.36 input  -57.11 | X-H torsion

> <Gold.Protein.ActiveResidues>
 VAL166  LYS551  ARG553  GLY616  TRP617  ASP618  TYR619  PRO620  LYS621  CYS622 
 ASP623  PHE694  ASN695  SER759  ASP760  ASP761  ALA762  ILE779  LEU786  VAL792 
 PHE793  MET794  SER795  GLU796  ALA797  LYS798  CYS799  TRP800  GLU811  SER814 

> <Gold.Protein.RotatedAtoms>
  152.1459  134.9027  160.0550 H   0  0  0  0  0  0  0  0  0  0  0  0  # atno 6907 bound_to 6896
  152.0077  133.3844  159.4215 H   0  0  0  0  0  0  0  0  0  0  0  0  # atno 6908 bound_to 6896
  150.6870  134.3686  159.5026 H   0  0  0  0  0  0  0  0  0  0  0  0  # atno 6909 bound_to 6896
  145.6279  139.2399  143.2101 H   0  0  0  0  0  0  0  0  0  0  0  0  # atno 7974 bound_to 7965
  155.5179  140.3479  155.4401 H   0  0  0  0  0  0  0  0  0  0  0  0  # atno 8008 bound_to 7997
  156.0804  140.1385  156.9746 H   0  0  0  0  0  0  0  0  0  0  0  0  # atno 8009 bound_to 7997
  154.4577  140.0947  156.6780 H   0  0  0  0  0  0  0  0  0  0  0  0  # atno 8010 bound_to 7997
  140.6916  143.2957  151.3420 H   0  0  0  0  0  0  0  0  0  0  0  0  # atno 10167 bound_to 10162
  156.0017  130.4668  150.4269 H   0  0  0  0  0  0  0  0  0  0  0  0  # atno 10718 bound_to 10713
  154.6726  135.5280  153.8158 H   0  0  0  0  0  0  0  0  0  0  0  0  # atno 10763 bound_to 10752
  153.0511  135.6532  154.0701 H   0  0  0  0  0  0  0  0  0  0  0  0  # atno 10764 bound_to 10752
  154.0598  135.2962  155.3306 H   0  0  0  0  0  0  0  0  0  0  0  0  # atno 10765 bound_to 10752
  141.1381  133.8165  157.0696 H   0  0  0  0  0  0  0  0  0  0  0  0  # atno 11005 bound_to 11000
  146.1380  140.7097  142.9380 LP  0  0  0  0  0  0  0  0  0  0  0  0  # atno 17320 bound_to 7965
  144.7205  140.4357  143.7012 LP  0  0  0  0  0  0  0  0  0  0  0  0  # atno 17321 bound_to 7965
  139.6325  144.0693  152.2488 LP  0  0  0  0  0  0  0  0  0  0  0  0  # atno 17342 bound_to 10162
  140.0172  144.6180  150.7597 LP  0  0  0  0  0  0  0  0  0  0  0  0  # atno 17343 bound_to 10162
  157.2320  131.0506  151.2486 LP  0  0  0  0  0  0  0  0  0  0  0  0  # atno 17370 bound_to 10713
  157.3702  130.7177  149.6559 LP  0  0  0  0  0  0  0  0  0  0  0  0  # atno 17371 bound_to 10713
  140.0520  134.9800  157.1153 LP  0  0  0  0  0  0  0  0  0  0  0  0  # atno 17394 bound_to 11000
  140.3976  134.2117  155.7164 LP  0  0  0  0  0  0  0  0  0  0  0  0  # atno 17395 bound_to 11000

$$$$
