AV-unprocessed.smi:1701|AV-procd|sdf|6835|dock4
  -GOLD-   22720 8 13D 1   1.00000     0.00000
 Structure written by MMmdl.
 54 56  0  0  0  0  0  0  0  0  2 V2000
  152.4127  140.2628  158.3687 C   0  0  0  0  0  0  0  0  0  0  0  0
  150.9475  140.7190  158.3241 C   0  0  0  0  0  0  0  0  0  0  0  0
  150.5084  141.1139  156.9856 N   0  0  0  0  0  0  0  0  0  0  0  0
  150.9968  142.3743  156.4204 C   0  0  0  0  0  0  0  0  0  0  0  0
  151.5059  143.3560  157.4871 C   0  0  0  0  0  0  0  0  0  0  0  0
  149.7537  140.2236  156.1810 C   0  0  0  0  0  0  0  0  0  0  0  0
  148.6283  139.5263  156.6890 C   0  0  0  0  0  0  0  0  0  0  0  0
  147.9118  138.6559  155.8457 C   0  0  0  0  0  0  0  0  0  0  0  0
  148.3375  138.4918  154.5082 C   0  0  0  0  0  0  0  0  0  0  0  0
  147.6917  137.6611  153.5542 N   0  0  0  0  0  0  0  0  0  0  0  0
  146.3774  137.3961  153.4187 C   0  0  0  0  0  0  0  0  0  0  0  0
  145.4922  137.8491  154.1400 O   0  0  0  0  0  0  0  0  0  0  0  0
  146.0894  136.5412  152.4206 N   0  0  0  0  0  0  0  0  0  0  0  0
  144.7748  136.0458  152.0051 C   0  0  2  0  0  0  0  0  0  0  0  0
  143.9337  135.5398  153.1703 C   0  0  0  0  0  0  0  0  0  0  0  0
  142.8780  134.6662  152.4856 C   0  0  0  0  0  0  0  0  0  0  0  0
  143.4797  134.1780  151.2207 N   0  3  2  0  0  0  0  0  0  0  0  0
  143.4771  132.6970  151.0813 C   0  0  0  0  0  0  0  0  0  0  0  0
  144.4402  132.2486  149.9724 C   0  0  0  0  0  0  0  0  0  0  0  0
  145.8935  132.6462  150.2929 C   0  0  0  0  0  0  0  0  0  0  0  0
  145.9781  133.8432  151.2592 C   0  0  0  0  0  0  0  0  0  0  0  0
  144.8073  134.8349  151.0505 C   0  0  2  0  0  0  0  0  0  0  0  0
  149.4568  139.2342  154.0868 C   0  0  0  0  0  0  0  0  0  0  0  0
  150.1459  140.0677  154.8923 N   0  0  0  0  0  0  0  0  0  0  0  0
  152.6788  139.9295  159.3716 H   0  0  0  0  0  0  0  0  0  0  0  0
  153.0912  141.0737  158.1068 H   0  0  0  0  0  0  0  0  0  0  0  0
  152.5982  139.4343  157.6849 H   0  0  0  0  0  0  0  0  0  0  0  0
  150.2923  139.9469  158.7266 H   0  0  0  0  0  0  0  0  0  0  0  0
  150.8227  141.5694  158.9952 H   0  0  0  0  0  0  0  0  0  0  0  0
  151.7778  142.1785  155.6851 H   0  0  0  0  0  0  0  0  0  0  0  0
  150.1881  142.8485  155.8640 H   0  0  0  0  0  0  0  0  0  0  0  0
  151.8560  144.2773  157.0219 H   0  0  0  0  0  0  0  0  0  0  0  0
  152.3384  142.9376  158.0528 H   0  0  0  0  0  0  0  0  0  0  0  0
  150.7233  143.6241  158.1954 H   0  0  0  0  0  0  0  0  0  0  0  0
  148.2974  139.6337  157.7101 H   0  0  0  0  0  0  0  0  0  0  0  0
  147.0471  138.1454  156.2402 H   0  0  0  0  0  0  0  0  0  0  0  0
  148.3097  137.1583  152.9352 H   0  0  0  0  0  0  0  0  0  0  0  0
  146.8783  136.1753  151.9065 H   0  0  0  0  0  0  0  0  0  0  0  0
  144.2191  136.8576  151.5309 H   0  0  0  0  0  0  0  0  0  0  0  0
  144.5415  134.9273  153.8381 H   0  0  0  0  0  0  0  0  0  0  0  0
  143.4957  136.3457  153.7599 H   0  0  0  0  0  0  0  0  0  0  0  0
  142.5385  133.8615  153.1394 H   0  0  0  0  0  0  0  0  0  0  0  0
  142.0039  135.2662  152.2303 H   0  0  0  0  0  0  0  0  0  0  0  0
  143.7722  132.2291  152.0223 H   0  0  0  0  0  0  0  0  0  0  0  0
  142.4615  132.3624  150.8676 H   0  0  0  0  0  0  0  0  0  0  0  0
  144.3740  131.1708  149.8197 H   0  0  0  0  0  0  0  0  0  0  0  0
  144.1349  132.7083  149.0314 H   0  0  0  0  0  0  0  0  0  0  0  0
  146.4253  131.8008  150.7308 H   0  0  0  0  0  0  0  0  0  0  0  0
  146.4108  132.8797  149.3617 H   0  0  0  0  0  0  0  0  0  0  0  0
  145.9626  133.4794  152.2875 H   0  0  0  0  0  0  0  0  0  0  0  0
  146.9419  134.3355  151.1273 H   0  0  0  0  0  0  0  0  0  0  0  0
  144.8676  135.1983  150.0236 H   0  0  0  0  0  0  0  0  0  0  0  0
  149.8167  139.1553  153.0711 H   0  0  0  0  0  0  0  0  0  0  0  0
  142.8992  134.5372  150.4762 H   0  0  0  0  0  0  0  0  0  0  0  0
  1  2  1  0  0  0  0
  1 25  1  0  0  0  0
  1 26  1  0  0  0  0
  1 27  1  0  0  0  0
  2  3  1  0  0  0  0
  2 28  1  0  0  0  0
  2 29  1  0  0  0  0
  3  4  1  0  0  0  0
  3  6  1  0  0  0  0
  4  5  1  0  0  0  0
  4 30  1  0  0  0  0
  4 31  1  0  0  0  0
  5 32  1  0  0  0  0
  5 33  1  0  0  0  0
  5 34  1  0  0  0  0
  6 24  1  0  0  0  0
  6  7  2  0  0  0  0
  7  8  1  0  0  0  0
  7 35  1  0  0  0  0
  8  9  2  0  0  0  0
  8 36  1  0  0  0  0
  9 10  1  0  0  0  0
  9 23  1  0  0  0  0
 10 11  1  0  0  0  0
 10 37  1  0  0  0  0
 11 12  2  0  0  0  0
 11 13  1  0  0  0  0
 13 14  1  0  0  0  0
 13 38  1  0  0  0  0
 14 22  1  0  0  0  0
 14 15  1  0  0  0  0
 14 39  1  0  0  0  0
 15 16  1  0  0  0  0
 15 40  1  0  0  0  0
 15 41  1  0  0  0  0
 16 17  1  0  0  0  0
 16 42  1  0  0  0  0
 16 43  1  0  0  0  0
 17 22  1  0  0  0  0
 17 18  1  0  0  0  0
 17 54  1  0  0  0  0
 18 19  1  0  0  0  0
 18 44  1  0  0  0  0
 18 45  1  0  0  0  0
 19 20  1  0  0  0  0
 19 46  1  0  0  0  0
 19 47  1  0  0  0  0
 20 21  1  0  0  0  0
 20 48  1  0  0  0  0
 20 49  1  0  0  0  0
 21 22  1  0  0  0  0
 21 50  1  0  0  0  0
 21 51  1  0  0  0  0
 22 52  1  0  0  0  0
 23 24  2  0  0  0  0
 23 53  1  0  0  0  0
M  CHG  1  17   1
M  END
> <s_m_source_file>
AV-unprocessed.smi

> <i_m_source_file_index>
1701

> <i_lp_mmshare_version>
43012

> <i_f3d_flags>
0

> <s_epik_input>
W0NIM11bQ0gyXU4oW0NIMl1bQ0gzXSljMVtjSF1bY0hdYyhbY0hdbjEpW05IXUMoPU8pW05IXVtDQEhdKFtDSDJdW0NIMl0yKVtDQEBIXShOMjMpW0NIMl1bQ0gyXVtDSDJdW0NIMl0z

> <s_epik_cmdline>
J2VwaWtfcHl0aG9uJywgJy1waCcsICc3LjAnLCAnLXRuJywgJzgnLCAnLW1hJywgJzIwMCcsICctbWV0YWxfYmluZGluZycsICctaW1hZScsICc8aW5maWxlLm1hZT4nLCAnLW9tYWUnLCAnPG91dGZpbGUubWFlPic=

> <r_lp_tautomer_probability>
1

> <r_epik_Ionization_Penalty>
0.56662

> <r_epik_Ionization_Penalty_Charging>
0.000974069

> <r_epik_Ionization_Penalty_Neutral>
0.565646

> <r_epik_State_Penalty>
2.0247

> <r_epik_Charging_Adjusted_Penalty>
2.02568

> <i_epik_Tot_Q>
1

> <i_epik_Tot_abs_Q>
1

> <r_epik_Metal_State_Penalty>
1.51504

> <b_epik_Metal_Only>
0

> <s_lp_Force_Field>
OPLS_2005

> <r_lp_Energy>
59.1107

> <b_lp_Chiralities_Consistent>
1

> <s_lp_Variant>
AV-unprocessed.smi:1701-15

> <Gold.Version>
5.8.1

> <Gold.Id.Protein>
6NUR|6NUR_protein|mol2

> <Gold.PLP.Fitness>
50.6877

> <Gold.PLP.PLP>
-38.6473

> <Gold.PLP.part.hbond>
-3.6748

> <Gold.PLP.part.metal>
0.0000

> <Gold.PLP.part.buried>
-5.6635

> <Gold.PLP.part.nonpolar>
-30.0747

> <Gold.PLP.part.repulsive>
0.2337

> <Gold.PLP.ligand.clash>
0.0000

> <Gold.PLP.ligand.torsion>
1.5425

> <Gold.PLP.Chemscore.Hbond>
4.0139

> <Gold.PLP.Chemscore.CHOScore>
1.0000

> <Gold.PLP.Chemscore.Metal>
0.0000

> <Gold.Chemscore.Hbonds>
donor molecule, donor type, donor heavy atom, donor atom, acceptor molecule, acceptor atom, score
      L1  H    10    37       P1  7948  1.00
      L1  H    13    38       P1  7948  0.80
      L1  H    17    54       P1 10186  1.51
      P1  H  7989  7998       L1    24  0.60
      L1  C    23    53       P1  7957  1.00

> <Gold.PLP.Chemscore.Internal.Correction>
0.0837

> <Gold.Rescore>
     Score         DG    S(hbond)    S(metal)    S(lipo)     H(rot)  DE(clash)    DE(int)     intcor
     17.47     -20.92       2.25        0.00      95.91       1.28       0.05       3.39       ----

> <Gold.Chemscore.Fitness>
17.4691

> <Gold.Chemscore.DG>
-20.9156

> <Gold.Chemscore.ZeroCoef>
-5.4800

> <Gold.Chemscore.Hbond>
2.2458

> <Gold.Chemscore.Metal>
0.0000

> <Gold.Chemscore.Lipo>
95.9077

> <Gold.Chemscore.Internal_Hbond>
0.0000

> <Gold.Chemscore.DEClash>
0.0537

> <Gold.Chemscore.DEInternal>
3.3928

> <Gold.Chemscore.Rot>
1.2838

> <Gold.Chemscore.Internal.Correction>
   9.000000E+99

> <Gold.Chemscore.Hbonds>
donor molecule, donor type, donor heavy atom, donor atom, acceptor molecule, acceptor atom, score
      L1  H    10    37       P1  7948  0.95
      L1  H    13    38       P1  7948  0.76
      L1  H    17    54       P1 10186  0.35
      P1  H  7989  7998       L1    24  0.18

> <Gold.Chemscore.Hbond.Weighted>
-7.5009

> <Gold.Chemscore.Metal.Weighted>
-0.0000

> <Gold.Chemscore.Lipo.Weighted>
-11.2212

> <Gold.Chemscore.Internal_Hbond.Weighted>
0.0000

> <Gold.Chemscore.DEClash.Weighted>
0.0537

> <Gold.Chemscore.DEInternal.Weighted>
3.3928

> <Gold.Chemscore.Rot.Weighted>
3.2865

> <Gold.Chemscore.Internal.Correction.Weighted>
   9.000000E+99

> <Gold.Protein.RotatedTorsions>
[ 6907 6896 6895 6894 ] final  -76.70 input  -60.11 | X-H torsion
[ 7974 7965 7964 7962 ] final -177.67 input  175.53 | X-H torsion
[ 8008 7997 7996 7995 ] final   89.26 input   59.86 | X-H torsion
[ 10167 10162 10161 10158 ] final -143.86 input  -65.29 | X-H torsion
[ 10718 10713 10712 10709 ] final  -58.56 input   66.30 | X-H torsion
[ 10763 10752 10751 10750 ] final   12.30 input  -60.55 | X-H torsion
[ 11005 11000 10999 10996 ] final -165.17 input  -57.11 | X-H torsion

> <Gold.Protein.ActiveResidues>
 VAL166  LYS551  ARG553  GLY616  TRP617  ASP618  TYR619  PRO620  LYS621  CYS622 
 ASP623  PHE694  ASN695  SER759  ASP760  ASP761  ALA762  ILE779  LEU786  VAL792 
 PHE793  MET794  SER795  GLU796  ALA797  LYS798  CYS799  TRP800  GLU811  SER814 

> <Gold.Protein.RotatedAtoms>
  150.7020  134.4533  159.5346 H   0  0  0  0  0  0  0  0  0  0  0  0  # atno 6907 bound_to 6896
  152.2221  134.8400  160.0493 H   0  0  0  0  0  0  0  0  0  0  0  0  # atno 6908 bound_to 6896
  151.9246  133.3559  159.3946 H   0  0  0  0  0  0  0  0  0  0  0  0  # atno 6909 bound_to 6896
  144.7128  140.0984  143.6418 H   0  0  0  0  0  0  0  0  0  0  0  0  # atno 7974 bound_to 7965
  155.9977  140.3362  155.6815 H   0  0  0  0  0  0  0  0  0  0  0  0  # atno 8008 bound_to 7997
  155.6333  140.0687  157.2660 H   0  0  0  0  0  0  0  0  0  0  0  0  # atno 8009 bound_to 7997
  154.4239  140.1756  156.1483 H   0  0  0  0  0  0  0  0  0  0  0  0  # atno 8010 bound_to 7997
  139.7953  143.7908  152.2654 H   0  0  0  0  0  0  0  0  0  0  0  0  # atno 10167 bound_to 10162
  156.1126  130.4173  150.0594 H   0  0  0  0  0  0  0  0  0  0  0  0  # atno 10718 bound_to 10713
  153.1836  135.6831  153.8445 H   0  0  0  0  0  0  0  0  0  0  0  0  # atno 10763 bound_to 10752
  153.7768  135.3188  155.3361 H   0  0  0  0  0  0  0  0  0  0  0  0  # atno 10764 bound_to 10752
  154.8075  135.4739  154.0525 H   0  0  0  0  0  0  0  0  0  0  0  0  # atno 10765 bound_to 10752
  140.5787  134.5163  157.5175 H   0  0  0  0  0  0  0  0  0  0  0  0  # atno 11005 bound_to 11000
  145.9559  139.2766  143.1184 LP  0  0  0  0  0  0  0  0  0  0  0  0  # atno 17320 bound_to 7965
  145.9273  140.9073  143.0374 LP  0  0  0  0  0  0  0  0  0  0  0  0  # atno 17321 bound_to 7965
  139.8012  144.7373  150.9822 LP  0  0  0  0  0  0  0  0  0  0  0  0  # atno 17342 bound_to 10162
  140.7820  143.4343  151.0647 LP  0  0  0  0  0  0  0  0  0  0  0  0  # atno 17343 bound_to 10162
  156.8553  130.9473  151.3622 LP  0  0  0  0  0  0  0  0  0  0  0  0  # atno 17370 bound_to 10713
  157.6308  130.8728  149.9271 LP  0  0  0  0  0  0  0  0  0  0  0  0  # atno 17371 bound_to 10713
  139.9327  134.7933  156.0886 LP  0  0  0  0  0  0  0  0  0  0  0  0  # atno 17394 bound_to 11000
  141.1010  133.6677  156.2754 LP  0  0  0  0  0  0  0  0  0  0  0  0  # atno 17395 bound_to 11000

$$$$
