AV-unprocessed.smi:481|AV-procd|sdf|2682|dock6
  -GOLD-   2262023103D 1   1.00000     0.00000
 Structure written by MMmdl.
 42 44  0  0  0  0  0  0  0  0  2 V2000
  145.5936  143.7954  153.4852 C   0  0  0  0  0  0  0  0  0  0  0  0
  145.3768  142.9286  154.5848 O   0  0  0  0  0  0  0  0  0  0  0  0
  146.4747  142.0622  154.8165 C   0  0  0  0  0  0  0  0  0  0  0  0
  146.7643  141.2717  153.5347 C   0  0  0  0  0  0  0  0  0  0  0  0
  147.5560  140.0759  153.8074 N   0  0  0  0  0  0  0  0  0  0  0  0
  147.1729  138.7821  153.6610 C   0  0  0  0  0  0  0  0  0  0  0  0
  145.8864  138.4852  153.2115 N   0  0  0  0  0  0  0  0  0  0  0  0
  145.4940  137.2321  153.0623 N   0  0  0  0  0  0  0  0  0  0  0  0
  145.6407  136.7305  151.8889 C   0  0  0  0  0  0  0  0  0  0  0  0
  145.2491  135.3496  151.5689 C   0  0  0  0  0  0  0  0  0  0  0  0
  146.0942  134.4827  150.8360 C   0  0  0  0  0  0  0  0  0  0  0  0
  145.6855  133.1659  150.5467 C   0  0  0  0  0  0  0  0  0  0  0  0
  144.4307  132.7041  150.9865 C   0  0  0  0  0  0  0  0  0  0  0  0
  143.5845  133.5601  151.7163 C   0  0  0  0  0  0  0  0  0  0  0  0
  143.9924  134.8767  152.0062 C   0  0  0  0  0  0  0  0  0  0  0  0
  148.1078  137.8824  153.9836 N   0  0  0  0  0  0  0  0  0  0  0  0
  149.1735  138.6783  154.3783 C   0  0  0  0  0  0  0  0  0  0  0  0
  148.8648  139.9994  154.2898 C   0  0  0  0  0  0  0  0  0  0  0  0
  149.7917  141.0884  154.6621 C   0  0  0  0  0  0  0  0  0  0  0  0
  149.4485  142.2666  154.5866 O   0  0  0  0  0  0  0  0  0  0  0  0
  151.0060  140.6096  155.0815 N   0  5  0  0  0  0  0  0  0  0  0  0
  151.3655  139.2817  155.1801 C   0  0  0  0  0  0  0  0  0  0  0  0
  152.4844  138.9452  155.5682 O   0  0  0  0  0  0  0  0  0  0  0  0
  150.4632  138.3050  154.8407 N   0  0  0  0  0  0  0  0  0  0  0  0
  150.7626  136.8726  154.9307 C   0  0  0  0  0  0  0  0  0  0  0  0
  144.7228  144.4359  153.3463 H   0  0  0  0  0  0  0  0  0  0  0  0
  145.7484  143.2336  152.5632 H   0  0  0  0  0  0  0  0  0  0  0  0
  146.4594  144.4368  153.6547 H   0  0  0  0  0  0  0  0  0  0  0  0
  147.3524  142.6394  155.1115 H   0  0  0  0  0  0  0  0  0  0  0  0
  146.2407  141.3774  155.6332 H   0  0  0  0  0  0  0  0  0  0  0  0
  145.8292  140.9849  153.0535 H   0  0  0  0  0  0  0  0  0  0  0  0
  147.2859  141.8919  152.8068 H   0  0  0  0  0  0  0  0  0  0  0  0
  145.2579  139.2507  153.0151 H   0  0  0  0  0  0  0  0  0  0  0  0
  146.0691  137.3335  151.0852 H   0  0  0  0  0  0  0  0  0  0  0  0
  147.0615  134.8156  150.4880 H   0  0  0  0  0  0  0  0  0  0  0  0
  146.3364  132.5108  149.9863 H   0  0  0  0  0  0  0  0  0  0  0  0
  144.1176  131.6946  150.7642 H   0  0  0  0  0  0  0  0  0  0  0  0
  142.6211  133.2076  152.0542 H   0  0  0  0  0  0  0  0  0  0  0  0
  143.3307  135.5210  152.5670 H   0  0  0  0  0  0  0  0  0  0  0  0
  151.7700  136.6433  155.2789 H   0  0  0  0  0  0  0  0  0  0  0  0
  150.6441  136.4070  153.9518 H   0  0  0  0  0  0  0  0  0  0  0  0
  150.0648  136.3913  155.6167 H   0  0  0  0  0  0  0  0  0  0  0  0
  1  2  1  0  0  0  0
  1 26  1  0  0  0  0
  1 27  1  0  0  0  0
  1 28  1  0  0  0  0
  2  3  1  0  0  0  0
  3  4  1  0  0  0  0
  3 29  1  0  0  0  0
  3 30  1  0  0  0  0
  4  5  1  0  0  0  0
  4 31  1  0  0  0  0
  4 32  1  0  0  0  0
  5 18  1  0  0  0  0
  5  6  1  0  0  0  0
  6  7  1  0  0  0  0
  6 16  2  0  0  0  0
  7  8  1  0  0  0  0
  7 33  1  0  0  0  0
  8  9  2  0  0  0  0
  9 10  1  0  0  0  0
  9 34  1  0  0  0  0
 10 15  1  0  0  0  0
 10 11  2  0  0  0  0
 11 12  1  0  0  0  0
 11 35  1  0  0  0  0
 12 13  2  0  0  0  0
 12 36  1  0  0  0  0
 13 14  1  0  0  0  0
 13 37  1  0  0  0  0
 14 15  2  0  0  0  0
 14 38  1  0  0  0  0
 15 39  1  0  0  0  0
 16 17  1  0  0  0  0
 17 24  1  0  0  0  0
 17 18  2  0  0  0  0
 18 19  1  0  0  0  0
 19 20  2  0  0  0  0
 19 21  1  0  0  0  0
 21 22  1  0  0  0  0
 22 23  2  0  0  0  0
 22 24  1  0  0  0  0
 24 25  1  0  0  0  0
 25 40  1  0  0  0  0
 25 41  1  0  0  0  0
 25 42  1  0  0  0  0
M  CHG  1  21  -1
M  END
> <s_m_source_file>
AV-unprocessed.smi

> <i_m_source_file_index>
481

> <i_lp_mmshare_version>
43012

> <i_f3d_flags>
0

> <s_epik_input>
W0NIM11uMWMoPU8pW25IXWMoPU8pYyhjMTIpbihbQ0gyXVtDSDJdT1tDSDNdKWMobjIpW05IXS9OPVtDSF0vYzNbY0hdW2NIXVtjSF1bY0hdW2NIXTM=

> <s_epik_cmdline>
J2VwaWtfcHl0aG9uJywgJy1waCcsICc3LjAnLCAnLXRuJywgJzgnLCAnLW1hJywgJzIwMCcsICctbWV0YWxfYmluZGluZycsICctaW1hZScsICc8aW5maWxlLm1hZT4nLCAnLW9tYWUnLCAnPG91dGZpbGUubWFlPic=

> <r_epik_Ionization_Penalty>
4.48471

> <r_epik_Ionization_Penalty_Charging>
4.58449e-09

> <r_epik_Ionization_Penalty_Neutral>
4.48471

> <r_epik_State_Penalty>
4.48428

> <r_epik_Charging_Adjusted_Penalty>
4.48428

> <i_epik_Tot_Q>
-1

> <i_epik_Tot_abs_Q>
1

> <r_epik_Metal_State_Penalty>
0.811551

> <b_epik_Metal_Only>
1

> <s_epik_Chemistry_Notes>
This compound has an imine and may undergo hydrolysis.

> <s_lp_Force_Field>
OPLS_2005

> <r_lp_Energy>
36.4971

> <b_lp_Chiralities_Consistent>
1

> <s_lp_Variant>
AV-unprocessed.smi:481-3

> <Gold.Version>
5.8.1

> <Gold.Id.Protein>
6NUR|6NUR_protein|mol2

> <Gold.PLP.Fitness>
43.3858

> <Gold.PLP.PLP>
-39.9601

> <Gold.PLP.part.hbond>
-3.5087

> <Gold.PLP.part.metal>
0.0000

> <Gold.PLP.part.buried>
-2.7874

> <Gold.PLP.part.nonpolar>
-36.8310

> <Gold.PLP.part.repulsive>
5.3367

> <Gold.PLP.ligand.clash>
0.0000

> <Gold.PLP.ligand.torsion>
0.8780

> <Gold.PLP.Chemscore.Hbond>
1.7184

> <Gold.PLP.Chemscore.CHOScore>
0.0000

> <Gold.PLP.Chemscore.Metal>
0.0000

> <Gold.Chemscore.Hbonds>
donor molecule, donor type, donor heavy atom, donor atom, acceptor molecule, acceptor atom, score
      L1  H     7    33       P1 10175  0.91
      P1  H  7989  7998       L1    21  0.36
      P1  H  7997  8009       L1    23  0.32
      P1  H  8011  8017       L1    20  0.06

> <Gold.PLP.Chemscore.Internal.Correction>
0.0265

> <Gold.Rescore>
     Score         DG    S(hbond)    S(metal)    S(lipo)     H(rot)  DE(clash)    DE(int)     intcor
     12.12     -15.59       1.65        0.00      72.64       1.52       2.53       0.94       ----

> <Gold.Chemscore.Fitness>
12.1151

> <Gold.Chemscore.DG>
-15.5877

> <Gold.Chemscore.ZeroCoef>
-5.4800

> <Gold.Chemscore.Hbond>
1.6492

> <Gold.Chemscore.Metal>
0.0000

> <Gold.Chemscore.Lipo>
72.6354

> <Gold.Chemscore.Internal_Hbond>
0.0000

> <Gold.Chemscore.DEClash>
2.5346

> <Gold.Chemscore.DEInternal>
0.9379

> <Gold.Chemscore.Rot>
1.5230

> <Gold.Chemscore.Internal.Correction>
   9.000000E+99

> <Gold.Chemscore.Hbonds>
donor molecule, donor type, donor heavy atom, donor atom, acceptor molecule, acceptor atom, score
      L1  H     7    33       P1 10175  0.87
      P1  H  7997  8009       L1    23  0.33
      P1  H  8011  8017       L1    20  0.01

> <Gold.Chemscore.Hbond.Weighted>
-5.5082

> <Gold.Chemscore.Metal.Weighted>
-0.0000

> <Gold.Chemscore.Lipo.Weighted>
-8.4983

> <Gold.Chemscore.Internal_Hbond.Weighted>
0.0000

> <Gold.Chemscore.DEClash.Weighted>
2.5346

> <Gold.Chemscore.DEInternal.Weighted>
0.9379

> <Gold.Chemscore.Rot.Weighted>
3.8989

> <Gold.Chemscore.Internal.Correction.Weighted>
   9.000000E+99

> <Gold.Protein.RotatedTorsions>
[ 6907 6896 6895 6894 ] final    5.84 input  -60.11 | X-H torsion
[ 7974 7965 7964 7962 ] final   87.85 input  175.53 | X-H torsion
[ 8008 7997 7996 7995 ] final -155.29 input   59.86 | X-H torsion
[ 10167 10162 10161 10158 ] final   70.18 input  -65.29 | X-H torsion
[ 10718 10713 10712 10709 ] final  141.39 input   66.30 | X-H torsion
[ 10763 10752 10751 10750 ] final  -49.42 input  -60.55 | X-H torsion
[ 11005 11000 10999 10996 ] final  -26.08 input  -57.11 | X-H torsion

> <Gold.Protein.ActiveResidues>
 VAL166  LYS551  ARG553  GLY616  TRP617  ASP618  TYR619  PRO620  LYS621  CYS622 
 ASP623  PHE694  ASN695  SER759  ASP760  ASP761  ALA762  ILE779  LEU786  VAL792 
 PHE793  MET794  SER795  GLU796  ALA797  LYS798  CYS799  TRP800  GLU811  SER814 

> <Gold.Protein.RotatedAtoms>
  151.6640  135.0985  160.0184 H   0  0  0  0  0  0  0  0  0  0  0  0  # atno 6907 bound_to 6896
  152.3930  133.6702  159.6262 H   0  0  0  0  0  0  0  0  0  0  0  0  # atno 6908 bound_to 6896
  150.7842  133.8838  159.3334 H   0  0  0  0  0  0  0  0  0  0  0  0  # atno 6909 bound_to 6896
  145.5535  139.2297  143.2499 H   0  0  0  0  0  0  0  0  0  0  0  0  # atno 7974 bound_to 7965
  155.6996  140.0765  157.2415 H   0  0  0  0  0  0  0  0  0  0  0  0  # atno 8008 bound_to 7997
  154.4075  140.1650  156.2229 H   0  0  0  0  0  0  0  0  0  0  0  0  # atno 8009 bound_to 7997
  155.9380  140.3386  155.6306 H   0  0  0  0  0  0  0  0  0  0  0  0  # atno 8010 bound_to 7997
  140.0597  144.5243  150.7303 H   0  0  0  0  0  0  0  0  0  0  0  0  # atno 10167 bound_to 10162
  157.3925  131.1006  151.0632 H   0  0  0  0  0  0  0  0  0  0  0  0  # atno 10718 bound_to 10713
  154.0938  135.6573  153.4857 H   0  0  0  0  0  0  0  0  0  0  0  0  # atno 10763 bound_to 10752
  153.0312  135.5208  154.7354 H   0  0  0  0  0  0  0  0  0  0  0  0  # atno 10764 bound_to 10752
  154.6486  135.2998  154.9984 H   0  0  0  0  0  0  0  0  0  0  0  0  # atno 10765 bound_to 10752
  140.8996  133.7533  156.0526 H   0  0  0  0  0  0  0  0  0  0  0  0  # atno 11005 bound_to 11000
  146.1900  140.6359  142.9150 LP  0  0  0  0  0  0  0  0  0  0  0  0  # atno 17320 bound_to 7965
  144.7517  140.5208  143.6797 LP  0  0  0  0  0  0  0  0  0  0  0  0  # atno 17321 bound_to 7965
  140.7177  143.2560  151.4379 LP  0  0  0  0  0  0  0  0  0  0  0  0  # atno 17342 bound_to 10162
  139.5901  144.1518  152.2078 LP  0  0  0  0  0  0  0  0  0  0  0  0  # atno 17343 bound_to 10162
  157.1660  130.6246  149.5625 LP  0  0  0  0  0  0  0  0  0  0  0  0  # atno 17370 bound_to 10713
  155.9802  130.4801  150.6759 LP  0  0  0  0  0  0  0  0  0  0  0  0  # atno 17371 bound_to 10713
  140.8246  134.3249  157.5370 LP  0  0  0  0  0  0  0  0  0  0  0  0  # atno 17394 bound_to 11000
  139.8740  134.9329  156.3566 LP  0  0  0  0  0  0  0  0  0  0  0  0  # atno 17395 bound_to 11000

$$$$
