AV-unprocessed.smi:1174|AV-procd|sdf|4948|dock6
  -GOLD-   22720 3533D 1   1.00000     0.00000
 Structure written by MMmdl.
 41 42  0  0  0  0  0  0  0  0  1 V2000
  150.7581  141.8819  156.2172 C   0  0  0  0  0  0  0  0  0  0  0  0
  150.6097  141.0276  157.4833 C   0  0  2  0  0  0  0  0  0  0  0  0
  151.5312  141.5341  158.6143 C   0  0  0  0  0  0  0  0  0  0  0  0
  151.6222  142.9831  158.6593 N   0  0  0  0  0  0  0  0  0  0  0  0
  152.7423  143.7661  158.8453 C   0  0  0  0  0  0  0  0  0  0  0  0
  152.3330  145.0685  158.8407 C   0  0  0  0  0  0  0  0  0  0  0  0
  150.9277  144.9795  158.6351 C   0  0  0  0  0  0  0  0  0  0  0  0
  150.5058  143.7303  158.5228 N   0  0  0  0  0  0  0  0  0  0  0  0
  150.9111  139.6349  157.1531 N   0  0  0  0  0  0  0  0  0  0  0  0
  150.8058  138.5898  157.9900 C   0  0  0  0  0  0  0  0  0  0  0  0
  150.3961  138.6960  159.1460 O   0  0  0  0  0  0  0  0  0  0  0  0
  151.2625  137.2264  157.4377 C   0  0  1  0  0  0  0  0  0  0  0  0
  150.1346  136.1677  157.5091 C   0  0  0  0  0  0  0  0  0  0  0  0
  149.1068  136.2923  156.3666 C   0  0  0  0  0  0  0  0  0  0  0  0
  149.8104  136.3839  155.0019 C   0  0  0  0  0  0  0  0  0  0  0  0
  150.7484  137.5202  155.0148 N   0  0  0  0  0  0  0  0  0  0  0  0
  150.6549  138.6517  154.2701 C   0  0  0  0  0  0  0  0  0  0  0  0
  149.8359  138.5785  153.2163 N   0  0  0  0  0  0  0  0  0  0  0  0
  151.2617  139.6907  154.5254 O   0  0  0  0  0  0  0  0  0  0  0  0
  151.8260  137.3181  155.9970 C   0  0  0  0  0  0  0  0  0  0  0  0
  150.5105  142.9247  156.4173 H   0  0  0  0  0  0  0  0  0  0  0  0
  150.0923  141.5325  155.4272 H   0  0  0  0  0  0  0  0  0  0  0  0
  151.7783  141.8500  155.8326 H   0  0  0  0  0  0  0  0  0  0  0  0
  149.5716  141.1157  157.8096 H   0  0  0  0  0  0  0  0  0  0  0  0
  151.1806  141.1761  159.5833 H   0  0  0  0  0  0  0  0  0  0  0  0
  152.5390  141.1371  158.4840 H   0  0  0  0  0  0  0  0  0  0  0  0
  153.7238  143.3349  158.9763 H   0  0  0  0  0  0  0  0  0  0  0  0
  152.9433  145.9499  158.9680 H   0  0  0  0  0  0  0  0  0  0  0  0
  150.2065  145.7803  158.5653 H   0  0  0  0  0  0  0  0  0  0  0  0
  151.2542  139.4562  156.2207 H   0  0  0  0  0  0  0  0  0  0  0  0
  152.0732  136.8794  158.0806 H   0  0  0  0  0  0  0  0  0  0  0  0
  150.5879  135.1768  157.4613 H   0  0  0  0  0  0  0  0  0  0  0  0
  149.6240  136.2128  158.4721 H   0  0  0  0  0  0  0  0  0  0  0  0
  148.4340  135.4345  156.3821 H   0  0  0  0  0  0  0  0  0  0  0  0
  148.4801  137.1718  156.5162 H   0  0  0  0  0  0  0  0  0  0  0  0
  150.3698  135.4666  154.8130 H   0  0  0  0  0  0  0  0  0  0  0  0
  149.0632  136.4329  154.2103 H   0  0  0  0  0  0  0  0  0  0  0  0
  149.7208  139.3785  152.6121 H   0  0  0  0  0  0  0  0  0  0  0  0
  149.3416  137.7189  153.0269 H   0  0  0  0  0  0  0  0  0  0  0  0
  152.5898  138.0960  155.9493 H   0  0  0  0  0  0  0  0  0  0  0  0
  152.3488  136.3927  155.7516 H   0  0  0  0  0  0  0  0  0  0  0  0
  1  2  1  0  0  0  0
  1 21  1  0  0  0  0
  1 22  1  0  0  0  0
  1 23  1  0  0  0  0
  2  3  1  0  0  0  0
  2  9  1  0  0  0  0
  2 24  1  0  0  0  0
  3  4  1  0  0  0  0
  3 25  1  0  0  0  0
  3 26  1  0  0  0  0
  4  8  1  0  0  0  0
  4  5  1  0  0  0  0
  5  6  2  0  0  0  0
  5 27  1  0  0  0  0
  6  7  1  0  0  0  0
  6 28  1  0  0  0  0
  7  8  2  0  0  0  0
  7 29  1  0  0  0  0
  9 10  1  0  0  0  0
  9 30  1  0  0  0  0
 10 11  2  0  0  0  0
 10 12  1  0  0  0  0
 12 20  1  0  0  0  0
 12 13  1  0  0  0  0
 12 31  1  0  0  0  0
 13 14  1  0  0  0  0
 13 32  1  0  0  0  0
 13 33  1  0  0  0  0
 14 15  1  0  0  0  0
 14 34  1  0  0  0  0
 14 35  1  0  0  0  0
 15 16  1  0  0  0  0
 15 36  1  0  0  0  0
 15 37  1  0  0  0  0
 16 17  1  0  0  0  0
 16 20  1  0  0  0  0
 17 18  1  0  0  0  0
 17 19  2  0  0  0  0
 18 38  1  0  0  0  0
 18 39  1  0  0  0  0
 20 40  1  0  0  0  0
 20 41  1  0  0  0  0
M  END
> <s_m_source_file>
AV-unprocessed.smi

> <i_m_source_file_index>
1174

> <i_lp_mmshare_version>
43012

> <i_f3d_flags>
0

> <s_epik_input>
bjFbY0hdW2NIXVtjSF1uMVtDSDJdW0NAQEhdKFtDSDNdKVtOSF1DKD1PKVtDQEBIXTJbQ0gyXVtDSDJdW0NIMl1OKFtDSDJdMilDKD1PKVtOSDJd

> <s_epik_cmdline>
J2VwaWtfcHl0aG9uJywgJy1waCcsICc3LjAnLCAnLXRuJywgJzgnLCAnLW1hJywgJzIwMCcsICctbWV0YWxfYmluZGluZycsICctaW1hZScsICc8aW5maWxlLm1hZT4nLCAnLW9tYWUnLCAnPG91dGZpbGUubWFlPic=

> <r_lp_tautomer_probability>
1

> <r_epik_Ionization_Penalty>
0.000372452

> <r_epik_Ionization_Penalty_Charging>
0

> <r_epik_Ionization_Penalty_Neutral>
0.000372452

> <r_epik_State_Penalty>
-0

> <r_epik_Charging_Adjusted_Penalty>
0

> <i_epik_Tot_Q>
0

> <i_epik_Tot_abs_Q>
0

> <r_epik_Metal_State_Penalty>
-0

> <b_epik_Metal_Only>
0

> <s_lp_Force_Field>
OPLS_2005

> <r_lp_Energy>
23.1922

> <b_lp_Chiralities_Consistent>
1

> <s_lp_Variant>
AV-unprocessed.smi:1174-3

> <Gold.Version>
5.8.1

> <Gold.Id.Protein>
6NUR|6NUR_protein|mol2

> <Gold.PLP.Fitness>
45.2319

> <Gold.PLP.PLP>
-34.5521

> <Gold.PLP.part.hbond>
-4.0000

> <Gold.PLP.part.metal>
0.0000

> <Gold.PLP.part.buried>
-4.7941

> <Gold.PLP.part.nonpolar>
-26.6764

> <Gold.PLP.part.repulsive>
0.3826

> <Gold.PLP.ligand.clash>
0.1401

> <Gold.PLP.ligand.torsion>
0.5784

> <Gold.PLP.Chemscore.Hbond>
2.9840

> <Gold.PLP.Chemscore.CHOScore>
0.9934

> <Gold.PLP.Chemscore.Metal>
0.0000

> <Gold.Chemscore.Hbonds>
donor molecule, donor type, donor heavy atom, donor atom, acceptor molecule, acceptor atom, score
      L1  H    18    38       P1  7957  1.00
      L1  H    18    39       P1  7948  0.98
      P1  H  7989  7998       L1    19  1.00
      L1  C     7    29       P1  8029  0.75

> <Gold.PLP.Chemscore.Internal.Correction>
0.0445

> <Gold.Rescore>
     Score         DG    S(hbond)    S(metal)    S(lipo)     H(rot)  DE(clash)    DE(int)     intcor
     14.18     -19.11       2.83        0.00      75.48       1.82       0.03       4.90       ----

> <Gold.Chemscore.Fitness>
14.1814

> <Gold.Chemscore.DG>
-19.1055

> <Gold.Chemscore.ZeroCoef>
-5.4800

> <Gold.Chemscore.Hbond>
2.8309

> <Gold.Chemscore.Metal>
0.0000

> <Gold.Chemscore.Lipo>
75.4789

> <Gold.Chemscore.Internal_Hbond>
0.0000

> <Gold.Chemscore.DEClash>
0.0279

> <Gold.Chemscore.DEInternal>
4.8962

> <Gold.Chemscore.Rot>
1.8206

> <Gold.Chemscore.Internal.Correction>
   9.000000E+99

> <Gold.Chemscore.Hbonds>
donor molecule, donor type, donor heavy atom, donor atom, acceptor molecule, acceptor atom, score
      L1  H    18    38       P1  7957  0.93
      L1  H    18    39       P1  7948  0.89
      P1  H  7989  7998       L1    19  0.99

> <Gold.Chemscore.Hbond.Weighted>
-9.4551

> <Gold.Chemscore.Metal.Weighted>
-0.0000

> <Gold.Chemscore.Lipo.Weighted>
-8.8310

> <Gold.Chemscore.Internal_Hbond.Weighted>
0.0000

> <Gold.Chemscore.DEClash.Weighted>
0.0279

> <Gold.Chemscore.DEInternal.Weighted>
4.8962

> <Gold.Chemscore.Rot.Weighted>
4.6607

> <Gold.Chemscore.Internal.Correction.Weighted>
   9.000000E+99

> <Gold.Protein.RotatedTorsions>
[ 6907 6896 6895 6894 ] final -119.81 input  -60.11 | X-H torsion
[ 7974 7965 7964 7962 ] final -162.28 input  175.53 | X-H torsion
[ 8008 7997 7996 7995 ] final -105.53 input   59.86 | X-H torsion
[ 10167 10162 10161 10158 ] final  108.60 input  -65.29 | X-H torsion
[ 10718 10713 10712 10709 ] final  177.88 input   66.30 | X-H torsion
[ 10763 10752 10751 10750 ] final  -49.79 input  -60.55 | X-H torsion
[ 11005 11000 10999 10996 ] final   -7.96 input  -57.11 | X-H torsion

> <Gold.Protein.ActiveResidues>
 VAL166  LYS551  ARG553  GLY616  TRP617  ASP618  TYR619  PRO620  LYS621  CYS622 
 ASP623  PHE694  ASN695  SER759  ASP760  ASP761  ALA762  ILE779  LEU786  VAL792 
 PHE793  MET794  SER795  GLU796  ALA797  LYS798  CYS799  TRP800  GLU811  SER814 

> <Gold.Protein.RotatedAtoms>
  150.8338  133.8047  159.3087 H   0  0  0  0  0  0  0  0  0  0  0  0  # atno 6907 bound_to 6896
  151.5769  135.1058  160.0018 H   0  0  0  0  0  0  0  0  0  0  0  0  # atno 6908 bound_to 6896
  152.4414  133.7413  159.6698 H   0  0  0  0  0  0  0  0  0  0  0  0  # atno 6909 bound_to 6896
  144.7363  140.3276  143.6159 H   0  0  0  0  0  0  0  0  0  0  0  0  # atno 7974 bound_to 7965
  154.9012  140.0413  157.1894 H   0  0  0  0  0  0  0  0  0  0  0  0  # atno 8008 bound_to 7997
  154.8442  140.2919  155.5618 H   0  0  0  0  0  0  0  0  0  0  0  0  # atno 8009 bound_to 7997
  156.2993  140.2477  156.3390 H   0  0  0  0  0  0  0  0  0  0  0  0  # atno 8010 bound_to 7997
  139.6833  144.7116  151.1476 H   0  0  0  0  0  0  0  0  0  0  0  0  # atno 10167 bound_to 10162
  156.8989  130.9872  151.3038 H   0  0  0  0  0  0  0  0  0  0  0  0  # atno 10718 bound_to 10713
  154.0998  135.6565  153.4866 H   0  0  0  0  0  0  0  0  0  0  0  0  # atno 10763 bound_to 10752
  153.0292  135.5222  154.7298 H   0  0  0  0  0  0  0  0  0  0  0  0  # atno 10764 bound_to 10752
  154.6446  135.2993  155.0031 H   0  0  0  0  0  0  0  0  0  0  0  0  # atno 10765 bound_to 10752
  140.7183  133.8850  155.8802 H   0  0  0  0  0  0  0  0  0  0  0  0  # atno 11005 bound_to 11000
  145.7505  139.1792  143.2324 LP  0  0  0  0  0  0  0  0  0  0  0  0  # atno 17320 bound_to 7965
  146.1065  140.7481  142.9524 LP  0  0  0  0  0  0  0  0  0  0  0  0  # atno 17321 bound_to 7965
  140.7659  143.5666  150.9040 LP  0  0  0  0  0  0  0  0  0  0  0  0  # atno 17342 bound_to 10162
  139.9340  143.6460  152.3070 LP  0  0  0  0  0  0  0  0  0  0  0  0  # atno 17343 bound_to 10162
  157.6038  130.8532  149.8844 LP  0  0  0  0  0  0  0  0  0  0  0  0  # atno 17370 bound_to 10713
  156.0592  130.3703  150.1021 LP  0  0  0  0  0  0  0  0  0  0  0  0  # atno 17371 bound_to 10713
  141.0025  134.1131  157.4303 LP  0  0  0  0  0  0  0  0  0  0  0  0  # atno 17394 bound_to 11000
  139.8854  135.0072  156.6434 LP  0  0  0  0  0  0  0  0  0  0  0  0  # atno 17395 bound_to 11000

$$$$
