AV-unprocessed.smi:2375|AV-procd|sdf|9443|dock9
  -GOLD-   2272013 73D 1   1.00000     0.00000
 Structure written by MMmdl.
 37 38  0  0  0  0  0  0  0  0  1 V2000
  145.7192  137.0230  151.1789 C   0  0  0  0  0  0  0  0  0  0  0  0
  146.2117  137.9978  152.1937 C   0  0  0  0  0  0  0  0  0  0  0  0
  146.1279  137.9021  153.5605 C   0  0  0  0  0  0  0  0  0  0  0  0
  146.7030  138.9794  154.2377 N   0  0  0  0  0  0  0  0  0  0  0  0
  147.2244  139.8862  153.4065 C   0  0  0  0  0  0  0  0  0  0  0  0
  147.9416  141.1211  153.8631 C   0  0  1  0  0  0  0  0  0  0  0  0
  147.0022  142.1134  154.5623 C   0  0  0  0  0  0  0  0  0  0  0  0
  149.2125  140.8137  154.6853 C   0  0  0  0  0  0  0  0  0  0  0  0
  149.7604  142.0028  155.3301 N   0  0  0  0  0  0  0  0  0  0  0  0
  150.6999  142.0037  156.2895 C   0  0  0  0  0  0  0  0  0  0  0  0
  151.2741  140.9880  156.6773 O   0  0  0  0  0  0  0  0  0  0  0  0
  150.9704  143.2166  156.8043 N   0  0  0  0  0  0  0  0  0  0  0  0
  151.9350  143.5496  157.8547 C   0  0  0  0  0  0  0  0  0  0  0  0
  151.7763  142.6356  159.0936 C   0  0  0  0  0  0  0  0  0  0  0  0
  151.8681  143.5899  160.2539 C   0  0  0  0  0  0  0  0  0  0  0  0
  151.8748  144.8634  159.8650 C   0  0  0  0  0  0  0  0  0  0  0  0
  151.7874  145.0044  158.3708 C   0  0  0  0  0  0  0  0  0  0  0  0
  147.0136  139.4687  151.7097 S   0  0  0  0  0  0  0  0  0  0  0  0
  145.1470  136.2226  151.6487 H   0  0  0  0  0  0  0  0  0  0  0  0
  146.5539  136.5707  150.6433 H   0  0  0  0  0  0  0  0  0  0  0  0
  145.0747  137.5145  150.4501 H   0  0  0  0  0  0  0  0  0  0  0  0
  145.6848  137.1016  154.1340 H   0  0  0  0  0  0  0  0  0  0  0  0
  148.2806  141.6204  152.9545 H   0  0  0  0  0  0  0  0  0  0  0  0
  146.1688  142.3870  153.9146 H   0  0  0  0  0  0  0  0  0  0  0  0
  147.5293  143.0299  154.8284 H   0  0  0  0  0  0  0  0  0  0  0  0
  146.5888  141.6896  155.4779 H   0  0  0  0  0  0  0  0  0  0  0  0
  149.0166  140.0333  155.4224 H   0  0  0  0  0  0  0  0  0  0  0  0
  149.9874  140.4241  154.0244 H   0  0  0  0  0  0  0  0  0  0  0  0
  149.3531  142.8886  155.0683 H   0  0  0  0  0  0  0  0  0  0  0  0
  150.4944  144.0007  156.3821 H   0  0  0  0  0  0  0  0  0  0  0  0
  152.9496  143.4134  157.4754 H   0  0  0  0  0  0  0  0  0  0  0  0
  150.8088  142.1324  159.1210 H   0  0  0  0  0  0  0  0  0  0  0  0
  152.5617  141.8807  159.1442 H   0  0  0  0  0  0  0  0  0  0  0  0
  151.8994  143.2509  161.2788 H   0  0  0  0  0  0  0  0  0  0  0  0
  151.9113  145.7188  160.5237 H   0  0  0  0  0  0  0  0  0  0  0  0
  152.5750  145.6543  157.9887 H   0  0  0  0  0  0  0  0  0  0  0  0
  150.8211  145.4401  158.1148 H   0  0  0  0  0  0  0  0  0  0  0  0
  1  2  1  0  0  0  0
  1 19  1  0  0  0  0
  1 20  1  0  0  0  0
  1 21  1  0  0  0  0
  2 18  1  0  0  0  0
  2  3  2  0  0  0  0
  3  4  1  0  0  0  0
  3 22  1  0  0  0  0
  4  5  2  0  0  0  0
  5  6  1  0  0  0  0
  5 18  1  0  0  0  0
  6  7  1  0  0  0  0
  6  8  1  0  0  0  0
  6 23  1  0  0  0  0
  7 24  1  0  0  0  0
  7 25  1  0  0  0  0
  7 26  1  0  0  0  0
  8  9  1  0  0  0  0
  8 27  1  0  0  0  0
  8 28  1  0  0  0  0
  9 10  1  0  0  0  0
  9 29  1  0  0  0  0
 10 11  2  0  0  0  0
 10 12  1  0  0  0  0
 12 13  1  0  0  0  0
 12 30  1  0  0  0  0
 13 17  1  0  0  0  0
 13 14  1  0  0  0  0
 13 31  1  0  0  0  0
 14 15  1  0  0  0  0
 14 32  1  0  0  0  0
 14 33  1  0  0  0  0
 15 16  2  0  0  0  0
 15 34  1  0  0  0  0
 16 17  1  0  0  0  0
 16 35  1  0  0  0  0
 17 36  1  0  0  0  0
 17 37  1  0  0  0  0
M  END
> <s_m_source_file>
AV-unprocessed.smi

> <i_m_source_file_index>
2375

> <i_lp_mmshare_version>
43012

> <i_f3d_flags>
0

> <s_epik_input>
W0NIM11jMVtjSF1uYyhzMSlbQ0BIXShbQ0gzXSlbQ0gyXVtOSF1DKD1PKVtOSF1bQ0hdMltDSDJdW0NIXT1bQ0hdW0NIMl0y

> <s_epik_cmdline>
J2VwaWtfcHl0aG9uJywgJy1waCcsICc3LjAnLCAnLXRuJywgJzgnLCAnLW1hJywgJzIwMCcsICctbWV0YWxfYmluZGluZycsICctaW1hZScsICc8aW5maWxlLm1hZT4nLCAnLW9tYWUnLCAnPG91dGZpbGUubWFlPic=

> <r_epik_Ionization_Penalty>
0.000644205

> <r_epik_Ionization_Penalty_Charging>
0

> <r_epik_Ionization_Penalty_Neutral>
0.000644205

> <r_epik_State_Penalty>
0.000370883

> <r_epik_Charging_Adjusted_Penalty>
0.000370883

> <i_epik_Tot_Q>
0

> <i_epik_Tot_abs_Q>
0

> <r_epik_Metal_State_Penalty>
-0

> <b_epik_Metal_Only>
0

> <s_lp_Force_Field>
OPLS_2005

> <r_lp_Energy>
15.8173

> <b_lp_Chiralities_Consistent>
1

> <s_lp_Variant>
AV-unprocessed.smi:2375-2

> <Gold.Version>
5.8.1

> <Gold.Id.Protein>
6NUR|6NUR_protein|mol2

> <Gold.PLP.Fitness>
45.9782

> <Gold.PLP.PLP>
-40.6783

> <Gold.PLP.part.hbond>
-2.0000

> <Gold.PLP.part.metal>
0.0000

> <Gold.PLP.part.buried>
0.7484

> <Gold.PLP.part.nonpolar>
-40.1123

> <Gold.PLP.part.repulsive>
0.3867

> <Gold.PLP.ligand.clash>
0.0000

> <Gold.PLP.ligand.torsion>
0.3442

> <Gold.PLP.Chemscore.Hbond>
1.9600

> <Gold.PLP.Chemscore.CHOScore>
0.0000

> <Gold.PLP.Chemscore.Metal>
0.0000

> <Gold.Chemscore.Hbonds>
donor molecule, donor type, donor heavy atom, donor atom, acceptor molecule, acceptor atom, score
      L1  H     9    29       P1  8028  0.94
      L1  H    12    30       P1  8028  0.99

> <Gold.PLP.Chemscore.Internal.Correction>
0.1084

> <Gold.Rescore>
     Score         DG    S(hbond)    S(metal)    S(lipo)     H(rot)  DE(clash)    DE(int)     intcor
     19.06     -20.50       1.94        0.00     105.74       1.50       0.06       1.37       ----

> <Gold.Chemscore.Fitness>
19.0603

> <Gold.Chemscore.DG>
-20.4986

> <Gold.Chemscore.ZeroCoef>
-5.4800

> <Gold.Chemscore.Hbond>
1.9430

> <Gold.Chemscore.Metal>
0.0000

> <Gold.Chemscore.Lipo>
105.7433

> <Gold.Chemscore.Internal_Hbond>
0.0000

> <Gold.Chemscore.DEClash>
0.0637

> <Gold.Chemscore.DEInternal>
1.3746

> <Gold.Chemscore.Rot>
1.5012

> <Gold.Chemscore.Internal.Correction>
   9.000000E+99

> <Gold.Chemscore.Hbonds>
donor molecule, donor type, donor heavy atom, donor atom, acceptor molecule, acceptor atom, score
      L1  H     9    29       P1  8028  0.89
      L1  H    12    30       P1  8028  0.94

> <Gold.Chemscore.Hbond.Weighted>
-6.4895

> <Gold.Chemscore.Metal.Weighted>
-0.0000

> <Gold.Chemscore.Lipo.Weighted>
-12.3720

> <Gold.Chemscore.Internal_Hbond.Weighted>
0.0000

> <Gold.Chemscore.DEClash.Weighted>
0.0637

> <Gold.Chemscore.DEInternal.Weighted>
1.3746

> <Gold.Chemscore.Rot.Weighted>
3.8429

> <Gold.Chemscore.Internal.Correction.Weighted>
   9.000000E+99

> <Gold.Protein.RotatedTorsions>
[ 6907 6896 6895 6894 ] final  -16.80 input  -60.11 | X-H torsion
[ 7974 7965 7964 7962 ] final  -60.40 input  175.53 | X-H torsion
[ 8008 7997 7996 7995 ] final  -27.72 input   59.86 | X-H torsion
[ 10167 10162 10161 10158 ] final  172.54 input  -65.29 | X-H torsion
[ 10718 10713 10712 10709 ] final  111.44 input   66.30 | X-H torsion
[ 10763 10752 10751 10750 ] final -139.13 input  -60.55 | X-H torsion
[ 11005 11000 10999 10996 ] final  -65.13 input  -57.11 | X-H torsion

> <Gold.Protein.ActiveResidues>
 VAL166  LYS551  ARG553  GLY616  TRP617  ASP618  TYR619  PRO620  LYS621  CYS622 
 ASP623  PHE694  ASN695  SER759  ASP760  ASP761  ALA762  ILE779  LEU786  VAL792 
 PHE793  MET794  SER795  GLU796  ALA797  LYS798  CYS799  TRP800  GLU811  SER814 

> <Gold.Protein.RotatedAtoms>
  151.3031  135.0774  159.9245 H   0  0  0  0  0  0  0  0  0  0  0  0  # atno 6907 bound_to 6896
  152.5293  133.9813  159.7818 H   0  0  0  0  0  0  0  0  0  0  0  0  # atno 6908 bound_to 6896
  151.0103  133.5920  159.2714 H   0  0  0  0  0  0  0  0  0  0  0  0  # atno 6909 bound_to 6896
  145.8159  140.8570  143.0157 H   0  0  0  0  0  0  0  0  0  0  0  0  # atno 7974 bound_to 7965
  154.4364  140.1865  156.0976 H   0  0  0  0  0  0  0  0  0  0  0  0  # atno 8008 bound_to 7997
  156.0317  140.3330  155.7121 H   0  0  0  0  0  0  0  0  0  0  0  0  # atno 8009 bound_to 7997
  155.5830  140.0623  157.2769 H   0  0  0  0  0  0  0  0  0  0  0  0  # atno 8010 bound_to 7997
  139.5079  144.3363  152.0062 H   0  0  0  0  0  0  0  0  0  0  0  0  # atno 10167 bound_to 10162
  157.6445  131.0950  150.6748 H   0  0  0  0  0  0  0  0  0  0  0  0  # atno 10718 bound_to 10713
  154.8618  135.3591  154.5497 H   0  0  0  0  0  0  0  0  0  0  0  0  # atno 10763 bound_to 10752
  153.6116  135.7009  153.5349 H   0  0  0  0  0  0  0  0  0  0  0  0  # atno 10764 bound_to 10752
  153.3204  135.4153  155.1373 H   0  0  0  0  0  0  0  0  0  0  0  0  # atno 10765 bound_to 10752
  141.1445  133.6676  156.5939 H   0  0  0  0  0  0  0  0  0  0  0  0  # atno 11005 bound_to 11000
  144.6752  140.0463  143.7480 LP  0  0  0  0  0  0  0  0  0  0  0  0  # atno 17320 bound_to 7965
  145.9727  139.2882  143.1089 LP  0  0  0  0  0  0  0  0  0  0  0  0  # atno 17321 bound_to 7965
  140.2801  144.3869  150.6122 LP  0  0  0  0  0  0  0  0  0  0  0  0  # atno 17342 bound_to 10162
  140.6024  143.2167  151.7046 LP  0  0  0  0  0  0  0  0  0  0  0  0  # atno 17343 bound_to 10162
  156.7067  130.4639  149.5558 LP  0  0  0  0  0  0  0  0  0  0  0  0  # atno 17370 bound_to 10713
  156.1758  130.6466  151.0892 LP  0  0  0  0  0  0  0  0  0  0  0  0  # atno 17371 bound_to 10713
  140.3741  134.7580  157.4618 LP  0  0  0  0  0  0  0  0  0  0  0  0  # atno 17394 bound_to 11000
  140.0688  134.5892  155.8666 LP  0  0  0  0  0  0  0  0  0  0  0  0  # atno 17395 bound_to 11000

$$$$
