AV-unprocessed.smi:2670|AV-procd|sdf|10345|dock2
  -GOLD-   2272014373D 1   1.00000     0.00000
 Structure written by MMmdl.
 40 41  0  0  0  0  0  0  0  0  2 V2000
  151.6946  144.0552  157.3896 C   0  0  0  0  0  0  0  0  0  0  0  0
  152.1517  143.1705  158.5114 C   0  0  0  0  0  0  0  0  0  0  0  0
  152.8180  143.5426  159.7121 C   0  0  0  0  0  0  0  0  0  0  0  0
  153.0030  142.3627  160.3761 C   0  0  0  0  0  0  0  0  0  0  0  0
  153.6470  142.0997  161.6989 C   0  0  0  0  0  0  0  0  0  0  0  0
  152.4578  141.3658  159.5831 N   0  0  0  0  0  0  0  0  0  0  0  0
  152.3972  139.9296  159.8148 C   0  0  0  0  0  0  0  0  0  0  0  0
  153.0824  139.1481  158.6916 C   0  0  0  0  0  0  0  0  0  0  0  0
  154.2562  139.3906  158.4167 O   0  0  0  0  0  0  0  0  0  0  0  0
  152.3056  138.2469  158.0625 N   0  0  0  0  0  0  0  0  0  0  0  0
  152.5583  137.3156  156.9498 C   0  0  0  0  0  0  0  0  0  0  0  0
  153.7256  136.4209  157.4373 C   0  0  0  0  0  0  0  0  0  0  0  0
  154.7968  136.4459  156.7908 O   0  0  0  0  0  0  0  0  0  0  0  0
  153.5196  135.6802  158.4255 O   0  5  0  0  0  0  0  0  0  0  0  0
  151.3530  136.4237  156.5025 C   0  0  0  0  0  0  0  0  0  0  0  0
  150.2467  137.1878  155.7471 C   0  0  0  0  0  0  0  0  0  0  0  0
  150.8138  137.9717  154.5593 C   0  0  0  0  0  0  0  0  0  0  0  0
  151.9230  138.9210  155.0243 C   0  0  0  0  0  0  0  0  0  0  0  0
  153.0506  138.1515  155.7324 C   0  0  0  0  0  0  0  0  0  0  0  0
  151.9438  141.8665  158.4380 N   0  0  0  0  0  0  0  0  0  0  0  0
  151.8514  145.1073  157.6284 H   0  0  0  0  0  0  0  0  0  0  0  0
  150.6324  143.9164  157.1865 H   0  0  0  0  0  0  0  0  0  0  0  0
  152.2421  143.8387  156.4721 H   0  0  0  0  0  0  0  0  0  0  0  0
  153.1160  144.5282  160.0374 H   0  0  0  0  0  0  0  0  0  0  0  0
  154.2435  142.9547  162.0179 H   0  0  0  0  0  0  0  0  0  0  0  0
  154.3054  141.2322  161.6542 H   0  0  0  0  0  0  0  0  0  0  0  0
  152.8934  141.9153  162.4647 H   0  0  0  0  0  0  0  0  0  0  0  0
  152.8829  139.6896  160.7621 H   0  0  0  0  0  0  0  0  0  0  0  0
  151.3511  139.6365  159.9141 H   0  0  0  0  0  0  0  0  0  0  0  0
  151.3569  138.2017  158.4046 H   0  0  0  0  0  0  0  0  0  0  0  0
  151.7232  135.6493  155.8284 H   0  0  0  0  0  0  0  0  0  0  0  0
  150.9227  135.8777  157.3421 H   0  0  0  0  0  0  0  0  0  0  0  0
  149.4901  136.4852  155.3975 H   0  0  0  0  0  0  0  0  0  0  0  0
  149.7319  137.8770  156.4149 H   0  0  0  0  0  0  0  0  0  0  0  0
  151.2079  137.2796  153.8141 H   0  0  0  0  0  0  0  0  0  0  0  0
  150.0186  138.5361  154.0715 H   0  0  0  0  0  0  0  0  0  0  0  0
  152.3273  139.4629  154.1690 H   0  0  0  0  0  0  0  0  0  0  0  0
  151.5076  139.6723  155.6970 H   0  0  0  0  0  0  0  0  0  0  0  0
  153.8206  138.8624  156.0376 H   0  0  0  0  0  0  0  0  0  0  0  0
  153.5249  137.4934  155.0018 H   0  0  0  0  0  0  0  0  0  0  0  0
  1  2  1  0  0  0  0
  1 21  1  0  0  0  0
  1 22  1  0  0  0  0
  1 23  1  0  0  0  0
  2 20  2  0  0  0  0
  2  3  1  0  0  0  0
  3  4  2  0  0  0  0
  3 24  1  0  0  0  0
  4  5  1  0  0  0  0
  4  6  1  0  0  0  0
  5 25  1  0  0  0  0
  5 26  1  0  0  0  0
  5 27  1  0  0  0  0
  6  7  1  0  0  0  0
  6 20  1  0  0  0  0
  7  8  1  0  0  0  0
  7 28  1  0  0  0  0
  7 29  1  0  0  0  0
  8  9  2  0  0  0  0
  8 10  1  0  0  0  0
 10 11  1  0  0  0  0
 10 30  1  0  0  0  0
 11 19  1  0  0  0  0
 11 12  1  0  0  0  0
 11 15  1  0  0  0  0
 12 13  2  0  0  0  0
 12 14  1  0  0  0  0
 15 16  1  0  0  0  0
 15 31  1  0  0  0  0
 15 32  1  0  0  0  0
 16 17  1  0  0  0  0
 16 33  1  0  0  0  0
 16 34  1  0  0  0  0
 17 18  1  0  0  0  0
 17 35  1  0  0  0  0
 17 36  1  0  0  0  0
 18 19  1  0  0  0  0
 18 37  1  0  0  0  0
 18 38  1  0  0  0  0
 19 39  1  0  0  0  0
 19 40  1  0  0  0  0
M  CHG  1  14  -1
M  END
> <s_m_source_file>
AV-unprocessed.smi

> <i_m_source_file_index>
2670

> <i_lp_mmshare_version>
43012

> <i_f3d_flags>
0

> <s_epik_input>
W0NIM11jMVtjSF1jKFtDSDNdKW4objEpW0NIMl1DKD1PKVtOSF1DMihDKD1PKVtPSF0pW0NIMl1bQ0gyXVtDSDJdW0NIMl1bQ0gyXTI=

> <s_epik_cmdline>
J2VwaWtfcHl0aG9uJywgJy1waCcsICc3LjAnLCAnLXRuJywgJzgnLCAnLW1hJywgJzIwMCcsICctbWV0YWxfYmluZGluZycsICctaW1hZScsICc8aW5maWxlLm1hZT4nLCAnLW9tYWUnLCAnPG91dGZpbGUubWFlPic=

> <r_lp_tautomer_probability>
1

> <r_epik_Ionization_Penalty>
0.000789686

> <r_epik_Ionization_Penalty_Charging>
0.000323848

> <r_epik_Ionization_Penalty_Neutral>
0.000465838

> <r_epik_State_Penalty>
-0

> <r_epik_Charging_Adjusted_Penalty>
0.000323848

> <i_epik_Tot_Q>
-1

> <i_epik_Tot_abs_Q>
1

> <r_epik_Metal_State_Penalty>
-0

> <b_epik_Metal_Only>
0

> <s_lp_Force_Field>
OPLS_2005

> <r_lp_Energy>
8.13654

> <b_lp_Chiralities_Consistent>
1

> <s_lp_Variant>
AV-unprocessed.smi:2670-1

> <Gold.Version>
5.8.1

> <Gold.Id.Protein>
6NUR|6NUR_protein|mol2

> <Gold.PLP.Fitness>
49.5397

> <Gold.PLP.PLP>
-37.2101

> <Gold.PLP.part.hbond>
-3.0000

> <Gold.PLP.part.metal>
0.0000

> <Gold.PLP.part.buried>
-4.5408

> <Gold.PLP.part.nonpolar>
-30.8208

> <Gold.PLP.part.repulsive>
0.0707

> <Gold.PLP.ligand.clash>
0.0000

> <Gold.PLP.ligand.torsion>
0.0477

> <Gold.PLP.Chemscore.Hbond>
4.1200

> <Gold.PLP.Chemscore.CHOScore>
0.0000

> <Gold.PLP.Chemscore.Metal>
0.0000

> <Gold.Chemscore.Hbonds>
donor molecule, donor type, donor heavy atom, donor atom, acceptor molecule, acceptor atom, score
      P1  H  6896  6908       L1    14  0.89
      P1  H  7997  8008       L1     9  0.83
      P1  H 10752 10763       L1    13  1.80

> <Gold.PLP.Chemscore.Internal.Correction>
0.0649

> <Gold.Rescore>
     Score         DG    S(hbond)    S(metal)    S(lipo)     H(rot)  DE(clash)    DE(int)     intcor
     20.44     -20.74       2.55        0.00      99.61       1.91       0.10       0.20       ----

> <Gold.Chemscore.Fitness>
20.4353

> <Gold.Chemscore.DG>
-20.7406

> <Gold.Chemscore.ZeroCoef>
-5.4800

> <Gold.Chemscore.Hbond>
2.5474

> <Gold.Chemscore.Metal>
0.0000

> <Gold.Chemscore.Lipo>
99.6105

> <Gold.Chemscore.Internal_Hbond>
0.0000

> <Gold.Chemscore.DEClash>
0.1009

> <Gold.Chemscore.DEInternal>
0.2044

> <Gold.Chemscore.Rot>
1.9149

> <Gold.Chemscore.Internal.Correction>
   9.000000E+99

> <Gold.Chemscore.Hbonds>
donor molecule, donor type, donor heavy atom, donor atom, acceptor molecule, acceptor atom, score
      P1  H  6896  6908       L1    14  0.45
      P1  H  7997  8008       L1     9  0.82
      P1  H 10752 10763       L1    13  0.17

> <Gold.Chemscore.Hbond.Weighted>
-8.5084

> <Gold.Chemscore.Metal.Weighted>
-0.0000

> <Gold.Chemscore.Lipo.Weighted>
-11.6544

> <Gold.Chemscore.Internal_Hbond.Weighted>
0.0000

> <Gold.Chemscore.DEClash.Weighted>
0.1009

> <Gold.Chemscore.DEInternal.Weighted>
0.2044

> <Gold.Chemscore.Rot.Weighted>
4.9023

> <Gold.Chemscore.Internal.Correction.Weighted>
   9.000000E+99

> <Gold.Protein.RotatedTorsions>
[ 6907 6896 6895 6894 ] final  -55.33 input  -60.11 | X-H torsion
[ 7974 7965 7964 7962 ] final  -32.79 input  175.53 | X-H torsion
[ 8008 7997 7996 7995 ] final -103.03 input   59.86 | X-H torsion
[ 10167 10162 10161 10158 ] final -160.89 input  -65.29 | X-H torsion
[ 10718 10713 10712 10709 ] final  156.27 input   66.30 | X-H torsion
[ 10763 10752 10751 10750 ] final  160.18 input  -60.55 | X-H torsion
[ 11005 11000 10999 10996 ] final -153.12 input  -57.11 | X-H torsion

> <Gold.Protein.ActiveResidues>
 VAL166  LYS551  ARG553  GLY616  TRP617  ASP618  TYR619  PRO620  LYS621  CYS622 
 ASP623  PHE694  ASN695  SER759  ASP760  ASP761  ALA762  ILE779  LEU786  VAL792 
 PHE793  MET794  SER795  GLU796  ALA797  LYS798  CYS799  TRP800  GLU811  SER814 

> <Gold.Protein.RotatedAtoms>
  150.8261  134.7492  159.6813 H   0  0  0  0  0  0  0  0  0  0  0  0  # atno 6907 bound_to 6896
  152.4371  134.5661  159.9918 H   0  0  0  0  0  0  0  0  0  0  0  0  # atno 6908 bound_to 6896
  151.5833  133.3337  159.3049 H   0  0  0  0  0  0  0  0  0  0  0  0  # atno 6909 bound_to 6896
  146.0962  140.5836  142.8842 H   0  0  0  0  0  0  0  0  0  0  0  0  # atno 7974 bound_to 7965
  154.8650  140.0425  157.1689 H   0  0  0  0  0  0  0  0  0  0  0  0  # atno 8008 bound_to 7997
  154.8799  140.2971  155.5411 H   0  0  0  0  0  0  0  0  0  0  0  0  # atno 8009 bound_to 7997
  156.2999  140.2413  156.3800 H   0  0  0  0  0  0  0  0  0  0  0  0  # atno 8010 bound_to 7997
  139.6506  144.0091  152.2159 H   0  0  0  0  0  0  0  0  0  0  0  0  # atno 10167 bound_to 10162
  157.2072  131.0689  151.1990 H   0  0  0  0  0  0  0  0  0  0  0  0  # atno 10718 bound_to 10713
  154.2433  135.2774  155.2845 H   0  0  0  0  0  0  0  0  0  0  0  0  # atno 10763 bound_to 10752
  154.5526  135.5670  153.6939 H   0  0  0  0  0  0  0  0  0  0  0  0  # atno 10764 bound_to 10752
  152.9995  135.6278  154.2578 H   0  0  0  0  0  0  0  0  0  0  0  0  # atno 10765 bound_to 10752
  140.7116  134.3826  157.5197 H   0  0  0  0  0  0  0  0  0  0  0  0  # atno 11005 bound_to 11000
  144.7397  140.4908  143.6878 LP  0  0  0  0  0  0  0  0  0  0  0  0  # atno 17320 bound_to 7965
  145.5943  139.1498  143.3164 LP  0  0  0  0  0  0  0  0  0  0  0  0  # atno 17321 bound_to 7965
  139.9804  144.6432  150.7906 LP  0  0  0  0  0  0  0  0  0  0  0  0  # atno 17342 bound_to 10162
  140.7536  143.3011  151.3079 LP  0  0  0  0  0  0  0  0  0  0  0  0  # atno 17343 bound_to 10162
  157.3708  130.7180  149.6563 LP  0  0  0  0  0  0  0  0  0  0  0  0  # atno 17370 bound_to 10713
  155.9694  130.4199  150.4398 LP  0  0  0  0  0  0  0  0  0  0  0  0  # atno 17371 bound_to 10713
  139.8870  134.8894  156.2552 LP  0  0  0  0  0  0  0  0  0  0  0  0  # atno 17394 bound_to 11000
  141.0079  133.7112  156.1065 LP  0  0  0  0  0  0  0  0  0  0  0  0  # atno 17395 bound_to 11000

$$$$
