AV-unprocessed.smi:3234|AV-procd|sdf|12355|dock1
  -GOLD-   2272018213D 1   1.00000     0.00000
 Structure written by MMmdl.
 38 40  0  0  0  0  0  0  0  0  3 V2000
  146.8080  137.3859  153.4934 O   0  0  0  0  0  0  0  0  0  0  0  0
  146.5077  137.9673  152.4509 C   0  0  0  0  0  0  0  0  0  0  0  0
  146.7942  139.2497  152.1665 N   0  0  0  0  0  0  0  0  0  0  0  0
  147.4251  140.2172  152.9953 C   0  0  0  0  0  0  0  0  0  0  0  0
  146.9342  141.5410  152.9488 C   0  0  0  0  0  0  0  0  0  0  0  0
  147.5173  142.5281  153.7695 C   0  0  0  0  0  0  0  0  0  0  0  0
  148.5299  142.1999  154.6000 N   0  3  0  0  0  0  0  0  0  0  0  0
  149.0232  140.9461  154.6899 C   0  0  0  0  0  0  0  0  0  0  0  0
  148.4815  139.9173  153.8928 C   0  0  0  0  0  0  0  0  0  0  0  0
  145.8638  137.3725  151.4366 N   0  0  0  0  0  0  0  0  0  0  0  0
  145.4172  135.9832  151.4397 C   0  0  1  0  0  0  0  0  0  0  0  0
  144.2113  135.7260  152.3338 C   0  0  0  0  0  0  0  0  0  0  0  0
  143.6631  134.4050  151.7803 C   0  0  0  0  0  0  0  0  0  0  0  0
  144.0461  134.3481  150.3470 N   0  3  2  0  0  0  0  0  0  0  0  0
  144.6522  133.0588  149.9487 C   0  0  0  0  0  0  0  0  0  0  0  0
  144.1255  131.8768  150.7270 C   0  0  0  0  0  0  0  0  0  0  0  0
  145.5002  132.4320  151.0296 C   0  0  0  0  0  0  0  0  0  0  0  0
  144.9103  135.5169  150.0726 C   0  0  0  0  0  0  0  0  0  0  0  0
  146.5726  139.5588  151.2312 H   0  0  0  0  0  0  0  0  0  0  0  0
  146.1217  141.8040  152.2868 H   0  0  0  0  0  0  0  0  0  0  0  0
  147.2041  143.5620  153.7884 H   0  0  0  0  0  0  0  0  0  0  0  0
  149.8272  140.8018  155.3968 H   0  0  0  0  0  0  0  0  0  0  0  0
  148.8774  138.9185  153.9953 H   0  0  0  0  0  0  0  0  0  0  0  0
  145.6569  137.9191  150.6130 H   0  0  0  0  0  0  0  0  0  0  0  0
  146.2355  135.3362  151.7632 H   0  0  0  0  0  0  0  0  0  0  0  0
  144.4699  135.6651  153.3915 H   0  0  0  0  0  0  0  0  0  0  0  0
  143.4703  136.5176  152.2105 H   0  0  0  0  0  0  0  0  0  0  0  0
  144.1125  133.5712  152.3227 H   0  0  0  0  0  0  0  0  0  0  0  0
  142.5820  134.3285  151.8997 H   0  0  0  0  0  0  0  0  0  0  0  0
  144.9259  132.9542  148.8999 H   0  0  0  0  0  0  0  0  0  0  0  0
  143.3400  132.0508  151.4600 H   0  0  0  0  0  0  0  0  0  0  0  0
  144.0786  130.9179  150.2146 H   0  0  0  0  0  0  0  0  0  0  0  0
  146.3563  131.8383  150.7158 H   0  0  0  0  0  0  0  0  0  0  0  0
  145.6283  132.9747  151.9645 H   0  0  0  0  0  0  0  0  0  0  0  0
  144.2934  136.2901  149.6116 H   0  0  0  0  0  0  0  0  0  0  0  0
  145.7222  135.2896  149.3798 H   0  0  0  0  0  0  0  0  0  0  0  0
  143.2074  134.4646  149.7965 H   0  0  0  0  0  0  0  0  0  0  0  0
  148.9358  142.9282  155.1886 H   0  0  0  0  0  0  0  0  0  0  0  0
  1  2  2  0  0  0  0
  2  3  1  0  0  0  0
  2 10  1  0  0  0  0
  3  4  1  0  0  0  0
  3 19  1  0  0  0  0
  4  9  1  0  0  0  0
  4  5  2  0  0  0  0
  5  6  1  0  0  0  0
  5 20  1  0  0  0  0
  6  7  2  0  0  0  0
  6 21  1  0  0  0  0
  7  8  1  0  0  0  0
  7 38  1  0  0  0  0
  8  9  2  0  0  0  0
  8 22  1  0  0  0  0
  9 23  1  0  0  0  0
 10 11  1  0  0  0  0
 10 24  1  0  0  0  0
 11 18  1  0  0  0  0
 11 12  1  0  0  0  0
 11 25  1  0  0  0  0
 12 13  1  0  0  0  0
 12 26  1  0  0  0  0
 12 27  1  0  0  0  0
 13 14  1  0  0  0  0
 13 28  1  0  0  0  0
 13 29  1  0  0  0  0
 14 15  1  0  0  0  0
 14 18  1  0  0  0  0
 14 37  1  0  0  0  0
 15 17  1  0  0  0  0
 15 16  1  0  0  0  0
 15 30  1  0  0  0  0
 16 17  1  0  0  0  0
 16 31  1  0  0  0  0
 16 32  1  0  0  0  0
 17 33  1  0  0  0  0
 17 34  1  0  0  0  0
 18 35  1  0  0  0  0
 18 36  1  0  0  0  0
M  CHG  1   7   1
M  CHG  1  14   1
M  END
> <s_m_source_file>
AV-unprocessed.smi

> <i_m_source_file_index>
3234

> <i_lp_mmshare_version>
43012

> <i_f3d_flags>
0

> <s_epik_input>
W2NIXTFbY0hdbltjSF1bY0hdYzFbTkhdQyg9TylbTkhdW0NAQEhdMltDSDJdW0NIMl1OKFtDSDJdMilbQ0hdM1tDSDJdW0NIMl0z

> <s_epik_cmdline>
J2VwaWtfcHl0aG9uJywgJy1waCcsICc3LjAnLCAnLXRuJywgJzgnLCAnLW1hJywgJzIwMCcsICctbWV0YWxfYmluZGluZycsICctaW1hZScsICc8aW5maWxlLm1hZT4nLCAnLW9tYWUnLCAnPG91dGZpbGUubWFlPic=

> <r_epik_Ionization_Penalty>
1.14489

> <r_epik_Ionization_Penalty_Charging>
1.14487

> <r_epik_Ionization_Penalty_Neutral>
1.95212e-05

> <r_epik_State_Penalty>
1.205

> <r_epik_Charging_Adjusted_Penalty>
2.34987

> <i_epik_Tot_Q>
2

> <i_epik_Tot_abs_Q>
2

> <r_epik_Metal_State_Penalty>
1.28709

> <b_epik_Metal_Only>
0

> <s_lp_Force_Field>
OPLS_2005

> <r_lp_Energy>
49.112

> <b_lp_Chiralities_Consistent>
1

> <s_lp_Variant>
AV-unprocessed.smi:3234-8

> <Gold.Version>
5.8.1

> <Gold.Id.Protein>
6NUR|6NUR_protein|mol2

> <Gold.PLP.Fitness>
49.0381

> <Gold.PLP.PLP>
-35.3512

> <Gold.PLP.part.hbond>
-4.0000

> <Gold.PLP.part.metal>
0.0000

> <Gold.PLP.part.buried>
-2.7176

> <Gold.PLP.part.nonpolar>
-28.7402

> <Gold.PLP.part.repulsive>
1.2195

> <Gold.PLP.ligand.clash>
0.0000

> <Gold.PLP.ligand.torsion>
1.0270

> <Gold.PLP.Chemscore.Hbond>
4.8240

> <Gold.PLP.Chemscore.CHOScore>
0.0000

> <Gold.PLP.Chemscore.Metal>
0.0000

> <Gold.Chemscore.Hbonds>
donor molecule, donor type, donor heavy atom, donor atom, acceptor molecule, acceptor atom, score
      L1  H     7    38       P1  8028  1.79
      L1  H    10    24       P1 10171  0.61
      L1  H    14    37       P1 10186  1.11

> <Gold.PLP.Chemscore.Internal.Correction>
1.2689

> <Gold.Rescore>
     Score         DG    S(hbond)    S(metal)    S(lipo)     H(rot)  DE(clash)    DE(int)     intcor
     19.06     -21.35       2.82        0.00      81.83       1.22       0.34       1.95       ----

> <Gold.Chemscore.Fitness>
19.0561

> <Gold.Chemscore.DG>
-21.3498

> <Gold.Chemscore.ZeroCoef>
-5.4800

> <Gold.Chemscore.Hbond>
2.8237

> <Gold.Chemscore.Metal>
0.0000

> <Gold.Chemscore.Lipo>
81.8299

> <Gold.Chemscore.Internal_Hbond>
0.0000

> <Gold.Chemscore.DEClash>
0.3438

> <Gold.Chemscore.DEInternal>
1.9498

> <Gold.Chemscore.Rot>
1.2248

> <Gold.Chemscore.Internal.Correction>
   9.000000E+99

> <Gold.Chemscore.Hbonds>
donor molecule, donor type, donor heavy atom, donor atom, acceptor molecule, acceptor atom, score
      L1  H     7    38       P1  8028  0.88
      L1  H    10    24       P1 10171  0.58
      L1  H    14    37       P1 10186  0.52

> <Gold.Chemscore.Hbond.Weighted>
-9.4311

> <Gold.Chemscore.Metal.Weighted>
-0.0000

> <Gold.Chemscore.Lipo.Weighted>
-9.5741

> <Gold.Chemscore.Internal_Hbond.Weighted>
0.0000

> <Gold.Chemscore.DEClash.Weighted>
0.3438

> <Gold.Chemscore.DEInternal.Weighted>
1.9498

> <Gold.Chemscore.Rot.Weighted>
3.1355

> <Gold.Chemscore.Internal.Correction.Weighted>
   9.000000E+99

> <Gold.Protein.RotatedTorsions>
[ 6907 6896 6895 6894 ] final  132.71 input  -60.11 | X-H torsion
[ 7974 7965 7964 7962 ] final  -96.70 input  175.53 | X-H torsion
[ 8008 7997 7996 7995 ] final   -1.46 input   59.86 | X-H torsion
[ 10167 10162 10161 10158 ] final  -54.29 input  -65.29 | X-H torsion
[ 10718 10713 10712 10709 ] final  176.43 input   66.30 | X-H torsion
[ 10763 10752 10751 10750 ] final  -59.64 input  -60.55 | X-H torsion
[ 11005 11000 10999 10996 ] final   77.53 input  -57.11 | X-H torsion

> <Gold.Protein.ActiveResidues>
 VAL166  LYS551  ARG553  GLY616  TRP617  ASP618  TYR619  PRO620  LYS621  CYS622 
 ASP623  PHE694  ASN695  SER759  ASP760  ASP761  ALA762  ILE779  LEU786  VAL792 
 PHE793  MET794  SER795  GLU796  ALA797  LYS798  CYS799  TRP800  GLU811  SER814 

> <Gold.Protein.RotatedAtoms>
  152.3296  133.5943  159.5800 H   0  0  0  0  0  0  0  0  0  0  0  0  # atno 6907 bound_to 6896
  150.7416  133.9888  159.3609 H   0  0  0  0  0  0  0  0  0  0  0  0  # atno 6908 bound_to 6896
  151.7764  135.0773  160.0418 H   0  0  0  0  0  0  0  0  0  0  0  0  # atno 6909 bound_to 6896
  145.3434  140.9464  143.2595 H   0  0  0  0  0  0  0  0  0  0  0  0  # atno 7974 bound_to 7965
  154.6466  140.2559  155.7261 H   0  0  0  0  0  0  0  0  0  0  0  0  # atno 8008 bound_to 7997
  156.2555  140.2876  156.0803 H   0  0  0  0  0  0  0  0  0  0  0  0  # atno 8009 bound_to 7997
  155.1515  140.0382  157.2812 H   0  0  0  0  0  0  0  0  0  0  0  0  # atno 8010 bound_to 7997
  140.6439  143.2523  151.4914 H   0  0  0  0  0  0  0  0  0  0  0  0  # atno 10167 bound_to 10162
  156.9202  130.9938  151.3006 H   0  0  0  0  0  0  0  0  0  0  0  0  # atno 10718 bound_to 10713
  154.2568  135.6316  153.5260 H   0  0  0  0  0  0  0  0  0  0  0  0  # atno 10763 bound_to 10752
  152.9902  135.5578  154.5748 H   0  0  0  0  0  0  0  0  0  0  0  0  # atno 10764 bound_to 10752
  154.5288  135.2887  155.1174 H   0  0  0  0  0  0  0  0  0  0  0  0  # atno 10765 bound_to 10752
  139.9250  134.7690  156.1534 H   0  0  0  0  0  0  0  0  0  0  0  0  # atno 11005 bound_to 11000
  144.8772  139.4954  143.6740 LP  0  0  0  0  0  0  0  0  0  0  0  0  # atno 17320 bound_to 7965
  146.2998  139.7390  142.9100 LP  0  0  0  0  0  0  0  0  0  0  0  0  # atno 17321 bound_to 7965
  139.5648  144.2068  152.1749 LP  0  0  0  0  0  0  0  0  0  0  0  0  # atno 17342 bound_to 10162
  140.1346  144.5257  150.6781 LP  0  0  0  0  0  0  0  0  0  0  0  0  # atno 17343 bound_to 10162
  157.5912  130.8445  149.8662 LP  0  0  0  0  0  0  0  0  0  0  0  0  # atno 17370 bound_to 10713
  156.0494  130.3721  150.1237 LP  0  0  0  0  0  0  0  0  0  0  0  0  # atno 17371 bound_to 10713
  141.0801  133.6758  156.2319 LP  0  0  0  0  0  0  0  0  0  0  0  0  # atno 17394 bound_to 11000
  140.6361  134.5213  157.5565 LP  0  0  0  0  0  0  0  0  0  0  0  0  # atno 17395 bound_to 11000

$$$$
