AV-unprocessed.smi:52|AV-procd|sdf|510|dock2
  -GOLD-   2262016383D 1   1.00000     0.00000
 Structure written by MMmdl.
 27 28  0  0  0  0  0  0  0  0  3 V2000
  153.4664  138.1841  154.5802 O   0  0  0  0  0  0  0  0  0  0  0  0
  152.8302  138.6643  155.5440 C   0  0  0  0  0  0  0  0  0  0  0  0
  153.3492  138.8114  156.6723 O   0  5  0  0  0  0  0  0  0  0  0  0
  151.4144  139.0666  155.3436 C   0  0  0  0  0  0  0  0  0  0  0  0
  150.4866  139.3250  156.3209 C   0  0  0  0  0  0  0  0  0  0  0  0
  149.3007  139.6758  155.7344 O   0  0  0  0  0  0  0  0  0  0  0  0
  149.5573  139.6133  154.3996 C   0  0  0  0  0  0  0  0  0  0  0  0
  148.4744  139.9686  153.4355 C   0  0  0  0  0  0  0  0  0  0  0  0
  147.8050  138.6772  153.1518 N   0  3  1  0  0  0  0  0  0  0  0  0
  147.3062  137.9363  154.3397 C   0  0  0  0  0  0  0  0  0  0  0  0
  145.8855  137.4639  154.0053 C   0  0  0  0  0  0  0  0  0  0  0  0
  145.8079  137.5680  152.4853 C   0  0  1  0  0  0  0  0  0  0  0  0
  144.4837  137.7479  152.0306 O   0  0  0  0  0  0  0  0  0  0  0  0
  146.6895  138.7785  152.1897 C   0  0  0  0  0  0  0  0  0  0  0  0
  150.8045  139.2523  154.1096 N   0  0  0  0  0  0  0  0  0  0  0  0
  146.2360  136.6746  152.0280 H   0  0  0  0  0  0  0  0  0  0  0  0
  150.5136  139.3090  157.4006 H   0  0  0  0  0  0  0  0  0  0  0  0
  147.7890  140.7011  153.8642 H   0  0  0  0  0  0  0  0  0  0  0  0
  148.9192  140.3868  152.5318 H   0  0  0  0  0  0  0  0  0  0  0  0
  147.9669  137.0880  154.5209 H   0  0  0  0  0  0  0  0  0  0  0  0
  147.3025  138.5489  155.2426 H   0  0  0  0  0  0  0  0  0  0  0  0
  145.6750  136.4593  154.3730 H   0  0  0  0  0  0  0  0  0  0  0  0
  145.1657  138.1436  154.4646 H   0  0  0  0  0  0  0  0  0  0  0  0
  144.1694  138.5860  152.3348 H   0  0  0  0  0  0  0  0  0  0  0  0
  146.1344  139.7000  152.3771 H   0  0  0  0  0  0  0  0  0  0  0  0
  147.0444  138.8015  151.1588 H   0  0  0  0  0  0  0  0  0  0  0  0
  148.4941  138.0797  152.7175 H   0  0  0  0  0  0  0  0  0  0  0  0
  1  2  2  0  0  0  0
  2  3  1  0  0  0  0
  2  4  1  0  0  0  0
  4 15  1  0  0  0  0
  4  5  2  0  0  0  0
  5  6  1  0  0  0  0
  5 17  1  0  0  0  0
  6  7  1  0  0  0  0
  7  8  1  0  0  0  0
  7 15  2  0  0  0  0
  8  9  1  0  0  0  0
  8 18  1  0  0  0  0
  8 19  1  0  0  0  0
  9 14  1  0  0  0  0
  9 10  1  0  0  0  0
  9 27  1  0  0  0  0
 10 11  1  0  0  0  0
 10 20  1  0  0  0  0
 10 21  1  0  0  0  0
 11 12  1  0  0  0  0
 11 22  1  0  0  0  0
 11 23  1  0  0  0  0
 12 16  1  0  0  0  0
 12 13  1  0  0  0  0
 12 14  1  0  0  0  0
 13 24  1  0  0  0  0
 14 25  1  0  0  0  0
 14 26  1  0  0  0  0
M  CHG  1   3  -1
M  CHG  1   9   1
M  END
> <s_m_source_file>
AV-unprocessed.smi

> <i_m_source_file_index>
52

> <i_lp_mmshare_version>
43012

> <i_f3d_flags>
0

> <s_epik_input>
Tz1DKFtPSF0pYzFbY0hdb2MobjEpW0NIMl1OMltDSDJdW0NIMl1bQ0BIXShbT0hdKVtDSDJdMg==

> <s_epik_cmdline>
J2VwaWtfcHl0aG9uJywgJy1waCcsICc3LjAnLCAnLXRuJywgJzgnLCAnLW1hJywgJzIwMCcsICctbWV0YWxfYmluZGluZycsICctaW1hZScsICc8aW5maWxlLm1hZT4nLCAnLW9tYWUnLCAnPG91dGZpbGUubWFlPic=

> <r_epik_Ionization_Penalty>
0.0376014

> <r_epik_Ionization_Penalty_Charging>
0.0376013

> <r_epik_Ionization_Penalty_Neutral>
1.78687e-08

> <r_epik_State_Penalty>
0.0314164

> <r_epik_Charging_Adjusted_Penalty>
0.0690177

> <i_epik_Tot_Q>
0

> <i_epik_Tot_abs_Q>
2

> <r_epik_Metal_State_Penalty>
0.0314164

> <b_epik_Metal_Only>
0

> <s_lp_Force_Field>
OPLS_2005

> <r_lp_Energy>
19.8896

> <b_lp_Chiralities_Consistent>
1

> <s_lp_Variant>
AV-unprocessed.smi:52-4

> <Gold.Version>
5.8.1

> <Gold.Id.Protein>
6NUR|6NUR_protein|mol2

> <Gold.PLP.Fitness>
38.9975

> <Gold.PLP.PLP>
-21.9563

> <Gold.PLP.part.hbond>
-6.6029

> <Gold.PLP.part.metal>
0.0000

> <Gold.PLP.part.buried>
2.0495

> <Gold.PLP.part.nonpolar>
-18.2974

> <Gold.PLP.part.repulsive>
0.2841

> <Gold.PLP.ligand.clash>
0.0000

> <Gold.PLP.ligand.torsion>
0.4864

> <Gold.PLP.Chemscore.Hbond>
6.0000

> <Gold.PLP.Chemscore.CHOScore>
0.0000

> <Gold.PLP.Chemscore.Metal>
0.0000

> <Gold.Chemscore.Hbonds>
donor molecule, donor type, donor heavy atom, donor atom, acceptor molecule, acceptor atom, score
      L1  H     9    27       P1  7948  1.81
      L1  H    13    24       P1 10175  1.00
      P1  H  7989  7998       L1    15  1.00
      P1  H  7997  8010       L1     3  2.00

> <Gold.PLP.Chemscore.Internal.Correction>
0.0140

> <Gold.Rescore>
     Score         DG    S(hbond)    S(metal)    S(lipo)     H(rot)  DE(clash)    DE(int)     intcor
     13.15     -15.53       3.17        0.00      39.07       1.99       1.97       0.42       ----

> <Gold.Chemscore.Fitness>
13.1471

> <Gold.Chemscore.DG>
-15.5329

> <Gold.Chemscore.ZeroCoef>
-5.4800

> <Gold.Chemscore.Hbond>
3.1678

> <Gold.Chemscore.Metal>
0.0000

> <Gold.Chemscore.Lipo>
39.0730

> <Gold.Chemscore.Internal_Hbond>
0.0000

> <Gold.Chemscore.DEClash>
1.9695

> <Gold.Chemscore.DEInternal>
0.4163

> <Gold.Chemscore.Rot>
1.9919

> <Gold.Chemscore.Internal.Correction>
   9.000000E+99

> <Gold.Chemscore.Hbonds>
donor molecule, donor type, donor heavy atom, donor atom, acceptor molecule, acceptor atom, score
      L1  H     9    27       P1  7948  0.83
      L1  H    13    24       P1 10175  0.99
      P1  H  7989  7998       L1    15  0.20
      P1  H  7997  8010       L1     3  0.72

> <Gold.Chemscore.Hbond.Weighted>
-10.5805

> <Gold.Chemscore.Metal.Weighted>
-0.0000

> <Gold.Chemscore.Lipo.Weighted>
-4.5715

> <Gold.Chemscore.Internal_Hbond.Weighted>
0.0000

> <Gold.Chemscore.DEClash.Weighted>
1.9695

> <Gold.Chemscore.DEInternal.Weighted>
0.4163

> <Gold.Chemscore.Rot.Weighted>
5.0991

> <Gold.Chemscore.Internal.Correction.Weighted>
   9.000000E+99

> <Gold.Protein.RotatedTorsions>
[ 6907 6896 6895 6894 ] final -109.00 input  -60.11 | X-H torsion
[ 7974 7965 7964 7962 ] final   42.82 input  175.53 | X-H torsion
[ 8008 7997 7996 7995 ] final   58.68 input   59.86 | X-H torsion
[ 10167 10162 10161 10158 ] final -134.22 input  -65.29 | X-H torsion
[ 10718 10713 10712 10709 ] final  -20.39 input   66.30 | X-H torsion
[ 10763 10752 10751 10750 ] final -136.64 input  -60.55 | X-H torsion
[ 11005 11000 10999 10996 ] final -111.42 input  -57.11 | X-H torsion

> <Gold.Protein.ActiveResidues>
 VAL166  LYS551  ARG553  GLY616  TRP617  ASP618  TYR619  PRO620  LYS621  CYS622 
 ASP623  PHE694  ASN695  SER759  ASP760  ASP761  ALA762  ILE779  LEU786  VAL792 
 PHE793  MET794  SER795  GLU796  ALA797  LYS798  CYS799  TRP800  GLU811  SER814 

> <Gold.Protein.RotatedAtoms>
  150.7535  133.9595  159.3510 H   0  0  0  0  0  0  0  0  0  0  0  0  # atno 6907 bound_to 6896
  151.7519  135.0828  160.0341 H   0  0  0  0  0  0  0  0  0  0  0  0  # atno 6908 bound_to 6896
  152.3460  133.6086  159.5947 H   0  0  0  0  0  0  0  0  0  0  0  0  # atno 6909 bound_to 6896
  146.0708  139.5257  142.9599 H   0  0  0  0  0  0  0  0  0  0  0  0  # atno 7974 bound_to 7965
  155.5539  140.3487  155.4475 H   0  0  0  0  0  0  0  0  0  0  0  0  # atno 8008 bound_to 7997
  156.0563  140.1329  157.0018 H   0  0  0  0  0  0  0  0  0  0  0  0  # atno 8009 bound_to 7997
  154.4458  140.0994  156.6436 H   0  0  0  0  0  0  0  0  0  0  0  0  # atno 8010 bound_to 7997
  139.8903  143.6731  152.2613 H   0  0  0  0  0  0  0  0  0  0  0  0  # atno 10167 bound_to 10162
  156.5325  130.4658  149.6540 H   0  0  0  0  0  0  0  0  0  0  0  0  # atno 10718 bound_to 10713
  154.8679  135.3666  154.5093 H   0  0  0  0  0  0  0  0  0  0  0  0  # atno 10763 bound_to 10752
  153.5729  135.7020  153.5501 H   0  0  0  0  0  0  0  0  0  0  0  0  # atno 10764 bound_to 10752
  153.3525  135.4068  155.1620 H   0  0  0  0  0  0  0  0  0  0  0  0  # atno 10765 bound_to 10752
  141.0735  133.9340  157.2437 H   0  0  0  0  0  0  0  0  0  0  0  0  # atno 11005 bound_to 11000
  145.6395  141.0287  143.1819 LP  0  0  0  0  0  0  0  0  0  0  0  0  # atno 17320 bound_to 7965
  144.7230  139.7966  143.7375 LP  0  0  0  0  0  0  0  0  0  0  0  0  # atno 17321 bound_to 7965
  139.7116  144.7619  151.1103 LP  0  0  0  0  0  0  0  0  0  0  0  0  # atno 17342 bound_to 10162
  140.7728  143.5323  150.9408 LP  0  0  0  0  0  0  0  0  0  0  0  0  # atno 17343 bound_to 10162
  156.3047  130.7196  151.2075 LP  0  0  0  0  0  0  0  0  0  0  0  0  # atno 17370 bound_to 10713
  157.7419  131.0497  150.5061 LP  0  0  0  0  0  0  0  0  0  0  0  0  # atno 17371 bound_to 10713
  139.9548  135.0168  156.9096 LP  0  0  0  0  0  0  0  0  0  0  0  0  # atno 17394 bound_to 11000
  140.5623  134.0523  155.7403 LP  0  0  0  0  0  0  0  0  0  0  0  0  # atno 17395 bound_to 11000

$$$$
