AV-unprocessed.smi:1697|AV-procd|sdf|6812|dock9
  -GOLD-   22720 7593D 1   1.00000     0.00000
 Structure written by MMmdl.
 53 55  0  0  0  0  0  0  0  0  1 V2000
  142.2983  144.3276  154.8885 C   0  0  0  0  0  0  0  0  0  0  0  0
  143.4234  145.1560  155.5244 C   0  0  0  0  0  0  0  0  0  0  0  0
  144.2624  144.3636  156.3549 O   0  0  0  0  0  0  0  0  0  0  0  0
  144.8601  143.2407  155.7175 C   0  0  0  0  0  0  0  0  0  0  0  0
  145.9845  142.6848  156.6059 C   0  0  0  0  0  0  0  0  0  0  0  0
  146.7590  141.5844  155.8613 C   0  0  0  0  0  0  0  0  0  0  0  0
  147.3275  142.0499  154.5944 N   0  0  0  0  0  0  0  0  0  0  0  0
  148.1063  140.9830  153.9607 C   0  0  0  0  0  0  0  0  0  0  0  0
  149.3369  140.4926  154.7506 C   0  0  1  0  0  0  0  0  0  0  0  0
  150.2329  139.8796  153.8442 O   0  0  0  0  0  0  0  0  0  0  0  0
  150.0517  141.6582  155.4601 C   0  0  0  0  0  0  0  0  0  0  0  0
  150.9873  141.2046  156.4740 N   0  0  0  0  0  0  0  0  0  0  0  0
  151.7200  140.0749  156.4498 C   0  0  0  0  0  0  0  0  0  0  0  0
  152.5182  139.8435  157.4878 N   0  0  0  0  0  0  0  0  0  0  0  0
  152.2748  140.9534  158.2786 C   0  0  0  0  0  0  0  0  0  0  0  0
  152.8094  141.3188  159.5334 C   0  0  0  0  0  0  0  0  0  0  0  0
  152.4105  142.5153  160.1705 C   0  0  0  0  0  0  0  0  0  0  0  0
  153.0093  142.8677  161.5207 C   0  0  0  0  0  0  0  0  0  0  0  0
  151.4630  143.3689  159.5502 C   0  0  0  0  0  0  0  0  0  0  0  0
  151.0192  144.6592  160.2163 C   0  0  0  0  0  0  0  0  0  0  0  0
  150.9198  143.0193  158.2961 C   0  0  0  0  0  0  0  0  0  0  0  0
  151.3225  141.8248  157.6731 C   0  0  0  0  0  0  0  0  0  0  0  0
  146.2536  142.5483  153.7270 C   0  0  0  0  0  0  0  0  0  0  0  0
  145.4507  143.6907  154.3730 C   0  0  0  0  0  0  0  0  0  0  0  0
  141.6237  144.9670  154.3191 H   0  0  0  0  0  0  0  0  0  0  0  0
  141.7098  143.8182  155.6520 H   0  0  0  0  0  0  0  0  0  0  0  0
  142.6887  143.5733  154.2055 H   0  0  0  0  0  0  0  0  0  0  0  0
  144.0118  145.6711  154.7636 H   0  0  0  0  0  0  0  0  0  0  0  0
  142.9808  145.9320  156.1493 H   0  0  0  0  0  0  0  0  0  0  0  0
  144.1312  142.4503  155.5262 H   0  0  0  0  0  0  0  0  0  0  0  0
  146.6690  143.4875  156.8843 H   0  0  0  0  0  0  0  0  0  0  0  0
  145.5742  142.2899  157.5354 H   0  0  0  0  0  0  0  0  0  0  0  0
  147.5576  141.2219  156.5100 H   0  0  0  0  0  0  0  0  0  0  0  0
  146.0991  140.7341  155.6815 H   0  0  0  0  0  0  0  0  0  0  0  0
  147.4619  140.1214  153.7784 H   0  0  0  0  0  0  0  0  0  0  0  0
  148.4261  141.3213  152.9738 H   0  0  0  0  0  0  0  0  0  0  0  0
  149.0529  139.7583  155.5028 H   0  0  0  0  0  0  0  0  0  0  0  0
  149.8090  139.8213  153.0015 H   0  0  0  0  0  0  0  0  0  0  0  0
  150.5866  142.2772  154.7386 H   0  0  0  0  0  0  0  0  0  0  0  0
  149.3201  142.3074  155.9430 H   0  0  0  0  0  0  0  0  0  0  0  0
  151.6639  139.3831  155.6219 H   0  0  0  0  0  0  0  0  0  0  0  0
  153.5313  140.6683  160.0051 H   0  0  0  0  0  0  0  0  0  0  0  0
  152.2273  142.9477  162.2761 H   0  0  0  0  0  0  0  0  0  0  0  0
  153.5391  143.8190  161.4671 H   0  0  0  0  0  0  0  0  0  0  0  0
  153.7182  142.1083  161.8524 H   0  0  0  0  0  0  0  0  0  0  0  0
  150.2917  145.1930  159.6042 H   0  0  0  0  0  0  0  0  0  0  0  0
  151.8713  145.3200  160.3757 H   0  0  0  0  0  0  0  0  0  0  0  0
  150.5562  144.4509  161.1809 H   0  0  0  0  0  0  0  0  0  0  0  0
  150.1994  143.6613  157.8109 H   0  0  0  0  0  0  0  0  0  0  0  0
  146.6624  142.9177  152.7882 H   0  0  0  0  0  0  0  0  0  0  0  0
  145.5777  141.7316  153.4688 H   0  0  0  0  0  0  0  0  0  0  0  0
  144.6534  144.0146  153.7035 H   0  0  0  0  0  0  0  0  0  0  0  0
  146.1016  144.5533  154.5236 H   0  0  0  0  0  0  0  0  0  0  0  0
  1  2  1  0  0  0  0
  1 25  1  0  0  0  0
  1 26  1  0  0  0  0
  1 27  1  0  0  0  0
  2  3  1  0  0  0  0
  2 28  1  0  0  0  0
  2 29  1  0  0  0  0
  3  4  1  0  0  0  0
  4 24  1  0  0  0  0
  4  5  1  0  0  0  0
  4 30  1  0  0  0  0
  5  6  1  0  0  0  0
  5 31  1  0  0  0  0
  5 32  1  0  0  0  0
  6  7  1  0  0  0  0
  6 33  1  0  0  0  0
  6 34  1  0  0  0  0
  7  8  1  0  0  0  0
  7 23  1  0  0  0  0
  8  9  1  0  0  0  0
  8 35  1  0  0  0  0
  8 36  1  0  0  0  0
  9 10  1  0  0  0  0
  9 11  1  0  0  0  0
  9 37  1  0  0  0  0
 10 38  1  0  0  0  0
 11 12  1  0  0  0  0
 11 39  1  0  0  0  0
 11 40  1  0  0  0  0
 12 22  1  0  0  0  0
 12 13  1  0  0  0  0
 13 14  2  0  0  0  0
 13 41  1  0  0  0  0
 14 15  1  0  0  0  0
 15 22  2  0  0  0  0
 15 16  1  0  0  0  0
 16 17  2  0  0  0  0
 16 42  1  0  0  0  0
 17 18  1  0  0  0  0
 17 19  1  0  0  0  0
 18 43  1  0  0  0  0
 18 44  1  0  0  0  0
 18 45  1  0  0  0  0
 19 20  1  0  0  0  0
 19 21  2  0  0  0  0
 20 46  1  0  0  0  0
 20 47  1  0  0  0  0
 20 48  1  0  0  0  0
 21 22  1  0  0  0  0
 21 49  1  0  0  0  0
 23 24  1  0  0  0  0
 23 50  1  0  0  0  0
 23 51  1  0  0  0  0
 24 52  1  0  0  0  0
 24 53  1  0  0  0  0
M  END
> <s_m_source_file>
AV-unprocessed.smi

> <i_m_source_file_index>
1697

> <i_lp_mmshare_version>
43012

> <i_f3d_flags>
0

> <s_epik_input>
W0NIM11bQ0gyXU9bQ0hdMVtDSDJdW0NIMl1OKFtDSDJdW0NIMl0xKVtDSDJdW0NASF0oW09IXSlbQ0gyXW4oW2NIXW4yKWMoYzIzKVtjSF1jKFtDSDNdKWMoW2NIXTMpW0NIM10=

> <s_epik_cmdline>
J2VwaWtfcHl0aG9uJywgJy1waCcsICc3LjAnLCAnLXRuJywgJzgnLCAnLW1hJywgJzIwMCcsICctbWV0YWxfYmluZGluZycsICctaW1hZScsICc8aW5maWxlLm1hZT4nLCAnLW9tYWUnLCAnPG91dGZpbGUubWFlPic=

> <r_epik_Ionization_Penalty>
1.9836

> <r_epik_Ionization_Penalty_Charging>
0

> <r_epik_Ionization_Penalty_Neutral>
1.9836

> <r_epik_State_Penalty>
2.07269

> <r_epik_Charging_Adjusted_Penalty>
2.07269

> <i_epik_Tot_Q>
0

> <i_epik_Tot_abs_Q>
0

> <r_epik_Metal_State_Penalty>
2.00215

> <b_epik_Metal_Only>
0

> <s_lp_Force_Field>
OPLS_2005

> <r_lp_Energy>
35.1996

> <b_lp_Chiralities_Consistent>
1

> <s_lp_Variant>
AV-unprocessed.smi:1697-10

> <Gold.Version>
5.8.1

> <Gold.Id.Protein>
6NUR|6NUR_protein|mol2

> <Gold.PLP.Fitness>
57.5483

> <Gold.PLP.PLP>
-50.3196

> <Gold.PLP.part.hbond>
-3.0000

> <Gold.PLP.part.metal>
0.0000

> <Gold.PLP.part.buried>
-7.9971

> <Gold.PLP.part.nonpolar>
-39.3914

> <Gold.PLP.part.repulsive>
0.2269

> <Gold.PLP.ligand.clash>
0.0000

> <Gold.PLP.ligand.torsion>
0.8030

> <Gold.PLP.Chemscore.Hbond>
2.8960

> <Gold.PLP.Chemscore.CHOScore>
0.0000

> <Gold.PLP.Chemscore.Metal>
0.0000

> <Gold.Chemscore.Hbonds>
donor molecule, donor type, donor heavy atom, donor atom, acceptor molecule, acceptor atom, score
      L1  H    10    38       P1  7957  1.00
      P1  H  7989  7998       L1    10  0.93
      P1  H  7997  8010       L1    14  0.93

> <Gold.PLP.Chemscore.Internal.Correction>
0.1467

> <Gold.Rescore>
     Score         DG    S(hbond)    S(metal)    S(lipo)     H(rot)  DE(clash)    DE(int)     intcor
     19.63     -21.58       1.99        0.00     128.92       2.19       0.03       1.93       ----

> <Gold.Chemscore.Fitness>
19.6294

> <Gold.Chemscore.DG>
-21.5847

> <Gold.Chemscore.ZeroCoef>
-5.4800

> <Gold.Chemscore.Hbond>
1.9874

> <Gold.Chemscore.Metal>
0.0000

> <Gold.Chemscore.Lipo>
128.9243

> <Gold.Chemscore.Internal_Hbond>
0.0000

> <Gold.Chemscore.DEClash>
0.0275

> <Gold.Chemscore.DEInternal>
1.9278

> <Gold.Chemscore.Rot>
2.1943

> <Gold.Chemscore.Internal.Correction>
   9.000000E+99

> <Gold.Chemscore.Hbonds>
donor molecule, donor type, donor heavy atom, donor atom, acceptor molecule, acceptor atom, score
      L1  H    10    38       P1  7957  0.99
      P1  H  7989  7998       L1    10  0.23
      P1  H  7997  8010       L1    14  0.17

> <Gold.Chemscore.Hbond.Weighted>
-6.6379

> <Gold.Chemscore.Metal.Weighted>
-0.0000

> <Gold.Chemscore.Lipo.Weighted>
-15.0841

> <Gold.Chemscore.Internal_Hbond.Weighted>
0.0000

> <Gold.Chemscore.DEClash.Weighted>
0.0275

> <Gold.Chemscore.DEInternal.Weighted>
1.9278

> <Gold.Chemscore.Rot.Weighted>
5.6174

> <Gold.Chemscore.Internal.Correction.Weighted>
   9.000000E+99

> <Gold.Protein.RotatedTorsions>
[ 6907 6896 6895 6894 ] final  -92.71 input  -60.11 | X-H torsion
[ 7974 7965 7964 7962 ] final -138.58 input  175.53 | X-H torsion
[ 8008 7997 7996 7995 ] final   62.56 input   59.86 | X-H torsion
[ 10167 10162 10161 10158 ] final   32.65 input  -65.29 | X-H torsion
[ 10718 10713 10712 10709 ] final   37.19 input   66.30 | X-H torsion
[ 10763 10752 10751 10750 ] final -169.19 input  -60.55 | X-H torsion
[ 11005 11000 10999 10996 ] final    6.64 input  -57.11 | X-H torsion

> <Gold.Protein.ActiveResidues>
 VAL166  LYS551  ARG553  GLY616  TRP617  ASP618  TYR619  PRO620  LYS621  CYS622 
 ASP623  PHE694  ASN695  SER759  ASP760  ASP761  ALA762  ILE779  LEU786  VAL792 
 PHE793  MET794  SER795  GLU796  ALA797  LYS798  CYS799  TRP800  GLU811  SER814 

> <Gold.Protein.RotatedAtoms>
  150.6910  134.2080  159.4347 H   0  0  0  0  0  0  0  0  0  0  0  0  # atno 6907 bound_to 6896
  152.0043  134.9908  160.0575 H   0  0  0  0  0  0  0  0  0  0  0  0  # atno 6908 bound_to 6896
  152.1548  133.4510  159.4868 H   0  0  0  0  0  0  0  0  0  0  0  0  # atno 6909 bound_to 6896
  144.8747  140.6419  143.5244 H   0  0  0  0  0  0  0  0  0  0  0  0  # atno 7974 bound_to 7965
  155.6163  140.3495  155.4638 H   0  0  0  0  0  0  0  0  0  0  0  0  # atno 8008 bound_to 7997
  156.0114  140.1234  157.0474 H   0  0  0  0  0  0  0  0  0  0  0  0  # atno 8009 bound_to 7997
  154.4282  140.1081  156.5821 H   0  0  0  0  0  0  0  0  0  0  0  0  # atno 8010 bound_to 7997
  140.4479  144.1091  150.6186 H   0  0  0  0  0  0  0  0  0  0  0  0  # atno 10167 bound_to 10162
  157.3439  130.7562  149.6931 H   0  0  0  0  0  0  0  0  0  0  0  0  # atno 10718 bound_to 10713
  154.6549  135.2916  154.9940 H   0  0  0  0  0  0  0  0  0  0  0  0  # atno 10763 bound_to 10752
  154.1020  135.6575  153.4874 H   0  0  0  0  0  0  0  0  0  0  0  0  # atno 10764 bound_to 10752
  153.0397  135.5245  154.7474 H   0  0  0  0  0  0  0  0  0  0  0  0  # atno 10765 bound_to 10752
  140.5572  134.0227  155.7958 H   0  0  0  0  0  0  0  0  0  0  0  0  # atno 11005 bound_to 11000
  145.4065  139.1588  143.4149 LP  0  0  0  0  0  0  0  0  0  0  0  0  # atno 17320 bound_to 7965
  146.2954  140.4166  142.8723 LP  0  0  0  0  0  0  0  0  0  0  0  0  # atno 17321 bound_to 7965
  140.4242  143.2598  151.9678 LP  0  0  0  0  0  0  0  0  0  0  0  0  # atno 17342 bound_to 10162
  139.4794  144.5803  151.7943 LP  0  0  0  0  0  0  0  0  0  0  0  0  # atno 17343 bound_to 10162
  155.9711  130.4160  150.4208 LP  0  0  0  0  0  0  0  0  0  0  0  0  # atno 17370 bound_to 10713
  157.2260  131.0493  151.2520 LP  0  0  0  0  0  0  0  0  0  0  0  0  # atno 17371 bound_to 10713
  141.1136  133.9576  157.2864 LP  0  0  0  0  0  0  0  0  0  0  0  0  # atno 17394 bound_to 11000
  139.9425  135.0189  156.8753 LP  0  0  0  0  0  0  0  0  0  0  0  0  # atno 17395 bound_to 11000

$$$$
