AV-unprocessed.smi:434|AV-procd|sdf|2553|dock10
  -GOLD-   2262022523D 1   1.00000     0.00000
 Structure written by MMmdl.
 39 41  0  0  0  0  0  0  0  0  1 V2000
  151.8826  139.0019  155.4720 C   0  0  0  0  0  0  0  0  0  0  0  0
  151.8418  140.0930  156.4945 C   0  0  0  0  0  0  0  0  0  0  0  0
  152.6189  140.0818  157.5776 N   0  0  0  0  0  0  0  0  0  0  0  0
  152.2629  141.2534  158.2176 C   0  0  0  0  0  0  0  0  0  0  0  0
  152.7297  141.8179  159.4263 C   0  0  0  0  0  0  0  0  0  0  0  0
  152.2097  143.0447  159.8888 C   0  0  0  0  0  0  0  0  0  0  0  0
  151.2168  143.7224  159.1520 C   0  0  0  0  0  0  0  0  0  0  0  0
  150.7374  143.1774  157.9453 C   0  0  0  0  0  0  0  0  0  0  0  0
  151.2601  141.9530  157.4874 C   0  0  0  0  0  0  0  0  0  0  0  0
  151.0122  141.1583  156.3720 N   0  0  0  0  0  0  0  0  0  0  0  0
  150.0591  141.4314  155.3041 C   0  0  0  0  0  0  0  0  0  0  0  0
  148.9502  140.3642  155.2066 C   0  0  1  0  0  0  0  0  0  0  0  0
  148.2658  140.2955  156.4423 O   0  0  0  0  0  0  0  0  0  0  0  0
  147.9325  140.6928  154.1029 C   0  0  0  0  0  0  0  0  0  0  0  0
  147.2195  141.8638  154.4652 O   0  0  0  0  0  0  0  0  0  0  0  0
  146.7158  142.5671  153.3432 C   0  0  0  0  0  0  0  0  0  0  0  0
  145.5798  143.3967  153.8378 C   0  0  0  0  0  0  0  0  0  0  0  0
  144.9528  143.5089  155.0482 C   0  0  0  0  0  0  0  0  0  0  0  0
  143.9330  144.4866  154.8823 C   0  0  0  0  0  0  0  0  0  0  0  0
  144.0148  144.8990  153.5827 C   0  0  0  0  0  0  0  0  0  0  0  0
  145.0148  144.2442  152.9319 O   0  0  0  0  0  0  0  0  0  0  0  0
  152.5616  138.2087  155.7865 H   0  0  0  0  0  0  0  0  0  0  0  0
  152.2327  139.3939  154.5169 H   0  0  0  0  0  0  0  0  0  0  0  0
  150.8919  138.5691  155.3360 H   0  0  0  0  0  0  0  0  0  0  0  0
  153.4890  141.3061  159.9988 H   0  0  0  0  0  0  0  0  0  0  0  0
  152.5742  143.4670  160.8138 H   0  0  0  0  0  0  0  0  0  0  0  0
  150.8227  144.6607  159.5144 H   0  0  0  0  0  0  0  0  0  0  0  0
  149.9749  143.6930  157.3806 H   0  0  0  0  0  0  0  0  0  0  0  0
  149.6224  142.4172  155.4704 H   0  0  0  0  0  0  0  0  0  0  0  0
  150.6027  141.4998  154.3616 H   0  0  0  0  0  0  0  0  0  0  0  0
  149.4040  139.3938  155.0029 H   0  0  0  0  0  0  0  0  0  0  0  0
  147.3551  140.1106  156.2703 H   0  0  0  0  0  0  0  0  0  0  0  0
  148.4222  140.8063  153.1339 H   0  0  0  0  0  0  0  0  0  0  0  0
  147.2161  139.8750  154.0084 H   0  0  0  0  0  0  0  0  0  0  0  0
  147.4893  143.1997  152.9049 H   0  0  0  0  0  0  0  0  0  0  0  0
  146.3720  141.8722  152.5757 H   0  0  0  0  0  0  0  0  0  0  0  0
  145.1990  142.9565  155.9429 H   0  0  0  0  0  0  0  0  0  0  0  0
  143.2295  144.8436  155.6199 H   0  0  0  0  0  0  0  0  0  0  0  0
  143.4675  145.6140  152.9864 H   0  0  0  0  0  0  0  0  0  0  0  0
  1  2  1  0  0  0  0
  1 22  1  0  0  0  0
  1 23  1  0  0  0  0
  1 24  1  0  0  0  0
  2 10  1  0  0  0  0
  2  3  2  0  0  0  0
  3  4  1  0  0  0  0
  4  9  2  0  0  0  0
  4  5  1  0  0  0  0
  5  6  2  0  0  0  0
  5 25  1  0  0  0  0
  6  7  1  0  0  0  0
  6 26  1  0  0  0  0
  7  8  2  0  0  0  0
  7 27  1  0  0  0  0
  8  9  1  0  0  0  0
  8 28  1  0  0  0  0
  9 10  1  0  0  0  0
 10 11  1  0  0  0  0
 11 12  1  0  0  0  0
 11 29  1  0  0  0  0
 11 30  1  0  0  0  0
 12 13  1  0  0  0  0
 12 14  1  0  0  0  0
 12 31  1  0  0  0  0
 13 32  1  0  0  0  0
 14 15  1  0  0  0  0
 14 33  1  0  0  0  0
 14 34  1  0  0  0  0
 15 16  1  0  0  0  0
 16 17  1  0  0  0  0
 16 35  1  0  0  0  0
 16 36  1  0  0  0  0
 17 21  1  0  0  0  0
 17 18  2  0  0  0  0
 18 19  1  0  0  0  0
 18 37  1  0  0  0  0
 19 20  2  0  0  0  0
 19 38  1  0  0  0  0
 20 21  1  0  0  0  0
 20 39  1  0  0  0  0
M  END
> <s_m_source_file>
AV-unprocessed.smi

> <i_m_source_file_index>
434

> <i_lp_mmshare_version>
43012

> <i_f3d_flags>
0

> <s_epik_input>
W2NIXTFbY0hdW2NIXVtjSF1jKGMxMiluKGMobjIpW0NIM10pW0NIMl1bQ0BIXShbT0hdKVtDSDJdT1tDSDJdYzNbY0hdW2NIXVtjSF1vMw==

> <s_epik_cmdline>
J2VwaWtfcHl0aG9uJywgJy1waCcsICc3LjAnLCAnLXRuJywgJzgnLCAnLW1hJywgJzIwMCcsICctbWV0YWxfYmluZGluZycsICctaW1hZScsICc8aW5maWxlLm1hZT4nLCAnLW9tYWUnLCAnPG91dGZpbGUubWFlPic=

> <r_epik_Ionization_Penalty>
0.126634

> <r_epik_Ionization_Penalty_Charging>
0

> <r_epik_Ionization_Penalty_Neutral>
0.126634

> <r_epik_State_Penalty>
0.116082

> <r_epik_Charging_Adjusted_Penalty>
0.116082

> <i_epik_Tot_Q>
0

> <i_epik_Tot_abs_Q>
0

> <r_epik_Metal_State_Penalty>
0.00012822

> <b_epik_Metal_Only>
0

> <s_lp_Force_Field>
OPLS_2005

> <r_lp_Energy>
9.69126

> <b_lp_Chiralities_Consistent>
1

> <s_lp_Variant>
AV-unprocessed.smi:434-2

> <Gold.Version>
5.8.1

> <Gold.Id.Protein>
6NUR|6NUR_protein|mol2

> <Gold.PLP.Fitness>
44.7266

> <Gold.PLP.PLP>
-42.3330

> <Gold.PLP.part.hbond>
-1.0000

> <Gold.PLP.part.metal>
0.0000

> <Gold.PLP.part.buried>
-6.8409

> <Gold.PLP.part.nonpolar>
-33.8231

> <Gold.PLP.part.repulsive>
0.3268

> <Gold.PLP.ligand.clash>
0.0000

> <Gold.PLP.ligand.torsion>
0.3180

> <Gold.PLP.Chemscore.Hbond>
1.0000

> <Gold.PLP.Chemscore.CHOScore>
0.0000

> <Gold.PLP.Chemscore.Metal>
0.0000

> <Gold.Chemscore.Hbonds>
donor molecule, donor type, donor heavy atom, donor atom, acceptor molecule, acceptor atom, score
      P1  H  7997  8009       L1     3  1.00

> <Gold.PLP.Chemscore.Internal.Correction>
0.0296

> <Gold.Rescore>
     Score         DG    S(hbond)    S(metal)    S(lipo)     H(rot)  DE(clash)    DE(int)     intcor
     14.10     -14.64       0.60        0.00     112.78       2.36       0.22       0.32       ----

> <Gold.Chemscore.Fitness>
14.1008

> <Gold.Chemscore.DG>
-14.6370

> <Gold.Chemscore.ZeroCoef>
-5.4800

> <Gold.Chemscore.Hbond>
0.5990

> <Gold.Chemscore.Metal>
0.0000

> <Gold.Chemscore.Lipo>
112.7819

> <Gold.Chemscore.Internal_Hbond>
0.0000

> <Gold.Chemscore.DEClash>
0.2162

> <Gold.Chemscore.DEInternal>
0.3200

> <Gold.Chemscore.Rot>
2.3591

> <Gold.Chemscore.Internal.Correction>
   9.000000E+99

> <Gold.Chemscore.Hbonds>
donor molecule, donor type, donor heavy atom, donor atom, acceptor molecule, acceptor atom, score
      P1  H  7997  8009       L1     3  0.26

> <Gold.Chemscore.Hbond.Weighted>
-2.0008

> <Gold.Chemscore.Metal.Weighted>
-0.0000

> <Gold.Chemscore.Lipo.Weighted>
-13.1955

> <Gold.Chemscore.Internal_Hbond.Weighted>
0.0000

> <Gold.Chemscore.DEClash.Weighted>
0.2162

> <Gold.Chemscore.DEInternal.Weighted>
0.3200

> <Gold.Chemscore.Rot.Weighted>
6.0393

> <Gold.Chemscore.Internal.Correction.Weighted>
   9.000000E+99

> <Gold.Protein.RotatedTorsions>
[ 6907 6896 6895 6894 ] final  -72.67 input  -60.11 | X-H torsion
[ 7974 7965 7964 7962 ] final  118.69 input  175.53 | X-H torsion
[ 8008 7997 7996 7995 ] final  172.66 input   59.86 | X-H torsion
[ 10167 10162 10161 10158 ] final  161.76 input  -65.29 | X-H torsion
[ 10718 10713 10712 10709 ] final  -71.59 input   66.30 | X-H torsion
[ 10763 10752 10751 10750 ] final  -77.28 input  -60.55 | X-H torsion
[ 11005 11000 10999 10996 ] final -121.19 input  -57.11 | X-H torsion

> <Gold.Protein.ActiveResidues>
 VAL166  LYS551  ARG553  GLY616  TRP617  ASP618  TYR619  PRO620  LYS621  CYS622 
 ASP623  PHE694  ASN695  SER759  ASP760  ASP761  ALA762  ILE779  LEU786  VAL792 
 PHE793  MET794  SER795  GLU796  ALA797  LYS798  CYS799  TRP800  GLU811  SER814 

> <Gold.Protein.RotatedAtoms>
  150.7160  134.5129  159.5615 H   0  0  0  0  0  0  0  0  0  0  0  0  # atno 6907 bound_to 6896
  152.2701  134.7938  160.0424 H   0  0  0  0  0  0  0  0  0  0  0  0  # atno 6908 bound_to 6896
  151.8621  133.3424  159.3744 H   0  0  0  0  0  0  0  0  0  0  0  0  # atno 6909 bound_to 6896
  145.1522  139.3204  143.4561 H   0  0  0  0  0  0  0  0  0  0  0  0  # atno 7974 bound_to 7965
  156.1153  140.1480  156.9281 H   0  0  0  0  0  0  0  0  0  0  0  0  # atno 8008 bound_to 7997
  154.4796  140.0883  156.7388 H   0  0  0  0  0  0  0  0  0  0  0  0  # atno 8009 bound_to 7997
  155.4525  140.3435  155.4305 H   0  0  0  0  0  0  0  0  0  0  0  0  # atno 8010 bound_to 7997
  139.4853  144.4504  151.8837 H   0  0  0  0  0  0  0  0  0  0  0  0  # atno 10167 bound_to 10162
  156.0356  130.4354  150.2467 H   0  0  0  0  0  0  0  0  0  0  0  0  # atno 10718 bound_to 10713
  154.5108  135.5769  153.6603 H   0  0  0  0  0  0  0  0  0  0  0  0  # atno 10763 bound_to 10752
  152.9897  135.6158  154.2881 H   0  0  0  0  0  0  0  0  0  0  0  0  # atno 10764 bound_to 10752
  154.2795  135.2851  155.2682 H   0  0  0  0  0  0  0  0  0  0  0  0  # atno 10765 bound_to 10752
  141.0088  134.0295  157.3441 H   0  0  0  0  0  0  0  0  0  0  0  0  # atno 11005 bound_to 11000
  146.3493  140.1600  142.8591 LP  0  0  0  0  0  0  0  0  0  0  0  0  # atno 17320 bound_to 7965
  145.0419  140.8952  143.5047 LP  0  0  0  0  0  0  0  0  0  0  0  0  # atno 17321 bound_to 7965
  140.3961  144.2554  150.5896 LP  0  0  0  0  0  0  0  0  0  0  0  0  # atno 17342 bound_to 10162
  140.5101  143.2293  151.8548 LP  0  0  0  0  0  0  0  0  0  0  0  0  # atno 17343 bound_to 10162
  157.0566  131.0078  151.3236 LP  0  0  0  0  0  0  0  0  0  0  0  0  # atno 17370 bound_to 10713
  157.5101  130.7933  149.7696 LP  0  0  0  0  0  0  0  0  0  0  0  0  # atno 17371 bound_to 10713
  139.9078  135.0183  156.7563 LP  0  0  0  0  0  0  0  0  0  0  0  0  # atno 17394 bound_to 11000
  140.6768  133.9510  155.7887 LP  0  0  0  0  0  0  0  0  0  0  0  0  # atno 17395 bound_to 11000

$$$$
