AV-unprocessed.smi:35|AV-procd|sdf|272|dock2
  -GOLD-   2262016 43D 1   1.00000     0.00000
 Structure written by MMmdl.
 28 29  0  0  0  0  0  0  0  0  2 V2000
  151.7683  135.7607  156.0128 O   0  0  0  0  0  0  0  0  0  0  0  0
  151.3643  136.8950  155.7640 C   0  0  0  0  0  0  0  0  0  0  0  0
  152.1953  137.9712  155.6566 N   0  5  0  0  0  0  0  0  0  0  0  0
  151.7396  139.2328  155.4009 C   0  0  0  0  0  0  0  0  0  0  0  0
  152.4923  140.1946  155.2480 O   0  0  0  0  0  0  0  0  0  0  0  0
  150.3366  139.4546  155.2936 N   0  0  0  0  0  0  0  0  0  0  0  0
  149.8235  140.8546  154.9898 C   0  0  1  0  0  0  0  0  0  0  0  0
  149.4493  140.9313  153.6405 O   0  0  0  0  0  0  0  0  0  0  0  0
  148.0304  140.9365  153.4841 C   0  0  1  0  0  0  0  0  0  0  0  0
  147.4793  139.4961  153.3662 C   0  0  0  0  0  0  0  0  0  0  0  0
  147.7266  138.9881  152.0726 O   0  0  0  0  0  0  0  0  0  0  0  0
  147.5923  141.6980  154.7397 C   0  0  1  0  0  0  0  0  0  0  0  0
  146.2473  141.4537  155.1025 O   0  0  0  0  0  0  0  0  0  0  0  0
  148.5622  141.2153  155.8097 C   0  0  2  0  0  0  0  0  0  0  0  0
  148.8096  142.2649  156.7233 O   0  0  0  0  0  0  0  0  0  0  0  0
  149.4785  138.3651  155.3281 C   0  0  0  0  0  0  0  0  0  0  0  0
  149.9365  137.1193  155.5635 C   0  0  0  0  0  0  0  0  0  0  0  0
  148.5867  135.6695  155.6068 Br  0  0  0  0  0  0  0  0  0  0  0  0
  150.6801  141.5061  155.1717 H   0  0  0  0  0  0  0  0  0  0  0  0
  147.7557  141.5017  152.5925 H   0  0  0  0  0  0  0  0  0  0  0  0
  147.8832  138.8287  154.1258 H   0  0  0  0  0  0  0  0  0  0  0  0
  146.3970  139.4898  153.4929 H   0  0  0  0  0  0  0  0  0  0  0  0
  148.2143  138.1830  152.1556 H   0  0  0  0  0  0  0  0  0  0  0  0
  147.7270  142.7667  154.5619 H   0  0  0  0  0  0  0  0  0  0  0  0
  145.6910  141.7839  154.4133 H   0  0  0  0  0  0  0  0  0  0  0  0
  148.1748  140.3301  156.3176 H   0  0  0  0  0  0  0  0  0  0  0  0
  148.5831  143.0796  156.2988 H   0  0  0  0  0  0  0  0  0  0  0  0
  148.4195  138.4940  155.1670 H   0  0  0  0  0  0  0  0  0  0  0  0
  1  2  2  0  0  0  0
  2 17  1  0  0  0  0
  2  3  1  0  0  0  0
  3  4  1  0  0  0  0
  4  5  2  0  0  0  0
  4  6  1  0  0  0  0
  6  7  1  0  0  0  0
  6 16  1  0  0  0  0
  7 14  1  0  0  0  0
  7  8  1  0  0  0  0
  7 19  1  0  0  0  0
  8  9  1  0  0  0  0
  9 10  1  0  0  0  0
  9 12  1  0  0  0  0
  9 20  1  0  0  0  0
 10 11  1  0  0  0  0
 10 21  1  0  0  0  0
 10 22  1  0  0  0  0
 11 23  1  0  0  0  0
 12 13  1  0  0  0  0
 12 14  1  0  0  0  0
 12 24  1  0  0  0  0
 13 25  1  0  0  0  0
 14 15  1  0  0  0  0
 14 26  1  0  0  0  0
 15 27  1  0  0  0  0
 16 17  2  0  0  0  0
 16 28  1  0  0  0  0
 17 18  1  0  0  0  0
M  CHG  1   3  -1
M  END
> <s_m_source_file>
AV-unprocessed.smi

> <i_m_source_file_index>
35

> <i_lp_mmshare_version>
43012

> <i_f3d_flags>
0

> <s_epik_input>
Tz1jMVtuSF1jKD1PKW4oW2NIXWMxQnIpW0NAQEhdMk9bQ0BASF0oW0NIMl1bT0hdKVtDQEBIXShbT0hdKVtDQEhdMltPSF0=

> <s_epik_cmdline>
J2VwaWtfcHl0aG9uJywgJy1waCcsICc3LjAnLCAnLXRuJywgJzgnLCAnLW1hJywgJzIwMCcsICctbWV0YWxfYmluZGluZycsICctaW1hZScsICc8aW5maWxlLm1hZT4nLCAnLW9tYWUnLCAnPG91dGZpbGUubWFlPic=

> <r_epik_Ionization_Penalty>
1.06112

> <r_epik_Ionization_Penalty_Charging>
2.1796e-09

> <r_epik_Ionization_Penalty_Neutral>
1.06112

> <r_epik_State_Penalty>
1.11484

> <r_epik_Charging_Adjusted_Penalty>
1.11484

> <i_epik_Tot_Q>
-1

> <i_epik_Tot_abs_Q>
1

> <r_epik_Metal_State_Penalty>
0.0032876

> <b_epik_Metal_Only>
0

> <s_epik_Chemistry_Notes>
This compound contains an acetal/aminal-like group ( X-CH(R)-Y where X, Y are N, S, or O) that may be acid/base labile, releasing an aldehyde.

> <s_lp_Force_Field>
OPLS_2005

> <r_lp_Energy>
39.1744

> <b_lp_Chiralities_Consistent>
1

> <s_lp_Variant>
AV-unprocessed.smi:35-26

> <Gold.Version>
5.8.1

> <Gold.Id.Protein>
6NUR|6NUR_protein|mol2

> <Gold.PLP.Fitness>
38.8082

> <Gold.PLP.PLP>
-23.9683

> <Gold.PLP.part.hbond>
-7.6653

> <Gold.PLP.part.metal>
0.0000

> <Gold.PLP.part.buried>
-0.5729

> <Gold.PLP.part.nonpolar>
-18.6257

> <Gold.PLP.part.repulsive>
3.4847

> <Gold.PLP.ligand.clash>
0.0000

> <Gold.PLP.ligand.torsion>
0.4706

> <Gold.PLP.Chemscore.Hbond>
5.2399

> <Gold.PLP.Chemscore.CHOScore>
0.0000

> <Gold.PLP.Chemscore.Metal>
0.0000

> <Gold.Chemscore.Hbonds>
donor molecule, donor type, donor heavy atom, donor atom, acceptor molecule, acceptor atom, score
      L1  H    11    23       P1  7948  0.89
      L1  H    15    27       P1  8028  1.00
      P1  H  7989  7998       L1     5  0.46
      P1  H  7997  8008       L1     5  0.94
      P1  H  8011  8017       L1     8  0.80
      P1  H 10752 10764       L1     1  1.00

> <Gold.PLP.Chemscore.Internal.Correction>
0.0615

> <Gold.Rescore>
     Score         DG    S(hbond)    S(metal)    S(lipo)     H(rot)  DE(clash)    DE(int)     intcor
      9.07     -12.50       3.75        0.00      32.24       3.63       1.99       1.44       ----

> <Gold.Chemscore.Fitness>
9.0724

> <Gold.Chemscore.DG>
-12.5039

> <Gold.Chemscore.ZeroCoef>
-5.4800

> <Gold.Chemscore.Hbond>
3.7528

> <Gold.Chemscore.Metal>
0.0000

> <Gold.Chemscore.Lipo>
32.2430

> <Gold.Chemscore.Internal_Hbond>
0.0000

> <Gold.Chemscore.DEClash>
1.9943

> <Gold.Chemscore.DEInternal>
1.4371

> <Gold.Chemscore.Rot>
3.6261

> <Gold.Chemscore.Internal.Correction>
   9.000000E+99

> <Gold.Chemscore.Hbonds>
donor molecule, donor type, donor heavy atom, donor atom, acceptor molecule, acceptor atom, score
      L1  H    11    23       P1  7948  0.85
      L1  H    15    27       P1  8028  0.92
      P1  H  7989  7998       L1     5  0.07
      P1  H  7997  8008       L1     5  0.89
      P1  H  8011  8017       L1     8  0.11
      P1  H 10752 10764       L1     1  0.78

> <Gold.Chemscore.Hbond.Weighted>
-12.5342

> <Gold.Chemscore.Metal.Weighted>
-0.0000

> <Gold.Chemscore.Lipo.Weighted>
-3.7724

> <Gold.Chemscore.Internal_Hbond.Weighted>
0.0000

> <Gold.Chemscore.DEClash.Weighted>
1.9943

> <Gold.Chemscore.DEInternal.Weighted>
1.4371

> <Gold.Chemscore.Rot.Weighted>
9.2828

> <Gold.Chemscore.Internal.Correction.Weighted>
   9.000000E+99

> <Gold.Protein.RotatedTorsions>
[ 6907 6896 6895 6894 ] final -103.70 input  -60.11 | X-H torsion
[ 7974 7965 7964 7962 ] final   -8.23 input  175.53 | X-H torsion
[ 8008 7997 7996 7995 ] final  -18.12 input   59.86 | X-H torsion
[ 10167 10162 10161 10158 ] final -141.35 input  -65.29 | X-H torsion
[ 10718 10713 10712 10709 ] final   60.83 input   66.30 | X-H torsion
[ 10763 10752 10751 10750 ] final  -19.57 input  -60.55 | X-H torsion
[ 11005 11000 10999 10996 ] final   -4.36 input  -57.11 | X-H torsion

> <Gold.Protein.ActiveResidues>
 VAL166  LYS551  ARG553  GLY616  TRP617  ASP618  TYR619  PRO620  LYS621  CYS622 
 ASP623  PHE694  ASN695  SER759  ASP760  ASP761  ALA762  ILE779  LEU786  VAL792 
 PHE793  MET794  SER795  GLU796  ALA797  LYS798  CYS799  TRP800  GLU811  SER814 

> <Gold.Protein.RotatedAtoms>
  150.7252  134.0390  159.3758 H   0  0  0  0  0  0  0  0  0  0  0  0  # atno 6907 bound_to 6896
  151.8362  135.0603  160.0452 H   0  0  0  0  0  0  0  0  0  0  0  0  # atno 6908 bound_to 6896
  152.2896  133.5513  159.5586 H   0  0  0  0  0  0  0  0  0  0  0  0  # atno 6909 bound_to 6896
  146.2286  140.2437  142.8344 H   0  0  0  0  0  0  0  0  0  0  0  0  # atno 7974 bound_to 7965
  154.4929  140.2124  155.9510 H   0  0  0  0  0  0  0  0  0  0  0  0  # atno 8008 bound_to 7997
  156.1330  140.3193  155.8346 H   0  0  0  0  0  0  0  0  0  0  0  0  # atno 8009 bound_to 7997
  155.4262  140.0500  157.3013 H   0  0  0  0  0  0  0  0  0  0  0  0  # atno 8010 bound_to 7997
  139.8193  143.7596  152.2666 H   0  0  0  0  0  0  0  0  0  0  0  0  # atno 10167 bound_to 10162
  157.5783  130.8961  149.9385 H   0  0  0  0  0  0  0  0  0  0  0  0  # atno 10718 bound_to 10713
  153.6068  135.6997  153.5362 H   0  0  0  0  0  0  0  0  0  0  0  0  # atno 10763 bound_to 10752
  153.3050  135.4118  155.1286 H   0  0  0  0  0  0  0  0  0  0  0  0  # atno 10764 bound_to 10752
  154.8571  135.3658  154.5605 H   0  0  0  0  0  0  0  0  0  0  0  0  # atno 10765 bound_to 10752
  140.6794  133.9166  155.8545 H   0  0  0  0  0  0  0  0  0  0  0  0  # atno 11005 bound_to 11000
  144.9465  140.8134  143.5598 LP  0  0  0  0  0  0  0  0  0  0  0  0  # atno 17320 bound_to 7965
  145.2393  139.2079  143.5001 LP  0  0  0  0  0  0  0  0  0  0  0  0  # atno 17321 bound_to 7965
  139.7769  144.7458  151.0144 LP  0  0  0  0  0  0  0  0  0  0  0  0  # atno 17342 bound_to 10162
  140.7814  143.4584  151.0313 LP  0  0  0  0  0  0  0  0  0  0  0  0  # atno 17343 bound_to 10162
  156.0828  130.3671  150.0547 LP  0  0  0  0  0  0  0  0  0  0  0  0  # atno 17370 bound_to 10713
  156.8690  130.9518  151.3611 LP  0  0  0  0  0  0  0  0  0  0  0  0  # atno 17371 bound_to 10713
  141.0329  134.0730  157.3993 LP  0  0  0  0  0  0  0  0  0  0  0  0  # atno 17394 bound_to 11000
  139.8956  135.0142  156.7011 LP  0  0  0  0  0  0  0  0  0  0  0  0  # atno 17395 bound_to 11000

$$$$
