AV-unprocessed.smi:112|AV-procd|sdf|1086|dock5
  -GOLD-   2262018183D 1   1.00000     0.00000
 Structure written by MMmdl.
 54 57  0  0  0  0  0  0  0  0  3 V2000
  146.8476  138.1774  155.7776 C   0  0  0  0  0  0  0  0  0  0  0  0
  148.3525  137.9634  155.7595 C   0  0  0  0  0  0  0  0  0  0  0  0
  148.9026  136.7309  155.6728 C   0  0  0  0  0  0  0  0  0  0  0  0
  150.2650  136.5022  155.6530 N   0  0  0  0  0  0  0  0  0  0  0  0
  150.7972  135.0944  155.5421 C   0  0  1  0  0  0  0  0  0  0  0  0
  150.3712  134.2461  156.7370 C   0  0  0  0  0  0  0  0  0  0  0  0
  150.3659  132.8510  156.1374 C   0  0  2  0  0  0  0  0  0  0  0  0
  151.6208  132.2283  156.3362 O   0  0  0  0  0  0  0  0  0  0  0  0
  150.1227  133.0994  154.6341 C   0  0  1  0  0  0  0  0  0  0  0  0
  148.7580  132.6315  154.0958 C   0  0  0  0  0  0  0  0  0  0  0  0
  148.4179  133.2808  152.8872 O   0  0  0  0  0  0  0  0  0  0  0  0
  150.2493  134.5015  154.4093 O   0  0  0  0  0  0  0  0  0  0  0  0
  151.1596  137.5878  155.7431 C   0  0  0  0  0  0  0  0  0  0  0  0
  152.3794  137.4086  155.7373 O   0  0  0  0  0  0  0  0  0  0  0  0
  150.6170  138.8890  155.8463 N   0  0  0  0  0  0  0  0  0  0  0  0
  151.5431  140.0403  155.9486 C   0  0  0  0  0  0  0  0  0  0  0  0
  152.2410  140.1667  157.3208 C   0  0  0  0  0  0  0  0  0  0  0  0
  153.0807  139.3251  157.6416 O   0  0  0  0  0  0  0  0  0  0  0  0
  151.8891  141.2083  158.1158 N   0  0  0  0  0  0  0  0  0  0  0  0
  150.8833  142.2161  157.7362 C   0  0  0  0  0  0  0  0  0  0  0  0
  150.7942  143.2074  158.9166 C   0  0  0  0  0  0  0  0  0  0  0  0
  151.7887  142.6587  159.8961 C   0  0  0  0  0  0  0  0  0  0  0  0
  152.1040  143.1910  161.1576 C   0  0  0  0  0  0  0  0  0  0  0  0
  153.0748  142.5345  161.9541 C   0  0  0  0  0  0  0  0  0  0  0  0
  153.4307  143.0644  163.2854 N   0  3  0  0  0  0  0  0  0  0  0  0
  154.3474  142.5276  163.8992 O   0  0  0  0  0  0  0  0  0  0  0  0
  152.7937  144.0186  163.7198 O   0  5  0  0  0  0  0  0  0  0  0  0
  153.6994  141.3611  161.4535 C   0  0  0  0  0  0  0  0  0  0  0  0
  153.3712  140.8408  160.1823 C   0  0  0  0  0  0  0  0  0  0  0  0
  152.4004  141.5105  159.4063 C   0  0  0  0  0  0  0  0  0  0  0  0
  149.2219  139.1393  155.8439 C   0  0  0  0  0  0  0  0  0  0  0  0
  148.7912  140.2925  155.9078 O   0  0  0  0  0  0  0  0  0  0  0  0
  146.3036  137.2346  155.7137 H   0  0  0  0  0  0  0  0  0  0  0  0
  146.5404  138.7975  154.9348 H   0  0  0  0  0  0  0  0  0  0  0  0
  146.5442  138.6755  156.6991 H   0  0  0  0  0  0  0  0  0  0  0  0
  148.2416  135.8775  155.6187 H   0  0  0  0  0  0  0  0  0  0  0  0
  151.8793  135.1400  155.4132 H   0  0  0  0  0  0  0  0  0  0  0  0
  151.0443  134.3799  157.5848 H   0  0  0  0  0  0  0  0  0  0  0  0
  149.3604  134.5227  157.0399 H   0  0  0  0  0  0  0  0  0  0  0  0
  149.6015  132.2214  156.5943 H   0  0  0  0  0  0  0  0  0  0  0  0
  152.2531  132.8906  156.5698 H   0  0  0  0  0  0  0  0  0  0  0  0
  150.9007  132.6125  154.0432 H   0  0  0  0  0  0  0  0  0  0  0  0
  148.7530  131.5517  153.9451 H   0  0  0  0  0  0  0  0  0  0  0  0
  147.9794  132.8557  154.8252 H   0  0  0  0  0  0  0  0  0  0  0  0
  148.8078  134.1417  152.8889 H   0  0  0  0  0  0  0  0  0  0  0  0
  152.3008  139.9776  155.1669 H   0  0  0  0  0  0  0  0  0  0  0  0
  151.0196  140.9734  155.7359 H   0  0  0  0  0  0  0  0  0  0  0  0
  151.1834  142.7400  156.8277 H   0  0  0  0  0  0  0  0  0  0  0  0
  149.9139  141.7483  157.5587 H   0  0  0  0  0  0  0  0  0  0  0  0
  151.0711  144.2191  158.6190 H   0  0  0  0  0  0  0  0  0  0  0  0
  149.7964  143.2286  159.3564 H   0  0  0  0  0  0  0  0  0  0  0  0
  151.6061  144.0860  161.5009 H   0  0  0  0  0  0  0  0  0  0  0  0
  154.4419  140.8444  162.0437 H   0  0  0  0  0  0  0  0  0  0  0  0
  153.8698  139.9481  159.8396 H   0  0  0  0  0  0  0  0  0  0  0  0
  1  2  1  0  0  0  0
  1 33  1  0  0  0  0
  1 34  1  0  0  0  0
  1 35  1  0  0  0  0
  2 31  1  0  0  0  0
  2  3  2  0  0  0  0
  3  4  1  0  0  0  0
  3 36  1  0  0  0  0
  4  5  1  0  0  0  0
  4 13  1  0  0  0  0
  5 12  1  0  0  0  0
  5  6  1  0  0  0  0
  5 37  1  0  0  0  0
  6  7  1  0  0  0  0
  6 38  1  0  0  0  0
  6 39  1  0  0  0  0
  7  8  1  0  0  0  0
  7  9  1  0  0  0  0
  7 40  1  0  0  0  0
  8 41  1  0  0  0  0
  9 10  1  0  0  0  0
  9 12  1  0  0  0  0
  9 42  1  0  0  0  0
 10 11  1  0  0  0  0
 10 43  1  0  0  0  0
 10 44  1  0  0  0  0
 11 45  1  0  0  0  0
 13 14  2  0  0  0  0
 13 15  1  0  0  0  0
 15 16  1  0  0  0  0
 15 31  1  0  0  0  0
 16 17  1  0  0  0  0
 16 46  1  0  0  0  0
 16 47  1  0  0  0  0
 17 18  2  0  0  0  0
 17 19  1  0  0  0  0
 19 30  1  0  0  0  0
 19 20  1  0  0  0  0
 20 21  1  0  0  0  0
 20 48  1  0  0  0  0
 20 49  1  0  0  0  0
 21 22  1  0  0  0  0
 21 50  1  0  0  0  0
 21 51  1  0  0  0  0
 22 30  2  0  0  0  0
 22 23  1  0  0  0  0
 23 24  2  0  0  0  0
 23 52  1  0  0  0  0
 24 25  1  0  0  0  0
 24 28  1  0  0  0  0
 25 26  2  0  0  0  0
 25 27  1  0  0  0  0
 28 29  2  0  0  0  0
 28 53  1  0  0  0  0
 29 30  1  0  0  0  0
 29 54  1  0  0  0  0
 31 32  2  0  0  0  0
M  CHG  1  25   1
M  CHG  1  27  -1
M  END
> <s_m_source_file>
AV-unprocessed.smi

> <i_m_source_file_index>
112

> <i_lp_mmshare_version>
43012

> <i_f3d_flags>
0

> <s_epik_input>
W09IXVtDSDJdW0NAQEhdKE8xKVtDQEhdKFtPSF0pW0NIMl1bQ0BIXTFuKFtjSF1jMltDSDNdKWMoPU8pbihjMj1PKVtDSDJdQyg9TylOKFtDSDJdW0NIMl0zKWMoYzM0KVtjSF1bY0hdYyhbY0hdNClbTitdKD1PKVtPLV0=

> <s_epik_cmdline>
J2VwaWtfcHl0aG9uJywgJy1waCcsICc3LjAnLCAnLXRuJywgJzgnLCAnLW1hJywgJzIwMCcsICctbWV0YWxfYmluZGluZycsICctaW1hZScsICc8aW5maWxlLm1hZT4nLCAnLW9tYWUnLCAnPG91dGZpbGUubWFlPic=

> <r_lp_tautomer_probability>
1

> <r_epik_Ionization_Penalty>
2.5696e-07

> <r_epik_Ionization_Penalty_Charging>
1.04886e-08

> <r_epik_Ionization_Penalty_Neutral>
2.46472e-07

> <r_epik_State_Penalty>
-0

> <r_epik_Charging_Adjusted_Penalty>
1.04886e-08

> <i_epik_Tot_Q>
0

> <i_epik_Tot_abs_Q>
2

> <r_epik_Metal_State_Penalty>
-0

> <b_epik_Metal_Only>
0

> <s_epik_Chemistry_Notes>
This compound contains an acetal/aminal-like group ( X-CH(R)-Y where X, Y are N, S, or O) that may be acid/base labile, releasing an aldehyde.

> <s_lp_Force_Field>
OPLS_2005

> <r_lp_Energy>
61.0713

> <b_lp_Chiralities_Consistent>
1

> <s_lp_Variant>
AV-unprocessed.smi:112-4

> <Gold.Version>
5.8.1

> <Gold.Id.Protein>
6NUR|6NUR_protein|mol2

> <Gold.PLP.Fitness>
56.9246

> <Gold.PLP.PLP>
-50.9076

> <Gold.PLP.part.hbond>
-3.9326

> <Gold.PLP.part.metal>
0.0000

> <Gold.PLP.part.buried>
-6.5987

> <Gold.PLP.part.nonpolar>
-40.9100

> <Gold.PLP.part.repulsive>
1.9384

> <Gold.PLP.ligand.clash>
0.0000

> <Gold.PLP.ligand.torsion>
0.4783

> <Gold.PLP.Chemscore.Hbond>
2.3204

> <Gold.PLP.Chemscore.CHOScore>
0.0000

> <Gold.PLP.Chemscore.Metal>
0.0000

> <Gold.Chemscore.Hbonds>
donor molecule, donor type, donor heavy atom, donor atom, acceptor molecule, acceptor atom, score
      L1  H    11    45       P1  7948  0.17
      P1  H  7997  8008       L1    18  0.85
      P1  H 10752 10765       L1    14  0.51

> <Gold.PLP.Chemscore.Internal.Correction>
0.0123

> <Gold.Rescore>
     Score         DG    S(hbond)    S(metal)    S(lipo)     H(rot)  DE(clash)    DE(int)     intcor
      9.19     -13.65       1.33        0.00     103.94       3.29       1.46       3.00       ----

> <Gold.Chemscore.Fitness>
9.1850

> <Gold.Chemscore.DG>
-13.6464

> <Gold.Chemscore.ZeroCoef>
-5.4800

> <Gold.Chemscore.Hbond>
1.3269

> <Gold.Chemscore.Metal>
0.0000

> <Gold.Chemscore.Lipo>
103.9401

> <Gold.Chemscore.Internal_Hbond>
0.0000

> <Gold.Chemscore.DEClash>
1.4578

> <Gold.Chemscore.DEInternal>
3.0036

> <Gold.Chemscore.Rot>
3.2916

> <Gold.Chemscore.Internal.Correction>
   9.000000E+99

> <Gold.Chemscore.Hbonds>
donor molecule, donor type, donor heavy atom, donor atom, acceptor molecule, acceptor atom, score
      L1  H    11    45       P1  7948  0.01
      P1  H  7997  8008       L1    18  0.15
      P1  H 10752 10765       L1    14  0.46

> <Gold.Chemscore.Hbond.Weighted>
-4.4319

> <Gold.Chemscore.Metal.Weighted>
-0.0000

> <Gold.Chemscore.Lipo.Weighted>
-12.1610

> <Gold.Chemscore.Internal_Hbond.Weighted>
0.0000

> <Gold.Chemscore.DEClash.Weighted>
1.4578

> <Gold.Chemscore.DEInternal.Weighted>
3.0036

> <Gold.Chemscore.Rot.Weighted>
8.4265

> <Gold.Chemscore.Internal.Correction.Weighted>
   9.000000E+99

> <Gold.Protein.RotatedTorsions>
[ 6907 6896 6895 6894 ] final -119.82 input  -60.11 | X-H torsion
[ 7974 7965 7964 7962 ] final -113.94 input  175.53 | X-H torsion
[ 8008 7997 7996 7995 ] final  -70.79 input   59.86 | X-H torsion
[ 10167 10162 10161 10158 ] final  111.19 input  -65.29 | X-H torsion
[ 10718 10713 10712 10709 ] final -151.09 input   66.30 | X-H torsion
[ 10763 10752 10751 10750 ] final -167.35 input  -60.55 | X-H torsion
[ 11005 11000 10999 10996 ] final  129.89 input  -57.11 | X-H torsion

> <Gold.Protein.ActiveResidues>
 VAL166  LYS551  ARG553  GLY616  TRP617  ASP618  TYR619  PRO620  LYS621  CYS622 
 ASP623  PHE694  ASN695  SER759  ASP760  ASP761  ALA762  ILE779  LEU786  VAL792 
 PHE793  MET794  SER795  GLU796  ALA797  LYS798  CYS799  TRP800  GLU811  SER814 

> <Gold.Protein.RotatedAtoms>
  150.8339  133.8046  159.3087 H   0  0  0  0  0  0  0  0  0  0  0  0  # atno 6907 bound_to 6896
  151.5768  135.1058  160.0017 H   0  0  0  0  0  0  0  0  0  0  0  0  # atno 6908 bound_to 6896
  152.4414  133.7413  159.6699 H   0  0  0  0  0  0  0  0  0  0  0  0  # atno 6909 bound_to 6896
  145.1261  140.8697  143.3785 H   0  0  0  0  0  0  0  0  0  0  0  0  # atno 7974 bound_to 7965
  154.5038  140.0828  156.7853 H   0  0  0  0  0  0  0  0  0  0  0  0  # atno 8008 bound_to 7997
  155.3941  140.3434  155.4235 H   0  0  0  0  0  0  0  0  0  0  0  0  # atno 8009 bound_to 7997
  156.1490  140.1552  156.8788 H   0  0  0  0  0  0  0  0  0  0  0  0  # atno 8010 bound_to 7997
  139.6630  144.7128  151.1829 H   0  0  0  0  0  0  0  0  0  0  0  0  # atno 10167 bound_to 10162
  156.4546  130.8184  151.2415 H   0  0  0  0  0  0  0  0  0  0  0  0  # atno 10718 bound_to 10713
  154.6740  135.2944  154.9703 H   0  0  0  0  0  0  0  0  0  0  0  0  # atno 10763 bound_to 10752
  154.0720  135.6616  153.4829 H   0  0  0  0  0  0  0  0  0  0  0  0  # atno 10764 bound_to 10752
  153.0505  135.5177  154.7750 H   0  0  0  0  0  0  0  0  0  0  0  0  # atno 10765 bound_to 10752
  139.9641  134.9595  156.9215 H   0  0  0  0  0  0  0  0  0  0  0  0  # atno 11005 bound_to 11000
  145.0687  139.3049  143.5843 LP  0  0  0  0  0  0  0  0  0  0  0  0  # atno 17320 bound_to 7965
  146.3517  140.0154  142.8663 LP  0  0  0  0  0  0  0  0  0  0  0  0  # atno 17321 bound_to 7965
  140.7588  143.5964  150.8744 LP  0  0  0  0  0  0  0  0  0  0  0  0  # atno 17342 bound_to 10162
  139.9623  143.6150  152.2998 LP  0  0  0  0  0  0  0  0  0  0  0  0  # atno 17343 bound_to 10162
  157.7501  131.0127  150.3394 LP  0  0  0  0  0  0  0  0  0  0  0  0  # atno 17370 bound_to 10713
  156.3780  130.3875  149.7124 LP  0  0  0  0  0  0  0  0  0  0  0  0  # atno 17371 bound_to 10713
  140.5435  134.0697  155.7348 LP  0  0  0  0  0  0  0  0  0  0  0  0  # atno 17394 bound_to 11000
  141.1320  133.9286  157.2515 LP  0  0  0  0  0  0  0  0  0  0  0  0  # atno 17395 bound_to 11000

$$$$
