AV-unprocessed.smi:1970|AV-procd|sdf|7961|dock8
  -GOLD-   2272010133D 1   1.00000     0.00000
 Structure written by MMmdl.
 34 35  0  0  0  0  0  0  0  0  2 V2000
  152.7911  137.8182  159.8908 O   0  0  0  0  0  0  0  0  0  0  0  0
  153.9306  138.2595  160.0460 C   0  0  0  0  0  0  0  0  0  0  0  0
  155.1122  137.3095  160.2791 C   0  0  0  0  0  0  0  0  0  0  0  0
  154.9718  136.5181  161.5044 N   0  0  0  0  0  0  0  0  0  0  0  0
  154.9326  137.2138  162.7859 C   0  0  0  0  0  0  0  0  0  0  0  0
  154.4266  135.9978  164.0288 S   0  0  0  0  0  0  0  0  0  0  0  0
  154.7385  134.6040  162.9320 C   0  0  0  0  0  0  0  0  0  0  0  0
  154.8916  135.1759  161.5331 C   0  0  0  0  0  0  0  0  0  0  0  0
  154.9314  134.4460  160.5430 O   0  0  0  0  0  0  0  0  0  0  0  0
  154.2166  139.5702  160.0378 N   0  0  0  0  0  0  0  0  0  0  0  0
  153.2442  140.6330  159.8126 C   0  0  0  0  0  0  0  0  0  0  0  0
  153.6589  141.9338  160.5211 C   0  0  0  0  0  0  0  0  0  0  0  0
  152.7788  143.1060  160.1341 C   0  0  0  0  0  0  0  0  0  0  0  0
  152.1109  143.8917  161.0984 C   0  0  0  0  0  0  0  0  0  0  0  0
  151.3108  144.9724  160.6727 C   0  0  0  0  0  0  0  0  0  0  0  0
  151.1965  145.2452  159.2936 C   0  0  0  0  0  0  0  0  0  0  0  0
  151.8868  144.4293  158.3740 C   0  0  0  0  0  0  0  0  0  0  0  0
  152.6433  143.4027  158.8211 N   0  3  0  0  0  0  0  0  0  0  0  0
  155.2263  136.6396  159.4247 H   0  0  0  0  0  0  0  0  0  0  0  0
  156.0264  137.9025  160.3267 H   0  0  0  0  0  0  0  0  0  0  0  0
  155.9229  137.6007  163.0277 H   0  0  0  0  0  0  0  0  0  0  0  0
  154.2287  138.0465  162.7654 H   0  0  0  0  0  0  0  0  0  0  0  0
  155.6577  134.0967  163.2256 H   0  0  0  0  0  0  0  0  0  0  0  0
  153.9152  133.8908  162.9771 H   0  0  0  0  0  0  0  0  0  0  0  0
  155.1765  139.8483  160.1832 H   0  0  0  0  0  0  0  0  0  0  0  0
  153.1210  140.8033  158.7416 H   0  0  0  0  0  0  0  0  0  0  0  0
  152.2776  140.2941  160.1862 H   0  0  0  0  0  0  0  0  0  0  0  0
  153.6167  141.8007  161.6031 H   0  0  0  0  0  0  0  0  0  0  0  0
  154.6947  142.1805  160.2836 H   0  0  0  0  0  0  0  0  0  0  0  0
  152.2104  143.6713  162.1516 H   0  0  0  0  0  0  0  0  0  0  0  0
  150.7916  145.5846  161.3955 H   0  0  0  0  0  0  0  0  0  0  0  0
  150.5887  146.0684  158.9470 H   0  0  0  0  0  0  0  0  0  0  0  0
  151.8571  144.5656  157.3028 H   0  0  0  0  0  0  0  0  0  0  0  0
  153.1336  142.8254  158.1377 H   0  0  0  0  0  0  0  0  0  0  0  0
  1  2  2  0  0  0  0
  2  3  1  0  0  0  0
  2 10  1  0  0  0  0
  3  4  1  0  0  0  0
  3 19  1  0  0  0  0
  3 20  1  0  0  0  0
  4  8  1  0  0  0  0
  4  5  1  0  0  0  0
  5  6  1  0  0  0  0
  5 21  1  0  0  0  0
  5 22  1  0  0  0  0
  6  7  1  0  0  0  0
  7  8  1  0  0  0  0
  7 23  1  0  0  0  0
  7 24  1  0  0  0  0
  8  9  2  0  0  0  0
 10 11  1  0  0  0  0
 10 25  1  0  0  0  0
 11 12  1  0  0  0  0
 11 26  1  0  0  0  0
 11 27  1  0  0  0  0
 12 13  1  0  0  0  0
 12 28  1  0  0  0  0
 12 29  1  0  0  0  0
 13 18  1  0  0  0  0
 13 14  2  0  0  0  0
 14 15  1  0  0  0  0
 14 30  1  0  0  0  0
 15 16  2  0  0  0  0
 15 31  1  0  0  0  0
 16 17  1  0  0  0  0
 16 32  1  0  0  0  0
 17 18  2  0  0  0  0
 17 33  1  0  0  0  0
 18 34  1  0  0  0  0
M  CHG  1  18   1
M  END
> <s_m_source_file>
AV-unprocessed.smi

> <i_m_source_file_index>
1970

> <i_lp_mmshare_version>
43012

> <i_f3d_flags>
0

> <s_epik_input>
Tz1DMVtDSDJdU1tDSDJdTjFbQ0gyXUMoPU8pW05IXVtDSDJdW0NIMl1jMltjSF1bY0hdW2NIXVtjSF1uMg==

> <s_epik_cmdline>
J2VwaWtfcHl0aG9uJywgJy1waCcsICc3LjAnLCAnLXRuJywgJzgnLCAnLW1hJywgJzIwMCcsICctbWV0YWxfYmluZGluZycsICctaW1hZScsICc8aW5maWxlLm1hZT4nLCAnLW9tYWUnLCAnPG91dGZpbGUubWFlPic=

> <r_epik_Ionization_Penalty>
1.87519

> <r_epik_Ionization_Penalty_Charging>
1.87519

> <r_epik_Ionization_Penalty_Neutral>
8.746e-08

> <r_epik_State_Penalty>
1.99452

> <r_epik_Charging_Adjusted_Penalty>
3.86972

> <i_epik_Tot_Q>
1

> <i_epik_Tot_abs_Q>
1

> <r_epik_Metal_State_Penalty>
2.01927

> <b_epik_Metal_Only>
0

> <s_epik_Chemistry_Notes>
This compound contains an acetal/aminal-like group ( X-CH(R)-Y where X, Y are N, S, or O) that may be acid/base labile, releasing an aldehyde.

> <s_lp_Force_Field>
OPLS_2005

> <r_lp_Energy>
10.5607

> <b_lp_Chiralities_Consistent>
1

> <s_lp_Variant>
AV-unprocessed.smi:1970-2

> <Gold.Version>
5.8.1

> <Gold.Id.Protein>
6NUR|6NUR_protein|mol2

> <Gold.PLP.Fitness>
44.1191

> <Gold.PLP.PLP>
-42.9888

> <Gold.PLP.part.hbond>
-0.6508

> <Gold.PLP.part.metal>
0.0000

> <Gold.PLP.part.buried>
-5.0704

> <Gold.PLP.part.nonpolar>
-37.4499

> <Gold.PLP.part.repulsive>
0.0871

> <Gold.PLP.ligand.clash>
0.0000

> <Gold.PLP.ligand.torsion>
0.2450

> <Gold.PLP.Chemscore.Hbond>
0.5363

> <Gold.PLP.Chemscore.CHOScore>
0.0000

> <Gold.PLP.Chemscore.Metal>
0.0000

> <Gold.Chemscore.Hbonds>
donor molecule, donor type, donor heavy atom, donor atom, acceptor molecule, acceptor atom, score
      P1  H  6896  6909       L1     9  0.03

> <Gold.PLP.Chemscore.Internal.Correction>
0.0115

> <Gold.Rescore>
     Score         DG    S(hbond)    S(metal)    S(lipo)     H(rot)  DE(clash)    DE(int)     intcor
     15.28     -16.01       0.79        0.00     111.87       2.03       0.43       0.31       ----

> <Gold.Chemscore.Fitness>
15.2753

> <Gold.Chemscore.DG>
-16.0147

> <Gold.Chemscore.ZeroCoef>
-5.4800

> <Gold.Chemscore.Hbond>
0.7912

> <Gold.Chemscore.Metal>
0.0000

> <Gold.Chemscore.Lipo>
111.8712

> <Gold.Chemscore.Internal_Hbond>
0.0000

> <Gold.Chemscore.DEClash>
0.4277

> <Gold.Chemscore.DEInternal>
0.3116

> <Gold.Chemscore.Rot>
2.0300

> <Gold.Chemscore.Internal.Correction>
   9.000000E+99

> <Gold.Chemscore.Hbonds>
donor molecule, donor type, donor heavy atom, donor atom, acceptor molecule, acceptor atom, score
      P1  H  6896  6909       L1     9  0.03

> <Gold.Chemscore.Hbond.Weighted>
-2.6425

> <Gold.Chemscore.Metal.Weighted>
-0.0000

> <Gold.Chemscore.Lipo.Weighted>
-13.0889

> <Gold.Chemscore.Internal_Hbond.Weighted>
0.0000

> <Gold.Chemscore.DEClash.Weighted>
0.4277

> <Gold.Chemscore.DEInternal.Weighted>
0.3116

> <Gold.Chemscore.Rot.Weighted>
5.1967

> <Gold.Chemscore.Internal.Correction.Weighted>
   9.000000E+99

> <Gold.Protein.RotatedTorsions>
[ 6907 6896 6895 6894 ] final -154.82 input  -60.11 | X-H torsion
[ 7974 7965 7964 7962 ] final   48.65 input  175.53 | X-H torsion
[ 8008 7997 7996 7995 ] final  -89.37 input   59.86 | X-H torsion
[ 10167 10162 10161 10158 ] final -105.72 input  -65.29 | X-H torsion
[ 10718 10713 10712 10709 ] final -158.51 input   66.30 | X-H torsion
[ 10763 10752 10751 10750 ] final -165.59 input  -60.55 | X-H torsion
[ 11005 11000 10999 10996 ] final  176.31 input  -57.11 | X-H torsion

> <Gold.Protein.ActiveResidues>
 VAL166  LYS551  ARG553  GLY616  TRP617  ASP618  TYR619  PRO620  LYS621  CYS622 
 ASP623  PHE694  ASN695  SER759  ASP760  ASP761  ALA762  ILE779  LEU786  VAL792 
 PHE793  MET794  SER795  GLU796  ALA797  LYS798  CYS799  TRP800  GLU811  SER814 

> <Gold.Protein.RotatedAtoms>
  151.2633  133.4291  159.2617 H   0  0  0  0  0  0  0  0  0  0  0  0  # atno 6907 bound_to 6896
  151.0511  134.9674  159.8222 H   0  0  0  0  0  0  0  0  0  0  0  0  # atno 6908 bound_to 6896
  152.5383  134.2587  159.8979 H   0  0  0  0  0  0  0  0  0  0  0  0  # atno 6909 bound_to 6896
  146.0184  139.4623  142.9912 H   0  0  0  0  0  0  0  0  0  0  0  0  # atno 7974 bound_to 7965
  154.6858  140.0542  157.0312 H   0  0  0  0  0  0  0  0  0  0  0  0  # atno 8008 bound_to 7997
  155.0887  140.3217  155.4561 H   0  0  0  0  0  0  0  0  0  0  0  0  # atno 8009 bound_to 7997
  156.2710  140.2052  156.6014 H   0  0  0  0  0  0  0  0  0  0  0  0  # atno 8010 bound_to 7997
  140.1954  143.3859  152.1172 H   0  0  0  0  0  0  0  0  0  0  0  0  # atno 10167 bound_to 10162
  156.5552  130.8623  151.2792 H   0  0  0  0  0  0  0  0  0  0  0  0  # atno 10718 bound_to 10713
  154.6917  135.2972  154.9470 H   0  0  0  0  0  0  0  0  0  0  0  0  # atno 10763 bound_to 10752
  154.0431  135.6654  153.4796 H   0  0  0  0  0  0  0  0  0  0  0  0  # atno 10764 bound_to 10752
  153.0617  135.5112  154.8013 H   0  0  0  0  0  0  0  0  0  0  0  0  # atno 10765 bound_to 10752
  140.3717  134.7024  157.4396 H   0  0  0  0  0  0  0  0  0  0  0  0  # atno 11005 bound_to 11000
  145.7232  141.0068  143.1391 LP  0  0  0  0  0  0  0  0  0  0  0  0  # atno 17320 bound_to 7965
  144.6980  139.8895  143.7452 LP  0  0  0  0  0  0  0  0  0  0  0  0  # atno 17321 bound_to 7965
  139.5238  144.7076  151.5305 LP  0  0  0  0  0  0  0  0  0  0  0  0  # atno 17342 bound_to 10162
  140.6427  143.8857  150.6707 LP  0  0  0  0  0  0  0  0  0  0  0  0  # atno 17343 bound_to 10162
  157.7380  130.9805  150.2224 LP  0  0  0  0  0  0  0  0  0  0  0  0  # atno 17370 bound_to 10713
  156.2849  130.3738  149.7899 LP  0  0  0  0  0  0  0  0  0  0  0  0  # atno 17371 bound_to 10713
  140.0547  134.6081  155.8820 LP  0  0  0  0  0  0  0  0  0  0  0  0  # atno 17394 bound_to 11000
  141.1952  133.6586  156.5633 LP  0  0  0  0  0  0  0  0  0  0  0  0  # atno 17395 bound_to 11000

$$$$
