AV-unprocessed.smi:1503|AV-procd|sdf|6068|dock3
  -GOLD-   22720 6183D 1   1.00000     0.00000
 Structure written by MMmdl.
 44 45  0  0  0  0  0  0  0  0  1 V2000
  145.2605  133.6936  151.2929 C   0  0  0  0  0  0  0  0  0  0  0  0
  145.7519  134.7237  151.9979 C   0  0  0  0  0  0  0  0  0  0  0  0
  145.4995  136.1836  151.6754 C   0  0  0  0  0  0  0  0  0  0  0  0
  146.1971  137.0648  152.6040 N   0  0  0  0  0  0  0  0  0  0  0  0
  146.9726  138.1027  152.2533 C   0  0  0  0  0  0  0  0  0  0  0  0
  147.1875  138.4191  151.0828 O   0  0  0  0  0  0  0  0  0  0  0  0
  147.5983  138.8973  153.4032 C   0  0  0  0  0  0  0  0  0  0  0  0
  149.1365  138.9460  153.3354 C   0  0  0  0  0  0  0  0  0  0  0  0
  149.7370  139.7399  154.4924 C   0  0  0  0  0  0  0  0  0  0  0  0
  150.4146  139.1604  155.5225 C   0  0  0  0  0  0  0  0  0  0  0  0
  150.6591  137.6643  155.6124 C   0  0  0  0  0  0  0  0  0  0  0  0
  150.9397  139.9243  156.5723 N   0  0  0  0  0  0  0  0  0  0  0  0
  150.7901  141.2118  156.5829 C   0  0  0  0  0  0  0  0  0  0  0  0
  151.2580  142.0819  157.5702 N   0  0  0  0  0  0  0  0  0  0  0  0
  151.6055  143.4730  157.2684 C   0  0  0  0  0  0  0  0  0  0  0  0
  151.5495  144.3497  158.5305 C   0  0  0  0  0  0  0  0  0  0  0  0
  152.3918  143.7996  159.5340 O   0  0  0  0  0  0  0  0  0  0  0  0
  151.9676  142.4964  159.9094 C   0  0  0  0  0  0  0  0  0  0  0  0
  152.0360  141.5581  158.6927 C   0  0  0  0  0  0  0  0  0  0  0  0
  150.0927  141.8455  155.5486 N   0  0  0  0  0  0  0  0  0  0  0  0
  149.5511  141.1998  154.4923 C   0  0  0  0  0  0  0  0  0  0  0  0
  148.9582  141.8272  153.6158 O   0  0  0  0  0  0  0  0  0  0  0  0
  149.9832  142.8482  155.5856 H   0  0  0  0  0  0  0  0  0  0  0  0
  144.6390  133.8534  150.4239 H   0  0  0  0  0  0  0  0  0  0  0  0
  145.4747  132.6741  151.5780 H   0  0  0  0  0  0  0  0  0  0  0  0
  146.3662  134.5227  152.8639 H   0  0  0  0  0  0  0  0  0  0  0  0
  145.8356  136.4065  150.6623 H   0  0  0  0  0  0  0  0  0  0  0  0
  144.4262  136.3775  151.7021 H   0  0  0  0  0  0  0  0  0  0  0  0
  146.0772  136.8750  153.5885 H   0  0  0  0  0  0  0  0  0  0  0  0
  147.2016  139.9138  153.3952 H   0  0  0  0  0  0  0  0  0  0  0  0
  147.2787  138.4453  154.3427 H   0  0  0  0  0  0  0  0  0  0  0  0
  149.5505  137.9363  153.3420 H   0  0  0  0  0  0  0  0  0  0  0  0
  149.4497  139.3747  152.3834 H   0  0  0  0  0  0  0  0  0  0  0  0
  151.1056  137.2905  154.6907 H   0  0  0  0  0  0  0  0  0  0  0  0
  149.7212  137.1358  155.7843 H   0  0  0  0  0  0  0  0  0  0  0  0
  151.3366  137.4225  156.4323 H   0  0  0  0  0  0  0  0  0  0  0  0
  152.6118  143.4955  156.8482 H   0  0  0  0  0  0  0  0  0  0  0  0
  150.9447  143.9028  156.5156 H   0  0  0  0  0  0  0  0  0  0  0  0
  151.8875  145.3600  158.2997 H   0  0  0  0  0  0  0  0  0  0  0  0
  150.5262  144.4335  158.9004 H   0  0  0  0  0  0  0  0  0  0  0  0
  152.6166  142.1281  160.7038 H   0  0  0  0  0  0  0  0  0  0  0  0
  150.9558  142.5324  160.3161 H   0  0  0  0  0  0  0  0  0  0  0  0
  151.6714  140.5722  158.9848 H   0  0  0  0  0  0  0  0  0  0  0  0
  153.0722  141.4329  158.3757 H   0  0  0  0  0  0  0  0  0  0  0  0
  1  2  2  0  0  0  0
  1 24  1  0  0  0  0
  1 25  1  0  0  0  0
  2  3  1  0  0  0  0
  2 26  1  0  0  0  0
  3  4  1  0  0  0  0
  3 27  1  0  0  0  0
  3 28  1  0  0  0  0
  4  5  1  0  0  0  0
  4 29  1  0  0  0  0
  5  6  2  0  0  0  0
  5  7  1  0  0  0  0
  7  8  1  0  0  0  0
  7 30  1  0  0  0  0
  7 31  1  0  0  0  0
  8  9  1  0  0  0  0
  8 32  1  0  0  0  0
  8 33  1  0  0  0  0
  9 21  1  0  0  0  0
  9 10  2  0  0  0  0
 10 11  1  0  0  0  0
 10 12  1  0  0  0  0
 11 34  1  0  0  0  0
 11 35  1  0  0  0  0
 11 36  1  0  0  0  0
 12 13  2  0  0  0  0
 13 14  1  0  0  0  0
 13 20  1  0  0  0  0
 14 19  1  0  0  0  0
 14 15  1  0  0  0  0
 15 16  1  0  0  0  0
 15 37  1  0  0  0  0
 15 38  1  0  0  0  0
 16 17  1  0  0  0  0
 16 39  1  0  0  0  0
 16 40  1  0  0  0  0
 17 18  1  0  0  0  0
 18 19  1  0  0  0  0
 18 41  1  0  0  0  0
 18 42  1  0  0  0  0
 19 43  1  0  0  0  0
 19 44  1  0  0  0  0
 20 23  1  0  0  0  0
 20 21  1  0  0  0  0
 21 22  2  0  0  0  0
M  END
> <s_m_source_file>
AV-unprocessed.smi

> <i_m_source_file_index>
1503

> <i_lp_mmshare_version>
43012

> <i_f3d_flags>
0

> <s_epik_input>
W0NIMl09W0NIXVtDSDJdW05IXUMoPU8pW0NIMl1bQ0gyXWMxYyhbQ0gzXSluYyhbbkhdYzE9TylOMltDSDJdW0NIMl1PW0NIMl1bQ0gyXTI=

> <s_epik_cmdline>
J2VwaWtfcHl0aG9uJywgJy1waCcsICc3LjAnLCAnLXRuJywgJzgnLCAnLW1hJywgJzIwMCcsICctbWV0YWxfYmluZGluZycsICctaW1hZScsICc8aW5maWxlLm1hZT4nLCAnLW9tYWUnLCAnPG91dGZpbGUubWFlPic=

> <r_lp_tautomer_probability>
0.878553

> <r_epik_Ionization_Penalty>
0.00125265

> <r_epik_Ionization_Penalty_Charging>
0.00122759

> <r_epik_Ionization_Penalty_Neutral>
2.50575e-05

> <r_epik_State_Penalty>
0.0426914

> <r_epik_Charging_Adjusted_Penalty>
0.043919

> <i_epik_Tot_Q>
0

> <i_epik_Tot_abs_Q>
0

> <r_epik_Metal_State_Penalty>
1.02948

> <b_epik_Metal_Only>
0

> <s_lp_Force_Field>
OPLS_2005

> <r_lp_Energy>
21.7502

> <b_lp_Chiralities_Consistent>
1

> <s_lp_Variant>
AV-unprocessed.smi:1503-1

> <Gold.Version>
5.8.1

> <Gold.Id.Protein>
6NUR|6NUR_protein|mol2

> <Gold.PLP.Fitness>
46.1443

> <Gold.PLP.PLP>
-39.5790

> <Gold.PLP.part.hbond>
-4.0000

> <Gold.PLP.part.metal>
0.0000

> <Gold.PLP.part.buried>
1.7766

> <Gold.PLP.part.nonpolar>
-38.6769

> <Gold.PLP.part.repulsive>
1.3482

> <Gold.PLP.ligand.clash>
0.0000

> <Gold.PLP.ligand.torsion>
0.3471

> <Gold.PLP.Chemscore.Hbond>
2.3316

> <Gold.PLP.Chemscore.CHOScore>
0.0000

> <Gold.PLP.Chemscore.Metal>
0.0000

> <Gold.Chemscore.Hbonds>
donor molecule, donor type, donor heavy atom, donor atom, acceptor molecule, acceptor atom, score
      L1  H    20    23       P1  8028  0.65
      P1  H  7954  7966       L1     6  1.00
      P1  H  8011  8017       L1    22  0.59

> <Gold.PLP.Chemscore.Internal.Correction>
0.2647

> <Gold.Rescore>
     Score         DG    S(hbond)    S(metal)    S(lipo)     H(rot)  DE(clash)    DE(int)     intcor
     14.59     -18.40       2.05        0.00      93.86       1.92       3.31       0.50       ----

> <Gold.Chemscore.Fitness>
14.5930

> <Gold.Chemscore.DG>
-18.3950

> <Gold.Chemscore.ZeroCoef>
-5.4800

> <Gold.Chemscore.Hbond>
2.0495

> <Gold.Chemscore.Metal>
0.0000

> <Gold.Chemscore.Lipo>
93.8595

> <Gold.Chemscore.Internal_Hbond>
0.0000

> <Gold.Chemscore.DEClash>
3.3061

> <Gold.Chemscore.DEInternal>
0.4959

> <Gold.Chemscore.Rot>
1.9187

> <Gold.Chemscore.Internal.Correction>
   9.000000E+99

> <Gold.Chemscore.Hbonds>
donor molecule, donor type, donor heavy atom, donor atom, acceptor molecule, acceptor atom, score
      L1  H    20    23       P1  8028  0.64
      P1  H  7954  7966       L1     6  0.98
      P1  H  8011  8017       L1    22  0.58

> <Gold.Chemscore.Hbond.Weighted>
-6.8454

> <Gold.Chemscore.Metal.Weighted>
-0.0000

> <Gold.Chemscore.Lipo.Weighted>
-10.9816

> <Gold.Chemscore.Internal_Hbond.Weighted>
0.0000

> <Gold.Chemscore.DEClash.Weighted>
3.3061

> <Gold.Chemscore.DEInternal.Weighted>
0.4959

> <Gold.Chemscore.Rot.Weighted>
4.9119

> <Gold.Chemscore.Internal.Correction.Weighted>
   9.000000E+99

> <Gold.Protein.RotatedTorsions>
[ 6907 6896 6895 6894 ] final  111.15 input  -60.11 | X-H torsion
[ 7974 7965 7964 7962 ] final  161.79 input  175.53 | X-H torsion
[ 8008 7997 7996 7995 ] final  -66.31 input   59.86 | X-H torsion
[ 10167 10162 10161 10158 ] final  -96.79 input  -65.29 | X-H torsion
[ 10718 10713 10712 10709 ] final  123.50 input   66.30 | X-H torsion
[ 10763 10752 10751 10750 ] final  -65.56 input  -60.55 | X-H torsion
[ 11005 11000 10999 10996 ] final -147.18 input  -57.11 | X-H torsion

> <Gold.Protein.ActiveResidues>
 VAL166  LYS551  ARG553  GLY616  TRP617  ASP618  TYR619  PRO620  LYS621  CYS622 
 ASP623  PHE694  ASN695  SER759  ASP760  ASP761  ALA762  ILE779  LEU786  VAL792 
 PHE793  MET794  SER795  GLU796  ALA797  LYS798  CYS799  TRP800  GLU811  SER814 

> <Gold.Protein.RotatedAtoms>
  152.4984  133.8699  159.7292 H   0  0  0  0  0  0  0  0  0  0  0  0  # atno 6907 bound_to 6896
  150.9188  133.6897  159.2843 H   0  0  0  0  0  0  0  0  0  0  0  0  # atno 6908 bound_to 6896
  151.4281  135.1010  159.9686 H   0  0  0  0  0  0  0  0  0  0  0  0  # atno 6909 bound_to 6896
  144.7668  139.7947  143.6312 H   0  0  0  0  0  0  0  0  0  0  0  0  # atno 7974 bound_to 7965
  154.4726  140.0915  156.7183 H   0  0  0  0  0  0  0  0  0  0  0  0  # atno 8008 bound_to 7997
  155.4682  140.3463  155.4303 H   0  0  0  0  0  0  0  0  0  0  0  0  # atno 8009 bound_to 7997
  156.1065  140.1436  156.9386 H   0  0  0  0  0  0  0  0  0  0  0  0  # atno 8010 bound_to 7997
  140.2902  143.3226  152.0353 H   0  0  0  0  0  0  0  0  0  0  0  0  # atno 10167 bound_to 10162
  157.5660  131.1086  150.8454 H   0  0  0  0  0  0  0  0  0  0  0  0  # atno 10718 bound_to 10713
  154.3469  135.6145  153.5623 H   0  0  0  0  0  0  0  0  0  0  0  0  # atno 10763 bound_to 10752
  152.9800  135.5783  154.4789 H   0  0  0  0  0  0  0  0  0  0  0  0  # atno 10764 bound_to 10752
  154.4503  135.2852  155.1763 H   0  0  0  0  0  0  0  0  0  0  0  0  # atno 10765 bound_to 10752
  140.7743  134.3153  157.5065 H   0  0  0  0  0  0  0  0  0  0  0  0  # atno 11005 bound_to 11000
  146.1783  139.4963  142.9883 LP  0  0  0  0  0  0  0  0  0  0  0  0  # atno 17320 bound_to 7965
  145.6444  141.0277  143.1794 LP  0  0  0  0  0  0  0  0  0  0  0  0  # atno 17321 bound_to 7965
  139.4940  144.6530  151.6634 LP  0  0  0  0  0  0  0  0  0  0  0  0  # atno 17342 bound_to 10162
  140.5739  144.0063  150.6231 LP  0  0  0  0  0  0  0  0  0  0  0  0  # atno 17343 bound_to 10162
  156.8939  130.5222  149.5285 LP  0  0  0  0  0  0  0  0  0  0  0  0  # atno 17370 bound_to 10713
  156.0708  130.5741  150.9379 LP  0  0  0  0  0  0  0  0  0  0  0  0  # atno 17371 bound_to 10713
  139.8751  134.9280  156.3439 LP  0  0  0  0  0  0  0  0  0  0  0  0  # atno 17394 bound_to 11000
  140.9544  133.7430  156.0315 LP  0  0  0  0  0  0  0  0  0  0  0  0  # atno 17395 bound_to 11000

$$$$
