AV-unprocessed.smi:3164|AV-procd|sdf|12084|dock7
  -GOLD-   2272017513D 1   1.00000     0.00000
 Structure written by MMmdl.
 39 40  0  0  0  0  0  0  0  0  2 V2000
  144.8445  133.9149  150.4189 C   0  0  0  0  0  0  0  0  0  0  0  0
  145.0588  134.6785  151.6391 N   0  0  0  0  0  0  0  0  0  0  0  0
  143.8389  134.7798  152.4295 C   0  0  0  0  0  0  0  0  0  0  0  0
  144.0604  135.5984  153.7124 C   0  0  0  0  0  0  0  0  0  0  0  0
  144.5763  136.8830  153.3748 O   0  0  0  0  0  0  0  0  0  0  0  0
  145.8025  136.8236  152.6499 C   0  0  2  0  0  0  0  0  0  0  0  0
  146.2572  138.2648  152.3754 C   0  0  0  0  0  0  0  0  0  0  0  0
  147.6763  138.4614  152.7323 N   0  3  0  0  0  0  0  0  0  0  0  0
  147.9105  138.6784  154.1743 C   0  0  0  0  0  0  0  0  0  0  0  0
  148.8069  139.9015  154.4254 C   0  0  0  0  0  0  0  0  0  0  0  0
  150.2850  139.5549  154.4685 C   0  0  0  0  0  0  0  0  0  0  0  0
  150.8337  138.6182  153.5662 C   0  0  0  0  0  0  0  0  0  0  0  0
  152.2096  138.3295  153.6534 C   0  0  0  0  0  0  0  0  0  0  0  0
  152.9785  138.9829  154.6357 C   0  0  0  0  0  0  0  0  0  0  0  0
  152.3357  139.9009  155.4898 C   0  0  0  0  0  0  0  0  0  0  0  0
  151.0171  140.1843  155.4146 N   0  0  0  0  0  0  0  0  0  0  0  0
  145.5714  136.0124  151.3569 C   0  0  0  0  0  0  0  0  0  0  0  0
  144.4946  132.9082  150.6501 H   0  0  0  0  0  0  0  0  0  0  0  0
  145.7719  133.8216  149.8530 H   0  0  0  0  0  0  0  0  0  0  0  0
  144.1023  134.3937  149.7785 H   0  0  0  0  0  0  0  0  0  0  0  0
  143.0515  135.2479  151.8364 H   0  0  0  0  0  0  0  0  0  0  0  0
  143.4820  133.7830  152.6911 H   0  0  0  0  0  0  0  0  0  0  0  0
  143.1208  135.7211  154.2512 H   0  0  0  0  0  0  0  0  0  0  0  0
  144.7511  135.0860  154.3838 H   0  0  0  0  0  0  0  0  0  0  0  0
  146.5481  136.3258  153.2733 H   0  0  0  0  0  0  0  0  0  0  0  0
  146.0968  138.5220  151.3274 H   0  0  0  0  0  0  0  0  0  0  0  0
  145.6551  138.9542  152.9689 H   0  0  0  0  0  0  0  0  0  0  0  0
  148.1942  137.6423  152.4461 H   0  0  0  0  0  0  0  0  0  0  0  0
  146.9508  138.8201  154.6723 H   0  0  0  0  0  0  0  0  0  0  0  0
  148.3656  137.7860  154.6064 H   0  0  0  0  0  0  0  0  0  0  0  0
  148.6324  140.6549  153.6560 H   0  0  0  0  0  0  0  0  0  0  0  0
  148.5310  140.3680  155.3720 H   0  0  0  0  0  0  0  0  0  0  0  0
  150.2193  138.1324  152.8223 H   0  0  0  0  0  0  0  0  0  0  0  0
  152.6667  137.6199  152.9796 H   0  0  0  0  0  0  0  0  0  0  0  0
  154.0364  138.7868  154.7314 H   0  0  0  0  0  0  0  0  0  0  0  0
  152.8946  140.4205  156.2541 H   0  0  0  0  0  0  0  0  0  0  0  0
  146.5065  135.9328  150.8013 H   0  0  0  0  0  0  0  0  0  0  0  0
  144.8709  136.5467  150.7128 H   0  0  0  0  0  0  0  0  0  0  0  0
  148.0291  139.2605  152.2253 H   0  0  0  0  0  0  0  0  0  0  0  0
  1  2  1  0  0  0  0
  1 18  1  0  0  0  0
  1 19  1  0  0  0  0
  1 20  1  0  0  0  0
  2 17  1  0  0  0  0
  2  3  1  0  0  0  0
  3  4  1  0  0  0  0
  3 21  1  0  0  0  0
  3 22  1  0  0  0  0
  4  5  1  0  0  0  0
  4 23  1  0  0  0  0
  4 24  1  0  0  0  0
  5  6  1  0  0  0  0
  6  7  1  0  0  0  0
  6 17  1  0  0  0  0
  6 25  1  0  0  0  0
  7  8  1  0  0  0  0
  7 26  1  0  0  0  0
  7 27  1  0  0  0  0
  8  9  1  0  0  0  0
  8 28  1  0  0  0  0
  8 39  1  0  0  0  0
  9 10  1  0  0  0  0
  9 29  1  0  0  0  0
  9 30  1  0  0  0  0
 10 11  1  0  0  0  0
 10 31  1  0  0  0  0
 10 32  1  0  0  0  0
 11 16  1  0  0  0  0
 11 12  2  0  0  0  0
 12 13  1  0  0  0  0
 12 33  1  0  0  0  0
 13 14  2  0  0  0  0
 13 34  1  0  0  0  0
 14 15  1  0  0  0  0
 14 35  1  0  0  0  0
 15 16  2  0  0  0  0
 15 36  1  0  0  0  0
 17 37  1  0  0  0  0
 17 38  1  0  0  0  0
M  CHG  1   8   1
M  END
> <s_m_source_file>
AV-unprocessed.smi

> <i_m_source_file_index>
3164

> <i_lp_mmshare_version>
43012

> <i_f3d_flags>
0

> <s_epik_input>
W0NIM11OMVtDSDJdW0NIMl1PW0NASF0oW0NIMl0xKVtDSDJdW05IXVtDSDJdW0NIMl1jMltjSF1bY0hdW2NIXVtjSF1uMg==

> <s_epik_cmdline>
J2VwaWtfcHl0aG9uJywgJy1waCcsICc3LjAnLCAnLXRuJywgJzgnLCAnLW1hJywgJzIwMCcsICctbWV0YWxfYmluZGluZycsICctaW1hZScsICc8aW5maWxlLm1hZT4nLCAnLW9tYWUnLCAnPG91dGZpbGUubWFlPic=

> <r_epik_Ionization_Penalty>
0.584284

> <r_epik_Ionization_Penalty_Charging>
0.00270218

> <r_epik_Ionization_Penalty_Neutral>
0.581582

> <r_epik_State_Penalty>
0.593163

> <r_epik_Charging_Adjusted_Penalty>
0.595865

> <i_epik_Tot_Q>
1

> <i_epik_Tot_abs_Q>
1

> <r_epik_Metal_State_Penalty>
0.593163

> <b_epik_Metal_Only>
0

> <s_lp_Force_Field>
OPLS_2005

> <r_lp_Energy>
23.4824

> <b_lp_Chiralities_Consistent>
1

> <s_lp_Variant>
AV-unprocessed.smi:3164-6

> <Gold.Version>
5.8.1

> <Gold.Id.Protein>
6NUR|6NUR_protein|mol2

> <Gold.PLP.Fitness>
41.0219

> <Gold.PLP.PLP>
-35.1846

> <Gold.PLP.part.hbond>
-2.6381

> <Gold.PLP.part.metal>
0.0000

> <Gold.PLP.part.buried>
-3.2887

> <Gold.PLP.part.nonpolar>
-30.7057

> <Gold.PLP.part.repulsive>
1.1497

> <Gold.PLP.ligand.clash>
0.0000

> <Gold.PLP.ligand.torsion>
1.5963

> <Gold.PLP.Chemscore.Hbond>
3.0000

> <Gold.PLP.Chemscore.CHOScore>
0.0000

> <Gold.PLP.Chemscore.Metal>
0.0000

> <Gold.Chemscore.Hbonds>
donor molecule, donor type, donor heavy atom, donor atom, acceptor molecule, acceptor atom, score
      L1  H     8    28       P1  7948  2.00
      L1  H     8    39       P1  7957  0.90

> <Gold.PLP.Chemscore.Internal.Correction>
0.0299

> <Gold.Rescore>
     Score         DG    S(hbond)    S(metal)    S(lipo)     H(rot)  DE(clash)    DE(int)     intcor
     15.91     -17.62       1.95        0.00      82.43       1.57       0.21       1.49       ----

> <Gold.Chemscore.Fitness>
15.9130

> <Gold.Chemscore.DG>
-17.6167

> <Gold.Chemscore.ZeroCoef>
-5.4800

> <Gold.Chemscore.Hbond>
1.9516

> <Gold.Chemscore.Metal>
0.0000

> <Gold.Chemscore.Lipo>
82.4280

> <Gold.Chemscore.Internal_Hbond>
0.0000

> <Gold.Chemscore.DEClash>
0.2129

> <Gold.Chemscore.DEInternal>
1.4908

> <Gold.Chemscore.Rot>
1.5726

> <Gold.Chemscore.Internal.Correction>
   9.000000E+99

> <Gold.Chemscore.Hbonds>
donor molecule, donor type, donor heavy atom, donor atom, acceptor molecule, acceptor atom, score
      L1  H     8    28       P1  7948  1.00
      L1  H     8    39       P1  7957  0.83

> <Gold.Chemscore.Hbond.Weighted>
-6.5185

> <Gold.Chemscore.Metal.Weighted>
-0.0000

> <Gold.Chemscore.Lipo.Weighted>
-9.6441

> <Gold.Chemscore.Internal_Hbond.Weighted>
0.0000

> <Gold.Chemscore.DEClash.Weighted>
0.2129

> <Gold.Chemscore.DEInternal.Weighted>
1.4908

> <Gold.Chemscore.Rot.Weighted>
4.0259

> <Gold.Chemscore.Internal.Correction.Weighted>
   9.000000E+99

> <Gold.Protein.RotatedTorsions>
[ 6907 6896 6895 6894 ] final  141.95 input  -60.11 | X-H torsion
[ 7974 7965 7964 7962 ] final   81.39 input  175.53 | X-H torsion
[ 8008 7997 7996 7995 ] final   67.90 input   59.86 | X-H torsion
[ 10167 10162 10161 10158 ] final  -94.04 input  -65.29 | X-H torsion
[ 10718 10713 10712 10709 ] final  -46.78 input   66.30 | X-H torsion
[ 10763 10752 10751 10750 ] final  -25.57 input  -60.55 | X-H torsion
[ 11005 11000 10999 10996 ] final  -48.68 input  -57.11 | X-H torsion

> <Gold.Protein.ActiveResidues>
 VAL166  LYS551  ARG553  GLY616  TRP617  ASP618  TYR619  PRO620  LYS621  CYS622 
 ASP623  PHE694  ASN695  SER759  ASP760  ASP761  ALA762  ILE779  LEU786  VAL792 
 PHE793  MET794  SER795  GLU796  ALA797  LYS798  CYS799  TRP800  GLU811  SER814 

> <Gold.Protein.RotatedAtoms>
  152.2247  133.5011  159.5181 H   0  0  0  0  0  0  0  0  0  0  0  0  # atno 6907 bound_to 6896
  150.7022  134.1296  159.4074 H   0  0  0  0  0  0  0  0  0  0  0  0  # atno 6908 bound_to 6896
  151.9217  135.0295  160.0573 H   0  0  0  0  0  0  0  0  0  0  0  0  # atno 6909 bound_to 6896
  145.6388  139.2421  143.2042 H   0  0  0  0  0  0  0  0  0  0  0  0  # atno 7974 bound_to 7965
  155.7001  140.3495  155.4929 H   0  0  0  0  0  0  0  0  0  0  0  0  # atno 8008 bound_to 7997
  155.9448  140.1108  157.1048 H   0  0  0  0  0  0  0  0  0  0  0  0  # atno 8009 bound_to 7997
  154.4110  140.1205  156.4961 H   0  0  0  0  0  0  0  0  0  0  0  0  # atno 8010 bound_to 7997
  140.3185  143.3063  152.0072 H   0  0  0  0  0  0  0  0  0  0  0  0  # atno 10167 bound_to 10162
  156.2149  130.4163  149.9066 H   0  0  0  0  0  0  0  0  0  0  0  0  # atno 10718 bound_to 10713
  153.7020  135.6956  153.5060 H   0  0  0  0  0  0  0  0  0  0  0  0  # atno 10763 bound_to 10752
  153.2335  135.4329  155.0620 H   0  0  0  0  0  0  0  0  0  0  0  0  # atno 10764 bound_to 10752
  154.8341  135.3490  154.6559 H   0  0  0  0  0  0  0  0  0  0  0  0  # atno 10765 bound_to 10752
  141.0715  133.6678  156.3476 H   0  0  0  0  0  0  0  0  0  0  0  0  # atno 11005 bound_to 11000
  146.1297  140.7201  142.9418 LP  0  0  0  0  0  0  0  0  0  0  0  0  # atno 17320 bound_to 7965
  144.7165  140.4228  143.7040 LP  0  0  0  0  0  0  0  0  0  0  0  0  # atno 17321 bound_to 7965
  139.4879  144.6329  151.7033 LP  0  0  0  0  0  0  0  0  0  0  0  0  # atno 17342 bound_to 10162
  140.5505  144.0433  150.6125 LP  0  0  0  0  0  0  0  0  0  0  0  0  # atno 17343 bound_to 10162
  156.6732  130.8828  151.3565 LP  0  0  0  0  0  0  0  0  0  0  0  0  # atno 17370 bound_to 10713
  157.7058  130.9383  150.0927 LP  0  0  0  0  0  0  0  0  0  0  0  0  # atno 17371 bound_to 10713
  140.5664  134.5884  157.5446 LP  0  0  0  0  0  0  0  0  0  0  0  0  # atno 17394 bound_to 11000
  139.9528  134.7587  156.0409 LP  0  0  0  0  0  0  0  0  0  0  0  0  # atno 17395 bound_to 11000

$$$$
