AV-unprocessed.smi:2791|AV-procd|sdf|10771|dock4
  -GOLD-   2272015203D 1   1.00000     0.00000
 Structure written by MMmdl.
 35 36  0  0  0  0  0  0  0  0  1 V2000
  143.5182  133.3014  151.5543 C   0  0  0  0  0  0  0  0  0  0  0  0
  144.1749  133.7864  152.7181 O   0  0  0  0  0  0  0  0  0  0  0  0
  145.0429  134.9043  152.5269 C   0  0  0  0  0  0  0  0  0  0  0  0
  145.7019  135.3492  153.8399 C   0  0  0  0  0  0  0  0  0  0  0  0
  146.8443  136.2136  153.5763 N   0  0  0  0  0  0  0  0  0  0  0  0
  147.0394  137.4063  154.1522 C   0  0  0  0  0  0  0  0  0  0  0  0
  146.2629  137.8956  154.9729 O   0  0  0  0  0  0  0  0  0  0  0  0
  148.1741  137.9775  153.7123 N   0  0  0  0  0  0  0  0  0  0  0  0
  148.7084  139.1797  154.0556 C   0  0  0  0  0  0  0  0  0  0  0  0
  148.0948  140.3994  154.1472 C   0  0  0  0  0  0  0  0  0  0  0  0
  149.1627  141.2517  154.5499 C   0  0  0  0  0  0  0  0  0  0  0  0
  150.3155  140.6094  154.6924 N   0  0  0  0  0  0  0  0  0  0  0  0
  150.0381  139.3229  154.3875 N   0  0  0  0  0  0  0  0  0  0  0  0
  151.0863  138.3223  154.4393 C   0  0  0  0  0  0  0  0  0  0  0  0
  145.9649  134.5916  151.3331 C   0  0  0  0  0  0  0  0  0  0  0  0
  145.6768  135.9933  150.7926 C   0  0  0  0  0  0  0  0  0  0  0  0
  144.3929  135.9718  151.6238 C   0  0  0  0  0  0  0  0  0  0  0  0
  142.9817  132.3859  151.8022 H   0  0  0  0  0  0  0  0  0  0  0  0
  144.2221  133.0664  150.7556 H   0  0  0  0  0  0  0  0  0  0  0  0
  142.7851  134.0140  151.1770 H   0  0  0  0  0  0  0  0  0  0  0  0
  144.9852  135.8956  154.4549 H   0  0  0  0  0  0  0  0  0  0  0  0
  146.0169  134.4928  154.4369 H   0  0  0  0  0  0  0  0  0  0  0  0
  147.5286  135.8762  152.9152 H   0  0  0  0  0  0  0  0  0  0  0  0
  148.6977  137.4541  153.0263 H   0  0  0  0  0  0  0  0  0  0  0  0
  147.0632  140.6592  153.9647 H   0  0  0  0  0  0  0  0  0  0  0  0
  149.1348  142.3136  154.7443 H   0  0  0  0  0  0  0  0  0  0  0  0
  151.1661  137.8251  153.4723 H   0  0  0  0  0  0  0  0  0  0  0  0
  150.8473  137.5814  155.2023 H   0  0  0  0  0  0  0  0  0  0  0  0
  152.0456  138.7823  154.6798 H   0  0  0  0  0  0  0  0  0  0  0  0
  147.0096  134.4143  151.5904 H   0  0  0  0  0  0  0  0  0  0  0  0
  145.5765  133.8058  150.6824 H   0  0  0  0  0  0  0  0  0  0  0  0
  146.3952  136.7384  151.1388 H   0  0  0  0  0  0  0  0  0  0  0  0
  145.5236  136.0458  149.7144 H   0  0  0  0  0  0  0  0  0  0  0  0
  143.5384  135.5981  151.0565 H   0  0  0  0  0  0  0  0  0  0  0  0
  144.1617  136.9138  152.1220 H   0  0  0  0  0  0  0  0  0  0  0  0
  1  2  1  0  0  0  0
  1 18  1  0  0  0  0
  1 19  1  0  0  0  0
  1 20  1  0  0  0  0
  2  3  1  0  0  0  0
  3 17  1  0  0  0  0
  3  4  1  0  0  0  0
  3 15  1  0  0  0  0
  4  5  1  0  0  0  0
  4 21  1  0  0  0  0
  4 22  1  0  0  0  0
  5  6  1  0  0  0  0
  5 23  1  0  0  0  0
  6  7  2  0  0  0  0
  6  8  1  0  0  0  0
  8  9  1  0  0  0  0
  8 24  1  0  0  0  0
  9 13  1  0  0  0  0
  9 10  2  0  0  0  0
 10 11  1  0  0  0  0
 10 25  1  0  0  0  0
 11 12  2  0  0  0  0
 11 26  1  0  0  0  0
 12 13  1  0  0  0  0
 13 14  1  0  0  0  0
 14 27  1  0  0  0  0
 14 28  1  0  0  0  0
 14 29  1  0  0  0  0
 15 16  1  0  0  0  0
 15 30  1  0  0  0  0
 15 31  1  0  0  0  0
 16 17  1  0  0  0  0
 16 32  1  0  0  0  0
 16 33  1  0  0  0  0
 17 34  1  0  0  0  0
 17 35  1  0  0  0  0
M  END
> <s_m_source_file>
AV-unprocessed.smi

> <i_m_source_file_index>
2791

> <i_lp_mmshare_version>
43012

> <i_f3d_flags>
0

> <s_epik_input>
W0NIMl0xW0NIMl1bQ0gyXUMxKE9bQ0gzXSlbQ0gyXVtOSF1DKD1PKVtOSF1jMltjSF1bY0hdbm4yW0NIM10=

> <s_epik_cmdline>
J2VwaWtfcHl0aG9uJywgJy1waCcsICc3LjAnLCAnLXRuJywgJzgnLCAnLW1hJywgJzIwMCcsICctbWV0YWxfYmluZGluZycsICctaW1hZScsICc8aW5maWxlLm1hZT4nLCAnLW9tYWUnLCAnPG91dGZpbGUubWFlPic=

> <r_lp_tautomer_probability>
1

> <r_epik_Ionization_Penalty>
4.34911e-05

> <r_epik_Ionization_Penalty_Charging>
0

> <r_epik_Ionization_Penalty_Neutral>
4.34911e-05

> <r_epik_State_Penalty>
-0

> <r_epik_Charging_Adjusted_Penalty>
0

> <i_epik_Tot_Q>
0

> <i_epik_Tot_abs_Q>
0

> <r_epik_Metal_State_Penalty>
-0

> <b_epik_Metal_Only>
0

> <s_lp_Force_Field>
OPLS_2005

> <r_lp_Energy>
18.0019

> <b_lp_Chiralities_Consistent>
1

> <s_lp_Variant>
AV-unprocessed.smi:2791-1

> <Gold.Version>
5.8.1

> <Gold.Id.Protein>
6NUR|6NUR_protein|mol2

> <Gold.PLP.Fitness>
38.2469

> <Gold.PLP.PLP>
-28.1201

> <Gold.PLP.part.hbond>
-3.0000

> <Gold.PLP.part.metal>
0.0000

> <Gold.PLP.part.buried>
-2.9650

> <Gold.PLP.part.nonpolar>
-22.2872

> <Gold.PLP.part.repulsive>
0.2926

> <Gold.PLP.ligand.clash>
0.0000

> <Gold.PLP.ligand.torsion>
0.7144

> <Gold.PLP.Chemscore.Hbond>
2.8888

> <Gold.PLP.Chemscore.CHOScore>
0.8642

> <Gold.PLP.Chemscore.Metal>
0.0000

> <Gold.Chemscore.Hbonds>
donor molecule, donor type, donor heavy atom, donor atom, acceptor molecule, acceptor atom, score
      L1  H     5    23       P1  7948  0.99
      L1  H     8    24       P1  7948  1.00
      P1  H  7989  7998       L1    12  0.87
      L1  C    11    26       P1  8028  0.89

> <Gold.PLP.Chemscore.Internal.Correction>
0.2965

> <Gold.Rescore>
     Score         DG    S(hbond)    S(metal)    S(lipo)     H(rot)  DE(clash)    DE(int)     intcor
     13.89     -15.66       2.41        0.00      51.85       1.53       0.15       1.62       ----

> <Gold.Chemscore.Fitness>
13.8865

> <Gold.Chemscore.DG>
-15.6581

> <Gold.Chemscore.ZeroCoef>
-5.4800

> <Gold.Chemscore.Hbond>
2.4068

> <Gold.Chemscore.Metal>
0.0000

> <Gold.Chemscore.Lipo>
51.8482

> <Gold.Chemscore.Internal_Hbond>
0.0000

> <Gold.Chemscore.DEClash>
0.1531

> <Gold.Chemscore.DEInternal>
1.6185

> <Gold.Chemscore.Rot>
1.5339

> <Gold.Chemscore.Internal.Correction>
   9.000000E+99

> <Gold.Chemscore.Hbonds>
donor molecule, donor type, donor heavy atom, donor atom, acceptor molecule, acceptor atom, score
      L1  H     5    23       P1  7948  0.93
      L1  H     8    24       P1  7948  0.99
      P1  H  7989  7998       L1    12  0.18

> <Gold.Chemscore.Hbond.Weighted>
-8.0386

> <Gold.Chemscore.Metal.Weighted>
-0.0000

> <Gold.Chemscore.Lipo.Weighted>
-6.0662

> <Gold.Chemscore.Internal_Hbond.Weighted>
0.0000

> <Gold.Chemscore.DEClash.Weighted>
0.1531

> <Gold.Chemscore.DEInternal.Weighted>
1.6185

> <Gold.Chemscore.Rot.Weighted>
3.9267

> <Gold.Chemscore.Internal.Correction.Weighted>
   9.000000E+99

> <Gold.Protein.RotatedTorsions>
[ 6907 6896 6895 6894 ] final -149.32 input  -60.11 | X-H torsion
[ 7974 7965 7964 7962 ] final  -38.10 input  175.53 | X-H torsion
[ 8008 7997 7996 7995 ] final  113.37 input   59.86 | X-H torsion
[ 10167 10162 10161 10158 ] final -100.72 input  -65.29 | X-H torsion
[ 10718 10713 10712 10709 ] final  117.39 input   66.30 | X-H torsion
[ 10763 10752 10751 10750 ] final  104.00 input  -60.55 | X-H torsion
[ 11005 11000 10999 10996 ] final    2.07 input  -57.11 | X-H torsion

> <Gold.Protein.ActiveResidues>
 VAL166  LYS551  ARG553  GLY616  TRP617  ASP618  TYR619  PRO620  LYS621  CYS622 
 ASP623  PHE694  ASN695  SER759  ASP760  ASP761  ALA762  ILE779  LEU786  VAL792 
 PHE793  MET794  SER795  GLU796  ALA797  LYS798  CYS799  TRP800  GLU811  SER814 

> <Gold.Protein.RotatedAtoms>
  151.1824  133.4717  159.2593 H   0  0  0  0  0  0  0  0  0  0  0  0  # atno 6907 bound_to 6896
  151.1245  135.0097  159.8564 H   0  0  0  0  0  0  0  0  0  0  0  0  # atno 6908 bound_to 6896
  152.5457  134.1733  159.8658 H   0  0  0  0  0  0  0  0  0  0  0  0  # atno 6909 bound_to 6896
  146.0516  140.6473  142.9039 H   0  0  0  0  0  0  0  0  0  0  0  0  # atno 7974 bound_to 7965
  156.2254  140.2981  156.0053 H   0  0  0  0  0  0  0  0  0  0  0  0  # atno 8008 bound_to 7997
  155.2371  140.0421  157.2987 H   0  0  0  0  0  0  0  0  0  0  0  0  # atno 8009 bound_to 7997
  154.5906  140.2400  155.7933 H   0  0  0  0  0  0  0  0  0  0  0  0  # atno 8010 bound_to 7997
  140.2489  143.3486  152.0733 H   0  0  0  0  0  0  0  0  0  0  0  0  # atno 10167 bound_to 10162
  157.6099  131.1036  150.7608 H   0  0  0  0  0  0  0  0  0  0  0  0  # atno 10718 bound_to 10713
  153.3602  135.3958  155.1712 H   0  0  0  0  0  0  0  0  0  0  0  0  # atno 10763 bound_to 10752
  154.8678  135.3677  154.5110 H   0  0  0  0  0  0  0  0  0  0  0  0  # atno 10764 bound_to 10752
  153.5568  135.7082  153.5626 H   0  0  0  0  0  0  0  0  0  0  0  0  # atno 10765 bound_to 10752
  140.6084  133.9771  155.8165 H   0  0  0  0  0  0  0  0  0  0  0  0  # atno 11005 bound_to 11000
  144.7125  140.4093  143.7069 LP  0  0  0  0  0  0  0  0  0  0  0  0  # atno 17320 bound_to 7965
  145.6715  139.1600  143.2752 LP  0  0  0  0  0  0  0  0  0  0  0  0  # atno 17321 bound_to 7965
  139.5053  144.6792  151.6052 LP  0  0  0  0  0  0  0  0  0  0  0  0  # atno 17342 bound_to 10162
  140.6056  143.9530  150.6416 LP  0  0  0  0  0  0  0  0  0  0  0  0  # atno 17343 bound_to 10162
  156.7988  130.4914  149.5373 LP  0  0  0  0  0  0  0  0  0  0  0  0  # atno 17370 bound_to 10713
  156.1199  130.6102  151.0177 LP  0  0  0  0  0  0  0  0  0  0  0  0  # atno 17371 bound_to 10713
  141.0825  134.0041  157.3364 LP  0  0  0  0  0  0  0  0  0  0  0  0  # atno 17394 bound_to 11000
  139.9202  135.0200  156.8037 LP  0  0  0  0  0  0  0  0  0  0  0  0  # atno 17395 bound_to 11000

$$$$
