AV-unprocessed.smi:164|AV-procd|sdf|1382|dock9
  -GOLD-   2262019113D 1   1.00000     0.00000
 Structure written by MMmdl.
 53 55  0  0  0  0  0  0  0  0  1 V2000
  152.1742  143.9417  158.4200 C   0  0  0  0  0  0  0  0  0  0  0  0
  152.5621  142.5930  159.0016 C   0  0  0  0  0  0  0  0  0  0  0  0
  153.5050  142.5470  160.0486 C   0  0  0  0  0  0  0  0  0  0  0  0
  153.8852  141.3160  160.6114 C   0  0  0  0  0  0  0  0  0  0  0  0
  153.3208  140.1159  160.1379 C   0  0  0  0  0  0  0  0  0  0  0  0
  153.7463  138.7967  160.7558 C   0  0  0  0  0  0  0  0  0  0  0  0
  152.3635  140.1526  159.0975 C   0  0  0  0  0  0  0  0  0  0  0  0
  151.8091  138.9830  158.6450 O   0  0  0  0  0  0  0  0  0  0  0  0
  152.2009  138.6440  157.3225 C   0  0  0  0  0  0  0  0  0  0  0  0
  151.4837  137.3499  156.9058 C   0  0  2  0  0  0  0  0  0  0  0  0
  151.8865  137.0636  155.5809 O   0  0  0  0  0  0  0  0  0  0  0  0
  149.9471  137.5160  156.9164 C   0  0  0  0  0  0  0  0  0  0  0  0
  149.2682  136.5172  157.7267 N   0  0  0  0  0  0  0  0  0  0  0  0
  148.9924  135.2635  157.1285 C   0  0  0  0  0  0  0  0  0  0  0  0
  149.3324  134.9995  155.9738 O   0  0  0  0  0  0  0  0  0  0  0  0
  148.2582  134.3363  157.9811 C   0  0  0  0  0  0  0  0  0  0  0  0
  147.9094  133.1298  157.5036 F   0  0  0  0  0  0  0  0  0  0  0  0
  147.9019  134.6766  159.2385 C   0  0  0  0  0  0  0  0  0  0  0  0
  148.2137  135.9003  159.8139 N   0  0  0  0  0  0  0  0  0  0  0  0
  147.7292  136.3048  161.1985 C   0  0  2  0  0  0  0  0  0  0  0  0
  147.0655  135.1723  161.9934 C   0  0  0  0  0  0  0  0  0  0  0  0
  145.5756  135.3962  161.7462 C   0  0  0  0  0  0  0  0  0  0  0  0
  145.5098  136.6348  160.8464 C   0  0  0  0  0  0  0  0  0  0  0  0
  146.7545  137.2880  161.0543 O   0  0  0  0  0  0  0  0  0  0  0  0
  148.8737  136.8789  159.0364 C   0  0  0  0  0  0  0  0  0  0  0  0
  149.0865  138.0061  159.4893 O   0  0  0  0  0  0  0  0  0  0  0  0
  151.9940  141.3898  158.5126 C   0  0  0  0  0  0  0  0  0  0  0  0
  150.9864  141.4218  157.3709 C   0  0  0  0  0  0  0  0  0  0  0  0
  152.5752  144.7616  159.0168 H   0  0  0  0  0  0  0  0  0  0  0  0
  151.0900  144.0527  158.3908 H   0  0  0  0  0  0  0  0  0  0  0  0
  152.5617  144.0437  157.4061 H   0  0  0  0  0  0  0  0  0  0  0  0
  153.9451  143.4588  160.4252 H   0  0  0  0  0  0  0  0  0  0  0  0
  154.6116  141.2974  161.4108 H   0  0  0  0  0  0  0  0  0  0  0  0
  153.8172  138.0149  159.9991 H   0  0  0  0  0  0  0  0  0  0  0  0
  153.0240  138.4826  161.5094 H   0  0  0  0  0  0  0  0  0  0  0  0
  154.7217  138.8852  161.2352 H   0  0  0  0  0  0  0  0  0  0  0  0
  151.8992  139.4624  156.6683 H   0  0  0  0  0  0  0  0  0  0  0  0
  153.2842  138.5455  157.2260 H   0  0  0  0  0  0  0  0  0  0  0  0
  151.7833  136.5387  157.5703 H   0  0  0  0  0  0  0  0  0  0  0  0
  152.3480  137.8141  155.2386 H   0  0  0  0  0  0  0  0  0  0  0  0
  149.6561  138.4846  157.3268 H   0  0  0  0  0  0  0  0  0  0  0  0
  149.5165  137.5148  155.9136 H   0  0  0  0  0  0  0  0  0  0  0  0
  147.3338  133.9487  159.7957 H   0  0  0  0  0  0  0  0  0  0  0  0
  148.6119  136.6865  161.7144 H   0  0  0  0  0  0  0  0  0  0  0  0
  147.4396  134.1864  161.7183 H   0  0  0  0  0  0  0  0  0  0  0  0
  147.2872  135.3244  163.0505 H   0  0  0  0  0  0  0  0  0  0  0  0
  145.0991  134.5352  161.2764 H   0  0  0  0  0  0  0  0  0  0  0  0
  145.0653  135.5832  162.6917 H   0  0  0  0  0  0  0  0  0  0  0  0
  145.4135  136.3502  159.7979 H   0  0  0  0  0  0  0  0  0  0  0  0
  144.6732  137.2882  161.0940 H   0  0  0  0  0  0  0  0  0  0  0  0
  150.8820  140.4500  156.8891 H   0  0  0  0  0  0  0  0  0  0  0  0
  151.2905  142.1261  156.5968 H   0  0  0  0  0  0  0  0  0  0  0  0
  150.0065  141.7207  157.7437 H   0  0  0  0  0  0  0  0  0  0  0  0
  1  2  1  0  0  0  0
  1 29  1  0  0  0  0
  1 30  1  0  0  0  0
  1 31  1  0  0  0  0
  2 27  1  0  0  0  0
  2  3  2  0  0  0  0
  3  4  1  0  0  0  0
  3 32  1  0  0  0  0
  4  5  2  0  0  0  0
  4 33  1  0  0  0  0
  5  6  1  0  0  0  0
  5  7  1  0  0  0  0
  6 34  1  0  0  0  0
  6 35  1  0  0  0  0
  6 36  1  0  0  0  0
  7  8  1  0  0  0  0
  7 27  2  0  0  0  0
  8  9  1  0  0  0  0
  9 10  1  0  0  0  0
  9 37  1  0  0  0  0
  9 38  1  0  0  0  0
 10 11  1  0  0  0  0
 10 12  1  0  0  0  0
 10 39  1  0  0  0  0
 11 40  1  0  0  0  0
 12 13  1  0  0  0  0
 12 41  1  0  0  0  0
 12 42  1  0  0  0  0
 13 25  1  0  0  0  0
 13 14  1  0  0  0  0
 14 15  2  0  0  0  0
 14 16  1  0  0  0  0
 16 17  1  0  0  0  0
 16 18  2  0  0  0  0
 18 19  1  0  0  0  0
 18 43  1  0  0  0  0
 19 20  1  0  0  0  0
 19 25  1  0  0  0  0
 20 24  1  0  0  0  0
 20 21  1  0  0  0  0
 20 44  1  0  0  0  0
 21 22  1  0  0  0  0
 21 45  1  0  0  0  0
 21 46  1  0  0  0  0
 22 23  1  0  0  0  0
 22 47  1  0  0  0  0
 22 48  1  0  0  0  0
 23 24  1  0  0  0  0
 23 49  1  0  0  0  0
 23 50  1  0  0  0  0
 25 26  2  0  0  0  0
 27 28  1  0  0  0  0
 28 51  1  0  0  0  0
 28 52  1  0  0  0  0
 28 53  1  0  0  0  0
M  END
> <s_m_source_file>
AV-unprocessed.smi

> <i_m_source_file_index>
164

> <i_lp_mmshare_version>
43012

> <i_f3d_flags>
0

> <s_epik_input>
W0NIM11jMVtjSF1bY0hdYyhbQ0gzXSljKGMxW0NIM10pT1tDSDJdW0NASF0oW09IXSlbQ0gyXW4yYyg9TyljKEYpW2NIXW4oYzI9TylbQ0BASF0zW0NIMl1bQ0gyXVtDSDJdTzM=

> <s_epik_cmdline>
J2VwaWtfcHl0aG9uJywgJy1waCcsICc3LjAnLCAnLXRuJywgJzgnLCAnLW1hJywgJzIwMCcsICctbWV0YWxfYmluZGluZycsICctaW1hZScsICc8aW5maWxlLm1hZT4nLCAnLW9tYWUnLCAnPG91dGZpbGUubWFlPic=

> <r_lp_tautomer_probability>
1

> <r_epik_Ionization_Penalty>
1.45842e-07

> <r_epik_Ionization_Penalty_Charging>
2.86622e-08

> <r_epik_Ionization_Penalty_Neutral>
1.1718e-07

> <r_epik_State_Penalty>
-0

> <r_epik_Charging_Adjusted_Penalty>
2.86622e-08

> <i_epik_Tot_Q>
0

> <i_epik_Tot_abs_Q>
0

> <r_epik_Metal_State_Penalty>
-0

> <b_epik_Metal_Only>
0

> <s_epik_Chemistry_Notes>
This compound contains an acetal/aminal-like group ( X-CH(R)-Y where X, Y are N, S, or O) that may be acid/base labile, releasing an aldehyde.

> <s_lp_Force_Field>
OPLS_2005

> <r_lp_Energy>
44.8383

> <b_lp_Chiralities_Consistent>
1

> <s_lp_Variant>
AV-unprocessed.smi:164-1

> <Gold.Version>
5.8.1

> <Gold.Id.Protein>
6NUR|6NUR_protein|mol2

> <Gold.PLP.Fitness>
50.7936

> <Gold.PLP.PLP>
-46.8408

> <Gold.PLP.part.hbond>
-4.6381

> <Gold.PLP.part.metal>
0.0000

> <Gold.PLP.part.buried>
-4.1984

> <Gold.PLP.part.nonpolar>
-38.8516

> <Gold.PLP.part.repulsive>
0.0177

> <Gold.PLP.ligand.clash>
0.0000

> <Gold.PLP.ligand.torsion>
1.2323

> <Gold.PLP.Chemscore.Hbond>
2.0187

> <Gold.PLP.Chemscore.CHOScore>
0.0000

> <Gold.PLP.Chemscore.Metal>
0.0000

> <Gold.Chemscore.Hbonds>
donor molecule, donor type, donor heavy atom, donor atom, acceptor molecule, acceptor atom, score
      P1  H  6934  6947       L1    24  1.00
      P1  H 10752 10763       L1    11  0.90

> <Gold.PLP.Chemscore.Internal.Correction>
0.3611

> <Gold.Rescore>
     Score         DG    S(hbond)    S(metal)    S(lipo)     H(rot)  DE(clash)    DE(int)     intcor
     14.53     -17.10       1.55        0.00     114.78       2.73       0.03       2.53       ----

> <Gold.Chemscore.Fitness>
14.5337

> <Gold.Chemscore.DG>
-17.0969

> <Gold.Chemscore.ZeroCoef>
-5.4800

> <Gold.Chemscore.Hbond>
1.5511

> <Gold.Chemscore.Metal>
0.0000

> <Gold.Chemscore.Lipo>
114.7753

> <Gold.Chemscore.Internal_Hbond>
0.0000

> <Gold.Chemscore.DEClash>
0.0285

> <Gold.Chemscore.DEInternal>
2.5348

> <Gold.Chemscore.Rot>
2.7315

> <Gold.Chemscore.Internal.Correction>
   9.000000E+99

> <Gold.Chemscore.Hbonds>
donor molecule, donor type, donor heavy atom, donor atom, acceptor molecule, acceptor atom, score
      P1  H  6931  6943       L1    26  0.01
      P1  H  6934  6947       L1    24  0.99
      P1  H 10752 10763       L1    11  0.29

> <Gold.Chemscore.Hbond.Weighted>
-5.1807

> <Gold.Chemscore.Metal.Weighted>
-0.0000

> <Gold.Chemscore.Lipo.Weighted>
-13.4287

> <Gold.Chemscore.Internal_Hbond.Weighted>
0.0000

> <Gold.Chemscore.DEClash.Weighted>
0.0285

> <Gold.Chemscore.DEInternal.Weighted>
2.5348

> <Gold.Chemscore.Rot.Weighted>
6.9925

> <Gold.Chemscore.Internal.Correction.Weighted>
   9.000000E+99

> <Gold.Protein.RotatedTorsions>
[ 6907 6896 6895 6894 ] final -179.16 input  -60.11 | X-H torsion
[ 7974 7965 7964 7962 ] final -162.77 input  175.53 | X-H torsion
[ 8008 7997 7996 7995 ] final  146.18 input   59.86 | X-H torsion
[ 10167 10162 10161 10158 ] final  -80.60 input  -65.29 | X-H torsion
[ 10718 10713 10712 10709 ] final -128.34 input   66.30 | X-H torsion
[ 10763 10752 10751 10750 ] final   83.57 input  -60.55 | X-H torsion
[ 11005 11000 10999 10996 ] final  -52.46 input  -57.11 | X-H torsion

> <Gold.Protein.ActiveResidues>
 VAL166  LYS551  ARG553  GLY616  TRP617  ASP618  TYR619  PRO620  LYS621  CYS622 
 ASP623  PHE694  ASN695  SER759  ASP760  ASP761  ALA762  ILE779  LEU786  VAL792 
 PHE793  MET794  SER795  GLU796  ALA797  LYS798  CYS799  TRP800  GLU811  SER814 

> <Gold.Protein.RotatedAtoms>
  151.6489  133.3322  159.3147 H   0  0  0  0  0  0  0  0  0  0  0  0  # atno 6907 bound_to 6896
  150.7970  134.7041  159.6576 H   0  0  0  0  0  0  0  0  0  0  0  0  # atno 6908 bound_to 6896
  152.4058  134.6213  160.0103 H   0  0  0  0  0  0  0  0  0  0  0  0  # atno 6909 bound_to 6896
  144.7347  140.3204  143.6172 H   0  0  0  0  0  0  0  0  0  0  0  0  # atno 7974 bound_to 7965
  156.2862  140.2189  156.5335 H   0  0  0  0  0  0  0  0  0  0  0  0  # atno 8008 bound_to 7997
  154.7429  140.0486  157.0849 H   0  0  0  0  0  0  0  0  0  0  0  0  # atno 8009 bound_to 7997
  155.0208  140.3124  155.4797 H   0  0  0  0  0  0  0  0  0  0  0  0  # atno 8010 bound_to 7997
  140.4488  143.2490  151.8519 H   0  0  0  0  0  0  0  0  0  0  0  0  # atno 10167 bound_to 10162
  156.1941  130.6815  151.0460 H   0  0  0  0  0  0  0  0  0  0  0  0  # atno 10718 bound_to 10713
  153.1303  135.4686  154.9338 H   0  0  0  0  0  0  0  0  0  0  0  0  # atno 10763 bound_to 10752
  154.7658  135.3144  154.8291 H   0  0  0  0  0  0  0  0  0  0  0  0  # atno 10764 bound_to 10752
  153.8835  135.6892  153.4819 H   0  0  0  0  0  0  0  0  0  0  0  0  # atno 10765 bound_to 10752
  141.0925  133.6630  156.4027 H   0  0  0  0  0  0  0  0  0  0  0  0  # atno 11005 bound_to 11000
  145.7575  139.1813  143.2286 LP  0  0  0  0  0  0  0  0  0  0  0  0  # atno 17320 bound_to 7965
  146.1013  140.7541  142.9548 LP  0  0  0  0  0  0  0  0  0  0  0  0  # atno 17321 bound_to 7965
  139.4795  144.5144  151.8888 LP  0  0  0  0  0  0  0  0  0  0  0  0  # atno 17342 bound_to 10162
  140.4232  144.2215  150.5887 LP  0  0  0  0  0  0  0  0  0  0  0  0  # atno 17343 bound_to 10162
  157.6947  131.0798  150.7004 LP  0  0  0  0  0  0  0  0  0  0  0  0  # atno 17370 bound_to 10713
  156.7061  130.4638  149.5560 LP  0  0  0  0  0  0  0  0  0  0  0  0  # atno 17371 bound_to 10713
  140.5218  134.6297  157.5320 LP  0  0  0  0  0  0  0  0  0  0  0  0  # atno 17394 bound_to 11000
  139.9754  134.7224  155.9960 LP  0  0  0  0  0  0  0  0  0  0  0  0  # atno 17395 bound_to 11000

$$$$
