AV-unprocessed.smi:1244|AV-procd|sdf|5232|dock7
  -GOLD-   22720 4333D 1   1.00000     0.00000
 Structure written by MMmdl.
 56 58  0  0  0  0  0  0  0  0  3 V2000
  154.4469  140.1143  159.4103 C   0  0  0  0  0  0  0  0  0  0  0  0
  153.0580  140.5710  158.9502 C   0  0  1  0  0  0  0  0  0  0  0  0
  152.8935  142.1001  159.0326 C   0  0  0  0  0  0  0  0  0  0  0  0
  151.5679  142.5117  158.5078 N   0  3  1  0  0  0  0  0  0  0  0  0
  151.3274  143.9734  158.5986 C   0  0  0  0  0  0  0  0  0  0  0  0
  150.4978  144.3523  159.8405 C   0  0  0  0  0  0  0  0  0  0  0  0
  149.1307  144.7185  159.4878 N   0  0  0  0  0  0  0  0  0  0  0  0
  148.0553  144.4692  160.2487 C   0  0  0  0  0  0  0  0  0  0  0  0
  148.1166  143.9374  161.3572 O   0  0  0  0  0  0  0  0  0  0  0  0
  146.9208  144.8514  159.6387 N   0  0  0  0  0  0  0  0  0  0  0  0
  145.5865  144.6715  160.1014 C   0  0  0  0  0  0  0  0  0  0  0  0
  145.3130  143.9018  161.2611 C   0  0  0  0  0  0  0  0  0  0  0  0
  143.9837  143.7190  161.6865 C   0  0  0  0  0  0  0  0  0  0  0  0
  142.9461  144.3128  160.9477 C   0  0  0  0  0  0  0  0  0  0  0  0
  143.2399  145.0560  159.8608 N   0  3  0  0  0  0  0  0  0  0  0  0
  144.4994  145.2809  159.4095 C   0  0  0  0  0  0  0  0  0  0  0  0
  144.6536  146.0891  158.2603 N   0  0  0  0  0  0  0  0  0  0  0  0
  143.5429  146.2774  157.3343 C   0  0  0  0  0  0  0  0  0  0  0  0
  143.9619  147.4473  156.4480 C   0  0  0  0  0  0  0  0  0  0  0  0
  144.7455  148.3289  157.4163 C   0  0  0  0  0  0  0  0  0  0  0  0
  145.4220  147.3258  158.3569 C   0  0  0  0  0  0  0  0  0  0  0  0
  151.3752  141.9893  157.1343 C   0  0  0  0  0  0  0  0  0  0  0  0
  151.5810  140.4625  157.1016 C   0  0  1  0  0  0  0  0  0  0  0  0
  151.4692  139.8938  155.6828 C   0  0  0  0  0  0  0  0  0  0  0  0
  152.8786  140.1570  157.6003 O   0  0  0  0  0  0  0  0  0  0  0  0
  154.6352  140.4080  160.4433 H   0  0  0  0  0  0  0  0  0  0  0  0
  155.2316  140.5492  158.7905 H   0  0  0  0  0  0  0  0  0  0  0  0
  154.5399  139.0295  159.3520 H   0  0  0  0  0  0  0  0  0  0  0  0
  152.3082  140.0861  159.5781 H   0  0  0  0  0  0  0  0  0  0  0  0
  153.0078  142.4179  160.0684 H   0  0  0  0  0  0  0  0  0  0  0  0
  153.6808  142.5929  158.4594 H   0  0  0  0  0  0  0  0  0  0  0  0
  152.2822  144.5012  158.5835 H   0  0  0  0  0  0  0  0  0  0  0  0
  150.7805  144.3031  157.7139 H   0  0  0  0  0  0  0  0  0  0  0  0
  150.4556  143.5076  160.5286 H   0  0  0  0  0  0  0  0  0  0  0  0
  150.9538  145.1756  160.3912 H   0  0  0  0  0  0  0  0  0  0  0  0
  148.9927  145.1604  158.5904 H   0  0  0  0  0  0  0  0  0  0  0  0
  147.0140  145.1836  158.6901 H   0  0  0  0  0  0  0  0  0  0  0  0
  146.1082  143.4495  161.8346 H   0  0  0  0  0  0  0  0  0  0  0  0
  143.7647  143.1295  162.5647 H   0  0  0  0  0  0  0  0  0  0  0  0
  141.8980  144.2235  161.1944 H   0  0  0  0  0  0  0  0  0  0  0  0
  143.3528  145.3754  156.7515 H   0  0  0  0  0  0  0  0  0  0  0  0
  142.6328  146.5367  157.8769 H   0  0  0  0  0  0  0  0  0  0  0  0
  144.6177  147.0961  155.6502 H   0  0  0  0  0  0  0  0  0  0  0  0
  143.1148  147.9599  155.9914 H   0  0  0  0  0  0  0  0  0  0  0  0
  145.4572  148.9850  156.9144 H   0  0  0  0  0  0  0  0  0  0  0  0
  144.0536  148.9543  157.9822 H   0  0  0  0  0  0  0  0  0  0  0  0
  145.4637  147.7059  159.3785 H   0  0  0  0  0  0  0  0  0  0  0  0
  146.4414  147.1324  158.0226 H   0  0  0  0  0  0  0  0  0  0  0  0
  150.3696  142.2306  156.7867 H   0  0  0  0  0  0  0  0  0  0  0  0
  152.0757  142.4805  156.4563 H   0  0  0  0  0  0  0  0  0  0  0  0
  150.8323  139.9764  157.7297 H   0  0  0  0  0  0  0  0  0  0  0  0
  150.4830  140.0853  155.2593 H   0  0  0  0  0  0  0  0  0  0  0  0
  151.6264  138.8148  155.6822 H   0  0  0  0  0  0  0  0  0  0  0  0
  152.2107  140.3383  155.0185 H   0  0  0  0  0  0  0  0  0  0  0  0
  150.8672  142.0641  159.0813 H   0  0  0  0  0  0  0  0  0  0  0  0
  142.4652  145.4809  159.3509 H   0  0  0  0  0  0  0  0  0  0  0  0
  1  2  1  0  0  0  0
  1 26  1  0  0  0  0
  1 27  1  0  0  0  0
  1 28  1  0  0  0  0
  2 25  1  0  0  0  0
  2  3  1  0  0  0  0
  2 29  1  0  0  0  0
  3  4  1  0  0  0  0
  3 30  1  0  0  0  0
  3 31  1  0  0  0  0
  4  5  1  0  0  0  0
  4 22  1  0  0  0  0
  4 55  1  0  0  0  0
  5  6  1  0  0  0  0
  5 32  1  0  0  0  0
  5 33  1  0  0  0  0
  6  7  1  0  0  0  0
  6 34  1  0  0  0  0
  6 35  1  0  0  0  0
  7  8  1  0  0  0  0
  7 36  1  0  0  0  0
  8  9  2  0  0  0  0
  8 10  1  0  0  0  0
 10 11  1  0  0  0  0
 10 37  1  0  0  0  0
 11 16  1  0  0  0  0
 11 12  2  0  0  0  0
 12 13  1  0  0  0  0
 12 38  1  0  0  0  0
 13 14  2  0  0  0  0
 13 39  1  0  0  0  0
 14 15  1  0  0  0  0
 14 40  1  0  0  0  0
 15 16  2  0  0  0  0
 15 56  1  0  0  0  0
 16 17  1  0  0  0  0
 17 21  1  0  0  0  0
 17 18  1  0  0  0  0
 18 19  1  0  0  0  0
 18 41  1  0  0  0  0
 18 42  1  0  0  0  0
 19 20  1  0  0  0  0
 19 43  1  0  0  0  0
 19 44  1  0  0  0  0
 20 21  1  0  0  0  0
 20 45  1  0  0  0  0
 20 46  1  0  0  0  0
 21 47  1  0  0  0  0
 21 48  1  0  0  0  0
 22 23  1  0  0  0  0
 22 49  1  0  0  0  0
 22 50  1  0  0  0  0
 23 24  1  0  0  0  0
 23 25  1  0  0  0  0
 23 51  1  0  0  0  0
 24 52  1  0  0  0  0
 24 53  1  0  0  0  0
 24 54  1  0  0  0  0
M  CHG  1   4   1
M  CHG  1  15   1
M  END
> <s_m_source_file>
AV-unprocessed.smi

> <i_m_source_file_index>
1244

> <i_lp_mmshare_version>
43012

> <i_f3d_flags>
0

> <s_epik_input>
W0NIM11bQ0BASF0xW0NIMl1OKFtDSDJdW0NASF0oTzEpW0NIM10pW0NIMl1bQ0gyXVtOSF1DKD1PKVtOSF1jMltjSF1bY0hdW2NIXW5jMk4zW0NIMl1bQ0gyXVtDSDJdW0NIMl0z

> <s_epik_cmdline>
J2VwaWtfcHl0aG9uJywgJy1waCcsICc3LjAnLCAnLXRuJywgJzgnLCAnLW1hJywgJzIwMCcsICctbWV0YWxfYmluZGluZycsICctaW1hZScsICc8aW5maWxlLm1hZT4nLCAnLW9tYWUnLCAnPG91dGZpbGUubWFlPic=

> <r_lp_tautomer_probability>
0.999994

> <r_epik_Ionization_Penalty>
1.81601

> <r_epik_Ionization_Penalty_Charging>
1.81599

> <r_epik_Ionization_Penalty_Neutral>
2.01972e-05

> <r_epik_State_Penalty>
1.85672

> <r_epik_Charging_Adjusted_Penalty>
3.6727

> <i_epik_Tot_Q>
2

> <i_epik_Tot_abs_Q>
2

> <r_epik_Metal_State_Penalty>
1.93796

> <b_epik_Metal_Only>
0

> <s_lp_Force_Field>
OPLS_2005

> <r_lp_Energy>
51.4993

> <b_lp_Chiralities_Consistent>
1

> <s_lp_Variant>
AV-unprocessed.smi:1244-12

> <Gold.Version>
5.8.1

> <Gold.Id.Protein>
6NUR|6NUR_protein|mol2

> <Gold.PLP.Fitness>
54.5451

> <Gold.PLP.PLP>
-45.3183

> <Gold.PLP.part.hbond>
-4.0000

> <Gold.PLP.part.metal>
0.0000

> <Gold.PLP.part.buried>
-5.9948

> <Gold.PLP.part.nonpolar>
-36.6526

> <Gold.PLP.part.repulsive>
0.6222

> <Gold.PLP.ligand.clash>
0.0000

> <Gold.PLP.ligand.torsion>
1.4034

> <Gold.PLP.Chemscore.Hbond>
3.8720

> <Gold.PLP.Chemscore.CHOScore>
0.0000

> <Gold.PLP.Chemscore.Metal>
0.0000

> <Gold.Chemscore.Hbonds>
donor molecule, donor type, donor heavy atom, donor atom, acceptor molecule, acceptor atom, score
      L1  H     7    36       P1  8029  1.00
      L1  H    10    37       P1  8029  1.00
      P1  H  6933  6944       L1     9  1.00
      P1  H  7997  8009       L1    25  0.88

> <Gold.PLP.Chemscore.Internal.Correction>
0.4175

> <Gold.Rescore>
     Score         DG    S(hbond)    S(metal)    S(lipo)     H(rot)  DE(clash)    DE(int)     intcor
     20.66     -23.81       2.89        0.00     109.86       1.63       0.31       2.85       ----

> <Gold.Chemscore.Fitness>
20.6594

> <Gold.Chemscore.DG>
-23.8143

> <Gold.Chemscore.ZeroCoef>
-5.4800

> <Gold.Chemscore.Hbond>
2.8897

> <Gold.Chemscore.Metal>
0.0000

> <Gold.Chemscore.Lipo>
109.8606

> <Gold.Chemscore.Internal_Hbond>
0.0000

> <Gold.Chemscore.DEClash>
0.3088

> <Gold.Chemscore.DEInternal>
2.8461

> <Gold.Chemscore.Rot>
1.6293

> <Gold.Chemscore.Internal.Correction>
   9.000000E+99

> <Gold.Chemscore.Hbonds>
donor molecule, donor type, donor heavy atom, donor atom, acceptor molecule, acceptor atom, score
      L1  H     7    36       P1  8029  0.92
      L1  H    10    37       P1  8029  0.99
      P1  H  6933  6944       L1     9  0.94
      P1  H  7997  8009       L1    25  0.30

> <Gold.Chemscore.Hbond.Weighted>
-9.6515

> <Gold.Chemscore.Metal.Weighted>
-0.0000

> <Gold.Chemscore.Lipo.Weighted>
-12.8537

> <Gold.Chemscore.Internal_Hbond.Weighted>
0.0000

> <Gold.Chemscore.DEClash.Weighted>
0.3088

> <Gold.Chemscore.DEInternal.Weighted>
2.8461

> <Gold.Chemscore.Rot.Weighted>
4.1709

> <Gold.Chemscore.Internal.Correction.Weighted>
   9.000000E+99

> <Gold.Protein.RotatedTorsions>
[ 6907 6896 6895 6894 ] final   12.30 input  -60.11 | X-H torsion
[ 7974 7965 7964 7962 ] final -130.93 input  175.53 | X-H torsion
[ 8008 7997 7996 7995 ] final  155.26 input   59.86 | X-H torsion
[ 10167 10162 10161 10158 ] final   99.86 input  -65.29 | X-H torsion
[ 10718 10713 10712 10709 ] final   35.83 input   66.30 | X-H torsion
[ 10763 10752 10751 10750 ] final -175.45 input  -60.55 | X-H torsion
[ 11005 11000 10999 10996 ] final   -6.12 input  -57.11 | X-H torsion

> <Gold.Protein.ActiveResidues>
 VAL166  LYS551  ARG553  GLY616  TRP617  ASP618  TYR619  PRO620  LYS621  CYS622 
 ASP623  PHE694  ASN695  SER759  ASP760  ASP761  ALA762  ILE779  LEU786  VAL792 
 PHE793  MET794  SER795  GLU796  ALA797  LYS798  CYS799  TRP800  GLU811  SER814 

> <Gold.Protein.RotatedAtoms>
  151.7681  135.0793  160.0355 H   0  0  0  0  0  0  0  0  0  0  0  0  # atno 6907 bound_to 6896
  152.3307  133.5951  159.5816 H   0  0  0  0  0  0  0  0  0  0  0  0  # atno 6908 bound_to 6896
  150.7421  133.9788  159.3611 H   0  0  0  0  0  0  0  0  0  0  0  0  # atno 6909 bound_to 6896
  144.9428  140.7257  143.4836 H   0  0  0  0  0  0  0  0  0  0  0  0  # atno 7974 bound_to 7965
  156.2487  140.1944  156.6774 H   0  0  0  0  0  0  0  0  0  0  0  0  # atno 8008 bound_to 7997
  154.6347  140.0591  156.9801 H   0  0  0  0  0  0  0  0  0  0  0  0  # atno 8009 bound_to 7997
  155.1655  140.3263  155.4405 H   0  0  0  0  0  0  0  0  0  0  0  0  # atno 8010 bound_to 7997
  139.7579  144.6963  151.0335 H   0  0  0  0  0  0  0  0  0  0  0  0  # atno 10167 bound_to 10162
  157.3274  130.7480  149.6825 H   0  0  0  0  0  0  0  0  0  0  0  0  # atno 10718 bound_to 10713
  154.5842  135.2839  155.0702 H   0  0  0  0  0  0  0  0  0  0  0  0  # atno 10763 bound_to 10752
  154.2026  135.6422  153.5095 H   0  0  0  0  0  0  0  0  0  0  0  0  # atno 10764 bound_to 10752
  153.0098  135.5472  154.6506 H   0  0  0  0  0  0  0  0  0  0  0  0  # atno 10765 bound_to 10752
  140.6986  133.9009  155.8667 H   0  0  0  0  0  0  0  0  0  0  0  0  # atno 11005 bound_to 11000
  145.2965  139.1865  143.4712 LP  0  0  0  0  0  0  0  0  0  0  0  0  # atno 17320 bound_to 7965
  146.3292  140.2950  142.8617 LP  0  0  0  0  0  0  0  0  0  0  0  0  # atno 17321 bound_to 7965
  140.7804  143.4731  151.0119 LP  0  0  0  0  0  0  0  0  0  0  0  0  # atno 17342 bound_to 10162
  139.8418  143.7554  152.3180 LP  0  0  0  0  0  0  0  0  0  0  0  0  # atno 17343 bound_to 10162
  155.9692  130.4205  150.4426 LP  0  0  0  0  0  0  0  0  0  0  0  0  # atno 17370 bound_to 10713
  157.2452  131.0534  151.2412 LP  0  0  0  0  0  0  0  0  0  0  0  0  # atno 17371 bound_to 10713
  141.0183  134.0925  157.4148 LP  0  0  0  0  0  0  0  0  0  0  0  0  # atno 17394 bound_to 11000
  139.8903  135.0111  156.6729 LP  0  0  0  0  0  0  0  0  0  0  0  0  # atno 17395 bound_to 11000

$$$$
