AV-unprocessed.smi:906|AV-procd|sdf|4101|dock7
  -GOLD-   22720 1593D 1   1.00000     0.00000
 Structure written by MMmdl.
 47 48  0  0  0  0  0  0  0  0  1 V2000
  151.8876  145.2355  159.5813 C   0  0  0  0  0  0  0  0  0  0  0  0
  152.4569  143.9150  160.0562 C   0  0  0  0  0  0  0  0  0  0  0  0
  152.8147  142.9100  159.1329 C   0  0  0  0  0  0  0  0  0  0  0  0
  153.3456  141.7032  159.6278 C   0  0  0  0  0  0  0  0  0  0  0  0
  153.4987  141.5483  161.0207 C   0  0  0  0  0  0  0  0  0  0  0  0
  154.0718  140.2720  161.6042 C   0  0  0  0  0  0  0  0  0  0  0  0
  154.1989  139.1611  160.5493 C   0  0  0  0  0  0  0  0  0  0  0  0
  154.8403  137.9729  161.0992 N   0  0  0  0  0  0  0  0  0  0  0  0
  154.3435  136.7254  161.0414 C   0  0  0  0  0  0  0  0  0  0  0  0
  153.2702  136.4734  160.4915 O   0  0  0  0  0  0  0  0  0  0  0  0
  155.1352  135.7739  161.5956 N   0  0  0  0  0  0  0  0  0  0  0  0
  156.1478  135.9700  162.6433 C   0  0  0  0  0  0  0  0  0  0  0  0
  155.6364  135.3360  163.9513 C   0  0  0  0  0  0  0  0  0  0  0  0
  155.3710  133.9056  163.7530 N   0  0  0  0  0  0  0  0  0  0  0  0
  155.0410  133.2303  165.0200 C   0  0  1  0  0  0  0  0  0  0  0  0
  153.6427  133.5856  165.5719 C   0  0  0  0  0  0  0  0  0  0  0  0
  155.2691  131.7019  164.9375 C   0  0  0  0  0  0  0  0  0  0  0  0
  156.4900  131.4409  164.4689 F   0  0  0  0  0  0  0  0  0  0  0  0
  155.1782  131.1822  166.1616 F   0  0  0  0  0  0  0  0  0  0  0  0
  154.3682  131.0977  164.1627 F   0  0  0  0  0  0  0  0  0  0  0  0
  154.4047  133.6971  162.6656 C   0  0  0  0  0  0  0  0  0  0  0  0
  154.9255  134.3415  161.3664 C   0  0  0  0  0  0  0  0  0  0  0  0
  153.1111  142.6155  161.8582 C   0  0  0  0  0  0  0  0  0  0  0  0
  152.6012  143.7761  161.3927 N   0  0  0  0  0  0  0  0  0  0  0  0
  151.4623  145.1410  158.5816 H   0  0  0  0  0  0  0  0  0  0  0  0
  152.6714  145.9929  159.5503 H   0  0  0  0  0  0  0  0  0  0  0  0
  151.1003  145.5820  160.2515 H   0  0  0  0  0  0  0  0  0  0  0  0
  152.6879  143.0590  158.0706 H   0  0  0  0  0  0  0  0  0  0  0  0
  153.6322  140.9134  158.9488 H   0  0  0  0  0  0  0  0  0  0  0  0
  155.0464  140.4924  162.0420 H   0  0  0  0  0  0  0  0  0  0  0  0
  153.4348  139.9389  162.4247 H   0  0  0  0  0  0  0  0  0  0  0  0
  153.2101  138.8746  160.1899 H   0  0  0  0  0  0  0  0  0  0  0  0
  154.7535  139.5188  159.6801 H   0  0  0  0  0  0  0  0  0  0  0  0
  155.7326  138.1048  161.5525 H   0  0  0  0  0  0  0  0  0  0  0  0
  157.0808  135.4953  162.3354 H   0  0  0  0  0  0  0  0  0  0  0  0
  156.3999  137.0147  162.8241 H   0  0  0  0  0  0  0  0  0  0  0  0
  156.3876  135.4668  164.7308 H   0  0  0  0  0  0  0  0  0  0  0  0
  154.7344  135.8511  164.2825 H   0  0  0  0  0  0  0  0  0  0  0  0
  155.7709  133.5899  165.7468 H   0  0  0  0  0  0  0  0  0  0  0  0
  153.4998  133.1470  166.5595 H   0  0  0  0  0  0  0  0  0  0  0  0
  152.8436  133.2054  164.9358 H   0  0  0  0  0  0  0  0  0  0  0  0
  153.5034  134.6605  165.6802 H   0  0  0  0  0  0  0  0  0  0  0  0
  154.2509  132.6347  162.4887 H   0  0  0  0  0  0  0  0  0  0  0  0
  153.4367  134.1271  162.9250 H   0  0  0  0  0  0  0  0  0  0  0  0
  154.2262  134.1449  160.5528 H   0  0  0  0  0  0  0  0  0  0  0  0
  155.8670  133.8792  161.0652 H   0  0  0  0  0  0  0  0  0  0  0  0
  153.2158  142.5384  162.9305 H   0  0  0  0  0  0  0  0  0  0  0  0
  1  2  1  0  0  0  0
  1 25  1  0  0  0  0
  1 26  1  0  0  0  0
  1 27  1  0  0  0  0
  2 24  1  0  0  0  0
  2  3  2  0  0  0  0
  3  4  1  0  0  0  0
  3 28  1  0  0  0  0
  4  5  2  0  0  0  0
  4 29  1  0  0  0  0
  5  6  1  0  0  0  0
  5 23  1  0  0  0  0
  6  7  1  0  0  0  0
  6 30  1  0  0  0  0
  6 31  1  0  0  0  0
  7  8  1  0  0  0  0
  7 32  1  0  0  0  0
  7 33  1  0  0  0  0
  8  9  1  0  0  0  0
  8 34  1  0  0  0  0
  9 10  2  0  0  0  0
  9 11  1  0  0  0  0
 11 22  1  0  0  0  0
 11 12  1  0  0  0  0
 12 13  1  0  0  0  0
 12 35  1  0  0  0  0
 12 36  1  0  0  0  0
 13 14  1  0  0  0  0
 13 37  1  0  0  0  0
 13 38  1  0  0  0  0
 14 15  1  0  0  0  0
 14 21  1  0  0  0  0
 15 16  1  0  0  0  0
 15 17  1  0  0  0  0
 15 39  1  0  0  0  0
 16 40  1  0  0  0  0
 16 41  1  0  0  0  0
 16 42  1  0  0  0  0
 17 18  1  0  0  0  0
 17 19  1  0  0  0  0
 17 20  1  0  0  0  0
 21 22  1  0  0  0  0
 21 43  1  0  0  0  0
 21 44  1  0  0  0  0
 22 45  1  0  0  0  0
 22 46  1  0  0  0  0
 23 24  2  0  0  0  0
 23 47  1  0  0  0  0
M  END
> <s_m_source_file>
AV-unprocessed.smi

> <i_m_source_file_index>
906

> <i_lp_mmshare_version>
43012

> <i_f3d_flags>
0

> <s_epik_input>
W0NIM11jMVtjSF1bY0hdYyhbY0hdbjEpW0NIMl1bQ0gyXVtOSF1DKD1PKU4yW0NIMl1bQ0gyXU4oW0NASF0oW0NIM10pQyhGKShGKUYpW0NIMl1bQ0gyXTI=

> <s_epik_cmdline>
J2VwaWtfcHl0aG9uJywgJy1waCcsICc3LjAnLCAnLXRuJywgJzgnLCAnLW1hJywgJzIwMCcsICctbWV0YWxfYmluZGluZycsICctaW1hZScsICc8aW5maWxlLm1hZT4nLCAnLW9tYWUnLCAnPG91dGZpbGUubWFlPic=

> <r_epik_Ionization_Penalty>
0.0782886

> <r_epik_Ionization_Penalty_Charging>
0

> <r_epik_Ionization_Penalty_Neutral>
0.0782886

> <r_epik_State_Penalty>
0.0661423

> <r_epik_Charging_Adjusted_Penalty>
0.0661423

> <i_epik_Tot_Q>
0

> <i_epik_Tot_abs_Q>
0

> <r_epik_Metal_State_Penalty>
0.060629

> <b_epik_Metal_Only>
0

> <s_lp_Force_Field>
OPLS_2005

> <r_lp_Energy>
47.1211

> <b_lp_Chiralities_Consistent>
1

> <s_lp_Variant>
AV-unprocessed.smi:906-2

> <Gold.Version>
5.8.1

> <Gold.Id.Protein>
6NUR|6NUR_protein|mol2

> <Gold.PLP.Fitness>
45.8344

> <Gold.PLP.PLP>
-43.3258

> <Gold.PLP.part.hbond>
-1.0000

> <Gold.PLP.part.metal>
0.0000

> <Gold.PLP.part.buried>
-4.3864

> <Gold.PLP.part.nonpolar>
-38.0050

> <Gold.PLP.part.repulsive>
0.1415

> <Gold.PLP.ligand.clash>
0.0015

> <Gold.PLP.ligand.torsion>
0.5512

> <Gold.PLP.Chemscore.Hbond>
0.9913

> <Gold.PLP.Chemscore.CHOScore>
0.0000

> <Gold.PLP.Chemscore.Metal>
0.0000

> <Gold.Chemscore.Hbonds>
donor molecule, donor type, donor heavy atom, donor atom, acceptor molecule, acceptor atom, score
      P1  H  6896  6909       L1    10  1.00

> <Gold.PLP.Chemscore.Internal.Correction>
0.6387

> <Gold.Rescore>
     Score         DG    S(hbond)    S(metal)    S(lipo)     H(rot)  DE(clash)    DE(int)     intcor
     18.73     -19.54       0.99        0.00     126.65       1.58       0.07       0.73       ----

> <Gold.Chemscore.Fitness>
18.7329

> <Gold.Chemscore.DG>
-19.5369

> <Gold.Chemscore.ZeroCoef>
-5.4800

> <Gold.Chemscore.Hbond>
0.9862

> <Gold.Chemscore.Metal>
0.0000

> <Gold.Chemscore.Lipo>
126.6535

> <Gold.Chemscore.Internal_Hbond>
0.0000

> <Gold.Chemscore.DEClash>
0.0735

> <Gold.Chemscore.DEInternal>
0.7305

> <Gold.Chemscore.Rot>
1.5841

> <Gold.Chemscore.Internal.Correction>
   9.000000E+99

> <Gold.Chemscore.Hbonds>
donor molecule, donor type, donor heavy atom, donor atom, acceptor molecule, acceptor atom, score
      P1  H  6896  6909       L1    10  1.00

> <Gold.Chemscore.Hbond.Weighted>
-3.2939

> <Gold.Chemscore.Metal.Weighted>
-0.0000

> <Gold.Chemscore.Lipo.Weighted>
-14.8185

> <Gold.Chemscore.Internal_Hbond.Weighted>
0.0000

> <Gold.Chemscore.DEClash.Weighted>
0.0735

> <Gold.Chemscore.DEInternal.Weighted>
0.7305

> <Gold.Chemscore.Rot.Weighted>
4.0554

> <Gold.Chemscore.Internal.Correction.Weighted>
   9.000000E+99

> <Gold.Protein.RotatedTorsions>
[ 6907 6896 6895 6894 ] final  148.37 input  -60.11 | X-H torsion
[ 7974 7965 7964 7962 ] final -106.11 input  175.53 | X-H torsion
[ 8008 7997 7996 7995 ] final  171.68 input   59.86 | X-H torsion
[ 10167 10162 10161 10158 ] final  157.05 input  -65.29 | X-H torsion
[ 10718 10713 10712 10709 ] final  159.10 input   66.30 | X-H torsion
[ 10763 10752 10751 10750 ] final  -32.81 input  -60.55 | X-H torsion
[ 11005 11000 10999 10996 ] final  136.87 input  -57.11 | X-H torsion

> <Gold.Protein.ActiveResidues>
 VAL166  LYS551  ARG553  GLY616  TRP617  ASP618  TYR619  PRO620  LYS621  CYS622 
 ASP623  PHE694  ASN695  SER759  ASP760  ASP761  ALA762  ILE779  LEU786  VAL792 
 PHE793  MET794  SER795  GLU796  ALA797  LYS798  CYS799  TRP800  GLU811  SER814 

> <Gold.Protein.RotatedAtoms>
  152.1423  133.4471  159.4772 H   0  0  0  0  0  0  0  0  0  0  0  0  # atno 6907 bound_to 6896
  150.6887  134.2290  159.4436 H   0  0  0  0  0  0  0  0  0  0  0  0  # atno 6908 bound_to 6896
  152.0181  134.9838  160.0620 H   0  0  0  0  0  0  0  0  0  0  0  0  # atno 6909 bound_to 6896
  145.2220  140.9138  143.3254 H   0  0  0  0  0  0  0  0  0  0  0  0  # atno 7974 bound_to 7965
  156.1247  140.1505  156.9153 H   0  0  0  0  0  0  0  0  0  0  0  0  # atno 8008 bound_to 7997
  154.4862  140.0864  156.7534 H   0  0  0  0  0  0  0  0  0  0  0  0  # atno 8009 bound_to 7997
  155.4364  140.3429  155.4287 H   0  0  0  0  0  0  0  0  0  0  0  0  # atno 8010 bound_to 7997
  139.4822  144.4953  151.8249 H   0  0  0  0  0  0  0  0  0  0  0  0  # atno 10167 bound_to 10162
  157.1688  131.0605  151.2194 H   0  0  0  0  0  0  0  0  0  0  0  0  # atno 10718 bound_to 10713
  153.8200  135.6875  153.4828 H   0  0  0  0  0  0  0  0  0  0  0  0  # atno 10763 bound_to 10752
  153.1575  135.4593  154.9723 H   0  0  0  0  0  0  0  0  0  0  0  0  # atno 10764 bound_to 10752
  154.7932  135.3309  154.7673 H   0  0  0  0  0  0  0  0  0  0  0  0  # atno 10765 bound_to 10752
  140.0075  134.9453  157.0206 H   0  0  0  0  0  0  0  0  0  0  0  0  # atno 11005 bound_to 11000
  144.9756  139.3835  143.6287 LP  0  0  0  0  0  0  0  0  0  0  0  0  # atno 17320 bound_to 7965
  146.3373  139.8874  142.8814 LP  0  0  0  0  0  0  0  0  0  0  0  0  # atno 17321 bound_to 7965
  140.4440  144.1946  150.5893 LP  0  0  0  0  0  0  0  0  0  0  0  0  # atno 17342 bound_to 10162
  140.4653  143.2433  151.9163 LP  0  0  0  0  0  0  0  0  0  0  0  0  # atno 17343 bound_to 10162
  157.4063  130.7361  149.6805 LP  0  0  0  0  0  0  0  0  0  0  0  0  # atno 17370 bound_to 10713
  155.9742  130.4107  150.3944 LP  0  0  0  0  0  0  0  0  0  0  0  0  # atno 17371 bound_to 10713
  140.4614  134.1480  155.7192 LP  0  0  0  0  0  0  0  0  0  0  0  0  # atno 17394 bound_to 11000
  141.1687  133.8651  157.1636 LP  0  0  0  0  0  0  0  0  0  0  0  0  # atno 17395 bound_to 11000

$$$$
