AV-unprocessed.smi:101|AV-procd|sdf|924|dock7
  -GOLD-   2262017433D 1   1.00000     0.00000
 Structure written by MMmdl.
 44 46  0  0  0  0  0  0  0  0  1 V2000
  144.0597  145.2507  153.6891 C   0  0  0  0  0  0  0  0  0  0  0  0
  144.7266  144.0007  154.2398 C   0  0  0  0  0  0  0  0  0  0  0  0
  145.7132  143.3478  153.5732 C   0  0  0  0  0  0  0  0  0  0  0  0
  146.3447  142.2043  154.0518 N   0  0  0  0  0  0  0  0  0  0  0  0
  147.4289  141.4726  153.2770 C   0  0  1  0  0  0  0  0  0  0  0  0
  148.6513  141.5878  153.9397 O   0  0  0  0  0  0  0  0  0  0  0  0
  148.8537  140.4414  154.7523 C   0  0  2  0  0  0  0  0  0  0  0  0
  150.3349  140.3073  155.1319 C   0  0  0  0  0  0  0  0  0  0  0  0
  150.6734  141.2644  156.1234 O   0  0  0  0  0  0  0  0  0  0  0  0
  151.6925  141.0312  156.9711 C   0  0  0  0  0  0  0  0  0  0  0  0
  152.4128  140.0325  156.9146 O   0  0  0  0  0  0  0  0  0  0  0  0
  151.8575  142.1106  157.9869 C   0  0  0  0  0  0  0  0  0  0  0  0
  152.5743  141.8404  159.1760 C   0  0  0  0  0  0  0  0  0  0  0  0
  152.7452  142.8399  160.1534 C   0  0  0  0  0  0  0  0  0  0  0  0
  152.2023  144.1224  159.9533 C   0  0  0  0  0  0  0  0  0  0  0  0
  151.4881  144.4044  158.7743 C   0  0  0  0  0  0  0  0  0  0  0  0
  151.3150  143.4058  157.7960 C   0  0  0  0  0  0  0  0  0  0  0  0
  148.2758  139.2950  153.9205 C   0  0  1  0  0  0  0  0  0  0  0  0
  147.8016  138.2687  154.7690 O   0  0  0  0  0  0  0  0  0  0  0  0
  147.1203  139.9574  153.1712 C   0  0  2  0  0  0  0  0  0  0  0  0
  147.0988  139.5226  151.8265 O   0  0  0  0  0  0  0  0  0  0  0  0
  145.9101  141.6450  155.2725 C   0  0  0  0  0  0  0  0  0  0  0  0
  146.3836  140.6073  155.7349 O   0  0  0  0  0  0  0  0  0  0  0  0
  144.9025  142.3178  155.9598 N   0  0  0  0  0  0  0  0  0  0  0  0
  144.2687  143.4862  155.5329 C   0  0  0  0  0  0  0  0  0  0  0  0
  143.3942  143.9934  156.2330 O   0  0  0  0  0  0  0  0  0  0  0  0
  144.6003  141.9241  156.8391 H   0  0  0  0  0  0  0  0  0  0  0  0
  144.4765  145.5427  152.7246 H   0  0  0  0  0  0  0  0  0  0  0  0
  144.1919  146.0870  154.3766 H   0  0  0  0  0  0  0  0  0  0  0  0
  142.9905  145.0839  153.5542 H   0  0  0  0  0  0  0  0  0  0  0  0
  146.0032  143.7534  152.6162 H   0  0  0  0  0  0  0  0  0  0  0  0
  147.4849  141.9941  152.3191 H   0  0  0  0  0  0  0  0  0  0  0  0
  148.2642  140.5644  155.6624 H   0  0  0  0  0  0  0  0  0  0  0  0
  150.5328  139.3021  155.5062 H   0  0  0  0  0  0  0  0  0  0  0  0
  150.9590  140.4570  154.2500 H   0  0  0  0  0  0  0  0  0  0  0  0
  153.0012  140.8634  159.3514 H   0  0  0  0  0  0  0  0  0  0  0  0
  153.2937  142.6217  161.0577 H   0  0  0  0  0  0  0  0  0  0  0  0
  152.3338  144.8887  160.7029 H   0  0  0  0  0  0  0  0  0  0  0  0
  151.0713  145.3886  158.6192 H   0  0  0  0  0  0  0  0  0  0  0  0
  150.7613  143.6559  156.9028 H   0  0  0  0  0  0  0  0  0  0  0  0
  149.0178  138.8998  153.2250 H   0  0  0  0  0  0  0  0  0  0  0  0
  147.3819  137.6113  154.2352 H   0  0  0  0  0  0  0  0  0  0  0  0
  146.1627  139.7331  153.6438 H   0  0  0  0  0  0  0  0  0  0  0  0
  147.9915  139.4341  151.5285 H   0  0  0  0  0  0  0  0  0  0  0  0
  1  2  1  0  0  0  0
  1 28  1  0  0  0  0
  1 29  1  0  0  0  0
  1 30  1  0  0  0  0
  2 25  1  0  0  0  0
  2  3  2  0  0  0  0
  3  4  1  0  0  0  0
  3 31  1  0  0  0  0
  4  5  1  0  0  0  0
  4 22  1  0  0  0  0
  5 20  1  0  0  0  0
  5  6  1  0  0  0  0
  5 32  1  0  0  0  0
  6  7  1  0  0  0  0
  7  8  1  0  0  0  0
  7 18  1  0  0  0  0
  7 33  1  0  0  0  0
  8  9  1  0  0  0  0
  8 34  1  0  0  0  0
  8 35  1  0  0  0  0
  9 10  1  0  0  0  0
 10 11  2  0  0  0  0
 10 12  1  0  0  0  0
 12 17  1  0  0  0  0
 12 13  2  0  0  0  0
 13 14  1  0  0  0  0
 13 36  1  0  0  0  0
 14 15  2  0  0  0  0
 14 37  1  0  0  0  0
 15 16  1  0  0  0  0
 15 38  1  0  0  0  0
 16 17  2  0  0  0  0
 16 39  1  0  0  0  0
 17 40  1  0  0  0  0
 18 19  1  0  0  0  0
 18 20  1  0  0  0  0
 18 41  1  0  0  0  0
 19 42  1  0  0  0  0
 20 21  1  0  0  0  0
 20 43  1  0  0  0  0
 21 44  1  0  0  0  0
 22 23  2  0  0  0  0
 22 24  1  0  0  0  0
 24 27  1  0  0  0  0
 24 25  1  0  0  0  0
 25 26  2  0  0  0  0
M  END
> <s_m_source_file>
AV-unprocessed.smi

> <i_m_source_file_index>
101

> <i_lp_mmshare_version>
43012

> <i_f3d_flags>
0

> <s_epik_input>
Tz1jMVtuSF1jKD1PKW4oW2NIXWMxW0NIM10pW0NAQEhdMk9bQ0BIXShbQ0BASF0oW09IXSlbQ0BIXTJbT0hdKVtDSDJdT0MoPU8pYzNbY0hdW2NIXVtjSF1bY0hdW2NIXTM=

> <s_epik_cmdline>
J2VwaWtfcHl0aG9uJywgJy1waCcsICc3LjAnLCAnLXRuJywgJzgnLCAnLW1hJywgJzIwMCcsICctbWV0YWxfYmluZGluZycsICctaW1hZScsICc8aW5maWxlLm1hZT4nLCAnLW9tYWUnLCAnPG91dGZpbGUubWFlPic=

> <r_lp_tautomer_probability>
0.999537

> <r_epik_Ionization_Penalty>
0.00263537

> <r_epik_Ionization_Penalty_Charging>
0.00263428

> <r_epik_Ionization_Penalty_Neutral>
1.09111e-06

> <r_epik_State_Penalty>
0.00183335

> <r_epik_Charging_Adjusted_Penalty>
0.00446763

> <i_epik_Tot_Q>
0

> <i_epik_Tot_abs_Q>
0

> <r_epik_Metal_State_Penalty>
1.00528

> <b_epik_Metal_Only>
0

> <s_epik_Chemistry_Notes>
This compound has an ester and may undergo hydrolysis at high or low pH. This compound contains an acetal/aminal-like group ( X-CH(R)-Y where X, Y are N, S, or O) that may be acid/base labile, releasing an aldehyde.

> <s_lp_Force_Field>
OPLS_2005

> <r_lp_Energy>
29.5421

> <b_lp_Chiralities_Consistent>
1

> <s_lp_Variant>
AV-unprocessed.smi:101-12

> <Gold.Version>
5.8.1

> <Gold.Id.Protein>
6NUR|6NUR_protein|mol2

> <Gold.PLP.Fitness>
55.0851

> <Gold.PLP.PLP>
-52.0781

> <Gold.PLP.part.hbond>
-3.0000

> <Gold.PLP.part.metal>
0.0000

> <Gold.PLP.part.buried>
-7.6384

> <Gold.PLP.part.nonpolar>
-41.0186

> <Gold.PLP.part.repulsive>
0.3288

> <Gold.PLP.ligand.clash>
3.2565

> <Gold.PLP.ligand.torsion>
0.6131

> <Gold.PLP.Chemscore.Hbond>
2.4740

> <Gold.PLP.Chemscore.CHOScore>
0.0000

> <Gold.PLP.Chemscore.Metal>
0.0000

> <Gold.Chemscore.Hbonds>
donor molecule, donor type, donor heavy atom, donor atom, acceptor molecule, acceptor atom, score
      L1  H    21    44       P1  7957  1.00
      P1  H  7997  8009       L1    11  1.00
      P1  H  8011  8017       L1     6  0.42

> <Gold.PLP.Chemscore.Internal.Correction>
0.0675

> <Gold.Rescore>
     Score         DG    S(hbond)    S(metal)    S(lipo)     H(rot)  DE(clash)    DE(int)     intcor
      9.52     -16.64       1.97        0.00     111.66       3.32       0.29       6.83       ----

> <Gold.Chemscore.Fitness>
9.5182

> <Gold.Chemscore.DG>
-16.6379

> <Gold.Chemscore.ZeroCoef>
-5.4800

> <Gold.Chemscore.Hbond>
1.9717

> <Gold.Chemscore.Metal>
0.0000

> <Gold.Chemscore.Lipo>
111.6636

> <Gold.Chemscore.Internal_Hbond>
0.0000

> <Gold.Chemscore.DEClash>
0.2867

> <Gold.Chemscore.DEInternal>
6.8331

> <Gold.Chemscore.Rot>
3.3172

> <Gold.Chemscore.Internal.Correction>
   9.000000E+99

> <Gold.Chemscore.Hbonds>
donor molecule, donor type, donor heavy atom, donor atom, acceptor molecule, acceptor atom, score
      L1  H    21    44       P1  7957  0.97
      P1  H  7997  8009       L1    11  0.92
      P1  H  8011  8017       L1     6  0.08

> <Gold.Chemscore.Hbond.Weighted>
-6.5853

> <Gold.Chemscore.Metal.Weighted>
-0.0000

> <Gold.Chemscore.Lipo.Weighted>
-13.0646

> <Gold.Chemscore.Internal_Hbond.Weighted>
0.0000

> <Gold.Chemscore.DEClash.Weighted>
0.2867

> <Gold.Chemscore.DEInternal.Weighted>
6.8331

> <Gold.Chemscore.Rot.Weighted>
8.4920

> <Gold.Chemscore.Internal.Correction.Weighted>
   9.000000E+99

> <Gold.Protein.RotatedTorsions>
[ 6907 6896 6895 6894 ] final  119.76 input  -60.11 | X-H torsion
[ 7974 7965 7964 7962 ] final   75.80 input  175.53 | X-H torsion
[ 8008 7997 7996 7995 ] final  173.79 input   59.86 | X-H torsion
[ 10167 10162 10161 10158 ] final   33.57 input  -65.29 | X-H torsion
[ 10718 10713 10712 10709 ] final -107.85 input   66.30 | X-H torsion
[ 10763 10752 10751 10750 ] final  105.59 input  -60.55 | X-H torsion
[ 11005 11000 10999 10996 ] final -106.27 input  -57.11 | X-H torsion

> <Gold.Protein.ActiveResidues>
 VAL166  LYS551  ARG553  GLY616  TRP617  ASP618  TYR619  PRO620  LYS621  CYS622 
 ASP623  PHE694  ASN695  SER759  ASP760  ASP761  ALA762  ILE779  LEU786  VAL792 
 PHE793  MET794  SER795  GLU796  ALA797  LYS798  CYS799  TRP800  GLU811  SER814 

> <Gold.Protein.RotatedAtoms>
  152.4448  133.7516  159.6696 H   0  0  0  0  0  0  0  0  0  0  0  0  # atno 6907 bound_to 6896
  150.8346  133.8025  159.3091 H   0  0  0  0  0  0  0  0  0  0  0  0  # atno 6908 bound_to 6896
  151.5668  135.1066  160.0037 H   0  0  0  0  0  0  0  0  0  0  0  0  # atno 6909 bound_to 6896
  145.7110  139.2615  143.1651 H   0  0  0  0  0  0  0  0  0  0  0  0  # atno 7974 bound_to 7965
  156.1040  140.1451  156.9429 H   0  0  0  0  0  0  0  0  0  0  0  0  # atno 8008 bound_to 7997
  154.4721  140.0906  156.7216 H   0  0  0  0  0  0  0  0  0  0  0  0  # atno 8009 bound_to 7997
  155.4711  140.3442  155.4328 H   0  0  0  0  0  0  0  0  0  0  0  0  # atno 8010 bound_to 7997
  140.4395  144.1209  150.6171 H   0  0  0  0  0  0  0  0  0  0  0  0  # atno 10167 bound_to 10162
  156.0456  130.5683  150.7879 H   0  0  0  0  0  0  0  0  0  0  0  0  # atno 10718 bound_to 10713
  153.3815  135.3905  155.1860 H   0  0  0  0  0  0  0  0  0  0  0  0  # atno 10763 bound_to 10752
  154.8708  135.3726  154.4852 H   0  0  0  0  0  0  0  0  0  0  0  0  # atno 10764 bound_to 10752
  153.5329  135.7085  153.5735 H   0  0  0  0  0  0  0  0  0  0  0  0  # atno 10765 bound_to 10752
  141.1013  133.8879  157.1835 H   0  0  0  0  0  0  0  0  0  0  0  0  # atno 11005 bound_to 11000
  146.0712  140.7866  142.9687 LP  0  0  0  0  0  0  0  0  0  0  0  0  # atno 17320 bound_to 7965
  144.6942  140.3345  143.7210 LP  0  0  0  0  0  0  0  0  0  0  0  0  # atno 17321 bound_to 7965
  140.4335  143.2557  151.9565 LP  0  0  0  0  0  0  0  0  0  0  0  0  # atno 17342 bound_to 10162
  139.4789  144.5721  151.8070 LP  0  0  0  0  0  0  0  0  0  0  0  0  # atno 17343 bound_to 10162
  157.5328  131.0937  150.9932 LP  0  0  0  0  0  0  0  0  0  0  0  0  # atno 17370 bound_to 10713
  157.0234  130.5683  149.5334 LP  0  0  0  0  0  0  0  0  0  0  0  0  # atno 17371 bound_to 10713
  139.9866  135.0080  156.9876 LP  0  0  0  0  0  0  0  0  0  0  0  0  # atno 17394 bound_to 11000
  140.5015  134.1093  155.7251 LP  0  0  0  0  0  0  0  0  0  0  0  0  # atno 17395 bound_to 11000

$$$$
