AV-unprocessed.smi:2124|AV-procd|sdf|8656|dock2
  -GOLD-   2272011403D 1   1.00000     0.00000
 Structure written by MMmdl.
 47 49  0  0  0  0  0  0  0  0  1 V2000
  146.6838  138.3855  151.5935 C   0  0  0  0  0  0  0  0  0  0  0  0
  146.7780  139.2296  152.8467 C   0  0  0  0  0  0  0  0  0  0  0  0
  145.9714  139.1220  153.8504 N   0  0  0  0  0  0  0  0  0  0  0  0
  146.1636  139.9542  154.9618 C   0  0  0  0  0  0  0  0  0  0  0  0
  145.1900  139.7472  156.1091 C   0  0  0  0  0  0  0  0  0  0  0  0
  147.1731  140.8729  155.0028 C   0  0  0  0  0  0  0  0  0  0  0  0
  147.4356  141.7635  156.2183 C   0  0  0  0  0  0  0  0  0  0  0  0
  148.7203  141.4351  156.9791 C   0  0  0  0  0  0  0  0  0  0  0  0
  148.8547  140.3422  157.5283 O   0  0  0  0  0  0  0  0  0  0  0  0
  149.6708  142.3812  156.9580 N   0  0  0  0  0  0  0  0  0  0  0  0
  151.0614  142.2032  157.3598 C   0  0  2  0  0  0  0  0  0  0  0  0
  151.5215  140.7782  157.0156 C   0  0  0  0  0  0  0  0  0  0  0  0
  151.1955  142.5176  158.8689 C   0  0  1  0  0  0  0  0  0  0  0  0
  152.6426  142.7515  159.3561 C   0  0  0  0  0  0  0  0  0  0  0  0
  152.5356  144.0776  160.1332 C   0  0  1  0  0  0  0  0  0  0  0  0
  152.3740  145.2378  159.1334 C   0  0  0  0  0  0  0  0  0  0  0  0
  150.9307  145.0533  158.6308 C   0  0  0  0  0  0  0  0  0  0  0  0
  150.4684  143.7883  159.3825 C   0  0  2  0  0  0  0  0  0  0  0  0
  151.1390  143.9867  160.7372 C   0  0  0  0  0  0  0  0  0  0  0  0
  148.0840  140.9913  153.8474 C   0  0  0  0  0  0  0  0  0  0  0  0
  149.0299  141.7747  153.7829 O   0  0  0  0  0  0  0  0  0  0  0  0
  147.8273  140.1465  152.8240 N   0  0  0  0  0  0  0  0  0  0  0  0
  148.4260  140.1854  152.0119 H   0  0  0  0  0  0  0  0  0  0  0  0
  146.7742  137.3288  151.8461 H   0  0  0  0  0  0  0  0  0  0  0  0
  147.4701  138.6341  150.8794 H   0  0  0  0  0  0  0  0  0  0  0  0
  145.7201  138.5409  151.1081 H   0  0  0  0  0  0  0  0  0  0  0  0
  145.7179  139.4372  157.0109 H   0  0  0  0  0  0  0  0  0  0  0  0
  144.4573  138.9749  155.8721 H   0  0  0  0  0  0  0  0  0  0  0  0
  144.6459  140.6673  156.3226 H   0  0  0  0  0  0  0  0  0  0  0  0
  147.4608  142.8160  155.9335 H   0  0  0  0  0  0  0  0  0  0  0  0
  146.5923  141.6804  156.9046 H   0  0  0  0  0  0  0  0  0  0  0  0
  149.4446  143.2557  156.5064 H   0  0  0  0  0  0  0  0  0  0  0  0
  151.6911  142.9003  156.8046 H   0  0  0  0  0  0  0  0  0  0  0  0
  152.5651  140.6227  157.2892 H   0  0  0  0  0  0  0  0  0  0  0  0
  151.4321  140.5853  155.9460 H   0  0  0  0  0  0  0  0  0  0  0  0
  150.9253  140.0302  157.5393 H   0  0  0  0  0  0  0  0  0  0  0  0
  150.7844  141.6704  159.4213 H   0  0  0  0  0  0  0  0  0  0  0  0
  152.9600  141.9391  160.0109 H   0  0  0  0  0  0  0  0  0  0  0  0
  153.3637  142.8183  158.5407 H   0  0  0  0  0  0  0  0  0  0  0  0
  153.3415  144.2292  160.8516 H   0  0  0  0  0  0  0  0  0  0  0  0
  152.4855  146.2012  159.6319 H   0  0  0  0  0  0  0  0  0  0  0  0
  153.1046  145.1922  158.3249 H   0  0  0  0  0  0  0  0  0  0  0  0
  150.3174  145.9093  158.9154 H   0  0  0  0  0  0  0  0  0  0  0  0
  150.8699  144.9601  157.5473 H   0  0  0  0  0  0  0  0  0  0  0  0
  149.3839  143.6844  159.4304 H   0  0  0  0  0  0  0  0  0  0  0  0
  151.0132  143.1395  161.4136 H   0  0  0  0  0  0  0  0  0  0  0  0
  150.8265  144.9001  161.2468 H   0  0  0  0  0  0  0  0  0  0  0  0
  1  2  1  0  0  0  0
  1 24  1  0  0  0  0
  1 25  1  0  0  0  0
  1 26  1  0  0  0  0
  2 22  1  0  0  0  0
  2  3  2  0  0  0  0
  3  4  1  0  0  0  0
  4  5  1  0  0  0  0
  4  6  2  0  0  0  0
  5 27  1  0  0  0  0
  5 28  1  0  0  0  0
  5 29  1  0  0  0  0
  6  7  1  0  0  0  0
  6 20  1  0  0  0  0
  7  8  1  0  0  0  0
  7 30  1  0  0  0  0
  7 31  1  0  0  0  0
  8  9  2  0  0  0  0
  8 10  1  0  0  0  0
 10 11  1  0  0  0  0
 10 32  1  0  0  0  0
 11 12  1  0  0  0  0
 11 13  1  0  0  0  0
 11 33  1  0  0  0  0
 12 34  1  0  0  0  0
 12 35  1  0  0  0  0
 12 36  1  0  0  0  0
 13 18  1  0  0  0  0
 13 14  1  0  0  0  0
 13 37  1  0  0  0  0
 14 15  1  0  0  0  0
 14 38  1  0  0  0  0
 14 39  1  0  0  0  0
 15 19  1  0  0  0  0
 15 16  1  0  0  0  0
 15 40  1  0  0  0  0
 16 17  1  0  0  0  0
 16 41  1  0  0  0  0
 16 42  1  0  0  0  0
 17 18  1  0  0  0  0
 17 43  1  0  0  0  0
 17 44  1  0  0  0  0
 18 19  1  0  0  0  0
 18 45  1  0  0  0  0
 19 46  1  0  0  0  0
 19 47  1  0  0  0  0
 20 21  2  0  0  0  0
 20 22  1  0  0  0  0
 22 23  1  0  0  0  0
M  END
> <s_m_source_file>
AV-unprocessed.smi

> <i_m_source_file_index>
2124

> <i_lp_mmshare_version>
43012

> <i_f3d_flags>
0

> <s_epik_input>
W0NIM11jMW5jKFtDSDNdKWMoYyg9TylbbkhdMSlbQ0gyXUMoPU8pW05IXVtDQEhdKFtDSDNdKVtDQEhdKFtDSDJdW0NASF0yMylbQ0BIXShbQ0gyXTMpW0NIMl1bQ0gyXTI=

> <s_epik_cmdline>
J2VwaWtfcHl0aG9uJywgJy1waCcsICc3LjAnLCAnLXRuJywgJzgnLCAnLW1hJywgJzIwMCcsICctbWV0YWxfYmluZGluZycsICctaW1hZScsICc8aW5maWxlLm1hZT4nLCAnLW9tYWUnLCAnPG91dGZpbGUubWFlPic=

> <r_lp_tautomer_probability>
0.839158

> <r_epik_Ionization_Penalty>
0.000383628

> <r_epik_Ionization_Penalty_Charging>
0.00035045

> <r_epik_Ionization_Penalty_Neutral>
3.31781e-05

> <r_epik_State_Penalty>
0.09125

> <r_epik_Charging_Adjusted_Penalty>
0.0916005

> <i_epik_Tot_Q>
0

> <i_epik_Tot_abs_Q>
0

> <r_epik_Metal_State_Penalty>
0.255229

> <b_epik_Metal_Only>
0

> <s_lp_Force_Field>
OPLS_2005

> <r_lp_Energy>
50.9321

> <b_lp_Chiralities_Consistent>
1

> <s_lp_Variant>
AV-unprocessed.smi:2124-7

> <Gold.Version>
5.8.1

> <Gold.Id.Protein>
6NUR|6NUR_protein|mol2

> <Gold.PLP.Fitness>
45.8305

> <Gold.PLP.PLP>
-39.2283

> <Gold.PLP.part.hbond>
-3.5482

> <Gold.PLP.part.metal>
0.0000

> <Gold.PLP.part.buried>
-6.4136

> <Gold.PLP.part.nonpolar>
-31.8492

> <Gold.PLP.part.repulsive>
1.2971

> <Gold.PLP.ligand.clash>
0.0000

> <Gold.PLP.ligand.torsion>
0.6737

> <Gold.PLP.Chemscore.Hbond>
2.6400

> <Gold.PLP.Chemscore.CHOScore>
0.0000

> <Gold.PLP.Chemscore.Metal>
0.0000

> <Gold.Chemscore.Hbonds>
donor molecule, donor type, donor heavy atom, donor atom, acceptor molecule, acceptor atom, score
      L1  H    10    32       P1  8028  1.00
      L1  H    22    23       P1  7957  0.80
      P1  H  8011  8017       L1    21  0.59

> <Gold.PLP.Chemscore.Internal.Correction>
0.0297

> <Gold.Rescore>
     Score         DG    S(hbond)    S(metal)    S(lipo)     H(rot)  DE(clash)    DE(int)     intcor
     20.69     -22.95       2.71        0.00     107.96       1.65       0.26       2.00       ----

> <Gold.Chemscore.Fitness>
20.6859

> <Gold.Chemscore.DG>
-22.9451

> <Gold.Chemscore.ZeroCoef>
-5.4800

> <Gold.Chemscore.Hbond>
2.7145

> <Gold.Chemscore.Metal>
0.0000

> <Gold.Chemscore.Lipo>
107.9594

> <Gold.Chemscore.Internal_Hbond>
0.0000

> <Gold.Chemscore.DEClash>
0.2596

> <Gold.Chemscore.DEInternal>
1.9996

> <Gold.Chemscore.Rot>
1.6534

> <Gold.Chemscore.Internal.Correction>
   9.000000E+99

> <Gold.Chemscore.Hbonds>
donor molecule, donor type, donor heavy atom, donor atom, acceptor molecule, acceptor atom, score
      L1  H    10    32       P1  8028  1.00
      L1  H    22    23       P1  7957  0.78
      P1  H  8011  8017       L1    21  0.60

> <Gold.Chemscore.Hbond.Weighted>
-9.0665

> <Gold.Chemscore.Metal.Weighted>
-0.0000

> <Gold.Chemscore.Lipo.Weighted>
-12.6313

> <Gold.Chemscore.Internal_Hbond.Weighted>
0.0000

> <Gold.Chemscore.DEClash.Weighted>
0.2596

> <Gold.Chemscore.DEInternal.Weighted>
1.9996

> <Gold.Chemscore.Rot.Weighted>
4.2326

> <Gold.Chemscore.Internal.Correction.Weighted>
   9.000000E+99

> <Gold.Protein.RotatedTorsions>
[ 6907 6896 6895 6894 ] final    2.23 input  -60.11 | X-H torsion
[ 7974 7965 7964 7962 ] final  108.09 input  175.53 | X-H torsion
[ 8008 7997 7996 7995 ] final -149.33 input   59.86 | X-H torsion
[ 10167 10162 10161 10158 ] final -147.29 input  -65.29 | X-H torsion
[ 10718 10713 10712 10709 ] final  -99.48 input   66.30 | X-H torsion
[ 10763 10752 10751 10750 ] final -164.11 input  -60.55 | X-H torsion
[ 11005 11000 10999 10996 ] final  -29.62 input  -57.11 | X-H torsion

> <Gold.Protein.ActiveResidues>
 VAL166  LYS551  ARG553  GLY616  TRP617  ASP618  TYR619  PRO620  LYS621  CYS622 
 ASP623  PHE694  ASN695  SER759  ASP760  ASP761  ALA762  ILE779  LEU786  VAL792 
 PHE793  MET794  SER795  GLU796  ALA797  LYS798  CYS799  TRP800  GLU811  SER814 

> <Gold.Protein.RotatedAtoms>
  151.6055  135.1044  160.0069 H   0  0  0  0  0  0  0  0  0  0  0  0  # atno 6907 bound_to 6896
  152.4236  133.7153  159.6513 H   0  0  0  0  0  0  0  0  0  0  0  0  # atno 6908 bound_to 6896
  150.8124  133.8325  159.3198 H   0  0  0  0  0  0  0  0  0  0  0  0  # atno 6909 bound_to 6896
  145.2852  139.2619  143.3894 H   0  0  0  0  0  0  0  0  0  0  0  0  # atno 7974 bound_to 7965
  155.6059  140.0666  157.2720 H   0  0  0  0  0  0  0  0  0  0  0  0  # atno 8008 bound_to 7997
  154.4266  140.1810  156.1269 H   0  0  0  0  0  0  0  0  0  0  0  0  # atno 8009 bound_to 7997
  156.0123  140.3325  155.6957 H   0  0  0  0  0  0  0  0  0  0  0  0  # atno 8010 bound_to 7997
  139.7635  143.8342  152.2611 H   0  0  0  0  0  0  0  0  0  0  0  0  # atno 10167 bound_to 10162
  156.0135  130.5284  150.6676 H   0  0  0  0  0  0  0  0  0  0  0  0  # atno 10718 bound_to 10713
  154.7060  135.2997  154.9270 H   0  0  0  0  0  0  0  0  0  0  0  0  # atno 10763 bound_to 10752
  154.0187  135.6685  153.4775 H   0  0  0  0  0  0  0  0  0  0  0  0  # atno 10764 bound_to 10752
  153.0717  135.5057  154.8230 H   0  0  0  0  0  0  0  0  0  0  0  0  # atno 10765 bound_to 10752
  140.9312  133.7337  156.0939 H   0  0  0  0  0  0  0  0  0  0  0  0  # atno 11005 bound_to 11000
  146.3203  140.3329  142.8642 LP  0  0  0  0  0  0  0  0  0  0  0  0  # atno 17320 bound_to 7965
  144.9220  140.7878  143.5742 LP  0  0  0  0  0  0  0  0  0  0  0  0  # atno 17321 bound_to 7965
  139.8355  144.7234  150.9396 LP  0  0  0  0  0  0  0  0  0  0  0  0  # atno 17342 bound_to 10162
  140.7809  143.4031  151.1116 LP  0  0  0  0  0  0  0  0  0  0  0  0  # atno 17343 bound_to 10162
  157.4405  131.0860  151.0948 LP  0  0  0  0  0  0  0  0  0  0  0  0  # atno 17370 bound_to 10713
  157.1494  130.6177  149.5578 LP  0  0  0  0  0  0  0  0  0  0  0  0  # atno 17371 bound_to 10713
  140.7860  134.3672  157.5476 LP  0  0  0  0  0  0  0  0  0  0  0  0  # atno 17394 bound_to 11000
  139.8797  134.9111  156.3028 LP  0  0  0  0  0  0  0  0  0  0  0  0  # atno 17395 bound_to 11000

$$$$
