AV-unprocessed.smi:3085|AV-procd|sdf|11762|dock5
  -GOLD-   2272017143D 1   1.00000     0.00000
 Structure written by MMmdl.
 26 27  0  0  0  0  0  0  0  0  2 V2000
  152.7396  138.7281  154.2452 C   0  0  0  0  0  0  0  0  0  0  0  0
  151.4801  139.2671  154.9313 C   0  0  0  0  0  0  0  0  0  0  0  0
  151.7995  139.9922  156.2201 C   0  0  0  0  0  0  0  0  0  0  0  0
  151.1707  141.0675  156.6831 N   0  0  0  0  0  0  0  0  0  0  0  0
  151.7554  141.3570  157.8552 C   0  0  0  0  0  0  0  0  0  0  0  0
  151.3511  142.4982  158.7676 C   0  0  2  0  0  0  0  0  0  0  0  0
  150.2059  143.3250  158.1480 C   0  0  0  0  0  0  0  0  0  0  0  0
  149.8285  144.4284  159.0315 N   0  0  0  0  0  0  0  0  0  0  0  0
  150.9841  145.2569  159.3676 C   0  0  0  0  0  0  0  0  0  0  0  0
  152.1083  144.3895  159.9591 C   0  0  0  0  0  0  0  0  0  0  0  0
  152.4525  143.3645  159.0342 O   0  0  0  0  0  0  0  0  0  0  0  0
  152.7150  140.4626  158.1389 N   0  0  0  0  0  0  0  0  0  0  0  0
  152.7298  139.6274  157.1200 N   0  5  0  0  0  0  0  0  0  0  0  0
  152.4871  138.2045  153.3233 H   0  0  0  0  0  0  0  0  0  0  0  0
  153.2685  138.0287  154.8931 H   0  0  0  0  0  0  0  0  0  0  0  0
  153.4259  139.5371  153.9937 H   0  0  0  0  0  0  0  0  0  0  0  0
  150.9538  139.9502  154.2637 H   0  0  0  0  0  0  0  0  0  0  0  0
  150.7939  138.4479  155.1488 H   0  0  0  0  0  0  0  0  0  0  0  0
  151.0173  142.0553  159.7082 H   0  0  0  0  0  0  0  0  0  0  0  0
  150.5191  143.7165  157.1791 H   0  0  0  0  0  0  0  0  0  0  0  0
  149.3415  142.6871  157.9626 H   0  0  0  0  0  0  0  0  0  0  0  0
  149.1221  144.9981  158.5774 H   0  0  0  0  0  0  0  0  0  0  0  0
  151.3469  145.7675  158.4750 H   0  0  0  0  0  0  0  0  0  0  0  0
  150.6952  146.0320  160.0775 H   0  0  0  0  0  0  0  0  0  0  0  0
  152.9902  145.0001  160.1522 H   0  0  0  0  0  0  0  0  0  0  0  0
  151.8078  143.9533  160.9132 H   0  0  0  0  0  0  0  0  0  0  0  0
  1  2  1  0  0  0  0
  1 14  1  0  0  0  0
  1 15  1  0  0  0  0
  1 16  1  0  0  0  0
  2  3  1  0  0  0  0
  2 17  1  0  0  0  0
  2 18  1  0  0  0  0
  3 13  1  0  0  0  0
  3  4  2  0  0  0  0
  4  5  1  0  0  0  0
  5  6  1  0  0  0  0
  5 12  2  0  0  0  0
  6 11  1  0  0  0  0
  6  7  1  0  0  0  0
  6 19  1  0  0  0  0
  7  8  1  0  0  0  0
  7 20  1  0  0  0  0
  7 21  1  0  0  0  0
  8  9  1  0  0  0  0
  8 22  1  0  0  0  0
  9 10  1  0  0  0  0
  9 23  1  0  0  0  0
  9 24  1  0  0  0  0
 10 11  1  0  0  0  0
 10 25  1  0  0  0  0
 10 26  1  0  0  0  0
 12 13  1  0  0  0  0
M  CHG  1  13  -1
M  END
> <s_m_source_file>
AV-unprocessed.smi

> <i_m_source_file_index>
3085

> <i_lp_mmshare_version>
43012

> <i_f3d_flags>
0

> <s_epik_input>
W0NIM11bQ0gyXWMxbmMobltuSF0xKVtDQEBIXTJbQ0gyXVtOSF1bQ0gyXVtDSDJdTzI=

> <s_epik_cmdline>
J2VwaWtfcHl0aG9uJywgJy1waCcsICc3LjAnLCAnLXRuJywgJzgnLCAnLW1hJywgJzIwMCcsICctbWV0YWxfYmluZGluZycsICctaW1hZScsICc8aW5maWxlLm1hZT4nLCAnLW9tYWUnLCAnPG91dGZpbGUubWFlPic=

> <r_lp_tautomer_probability>
0.948284

> <r_epik_Ionization_Penalty>
17.858

> <r_epik_Ionization_Penalty_Charging>
16.2847

> <r_epik_Ionization_Penalty_Neutral>
1.5733

> <r_epik_State_Penalty>
7.01418

> <r_epik_Charging_Adjusted_Penalty>
23.2989

> <i_epik_Tot_Q>
-1

> <i_epik_Tot_abs_Q>
1

> <r_epik_Metal_State_Penalty>
3.17281

> <b_epik_Metal_Only>
1

> <s_lp_Force_Field>
OPLS_2005

> <r_lp_Energy>
10.8419

> <b_lp_Chiralities_Consistent>
1

> <s_lp_Variant>
AV-unprocessed.smi:3085-13

> <Gold.Version>
5.8.1

> <Gold.Id.Protein>
6NUR|6NUR_protein|mol2

> <Gold.PLP.Fitness>
34.1454

> <Gold.PLP.PLP>
-25.8182

> <Gold.PLP.part.hbond>
-2.6378

> <Gold.PLP.part.metal>
0.0000

> <Gold.PLP.part.buried>
-4.3775

> <Gold.PLP.part.nonpolar>
-19.3986

> <Gold.PLP.part.repulsive>
0.0214

> <Gold.PLP.ligand.clash>
0.0000

> <Gold.PLP.ligand.torsion>
0.3310

> <Gold.PLP.Chemscore.Hbond>
2.9913

> <Gold.PLP.Chemscore.CHOScore>
0.0000

> <Gold.PLP.Chemscore.Metal>
0.0000

> <Gold.Chemscore.Hbonds>
donor molecule, donor type, donor heavy atom, donor atom, acceptor molecule, acceptor atom, score
      L1  H     8    22       P1  8029  1.00
      P1  H  7997  8010       L1    13  1.40

> <Gold.PLP.Chemscore.Internal.Correction>
0.0154

> <Gold.Rescore>
     Score         DG    S(hbond)    S(metal)    S(lipo)     H(rot)  DE(clash)    DE(int)     intcor
     11.86     -12.18       0.95        0.00      57.64       1.26       0.00       0.31       ----

> <Gold.Chemscore.Fitness>
11.8641

> <Gold.Chemscore.DG>
-12.1767

> <Gold.Chemscore.ZeroCoef>
-5.4800

> <Gold.Chemscore.Hbond>
0.9538

> <Gold.Chemscore.Metal>
0.0000

> <Gold.Chemscore.Lipo>
57.6422

> <Gold.Chemscore.Internal_Hbond>
0.0000

> <Gold.Chemscore.DEClash>
0.0015

> <Gold.Chemscore.DEInternal>
0.3111

> <Gold.Chemscore.Rot>
1.2630

> <Gold.Chemscore.Internal.Correction>
   9.000000E+99

> <Gold.Chemscore.Hbonds>
donor molecule, donor type, donor heavy atom, donor atom, acceptor molecule, acceptor atom, score
      L1  H     8    22       P1  8029  0.83
      P1  H  7997  8010       L1    13  0.06

> <Gold.Chemscore.Hbond.Weighted>
-3.1858

> <Gold.Chemscore.Metal.Weighted>
-0.0000

> <Gold.Chemscore.Lipo.Weighted>
-6.7441

> <Gold.Chemscore.Internal_Hbond.Weighted>
0.0000

> <Gold.Chemscore.DEClash.Weighted>
0.0015

> <Gold.Chemscore.DEInternal.Weighted>
0.3111

> <Gold.Chemscore.Rot.Weighted>
3.2333

> <Gold.Chemscore.Internal.Correction.Weighted>
   9.000000E+99

> <Gold.Protein.RotatedTorsions>
[ 6907 6896 6895 6894 ] final   94.32 input  -60.11 | X-H torsion
[ 7974 7965 7964 7962 ] final  -73.04 input  175.53 | X-H torsion
[ 8008 7997 7996 7995 ] final   61.89 input   59.86 | X-H torsion
[ 10167 10162 10161 10158 ] final  -39.83 input  -65.29 | X-H torsion
[ 10718 10713 10712 10709 ] final -112.06 input   66.30 | X-H torsion
[ 10763 10752 10751 10750 ] final  160.91 input  -60.55 | X-H torsion
[ 11005 11000 10999 10996 ] final   27.76 input  -57.11 | X-H torsion

> <Gold.Protein.ActiveResidues>
 VAL166  LYS551  ARG553  GLY616  TRP617  ASP618  TYR619  PRO620  LYS621  CYS622 
 ASP623  PHE694  ASN695  SER759  ASP760  ASP761  ALA762  ILE779  LEU786  VAL792 
 PHE793  MET794  SER795  GLU796  ALA797  LYS798  CYS799  TRP800  GLU811  SER814 

> <Gold.Protein.RotatedAtoms>
  152.5450  134.1212  159.8399 H   0  0  0  0  0  0  0  0  0  0  0  0  # atno 6907 bound_to 6896
  151.1268  133.5058  159.2608 H   0  0  0  0  0  0  0  0  0  0  0  0  # atno 6908 bound_to 6896
  151.1719  135.0331  159.8810 H   0  0  0  0  0  0  0  0  0  0  0  0  # atno 6909 bound_to 6896
  145.6574  140.9264  143.0952 H   0  0  0  0  0  0  0  0  0  0  0  0  # atno 7974 bound_to 7965
  155.6056  140.3494  155.4607 H   0  0  0  0  0  0  0  0  0  0  0  0  # atno 8008 bound_to 7997
  156.0194  140.1250  157.0397 H   0  0  0  0  0  0  0  0  0  0  0  0  # atno 8009 bound_to 7997
  154.4309  140.1065  156.5928 H   0  0  0  0  0  0  0  0  0  0  0  0  # atno 8010 bound_to 7997
  140.7052  143.3190  151.2839 H   0  0  0  0  0  0  0  0  0  0  0  0  # atno 10167 bound_to 10162
  156.0683  130.5900  150.8458 H   0  0  0  0  0  0  0  0  0  0  0  0  # atno 10718 bound_to 10713
  154.2548  135.2770  155.2802 H   0  0  0  0  0  0  0  0  0  0  0  0  # atno 10763 bound_to 10752
  154.5434  135.5696  153.6862 H   0  0  0  0  0  0  0  0  0  0  0  0  # atno 10764 bound_to 10752
  152.9973  135.6257  154.2696 H   0  0  0  0  0  0  0  0  0  0  0  0  # atno 10765 bound_to 10752
  140.3229  134.2524  155.7714 H   0  0  0  0  0  0  0  0  0  0  0  0  # atno 11005 bound_to 11000
  144.7101  139.8404  143.7417 LP  0  0  0  0  0  0  0  0  0  0  0  0  # atno 17320 bound_to 7965
  146.1154  139.4164  143.0261 LP  0  0  0  0  0  0  0  0  0  0  0  0  # atno 17321 bound_to 7965
  139.6638  144.0142  152.2709 LP  0  0  0  0  0  0  0  0  0  0  0  0  # atno 17342 bound_to 10162
  139.9718  144.6488  150.7982 LP  0  0  0  0  0  0  0  0  0  0  0  0  # atno 17343 bound_to 10162
  157.5739  131.0946  150.9375 LP  0  0  0  0  0  0  0  0  0  0  0  0  # atno 17370 bound_to 10713
  156.9585  130.5446  149.5285 LP  0  0  0  0  0  0  0  0  0  0  0  0  # atno 17371 bound_to 10713
  141.2082  133.7783  157.0072 LP  0  0  0  0  0  0  0  0  0  0  0  0  # atno 17394 bound_to 11000
  140.0927  134.9583  157.1801 LP  0  0  0  0  0  0  0  0  0  0  0  0  # atno 17395 bound_to 11000

$$$$
