AV-unprocessed.smi:3017|AV-procd|sdf|11475|dock4
  -GOLD-   2272016413D 1   1.00000     0.00000
 Structure written by MMmdl.
 37 38  0  0  0  0  0  0  0  0  1 V2000
  151.8613  145.7378  159.9239 C   0  0  0  0  0  0  0  0  0  0  0  0
  151.9868  144.2157  160.0806 C   0  0  2  0  0  0  0  0  0  0  0  0
  152.4160  143.8289  161.5088 C   0  0  0  0  0  0  0  0  0  0  0  0
  152.5499  142.3058  161.6653 C   0  0  0  0  0  0  0  0  0  0  0  0
  153.5203  141.7213  160.6265 C   0  0  0  0  0  0  0  0  0  0  0  0
  153.1062  142.0938  159.1876 C   0  0  1  0  0  0  0  0  0  0  0  0
  151.8565  141.5095  158.8412 O   0  0  0  0  0  0  0  0  0  0  0  0
  151.8764  140.7051  157.6695 C   0  0  0  0  0  0  0  0  0  0  0  0
  150.5327  140.8345  156.9526 C   0  0  0  0  0  0  0  0  0  0  0  0
  149.6373  141.5041  157.4672 O   0  0  0  0  0  0  0  0  0  0  0  0
  150.4185  140.1718  155.7860 N   0  0  0  0  0  0  0  0  0  0  0  0
  149.3084  140.1333  154.9026 C   0  0  0  0  0  0  0  0  0  0  0  0
  148.5568  141.3283  154.8086 C   0  0  0  0  0  0  0  0  0  0  0  0
  147.4692  141.4454  154.0146 N   0  0  0  0  0  0  0  0  0  0  0  0
  147.1226  140.3532  153.3008 C   0  0  0  0  0  0  0  0  0  0  0  0
  147.8598  139.1550  153.3811 C   0  0  0  0  0  0  0  0  0  0  0  0
  148.9460  139.0447  154.1766 N   0  0  0  0  0  0  0  0  0  0  0  0
  152.9611  143.6201  159.0430 C   0  0  0  0  0  0  0  0  0  0  0  0
  152.8173  146.2347  160.0922 H   0  0  0  0  0  0  0  0  0  0  0  0
  151.1427  146.1475  160.6344 H   0  0  0  0  0  0  0  0  0  0  0  0
  151.5198  146.0016  158.9225 H   0  0  0  0  0  0  0  0  0  0  0  0
  150.9990  143.7890  159.9004 H   0  0  0  0  0  0  0  0  0  0  0  0
  153.3686  144.3028  161.7490 H   0  0  0  0  0  0  0  0  0  0  0  0
  151.6922  144.2074  162.2314 H   0  0  0  0  0  0  0  0  0  0  0  0
  152.8950  142.0659  162.6713 H   0  0  0  0  0  0  0  0  0  0  0  0
  151.5706  141.8381  161.5560 H   0  0  0  0  0  0  0  0  0  0  0  0
  154.5220  142.1074  160.8194 H   0  0  0  0  0  0  0  0  0  0  0  0
  153.5903  140.6410  160.7477 H   0  0  0  0  0  0  0  0  0  0  0  0
  153.8706  141.7565  158.4854 H   0  0  0  0  0  0  0  0  0  0  0  0
  152.6706  141.0313  156.9966 H   0  0  0  0  0  0  0  0  0  0  0  0
  152.0539  139.6580  157.9148 H   0  0  0  0  0  0  0  0  0  0  0  0
  151.2312  139.6505  155.4903 H   0  0  0  0  0  0  0  0  0  0  0  0
  148.8294  142.2047  155.3786 H   0  0  0  0  0  0  0  0  0  0  0  0
  146.2546  140.4348  152.6635 H   0  0  0  0  0  0  0  0  0  0  0  0
  147.5777  138.2844  152.8076 H   0  0  0  0  0  0  0  0  0  0  0  0
  152.6263  143.8615  158.0334 H   0  0  0  0  0  0  0  0  0  0  0  0
  153.9414  144.0847  159.1580 H   0  0  0  0  0  0  0  0  0  0  0  0
  1  2  1  0  0  0  0
  1 19  1  0  0  0  0
  1 20  1  0  0  0  0
  1 21  1  0  0  0  0
  2 18  1  0  0  0  0
  2  3  1  0  0  0  0
  2 22  1  0  0  0  0
  3  4  1  0  0  0  0
  3 23  1  0  0  0  0
  3 24  1  0  0  0  0
  4  5  1  0  0  0  0
  4 25  1  0  0  0  0
  4 26  1  0  0  0  0
  5  6  1  0  0  0  0
  5 27  1  0  0  0  0
  5 28  1  0  0  0  0
  6  7  1  0  0  0  0
  6 18  1  0  0  0  0
  6 29  1  0  0  0  0
  7  8  1  0  0  0  0
  8  9  1  0  0  0  0
  8 30  1  0  0  0  0
  8 31  1  0  0  0  0
  9 10  2  0  0  0  0
  9 11  1  0  0  0  0
 11 12  1  0  0  0  0
 11 32  1  0  0  0  0
 12 17  1  0  0  0  0
 12 13  2  0  0  0  0
 13 14  1  0  0  0  0
 13 33  1  0  0  0  0
 14 15  2  0  0  0  0
 15 16  1  0  0  0  0
 15 34  1  0  0  0  0
 16 17  2  0  0  0  0
 16 35  1  0  0  0  0
 18 36  1  0  0  0  0
 18 37  1  0  0  0  0
M  END
> <s_m_source_file>
AV-unprocessed.smi

> <i_m_source_file_index>
3017

> <i_lp_mmshare_version>
43012

> <i_f3d_flags>
0

> <s_epik_input>
W0NIM11bQ0BASF0xW0NIMl1bQ0gyXVtDSDJdW0NASF0oW0NIMl0xKU9bQ0gyXUMoPU8pW05IXWMyW2NIXW5bY0hdW2NIXW4y

> <s_epik_cmdline>
J2VwaWtfcHl0aG9uJywgJy1waCcsICc3LjAnLCAnLXRuJywgJzgnLCAnLW1hJywgJzIwMCcsICctbWV0YWxfYmluZGluZycsICctaW1hZScsICc8aW5maWxlLm1hZT4nLCAnLW9tYWUnLCAnPG91dGZpbGUubWFlPic=

> <r_lp_tautomer_probability>
1

> <r_epik_Ionization_Penalty>
2.89243e-06

> <r_epik_Ionization_Penalty_Charging>
0

> <r_epik_Ionization_Penalty_Neutral>
2.89243e-06

> <r_epik_State_Penalty>
-0

> <r_epik_Charging_Adjusted_Penalty>
0

> <i_epik_Tot_Q>
0

> <i_epik_Tot_abs_Q>
0

> <r_epik_Metal_State_Penalty>
-0

> <b_epik_Metal_Only>
0

> <s_lp_Force_Field>
OPLS_2005

> <r_lp_Energy>
20.5488

> <b_lp_Chiralities_Consistent>
1

> <s_lp_Variant>
AV-unprocessed.smi:3017-1

> <Gold.Version>
5.8.1

> <Gold.Id.Protein>
6NUR|6NUR_protein|mol2

> <Gold.PLP.Fitness>
45.4117

> <Gold.PLP.PLP>
-39.8084

> <Gold.PLP.part.hbond>
0.0000

> <Gold.PLP.part.metal>
0.0000

> <Gold.PLP.part.buried>
-4.6876

> <Gold.PLP.part.nonpolar>
-36.2004

> <Gold.PLP.part.repulsive>
0.4889

> <Gold.PLP.ligand.clash>
0.0000

> <Gold.PLP.ligand.torsion>
1.2149

> <Gold.PLP.Chemscore.Hbond>
0.0000

> <Gold.PLP.Chemscore.CHOScore>
2.6748

> <Gold.PLP.Chemscore.Metal>
0.0000

> <Gold.Chemscore.Hbonds>
donor molecule, donor type, donor heavy atom, donor atom, acceptor molecule, acceptor atom, score
      L1  C    13    33       P1  8028  1.00
      L1  C    15    34       P1 10175  0.90
      L1  C    16    35       P1  7948  0.75

> <Gold.PLP.Chemscore.Internal.Correction>
0.0089

> <Gold.Rescore>
     Score         DG    S(hbond)    S(metal)    S(lipo)     H(rot)  DE(clash)    DE(int)     intcor
     12.07     -14.55       0.00        0.00     110.63       1.51       0.01       2.47       ----

> <Gold.Chemscore.Fitness>
12.0683

> <Gold.Chemscore.DG>
-14.5529

> <Gold.Chemscore.ZeroCoef>
-5.4800

> <Gold.Chemscore.Hbond>
0.0000

> <Gold.Chemscore.Metal>
0.0000

> <Gold.Chemscore.Lipo>
110.6281

> <Gold.Chemscore.Internal_Hbond>
0.0000

> <Gold.Chemscore.DEClash>
0.0137

> <Gold.Chemscore.DEInternal>
2.4709

> <Gold.Chemscore.Rot>
1.5119

> <Gold.Chemscore.Internal.Correction>
   9.000000E+99

> <Gold.Chemscore.Hbond.Weighted>
-0.0000

> <Gold.Chemscore.Metal.Weighted>
-0.0000

> <Gold.Chemscore.Lipo.Weighted>
-12.9435

> <Gold.Chemscore.Internal_Hbond.Weighted>
0.0000

> <Gold.Chemscore.DEClash.Weighted>
0.0137

> <Gold.Chemscore.DEInternal.Weighted>
2.4709

> <Gold.Chemscore.Rot.Weighted>
3.8706

> <Gold.Chemscore.Internal.Correction.Weighted>
   9.000000E+99

> <Gold.Protein.RotatedTorsions>
[ 6907 6896 6895 6894 ] final  -21.75 input  -60.11 | X-H torsion
[ 7974 7965 7964 7962 ] final -132.15 input  175.53 | X-H torsion
[ 8008 7997 7996 7995 ] final  -16.77 input   59.86 | X-H torsion
[ 10167 10162 10161 10158 ] final  -60.00 input  -65.29 | X-H torsion
[ 10718 10713 10712 10709 ] final   63.26 input   66.30 | X-H torsion
[ 10763 10752 10751 10750 ] final  -28.62 input  -60.55 | X-H torsion
[ 11005 11000 10999 10996 ] final  -73.94 input  -57.11 | X-H torsion

> <Gold.Protein.ActiveResidues>
 VAL166  LYS551  ARG553  GLY616  TRP617  ASP618  TYR619  PRO620  LYS621  CYS622 
 ASP623  PHE694  ASN695  SER759  ASP760  ASP761  ALA762  ILE779  LEU786  VAL792 
 PHE793  MET794  SER795  GLU796  ALA797  LYS798  CYS799  TRP800  GLU811  SER814 

> <Gold.Protein.RotatedAtoms>
  151.2287  135.0546  159.8978 H   0  0  0  0  0  0  0  0  0  0  0  0  # atno 6907 bound_to 6896
  152.5407  134.0561  159.8141 H   0  0  0  0  0  0  0  0  0  0  0  0  # atno 6908 bound_to 6896
  151.0737  133.5396  159.2657 H   0  0  0  0  0  0  0  0  0  0  0  0  # atno 6909 bound_to 6896
  144.9312  140.7131  143.4905 H   0  0  0  0  0  0  0  0  0  0  0  0  # atno 7974 bound_to 7965
  154.5028  140.2160  155.9313 H   0  0  0  0  0  0  0  0  0  0  0  0  # atno 8008 bound_to 7997
  156.1455  140.3171  155.8530 H   0  0  0  0  0  0  0  0  0  0  0  0  # atno 8009 bound_to 7997
  155.4039  140.0486  157.3026 H   0  0  0  0  0  0  0  0  0  0  0  0  # atno 8010 bound_to 7997
  140.6099  143.2384  151.5733 H   0  0  0  0  0  0  0  0  0  0  0  0  # atno 10167 bound_to 10162
  157.5959  130.9095  149.9693 H   0  0  0  0  0  0  0  0  0  0  0  0  # atno 10718 bound_to 10713
  153.7513  135.6926  153.4945 H   0  0  0  0  0  0  0  0  0  0  0  0  # atno 10763 bound_to 10752
  153.2002  135.4439  155.0255 H   0  0  0  0  0  0  0  0  0  0  0  0  # atno 10764 bound_to 10752
  154.8186  135.3411  154.7033 H   0  0  0  0  0  0  0  0  0  0  0  0  # atno 10765 bound_to 10752
  141.1629  133.6894  156.7288 H   0  0  0  0  0  0  0  0  0  0  0  0  # atno 11005 bound_to 11000
  145.3139  139.1810  143.4624 LP  0  0  0  0  0  0  0  0  0  0  0  0  # atno 17320 bound_to 7965
  146.3248  140.3147  142.8629 LP  0  0  0  0  0  0  0  0  0  0  0  0  # atno 17321 bound_to 7965
  139.5353  144.2797  152.1239 LP  0  0  0  0  0  0  0  0  0  0  0  0  # atno 17342 bound_to 10162
  140.1995  144.4672  150.6438 LP  0  0  0  0  0  0  0  0  0  0  0  0  # atno 17343 bound_to 10162
  156.1021  130.3655  150.0199 LP  0  0  0  0  0  0  0  0  0  0  0  0  # atno 17370 bound_to 10713
  156.8313  130.9393  151.3637 LP  0  0  0  0  0  0  0  0  0  0  0  0  # atno 17371 bound_to 10713
  140.2761  134.8354  157.3891 LP  0  0  0  0  0  0  0  0  0  0  0  0  # atno 17394 bound_to 11000
  140.1476  134.4891  155.7984 LP  0  0  0  0  0  0  0  0  0  0  0  0  # atno 17395 bound_to 11000

$$$$
