AV-unprocessed.smi:926|AV-procd|sdf|4185|dock6
  -GOLD-   22720 2 93D 1   1.00000     0.00000
 Structure written by MMmdl.
 37 39  0  0  0  0  0  0  0  0  1 V2000
  149.0543  141.6974  154.0781 O   0  0  0  0  0  0  0  0  0  0  0  0
  149.2847  140.6625  154.7033 C   0  0  0  0  0  0  0  0  0  0  0  0
  149.3406  139.3236  153.9674 C   0  0  0  0  0  0  0  0  0  0  0  0
  150.5213  138.5727  154.3482 N   0  0  0  0  0  0  0  0  0  0  0  0
  150.7308  137.2583  154.4480 C   0  0  0  0  0  0  0  0  0  0  0  0
  151.9672  136.9889  154.8392 N   0  0  0  0  0  0  0  0  0  0  0  0
  152.5323  138.2450  154.9833 N   0  0  0  0  0  0  0  0  0  0  0  0
  151.6789  139.1889  154.6945 N   0  0  0  0  0  0  0  0  0  0  0  0
  149.4919  140.6282  156.0288 N   0  0  0  0  0  0  0  0  0  0  0  0
  149.4803  141.7907  156.9089 C   0  0  0  0  0  0  0  0  0  0  0  0
  150.9042  142.3029  157.1876 C   0  0  0  0  0  0  0  0  0  0  0  0
  151.0518  142.9380  158.5844 C   0  0  2  0  0  0  0  0  0  0  0  0
  150.4634  144.3649  158.6882 C   0  0  0  0  0  0  0  0  0  0  0  0
  151.6483  145.1956  159.2132 C   0  0  1  0  0  0  0  0  0  0  0  0
  151.9489  144.8025  160.6715 C   0  0  0  0  0  0  0  0  0  0  0  0
  152.5828  143.4065  160.5218 C   0  0  0  0  0  0  0  0  0  0  0  0
  152.5234  143.1682  159.0006 C   0  0  2  0  0  0  0  0  0  0  0  0
  152.8172  144.5670  158.4661 C   0  0  0  0  0  0  0  0  0  0  0  0
  148.4558  138.7344  154.2123 H   0  0  0  0  0  0  0  0  0  0  0  0
  149.3388  139.4726  152.8862 H   0  0  0  0  0  0  0  0  0  0  0  0
  149.9840  136.5068  154.2377 H   0  0  0  0  0  0  0  0  0  0  0  0
  149.6699  139.7322  156.4593 H   0  0  0  0  0  0  0  0  0  0  0  0
  148.8880  142.5677  156.4258 H   0  0  0  0  0  0  0  0  0  0  0  0
  148.9700  141.5509  157.8433 H   0  0  0  0  0  0  0  0  0  0  0  0
  151.6027  141.4689  157.1077 H   0  0  0  0  0  0  0  0  0  0  0  0
  151.1961  143.0159  156.4160 H   0  0  0  0  0  0  0  0  0  0  0  0
  150.5696  142.2792  159.3083 H   0  0  0  0  0  0  0  0  0  0  0  0
  150.1497  144.7395  157.7130 H   0  0  0  0  0  0  0  0  0  0  0  0
  149.5992  144.4094  159.3520 H   0  0  0  0  0  0  0  0  0  0  0  0
  151.5295  146.2691  159.0642 H   0  0  0  0  0  0  0  0  0  0  0  0
  152.6557  145.4982  161.1255 H   0  0  0  0  0  0  0  0  0  0  0  0
  151.0492  144.7877  161.2878 H   0  0  0  0  0  0  0  0  0  0  0  0
  153.6162  143.4167  160.8705 H   0  0  0  0  0  0  0  0  0  0  0  0
  152.0492  142.6417  161.0874 H   0  0  0  0  0  0  0  0  0  0  0  0
  153.2088  142.3910  158.6604 H   0  0  0  0  0  0  0  0  0  0  0  0
  152.7334  144.6491  157.3815 H   0  0  0  0  0  0  0  0  0  0  0  0
  153.7884  144.9551  158.7785 H   0  0  0  0  0  0  0  0  0  0  0  0
  1  2  2  0  0  0  0
  2  3  1  0  0  0  0
  2  9  1  0  0  0  0
  3  4  1  0  0  0  0
  3 19  1  0  0  0  0
  3 20  1  0  0  0  0
  4  8  1  0  0  0  0
  4  5  1  0  0  0  0
  5  6  2  0  0  0  0
  5 21  1  0  0  0  0
  6  7  1  0  0  0  0
  7  8  2  0  0  0  0
  9 10  1  0  0  0  0
  9 22  1  0  0  0  0
 10 11  1  0  0  0  0
 10 23  1  0  0  0  0
 10 24  1  0  0  0  0
 11 12  1  0  0  0  0
 11 25  1  0  0  0  0
 11 26  1  0  0  0  0
 12 17  1  0  0  0  0
 12 13  1  0  0  0  0
 12 27  1  0  0  0  0
 13 14  1  0  0  0  0
 13 28  1  0  0  0  0
 13 29  1  0  0  0  0
 14 18  1  0  0  0  0
 14 15  1  0  0  0  0
 14 30  1  0  0  0  0
 15 16  1  0  0  0  0
 15 31  1  0  0  0  0
 15 32  1  0  0  0  0
 16 17  1  0  0  0  0
 16 33  1  0  0  0  0
 16 34  1  0  0  0  0
 17 18  1  0  0  0  0
 17 35  1  0  0  0  0
 18 36  1  0  0  0  0
 18 37  1  0  0  0  0
M  END
> <s_m_source_file>
AV-unprocessed.smi

> <i_m_source_file_index>
926

> <i_lp_mmshare_version>
43012

> <i_f3d_flags>
0

> <s_epik_input>
bjFubltjSF1uMVtDSDJdQyg9TylbTkhdW0NIMl1bQ0gyXVtDQEhdKFtDSDJdW0NASF0yMylbQ0BIXShbQ0gyXTMpW0NIMl1bQ0gyXTI=

> <s_epik_cmdline>
J2VwaWtfcHl0aG9uJywgJy1waCcsICc3LjAnLCAnLXRuJywgJzgnLCAnLW1hJywgJzIwMCcsICctbWV0YWxfYmluZGluZycsICctaW1hZScsICc8aW5maWxlLm1hZT4nLCAnLW9tYWUnLCAnPG91dGZpbGUubWFlPic=

> <r_lp_tautomer_probability>
1

> <r_epik_Ionization_Penalty>
4.22645e-07

> <r_epik_Ionization_Penalty_Charging>
0

> <r_epik_Ionization_Penalty_Neutral>
4.22645e-07

> <r_epik_State_Penalty>
-0

> <r_epik_Charging_Adjusted_Penalty>
0

> <i_epik_Tot_Q>
0

> <i_epik_Tot_abs_Q>
0

> <r_epik_Metal_State_Penalty>
-0

> <b_epik_Metal_Only>
0

> <s_lp_Force_Field>
OPLS_2005

> <r_lp_Energy>
50.9279

> <b_lp_Chiralities_Consistent>
1

> <s_lp_Variant>
AV-unprocessed.smi:926-3

> <Gold.Version>
5.8.1

> <Gold.Id.Protein>
6NUR|6NUR_protein|mol2

> <Gold.PLP.Fitness>
51.0526

> <Gold.PLP.PLP>
-42.7017

> <Gold.PLP.part.hbond>
-3.7013

> <Gold.PLP.part.metal>
0.0000

> <Gold.PLP.part.buried>
-2.8274

> <Gold.PLP.part.nonpolar>
-37.3174

> <Gold.PLP.part.repulsive>
0.4679

> <Gold.PLP.ligand.clash>
0.0000

> <Gold.PLP.ligand.torsion>
0.9713

> <Gold.PLP.Chemscore.Hbond>
2.5360

> <Gold.PLP.Chemscore.CHOScore>
0.8802

> <Gold.PLP.Chemscore.Metal>
0.0000

> <Gold.Chemscore.Hbonds>
donor molecule, donor type, donor heavy atom, donor atom, acceptor molecule, acceptor atom, score
      P1  H  7989  7998       L1     8  0.94
      P1  H  8011  8017       L1     1  0.58
      P1  H 10752 10763       L1     6  0.99
      L1  C     5    21       P1  7948  0.74

> <Gold.PLP.Chemscore.Internal.Correction>
0.0449

> <Gold.Rescore>
     Score         DG    S(hbond)    S(metal)    S(lipo)     H(rot)  DE(clash)    DE(int)     intcor
     16.96     -18.00       2.06        0.00     103.72       2.54       0.06       0.97       ----

> <Gold.Chemscore.Fitness>
16.9632

> <Gold.Chemscore.DG>
-17.9967

> <Gold.Chemscore.ZeroCoef>
-5.4800

> <Gold.Chemscore.Hbond>
2.0637

> <Gold.Chemscore.Metal>
0.0000

> <Gold.Chemscore.Lipo>
103.7223

> <Gold.Chemscore.Internal_Hbond>
0.0000

> <Gold.Chemscore.DEClash>
0.0629

> <Gold.Chemscore.DEInternal>
0.9705

> <Gold.Chemscore.Rot>
2.5436

> <Gold.Chemscore.Internal.Correction>
   9.000000E+99

> <Gold.Chemscore.Hbonds>
donor molecule, donor type, donor heavy atom, donor atom, acceptor molecule, acceptor atom, score
      P1  H  7989  7998       L1     8  0.30
      P1  H  8011  8017       L1     1  0.52
      P1  H 10752 10763       L1     6  0.93

> <Gold.Chemscore.Hbond.Weighted>
-6.8929

> <Gold.Chemscore.Metal.Weighted>
-0.0000

> <Gold.Chemscore.Lipo.Weighted>
-12.1355

> <Gold.Chemscore.Internal_Hbond.Weighted>
0.0000

> <Gold.Chemscore.DEClash.Weighted>
0.0629

> <Gold.Chemscore.DEInternal.Weighted>
0.9705

> <Gold.Chemscore.Rot.Weighted>
6.5117

> <Gold.Chemscore.Internal.Correction.Weighted>
   9.000000E+99

> <Gold.Protein.RotatedTorsions>
[ 6907 6896 6895 6894 ] final  164.09 input  -60.11 | X-H torsion
[ 7974 7965 7964 7962 ] final  151.33 input  175.53 | X-H torsion
[ 8008 7997 7996 7995 ] final   88.07 input   59.86 | X-H torsion
[ 10167 10162 10161 10158 ] final -149.63 input  -65.29 | X-H torsion
[ 10718 10713 10712 10709 ] final   65.52 input   66.30 | X-H torsion
[ 10763 10752 10751 10750 ] final   57.44 input  -60.55 | X-H torsion
[ 11005 11000 10999 10996 ] final  141.83 input  -57.11 | X-H torsion

> <Gold.Protein.ActiveResidues>
 VAL166  LYS551  ARG553  GLY616  TRP617  ASP618  TYR619  PRO620  LYS621  CYS622 
 ASP623  PHE694  ASN695  SER759  ASP760  ASP761  ALA762  ILE779  LEU786  VAL792 
 PHE793  MET794  SER795  GLU796  ALA797  LYS798  CYS799  TRP800  GLU811  SER814 

> <Gold.Protein.RotatedAtoms>
  151.9152  133.3571  159.3877 H   0  0  0  0  0  0  0  0  0  0  0  0  # atno 6907 bound_to 6896
  150.7049  134.4691  159.5426 H   0  0  0  0  0  0  0  0  0  0  0  0  # atno 6908 bound_to 6896
  152.2305  134.8327  160.0525 H   0  0  0  0  0  0  0  0  0  0  0  0  # atno 6909 bound_to 6896
  144.8300  139.6524  143.6063 H   0  0  0  0  0  0  0  0  0  0  0  0  # atno 7974 bound_to 7965
  155.9832  140.3375  155.6683 H   0  0  0  0  0  0  0  0  0  0  0  0  # atno 8008 bound_to 7997
  155.6520  140.0706  157.2601 H   0  0  0  0  0  0  0  0  0  0  0  0  # atno 8009 bound_to 7997
  154.4198  140.1724  156.1672 H   0  0  0  0  0  0  0  0  0  0  0  0  # atno 8010 bound_to 7997
  139.7426  143.8639  152.2566 H   0  0  0  0  0  0  0  0  0  0  0  0  # atno 10167 bound_to 10162
  157.6110  130.9218  149.9987 H   0  0  0  0  0  0  0  0  0  0  0  0  # atno 10718 bound_to 10713
  152.9850  135.5641  154.5392 H   0  0  0  0  0  0  0  0  0  0  0  0  # atno 10763 bound_to 10752
  154.4849  135.2790  155.1544 H   0  0  0  0  0  0  0  0  0  0  0  0  # atno 10764 bound_to 10752
  154.3037  135.6302  153.5489 H   0  0  0  0  0  0  0  0  0  0  0  0  # atno 10765 bound_to 10752
  140.0430  134.9295  157.0879 H   0  0  0  0  0  0  0  0  0  0  0  0  # atno 11005 bound_to 11000
  146.2603  139.6396  142.9366 LP  0  0  0  0  0  0  0  0  0  0  0  0  # atno 17320 bound_to 7965
  145.4916  141.0438  143.2590 LP  0  0  0  0  0  0  0  0  0  0  0  0  # atno 17321 bound_to 7965
  139.8594  144.7124  150.9117 LP  0  0  0  0  0  0  0  0  0  0  0  0  # atno 17342 bound_to 10162
  140.7788  143.3830  151.1443 LP  0  0  0  0  0  0  0  0  0  0  0  0  # atno 17343 bound_to 10162
  156.1214  130.3646  149.9882 LP  0  0  0  0  0  0  0  0  0  0  0  0  # atno 17370 bound_to 10713
  156.7961  130.9274  151.3646 LP  0  0  0  0  0  0  0  0  0  0  0  0  # atno 17371 bound_to 10713
  140.4038  134.2054  155.7163 LP  0  0  0  0  0  0  0  0  0  0  0  0  # atno 17394 bound_to 11000
  141.1893  133.8242  157.0962 LP  0  0  0  0  0  0  0  0  0  0  0  0  # atno 17395 bound_to 11000

$$$$
