AV-unprocessed.smi:919|AV-procd|sdf|4166|dock2
  -GOLD-   22720 2 73D 1   1.00000     0.00000
 Structure written by MMmdl.
 43 45  0  0  0  0  0  0  0  0  1 V2000
  150.6926  137.9502  154.7009 C   0  0  0  0  0  0  0  0  0  0  0  0
  149.8273  139.1415  154.4047 C   0  0  0  0  0  0  0  0  0  0  0  0
  150.3878  140.3184  154.1818 N   0  0  0  0  0  0  0  0  0  0  0  0
  149.3332  141.2050  153.9427 O   0  0  0  0  0  0  0  0  0  0  0  0
  148.1654  140.5186  154.0313 C   0  0  0  0  0  0  0  0  0  0  0  0
  146.9152  141.3001  153.8092 C   0  0  0  0  0  0  0  0  0  0  0  0
  148.4074  139.2033  154.3180 C   0  0  0  0  0  0  0  0  0  0  0  0
  147.4251  138.0798  154.5051 C   0  0  0  0  0  0  0  0  0  0  0  0
  146.2613  138.1809  153.5069 C   0  0  0  0  0  0  0  0  0  0  0  0
  146.2551  137.0538  152.5836 N   0  0  0  0  0  0  0  0  0  0  0  0
  145.1510  136.4857  152.0702 C   0  0  0  0  0  0  0  0  0  0  0  0
  144.0113  136.8819  152.3080 O   0  0  0  0  0  0  0  0  0  0  0  0
  145.3837  135.4340  151.2657 N   0  0  0  0  0  0  0  0  0  0  0  0
  144.4002  134.6087  150.5595 C   0  0  2  0  0  0  0  0  0  0  0  0
  143.5385  133.7971  151.5518 C   0  0  0  0  0  0  0  0  0  0  0  0
  143.7773  132.3407  151.1132 C   0  0  2  0  0  0  0  0  0  0  0  0
  145.2085  131.9151  151.4928 C   0  0  0  0  0  0  0  0  0  0  0  0
  146.0730  132.6774  150.4709 C   0  0  0  0  0  0  0  0  0  0  0  0
  145.0239  133.4910  149.6826 C   0  0  1  0  0  0  0  0  0  0  0  0
  143.8797  132.4862  149.6010 C   0  0  0  0  0  0  0  0  0  0  0  0
  150.2212  137.2957  155.4347 H   0  0  0  0  0  0  0  0  0  0  0  0
  151.6630  138.2470  155.1008 H   0  0  0  0  0  0  0  0  0  0  0  0
  150.8683  137.3639  153.7987 H   0  0  0  0  0  0  0  0  0  0  0  0
  146.0422  140.7512  154.1626 H   0  0  0  0  0  0  0  0  0  0  0  0
  146.7761  141.5118  152.7491 H   0  0  0  0  0  0  0  0  0  0  0  0
  146.9525  142.2502  154.3424 H   0  0  0  0  0  0  0  0  0  0  0  0
  147.9177  137.1138  154.3883 H   0  0  0  0  0  0  0  0  0  0  0  0
  147.0344  138.0866  155.5232 H   0  0  0  0  0  0  0  0  0  0  0  0
  145.3069  138.2361  154.0335 H   0  0  0  0  0  0  0  0  0  0  0  0
  146.3481  139.0988  152.9246 H   0  0  0  0  0  0  0  0  0  0  0  0
  147.1516  136.6656  152.3287 H   0  0  0  0  0  0  0  0  0  0  0  0
  146.3520  135.1947  151.1070 H   0  0  0  0  0  0  0  0  0  0  0  0
  143.7462  135.2424  149.9575 H   0  0  0  0  0  0  0  0  0  0  0  0
  143.8118  133.9575  152.5961 H   0  0  0  0  0  0  0  0  0  0  0  0
  142.4860  134.0627  151.4451 H   0  0  0  0  0  0  0  0  0  0  0  0
  143.0088  131.6493  151.4597 H   0  0  0  0  0  0  0  0  0  0  0  0
  145.4556  132.1757  152.5226 H   0  0  0  0  0  0  0  0  0  0  0  0
  145.3403  130.8385  151.3784 H   0  0  0  0  0  0  0  0  0  0  0  0
  146.8406  133.2916  150.9416 H   0  0  0  0  0  0  0  0  0  0  0  0
  146.5824  131.9749  149.8099 H   0  0  0  0  0  0  0  0  0  0  0  0
  145.3870  133.8436  148.7168 H   0  0  0  0  0  0  0  0  0  0  0  0
  144.1506  131.5583  149.0936 H   0  0  0  0  0  0  0  0  0  0  0  0
  142.9769  132.8938  149.1428 H   0  0  0  0  0  0  0  0  0  0  0  0
  1  2  1  0  0  0  0
  1 21  1  0  0  0  0
  1 22  1  0  0  0  0
  1 23  1  0  0  0  0
  2  7  1  0  0  0  0
  2  3  2  0  0  0  0
  3  4  1  0  0  0  0
  4  5  1  0  0  0  0
  5  6  1  0  0  0  0
  5  7  2  0  0  0  0
  6 24  1  0  0  0  0
  6 25  1  0  0  0  0
  6 26  1  0  0  0  0
  7  8  1  0  0  0  0
  8  9  1  0  0  0  0
  8 27  1  0  0  0  0
  8 28  1  0  0  0  0
  9 10  1  0  0  0  0
  9 29  1  0  0  0  0
  9 30  1  0  0  0  0
 10 11  1  0  0  0  0
 10 31  1  0  0  0  0
 11 12  2  0  0  0  0
 11 13  1  0  0  0  0
 13 14  1  0  0  0  0
 13 32  1  0  0  0  0
 14 19  1  0  0  0  0
 14 15  1  0  0  0  0
 14 33  1  0  0  0  0
 15 16  1  0  0  0  0
 15 34  1  0  0  0  0
 15 35  1  0  0  0  0
 16 20  1  0  0  0  0
 16 17  1  0  0  0  0
 16 36  1  0  0  0  0
 17 18  1  0  0  0  0
 17 37  1  0  0  0  0
 17 38  1  0  0  0  0
 18 19  1  0  0  0  0
 18 39  1  0  0  0  0
 18 40  1  0  0  0  0
 19 20  1  0  0  0  0
 19 41  1  0  0  0  0
 20 42  1  0  0  0  0
 20 43  1  0  0  0  0
M  END
> <s_m_source_file>
AV-unprocessed.smi

> <i_m_source_file_index>
919

> <i_lp_mmshare_version>
43012

> <i_f3d_flags>
0

> <s_epik_input>
W0NIM11jMW5vYyhbQ0gzXSljMVtDSDJdW0NIMl1bTkhdQyg9TylbTkhdW0NASF0oW0NIMl1bQ0BASF0yMylbQ0BASF0oW0NIMl0zKVtDSDJdW0NIMl0y

> <s_epik_cmdline>
J2VwaWtfcHl0aG9uJywgJy1waCcsICc3LjAnLCAnLXRuJywgJzgnLCAnLW1hJywgJzIwMCcsICctbWV0YWxfYmluZGluZycsICctaW1hZScsICc8aW5maWxlLm1hZT4nLCAnLW9tYWUnLCAnPG91dGZpbGUubWFlPic=

> <r_lp_tautomer_probability>
1

> <r_epik_Ionization_Penalty>
6.40771e-05

> <r_epik_Ionization_Penalty_Charging>
0

> <r_epik_Ionization_Penalty_Neutral>
6.40771e-05

> <r_epik_State_Penalty>
-0

> <r_epik_Charging_Adjusted_Penalty>
0

> <i_epik_Tot_Q>
0

> <i_epik_Tot_abs_Q>
0

> <r_epik_Metal_State_Penalty>
-0

> <b_epik_Metal_Only>
0

> <s_lp_Force_Field>
OPLS_2005

> <r_lp_Energy>
47.1923

> <b_lp_Chiralities_Consistent>
1

> <s_lp_Variant>
AV-unprocessed.smi:919-3

> <Gold.Version>
5.8.1

> <Gold.Id.Protein>
6NUR|6NUR_protein|mol2

> <Gold.PLP.Fitness>
42.6513

> <Gold.PLP.PLP>
-36.0957

> <Gold.PLP.part.hbond>
-3.6581

> <Gold.PLP.part.metal>
0.0000

> <Gold.PLP.part.buried>
-4.4619

> <Gold.PLP.part.nonpolar>
-30.1709

> <Gold.PLP.part.repulsive>
2.2340

> <Gold.PLP.ligand.clash>
0.0000

> <Gold.PLP.ligand.torsion>
0.8725

> <Gold.PLP.Chemscore.Hbond>
2.7618

> <Gold.PLP.Chemscore.CHOScore>
0.0000

> <Gold.PLP.Chemscore.Metal>
0.0000

> <Gold.Chemscore.Hbonds>
donor molecule, donor type, donor heavy atom, donor atom, acceptor molecule, acceptor atom, score
      L1  H    10    31       P1  7948  1.00
      P1  H  7989  7998       L1     3  0.95
      P1  H  8011  8017       L1     4  0.76

> <Gold.PLP.Chemscore.Internal.Correction>
0.0153

> <Gold.Rescore>
     Score         DG    S(hbond)    S(metal)    S(lipo)     H(rot)  DE(clash)    DE(int)     intcor
     17.06     -19.91       2.16        0.00      94.86       1.52       1.92       0.93       ----

> <Gold.Chemscore.Fitness>
17.0626

> <Gold.Chemscore.DG>
-19.9118

> <Gold.Chemscore.ZeroCoef>
-5.4800

> <Gold.Chemscore.Hbond>
2.1599

> <Gold.Chemscore.Metal>
0.0000

> <Gold.Chemscore.Lipo>
94.8633

> <Gold.Chemscore.Internal_Hbond>
0.0000

> <Gold.Chemscore.DEClash>
1.9211

> <Gold.Chemscore.DEInternal>
0.9281

> <Gold.Chemscore.Rot>
1.5161

> <Gold.Chemscore.Internal.Correction>
   9.000000E+99

> <Gold.Chemscore.Hbonds>
donor molecule, donor type, donor heavy atom, donor atom, acceptor molecule, acceptor atom, score
      L1  H    10    31       P1  7948  1.00
      P1  H  7989  7998       L1     3  0.52
      P1  H  8011  8017       L1     4  0.54

> <Gold.Chemscore.Hbond.Weighted>
-7.2141

> <Gold.Chemscore.Metal.Weighted>
-0.0000

> <Gold.Chemscore.Lipo.Weighted>
-11.0990

> <Gold.Chemscore.Internal_Hbond.Weighted>
0.0000

> <Gold.Chemscore.DEClash.Weighted>
1.9211

> <Gold.Chemscore.DEInternal.Weighted>
0.9281

> <Gold.Chemscore.Rot.Weighted>
3.8813

> <Gold.Chemscore.Internal.Correction.Weighted>
   9.000000E+99

> <Gold.Protein.RotatedTorsions>
[ 6907 6896 6895 6894 ] final -138.84 input  -60.11 | X-H torsion
[ 7974 7965 7964 7962 ] final -179.56 input  175.53 | X-H torsion
[ 8008 7997 7996 7995 ] final -121.16 input   59.86 | X-H torsion
[ 10167 10162 10161 10158 ] final -152.55 input  -65.29 | X-H torsion
[ 10718 10713 10712 10709 ] final  138.75 input   66.30 | X-H torsion
[ 10763 10752 10751 10750 ] final -154.87 input  -60.55 | X-H torsion
[ 11005 11000 10999 10996 ] final   70.87 input  -57.11 | X-H torsion

> <Gold.Protein.ActiveResidues>
 VAL166  LYS551  ARG553  GLY616  TRP617  ASP618  TYR619  PRO620  LYS621  CYS622 
 ASP623  PHE694  ASN695  SER759  ASP760  ASP761  ALA762  ILE779  LEU786  VAL792 
 PHE793  MET794  SER795  GLU796  ALA797  LYS798  CYS799  TRP800  GLU811  SER814 

> <Gold.Protein.RotatedAtoms>
  151.0402  133.5713  159.2651 H   0  0  0  0  0  0  0  0  0  0  0  0  # atno 6907 bound_to 6896
  151.2762  135.0699  159.9162 H   0  0  0  0  0  0  0  0  0  0  0  0  # atno 6908 bound_to 6896
  152.5362  134.0124  159.7998 H   0  0  0  0  0  0  0  0  0  0  0  0  # atno 6909 bound_to 6896
  144.7137  140.0700  143.6429 H   0  0  0  0  0  0  0  0  0  0  0  0  # atno 7974 bound_to 7965
  155.1435  140.0402  157.2804 H   0  0  0  0  0  0  0  0  0  0  0  0  # atno 8008 bound_to 7997
  154.6456  140.2557  155.7246 H   0  0  0  0  0  0  0  0  0  0  0  0  # atno 8009 bound_to 7997
  156.2553  140.2847  156.0868 H   0  0  0  0  0  0  0  0  0  0  0  0  # atno 8010 bound_to 7997
  139.7172  143.9014  152.2490 H   0  0  0  0  0  0  0  0  0  0  0  0  # atno 10167 bound_to 10162
  157.4219  131.1039  151.0344 H   0  0  0  0  0  0  0  0  0  0  0  0  # atno 10718 bound_to 10713
  154.7828  135.3180  154.7952 H   0  0  0  0  0  0  0  0  0  0  0  0  # atno 10763 bound_to 10752
  153.8659  135.6849  153.4783 H   0  0  0  0  0  0  0  0  0  0  0  0  # atno 10764 bound_to 10752
  153.1470  135.4715  154.9518 H   0  0  0  0  0  0  0  0  0  0  0  0  # atno 10765 bound_to 10752
  139.9574  134.7120  156.0722 H   0  0  0  0  0  0  0  0  0  0  0  0  # atno 11005 bound_to 11000
  145.9792  139.2928  143.1052 LP  0  0  0  0  0  0  0  0  0  0  0  0  # atno 17320 bound_to 7965
  145.9030  140.9230  143.0493 LP  0  0  0  0  0  0  0  0  0  0  0  0  # atno 17321 bound_to 7965
  139.8900  144.6971  150.8781 LP  0  0  0  0  0  0  0  0  0  0  0  0  # atno 17342 bound_to 10162
  140.7746  143.3594  151.1858 LP  0  0  0  0  0  0  0  0  0  0  0  0  # atno 17343 bound_to 10162
  157.1271  130.6086  149.5520 LP  0  0  0  0  0  0  0  0  0  0  0  0  # atno 17370 bound_to 10713
  155.9883  130.4926  150.7166 LP  0  0  0  0  0  0  0  0  0  0  0  0  # atno 17371 bound_to 10713
  141.1247  133.6602  156.3306 LP  0  0  0  0  0  0  0  0  0  0  0  0  # atno 17394 bound_to 11000
  140.5578  134.5964  157.5425 LP  0  0  0  0  0  0  0  0  0  0  0  0  # atno 17395 bound_to 11000

$$$$
