AV-unprocessed.smi:53|AV-procd|sdf|518|dock2
  -GOLD-   2262016393D 1   1.00000     0.00000
 Structure written by MMmdl.
 30 31  0  0  0  0  0  0  0  0  1 V2000
  151.9849  143.8243  159.4362 N   0  0  0  0  0  0  0  0  0  0  0  0
  151.8818  142.6510  158.7961 C   0  0  0  0  0  0  0  0  0  0  0  0
  150.7807  142.4062  157.8934 C   0  0  0  0  0  0  0  0  0  0  0  0
  150.7463  141.2008  157.2835 C   0  0  0  0  0  0  0  0  0  0  0  0
  151.7271  140.2355  157.4878 N   0  0  0  0  0  0  0  0  0  0  0  0
  151.6779  138.8649  156.8300 C   0  0  1  0  0  0  0  0  0  0  0  0
  150.3768  138.6025  156.3931 O   0  0  0  0  0  0  0  0  0  0  0  0
  150.2544  138.9582  155.0199 C   0  0  2  0  0  0  0  0  0  0  0  0
  148.9869  138.3502  154.3953 C   0  0  0  0  0  0  0  0  0  0  0  0
  148.9284  138.6689  153.0212 O   0  0  0  0  0  0  0  0  0  0  0  0
  151.5865  138.4610  154.4513 C   0  0  2  0  0  0  0  0  0  0  0  0
  151.5281  137.0680  154.1848 O   0  0  0  0  0  0  0  0  0  0  0  0
  152.5721  138.8121  155.5676 C   0  0  2  0  0  0  0  0  0  0  0  0
  153.6309  137.8769  155.6652 O   0  0  0  0  0  0  0  0  0  0  0  0
  152.7757  140.4983  158.4034 C   0  0  0  0  0  0  0  0  0  0  0  0
  153.6392  139.6594  158.6562 O   0  0  0  0  0  0  0  0  0  0  0  0
  152.7964  141.7258  159.0091 N   0  0  0  0  0  0  0  0  0  0  0  0
  151.9526  138.1594  157.6167 H   0  0  0  0  0  0  0  0  0  0  0  0
  150.2311  140.0453  154.9235 H   0  0  0  0  0  0  0  0  0  0  0  0
  151.8391  138.9703  153.5207 H   0  0  0  0  0  0  0  0  0  0  0  0
  152.9892  139.8016  155.3750 H   0  0  0  0  0  0  0  0  0  0  0  0
  152.7529  143.9911  160.0699 H   0  0  0  0  0  0  0  0  0  0  0  0
  151.2933  144.5433  159.2786 H   0  0  0  0  0  0  0  0  0  0  0  0
  150.0038  143.1303  157.6941 H   0  0  0  0  0  0  0  0  0  0  0  0
  149.9142  141.0179  156.6207 H   0  0  0  0  0  0  0  0  0  0  0  0
  149.0108  137.2633  154.4780 H   0  0  0  0  0  0  0  0  0  0  0  0
  148.0857  138.6972  154.9017 H   0  0  0  0  0  0  0  0  0  0  0  0
  148.7206  137.8827  152.5397 H   0  0  0  0  0  0  0  0  0  0  0  0
  151.3153  136.9498  153.2715 H   0  0  0  0  0  0  0  0  0  0  0  0
  153.4571  137.3067  156.3986 H   0  0  0  0  0  0  0  0  0  0  0  0
  1  2  1  0  0  0  0
  1 22  1  0  0  0  0
  1 23  1  0  0  0  0
  2 17  2  0  0  0  0
  2  3  1  0  0  0  0
  3  4  2  0  0  0  0
  3 24  1  0  0  0  0
  4  5  1  0  0  0  0
  4 25  1  0  0  0  0
  5  6  1  0  0  0  0
  5 15  1  0  0  0  0
  6 18  1  0  0  0  0
  6 13  1  0  0  0  0
  6  7  1  0  0  0  0
  7  8  1  0  0  0  0
  8 19  1  0  0  0  0
  8  9  1  0  0  0  0
  8 11  1  0  0  0  0
  9 10  1  0  0  0  0
  9 26  1  0  0  0  0
  9 27  1  0  0  0  0
 10 28  1  0  0  0  0
 11 20  1  0  0  0  0
 11 12  1  0  0  0  0
 11 13  1  0  0  0  0
 12 29  1  0  0  0  0
 13 21  1  0  0  0  0
 13 14  1  0  0  0  0
 14 30  1  0  0  0  0
 15 16  2  0  0  0  0
 15 17  1  0  0  0  0
M  END
> <s_m_source_file>
AV-unprocessed.smi

> <i_m_source_file_index>
53

> <i_lp_mmshare_version>
43012

> <i_f3d_flags>
0

> <s_epik_input>
W05IMl1jMVtjSF1bY0hdbihjKD1PKW4xKVtDQEBIXTJPW0NASF0oW0NIMl1bT0hdKVtDQEBIXShbT0hdKVtDQEBIXTJbT0hd

> <s_epik_cmdline>
J2VwaWtfcHl0aG9uJywgJy1waCcsICc3LjAnLCAnLXRuJywgJzgnLCAnLW1hJywgJzIwMCcsICctbWV0YWxfYmluZGluZycsICctaW1hZScsICc8aW5maWxlLm1hZT4nLCAnLW9tYWUnLCAnPG91dGZpbGUubWFlPic=

> <r_lp_tautomer_probability>
0.99996

> <r_epik_Ionization_Penalty>
0.00069087

> <r_epik_Ionization_Penalty_Charging>
2.61959e-08

> <r_epik_Ionization_Penalty_Neutral>
0.000690844

> <r_epik_State_Penalty>
1.15523e-05

> <r_epik_Charging_Adjusted_Penalty>
1.15785e-05

> <i_epik_Tot_Q>
0

> <i_epik_Tot_abs_Q>
0

> <r_epik_Metal_State_Penalty>
-0

> <b_epik_Metal_Only>
0

> <s_epik_Chemistry_Notes>
This compound contains an acetal/aminal-like group ( X-CH(R)-Y where X, Y are N, S, or O) that may be acid/base labile, releasing an aldehyde.

> <s_lp_Force_Field>
OPLS_2005

> <r_lp_Energy>
34.5248

> <b_lp_Chiralities_Consistent>
1

> <s_lp_Variant>
AV-unprocessed.smi:53-6

> <Gold.Version>
5.8.1

> <Gold.Id.Protein>
6NUR|6NUR_protein|mol2

> <Gold.PLP.Fitness>
38.7866

> <Gold.PLP.PLP>
-28.0951

> <Gold.PLP.part.hbond>
-6.3488

> <Gold.PLP.part.metal>
0.0000

> <Gold.PLP.part.buried>
-4.4053

> <Gold.PLP.part.nonpolar>
-16.5726

> <Gold.PLP.part.repulsive>
0.0419

> <Gold.PLP.ligand.clash>
0.0000

> <Gold.PLP.ligand.torsion>
0.6198

> <Gold.PLP.Chemscore.Hbond>
3.9673

> <Gold.PLP.Chemscore.CHOScore>
0.0000

> <Gold.PLP.Chemscore.Metal>
0.0000

> <Gold.Chemscore.Hbonds>
donor molecule, donor type, donor heavy atom, donor atom, acceptor molecule, acceptor atom, score
      L1  H    10    28       P1  7948  1.00
      L1  H    12    29       P1  7949  1.00
      P1  H  7997  8008       L1    16  0.98
      P1  H 10752 10765       L1    12  0.85

> <Gold.PLP.Chemscore.Internal.Correction>
0.0293

> <Gold.Rescore>
     Score         DG    S(hbond)    S(metal)    S(lipo)     H(rot)  DE(clash)    DE(int)     intcor
      8.95      -9.61       2.63        0.00      41.31       3.71       0.11       0.56       ----

> <Gold.Chemscore.Fitness>
8.9458

> <Gold.Chemscore.DG>
-9.6070

> <Gold.Chemscore.ZeroCoef>
-5.4800

> <Gold.Chemscore.Hbond>
2.6319

> <Gold.Chemscore.Metal>
0.0000

> <Gold.Chemscore.Lipo>
41.3062

> <Gold.Chemscore.Internal_Hbond>
0.0000

> <Gold.Chemscore.DEClash>
0.1053

> <Gold.Chemscore.DEInternal>
0.5559

> <Gold.Chemscore.Rot>
3.7095

> <Gold.Chemscore.Internal.Correction>
   9.000000E+99

> <Gold.Chemscore.Hbonds>
donor molecule, donor type, donor heavy atom, donor atom, acceptor molecule, acceptor atom, score
      L1  H    10    28       P1  7948  0.99
      L1  H    12    29       P1  7949  0.65
      P1  H  7997  8008       L1    16  0.37
      P1  H 10752 10765       L1    12  0.14

> <Gold.Chemscore.Hbond.Weighted>
-8.7905

> <Gold.Chemscore.Metal.Weighted>
-0.0000

> <Gold.Chemscore.Lipo.Weighted>
-4.8328

> <Gold.Chemscore.Internal_Hbond.Weighted>
0.0000

> <Gold.Chemscore.DEClash.Weighted>
0.1053

> <Gold.Chemscore.DEInternal.Weighted>
0.5559

> <Gold.Chemscore.Rot.Weighted>
9.4964

> <Gold.Chemscore.Internal.Correction.Weighted>
   9.000000E+99

> <Gold.Protein.RotatedTorsions>
[ 6907 6896 6895 6894 ] final  176.40 input  -60.11 | X-H torsion
[ 7974 7965 7964 7962 ] final  -36.97 input  175.53 | X-H torsion
[ 8008 7997 7996 7995 ] final -115.48 input   59.86 | X-H torsion
[ 10167 10162 10161 10158 ] final   69.20 input  -65.29 | X-H torsion
[ 10718 10713 10712 10709 ] final   23.67 input   66.30 | X-H torsion
[ 10763 10752 10751 10750 ] final  161.38 input  -60.55 | X-H torsion
[ 11005 11000 10999 10996 ] final    6.93 input  -57.11 | X-H torsion

> <Gold.Protein.ActiveResidues>
 VAL166  LYS551  ARG553  GLY616  TRP617  ASP618  TYR619  PRO620  LYS621  CYS622 
 ASP623  PHE694  ASN695  SER759  ASP760  ASP761  ALA762  ILE779  LEU786  VAL792 
 PHE793  MET794  SER795  GLU796  ALA797  LYS798  CYS799  TRP800  GLU811  SER814 

> <Gold.Protein.RotatedAtoms>
  151.7207  133.3314  159.3314 H   0  0  0  0  0  0  0  0  0  0  0  0  # atno 6907 bound_to 6896
  150.7654  134.6451  159.6267 H   0  0  0  0  0  0  0  0  0  0  0  0  # atno 6908 bound_to 6896
  152.3654  134.6815  160.0245 H   0  0  0  0  0  0  0  0  0  0  0  0  # atno 6909 bound_to 6896
  146.0616  140.6341  142.8994 H   0  0  0  0  0  0  0  0  0  0  0  0  # atno 7974 bound_to 7965
  155.0527  140.0393  157.2549 H   0  0  0  0  0  0  0  0  0  0  0  0  # atno 8008 bound_to 7997
  154.7124  140.2695  155.6592 H   0  0  0  0  0  0  0  0  0  0  0  0  # atno 8009 bound_to 7997
  156.2793  140.2719  156.1770 H   0  0  0  0  0  0  0  0  0  0  0  0  # atno 8010 bound_to 7997
  140.0704  144.5157  150.7231 H   0  0  0  0  0  0  0  0  0  0  0  0  # atno 10167 bound_to 10162
  157.1692  130.6752  149.6072 H   0  0  0  0  0  0  0  0  0  0  0  0  # atno 10718 bound_to 10713
  154.2620  135.2768  155.2774 H   0  0  0  0  0  0  0  0  0  0  0  0  # atno 10763 bound_to 10752
  154.5375  135.5712  153.6815 H   0  0  0  0  0  0  0  0  0  0  0  0  # atno 10764 bound_to 10752
  152.9960  135.6243  154.2771 H   0  0  0  0  0  0  0  0  0  0  0  0  # atno 10765 bound_to 10752
  140.5540  134.0256  155.7947 H   0  0  0  0  0  0  0  0  0  0  0  0  # atno 11005 bound_to 11000
  144.7178  140.4270  143.7031 LP  0  0  0  0  0  0  0  0  0  0  0  0  # atno 17320 bound_to 7965
  145.6551  139.1571  143.2840 LP  0  0  0  0  0  0  0  0  0  0  0  0  # atno 17321 bound_to 7965
  140.7128  143.2519  151.4527 LP  0  0  0  0  0  0  0  0  0  0  0  0  # atno 17342 bound_to 10162
  139.5839  144.1647  152.2004 LP  0  0  0  0  0  0  0  0  0  0  0  0  # atno 17343 bound_to 10162
  155.9741  130.4685  150.6361 LP  0  0  0  0  0  0  0  0  0  0  0  0  # atno 17370 bound_to 10713
  157.4059  131.0816  151.1266 LP  0  0  0  0  0  0  0  0  0  0  0  0  # atno 17371 bound_to 10713
  141.1154  133.9548  157.2831 LP  0  0  0  0  0  0  0  0  0  0  0  0  # atno 17394 bound_to 11000
  139.9441  135.0187  156.8798 LP  0  0  0  0  0  0  0  0  0  0  0  0  # atno 17395 bound_to 11000

$$$$
