AV-unprocessed.smi:3269|AV-procd|sdf|12510|dock4
  -GOLD-   2272018413D 1   1.00000     0.00000
 Structure written by MMmdl.
 39 40  0  0  0  0  0  0  0  0  1 V2000
  152.6304  138.5997  155.4722 C   0  0  0  0  0  0  0  0  0  0  0  0
  151.4327  139.4852  155.6616 C   0  0  0  0  0  0  0  0  0  0  0  0
  150.8679  140.0498  154.6070 N   0  0  0  0  0  0  0  0  0  0  0  0
  149.8382  140.7611  155.1083 N   0  0  0  0  0  0  0  0  0  0  0  0
  148.9922  141.5198  154.2076 C   0  0  0  0  0  0  0  0  0  0  0  0
  149.7518  140.6443  156.4821 C   0  0  0  0  0  0  0  0  0  0  0  0
  148.6883  141.3322  157.2756 C   0  0  0  0  0  0  0  0  0  0  0  0
  150.7773  139.8287  156.8801 C   0  0  0  0  0  0  0  0  0  0  0  0
  151.1456  139.3847  158.2756 C   0  0  0  0  0  0  0  0  0  0  0  0
  152.3577  140.1527  158.8163 C   0  0  0  0  0  0  0  0  0  0  0  0
  153.4934  139.9330  158.3927 O   0  0  0  0  0  0  0  0  0  0  0  0
  152.0920  141.0605  159.7676 N   0  0  0  0  0  0  0  0  0  0  0  0
  153.0760  141.9294  160.4064 C   0  0  0  0  0  0  0  0  0  0  0  0
  152.9027  143.4104  160.0174 C   0  0  2  0  0  0  0  0  0  0  0  0
  151.6500  144.1016  160.5635 C   0  0  0  0  0  0  0  0  0  0  0  0
  151.4768  145.2309  159.5734 C   0  0  0  0  0  0  0  0  0  0  0  0
  151.8676  144.5551  158.2623 C   0  0  0  0  0  0  0  0  0  0  0  0
  152.8468  143.5773  158.6025 O   0  0  0  0  0  0  0  0  0  0  0  0
  152.5193  137.6720  156.0328 H   0  0  0  0  0  0  0  0  0  0  0  0
  153.5375  139.0925  155.8220 H   0  0  0  0  0  0  0  0  0  0  0  0
  152.7773  138.3352  154.4245 H   0  0  0  0  0  0  0  0  0  0  0  0
  148.9779  142.5663  154.5132 H   0  0  0  0  0  0  0  0  0  0  0  0
  147.9767  141.1247  154.2394 H   0  0  0  0  0  0  0  0  0  0  0  0
  149.3639  141.4572  153.1837 H   0  0  0  0  0  0  0  0  0  0  0  0
  148.6633  140.9674  158.3023 H   0  0  0  0  0  0  0  0  0  0  0  0
  147.7039  141.1590  156.8406 H   0  0  0  0  0  0  0  0  0  0  0  0
  148.8626  142.4077  157.3040 H   0  0  0  0  0  0  0  0  0  0  0  0
  150.3074  139.5303  158.9581 H   0  0  0  0  0  0  0  0  0  0  0  0
  151.3738  138.3192  158.3049 H   0  0  0  0  0  0  0  0  0  0  0  0
  151.1315  141.1728  160.0577 H   0  0  0  0  0  0  0  0  0  0  0  0
  152.9583  141.8246  161.4851 H   0  0  0  0  0  0  0  0  0  0  0  0
  154.0901  141.5967  160.1788 H   0  0  0  0  0  0  0  0  0  0  0  0
  153.7768  143.9664  160.3597 H   0  0  0  0  0  0  0  0  0  0  0  0
  150.7792  143.4466  160.5243 H   0  0  0  0  0  0  0  0  0  0  0  0
  151.7699  144.4476  161.5904 H   0  0  0  0  0  0  0  0  0  0  0  0
  150.4659  145.6390  159.5582 H   0  0  0  0  0  0  0  0  0  0  0  0
  152.1712  146.0405  159.8020 H   0  0  0  0  0  0  0  0  0  0  0  0
  151.0073  144.0450  157.8286 H   0  0  0  0  0  0  0  0  0  0  0  0
  152.2481  145.2623  157.5253 H   0  0  0  0  0  0  0  0  0  0  0  0
  1  2  1  0  0  0  0
  1 19  1  0  0  0  0
  1 20  1  0  0  0  0
  1 21  1  0  0  0  0
  2  8  1  0  0  0  0
  2  3  2  0  0  0  0
  3  4  1  0  0  0  0
  4  5  1  0  0  0  0
  4  6  1  0  0  0  0
  5 22  1  0  0  0  0
  5 23  1  0  0  0  0
  5 24  1  0  0  0  0
  6  7  1  0  0  0  0
  6  8  2  0  0  0  0
  7 25  1  0  0  0  0
  7 26  1  0  0  0  0
  7 27  1  0  0  0  0
  8  9  1  0  0  0  0
  9 10  1  0  0  0  0
  9 28  1  0  0  0  0
  9 29  1  0  0  0  0
 10 11  2  0  0  0  0
 10 12  1  0  0  0  0
 12 13  1  0  0  0  0
 12 30  1  0  0  0  0
 13 14  1  0  0  0  0
 13 31  1  0  0  0  0
 13 32  1  0  0  0  0
 14 18  1  0  0  0  0
 14 15  1  0  0  0  0
 14 33  1  0  0  0  0
 15 16  1  0  0  0  0
 15 34  1  0  0  0  0
 15 35  1  0  0  0  0
 16 17  1  0  0  0  0
 16 36  1  0  0  0  0
 16 37  1  0  0  0  0
 17 18  1  0  0  0  0
 17 38  1  0  0  0  0
 17 39  1  0  0  0  0
M  END
> <s_m_source_file>
AV-unprocessed.smi

> <i_m_source_file_index>
3269

> <i_lp_mmshare_version>
43012

> <i_f3d_flags>
0

> <s_epik_input>
W0NIM11jMW5uKFtDSDNdKWMoW0NIM10pYzFbQ0gyXUMoPU8pW05IXVtDSDJdW0NAQEhdMltDSDJdW0NIMl1bQ0gyXU8y

> <s_epik_cmdline>
J2VwaWtfcHl0aG9uJywgJy1waCcsICc3LjAnLCAnLXRuJywgJzgnLCAnLW1hJywgJzIwMCcsICctbWV0YWxfYmluZGluZycsICctaW1hZScsICc8aW5maWxlLm1hZT4nLCAnLW9tYWUnLCAnPG91dGZpbGUubWFlPic=

> <r_lp_tautomer_probability>
1

> <r_epik_Ionization_Penalty>
0.00306713

> <r_epik_Ionization_Penalty_Charging>
0

> <r_epik_Ionization_Penalty_Neutral>
0.00306713

> <r_epik_State_Penalty>
0.00215672

> <r_epik_Charging_Adjusted_Penalty>
0.00215672

> <i_epik_Tot_Q>
0

> <i_epik_Tot_abs_Q>
0

> <r_epik_Metal_State_Penalty>
-0

> <b_epik_Metal_Only>
0

> <s_lp_Force_Field>
OPLS_2005

> <r_lp_Energy>
13.6043

> <b_lp_Chiralities_Consistent>
1

> <s_lp_Variant>
AV-unprocessed.smi:3269-1

> <Gold.Version>
5.8.1

> <Gold.Id.Protein>
6NUR|6NUR_protein|mol2

> <Gold.PLP.Fitness>
46.2557

> <Gold.PLP.PLP>
-41.1487

> <Gold.PLP.part.hbond>
-2.0000

> <Gold.PLP.part.metal>
0.0000

> <Gold.PLP.part.buried>
-3.6975

> <Gold.PLP.part.nonpolar>
-35.4806

> <Gold.PLP.part.repulsive>
0.2344

> <Gold.PLP.ligand.clash>
0.0000

> <Gold.PLP.ligand.torsion>
0.4505

> <Gold.PLP.Chemscore.Hbond>
2.0000

> <Gold.PLP.Chemscore.CHOScore>
0.0000

> <Gold.PLP.Chemscore.Metal>
0.0000

> <Gold.Chemscore.Hbonds>
donor molecule, donor type, donor heavy atom, donor atom, acceptor molecule, acceptor atom, score
      P1  H  7989  7998       L1     3  1.00
      P1  H  7997  8010       L1    11  1.00

> <Gold.PLP.Chemscore.Internal.Correction>
0.0080

> <Gold.Rescore>
     Score         DG    S(hbond)    S(metal)    S(lipo)     H(rot)  DE(clash)    DE(int)     intcor
     19.48     -19.81       1.97        0.00      99.04       1.50       0.02       0.31       ----

> <Gold.Chemscore.Fitness>
19.4764

> <Gold.Chemscore.DG>
-19.8099

> <Gold.Chemscore.ZeroCoef>
-5.4800

> <Gold.Chemscore.Hbond>
1.9699

> <Gold.Chemscore.Metal>
0.0000

> <Gold.Chemscore.Lipo>
99.0388

> <Gold.Chemscore.Internal_Hbond>
0.0000

> <Gold.Chemscore.DEClash>
0.0207

> <Gold.Chemscore.DEInternal>
0.3127

> <Gold.Chemscore.Rot>
1.4989

> <Gold.Chemscore.Internal.Correction>
   9.000000E+99

> <Gold.Chemscore.Hbonds>
donor molecule, donor type, donor heavy atom, donor atom, acceptor molecule, acceptor atom, score
      P1  H  7989  7998       L1     3  0.76
      P1  H  7997  8010       L1    11  0.98

> <Gold.Chemscore.Hbond.Weighted>
-6.5794

> <Gold.Chemscore.Metal.Weighted>
-0.0000

> <Gold.Chemscore.Lipo.Weighted>
-11.5875

> <Gold.Chemscore.Internal_Hbond.Weighted>
0.0000

> <Gold.Chemscore.DEClash.Weighted>
0.0207

> <Gold.Chemscore.DEInternal.Weighted>
0.3127

> <Gold.Chemscore.Rot.Weighted>
3.8371

> <Gold.Chemscore.Internal.Correction.Weighted>
   9.000000E+99

> <Gold.Protein.RotatedTorsions>
[ 6907 6896 6895 6894 ] final   74.76 input  -60.11 | X-H torsion
[ 7974 7965 7964 7962 ] final   18.68 input  175.53 | X-H torsion
[ 8008 7997 7996 7995 ] final   29.52 input   59.86 | X-H torsion
[ 10167 10162 10161 10158 ] final  174.06 input  -65.29 | X-H torsion
[ 10718 10713 10712 10709 ] final -109.16 input   66.30 | X-H torsion
[ 10763 10752 10751 10750 ] final    3.81 input  -60.55 | X-H torsion
[ 11005 11000 10999 10996 ] final  -10.14 input  -57.11 | X-H torsion

> <Gold.Protein.ActiveResidues>
 VAL166  LYS551  ARG553  GLY616  TRP617  ASP618  TYR619  PRO620  LYS621  CYS622 
 ASP623  PHE694  ASN695  SER759  ASP760  ASP761  ALA762  ILE779  LEU786  VAL792 
 PHE793  MET794  SER795  GLU796  ALA797  LYS798  CYS799  TRP800  GLU811  SER814 

> <Gold.Protein.RotatedAtoms>
  152.4992  134.4223  159.9484 H   0  0  0  0  0  0  0  0  0  0  0  0  # atno 6907 bound_to 6896
  151.4197  133.3696  159.2762 H   0  0  0  0  0  0  0  0  0  0  0  0  # atno 6908 bound_to 6896
  150.9232  134.8671  159.7562 H   0  0  0  0  0  0  0  0  0  0  0  0  # atno 6909 bound_to 6896
  146.2176  139.8422  142.8639 H   0  0  0  0  0  0  0  0  0  0  0  0  # atno 7974 bound_to 7965
  155.0758  140.3205  155.4616 H   0  0  0  0  0  0  0  0  0  0  0  0  # atno 8008 bound_to 7997
  156.2779  140.2104  156.5831 H   0  0  0  0  0  0  0  0  0  0  0  0  # atno 8009 bound_to 7997
  154.7018  140.0506  157.0453 H   0  0  0  0  0  0  0  0  0  0  0  0  # atno 8010 bound_to 7997
  139.5129  144.3190  152.0220 H   0  0  0  0  0  0  0  0  0  0  0  0  # atno 10167 bound_to 10162
  156.0522  130.5750  150.8061 H   0  0  0  0  0  0  0  0  0  0  0  0  # atno 10718 bound_to 10713
  153.2788  135.6939  153.7406 H   0  0  0  0  0  0  0  0  0  0  0  0  # atno 10763 bound_to 10752
  153.6401  135.3395  155.3069 H   0  0  0  0  0  0  0  0  0  0  0  0  # atno 10764 bound_to 10752
  154.8488  135.4429  154.1835 H   0  0  0  0  0  0  0  0  0  0  0  0  # atno 10765 bound_to 10752
  140.7415  133.8666  155.8972 H   0  0  0  0  0  0  0  0  0  0  0  0  # atno 11005 bound_to 11000
  145.2887  141.0161  143.3675 LP  0  0  0  0  0  0  0  0  0  0  0  0  # atno 17320 bound_to 7965
  144.9094  139.4548  143.6594 LP  0  0  0  0  0  0  0  0  0  0  0  0  # atno 17321 bound_to 7965
  140.2632  144.4044  150.6178 LP  0  0  0  0  0  0  0  0  0  0  0  0  # atno 17342 bound_to 10162
  140.6142  143.2171  151.6825 LP  0  0  0  0  0  0  0  0  0  0  0  0  # atno 17343 bound_to 10162
  157.5460  131.0942  150.9762 LP  0  0  0  0  0  0  0  0  0  0  0  0  # atno 17370 bound_to 10713
  157.0033  130.5608  149.5313 LP  0  0  0  0  0  0  0  0  0  0  0  0  # atno 17371 bound_to 10713
  140.9832  134.1378  157.4476 LP  0  0  0  0  0  0  0  0  0  0  0  0  # atno 17394 bound_to 11000
  139.8805  135.0017  156.6083 LP  0  0  0  0  0  0  0  0  0  0  0  0  # atno 17395 bound_to 11000

$$$$
