AV-unprocessed.smi:2725|AV-procd|sdf|10517|dock2
  -GOLD-   2272014553D 1   1.00000     0.00000
 Structure written by MMmdl.
 45 46  0  0  0  0  0  0  0  0  2 V2000
  152.9259  139.5221  157.1488 O   0  0  0  0  0  0  0  0  0  0  0  0
  151.7125  139.7297  157.1807 C   0  0  0  0  0  0  0  0  0  0  0  0
  151.1433  140.9437  157.9214 C   0  0  0  0  0  0  0  0  0  0  0  0
  152.2154  141.9838  158.2999 C   0  0  0  0  0  0  0  0  0  0  0  0
  151.6943  143.0630  159.2654 C   0  0  0  0  0  0  0  0  0  0  0  0
  150.2458  143.4961  159.0148 C   0  0  0  0  0  0  0  0  0  0  0  0
  150.1157  144.8817  159.6601 C   0  0  0  0  0  0  0  0  0  0  0  0
  151.5458  145.4132  159.8390 C   0  0  0  0  0  0  0  0  0  0  0  0
  152.4669  144.3810  159.1827 C   0  0  0  0  0  0  0  0  0  0  0  0
  150.8153  138.9297  156.5838 N   0  0  0  0  0  0  0  0  0  0  0  0
  151.1341  137.7343  155.8056 C   0  0  2  0  0  0  0  0  0  0  0  0
  151.9500  138.1592  154.5670 C   0  0  0  0  0  0  0  0  0  0  0  0
  152.2652  137.0284  153.7831 O   0  0  0  0  0  0  0  0  0  0  0  0
  149.8202  137.0053  155.4402 C   0  0  0  0  0  0  0  0  0  0  0  0
  149.9382  135.4915  155.4664 C   0  0  0  0  0  0  0  0  0  0  0  0
  150.4138  134.8026  156.6033 C   0  0  0  0  0  0  0  0  0  0  0  0
  150.5127  133.3963  156.5669 C   0  0  0  0  0  0  0  0  0  0  0  0
  150.1354  132.7084  155.3948 C   0  0  0  0  0  0  0  0  0  0  0  0
  149.6679  133.4455  154.2879 C   0  0  0  0  0  0  0  0  0  0  0  0
  149.5873  134.7924  154.3622 N   0  3  0  0  0  0  0  0  0  0  0  0
  150.3816  141.4016  157.2898 H   0  0  0  0  0  0  0  0  0  0  0  0
  150.6366  140.6000  158.8244 H   0  0  0  0  0  0  0  0  0  0  0  0
  153.0594  141.4749  158.7679 H   0  0  0  0  0  0  0  0  0  0  0  0
  152.6073  142.4588  157.3993 H   0  0  0  0  0  0  0  0  0  0  0  0
  151.7721  142.6928  160.2890 H   0  0  0  0  0  0  0  0  0  0  0  0
  150.0629  143.5794  157.9427 H   0  0  0  0  0  0  0  0  0  0  0  0
  149.5229  142.7852  159.4165 H   0  0  0  0  0  0  0  0  0  0  0  0
  149.5138  145.5461  159.0393 H   0  0  0  0  0  0  0  0  0  0  0  0
  149.6224  144.8074  160.6299 H   0  0  0  0  0  0  0  0  0  0  0  0
  151.6748  146.4047  159.4039 H   0  0  0  0  0  0  0  0  0  0  0  0
  151.7759  145.4907  160.9022 H   0  0  0  0  0  0  0  0  0  0  0  0
  153.4425  144.3266  159.6669 H   0  0  0  0  0  0  0  0  0  0  0  0
  152.6306  144.6522  158.1386 H   0  0  0  0  0  0  0  0  0  0  0  0
  149.8398  139.1813  156.6534 H   0  0  0  0  0  0  0  0  0  0  0  0
  151.7379  137.0586  156.4155 H   0  0  0  0  0  0  0  0  0  0  0  0
  151.3764  138.8280  153.9273 H   0  0  0  0  0  0  0  0  0  0  0  0
  152.8601  138.6919  154.8457 H   0  0  0  0  0  0  0  0  0  0  0  0
  151.6625  136.9857  153.0561 H   0  0  0  0  0  0  0  0  0  0  0  0
  149.0302  137.2790  156.1409 H   0  0  0  0  0  0  0  0  0  0  0  0
  149.4727  137.3281  154.4576 H   0  0  0  0  0  0  0  0  0  0  0  0
  150.7025  135.3454  157.4921 H   0  0  0  0  0  0  0  0  0  0  0  0
  150.8748  132.8519  157.4268 H   0  0  0  0  0  0  0  0  0  0  0  0
  150.2042  131.6314  155.3460 H   0  0  0  0  0  0  0  0  0  0  0  0
  149.3585  133.0024  153.3525 H   0  0  0  0  0  0  0  0  0  0  0  0
  149.2460  135.3049  153.5489 H   0  0  0  0  0  0  0  0  0  0  0  0
  1  2  2  0  0  0  0
  2  3  1  0  0  0  0
  2 10  1  0  0  0  0
  3  4  1  0  0  0  0
  3 21  1  0  0  0  0
  3 22  1  0  0  0  0
  4  5  1  0  0  0  0
  4 23  1  0  0  0  0
  4 24  1  0  0  0  0
  5  9  1  0  0  0  0
  5  6  1  0  0  0  0
  5 25  1  0  0  0  0
  6  7  1  0  0  0  0
  6 26  1  0  0  0  0
  6 27  1  0  0  0  0
  7  8  1  0  0  0  0
  7 28  1  0  0  0  0
  7 29  1  0  0  0  0
  8  9  1  0  0  0  0
  8 30  1  0  0  0  0
  8 31  1  0  0  0  0
  9 32  1  0  0  0  0
  9 33  1  0  0  0  0
 10 11  1  0  0  0  0
 10 34  1  0  0  0  0
 11 12  1  0  0  0  0
 11 14  1  0  0  0  0
 11 35  1  0  0  0  0
 12 13  1  0  0  0  0
 12 36  1  0  0  0  0
 12 37  1  0  0  0  0
 13 38  1  0  0  0  0
 14 15  1  0  0  0  0
 14 39  1  0  0  0  0
 14 40  1  0  0  0  0
 15 20  1  0  0  0  0
 15 16  2  0  0  0  0
 16 17  1  0  0  0  0
 16 41  1  0  0  0  0
 17 18  2  0  0  0  0
 17 42  1  0  0  0  0
 18 19  1  0  0  0  0
 18 43  1  0  0  0  0
 19 20  2  0  0  0  0
 19 44  1  0  0  0  0
 20 45  1  0  0  0  0
M  CHG  1  20   1
M  END
> <s_m_source_file>
AV-unprocessed.smi

> <i_m_source_file_index>
2725

> <i_lp_mmshare_version>
43012

> <i_f3d_flags>
0

> <s_epik_input>
W0NIMl0xW0NIMl1bQ0gyXVtDSDJdW0NIXTFbQ0gyXVtDSDJdQyg9TylbTkhdW0NASF0oW0NIMl1bT0hdKVtDSDJdYzJbY0hdW2NIXVtjSF1bY0hdbjI=

> <s_epik_cmdline>
J2VwaWtfcHl0aG9uJywgJy1waCcsICc3LjAnLCAnLXRuJywgJzgnLCAnLW1hJywgJzIwMCcsICctbWV0YWxfYmluZGluZycsICctaW1hZScsICc8aW5maWxlLm1hZT4nLCAnLW9tYWUnLCAnPG91dGZpbGUubWFlPic=

> <r_epik_Ionization_Penalty>
1.87189

> <r_epik_Ionization_Penalty_Charging>
1.87189

> <r_epik_Ionization_Penalty_Neutral>
6.79411e-08

> <r_epik_State_Penalty>
1.99097

> <r_epik_Charging_Adjusted_Penalty>
3.86287

> <i_epik_Tot_Q>
1

> <i_epik_Tot_abs_Q>
1

> <r_epik_Metal_State_Penalty>
2.01578

> <b_epik_Metal_Only>
0

> <s_lp_Force_Field>
OPLS_2005

> <r_lp_Energy>
30.4182

> <b_lp_Chiralities_Consistent>
1

> <s_lp_Variant>
AV-unprocessed.smi:2725-3

> <Gold.Version>
5.8.1

> <Gold.Id.Protein>
6NUR|6NUR_protein|mol2

> <Gold.PLP.Fitness>
52.5351

> <Gold.PLP.PLP>
-40.0505

> <Gold.PLP.part.hbond>
-4.0000

> <Gold.PLP.part.metal>
0.0000

> <Gold.PLP.part.buried>
-6.5452

> <Gold.PLP.part.nonpolar>
-29.7887

> <Gold.PLP.part.repulsive>
0.0583

> <Gold.PLP.ligand.clash>
0.0000

> <Gold.PLP.ligand.torsion>
1.0103

> <Gold.PLP.Chemscore.Hbond>
4.7840

> <Gold.PLP.Chemscore.CHOScore>
0.0000

> <Gold.PLP.Chemscore.Metal>
0.0000

> <Gold.Chemscore.Hbonds>
donor molecule, donor type, donor heavy atom, donor atom, acceptor molecule, acceptor atom, score
      L1  H    13    38       P1  7949  0.88
      L1  H    20    45       P1  7948  2.00
      P1  H  7997  8009       L1     1  1.00
      P1  H 10752 10763       L1    13  0.99

> <Gold.PLP.Chemscore.Internal.Correction>
0.1531

> <Gold.Rescore>
     Score         DG    S(hbond)    S(metal)    S(lipo)     H(rot)  DE(clash)    DE(int)     intcor
     20.80     -22.98       3.50        0.00     105.97       2.58       0.28       1.91       ----

> <Gold.Chemscore.Fitness>
20.7966

> <Gold.Chemscore.DG>
-22.9809

> <Gold.Chemscore.ZeroCoef>
-5.4800

> <Gold.Chemscore.Hbond>
3.5031

> <Gold.Chemscore.Metal>
0.0000

> <Gold.Chemscore.Lipo>
105.9671

> <Gold.Chemscore.Internal_Hbond>
0.0000

> <Gold.Chemscore.DEClash>
0.2782

> <Gold.Chemscore.DEInternal>
1.9061

> <Gold.Chemscore.Rot>
2.5773

> <Gold.Chemscore.Internal.Correction>
   9.000000E+99

> <Gold.Chemscore.Hbonds>
donor molecule, donor type, donor heavy atom, donor atom, acceptor molecule, acceptor atom, score
      L1  H    13    38       P1  7949  0.84
      L1  H    20    45       P1  7948  0.30
      P1  H  7997  8009       L1     1  1.00
      P1  H 10752 10763       L1    13  0.73

> <Gold.Chemscore.Hbond.Weighted>
-11.7005

> <Gold.Chemscore.Metal.Weighted>
-0.0000

> <Gold.Chemscore.Lipo.Weighted>
-12.3982

> <Gold.Chemscore.Internal_Hbond.Weighted>
0.0000

> <Gold.Chemscore.DEClash.Weighted>
0.2782

> <Gold.Chemscore.DEInternal.Weighted>
1.9061

> <Gold.Chemscore.Rot.Weighted>
6.5978

> <Gold.Chemscore.Internal.Correction.Weighted>
   9.000000E+99

> <Gold.Protein.RotatedTorsions>
[ 6907 6896 6895 6894 ] final   92.35 input  -60.11 | X-H torsion
[ 7974 7965 7964 7962 ] final  118.47 input  175.53 | X-H torsion
[ 8008 7997 7996 7995 ] final  174.29 input   59.86 | X-H torsion
[ 10167 10162 10161 10158 ] final -101.55 input  -65.29 | X-H torsion
[ 10718 10713 10712 10709 ] final  -67.26 input   66.30 | X-H torsion
[ 10763 10752 10751 10750 ] final   17.38 input  -60.55 | X-H torsion
[ 11005 11000 10999 10996 ] final -148.15 input  -57.11 | X-H torsion

> <Gold.Protein.ActiveResidues>
 VAL166  LYS551  ARG553  GLY616  TRP617  ASP618  TYR619  PRO620  LYS621  CYS622 
 ASP623  PHE694  ASN695  SER759  ASP760  ASP761  ALA762  ILE779  LEU786  VAL792 
 PHE793  MET794  SER795  GLU796  ALA797  LYS798  CYS799  TRP800  GLU811  SER814 

> <Gold.Protein.RotatedAtoms>
  152.5452  134.1516  159.8520 H   0  0  0  0  0  0  0  0  0  0  0  0  # atno 6907 bound_to 6896
  151.1542  133.4880  159.2602 H   0  0  0  0  0  0  0  0  0  0  0  0  # atno 6908 bound_to 6896
  151.1440  135.0204  159.8693 H   0  0  0  0  0  0  0  0  0  0  0  0  # atno 6909 bound_to 6896
  145.1548  139.3189  143.4547 H   0  0  0  0  0  0  0  0  0  0  0  0  # atno 7974 bound_to 7965
  156.0989  140.1438  156.9494 H   0  0  0  0  0  0  0  0  0  0  0  0  # atno 8008 bound_to 7997
  154.4689  140.0916  156.7139 H   0  0  0  0  0  0  0  0  0  0  0  0  # atno 8009 bound_to 7997
  155.4794  140.3444  155.4339 H   0  0  0  0  0  0  0  0  0  0  0  0  # atno 8010 bound_to 7997
  140.2402  143.3544  152.0809 H   0  0  0  0  0  0  0  0  0  0  0  0  # atno 10167 bound_to 10162
  156.0567  130.4275  150.1829 H   0  0  0  0  0  0  0  0  0  0  0  0  # atno 10718 bound_to 10713
  153.1344  135.6747  153.9126 H   0  0  0  0  0  0  0  0  0  0  0  0  # atno 10763 bound_to 10752
  153.8602  135.3082  155.3438 H   0  0  0  0  0  0  0  0  0  0  0  0  # atno 10764 bound_to 10752
  154.7735  135.4927  153.9779 H   0  0  0  0  0  0  0  0  0  0  0  0  # atno 10765 bound_to 10752
  140.7643  134.3262  157.5093 H   0  0  0  0  0  0  0  0  0  0  0  0  # atno 11005 bound_to 11000
  146.3490  140.1637  142.8590 LP  0  0  0  0  0  0  0  0  0  0  0  0  # atno 17320 bound_to 7965
  145.0392  140.8932  143.5062 LP  0  0  0  0  0  0  0  0  0  0  0  0  # atno 17321 bound_to 7965
  139.5080  144.6842  151.5930 LP  0  0  0  0  0  0  0  0  0  0  0  0  # atno 17342 bound_to 10162
  140.6120  143.9419  150.6460 LP  0  0  0  0  0  0  0  0  0  0  0  0  # atno 17343 bound_to 10162
  156.9904  130.9891  151.3416 LP  0  0  0  0  0  0  0  0  0  0  0  0  # atno 17370 bound_to 10713
  157.5543  130.8203  149.8184 LP  0  0  0  0  0  0  0  0  0  0  0  0  # atno 17371 bound_to 10713
  139.8766  134.9221  156.3292 LP  0  0  0  0  0  0  0  0  0  0  0  0  # atno 17394 bound_to 11000
  140.9634  133.7374  156.0433 LP  0  0  0  0  0  0  0  0  0  0  0  0  # atno 17395 bound_to 11000

$$$$
