AV-unprocessed.smi:2579|AV-procd|sdf|10124|dock3
  -GOLD-   2272014143D 1   1.00000     0.00000
 Structure written by MMmdl.
 39 41  0  0  0  0  0  0  0  0  2 V2000
  147.2292  142.6013  155.1243 O   0  0  0  0  0  0  0  0  0  0  0  0
  147.6855  141.6899  154.1482 C   0  0  0  0  0  0  0  0  0  0  0  0
  149.1816  141.4013  154.3568 C   0  0  0  0  0  0  0  0  0  0  0  0
  149.4548  140.8094  155.6588 N   0  0  0  0  0  0  0  0  0  0  0  0
  150.2295  141.5322  156.5736 C   0  0  0  0  0  0  0  0  0  0  0  0
  150.3637  142.8848  156.6199 N   0  3  0  0  0  0  0  0  0  0  0  0
  151.2419  143.2034  157.6597 C   0  0  0  0  0  0  0  0  0  0  0  0
  151.7080  144.4352  158.1088 C   0  0  0  0  0  0  0  0  0  0  0  0
  152.6100  144.4142  159.1929 C   0  0  0  0  0  0  0  0  0  0  0  0
  153.0168  143.2025  159.7883 C   0  0  0  0  0  0  0  0  0  0  0  0
  152.5384  141.9580  159.3279 C   0  0  0  0  0  0  0  0  0  0  0  0
  151.6449  141.9850  158.2580 C   0  0  0  0  0  0  0  0  0  0  0  0
  150.9833  140.9720  157.5539 N   0  0  0  0  0  0  0  0  0  0  0  0
  151.2047  139.5648  157.9096 C   0  0  0  0  0  0  0  0  0  0  0  0
  151.8519  138.7854  156.7543 C   0  0  1  0  0  0  0  0  0  0  0  0
  150.8542  138.1368  155.7964 C   0  0  0  0  0  0  0  0  0  0  0  0
  151.6099  138.0721  154.4764 C   0  0  0  0  0  0  0  0  0  0  0  0
  152.8543  138.9341  154.7078 C   0  0  0  0  0  0  0  0  0  0  0  0
  152.5856  139.6510  155.9028 O   0  0  0  0  0  0  0  0  0  0  0  0
  147.7152  143.4071  155.0347 H   0  0  0  0  0  0  0  0  0  0  0  0
  147.0834  140.7810  154.1692 H   0  0  0  0  0  0  0  0  0  0  0  0
  147.5340  142.1505  153.1719 H   0  0  0  0  0  0  0  0  0  0  0  0
  149.5383  140.7240  153.5802 H   0  0  0  0  0  0  0  0  0  0  0  0
  149.7643  142.3169  154.2495 H   0  0  0  0  0  0  0  0  0  0  0  0
  149.5087  139.8013  155.6999 H   0  0  0  0  0  0  0  0  0  0  0  0
  151.4017  145.3653  157.6530 H   0  0  0  0  0  0  0  0  0  0  0  0
  153.0001  145.3469  159.5741 H   0  0  0  0  0  0  0  0  0  0  0  0
  153.7117  143.2276  160.6151 H   0  0  0  0  0  0  0  0  0  0  0  0
  152.8589  141.0360  159.7898 H   0  0  0  0  0  0  0  0  0  0  0  0
  151.8116  139.5131  158.8138 H   0  0  0  0  0  0  0  0  0  0  0  0
  150.2348  139.1350  158.1623 H   0  0  0  0  0  0  0  0  0  0  0  0
  152.5334  138.0280  157.1466 H   0  0  0  0  0  0  0  0  0  0  0  0
  150.5197  137.1585  156.1430 H   0  0  0  0  0  0  0  0  0  0  0  0
  149.9733  138.7694  155.6785 H   0  0  0  0  0  0  0  0  0  0  0  0
  151.8886  137.0501  154.2176 H   0  0  0  0  0  0  0  0  0  0  0  0
  150.9976  138.4680  153.6653 H   0  0  0  0  0  0  0  0  0  0  0  0
  153.7334  138.3058  154.8582 H   0  0  0  0  0  0  0  0  0  0  0  0
  153.0582  139.6113  153.8782 H   0  0  0  0  0  0  0  0  0  0  0  0
  149.8995  143.5297  155.9936 H   0  0  0  0  0  0  0  0  0  0  0  0
  1  2  1  0  0  0  0
  1 20  1  0  0  0  0
  2  3  1  0  0  0  0
  2 21  1  0  0  0  0
  2 22  1  0  0  0  0
  3  4  1  0  0  0  0
  3 23  1  0  0  0  0
  3 24  1  0  0  0  0
  4  5  1  0  0  0  0
  4 25  1  0  0  0  0
  5 13  1  0  0  0  0
  5  6  2  0  0  0  0
  6  7  1  0  0  0  0
  6 39  1  0  0  0  0
  7 12  2  0  0  0  0
  7  8  1  0  0  0  0
  8  9  2  0  0  0  0
  8 26  1  0  0  0  0
  9 10  1  0  0  0  0
  9 27  1  0  0  0  0
 10 11  2  0  0  0  0
 10 28  1  0  0  0  0
 11 12  1  0  0  0  0
 11 29  1  0  0  0  0
 12 13  1  0  0  0  0
 13 14  1  0  0  0  0
 14 15  1  0  0  0  0
 14 30  1  0  0  0  0
 14 31  1  0  0  0  0
 15 19  1  0  0  0  0
 15 16  1  0  0  0  0
 15 32  1  0  0  0  0
 16 17  1  0  0  0  0
 16 33  1  0  0  0  0
 16 34  1  0  0  0  0
 17 18  1  0  0  0  0
 17 35  1  0  0  0  0
 17 36  1  0  0  0  0
 18 19  1  0  0  0  0
 18 37  1  0  0  0  0
 18 38  1  0  0  0  0
M  CHG  1   6   1
M  END
> <s_m_source_file>
AV-unprocessed.smi

> <i_m_source_file_index>
2579

> <i_lp_mmshare_version>
43012

> <i_f3d_flags>
0

> <s_epik_input>
W09IXVtDSDJdW0NIMl1bTkhdYyhuMSluKGMoYzEyKVtjSF1bY0hdW2NIXVtjSF0yKVtDSDJdW0NAQEhdM1tDSDJdW0NIMl1bQ0gyXU8z

> <s_epik_cmdline>
J2VwaWtfcHl0aG9uJywgJy1waCcsICc3LjAnLCAnLXRuJywgJzgnLCAnLW1hJywgJzIwMCcsICctbWV0YWxfYmluZGluZycsICctaW1hZScsICc8aW5maWxlLm1hZT4nLCAnLW9tYWUnLCAnPG91dGZpbGUubWFlPic=

> <r_epik_Ionization_Penalty>
0.0735651

> <r_epik_Ionization_Penalty_Charging>
0.0735628

> <r_epik_Ionization_Penalty_Neutral>
2.35277e-06

> <r_epik_State_Penalty>
0.0647164

> <r_epik_Charging_Adjusted_Penalty>
0.138279

> <i_epik_Tot_Q>
1

> <i_epik_Tot_abs_Q>
1

> <r_epik_Metal_State_Penalty>
2.81856

> <b_epik_Metal_Only>
0

> <s_lp_Force_Field>
OPLS_2005

> <r_lp_Energy>
32.0785

> <b_lp_Chiralities_Consistent>
1

> <s_lp_Variant>
AV-unprocessed.smi:2579-2

> <Gold.Version>
5.8.1

> <Gold.Id.Protein>
6NUR|6NUR_protein|mol2

> <Gold.PLP.Fitness>
56.4477

> <Gold.PLP.PLP>
-45.3152

> <Gold.PLP.part.hbond>
-3.0000

> <Gold.PLP.part.metal>
0.0000

> <Gold.PLP.part.buried>
-4.9480

> <Gold.PLP.part.nonpolar>
-37.5114

> <Gold.PLP.part.repulsive>
0.1474

> <Gold.PLP.ligand.clash>
0.0000

> <Gold.PLP.ligand.torsion>
0.4408

> <Gold.PLP.Chemscore.Hbond>
4.0000

> <Gold.PLP.Chemscore.CHOScore>
0.0000

> <Gold.PLP.Chemscore.Metal>
0.0000

> <Gold.Chemscore.Hbonds>
donor molecule, donor type, donor heavy atom, donor atom, acceptor molecule, acceptor atom, score
      L1  H     1    20       P1  8028  1.00
      L1  H     6    39       P1  8028  2.00
      P1  H  7997  8008       L1    19  1.00

> <Gold.PLP.Chemscore.Internal.Correction>
0.0140

> <Gold.Rescore>
     Score         DG    S(hbond)    S(metal)    S(lipo)     H(rot)  DE(clash)    DE(int)     intcor
     21.00     -21.69       2.50        0.00     115.80       2.22       0.05       0.63       ----

> <Gold.Chemscore.Fitness>
21.0008

> <Gold.Chemscore.DG>
-21.6871

> <Gold.Chemscore.ZeroCoef>
-5.4800

> <Gold.Chemscore.Hbond>
2.4975

> <Gold.Chemscore.Metal>
0.0000

> <Gold.Chemscore.Lipo>
115.8046

> <Gold.Chemscore.Internal_Hbond>
0.0000

> <Gold.Chemscore.DEClash>
0.0515

> <Gold.Chemscore.DEInternal>
0.6348

> <Gold.Chemscore.Rot>
2.2202

> <Gold.Chemscore.Internal.Correction>
   9.000000E+99

> <Gold.Chemscore.Hbonds>
donor molecule, donor type, donor heavy atom, donor atom, acceptor molecule, acceptor atom, score
      L1  H     1    20       P1  8028  0.39
      L1  H     6    39       P1  8028  0.96
      P1  H  7997  8008       L1    19  0.27

> <Gold.Chemscore.Hbond.Weighted>
-8.3416

> <Gold.Chemscore.Metal.Weighted>
-0.0000

> <Gold.Chemscore.Lipo.Weighted>
-13.5491

> <Gold.Chemscore.Internal_Hbond.Weighted>
0.0000

> <Gold.Chemscore.DEClash.Weighted>
0.0515

> <Gold.Chemscore.DEInternal.Weighted>
0.6348

> <Gold.Chemscore.Rot.Weighted>
5.6837

> <Gold.Chemscore.Internal.Correction.Weighted>
   9.000000E+99

> <Gold.Protein.RotatedTorsions>
[ 6907 6896 6895 6894 ] final  143.92 input  -60.11 | X-H torsion
[ 7974 7965 7964 7962 ] final   27.21 input  175.53 | X-H torsion
[ 8008 7997 7996 7995 ] final  -51.80 input   59.86 | X-H torsion
[ 10167 10162 10161 10158 ] final  140.90 input  -65.29 | X-H torsion
[ 10718 10713 10712 10709 ] final -168.08 input   66.30 | X-H torsion
[ 10763 10752 10751 10750 ] final   60.83 input  -60.55 | X-H torsion
[ 11005 11000 10999 10996 ] final  -37.37 input  -57.11 | X-H torsion

> <Gold.Protein.ActiveResidues>
 VAL166  LYS551  ARG553  GLY616  TRP617  ASP618  TYR619  PRO620  LYS621  CYS622 
 ASP623  PHE694  ASN695  SER759  ASP760  ASP761  ALA762  ILE779  LEU786  VAL792 
 PHE793  MET794  SER795  GLU796  ALA797  LYS798  CYS799  TRP800  GLU811  SER814 

> <Gold.Protein.RotatedAtoms>
  152.2002  133.4836  159.5054 H   0  0  0  0  0  0  0  0  0  0  0  0  # atno 6907 bound_to 6896
  150.6968  134.1600  159.4181 H   0  0  0  0  0  0  0  0  0  0  0  0  # atno 6908 bound_to 6896
  151.9517  135.0166  160.0593 H   0  0  0  0  0  0  0  0  0  0  0  0  # atno 6909 bound_to 6896
  146.1797  139.7223  142.8909 H   0  0  0  0  0  0  0  0  0  0  0  0  # atno 7974 bound_to 7965
  154.4091  140.1239  156.4889 H   0  0  0  0  0  0  0  0  0  0  0  0  # atno 8008 bound_to 7997
  155.7010  140.3495  155.4914 H   0  0  0  0  0  0  0  0  0  0  0  0  # atno 8009 bound_to 7997
  155.9385  140.1082  157.1065 H   0  0  0  0  0  0  0  0  0  0  0  0  # atno 8010 bound_to 7997
  139.5035  144.6205  151.6061 H   0  0  0  0  0  0  0  0  0  0  0  0  # atno 10167 bound_to 10162
  156.6917  130.9162  151.3070 H   0  0  0  0  0  0  0  0  0  0  0  0  # atno 10718 bound_to 10713
  152.9932  135.5522  154.5936 H   0  0  0  0  0  0  0  0  0  0  0  0  # atno 10763 bound_to 10752
  154.5293  135.2812  155.1196 H   0  0  0  0  0  0  0  0  0  0  0  0  # atno 10764 bound_to 10752
  154.2518  135.6397  153.5296 H   0  0  0  0  0  0  0  0  0  0  0  0  # atno 10765 bound_to 10752
  140.9947  133.6986  156.1912 H   0  0  0  0  0  0  0  0  0  0  0  0  # atno 11005 bound_to 11000
  145.4113  141.0397  143.3016 LP  0  0  0  0  0  0  0  0  0  0  0  0  # atno 17320 bound_to 7965
  144.8294  139.5655  143.6951 LP  0  0  0  0  0  0  0  0  0  0  0  0  # atno 17321 bound_to 7965
  140.5906  143.9786  150.6322 LP  0  0  0  0  0  0  0  0  0  0  0  0  # atno 17342 bound_to 10162
  140.2965  143.3289  152.1012 LP  0  0  0  0  0  0  0  0  0  0  0  0  # atno 17343 bound_to 10162
  157.7006  130.9329  150.0775 LP  0  0  0  0  0  0  0  0  0  0  0  0  # atno 17370 bound_to 10713
  156.1793  130.3649  149.9058 LP  0  0  0  0  0  0  0  0  0  0  0  0  # atno 17371 bound_to 10713
  140.6985  134.4589  157.5587 LP  0  0  0  0  0  0  0  0  0  0  0  0  # atno 17394 bound_to 11000
  139.9009  134.8559  156.1902 LP  0  0  0  0  0  0  0  0  0  0  0  0  # atno 17395 bound_to 11000

$$$$
