AV-unprocessed.smi:2186|AV-procd|sdf|8876|dock10
  -GOLD-   2272012 73D 1   1.00000     0.00000
 Structure written by MMmdl.
 43 44  0  0  0  0  0  0  0  0  1 V2000
  152.4336  144.7194  158.7422 C   0  0  0  0  0  0  0  0  0  0  0  0
  151.7187  143.7046  159.6464 C   0  0  0  0  0  0  0  0  0  0  0  0
  152.0723  143.8669  161.1318 C   0  0  0  0  0  0  0  0  0  0  0  0
  151.9099  142.2986  159.1716 C   0  0  0  0  0  0  0  0  0  0  0  0
  151.0148  141.6386  158.4305 N   0  0  0  0  0  0  0  0  0  0  0  0
  151.4180  140.3339  158.1277 C   0  0  0  0  0  0  0  0  0  0  0  0
  150.5253  139.4427  157.3141 C   0  0  0  0  0  0  0  0  0  0  0  0
  150.0338  138.2735  158.1687 C   0  0  0  0  0  0  0  0  0  0  0  0
  150.5417  138.0577  159.2690 O   0  0  0  0  0  0  0  0  0  0  0  0
  149.0405  137.5320  157.6536 N   0  0  0  0  0  0  0  0  0  0  0  0
  148.3999  136.4085  158.3240 C   0  0  0  0  0  0  0  0  0  0  0  0
  148.2192  136.6936  159.8265 C   0  0  0  0  0  0  0  0  0  0  0  0
  147.2388  135.8454  160.5014 N   0  0  0  0  0  0  0  0  0  0  0  0
  147.3119  136.0133  161.9489 C   0  0  0  0  0  0  0  0  0  0  0  0
  146.2861  135.1322  162.6821 C   0  0  0  0  0  0  0  0  0  0  0  0
  146.4915  133.7690  162.3266 O   0  0  0  0  0  0  0  0  0  0  0  0
  146.3874  133.5472  160.9239 C   0  0  0  0  0  0  0  0  0  0  0  0
  147.4061  134.4293  160.1804 C   0  0  0  0  0  0  0  0  0  0  0  0
  152.6498  140.0164  158.6445 C   0  0  0  0  0  0  0  0  0  0  0  0
  153.3406  141.3412  159.5398 S   0  0  0  0  0  0  0  0  0  0  0  0
  152.0959  144.6294  157.7092 H   0  0  0  0  0  0  0  0  0  0  0  0
  153.5138  144.5696  158.7537 H   0  0  0  0  0  0  0  0  0  0  0  0
  152.2372  145.7413  159.0667 H   0  0  0  0  0  0  0  0  0  0  0  0
  150.6521  143.9149  159.5603 H   0  0  0  0  0  0  0  0  0  0  0  0
  151.4835  143.1896  161.7512 H   0  0  0  0  0  0  0  0  0  0  0  0
  151.8750  144.8829  161.4740 H   0  0  0  0  0  0  0  0  0  0  0  0
  153.1262  143.6543  161.3145 H   0  0  0  0  0  0  0  0  0  0  0  0
  149.6681  139.9956  156.9273 H   0  0  0  0  0  0  0  0  0  0  0  0
  151.0589  139.0551  156.4454 H   0  0  0  0  0  0  0  0  0  0  0  0
  148.6815  137.7870  156.7447 H   0  0  0  0  0  0  0  0  0  0  0  0
  147.4279  136.2455  157.8578 H   0  0  0  0  0  0  0  0  0  0  0  0
  148.9841  135.5032  158.1550 H   0  0  0  0  0  0  0  0  0  0  0  0
  149.1814  136.6178  160.3354 H   0  0  0  0  0  0  0  0  0  0  0  0
  147.9092  137.7349  159.9280 H   0  0  0  0  0  0  0  0  0  0  0  0
  148.3148  135.7651  162.2999 H   0  0  0  0  0  0  0  0  0  0  0  0
  147.1399  137.0578  162.2102 H   0  0  0  0  0  0  0  0  0  0  0  0
  146.3946  135.2409  163.7615 H   0  0  0  0  0  0  0  0  0  0  0  0
  145.2680  135.4323  162.4298 H   0  0  0  0  0  0  0  0  0  0  0  0
  146.5740  132.4937  160.7149 H   0  0  0  0  0  0  0  0  0  0  0  0
  145.3721  133.7652  160.5892 H   0  0  0  0  0  0  0  0  0  0  0  0
  147.2896  134.2656  159.1097 H   0  0  0  0  0  0  0  0  0  0  0  0
  148.4166  134.1081  160.4385 H   0  0  0  0  0  0  0  0  0  0  0  0
  153.1876  139.0838  158.5573 H   0  0  0  0  0  0  0  0  0  0  0  0
  1  2  1  0  0  0  0
  1 21  1  0  0  0  0
  1 22  1  0  0  0  0
  1 23  1  0  0  0  0
  2  3  1  0  0  0  0
  2  4  1  0  0  0  0
  2 24  1  0  0  0  0
  3 25  1  0  0  0  0
  3 26  1  0  0  0  0
  3 27  1  0  0  0  0
  4 20  1  0  0  0  0
  4  5  2  0  0  0  0
  5  6  1  0  0  0  0
  6  7  1  0  0  0  0
  6 19  2  0  0  0  0
  7  8  1  0  0  0  0
  7 28  1  0  0  0  0
  7 29  1  0  0  0  0
  8  9  2  0  0  0  0
  8 10  1  0  0  0  0
 10 11  1  0  0  0  0
 10 30  1  0  0  0  0
 11 12  1  0  0  0  0
 11 31  1  0  0  0  0
 11 32  1  0  0  0  0
 12 13  1  0  0  0  0
 12 33  1  0  0  0  0
 12 34  1  0  0  0  0
 13 18  1  0  0  0  0
 13 14  1  0  0  0  0
 14 15  1  0  0  0  0
 14 35  1  0  0  0  0
 14 36  1  0  0  0  0
 15 16  1  0  0  0  0
 15 37  1  0  0  0  0
 15 38  1  0  0  0  0
 16 17  1  0  0  0  0
 17 18  1  0  0  0  0
 17 39  1  0  0  0  0
 17 40  1  0  0  0  0
 18 41  1  0  0  0  0
 18 42  1  0  0  0  0
 19 20  1  0  0  0  0
 19 43  1  0  0  0  0
M  END
> <s_m_source_file>
AV-unprocessed.smi

> <i_m_source_file_index>
2186

> <i_lp_mmshare_version>
43012

> <i_f3d_flags>
0

> <s_epik_input>
W0NIM11bQ0hdKFtDSDNdKWMxbmMoW2NIXXMxKVtDSDJdQyg9TylbTkhdW0NIMl1bQ0gyXU4yW0NIMl1bQ0gyXU9bQ0gyXVtDSDJdMg==

> <s_epik_cmdline>
J2VwaWtfcHl0aG9uJywgJy1waCcsICc3LjAnLCAnLXRuJywgJzgnLCAnLW1hJywgJzIwMCcsICctbWV0YWxfYmluZGluZycsICctaW1hZScsICc8aW5maWxlLm1hZT4nLCAnLW9tYWUnLCAnPG91dGZpbGUubWFlPic=

> <r_epik_Ionization_Penalty>
0.226788

> <r_epik_Ionization_Penalty_Charging>
0

> <r_epik_Ionization_Penalty_Neutral>
0.226788

> <r_epik_State_Penalty>
0.21727

> <r_epik_Charging_Adjusted_Penalty>
0.21727

> <i_epik_Tot_Q>
0

> <i_epik_Tot_abs_Q>
0

> <r_epik_Metal_State_Penalty>
0.217263

> <b_epik_Metal_Only>
0

> <s_lp_Force_Field>
OPLS_2005

> <r_lp_Energy>
12.6153

> <b_lp_Chiralities_Consistent>
1

> <s_lp_Variant>
AV-unprocessed.smi:2186-1

> <Gold.Version>
5.8.1

> <Gold.Id.Protein>
6NUR|6NUR_protein|mol2

> <Gold.PLP.Fitness>
38.8994

> <Gold.PLP.PLP>
-40.6819

> <Gold.PLP.part.hbond>
-0.8354

> <Gold.PLP.part.metal>
0.0000

> <Gold.PLP.part.buried>
-6.1208

> <Gold.PLP.part.nonpolar>
-34.6353

> <Gold.PLP.part.repulsive>
0.0819

> <Gold.PLP.ligand.clash>
0.0000

> <Gold.PLP.ligand.torsion>
0.9448

> <Gold.PLP.Chemscore.Hbond>
0.0000

> <Gold.PLP.Chemscore.CHOScore>
0.0000

> <Gold.PLP.Chemscore.Metal>
0.0000

> <Gold.PLP.Chemscore.Internal.Correction>
0.1071

> <Gold.Rescore>
     Score         DG    S(hbond)    S(metal)    S(lipo)     H(rot)  DE(clash)    DE(int)     intcor
     11.73     -14.71       0.00        0.00     116.61       1.73       0.00       2.97       ----

> <Gold.Chemscore.Fitness>
11.7300

> <Gold.Chemscore.DG>
-14.7054

> <Gold.Chemscore.ZeroCoef>
-5.4800

> <Gold.Chemscore.Hbond>
0.0000

> <Gold.Chemscore.Metal>
0.0000

> <Gold.Chemscore.Lipo>
116.6124

> <Gold.Chemscore.Internal_Hbond>
0.0000

> <Gold.Chemscore.DEClash>
0.0038

> <Gold.Chemscore.DEInternal>
2.9716

> <Gold.Chemscore.Rot>
1.7259

> <Gold.Chemscore.Internal.Correction>
   9.000000E+99

> <Gold.Chemscore.Hbond.Weighted>
-0.0000

> <Gold.Chemscore.Metal.Weighted>
-0.0000

> <Gold.Chemscore.Lipo.Weighted>
-13.6437

> <Gold.Chemscore.Internal_Hbond.Weighted>
0.0000

> <Gold.Chemscore.DEClash.Weighted>
0.0038

> <Gold.Chemscore.DEInternal.Weighted>
2.9716

> <Gold.Chemscore.Rot.Weighted>
4.4182

> <Gold.Chemscore.Internal.Correction.Weighted>
   9.000000E+99

> <Gold.Protein.RotatedTorsions>
[ 6907 6896 6895 6894 ] final  -43.50 input  -60.11 | X-H torsion
[ 7974 7965 7964 7962 ] final  122.76 input  175.53 | X-H torsion
[ 8008 7997 7996 7995 ] final  170.30 input   59.86 | X-H torsion
[ 10167 10162 10161 10158 ] final  -34.39 input  -65.29 | X-H torsion
[ 10718 10713 10712 10709 ] final  -13.09 input   66.30 | X-H torsion
[ 10763 10752 10751 10750 ] final   84.15 input  -60.55 | X-H torsion
[ 11005 11000 10999 10996 ] final  156.12 input  -57.11 | X-H torsion

> <Gold.Protein.ActiveResidues>
 VAL166  LYS551  ARG553  GLY616  TRP617  ASP618  TYR619  PRO620  LYS621  CYS622 
 ASP623  PHE694  ASN695  SER759  ASP760  ASP761  ALA762  ILE779  LEU786  VAL792 
 PHE793  MET794  SER795  GLU796  ALA797  LYS798  CYS799  TRP800  GLU811  SER814 

> <Gold.Protein.RotatedAtoms>
  150.9432  134.8839  159.7625 H   0  0  0  0  0  0  0  0  0  0  0  0  # atno 6907 bound_to 6896
  152.5089  134.3912  159.9394 H   0  0  0  0  0  0  0  0  0  0  0  0  # atno 6908 bound_to 6896
  151.3932  133.3742  159.2758 H   0  0  0  0  0  0  0  0  0  0  0  0  # atno 6909 bound_to 6896
  145.1038  139.3500  143.4798 H   0  0  0  0  0  0  0  0  0  0  0  0  # atno 7974 bound_to 7965
  156.1378  140.1541  156.8968 H   0  0  0  0  0  0  0  0  0  0  0  0  # atno 8008 bound_to 7997
  154.4962  140.0837  156.7739 H   0  0  0  0  0  0  0  0  0  0  0  0  # atno 8009 bound_to 7997
  155.4136  140.3420  155.4268 H   0  0  0  0  0  0  0  0  0  0  0  0  # atno 8010 bound_to 7997
  140.7186  143.3551  151.2076 H   0  0  0  0  0  0  0  0  0  0  0  0  # atno 10167 bound_to 10162
  156.6353  130.4913  149.6114 H   0  0  0  0  0  0  0  0  0  0  0  0  # atno 10718 bound_to 10713
  153.1356  135.4664  154.9417 H   0  0  0  0  0  0  0  0  0  0  0  0  # atno 10763 bound_to 10752
  154.7703  135.3157  154.8206 H   0  0  0  0  0  0  0  0  0  0  0  0  # atno 10764 bound_to 10752
  153.8739  135.6901  153.4826 H   0  0  0  0  0  0  0  0  0  0  0  0  # atno 10765 bound_to 10752
  140.1645  134.8586  157.2615 H   0  0  0  0  0  0  0  0  0  0  0  0  # atno 11005 bound_to 11000
  146.3529  140.0927  142.8612 LP  0  0  0  0  0  0  0  0  0  0  0  0  # atno 17320 bound_to 7965
  145.0925  140.9293  143.4761 LP  0  0  0  0  0  0  0  0  0  0  0  0  # atno 17321 bound_to 7965
  139.7091  143.9407  152.2939 LP  0  0  0  0  0  0  0  0  0  0  0  0  # atno 17342 bound_to 10162
  139.9126  144.6848  150.8546 LP  0  0  0  0  0  0  0  0  0  0  0  0  # atno 17343 bound_to 10162
  156.2202  130.6732  151.1360 LP  0  0  0  0  0  0  0  0  0  0  0  0  # atno 17370 bound_to 10713
  157.7188  131.0694  150.6222 LP  0  0  0  0  0  0  0  0  0  0  0  0  # atno 17371 bound_to 10713
  140.2451  134.3750  155.7465 LP  0  0  0  0  0  0  0  0  0  0  0  0  # atno 17394 bound_to 11000
  141.2212  133.7286  156.8848 LP  0  0  0  0  0  0  0  0  0  0  0  0  # atno 17395 bound_to 11000

$$$$
