AV-unprocessed.smi:2032|AV-procd|sdf|8255|dock8
  -GOLD-   2272010533D 1   1.00000     0.00000
 Structure written by MMmdl.
 42 43  0  0  0  0  0  0  0  0  3 V2000
  148.6024  140.5856  154.2057 C   0  0  0  0  0  0  0  0  0  0  0  0
  149.2437  139.2058  154.0220 C   0  0  2  0  0  0  0  0  0  0  0  0
  148.6005  138.1401  154.9276 C   0  0  0  0  0  0  0  0  0  0  0  0
  149.2734  136.8226  154.7651 N   0  3  2  0  0  0  0  0  0  0  0  0
  148.6065  135.7267  155.5436 C   0  0  2  0  0  0  0  0  0  0  0  0
  149.0207  135.6988  157.0360 C   0  0  0  0  0  0  0  0  0  0  0  0
  148.8801  134.3560  154.8703 C   0  0  0  0  0  0  0  0  0  0  0  0
  148.2738  134.2372  153.5463 N   0  0  0  0  0  0  0  0  0  0  0  0
  147.5422  133.2065  153.0980 C   0  0  0  0  0  0  0  0  0  0  0  0
  147.3093  132.2466  153.8360 O   0  0  0  0  0  0  0  0  0  0  0  0
  147.1214  133.3563  151.8223 N   0  5  0  0  0  0  0  0  0  0  0  0
  145.8614  133.0313  151.4899 C   0  0  0  0  0  0  0  0  0  0  0  0
  144.8414  133.8932  151.5722 N   0  0  0  0  0  0  0  0  0  0  0  0
  143.6188  133.3458  151.1790 C   0  0  0  0  0  0  0  0  0  0  0  0
  143.7088  132.0340  150.7956 C   0  0  0  0  0  0  0  0  0  0  0  0
  145.3412  131.4429  150.9197 S   0  0  0  0  0  0  0  0  0  0  0  0
  150.7349  136.9844  155.0004 C   0  0  0  0  0  0  0  0  0  0  0  0
  151.3229  138.0970  154.1108 C   0  0  2  0  0  0  0  0  0  0  0  0
  152.8090  138.3403  154.3971 C   0  0  0  0  0  0  0  0  0  0  0  0
  150.6231  139.3115  154.3461 O   0  0  0  0  0  0  0  0  0  0  0  0
  147.5404  140.5607  153.9597 H   0  0  0  0  0  0  0  0  0  0  0  0
  149.0749  141.3239  153.5574 H   0  0  0  0  0  0  0  0  0  0  0  0
  148.6999  140.9345  155.2342 H   0  0  0  0  0  0  0  0  0  0  0  0
  149.1380  138.9131  152.9757 H   0  0  0  0  0  0  0  0  0  0  0  0
  148.6602  138.4509  155.9719 H   0  0  0  0  0  0  0  0  0  0  0  0
  147.5434  138.0765  154.6787 H   0  0  0  0  0  0  0  0  0  0  0  0
  147.5313  135.9124  155.5227 H   0  0  0  0  0  0  0  0  0  0  0  0
  148.5322  134.8896  157.5776 H   0  0  0  0  0  0  0  0  0  0  0  0
  148.7304  136.6086  157.5610 H   0  0  0  0  0  0  0  0  0  0  0  0
  150.0969  135.5641  157.1485 H   0  0  0  0  0  0  0  0  0  0  0  0
  149.9450  134.1997  154.7120 H   0  0  0  0  0  0  0  0  0  0  0  0
  148.5568  133.5478  155.5282 H   0  0  0  0  0  0  0  0  0  0  0  0
  148.4319  134.9991  152.9028 H   0  0  0  0  0  0  0  0  0  0  0  0
  142.7337  133.9638  151.2039 H   0  0  0  0  0  0  0  0  0  0  0  0
  142.9201  131.3821  150.4515 H   0  0  0  0  0  0  0  0  0  0  0  0
  150.9122  137.2050  156.0544 H   0  0  0  0  0  0  0  0  0  0  0  0
  151.2690  136.0652  154.7616 H   0  0  0  0  0  0  0  0  0  0  0  0
  151.2159  137.8201  153.0602 H   0  0  0  0  0  0  0  0  0  0  0  0
  153.3961  137.4382  154.2224 H   0  0  0  0  0  0  0  0  0  0  0  0
  152.9674  138.6476  155.4314 H   0  0  0  0  0  0  0  0  0  0  0  0
  153.2071  139.1244  153.7525 H   0  0  0  0  0  0  0  0  0  0  0  0
  149.1808  136.5648  153.7928 H   0  0  0  0  0  0  0  0  0  0  0  0
  1  2  1  0  0  0  0
  1 21  1  0  0  0  0
  1 22  1  0  0  0  0
  1 23  1  0  0  0  0
  2 20  1  0  0  0  0
  2  3  1  0  0  0  0
  2 24  1  0  0  0  0
  3  4  1  0  0  0  0
  3 25  1  0  0  0  0
  3 26  1  0  0  0  0
  4  5  1  0  0  0  0
  4 17  1  0  0  0  0
  4 42  1  0  0  0  0
  5  6  1  0  0  0  0
  5  7  1  0  0  0  0
  5 27  1  0  0  0  0
  6 28  1  0  0  0  0
  6 29  1  0  0  0  0
  6 30  1  0  0  0  0
  7  8  1  0  0  0  0
  7 31  1  0  0  0  0
  7 32  1  0  0  0  0
  8  9  1  0  0  0  0
  8 33  1  0  0  0  0
  9 10  2  0  0  0  0
  9 11  1  0  0  0  0
 11 12  1  0  0  0  0
 12 16  1  0  0  0  0
 12 13  2  0  0  0  0
 13 14  1  0  0  0  0
 14 15  2  0  0  0  0
 14 34  1  0  0  0  0
 15 16  1  0  0  0  0
 15 35  1  0  0  0  0
 17 18  1  0  0  0  0
 17 36  1  0  0  0  0
 17 37  1  0  0  0  0
 18 19  1  0  0  0  0
 18 20  1  0  0  0  0
 18 38  1  0  0  0  0
 19 39  1  0  0  0  0
 19 40  1  0  0  0  0
 19 41  1  0  0  0  0
M  CHG  1   4   1
M  CHG  1  11  -1
M  END
> <s_m_source_file>
AV-unprocessed.smi

> <i_m_source_file_index>
2032

> <i_lp_mmshare_version>
43012

> <i_f3d_flags>
0

> <s_epik_input>
W0NIM11bQ0BASF0xW0NIMl1OKFtDSDJdW0NASF0oTzEpW0NIM10pW0NASF0oW0NIM10pW0NIMl1bTkhdQyg9TylbTkhdYzJuW2NIXVtjSF1zMg==

> <s_epik_cmdline>
J2VwaWtfcHl0aG9uJywgJy1waCcsICc3LjAnLCAnLXRuJywgJzgnLCAnLW1hJywgJzIwMCcsICctbWV0YWxfYmluZGluZycsICctaW1hZScsICc8aW5maWxlLm1hZT4nLCAnLW9tYWUnLCAnPG91dGZpbGUubWFlPic=

> <r_lp_tautomer_probability>
0.999

> <r_epik_Ionization_Penalty>
6.71699

> <r_epik_Ionization_Penalty_Charging>
5.88592

> <r_epik_Ionization_Penalty_Neutral>
0.831074

> <r_epik_State_Penalty>
6.08365

> <r_epik_Charging_Adjusted_Penalty>
11.9696

> <i_epik_Tot_Q>
0

> <i_epik_Tot_abs_Q>
2

> <r_epik_Metal_State_Penalty>
2.0947

> <b_epik_Metal_Only>
1

> <s_lp_Force_Field>
OPLS_2005

> <r_lp_Energy>
9.66165

> <b_lp_Chiralities_Consistent>
1

> <s_lp_Variant>
AV-unprocessed.smi:2032-25

> <Gold.Version>
5.8.1

> <Gold.Id.Protein>
6NUR|6NUR_protein|mol2

> <Gold.PLP.Fitness>
47.2949

> <Gold.PLP.PLP>
-32.8049

> <Gold.PLP.part.hbond>
-2.9658

> <Gold.PLP.part.metal>
0.0000

> <Gold.PLP.part.buried>
-4.8627

> <Gold.PLP.part.nonpolar>
-25.5652

> <Gold.PLP.part.repulsive>
0.5494

> <Gold.PLP.ligand.clash>
0.0000

> <Gold.PLP.ligand.torsion>
1.6018

> <Gold.PLP.Chemscore.Hbond>
3.9588

> <Gold.PLP.Chemscore.CHOScore>
1.9151

> <Gold.PLP.Chemscore.Metal>
0.0000

> <Gold.Chemscore.Hbonds>
donor molecule, donor type, donor heavy atom, donor atom, acceptor molecule, acceptor atom, score
      L1  H     4    42       P1  7948  2.00
      L1  H     8    33       P1  7948  1.00
      P1  H  7989  7998       L1    20  0.99
      L1  C    14    34       P1 10186  1.00
      L1  C    15    35       P1 10952  1.00

> <Gold.PLP.Chemscore.Internal.Correction>
0.0720

> <Gold.Rescore>
     Score         DG    S(hbond)    S(metal)    S(lipo)     H(rot)  DE(clash)    DE(int)     intcor
     17.18     -19.28       2.57        0.00      79.07       1.58       0.53       1.57       ----

> <Gold.Chemscore.Fitness>
17.1779

> <Gold.Chemscore.DG>
-19.2758

> <Gold.Chemscore.ZeroCoef>
-5.4800

> <Gold.Chemscore.Hbond>
2.5710

> <Gold.Chemscore.Metal>
0.0000

> <Gold.Chemscore.Lipo>
79.0711

> <Gold.Chemscore.Internal_Hbond>
0.0000

> <Gold.Chemscore.DEClash>
0.5319

> <Gold.Chemscore.DEInternal>
1.5660

> <Gold.Chemscore.Rot>
1.5791

> <Gold.Chemscore.Internal.Correction>
   9.000000E+99

> <Gold.Chemscore.Hbonds>
donor molecule, donor type, donor heavy atom, donor atom, acceptor molecule, acceptor atom, score
      L1  H     4    42       P1  7948  0.97
      L1  H     8    33       P1  7948  0.70
      P1  H  7989  7998       L1    20  0.60

> <Gold.Chemscore.Hbond.Weighted>
-8.5870

> <Gold.Chemscore.Metal.Weighted>
-0.0000

> <Gold.Chemscore.Lipo.Weighted>
-9.2513

> <Gold.Chemscore.Internal_Hbond.Weighted>
0.0000

> <Gold.Chemscore.DEClash.Weighted>
0.5319

> <Gold.Chemscore.DEInternal.Weighted>
1.5660

> <Gold.Chemscore.Rot.Weighted>
4.0425

> <Gold.Chemscore.Internal.Correction.Weighted>
   9.000000E+99

> <Gold.Protein.RotatedTorsions>
[ 6907 6896 6895 6894 ] final    5.53 input  -60.11 | X-H torsion
[ 7974 7965 7964 7962 ] final  159.55 input  175.53 | X-H torsion
[ 8008 7997 7996 7995 ] final -108.76 input   59.86 | X-H torsion
[ 10167 10162 10161 10158 ] final   78.23 input  -65.29 | X-H torsion
[ 10718 10713 10712 10709 ] final   28.96 input   66.30 | X-H torsion
[ 10763 10752 10751 10750 ] final -105.23 input  -60.55 | X-H torsion
[ 11005 11000 10999 10996 ] final   32.39 input  -57.11 | X-H torsion

> <Gold.Protein.ActiveResidues>
 VAL166  LYS551  ARG553  GLY616  TRP617  ASP618  TYR619  PRO620  LYS621  CYS622 
 ASP623  PHE694  ASN695  SER759  ASP760  ASP761  ALA762  ILE779  LEU786  VAL792 
 PHE793  MET794  SER795  GLU796  ALA797  LYS798  CYS799  TRP800  GLU811  SER814 

> <Gold.Protein.RotatedAtoms>
  151.6591  135.0991  160.0175 H   0  0  0  0  0  0  0  0  0  0  0  0  # atno 6907 bound_to 6896
  152.3957  133.6739  159.6283 H   0  0  0  0  0  0  0  0  0  0  0  0  # atno 6908 bound_to 6896
  150.7865  133.8795  159.3323 H   0  0  0  0  0  0  0  0  0  0  0  0  # atno 6909 bound_to 6896
  144.7784  139.7633  143.6269 H   0  0  0  0  0  0  0  0  0  0  0  0  # atno 7974 bound_to 7965
  154.9492  140.0401  157.2135 H   0  0  0  0  0  0  0  0  0  0  0  0  # atno 8008 bound_to 7997
  154.7995  140.2849  155.5910 H   0  0  0  0  0  0  0  0  0  0  0  0  # atno 8009 bound_to 7997
  156.2959  140.2558  156.2860 H   0  0  0  0  0  0  0  0  0  0  0  0  # atno 8010 bound_to 7997
  139.9731  144.5880  150.7967 H   0  0  0  0  0  0  0  0  0  0  0  0  # atno 10167 bound_to 10162
  157.2403  130.7066  149.6355 H   0  0  0  0  0  0  0  0  0  0  0  0  # atno 10718 bound_to 10713
  154.7933  135.4756  154.0102 H   0  0  0  0  0  0  0  0  0  0  0  0  # atno 10763 bound_to 10752
  153.1664  135.6817  153.8677 H   0  0  0  0  0  0  0  0  0  0  0  0  # atno 10764 bound_to 10752
  153.8273  135.3196  155.3393 H   0  0  0  0  0  0  0  0  0  0  0  0  # atno 10765 bound_to 10752
  140.2739  134.3050  155.7819 H   0  0  0  0  0  0  0  0  0  0  0  0  # atno 11005 bound_to 11000
  146.1978  139.5255  142.9763 LP  0  0  0  0  0  0  0  0  0  0  0  0  # atno 17320 bound_to 7965
  145.6119  141.0338  143.1962 LP  0  0  0  0  0  0  0  0  0  0  0  0  # atno 17321 bound_to 7965
  140.7515  143.2973  151.3170 LP  0  0  0  0  0  0  0  0  0  0  0  0  # atno 17342 bound_to 10162
  139.6466  144.0440  152.2595 LP  0  0  0  0  0  0  0  0  0  0  0  0  # atno 17343 bound_to 10162
  155.9670  130.4460  150.5524 LP  0  0  0  0  0  0  0  0  0  0  0  0  # atno 17370 bound_to 10713
  157.3385  131.0712  151.1806 LP  0  0  0  0  0  0  0  0  0  0  0  0  # atno 17371 bound_to 10713
  141.2173  133.7484  156.9378 LP  0  0  0  0  0  0  0  0  0  0  0  0  # atno 17394 bound_to 11000
  140.1346  134.9333  157.2385 LP  0  0  0  0  0  0  0  0  0  0  0  0  # atno 17395 bound_to 11000

$$$$
