AV-unprocessed.smi:862|AV-procd|sdf|3977|dock4
  -GOLD-   22720 1453D 1   1.00000     0.00000
 Structure written by MMmdl.
 44 46  0  0  0  0  0  0  0  0  2 V2000
  149.1476  130.6712  157.3080 N   0  0  0  0  0  0  0  0  0  0  0  0
  149.7490  131.8188  156.9797 C   0  0  0  0  0  0  0  0  0  0  0  0
  150.0951  132.6215  157.8447 O   0  0  0  0  0  0  0  0  0  0  0  0
  149.9698  131.9994  155.6528 N   0  0  0  0  0  0  0  0  0  0  0  0
  149.5297  131.1066  154.5678 C   0  0  0  0  0  0  0  0  0  0  0  0
  148.3420  131.7598  153.8371 C   0  0  0  0  0  0  0  0  0  0  0  0
  148.7169  133.1615  153.3023 C   0  0  0  0  0  0  0  0  0  0  0  0
  147.5380  133.8603  152.7442 N   0  3  0  0  0  0  0  0  0  0  0  0
  146.8036  133.1547  151.6661 C   0  0  1  0  0  0  0  0  0  0  0  0
  145.8543  132.0568  152.1571 C   0  0  0  0  0  0  0  0  0  0  0  0
  144.8398  131.8692  151.0207 C   0  0  0  0  0  0  0  0  0  0  0  0
  144.9380  133.1197  150.1291 C   0  0  0  0  0  0  0  0  0  0  0  0
  145.9097  134.0865  150.8274 C   0  0  1  0  0  0  0  0  0  0  0  0
  145.2162  135.0963  151.6262 N   0  0  0  0  0  0  0  0  0  0  0  0
  145.6342  136.4069  151.8266 C   0  0  0  0  0  0  0  0  0  0  0  0
  144.7172  136.9950  152.6675 C   0  0  0  0  0  0  0  0  0  0  0  0
  143.7361  136.0687  153.0086 N   0  0  0  0  0  0  0  0  0  0  0  0
  144.0959  134.9713  152.3571 C   0  0  0  0  0  0  0  0  0  0  0  0
  149.3484  134.0180  154.4196 C   0  0  0  0  0  0  0  0  0  0  0  0
  150.4923  133.2635  155.1202 C   0  0  0  0  0  0  0  0  0  0  0  0
  148.9574  130.4682  158.2787 H   0  0  0  0  0  0  0  0  0  0  0  0
  148.8911  130.0103  156.5896 H   0  0  0  0  0  0  0  0  0  0  0  0
  150.3563  130.9561  153.8717 H   0  0  0  0  0  0  0  0  0  0  0  0
  149.2514  130.1079  154.9037 H   0  0  0  0  0  0  0  0  0  0  0  0
  148.0200  131.1095  153.0252 H   0  0  0  0  0  0  0  0  0  0  0  0
  147.4967  131.8381  154.5229 H   0  0  0  0  0  0  0  0  0  0  0  0
  149.4672  133.0472  152.5181 H   0  0  0  0  0  0  0  0  0  0  0  0
  146.9019  134.0947  153.4930 H   0  0  0  0  0  0  0  0  0  0  0  0
  147.5329  132.7046  150.9902 H   0  0  0  0  0  0  0  0  0  0  0  0
  146.3783  131.1296  152.3908 H   0  0  0  0  0  0  0  0  0  0  0  0
  145.3357  132.3787  153.0609 H   0  0  0  0  0  0  0  0  0  0  0  0
  145.0763  130.9776  150.4388 H   0  0  0  0  0  0  0  0  0  0  0  0
  143.8322  131.7380  151.4168 H   0  0  0  0  0  0  0  0  0  0  0  0
  145.3509  132.8329  149.1612 H   0  0  0  0  0  0  0  0  0  0  0  0
  143.9627  133.5673  149.9322 H   0  0  0  0  0  0  0  0  0  0  0  0
  146.5079  134.6155  150.0839 H   0  0  0  0  0  0  0  0  0  0  0  0
  146.5264  136.8054  151.3661 H   0  0  0  0  0  0  0  0  0  0  0  0
  144.6916  138.0032  153.0543 H   0  0  0  0  0  0  0  0  0  0  0  0
  143.5281  134.0549  152.4212 H   0  0  0  0  0  0  0  0  0  0  0  0
  149.7224  134.9554  154.0065 H   0  0  0  0  0  0  0  0  0  0  0  0
  148.5906  134.2859  155.1579 H   0  0  0  0  0  0  0  0  0  0  0  0
  150.9363  133.8934  155.8926 H   0  0  0  0  0  0  0  0  0  0  0  0
  151.2962  133.0549  154.4127 H   0  0  0  0  0  0  0  0  0  0  0  0
  147.8758  134.7221  152.3401 H   0  0  0  0  0  0  0  0  0  0  0  0
  1  2  1  0  0  0  0
  1 21  1  0  0  0  0
  1 22  1  0  0  0  0
  2  3  2  0  0  0  0
  2  4  1  0  0  0  0
  4 20  1  0  0  0  0
  4  5  1  0  0  0  0
  5  6  1  0  0  0  0
  5 23  1  0  0  0  0
  5 24  1  0  0  0  0
  6  7  1  0  0  0  0
  6 25  1  0  0  0  0
  6 26  1  0  0  0  0
  7  8  1  0  0  0  0
  7 19  1  0  0  0  0
  7 27  1  0  0  0  0
  8  9  1  0  0  0  0
  8 28  1  0  0  0  0
  8 44  1  0  0  0  0
  9 13  1  0  0  0  0
  9 10  1  0  0  0  0
  9 29  1  0  0  0  0
 10 11  1  0  0  0  0
 10 30  1  0  0  0  0
 10 31  1  0  0  0  0
 11 12  1  0  0  0  0
 11 32  1  0  0  0  0
 11 33  1  0  0  0  0
 12 13  1  0  0  0  0
 12 34  1  0  0  0  0
 12 35  1  0  0  0  0
 13 14  1  0  0  0  0
 13 36  1  0  0  0  0
 14 18  1  0  0  0  0
 14 15  1  0  0  0  0
 15 16  2  0  0  0  0
 15 37  1  0  0  0  0
 16 17  1  0  0  0  0
 16 38  1  0  0  0  0
 17 18  2  0  0  0  0
 18 39  1  0  0  0  0
 19 20  1  0  0  0  0
 19 40  1  0  0  0  0
 19 41  1  0  0  0  0
 20 42  1  0  0  0  0
 20 43  1  0  0  0  0
M  CHG  1   8   1
M  END
> <s_m_source_file>
AV-unprocessed.smi

> <i_m_source_file_index>
862

> <i_lp_mmshare_version>
43012

> <i_f3d_flags>
0

> <s_epik_input>
W05IMl1DKD1PKU4xW0NIMl1bQ0gyXVtDSF0oW0NIMl1bQ0gyXTEpW05IXVtDQEBIXTJbQ0gyXVtDSDJdW0NIMl1bQ0BIXTJuM1tjSF1bY0hdbltjSF0z

> <s_epik_cmdline>
J2VwaWtfcHl0aG9uJywgJy1waCcsICc3LjAnLCAnLXRuJywgJzgnLCAnLW1hJywgJzIwMCcsICctbWV0YWxfYmluZGluZycsICctaW1hZScsICc8aW5maWxlLm1hZT4nLCAnLW9tYWUnLCAnPG91dGZpbGUubWFlPic=

> <r_lp_tautomer_probability>
1

> <r_epik_Ionization_Penalty>
0.0731506

> <r_epik_Ionization_Penalty_Charging>
0.0731

> <r_epik_Ionization_Penalty_Neutral>
5.05966e-05

> <r_epik_State_Penalty>
0.128895

> <r_epik_Charging_Adjusted_Penalty>
0.201995

> <i_epik_Tot_Q>
1

> <i_epik_Tot_abs_Q>
1

> <r_epik_Metal_State_Penalty>
0.113934

> <b_epik_Metal_Only>
0

> <s_lp_Force_Field>
OPLS_2005

> <r_lp_Energy>
58.7587

> <b_lp_Chiralities_Consistent>
1

> <s_lp_Variant>
AV-unprocessed.smi:862-2

> <Gold.Version>
5.8.1

> <Gold.Id.Protein>
6NUR|6NUR_protein|mol2

> <Gold.PLP.Fitness>
48.1373

> <Gold.PLP.PLP>
-35.4903

> <Gold.PLP.part.hbond>
-2.0000

> <Gold.PLP.part.metal>
0.0000

> <Gold.PLP.part.buried>
-4.0234

> <Gold.PLP.part.nonpolar>
-29.4823

> <Gold.PLP.part.repulsive>
0.1210

> <Gold.PLP.ligand.clash>
0.0000

> <Gold.PLP.ligand.torsion>
0.8534

> <Gold.PLP.Chemscore.Hbond>
3.0000

> <Gold.PLP.Chemscore.CHOScore>
1.7647

> <Gold.PLP.Chemscore.Metal>
0.0000

> <Gold.Chemscore.Hbonds>
donor molecule, donor type, donor heavy atom, donor atom, acceptor molecule, acceptor atom, score
      L1  H     8    44       P1  7948  2.00
      P1  H  6896  6909       L1     3  1.00
      L1  C    15    37       P1  7948  0.99
      L1  C    16    38       P1 10175  0.54

> <Gold.PLP.Chemscore.Internal.Correction>
0.0596

> <Gold.Rescore>
     Score         DG    S(hbond)    S(metal)    S(lipo)     H(rot)  DE(clash)    DE(int)     intcor
     15.70     -16.48       1.83        0.00      77.64       1.64       0.08       0.70       ----

> <Gold.Chemscore.Fitness>
15.7002

> <Gold.Chemscore.DG>
-16.4828

> <Gold.Chemscore.ZeroCoef>
-5.4800

> <Gold.Chemscore.Hbond>
1.8324

> <Gold.Chemscore.Metal>
0.0000

> <Gold.Chemscore.Lipo>
77.6393

> <Gold.Chemscore.Internal_Hbond>
0.0000

> <Gold.Chemscore.DEClash>
0.0791

> <Gold.Chemscore.DEInternal>
0.7035

> <Gold.Chemscore.Rot>
1.6411

> <Gold.Chemscore.Internal.Correction>
   9.000000E+99

> <Gold.Chemscore.Hbonds>
donor molecule, donor type, donor heavy atom, donor atom, acceptor molecule, acceptor atom, score
      L1  H     8    44       P1  7948  0.65
      P1  H  6896  6909       L1     3  1.00

> <Gold.Chemscore.Hbond.Weighted>
-6.1204

> <Gold.Chemscore.Metal.Weighted>
-0.0000

> <Gold.Chemscore.Lipo.Weighted>
-9.0838

> <Gold.Chemscore.Internal_Hbond.Weighted>
0.0000

> <Gold.Chemscore.DEClash.Weighted>
0.0791

> <Gold.Chemscore.DEInternal.Weighted>
0.7035

> <Gold.Chemscore.Rot.Weighted>
4.2013

> <Gold.Chemscore.Internal.Correction.Weighted>
   9.000000E+99

> <Gold.Protein.RotatedTorsions>
[ 6907 6896 6895 6894 ] final  -21.53 input  -60.11 | X-H torsion
[ 7974 7965 7964 7962 ] final   35.66 input  175.53 | X-H torsion
[ 8008 7997 7996 7995 ] final  -47.57 input   59.86 | X-H torsion
[ 10167 10162 10161 10158 ] final  -15.70 input  -65.29 | X-H torsion
[ 10718 10713 10712 10709 ] final  -91.37 input   66.30 | X-H torsion
[ 10763 10752 10751 10750 ] final   64.86 input  -60.55 | X-H torsion
[ 11005 11000 10999 10996 ] final  160.83 input  -57.11 | X-H torsion

> <Gold.Protein.ActiveResidues>
 VAL166  LYS551  ARG553  GLY616  TRP617  ASP618  TYR619  PRO620  LYS621  CYS622 
 ASP623  PHE694  ASN695  SER759  ASP760  ASP761  ALA762  ILE779  LEU786  VAL792 
 PHE793  MET794  SER795  GLU796  ALA797  LYS798  CYS799  TRP800  GLU811  SER814 

> <Gold.Protein.RotatedAtoms>
  151.2320  135.0558  159.8990 H   0  0  0  0  0  0  0  0  0  0  0  0  # atno 6907 bound_to 6896
  152.5404  134.0527  159.8127 H   0  0  0  0  0  0  0  0  0  0  0  0  # atno 6908 bound_to 6896
  151.0708  133.5419  159.2659 H   0  0  0  0  0  0  0  0  0  0  0  0  # atno 6909 bound_to 6896
  146.1267  139.6115  142.9254 H   0  0  0  0  0  0  0  0  0  0  0  0  # atno 7974 bound_to 7965
  154.4018  140.1343  156.4197 H   0  0  0  0  0  0  0  0  0  0  0  0  # atno 8008 bound_to 7997
  155.7654  140.3485  155.5199 H   0  0  0  0  0  0  0  0  0  0  0  0  # atno 8009 bound_to 7997
  155.8818  140.0988  157.1470 H   0  0  0  0  0  0  0  0  0  0  0  0  # atno 8010 bound_to 7997
  140.7222  143.5191  150.9655 H   0  0  0  0  0  0  0  0  0  0  0  0  # atno 10167 bound_to 10162
  155.9993  130.4945  150.5464 H   0  0  0  0  0  0  0  0  0  0  0  0  # atno 10718 bound_to 10713
  153.0073  135.5378  154.6576 H   0  0  0  0  0  0  0  0  0  0  0  0  # atno 10763 bound_to 10752
  154.5793  135.2848  155.0751 H   0  0  0  0  0  0  0  0  0  0  0  0  # atno 10764 bound_to 10752
  154.1886  135.6504  153.5106 H   0  0  0  0  0  0  0  0  0  0  0  0  # atno 10765 bound_to 10752
  140.2098  134.8276  157.3108 H   0  0  0  0  0  0  0  0  0  0  0  0  # atno 11005 bound_to 11000
  145.5350  141.0424  143.2362 LP  0  0  0  0  0  0  0  0  0  0  0  0  # atno 17320 bound_to 7965
  144.7649  139.6868  143.7219 LP  0  0  0  0  0  0  0  0  0  0  0  0  # atno 17321 bound_to 7965
  139.8908  143.6956  152.3145 LP  0  0  0  0  0  0  0  0  0  0  0  0  # atno 17342 bound_to 10162
  139.7271  144.7590  151.0862 LP  0  0  0  0  0  0  0  0  0  0  0  0  # atno 17343 bound_to 10162
  157.3393  131.0714  151.1800 LP  0  0  0  0  0  0  0  0  0  0  0  0  # atno 17370 bound_to 10713
  157.2654  130.6679  149.5994 LP  0  0  0  0  0  0  0  0  0  0  0  0  # atno 17371 bound_to 10713
  140.1963  134.4309  155.7687 LP  0  0  0  0  0  0  0  0  0  0  0  0  # atno 17394 bound_to 11000
  141.2226  133.7051  156.8110 LP  0  0  0  0  0  0  0  0  0  0  0  0  # atno 17395 bound_to 11000

$$$$
