AV-unprocessed.smi:2826|AV-procd|sdf|10893|dock3
  -GOLD-   2272015343D 1   1.00000     0.00000
 Structure written by MMmdl.
 50 51  0  0  0  0  0  0  0  0  1 V2000
  147.4812  128.2604  153.3222 C   0  0  0  0  0  0  0  0  0  0  0  0
  148.4817  128.8133  154.1701 O   0  0  0  0  0  0  0  0  0  0  0  0
  148.7136  130.1722  154.1102 C   0  0  0  0  0  0  0  0  0  0  0  0
  149.7685  130.7105  154.8716 C   0  0  0  0  0  0  0  0  0  0  0  0
  150.0093  132.0958  154.8155 C   0  0  0  0  0  0  0  0  0  0  0  0
  149.1799  132.9075  154.0047 C   0  0  0  0  0  0  0  0  0  0  0  0
  149.3614  134.3124  153.8687 N   0  0  0  0  0  0  0  0  0  0  0  0
  149.8889  135.1720  154.7569 C   0  0  0  0  0  0  0  0  0  0  0  0
  150.2983  134.8729  155.8786 O   0  0  0  0  0  0  0  0  0  0  0  0
  149.8947  136.4239  154.2769 N   0  0  0  0  0  0  0  0  0  0  0  0
  150.3817  137.5963  154.9983 C   0  0  1  0  0  0  0  0  0  0  0  0
  151.8620  137.8376  154.6708 C   0  0  0  0  0  0  0  0  0  0  0  0
  152.3484  139.1481  155.3088 C   0  0  0  0  0  0  0  0  0  0  0  0
  151.5323  140.2307  154.8750 O   0  0  0  0  0  0  0  0  0  0  0  0
  150.1697  140.1077  155.2769 C   0  0  1  0  0  0  0  0  0  0  0  0
  149.4154  141.3823  154.8542 C   0  0  0  0  0  0  0  0  0  0  0  0
  147.8846  141.2196  154.7320 C   0  0  0  0  0  0  0  0  0  0  0  0
  147.2176  142.4120  154.0253 C   0  0  0  0  0  0  0  0  0  0  0  0
  147.2533  141.0000  156.1152 C   0  0  0  0  0  0  0  0  0  0  0  0
  149.5681  138.8476  154.6255 C   0  0  0  0  0  0  0  0  0  0  0  0
  148.1553  132.2684  153.2652 C   0  0  0  0  0  0  0  0  0  0  0  0
  147.2287  133.0534  152.3533 C   0  0  0  0  0  0  0  0  0  0  0  0
  147.9239  130.9381  153.3186 N   0  0  0  0  0  0  0  0  0  0  0  0
  147.4179  127.1858  153.4923 H   0  0  0  0  0  0  0  0  0  0  0  0
  147.7207  128.4149  152.2694 H   0  0  0  0  0  0  0  0  0  0  0  0
  146.4994  128.6865  153.5326 H   0  0  0  0  0  0  0  0  0  0  0  0
  150.3866  130.0713  155.4845 H   0  0  0  0  0  0  0  0  0  0  0  0
  150.8323  132.5049  155.3809 H   0  0  0  0  0  0  0  0  0  0  0  0
  148.9797  134.7195  153.0277 H   0  0  0  0  0  0  0  0  0  0  0  0
  149.5336  136.5798  153.3472 H   0  0  0  0  0  0  0  0  0  0  0  0
  150.2938  137.4206  156.0725 H   0  0  0  0  0  0  0  0  0  0  0  0
  152.4701  137.0029  155.0219 H   0  0  0  0  0  0  0  0  0  0  0  0
  151.9999  137.8937  153.5899 H   0  0  0  0  0  0  0  0  0  0  0  0
  152.3340  139.0807  156.3978 H   0  0  0  0  0  0  0  0  0  0  0  0
  153.3798  139.3465  155.0168 H   0  0  0  0  0  0  0  0  0  0  0  0
  150.1208  139.9978  156.3606 H   0  0  0  0  0  0  0  0  0  0  0  0
  149.6340  142.1661  155.5807 H   0  0  0  0  0  0  0  0  0  0  0  0
  149.8125  141.7391  153.9029 H   0  0  0  0  0  0  0  0  0  0  0  0
  147.6806  140.3250  154.1425 H   0  0  0  0  0  0  0  0  0  0  0  0
  147.4291  143.3481  154.5426 H   0  0  0  0  0  0  0  0  0  0  0  0
  146.1345  142.2903  153.9912 H   0  0  0  0  0  0  0  0  0  0  0  0
  147.5579  142.5142  152.9954 H   0  0  0  0  0  0  0  0  0  0  0  0
  147.4160  141.8599  156.7660 H   0  0  0  0  0  0  0  0  0  0  0  0
  147.6775  140.1246  156.6079 H   0  0  0  0  0  0  0  0  0  0  0  0
  146.1774  140.8405  156.0366 H   0  0  0  0  0  0  0  0  0  0  0  0
  149.5557  138.9694  153.5412 H   0  0  0  0  0  0  0  0  0  0  0  0
  148.5298  138.7278  154.9371 H   0  0  0  0  0  0  0  0  0  0  0  0
  146.7154  133.8348  152.9145 H   0  0  0  0  0  0  0  0  0  0  0  0
  146.4710  132.4112  151.9018 H   0  0  0  0  0  0  0  0  0  0  0  0
  147.7967  133.5216  151.5491 H   0  0  0  0  0  0  0  0  0  0  0  0
  1  2  1  0  0  0  0
  1 24  1  0  0  0  0
  1 25  1  0  0  0  0
  1 26  1  0  0  0  0
  2  3  1  0  0  0  0
  3 23  1  0  0  0  0
  3  4  2  0  0  0  0
  4  5  1  0  0  0  0
  4 27  1  0  0  0  0
  5  6  2  0  0  0  0
  5 28  1  0  0  0  0
  6  7  1  0  0  0  0
  6 21  1  0  0  0  0
  7  8  1  0  0  0  0
  7 29  1  0  0  0  0
  8  9  2  0  0  0  0
  8 10  1  0  0  0  0
 10 11  1  0  0  0  0
 10 30  1  0  0  0  0
 11 20  1  0  0  0  0
 11 12  1  0  0  0  0
 11 31  1  0  0  0  0
 12 13  1  0  0  0  0
 12 32  1  0  0  0  0
 12 33  1  0  0  0  0
 13 14  1  0  0  0  0
 13 34  1  0  0  0  0
 13 35  1  0  0  0  0
 14 15  1  0  0  0  0
 15 16  1  0  0  0  0
 15 20  1  0  0  0  0
 15 36  1  0  0  0  0
 16 17  1  0  0  0  0
 16 37  1  0  0  0  0
 16 38  1  0  0  0  0
 17 18  1  0  0  0  0
 17 19  1  0  0  0  0
 17 39  1  0  0  0  0
 18 40  1  0  0  0  0
 18 41  1  0  0  0  0
 18 42  1  0  0  0  0
 19 43  1  0  0  0  0
 19 44  1  0  0  0  0
 19 45  1  0  0  0  0
 20 46  1  0  0  0  0
 20 47  1  0  0  0  0
 21 22  1  0  0  0  0
 21 23  2  0  0  0  0
 22 48  1  0  0  0  0
 22 49  1  0  0  0  0
 22 50  1  0  0  0  0
M  END
> <s_m_source_file>
AV-unprocessed.smi

> <i_m_source_file_index>
2826

> <i_lp_mmshare_version>
43012

> <i_f3d_flags>
0

> <s_epik_input>
W0NIM11PYzFbY0hdW2NIXWMoYyhuMSlbQ0gzXSlbTkhdQyg9TylbTkhdW0NAQEhdMltDSDJdW0NIMl1PW0NASF0oW0NIMl0yKVtDSDJdW0NIXShbQ0gzXSlbQ0gzXQ==

> <s_epik_cmdline>
J2VwaWtfcHl0aG9uJywgJy1waCcsICc3LjAnLCAnLXRuJywgJzgnLCAnLW1hJywgJzIwMCcsICctbWV0YWxfYmluZGluZycsICctaW1hZScsICc8aW5maWxlLm1hZT4nLCAnLW9tYWUnLCAnPG91dGZpbGUubWFlPic=

> <r_lp_tautomer_probability>
1

> <r_epik_Ionization_Penalty>
0.000249977

> <r_epik_Ionization_Penalty_Charging>
0

> <r_epik_Ionization_Penalty_Neutral>
0.000249977

> <r_epik_State_Penalty>
-0

> <r_epik_Charging_Adjusted_Penalty>
0

> <i_epik_Tot_Q>
0

> <i_epik_Tot_abs_Q>
0

> <r_epik_Metal_State_Penalty>
-0

> <b_epik_Metal_Only>
0

> <s_lp_Force_Field>
OPLS_2005

> <r_lp_Energy>
13.3691

> <b_lp_Chiralities_Consistent>
1

> <s_lp_Variant>
AV-unprocessed.smi:2826-2

> <Gold.Version>
5.8.1

> <Gold.Id.Protein>
6NUR|6NUR_protein|mol2

> <Gold.PLP.Fitness>
47.4376

> <Gold.PLP.PLP>
-41.3145

> <Gold.PLP.part.hbond>
-3.7702

> <Gold.PLP.part.metal>
0.0000

> <Gold.PLP.part.buried>
-2.7760

> <Gold.PLP.part.nonpolar>
-36.0265

> <Gold.PLP.part.repulsive>
0.6709

> <Gold.PLP.ligand.clash>
0.0000

> <Gold.PLP.ligand.torsion>
0.8155

> <Gold.PLP.Chemscore.Hbond>
2.5664

> <Gold.PLP.Chemscore.CHOScore>
0.0000

> <Gold.PLP.Chemscore.Metal>
0.0000

> <Gold.Chemscore.Hbonds>
donor molecule, donor type, donor heavy atom, donor atom, acceptor molecule, acceptor atom, score
      L1  H     7    29       P1  7948  0.60
      L1  H    10    30       P1  7948  1.00
      P1  H  7989  7998       L1    14  0.96

> <Gold.PLP.Chemscore.Internal.Correction>
0.0547

> <Gold.Rescore>
     Score         DG    S(hbond)    S(metal)    S(lipo)     H(rot)  DE(clash)    DE(int)     intcor
     15.95     -17.83       1.79        0.00      87.37       1.51       0.01       1.87       ----

> <Gold.Chemscore.Fitness>
15.9549

> <Gold.Chemscore.DG>
-17.8328

> <Gold.Chemscore.ZeroCoef>
-5.4800

> <Gold.Chemscore.Hbond>
1.7920

> <Gold.Chemscore.Metal>
0.0000

> <Gold.Chemscore.Lipo>
87.3701

> <Gold.Chemscore.Internal_Hbond>
0.0000

> <Gold.Chemscore.DEClash>
0.0053

> <Gold.Chemscore.DEInternal>
1.8727

> <Gold.Chemscore.Rot>
1.5057

> <Gold.Chemscore.Internal.Correction>
   9.000000E+99

> <Gold.Chemscore.Hbonds>
donor molecule, donor type, donor heavy atom, donor atom, acceptor molecule, acceptor atom, score
      L1  H     7    29       P1  7948  0.05
      L1  H    10    30       P1  7948  0.64
      P1  H  7989  7998       L1    14  0.72

> <Gold.Chemscore.Hbond.Weighted>
-5.9852

> <Gold.Chemscore.Metal.Weighted>
-0.0000

> <Gold.Chemscore.Lipo.Weighted>
-10.2223

> <Gold.Chemscore.Internal_Hbond.Weighted>
0.0000

> <Gold.Chemscore.DEClash.Weighted>
0.0053

> <Gold.Chemscore.DEInternal.Weighted>
1.8727

> <Gold.Chemscore.Rot.Weighted>
3.8547

> <Gold.Chemscore.Internal.Correction.Weighted>
   9.000000E+99

> <Gold.Protein.RotatedTorsions>
[ 6907 6896 6895 6894 ] final -115.87 input  -60.11 | X-H torsion
[ 7974 7965 7964 7962 ] final  158.63 input  175.53 | X-H torsion
[ 8008 7997 7996 7995 ] final  163.84 input   59.86 | X-H torsion
[ 10167 10162 10161 10158 ] final   68.10 input  -65.29 | X-H torsion
[ 10718 10713 10712 10709 ] final -176.38 input   66.30 | X-H torsion
[ 10763 10752 10751 10750 ] final   64.09 input  -60.55 | X-H torsion
[ 11005 11000 10999 10996 ] final  126.35 input  -57.11 | X-H torsion

> <Gold.Protein.ActiveResidues>
 VAL166  LYS551  ARG553  GLY616  TRP617  ASP618  TYR619  PRO620  LYS621  CYS622 
 ASP623  PHE694  ASN695  SER759  ASP760  ASP761  ALA762  ILE779  LEU786  VAL792 
 PHE793  MET794  SER795  GLU796  ALA797  LYS798  CYS799  TRP800  GLU811  SER814 

> <Gold.Protein.RotatedAtoms>
  150.8011  133.8597  159.3228 H   0  0  0  0  0  0  0  0  0  0  0  0  # atno 6907 bound_to 6896
  151.6409  135.1011  160.0150 H   0  0  0  0  0  0  0  0  0  0  0  0  # atno 6908 bound_to 6896
  152.4098  133.6906  159.6423 H   0  0  0  0  0  0  0  0  0  0  0  0  # atno 6909 bound_to 6896
  144.7835  139.7505  143.6250 H   0  0  0  0  0  0  0  0  0  0  0  0  # atno 7974 bound_to 7965
  156.1926  140.1713  156.8061 H   0  0  0  0  0  0  0  0  0  0  0  0  # atno 8008 bound_to 7997
  154.5490  140.0721  156.8669 H   0  0  0  0  0  0  0  0  0  0  0  0  # atno 8009 bound_to 7997
  155.3065  140.3365  155.4248 H   0  0  0  0  0  0  0  0  0  0  0  0  # atno 8010 bound_to 7997
  140.0823  144.5060  150.7153 H   0  0  0  0  0  0  0  0  0  0  0  0  # atno 10167 bound_to 10162
  156.8139  130.9596  151.3115 H   0  0  0  0  0  0  0  0  0  0  0  0  # atno 10718 bound_to 10713
  153.0042  135.5405  154.6455 H   0  0  0  0  0  0  0  0  0  0  0  0  # atno 10763 bound_to 10752
  154.5700  135.2841  155.0839 H   0  0  0  0  0  0  0  0  0  0  0  0  # atno 10764 bound_to 10752
  154.2008  135.6484  153.5139 H   0  0  0  0  0  0  0  0  0  0  0  0  # atno 10765 bound_to 10752
  139.9452  134.9630  156.8694 H   0  0  0  0  0  0  0  0  0  0  0  0  # atno 11005 bound_to 11000
  146.2055  139.5376  142.9715 LP  0  0  0  0  0  0  0  0  0  0  0  0  # atno 17320 bound_to 7965
  145.5986  141.0359  143.2031 LP  0  0  0  0  0  0  0  0  0  0  0  0  # atno 17321 bound_to 7965
  140.7071  143.2476  151.4693 LP  0  0  0  0  0  0  0  0  0  0  0  0  # atno 17342 bound_to 10162
  139.5772  144.1792  152.1919 LP  0  0  0  0  0  0  0  0  0  0  0  0  # atno 17343 bound_to 10162
  157.6492  130.8870  149.9598 LP  0  0  0  0  0  0  0  0  0  0  0  0  # atno 17370 bound_to 10713
  156.1028  130.3654  150.0187 LP  0  0  0  0  0  0  0  0  0  0  0  0  # atno 17371 bound_to 10713
  140.5853  134.0313  155.7479 LP  0  0  0  0  0  0  0  0  0  0  0  0  # atno 17394 bound_to 11000
  141.1100  133.9632  157.2928 LP  0  0  0  0  0  0  0  0  0  0  0  0  # atno 17395 bound_to 11000

$$$$
