AV-unprocessed.smi:726|AV-procd|sdf|3512|dock4
  -GOLD-   22720 0513D 1   1.00000     0.00000
 Structure written by MMmdl.
 23 23  0  0  0  0  0  0  0  0  3 V2000
  152.2469  143.9912  157.9851 C   0  0  0  0  0  0  0  0  0  0  0  0
  152.5047  142.7219  158.7899 C   0  0  0  0  0  0  0  0  0  0  0  0
  153.2756  142.7891  159.8987 C   0  0  0  0  0  0  0  0  0  0  0  0
  153.5808  141.6649  160.6501 C   0  0  0  0  0  0  0  0  0  0  0  0
  154.2853  141.7259  161.6822 O   0  5  0  0  0  0  0  0  0  0  0  0
  153.0622  140.4687  160.1793 C   0  0  0  0  0  0  0  0  0  0  0  0
  152.2441  140.3252  158.9810 C   0  0  0  0  0  0  0  0  0  0  0  0
  151.8632  139.2171  158.6029 O   0  0  0  0  0  0  0  0  0  0  0  0
  151.9471  141.4908  158.3281 N   0  0  0  0  0  0  0  0  0  0  0  0
  150.9897  141.4780  157.1787 C   0  0  2  0  0  0  0  0  0  0  0  0
  149.5078  141.3325  157.6076 C   0  0  0  0  0  0  0  0  0  0  0  0
  151.4269  140.5213  156.0539 C   0  0  0  0  0  0  0  0  0  0  0  0
  152.4694  139.8512  156.2260 O   0  0  0  0  0  0  0  0  0  0  0  0
  150.7014  140.4683  155.0362 O   0  5  0  0  0  0  0  0  0  0  0  0
  152.8922  144.8032  158.3215 H   0  0  0  0  0  0  0  0  0  0  0  0
  151.2163  144.3244  158.1085 H   0  0  0  0  0  0  0  0  0  0  0  0
  152.4583  143.8465  156.9259 H   0  0  0  0  0  0  0  0  0  0  0  0
  153.6681  143.7477  160.2066 H   0  0  0  0  0  0  0  0  0  0  0  0
  153.2783  139.5648  160.7308 H   0  0  0  0  0  0  0  0  0  0  0  0
  150.9654  142.4466  156.6901 H   0  0  0  0  0  0  0  0  0  0  0  0
  148.8459  141.5166  156.7608 H   0  0  0  0  0  0  0  0  0  0  0  0
  149.2538  142.0596  158.3793 H   0  0  0  0  0  0  0  0  0  0  0  0
  149.2576  140.3426  157.9864 H   0  0  0  0  0  0  0  0  0  0  0  0
  1  2  1  0  0  0  0
  1 15  1  0  0  0  0
  1 16  1  0  0  0  0
  1 17  1  0  0  0  0
  2  9  1  0  0  0  0
  2  3  2  0  0  0  0
  3  4  1  0  0  0  0
  3 18  1  0  0  0  0
  4  5  1  0  0  0  0
  4  6  2  0  0  0  0
  6  7  1  0  0  0  0
  6 19  1  0  0  0  0
  7  8  2  0  0  0  0
  7  9  1  0  0  0  0
  9 10  1  0  0  0  0
 10 11  1  0  0  0  0
 10 12  1  0  0  0  0
 10 20  1  0  0  0  0
 11 21  1  0  0  0  0
 11 22  1  0  0  0  0
 11 23  1  0  0  0  0
 12 13  2  0  0  0  0
 12 14  1  0  0  0  0
M  CHG  1   5  -1
M  CHG  1  14  -1
M  END
> <s_m_source_file>
AV-unprocessed.smi

> <i_m_source_file_index>
726

> <i_lp_mmshare_version>
43012

> <i_f3d_flags>
0

> <s_epik_input>
W0NIM11jMVtjSF1jKFtPSF0pW2NIXWMoPU8pbjFbQ0BIXShbQ0gzXSlDKD1PKVtPSF0=

> <s_epik_cmdline>
J2VwaWtfcHl0aG9uJywgJy1waCcsICc3LjAnLCAnLXRuJywgJzgnLCAnLW1hJywgJzIwMCcsICctbWV0YWxfYmluZGluZycsICctaW1hZScsICc8aW5maWxlLm1hZT4nLCAnLW9tYWUnLCAnPG91dGZpbGUubWFlPic=

> <r_lp_tautomer_probability>
1

> <r_epik_Ionization_Penalty>
0.657059

> <r_epik_Ionization_Penalty_Charging>
0.657059

> <r_epik_Ionization_Penalty_Neutral>
1.59975e-13

> <r_epik_State_Penalty>
0.584419

> <r_epik_Charging_Adjusted_Penalty>
1.24148

> <i_epik_Tot_Q>
-2

> <i_epik_Tot_abs_Q>
2

> <r_epik_Metal_State_Penalty>
0.584419

> <b_epik_Metal_Only>
0

> <s_lp_Force_Field>
OPLS_2005

> <r_lp_Energy>
32.5185

> <b_lp_Chiralities_Consistent>
1

> <s_lp_Variant>
AV-unprocessed.smi:726-3

> <Gold.Version>
5.8.1

> <Gold.Id.Protein>
6NUR|6NUR_protein|mol2

> <Gold.PLP.Fitness>
40.6927

> <Gold.PLP.PLP>
-32.0670

> <Gold.PLP.part.hbond>
-3.0000

> <Gold.PLP.part.metal>
0.0000

> <Gold.PLP.part.buried>
-2.8715

> <Gold.PLP.part.nonpolar>
-24.8745

> <Gold.PLP.part.repulsive>
0.0676

> <Gold.PLP.ligand.clash>
0.0000

> <Gold.PLP.ligand.torsion>
0.3360

> <Gold.PLP.Chemscore.Hbond>
3.0000

> <Gold.PLP.Chemscore.CHOScore>
0.0000

> <Gold.PLP.Chemscore.Metal>
0.0000

> <Gold.Chemscore.Hbonds>
donor molecule, donor type, donor heavy atom, donor atom, acceptor molecule, acceptor atom, score
      P1  H  7989  7998       L1    14  1.00
      P1  H  7997  8009       L1    13  2.00

> <Gold.PLP.Chemscore.Internal.Correction>
0.2976

> <Gold.Rescore>
     Score         DG    S(hbond)    S(metal)    S(lipo)     H(rot)  DE(clash)    DE(int)     intcor
     11.39     -16.15       1.97        0.00      66.85       1.45       0.03       4.73       ----

> <Gold.Chemscore.Fitness>
11.3899

> <Gold.Chemscore.DG>
-16.1486

> <Gold.Chemscore.ZeroCoef>
-5.4800

> <Gold.Chemscore.Hbond>
1.9674

> <Gold.Chemscore.Metal>
0.0000

> <Gold.Chemscore.Lipo>
66.8520

> <Gold.Chemscore.Internal_Hbond>
0.0000

> <Gold.Chemscore.DEClash>
0.0270

> <Gold.Chemscore.DEInternal>
4.7317

> <Gold.Chemscore.Rot>
1.4548

> <Gold.Chemscore.Internal.Correction>
   9.000000E+99

> <Gold.Chemscore.Hbonds>
donor molecule, donor type, donor heavy atom, donor atom, acceptor molecule, acceptor atom, score
      P1  H  7989  7998       L1    14  0.79
      P1  H  7997  8009       L1    13  0.99

> <Gold.Chemscore.Hbond.Weighted>
-6.5711

> <Gold.Chemscore.Metal.Weighted>
-0.0000

> <Gold.Chemscore.Lipo.Weighted>
-7.8217

> <Gold.Chemscore.Internal_Hbond.Weighted>
0.0000

> <Gold.Chemscore.DEClash.Weighted>
0.0270

> <Gold.Chemscore.DEInternal.Weighted>
4.7317

> <Gold.Chemscore.Rot.Weighted>
3.7242

> <Gold.Chemscore.Internal.Correction.Weighted>
   9.000000E+99

> <Gold.Protein.RotatedTorsions>
[ 6907 6896 6895 6894 ] final  -55.96 input  -60.11 | X-H torsion
[ 7974 7965 7964 7962 ] final  104.62 input  175.53 | X-H torsion
[ 8008 7997 7996 7995 ] final -148.90 input   59.86 | X-H torsion
[ 10167 10162 10161 10158 ] final  -10.47 input  -65.29 | X-H torsion
[ 10718 10713 10712 10709 ] final  -87.23 input   66.30 | X-H torsion
[ 10763 10752 10751 10750 ] final   75.47 input  -60.55 | X-H torsion
[ 11005 11000 10999 10996 ] final   77.82 input  -57.11 | X-H torsion

> <Gold.Protein.ActiveResidues>
 VAL166  LYS551  ARG553  GLY616  TRP617  ASP618  TYR619  PRO620  LYS621  CYS622 
 ASP623  PHE694  ASN695  SER759  ASP760  ASP761  ALA762  ILE779  LEU786  VAL792 
 PHE793  MET794  SER795  GLU796  ALA797  LYS798  CYS799  TRP800  GLU811  SER814 

> <Gold.Protein.RotatedAtoms>
  150.8207  134.7413  159.6769 H   0  0  0  0  0  0  0  0  0  0  0  0  # atno 6907 bound_to 6896
  152.4323  134.5751  159.9942 H   0  0  0  0  0  0  0  0  0  0  0  0  # atno 6908 bound_to 6896
  151.5936  133.3326  159.3068 H   0  0  0  0  0  0  0  0  0  0  0  0  # atno 6909 bound_to 6896
  145.3304  139.2488  143.3664 H   0  0  0  0  0  0  0  0  0  0  0  0  # atno 7974 bound_to 7965
  155.5990  140.0660  157.2738 H   0  0  0  0  0  0  0  0  0  0  0  0  # atno 8008 bound_to 7997
  154.4284  140.1822  156.1200 H   0  0  0  0  0  0  0  0  0  0  0  0  # atno 8009 bound_to 7997
  156.0174  140.3320  155.7006 H   0  0  0  0  0  0  0  0  0  0  0  0  # atno 8010 bound_to 7997
  140.7114  143.5744  150.9058 H   0  0  0  0  0  0  0  0  0  0  0  0  # atno 10167 bound_to 10162
  155.9986  130.4792  150.4835 H   0  0  0  0  0  0  0  0  0  0  0  0  # atno 10718 bound_to 10713
  153.0657  135.4987  154.8195 H   0  0  0  0  0  0  0  0  0  0  0  0  # atno 10763 bound_to 10752
  154.6950  135.2991  154.9427 H   0  0  0  0  0  0  0  0  0  0  0  0  # atno 10764 bound_to 10752
  154.0169  135.6747  153.4822 H   0  0  0  0  0  0  0  0  0  0  0  0  # atno 10765 bound_to 10752
  139.9238  134.7714  156.1571 H   0  0  0  0  0  0  0  0  0  0  0  0  # atno 11005 bound_to 11000
  146.3048  140.3880  142.8691 LP  0  0  0  0  0  0  0  0  0  0  0  0  # atno 17320 bound_to 7965
  144.8869  140.7473  143.5951 LP  0  0  0  0  0  0  0  0  0  0  0  0  # atno 17321 bound_to 7965
  139.9470  143.6316  152.3039 LP  0  0  0  0  0  0  0  0  0  0  0  0  # atno 17342 bound_to 10162
  139.6821  144.7654  151.1590 LP  0  0  0  0  0  0  0  0  0  0  0  0  # atno 17343 bound_to 10162
  157.2837  131.0612  151.2180 LP  0  0  0  0  0  0  0  0  0  0  0  0  # atno 17370 bound_to 10713
  157.3217  130.6940  149.6273 LP  0  0  0  0  0  0  0  0  0  0  0  0  # atno 17371 bound_to 10713
  141.0780  133.6766  156.2277 LP  0  0  0  0  0  0  0  0  0  0  0  0  # atno 17394 bound_to 11000
  140.6395  134.5180  157.5568 LP  0  0  0  0  0  0  0  0  0  0  0  0  # atno 17395 bound_to 11000

$$$$
