AV-unprocessed.smi:1459|AV-procd|sdf|5925|dock2
  -GOLD-   22720 6 03D 1   1.00000     0.00000
 Structure written by MMmdl.
 34 35  0  0  0  0  0  0  0  0  1 V2000
  141.8374  146.1389  160.4074 C   0  0  0  0  0  0  0  0  0  0  0  0
  142.9944  145.3469  159.9034 C   0  0  0  0  0  0  0  0  0  0  0  0
  144.2954  145.6679  159.6355 C   0  0  0  0  0  0  0  0  0  0  0  0
  144.8421  144.4367  159.1861 C   0  0  0  0  0  0  0  0  0  0  0  0
  146.2025  144.3444  158.7965 N   0  0  0  0  0  0  0  0  0  0  0  0
  147.0533  143.3301  159.0262 C   0  0  0  0  0  0  0  0  0  0  0  0
  146.7757  142.2974  159.6368 O   0  0  0  0  0  0  0  0  0  0  0  0
  148.2632  143.5857  158.5063 N   0  0  0  0  0  0  0  0  0  0  0  0
  149.4302  142.7112  158.5973 C   0  0  1  0  0  0  0  0  0  0  0  0
  149.6854  142.0905  157.2151 C   0  0  0  0  0  0  0  0  0  0  0  0
  150.6432  143.5110  159.1164 C   0  0  2  0  0  0  0  0  0  0  0  0
  151.3142  144.3998  158.0669 C   0  0  0  0  0  0  0  0  0  0  0  0
  152.7162  144.5233  158.6159 C   0  0  0  0  0  0  0  0  0  0  0  0
  152.9568  143.1196  159.1594 C   0  0  0  0  0  0  0  0  0  0  0  0
  151.6784  142.6324  159.5572 O   0  0  0  0  0  0  0  0  0  0  0  0
  143.9552  143.4531  159.1797 N   0  0  0  0  0  0  0  0  0  0  0  0
  142.7665  144.0316  159.6396 O   0  0  0  0  0  0  0  0  0  0  0  0
  142.1185  147.1798  160.5684 H   0  0  0  0  0  0  0  0  0  0  0  0
  141.4755  145.7355  161.3532 H   0  0  0  0  0  0  0  0  0  0  0  0
  141.0145  146.1176  159.6928 H   0  0  0  0  0  0  0  0  0  0  0  0
  144.7755  146.6290  159.7450 H   0  0  0  0  0  0  0  0  0  0  0  0
  146.5682  145.1371  158.2908 H   0  0  0  0  0  0  0  0  0  0  0  0
  148.3946  144.4628  158.0245 H   0  0  0  0  0  0  0  0  0  0  0  0
  149.2270  141.8944  159.2923 H   0  0  0  0  0  0  0  0  0  0  0  0
  150.5117  141.3803  157.2440 H   0  0  0  0  0  0  0  0  0  0  0  0
  149.9273  142.8536  156.4747 H   0  0  0  0  0  0  0  0  0  0  0  0
  148.8071  141.5493  156.8613 H   0  0  0  0  0  0  0  0  0  0  0  0
  150.3520  144.1269  159.9692 H   0  0  0  0  0  0  0  0  0  0  0  0
  151.3378  143.9007  157.0970 H   0  0  0  0  0  0  0  0  0  0  0  0
  150.8190  145.3633  157.9445 H   0  0  0  0  0  0  0  0  0  0  0  0
  153.4487  144.8227  157.8658 H   0  0  0  0  0  0  0  0  0  0  0  0
  152.7375  145.2512  159.4280 H   0  0  0  0  0  0  0  0  0  0  0  0
  153.3452  142.4682  158.3755 H   0  0  0  0  0  0  0  0  0  0  0  0
  153.6635  143.1102  159.9895 H   0  0  0  0  0  0  0  0  0  0  0  0
  1  2  1  0  0  0  0
  1 18  1  0  0  0  0
  1 19  1  0  0  0  0
  1 20  1  0  0  0  0
  2 17  1  0  0  0  0
  2  3  2  0  0  0  0
  3  4  1  0  0  0  0
  3 21  1  0  0  0  0
  4  5  1  0  0  0  0
  4 16  2  0  0  0  0
  5  6  1  0  0  0  0
  5 22  1  0  0  0  0
  6  7  2  0  0  0  0
  6  8  1  0  0  0  0
  8  9  1  0  0  0  0
  8 23  1  0  0  0  0
  9 10  1  0  0  0  0
  9 11  1  0  0  0  0
  9 24  1  0  0  0  0
 10 25  1  0  0  0  0
 10 26  1  0  0  0  0
 10 27  1  0  0  0  0
 11 15  1  0  0  0  0
 11 12  1  0  0  0  0
 11 28  1  0  0  0  0
 12 13  1  0  0  0  0
 12 29  1  0  0  0  0
 12 30  1  0  0  0  0
 13 14  1  0  0  0  0
 13 31  1  0  0  0  0
 13 32  1  0  0  0  0
 14 15  1  0  0  0  0
 14 33  1  0  0  0  0
 14 34  1  0  0  0  0
 16 17  1  0  0  0  0
M  END
> <s_m_source_file>
AV-unprocessed.smi

> <i_m_source_file_index>
1459

> <i_lp_mmshare_version>
43012

> <i_f3d_flags>
0

> <s_epik_input>
W0NIM11jMVtjSF1jKG5vMSlbTkhdQyg9TylbTkhdW0NASF0oW0NIM10pW0NAQEhdMltDSDJdW0NIMl1bQ0gyXU8y

> <s_epik_cmdline>
J2VwaWtfcHl0aG9uJywgJy1waCcsICc3LjAnLCAnLXRuJywgJzgnLCAnLW1hJywgJzIwMCcsICctbWV0YWxfYmluZGluZycsICctaW1hZScsICc8aW5maWxlLm1hZT4nLCAnLW9tYWUnLCAnPG91dGZpbGUubWFlPic=

> <r_lp_tautomer_probability>
1

> <r_epik_Ionization_Penalty>
2.20869e-05

> <r_epik_Ionization_Penalty_Charging>
0

> <r_epik_Ionization_Penalty_Neutral>
2.20869e-05

> <r_epik_State_Penalty>
-0

> <r_epik_Charging_Adjusted_Penalty>
0

> <i_epik_Tot_Q>
0

> <i_epik_Tot_abs_Q>
0

> <r_epik_Metal_State_Penalty>
-0

> <b_epik_Metal_Only>
0

> <s_lp_Force_Field>
OPLS_2005

> <r_lp_Energy>
15.9423

> <b_lp_Chiralities_Consistent>
1

> <s_lp_Variant>
AV-unprocessed.smi:1459-2

> <Gold.Version>
5.8.1

> <Gold.Id.Protein>
6NUR|6NUR_protein|mol2

> <Gold.PLP.Fitness>
32.6375

> <Gold.PLP.PLP>
-25.0653

> <Gold.PLP.part.hbond>
-4.2376

> <Gold.PLP.part.metal>
0.0000

> <Gold.PLP.part.buried>
-1.8036

> <Gold.PLP.part.nonpolar>
-20.0556

> <Gold.PLP.part.repulsive>
0.1310

> <Gold.PLP.ligand.clash>
0.0000

> <Gold.PLP.ligand.torsion>
0.6597

> <Gold.PLP.Chemscore.Hbond>
2.9600

> <Gold.PLP.Chemscore.CHOScore>
0.0000

> <Gold.PLP.Chemscore.Metal>
0.0000

> <Gold.Chemscore.Hbonds>
donor molecule, donor type, donor heavy atom, donor atom, acceptor molecule, acceptor atom, score
      L1  H     5    22       P1  8029  1.00
      L1  H     8    23       P1  8029  0.95
      P1  H  6934  6946       L1     7  0.96

> <Gold.PLP.Chemscore.Internal.Correction>
0.0115

> <Gold.Rescore>
     Score         DG    S(hbond)    S(metal)    S(lipo)     H(rot)  DE(clash)    DE(int)     intcor
     18.60     -19.12       2.50        0.00      73.07       1.28       0.09       0.44       ----

> <Gold.Chemscore.Fitness>
18.5997

> <Gold.Chemscore.DG>
-19.1218

> <Gold.Chemscore.ZeroCoef>
-5.4800

> <Gold.Chemscore.Hbond>
2.5039

> <Gold.Chemscore.Metal>
0.0000

> <Gold.Chemscore.Lipo>
73.0717

> <Gold.Chemscore.Internal_Hbond>
0.0000

> <Gold.Chemscore.DEClash>
0.0867

> <Gold.Chemscore.DEInternal>
0.4354

> <Gold.Chemscore.Rot>
1.2776

> <Gold.Chemscore.Internal.Correction>
   9.000000E+99

> <Gold.Chemscore.Hbonds>
donor molecule, donor type, donor heavy atom, donor atom, acceptor molecule, acceptor atom, score
      L1  H     5    22       P1  8029  0.96
      L1  H     8    23       P1  8029  0.21
      P1  H  6934  6946       L1     7  0.92

> <Gold.Chemscore.Hbond.Weighted>
-8.3631

> <Gold.Chemscore.Metal.Weighted>
-0.0000

> <Gold.Chemscore.Lipo.Weighted>
-8.5494

> <Gold.Chemscore.Internal_Hbond.Weighted>
0.0000

> <Gold.Chemscore.DEClash.Weighted>
0.0867

> <Gold.Chemscore.DEInternal.Weighted>
0.4354

> <Gold.Chemscore.Rot.Weighted>
3.2707

> <Gold.Chemscore.Internal.Correction.Weighted>
   9.000000E+99

> <Gold.Protein.RotatedTorsions>
[ 6907 6896 6895 6894 ] final  -98.22 input  -60.11 | X-H torsion
[ 7974 7965 7964 7962 ] final  -37.00 input  175.53 | X-H torsion
[ 8008 7997 7996 7995 ] final  -80.98 input   59.86 | X-H torsion
[ 10167 10162 10161 10158 ] final  -10.55 input  -65.29 | X-H torsion
[ 10718 10713 10712 10709 ] final -145.19 input   66.30 | X-H torsion
[ 10763 10752 10751 10750 ] final -133.11 input  -60.55 | X-H torsion
[ 11005 11000 10999 10996 ] final   84.09 input  -57.11 | X-H torsion

> <Gold.Protein.ActiveResidues>
 VAL166  LYS551  ARG553  GLY616  TRP617  ASP618  TYR619  PRO620  LYS621  CYS622 
 ASP623  PHE694  ASN695  SER759  ASP760  ASP761  ALA762  ILE779  LEU786  VAL792 
 PHE793  MET794  SER795  GLU796  ALA797  LYS798  CYS799  TRP800  GLU811  SER814 

> <Gold.Protein.RotatedAtoms>
  150.7040  134.1228  159.4040 H   0  0  0  0  0  0  0  0  0  0  0  0  # atno 6907 bound_to 6896
  151.9214  135.0294  160.0531 H   0  0  0  0  0  0  0  0  0  0  0  0  # atno 6908 bound_to 6896
  152.2253  133.4980  159.5222 H   0  0  0  0  0  0  0  0  0  0  0  0  # atno 6909 bound_to 6896
  146.0613  140.6344  142.8996 H   0  0  0  0  0  0  0  0  0  0  0  0  # atno 7974 bound_to 7965
  154.5937  140.0654  156.9274 H   0  0  0  0  0  0  0  0  0  0  0  0  # atno 8008 bound_to 7997
  155.2251  140.3333  155.4292 H   0  0  0  0  0  0  0  0  0  0  0  0  # atno 8009 bound_to 7997
  156.2273  140.1825  156.7315 H   0  0  0  0  0  0  0  0  0  0  0  0  # atno 8010 bound_to 7997
  140.7116  143.5736  150.9066 H   0  0  0  0  0  0  0  0  0  0  0  0  # atno 10167 bound_to 10162
  156.3794  130.7829  151.2019 H   0  0  0  0  0  0  0  0  0  0  0  0  # atno 10718 bound_to 10713
  154.8736  135.3776  154.4519 H   0  0  0  0  0  0  0  0  0  0  0  0  # atno 10763 bound_to 10752
  153.5195  135.7029  153.5744 H   0  0  0  0  0  0  0  0  0  0  0  0  # atno 10764 bound_to 10752
  153.3997  135.3951  155.1945 H   0  0  0  0  0  0  0  0  0  0  0  0  # atno 10765 bound_to 10752
  139.9011  134.8191  156.2397 H   0  0  0  0  0  0  0  0  0  0  0  0  # atno 11005 bound_to 11000
  144.7176  140.4265  143.7032 LP  0  0  0  0  0  0  0  0  0  0  0  0  # atno 17320 bound_to 7965
  145.6555  139.1572  143.2838 LP  0  0  0  0  0  0  0  0  0  0  0  0  # atno 17321 bound_to 7965
  139.9462  143.6325  152.3041 LP  0  0  0  0  0  0  0  0  0  0  0  0  # atno 17342 bound_to 10162
  139.6827  144.7654  151.1579 LP  0  0  0  0  0  0  0  0  0  0  0  0  # atno 17343 bound_to 10162
  157.7491  131.0349  150.4337 LP  0  0  0  0  0  0  0  0  0  0  0  0  # atno 17370 bound_to 10713
  156.4578  130.4025  149.6595 LP  0  0  0  0  0  0  0  0  0  0  0  0  # atno 17371 bound_to 10713
  141.0292  133.6998  156.1401 LP  0  0  0  0  0  0  0  0  0  0  0  0  # atno 17394 bound_to 11000
  140.7121  134.4451  157.5581 LP  0  0  0  0  0  0  0  0  0  0  0  0  # atno 17395 bound_to 11000

$$$$
