AV-unprocessed.smi:878|AV-procd|sdf|4032|dock10
  -GOLD-   22720 1523D 1   1.00000     0.00000
 Structure written by MMmdl.
 32 33  0  0  0  0  0  0  0  0  2 V2000
  151.6512  145.2268  158.9167 C   0  0  0  0  0  0  0  0  0  0  0  0
  150.9990  144.5592  160.4716 S   0  0  0  0  0  0  0  0  0  0  0  0
  152.1212  143.3206  161.0541 C   0  0  0  0  0  0  0  0  0  0  0  0
  152.5227  142.2436  160.2357 C   0  0  0  0  0  0  0  0  0  0  0  0
  153.4149  141.2725  160.7315 C   0  0  0  0  0  0  0  0  0  0  0  0
  153.9195  141.3671  162.0527 C   0  0  0  0  0  0  0  0  0  0  0  0
  154.7966  140.4660  162.6150 O   0  0  0  0  0  0  0  0  0  0  0  0
  155.2295  139.3630  161.8306 C   0  0  0  0  0  0  0  0  0  0  0  0
  154.2658  138.1825  162.0320 C   0  0  0  0  0  0  0  0  0  0  0  0
  153.9210  137.5356  160.7577 N   0  0  0  0  0  0  0  0  0  0  0  0
  153.3016  138.3298  159.7780 C   0  0  0  0  0  0  0  0  0  0  0  0
  152.9386  137.8343  158.5791 C   0  0  0  0  0  0  0  0  0  0  0  0
  152.1756  138.8351  157.3950 Cl  0  0  0  0  0  0  0  0  0  0  0  0
  153.2069  136.4230  158.3107 C   0  0  0  0  0  0  0  0  0  0  0  0
  152.8912  135.9386  157.2248 O   0  0  0  0  0  0  0  0  0  0  0  0
  153.8066  135.6934  159.2966 N   0  5  0  0  0  0  0  0  0  0  0  0
  154.1667  136.2144  160.5102 C   0  0  0  0  0  0  0  0  0  0  0  0
  154.7035  135.5326  161.3835 O   0  0  0  0  0  0  0  0  0  0  0  0
  153.5118  142.4481  162.8598 C   0  0  0  0  0  0  0  0  0  0  0  0
  152.6170  143.4173  162.3680 C   0  0  0  0  0  0  0  0  0  0  0  0
  151.0144  146.0380  158.5641 H   0  0  0  0  0  0  0  0  0  0  0  0
  151.6782  144.4557  158.1468 H   0  0  0  0  0  0  0  0  0  0  0  0
  152.6582  145.6183  159.0618 H   0  0  0  0  0  0  0  0  0  0  0  0
  152.1553  142.1427  159.2267 H   0  0  0  0  0  0  0  0  0  0  0  0
  153.6995  140.4637  160.0760 H   0  0  0  0  0  0  0  0  0  0  0  0
  155.2742  139.6348  160.7745 H   0  0  0  0  0  0  0  0  0  0  0  0
  156.2306  139.0621  162.1422 H   0  0  0  0  0  0  0  0  0  0  0  0
  154.7340  137.4475  162.6883 H   0  0  0  0  0  0  0  0  0  0  0  0
  153.3760  138.5121  162.5703 H   0  0  0  0  0  0  0  0  0  0  0  0
  153.1374  139.3590  160.0626 H   0  0  0  0  0  0  0  0  0  0  0  0
  153.8875  142.5325  163.8691 H   0  0  0  0  0  0  0  0  0  0  0  0
  152.3140  144.2366  163.0032 H   0  0  0  0  0  0  0  0  0  0  0  0
  1  2  1  0  0  0  0
  1 21  1  0  0  0  0
  1 22  1  0  0  0  0
  1 23  1  0  0  0  0
  2  3  1  0  0  0  0
  3 20  1  0  0  0  0
  3  4  2  0  0  0  0
  4  5  1  0  0  0  0
  4 24  1  0  0  0  0
  5  6  2  0  0  0  0
  5 25  1  0  0  0  0
  6  7  1  0  0  0  0
  6 19  1  0  0  0  0
  7  8  1  0  0  0  0
  8  9  1  0  0  0  0
  8 26  1  0  0  0  0
  8 27  1  0  0  0  0
  9 10  1  0  0  0  0
  9 28  1  0  0  0  0
  9 29  1  0  0  0  0
 10 17  1  0  0  0  0
 10 11  1  0  0  0  0
 11 12  2  0  0  0  0
 11 30  1  0  0  0  0
 12 13  1  0  0  0  0
 12 14  1  0  0  0  0
 14 15  2  0  0  0  0
 14 16  1  0  0  0  0
 16 17  1  0  0  0  0
 17 18  2  0  0  0  0
 19 20  2  0  0  0  0
 19 31  1  0  0  0  0
 20 32  1  0  0  0  0
M  CHG  1  16  -1
M  END
> <s_m_source_file>
AV-unprocessed.smi

> <i_m_source_file_index>
878

> <i_lp_mmshare_version>
43012

> <i_f3d_flags>
0

> <s_epik_input>
W0NIM11TYzFbY0hdW2NIXWMoW2NIXVtjSF0xKU9bQ0gyXVtDSDJdbjJbY0hdYyhDbCljKD1PKVtuSF1jMj1P

> <s_epik_cmdline>
J2VwaWtfcHl0aG9uJywgJy1waCcsICc3LjAnLCAnLXRuJywgJzgnLCAnLW1hJywgJzIwMCcsICctbWV0YWxfYmluZGluZycsICctaW1hZScsICc8aW5maWxlLm1hZT4nLCAnLW9tYWUnLCAnPG91dGZpbGUubWFlPic=

> <r_lp_tautomer_probability>
1

> <r_epik_Ionization_Penalty>
1.65349

> <r_epik_Ionization_Penalty_Charging>
1.22116e-08

> <r_epik_Ionization_Penalty_Neutral>
1.65349

> <r_epik_State_Penalty>
1.75578

> <r_epik_Charging_Adjusted_Penalty>
1.75578

> <i_epik_Tot_Q>
-1

> <i_epik_Tot_abs_Q>
1

> <r_epik_Metal_State_Penalty>
0.0107816

> <b_epik_Metal_Only>
0

> <s_lp_Force_Field>
OPLS_2005

> <r_lp_Energy>
23.8138

> <b_lp_Chiralities_Consistent>
1

> <s_lp_Variant>
AV-unprocessed.smi:878-2

> <Gold.Version>
5.8.1

> <Gold.Id.Protein>
6NUR|6NUR_protein|mol2

> <Gold.PLP.Fitness>
50.6438

> <Gold.PLP.PLP>
-42.7100

> <Gold.PLP.part.hbond>
-2.5672

> <Gold.PLP.part.metal>
0.0000

> <Gold.PLP.part.buried>
-4.4887

> <Gold.PLP.part.nonpolar>
-34.4337

> <Gold.PLP.part.repulsive>
0.0000

> <Gold.PLP.ligand.clash>
0.0000

> <Gold.PLP.ligand.torsion>
0.5479

> <Gold.PLP.Chemscore.Hbond>
3.0000

> <Gold.PLP.Chemscore.CHOScore>
0.0000

> <Gold.PLP.Chemscore.Metal>
0.0000

> <Gold.Chemscore.Hbonds>
donor molecule, donor type, donor heavy atom, donor atom, acceptor molecule, acceptor atom, score
      P1  H  6896  6909       L1    16  1.70
      P1  H 10752 10764       L1    15  0.89

> <Gold.PLP.Chemscore.Internal.Correction>
0.0296

> <Gold.Rescore>
     Score         DG    S(hbond)    S(metal)    S(lipo)     H(rot)  DE(clash)    DE(int)     intcor
     17.54     -18.04       1.13        0.00     116.75       1.91       0.02       0.48       ----

> <Gold.Chemscore.Fitness>
17.5411

> <Gold.Chemscore.DG>
-18.0399

> <Gold.Chemscore.ZeroCoef>
-5.4800

> <Gold.Chemscore.Hbond>
1.1327

> <Gold.Chemscore.Metal>
0.0000

> <Gold.Chemscore.Lipo>
116.7463

> <Gold.Chemscore.Internal_Hbond>
0.0000

> <Gold.Chemscore.DEClash>
0.0162

> <Gold.Chemscore.DEInternal>
0.4826

> <Gold.Chemscore.Rot>
1.9073

> <Gold.Chemscore.Internal.Correction>
   9.000000E+99

> <Gold.Chemscore.Hbonds>
donor molecule, donor type, donor heavy atom, donor atom, acceptor molecule, acceptor atom, score
      P1  H  6896  6909       L1    16  0.11
      P1  H 10752 10764       L1    15  0.87

> <Gold.Chemscore.Hbond.Weighted>
-3.7832

> <Gold.Chemscore.Metal.Weighted>
-0.0000

> <Gold.Chemscore.Lipo.Weighted>
-13.6593

> <Gold.Chemscore.Internal_Hbond.Weighted>
0.0000

> <Gold.Chemscore.DEClash.Weighted>
0.0162

> <Gold.Chemscore.DEInternal.Weighted>
0.4826

> <Gold.Chemscore.Rot.Weighted>
4.8826

> <Gold.Chemscore.Internal.Correction.Weighted>
   9.000000E+99

> <Gold.Protein.RotatedTorsions>
[ 6907 6896 6895 6894 ] final -163.30 input  -60.11 | X-H torsion
[ 7974 7965 7964 7962 ] final   91.96 input  175.53 | X-H torsion
[ 8008 7997 7996 7995 ] final -142.26 input   59.86 | X-H torsion
[ 10167 10162 10161 10158 ] final   91.34 input  -65.29 | X-H torsion
[ 10718 10713 10712 10709 ] final  -82.82 input   66.30 | X-H torsion
[ 10763 10752 10751 10750 ] final   -4.84 input  -60.55 | X-H torsion
[ 11005 11000 10999 10996 ] final   52.03 input  -57.11 | X-H torsion

> <Gold.Protein.ActiveResidues>
 VAL166  LYS551  ARG553  GLY616  TRP617  ASP618  TYR619  PRO620  LYS621  CYS622 
 ASP623  PHE694  ASN695  SER759  ASP760  ASP761  ALA762  ILE779  LEU786  VAL792 
 PHE793  MET794  SER795  GLU796  ALA797  LYS798  CYS799  TRP800  GLU811  SER814 

> <Gold.Protein.RotatedAtoms>
  151.3939  133.3780  159.2723 H   0  0  0  0  0  0  0  0  0  0  0  0  # atno 6907 bound_to 6896
  150.9484  134.8888  159.7667 H   0  0  0  0  0  0  0  0  0  0  0  0  # atno 6908 bound_to 6896
  152.5101  134.3893  159.9430 H   0  0  0  0  0  0  0  0  0  0  0  0  # atno 6909 bound_to 6896
  145.4987  139.2276  143.2789 H   0  0  0  0  0  0  0  0  0  0  0  0  # atno 7974 bound_to 7965
  155.4913  140.0568  157.2953 H   0  0  0  0  0  0  0  0  0  0  0  0  # atno 8008 bound_to 7997
  154.4622  140.2002  156.0165 H   0  0  0  0  0  0  0  0  0  0  0  0  # atno 8009 bound_to 7997
  156.0910  140.3233  155.7820 H   0  0  0  0  0  0  0  0  0  0  0  0  # atno 8010 bound_to 7997
  139.8384  144.6653  150.9314 H   0  0  0  0  0  0  0  0  0  0  0  0  # atno 10167 bound_to 10162
  156.0027  130.4646  150.4164 H   0  0  0  0  0  0  0  0  0  0  0  0  # atno 10718 bound_to 10713
  153.3903  135.7001  153.6500 H   0  0  0  0  0  0  0  0  0  0  0  0  # atno 10763 bound_to 10752
  153.5075  135.3639  155.2571 H   0  0  0  0  0  0  0  0  0  0  0  0  # atno 10764 bound_to 10752
  154.8701  135.4127  154.3218 H   0  0  0  0  0  0  0  0  0  0  0  0  # atno 10765 bound_to 10752
  140.0883  134.5244  155.8877 H   0  0  0  0  0  0  0  0  0  0  0  0  # atno 11005 bound_to 11000
  146.2239  140.5786  142.9005 LP  0  0  0  0  0  0  0  0  0  0  0  0  # atno 17320 bound_to 7965
  144.7792  140.5805  143.6617 LP  0  0  0  0  0  0  0  0  0  0  0  0  # atno 17321 bound_to 7965
  140.7800  143.3935  151.1269 LP  0  0  0  0  0  0  0  0  0  0  0  0  # atno 17342 bound_to 10162
  139.7584  143.8673  152.3094 LP  0  0  0  0  0  0  0  0  0  0  0  0  # atno 17343 bound_to 10162
  157.2223  131.0485  151.2539 LP  0  0  0  0  0  0  0  0  0  0  0  0  # atno 17370 bound_to 10713
  157.3789  130.7221  149.6616 LP  0  0  0  0  0  0  0  0  0  0  0  0  # atno 17371 bound_to 10713
  141.2070  133.6660  156.6276 LP  0  0  0  0  0  0  0  0  0  0  0  0  # atno 17394 bound_to 11000
  140.3388  134.7866  157.4382 LP  0  0  0  0  0  0  0  0  0  0  0  0  # atno 17395 bound_to 11000

$$$$
