AV-unprocessed.smi:2893|AV-procd|sdf|11122|dock5
  -GOLD-   2272015593D 1   1.00000     0.00000
 Structure written by MMmdl.
 37 39  0  0  0  0  0  0  0  0  1 V2000
  150.6535  131.1657  160.2883 C   0  0  0  0  0  0  0  0  0  0  0  0
  151.6228  131.1414  159.0992 C   0  0  0  0  0  0  0  0  0  0  0  0
  150.9162  131.2704  157.8304 N   0  0  0  0  0  0  0  0  0  0  0  0
  151.0961  132.2605  156.9392 C   0  0  0  0  0  0  0  0  0  0  0  0
  151.8781  133.1952  157.1186 O   0  0  0  0  0  0  0  0  0  0  0  0
  150.2459  132.1916  155.6989 C   0  0  0  0  0  0  0  0  0  0  0  0
  150.1866  133.2940  154.8190 C   0  0  0  0  0  0  0  0  0  0  0  0
  149.3925  133.1722  153.6660 C   0  0  0  0  0  0  0  0  0  0  0  0
  148.7123  131.9564  153.4644 C   0  0  0  0  0  0  0  0  0  0  0  0
  147.9174  131.8076  152.3189 N   0  0  0  0  0  0  0  0  0  0  0  0
  146.5204  132.2282  152.3011 C   0  0  2  0  0  0  0  0  0  0  0  0
  145.5610  131.0460  152.1305 C   0  0  0  0  0  0  0  0  0  0  0  0
  144.7426  131.4739  150.9057 C   0  0  1  0  0  0  0  0  0  0  0  0
  143.8277  132.6701  151.2032 C   0  0  0  0  0  0  0  0  0  0  0  0
  144.8323  133.8192  151.2870 C   0  0  0  0  0  0  0  0  0  0  0  0
  146.1648  133.0891  151.0732 C   0  0  2  0  0  0  0  0  0  0  0  0
  145.7552  132.1017  150.1404 O   0  0  0  0  0  0  0  0  0  0  0  0
  148.8125  130.9287  154.3432 N   0  0  0  0  0  0  0  0  0  0  0  0
  149.5674  131.0446  155.4407 N   0  0  0  0  0  0  0  0  0  0  0  0
  151.1957  131.0986  161.2316 H   0  0  0  0  0  0  0  0  0  0  0  0
  149.9550  130.3292  160.2487 H   0  0  0  0  0  0  0  0  0  0  0  0
  150.0720  132.0880  160.3038 H   0  0  0  0  0  0  0  0  0  0  0  0
  152.3268  131.9695  159.1825 H   0  0  0  0  0  0  0  0  0  0  0  0
  152.2167  130.2261  159.1117 H   0  0  0  0  0  0  0  0  0  0  0  0
  150.2439  130.5514  157.6043 H   0  0  0  0  0  0  0  0  0  0  0  0
  150.7292  134.2075  155.0149 H   0  0  0  0  0  0  0  0  0  0  0  0
  149.3120  133.9863  152.9607 H   0  0  0  0  0  0  0  0  0  0  0  0
  148.3457  131.5214  151.4506 H   0  0  0  0  0  0  0  0  0  0  0  0
  146.2973  132.7639  153.2248 H   0  0  0  0  0  0  0  0  0  0  0  0
  146.0961  130.1192  151.9173 H   0  0  0  0  0  0  0  0  0  0  0  0
  144.9380  130.8804  153.0099 H   0  0  0  0  0  0  0  0  0  0  0  0
  144.2431  130.6485  150.3980 H   0  0  0  0  0  0  0  0  0  0  0  0
  143.1248  132.8361  150.3861 H   0  0  0  0  0  0  0  0  0  0  0  0
  143.2584  132.5354  152.1234 H   0  0  0  0  0  0  0  0  0  0  0  0
  144.6551  134.5406  150.4886 H   0  0  0  0  0  0  0  0  0  0  0  0
  144.7944  134.3483  152.2398 H   0  0  0  0  0  0  0  0  0  0  0  0
  146.9654  133.7404  150.7210 H   0  0  0  0  0  0  0  0  0  0  0  0
  1  2  1  0  0  0  0
  1 20  1  0  0  0  0
  1 21  1  0  0  0  0
  1 22  1  0  0  0  0
  2  3  1  0  0  0  0
  2 23  1  0  0  0  0
  2 24  1  0  0  0  0
  3  4  1  0  0  0  0
  3 25  1  0  0  0  0
  4  5  2  0  0  0  0
  4  6  1  0  0  0  0
  6 19  1  0  0  0  0
  6  7  2  0  0  0  0
  7  8  1  0  0  0  0
  7 26  1  0  0  0  0
  8  9  2  0  0  0  0
  8 27  1  0  0  0  0
  9 10  1  0  0  0  0
  9 18  1  0  0  0  0
 10 11  1  0  0  0  0
 10 28  1  0  0  0  0
 11 16  1  0  0  0  0
 11 12  1  0  0  0  0
 11 29  1  0  0  0  0
 12 13  1  0  0  0  0
 12 30  1  0  0  0  0
 12 31  1  0  0  0  0
 13 17  1  0  0  0  0
 13 14  1  0  0  0  0
 13 32  1  0  0  0  0
 14 15  1  0  0  0  0
 14 33  1  0  0  0  0
 14 34  1  0  0  0  0
 15 16  1  0  0  0  0
 15 35  1  0  0  0  0
 15 36  1  0  0  0  0
 16 17  1  0  0  0  0
 16 37  1  0  0  0  0
 18 19  2  0  0  0  0
M  END
> <s_m_source_file>
AV-unprocessed.smi

> <i_m_source_file_index>
2893

> <i_lp_mmshare_version>
43012

> <i_f3d_flags>
0

> <s_epik_input>
W0NIM11bQ0gyXVtOSF1DKD1PKWMxW2NIXVtjSF1jKG5uMSlbTkhdW0NASF0oW0NIMl1bQ0BASF0yMylbQ0BASF0oTzMpW0NIMl1bQ0gyXTI=

> <s_epik_cmdline>
J2VwaWtfcHl0aG9uJywgJy1waCcsICc3LjAnLCAnLXRuJywgJzgnLCAnLW1hJywgJzIwMCcsICctbWV0YWxfYmluZGluZycsICctaW1hZScsICc8aW5maWxlLm1hZT4nLCAnLW9tYWUnLCAnPG91dGZpbGUubWFlPic=

> <r_lp_tautomer_probability>
1

> <r_epik_Ionization_Penalty>
0.00432031

> <r_epik_Ionization_Penalty_Charging>
0

> <r_epik_Ionization_Penalty_Neutral>
0.00432031

> <r_epik_State_Penalty>
-0

> <r_epik_Charging_Adjusted_Penalty>
0

> <i_epik_Tot_Q>
0

> <i_epik_Tot_abs_Q>
0

> <r_epik_Metal_State_Penalty>
-0

> <b_epik_Metal_Only>
0

> <s_lp_Force_Field>
OPLS_2005

> <r_lp_Energy>
51.3486

> <b_lp_Chiralities_Consistent>
1

> <s_lp_Variant>
AV-unprocessed.smi:2893-1

> <Gold.Version>
5.8.1

> <Gold.Id.Protein>
6NUR|6NUR_protein|mol2

> <Gold.PLP.Fitness>
34.9522

> <Gold.PLP.PLP>
-30.7715

> <Gold.PLP.part.hbond>
-1.8622

> <Gold.PLP.part.metal>
0.0000

> <Gold.PLP.part.buried>
-6.5370

> <Gold.PLP.part.nonpolar>
-23.4892

> <Gold.PLP.part.repulsive>
0.2751

> <Gold.PLP.ligand.clash>
0.0000

> <Gold.PLP.ligand.torsion>
0.8720

> <Gold.PLP.Chemscore.Hbond>
1.9673

> <Gold.PLP.Chemscore.CHOScore>
0.0000

> <Gold.PLP.Chemscore.Metal>
0.0000

> <Gold.Chemscore.Hbonds>
donor molecule, donor type, donor heavy atom, donor atom, acceptor molecule, acceptor atom, score
      L1  H    10    28       P1 10747  0.88
      P1  H  6896  6907       L1     5  0.41

> <Gold.PLP.Chemscore.Internal.Correction>
0.0231

> <Gold.Rescore>
     Score         DG    S(hbond)    S(metal)    S(lipo)     H(rot)  DE(clash)    DE(int)     intcor
     15.57     -16.48       1.92        0.00      65.66       1.21       0.00       0.91       ----

> <Gold.Chemscore.Fitness>
15.5719

> <Gold.Chemscore.DG>
-16.4810

> <Gold.Chemscore.ZeroCoef>
-5.4800

> <Gold.Chemscore.Hbond>
1.9180

> <Gold.Chemscore.Metal>
0.0000

> <Gold.Chemscore.Lipo>
65.6611

> <Gold.Chemscore.Internal_Hbond>
0.0000

> <Gold.Chemscore.DEClash>
0.0000

> <Gold.Chemscore.DEInternal>
0.9091

> <Gold.Chemscore.Rot>
1.2061

> <Gold.Chemscore.Internal.Correction>
   9.000000E+99

> <Gold.Chemscore.Hbonds>
donor molecule, donor type, donor heavy atom, donor atom, acceptor molecule, acceptor atom, score
      L1  H    10    28       P1 10747  0.86
      P1  H  6896  6907       L1     5  0.06

> <Gold.Chemscore.Hbond.Weighted>
-6.4063

> <Gold.Chemscore.Metal.Weighted>
-0.0000

> <Gold.Chemscore.Lipo.Weighted>
-7.6823

> <Gold.Chemscore.Internal_Hbond.Weighted>
0.0000

> <Gold.Chemscore.DEClash.Weighted>
0.0000

> <Gold.Chemscore.DEInternal.Weighted>
0.9091

> <Gold.Chemscore.Rot.Weighted>
3.0876

> <Gold.Chemscore.Internal.Correction.Weighted>
   9.000000E+99

> <Gold.Protein.RotatedTorsions>
[ 6907 6896 6895 6894 ] final -172.29 input  -60.11 | X-H torsion
[ 7974 7965 7964 7962 ] final -142.39 input  175.53 | X-H torsion
[ 8008 7997 7996 7995 ] final -116.77 input   59.86 | X-H torsion
[ 10167 10162 10161 10158 ] final   73.73 input  -65.29 | X-H torsion
[ 10718 10713 10712 10709 ] final   -2.45 input   66.30 | X-H torsion
[ 10763 10752 10751 10750 ] final  179.29 input  -60.55 | X-H torsion
[ 11005 11000 10999 10996 ] final  116.68 input  -57.11 | X-H torsion

> <Gold.Protein.ActiveResidues>
 VAL166  LYS551  ARG553  GLY616  TRP617  ASP618  TYR619  PRO620  LYS621  CYS622 
 ASP623  PHE694  ASN695  SER759  ASP760  ASP761  ALA762  ILE779  LEU786  VAL792 
 PHE793  MET794  SER795  GLU796  ALA797  LYS798  CYS799  TRP800  GLU811  SER814 

> <Gold.Protein.RotatedAtoms>
  151.5376  133.3438  159.2929 H   0  0  0  0  0  0  0  0  0  0  0  0  # atno 6907 bound_to 6896
  150.8555  134.7895  159.7053 H   0  0  0  0  0  0  0  0  0  0  0  0  # atno 6908 bound_to 6896
  152.4590  134.5236  159.9842 H   0  0  0  0  0  0  0  0  0  0  0  0  # atno 6909 bound_to 6896
  144.8447  140.5963  143.5429 H   0  0  0  0  0  0  0  0  0  0  0  0  # atno 7974 bound_to 7965
  155.0731  140.0393  157.2615 H   0  0  0  0  0  0  0  0  0  0  0  0  # atno 8008 bound_to 7997
  154.6967  140.2664  155.6735 H   0  0  0  0  0  0  0  0  0  0  0  0  # atno 8009 bound_to 7997
  156.2747  140.2749  156.1563 H   0  0  0  0  0  0  0  0  0  0  0  0  # atno 8010 bound_to 7997
  140.0213  144.5538  150.7579 H   0  0  0  0  0  0  0  0  0  0  0  0  # atno 10167 bound_to 10162
  156.7906  130.5360  149.5736 H   0  0  0  0  0  0  0  0  0  0  0  0  # atno 10718 bound_to 10713
  154.5188  135.2792  155.1280 H   0  0  0  0  0  0  0  0  0  0  0  0  # atno 10763 bound_to 10752
  154.2846  135.6279  153.5364 H   0  0  0  0  0  0  0  0  0  0  0  0  # atno 10764 bound_to 10752
  152.9932  135.5659  154.5672 H   0  0  0  0  0  0  0  0  0  0  0  0  # atno 10765 bound_to 10752
  139.9049  134.9601  156.7235 H   0  0  0  0  0  0  0  0  0  0  0  0  # atno 11005 bound_to 11000
  145.4622  139.1511  143.3860 LP  0  0  0  0  0  0  0  0  0  0  0  0  # atno 17320 bound_to 7965
  146.2733  140.4752  142.8805 LP  0  0  0  0  0  0  0  0  0  0  0  0  # atno 17321 bound_to 7965
  140.7341  143.2725  151.3844 LP  0  0  0  0  0  0  0  0  0  0  0  0  # atno 17342 bound_to 10162
  139.6138  144.1045  152.2325 LP  0  0  0  0  0  0  0  0  0  0  0  0  # atno 17343 bound_to 10162
  156.1161  130.6076  151.0123 LP  0  0  0  0  0  0  0  0  0  0  0  0  # atno 17370 bound_to 10713
  157.6602  131.0882  150.7855 LP  0  0  0  0  0  0  0  0  0  0  0  0  # atno 17371 bound_to 10713
  140.6981  133.9330  155.8007 LP  0  0  0  0  0  0  0  0  0  0  0  0  # atno 17394 bound_to 11000
  141.0392  134.0646  157.3923 LP  0  0  0  0  0  0  0  0  0  0  0  0  # atno 17395 bound_to 11000

$$$$
