AV-unprocessed.smi:212|AV-procd|sdf|1632|dock4
  -GOLD-   2262019583D 1   1.00000     0.00000
 Structure written by MMmdl.
 65 68  0  0  0  0  0  0  0  0  2 V2000
  149.7702  129.1911  154.2795 C   0  0  0  0  0  0  0  0  0  0  0  0
  149.2034  130.3927  153.4987 C   0  0  1  0  0  0  0  0  0  0  0  0
  147.6633  130.3733  153.4252 C   0  0  0  0  0  0  0  0  0  0  0  0
  147.1581  131.5015  152.5991 N   0  3  1  0  0  0  0  0  0  0  0  0
  145.6849  131.4688  152.3953 C   0  0  0  0  0  0  0  0  0  0  0  0
  145.2338  132.2202  151.1196 C   0  0  0  0  0  0  0  0  0  0  0  0
  145.3733  133.7380  151.3257 C   0  0  0  0  0  0  0  0  0  0  0  0
  146.0198  131.7785  149.8712 C   0  0  0  0  0  0  0  0  0  0  0  0
  143.8607  131.9744  150.8899 O   0  0  0  0  0  0  0  0  0  0  0  0
  147.6464  132.8168  153.0874 C   0  0  0  0  0  0  0  0  0  0  0  0
  149.1833  132.8388  153.2214 C   0  0  0  0  0  0  0  0  0  0  0  0
  149.6900  131.6927  153.9718 N   0  0  0  0  0  0  0  0  0  0  0  0
  149.7908  131.8808  155.3093 C   0  0  0  0  0  0  0  0  0  0  0  0
  150.6088  131.0924  156.0538 N   0  0  0  0  0  0  0  0  0  0  0  0
  150.7119  131.2929  157.3713 C   0  0  0  0  0  0  0  0  0  0  0  0
  150.0992  132.2069  158.1272 N   0  0  0  0  0  0  0  0  0  0  0  0
  149.2770  132.9979  157.3794 C   0  0  0  0  0  0  0  0  0  0  0  0
  149.0654  132.9022  155.9762 C   0  0  0  0  0  0  0  0  0  0  0  0
  148.1614  133.8712  155.5606 N   0  0  0  0  0  0  0  0  0  0  0  0
  147.8502  134.5032  156.6598 C   0  0  0  0  0  0  0  0  0  0  0  0
  148.4719  134.0423  157.7984 N   0  0  0  0  0  0  0  0  0  0  0  0
  148.3070  134.5606  159.1444 C   0  0  0  0  0  0  0  0  0  0  0  0
  146.8662  134.4187  159.7028 C   0  0  1  0  0  0  0  0  0  0  0  0
  146.4659  132.9400  159.9423 C   0  0  0  0  0  0  0  0  0  0  0  0
  145.1405  132.8208  160.4176 O   0  0  0  0  0  0  0  0  0  0  0  0
  146.7084  135.2521  161.0015 C   0  0  1  0  0  0  0  0  0  0  0  0
  147.5487  134.7775  162.1759 C   0  0  0  0  0  0  0  0  0  0  0  0
  147.5511  136.0021  163.0803 C   0  0  0  0  0  0  0  0  0  0  0  0
  147.6063  137.1098  162.1925 O   0  0  0  0  0  0  0  0  0  0  0  0
  147.1715  136.7128  160.8945 C   0  0  0  0  0  0  0  0  0  0  0  0
  149.4665  128.2514  153.8174 H   0  0  0  0  0  0  0  0  0  0  0  0
  149.4203  129.1733  155.3122 H   0  0  0  0  0  0  0  0  0  0  0  0
  150.8605  129.2100  154.2933 H   0  0  0  0  0  0  0  0  0  0  0  0
  149.5759  130.2962  152.4778 H   0  0  0  0  0  0  0  0  0  0  0  0
  147.3349  129.4266  152.9976 H   0  0  0  0  0  0  0  0  0  0  0  0
  147.2309  130.4284  154.4251 H   0  0  0  0  0  0  0  0  0  0  0  0
  145.3295  130.4369  152.3851 H   0  0  0  0  0  0  0  0  0  0  0  0
  145.1902  131.9344  153.2494 H   0  0  0  0  0  0  0  0  0  0  0  0
  146.4127  134.0182  151.5007 H   0  0  0  0  0  0  0  0  0  0  0  0
  144.7927  134.0790  152.1839 H   0  0  0  0  0  0  0  0  0  0  0  0
  145.0275  134.2943  150.4532 H   0  0  0  0  0  0  0  0  0  0  0  0
  147.0900  131.9411  150.0026 H   0  0  0  0  0  0  0  0  0  0  0  0
  145.7094  132.3396  148.9888 H   0  0  0  0  0  0  0  0  0  0  0  0
  145.8715  130.7211  149.6497 H   0  0  0  0  0  0  0  0  0  0  0  0
  143.3605  132.3878  151.5777 H   0  0  0  0  0  0  0  0  0  0  0  0
  147.3373  133.6011  152.3955 H   0  0  0  0  0  0  0  0  0  0  0  0
  147.1749  133.0421  154.0443 H   0  0  0  0  0  0  0  0  0  0  0  0
  149.6367  132.8163  152.2298 H   0  0  0  0  0  0  0  0  0  0  0  0
  149.5087  133.7710  153.6858 H   0  0  0  0  0  0  0  0  0  0  0  0
  151.3820  130.6272  157.8953 H   0  0  0  0  0  0  0  0  0  0  0  0
  147.1503  135.3262  156.6729 H   0  0  0  0  0  0  0  0  0  0  0  0
  149.0149  134.0531  159.8009 H   0  0  0  0  0  0  0  0  0  0  0  0
  148.6084  135.6077  159.1217 H   0  0  0  0  0  0  0  0  0  0  0  0
  146.1770  134.8370  158.9671 H   0  0  0  0  0  0  0  0  0  0  0  0
  146.5830  132.3536  159.0303 H   0  0  0  0  0  0  0  0  0  0  0  0
  147.1003  132.4744  160.6949 H   0  0  0  0  0  0  0  0  0  0  0  0
  144.8033  133.6875  160.5863 H   0  0  0  0  0  0  0  0  0  0  0  0
  145.6611  135.2442  161.3088 H   0  0  0  0  0  0  0  0  0  0  0  0
  147.1389  133.8984  162.6742 H   0  0  0  0  0  0  0  0  0  0  0  0
  148.5655  134.5482  161.8535 H   0  0  0  0  0  0  0  0  0  0  0  0
  146.6235  136.0553  163.6514 H   0  0  0  0  0  0  0  0  0  0  0  0
  148.3849  136.0068  163.7824 H   0  0  0  0  0  0  0  0  0  0  0  0
  148.0168  136.8072  160.2115 H   0  0  0  0  0  0  0  0  0  0  0  0
  146.3782  137.3708  160.5391 H   0  0  0  0  0  0  0  0  0  0  0  0
  147.5653  131.3839  151.6825 H   0  0  0  0  0  0  0  0  0  0  0  0
  1  2  1  0  0  0  0
  1 31  1  0  0  0  0
  1 32  1  0  0  0  0
  1 33  1  0  0  0  0
  2 12  1  0  0  0  0
  2  3  1  0  0  0  0
  2 34  1  0  0  0  0
  3  4  1  0  0  0  0
  3 35  1  0  0  0  0
  3 36  1  0  0  0  0
  4  5  1  0  0  0  0
  4 10  1  0  0  0  0
  4 65  1  0  0  0  0
  5  6  1  0  0  0  0
  5 37  1  0  0  0  0
  5 38  1  0  0  0  0
  6  7  1  0  0  0  0
  6  8  1  0  0  0  0
  6  9  1  0  0  0  0
  7 39  1  0  0  0  0
  7 40  1  0  0  0  0
  7 41  1  0  0  0  0
  8 42  1  0  0  0  0
  8 43  1  0  0  0  0
  8 44  1  0  0  0  0
  9 45  1  0  0  0  0
 10 11  1  0  0  0  0
 10 46  1  0  0  0  0
 10 47  1  0  0  0  0
 11 12  1  0  0  0  0
 11 48  1  0  0  0  0
 11 49  1  0  0  0  0
 12 13  1  0  0  0  0
 13 18  1  0  0  0  0
 13 14  2  0  0  0  0
 14 15  1  0  0  0  0
 15 16  2  0  0  0  0
 15 50  1  0  0  0  0
 16 17  1  0  0  0  0
 17 21  1  0  0  0  0
 17 18  2  0  0  0  0
 18 19  1  0  0  0  0
 19 20  2  0  0  0  0
 20 21  1  0  0  0  0
 20 51  1  0  0  0  0
 21 22  1  0  0  0  0
 22 23  1  0  0  0  0
 22 52  1  0  0  0  0
 22 53  1  0  0  0  0
 23 24  1  0  0  0  0
 23 26  1  0  0  0  0
 23 54  1  0  0  0  0
 24 25  1  0  0  0  0
 24 55  1  0  0  0  0
 24 56  1  0  0  0  0
 25 57  1  0  0  0  0
 26 30  1  0  0  0  0
 26 27  1  0  0  0  0
 26 58  1  0  0  0  0
 27 28  1  0  0  0  0
 27 59  1  0  0  0  0
 27 60  1  0  0  0  0
 28 29  1  0  0  0  0
 28 61  1  0  0  0  0
 28 62  1  0  0  0  0
 29 30  1  0  0  0  0
 30 63  1  0  0  0  0
 30 64  1  0  0  0  0
M  CHG  1   4   1
M  END
> <s_m_source_file>
AV-unprocessed.smi

> <i_m_source_file_index>
212

> <i_lp_mmshare_version>
43012

> <i_f3d_flags>
0

> <s_epik_input>
W0NIM11bQ0BASF0xW0NIMl1OKFtDSDJdQyhbQ0gzXSkoW0NIM10pW09IXSlbQ0gyXVtDSDJdTjFjKG5bY0hdbjIpYyhjMjMpbltjSF1uM1tDSDJdW0NASF0oW0NIMl1bT0hdKVtDQEBIXTRbQ0gyXVtDSDJdT1tDSDJdNA==

> <s_epik_cmdline>
J2VwaWtfcHl0aG9uJywgJy1waCcsICc3LjAnLCAnLXRuJywgJzgnLCAnLW1hJywgJzIwMCcsICctbWV0YWxfYmluZGluZycsICctaW1hZScsICc8aW5maWxlLm1hZT4nLCAnLW9tYWUnLCAnPG91dGZpbGUubWFlPic=

> <r_lp_tautomer_probability>
1

> <r_epik_Ionization_Penalty>
0.00182193

> <r_epik_Ionization_Penalty_Charging>
0.00173996

> <r_epik_Ionization_Penalty_Neutral>
8.19718e-05

> <r_epik_State_Penalty>
-0

> <r_epik_Charging_Adjusted_Penalty>
0.00173996

> <i_epik_Tot_Q>
1

> <i_epik_Tot_abs_Q>
1

> <r_epik_Metal_State_Penalty>
-0

> <b_epik_Metal_Only>
0

> <s_lp_Force_Field>
OPLS_2005

> <r_lp_Energy>
59.0262

> <b_lp_Chiralities_Consistent>
1

> <s_lp_Variant>
AV-unprocessed.smi:212-16

> <Gold.Version>
5.8.1

> <Gold.Id.Protein>
6NUR|6NUR_protein|mol2

> <Gold.PLP.Fitness>
47.9113

> <Gold.PLP.PLP>
-40.5008

> <Gold.PLP.part.hbond>
-3.7866

> <Gold.PLP.part.metal>
0.0000

> <Gold.PLP.part.buried>
-3.8825

> <Gold.PLP.part.nonpolar>
-32.2671

> <Gold.PLP.part.repulsive>
0.0890

> <Gold.PLP.ligand.clash>
1.0930

> <Gold.PLP.ligand.torsion>
0.6435

> <Gold.PLP.Chemscore.Hbond>
2.8860

> <Gold.PLP.Chemscore.CHOScore>
0.0000

> <Gold.PLP.Chemscore.Metal>
0.0000

> <Gold.Chemscore.Hbonds>
donor molecule, donor type, donor heavy atom, donor atom, acceptor molecule, acceptor atom, score
      L1  H     4    65       P1 10747  0.93
      P1  H  6896  6907       L1    16  1.00
      P1  H  6931  6943       L1    29  0.96

> <Gold.PLP.Chemscore.Internal.Correction>
1.1326

> <Gold.Rescore>
     Score         DG    S(hbond)    S(metal)    S(lipo)     H(rot)  DE(clash)    DE(int)     intcor
     10.03     -15.74       2.26        0.00     103.64       3.68       0.03       5.68       ----

> <Gold.Chemscore.Fitness>
10.0261

> <Gold.Chemscore.DG>
-15.7365

> <Gold.Chemscore.ZeroCoef>
-5.4800

> <Gold.Chemscore.Hbond>
2.2620

> <Gold.Chemscore.Metal>
0.0000

> <Gold.Chemscore.Lipo>
103.6353

> <Gold.Chemscore.Internal_Hbond>
0.0000

> <Gold.Chemscore.DEClash>
0.0321

> <Gold.Chemscore.DEInternal>
5.6784

> <Gold.Chemscore.Rot>
3.6812

> <Gold.Chemscore.Internal.Correction>
   9.000000E+99

> <Gold.Chemscore.Hbonds>
donor molecule, donor type, donor heavy atom, donor atom, acceptor molecule, acceptor atom, score
      L1  H     4    65       P1 10747  0.88
      P1  H  6896  6907       L1    16  0.60
      P1  H  6931  6943       L1    29  0.51

> <Gold.Chemscore.Hbond.Weighted>
-7.5552

> <Gold.Chemscore.Metal.Weighted>
-0.0000

> <Gold.Chemscore.Lipo.Weighted>
-12.1253

> <Gold.Chemscore.Internal_Hbond.Weighted>
0.0000

> <Gold.Chemscore.DEClash.Weighted>
0.0321

> <Gold.Chemscore.DEInternal.Weighted>
5.6784

> <Gold.Chemscore.Rot.Weighted>
9.4239

> <Gold.Chemscore.Internal.Correction.Weighted>
   9.000000E+99

> <Gold.Protein.RotatedTorsions>
[ 6907 6896 6895 6894 ] final -160.32 input  -60.11 | X-H torsion
[ 7974 7965 7964 7962 ] final  -48.79 input  175.53 | X-H torsion
[ 8008 7997 7996 7995 ] final  -86.18 input   59.86 | X-H torsion
[ 10167 10162 10161 10158 ] final  -84.88 input  -65.29 | X-H torsion
[ 10718 10713 10712 10709 ] final  -54.87 input   66.30 | X-H torsion
[ 10763 10752 10751 10750 ] final  -85.00 input  -60.55 | X-H torsion
[ 11005 11000 10999 10996 ] final  -46.63 input  -57.11 | X-H torsion

> <Gold.Protein.ActiveResidues>
 VAL166  LYS551  ARG553  GLY616  TRP617  ASP618  TYR619  PRO620  LYS621  CYS622 
 ASP623  PHE694  ASN695  SER759  ASP760  ASP761  ALA762  ILE779  LEU786  VAL792 
 PHE793  MET794  SER795  GLU796  ALA797  LYS798  CYS799  TRP800  GLU811  SER814 

> <Gold.Protein.RotatedAtoms>
  151.3473  133.3939  159.2676 H   0  0  0  0  0  0  0  0  0  0  0  0  # atno 6907 bound_to 6896
  150.9830  134.9182  159.7865 H   0  0  0  0  0  0  0  0  0  0  0  0  # atno 6908 bound_to 6896
  152.5223  134.3437  159.9278 H   0  0  0  0  0  0  0  0  0  0  0  0  # atno 6909 bound_to 6896
  145.9474  140.7604  142.9521 H   0  0  0  0  0  0  0  0  0  0  0  0  # atno 7974 bound_to 7965
  154.6490  140.0582  156.9934 H   0  0  0  0  0  0  0  0  0  0  0  0  # atno 8008 bound_to 7997
  155.1400  140.3264  155.4436 H   0  0  0  0  0  0  0  0  0  0  0  0  # atno 8009 bound_to 7997
  156.2567  140.1966  156.6516 H   0  0  0  0  0  0  0  0  0  0  0  0  # atno 8010 bound_to 7997
  140.4091  143.2630  151.9042 H   0  0  0  0  0  0  0  0  0  0  0  0  # atno 10167 bound_to 10162
  156.1415  130.4154  150.0095 H   0  0  0  0  0  0  0  0  0  0  0  0  # atno 10718 bound_to 10713
  154.6060  135.5500  153.7423 H   0  0  0  0  0  0  0  0  0  0  0  0  # atno 10763 bound_to 10752
  153.0174  135.6378  154.1646 H   0  0  0  0  0  0  0  0  0  0  0  0  # atno 10764 bound_to 10752
  154.1585  135.2898  155.3095 H   0  0  0  0  0  0  0  0  0  0  0  0  # atno 10765 bound_to 10752
  141.0591  133.6715  156.3182 H   0  0  0  0  0  0  0  0  0  0  0  0  # atno 11005 bound_to 11000
  144.6789  140.2380  143.7347 LP  0  0  0  0  0  0  0  0  0  0  0  0  # atno 17320 bound_to 7965
  145.8217  139.2046  143.1934 LP  0  0  0  0  0  0  0  0  0  0  0  0  # atno 17321 bound_to 7965
  139.4783  144.5556  151.8319 LP  0  0  0  0  0  0  0  0  0  0  0  0  # atno 17342 bound_to 10162
  140.4657  144.1658  150.5911 LP  0  0  0  0  0  0  0  0  0  0  0  0  # atno 17343 bound_to 10162
  156.7979  130.9280  151.3646 LP  0  0  0  0  0  0  0  0  0  0  0  0  # atno 17370 bound_to 10713
  157.6579  130.8941  149.9768 LP  0  0  0  0  0  0  0  0  0  0  0  0  # atno 17371 bound_to 10713
  140.5905  134.5655  157.5498 LP  0  0  0  0  0  0  0  0  0  0  0  0  # atno 17394 bound_to 11000
  139.9416  134.7777  156.0664 LP  0  0  0  0  0  0  0  0  0  0  0  0  # atno 17395 bound_to 11000

$$$$
