AV-unprocessed.smi:523|AV-procd|sdf|2804|dock8
  -GOLD-   2262023283D 1   1.00000     0.00000
 Structure written by MMmdl.
 40 42  0  0  0  0  0  0  0  0  2 V2000
  150.6931  136.0476  155.2559 C   0  0  0  0  0  0  0  0  0  0  0  0
  151.8485  136.3027  156.0335 O   0  0  0  0  0  0  0  0  0  0  0  0
  152.1082  137.6888  156.1864 C   0  0  0  0  0  0  0  0  0  0  0  0
  150.8909  138.3726  156.8239 C   0  0  0  0  0  0  0  0  0  0  0  0
  151.1668  139.7664  157.1707 N   0  0  0  0  0  0  0  0  0  0  0  0
  150.7039  140.9016  156.5763 C   0  0  0  0  0  0  0  0  0  0  0  0
  149.8775  140.8800  155.4516 N   0  0  0  0  0  0  0  0  0  0  0  0
  149.8179  139.8408  154.4278 C   0  0  0  0  0  0  0  0  0  0  0  0
  148.3580  139.4680  154.1132 C   0  0  0  0  0  0  0  0  0  0  0  0
  147.6727  140.6264  153.6516 O   0  0  0  0  0  0  0  0  0  0  0  0
  147.6929  141.6719  154.6170 C   0  0  0  0  0  0  0  0  0  0  0  0
  149.1507  142.0409  154.9487 C   0  0  0  0  0  0  0  0  0  0  0  0
  151.0689  142.0334  157.1818 N   0  0  0  0  0  0  0  0  0  0  0  0
  151.8546  141.5875  158.2325 C   0  0  0  0  0  0  0  0  0  0  0  0
  151.9236  140.2297  158.2527 C   0  0  0  0  0  0  0  0  0  0  0  0
  152.6594  139.4601  159.2811 C   0  0  0  0  0  0  0  0  0  0  0  0
  152.6716  138.2309  159.2684 O   0  0  0  0  0  0  0  0  0  0  0  0
  153.2796  140.2751  160.1921 N   0  5  0  0  0  0  0  0  0  0  0  0
  153.2411  141.6529  160.2050 C   0  0  0  0  0  0  0  0  0  0  0  0
  153.8254  142.3116  161.0664 O   0  0  0  0  0  0  0  0  0  0  0  0
  152.5360  142.3231  159.2401 N   0  0  0  0  0  0  0  0  0  0  0  0
  152.4691  143.7873  159.2336 C   0  0  0  0  0  0  0  0  0  0  0  0
  150.5474  134.9716  155.1604 H   0  0  0  0  0  0  0  0  0  0  0  0
  150.7916  136.4651  154.2531 H   0  0  0  0  0  0  0  0  0  0  0  0
  149.8029  136.4678  155.7253 H   0  0  0  0  0  0  0  0  0  0  0  0
  152.9925  137.8365  156.8081 H   0  0  0  0  0  0  0  0  0  0  0  0
  152.3141  138.1384  155.2140 H   0  0  0  0  0  0  0  0  0  0  0  0
  150.0320  138.3305  156.1561 H   0  0  0  0  0  0  0  0  0  0  0  0
  150.5867  137.8129  157.7016 H   0  0  0  0  0  0  0  0  0  0  0  0
  150.3061  140.2083  153.5244 H   0  0  0  0  0  0  0  0  0  0  0  0
  150.3885  138.9649  154.7339 H   0  0  0  0  0  0  0  0  0  0  0  0
  148.3222  138.7032  153.3376 H   0  0  0  0  0  0  0  0  0  0  0  0
  147.8560  139.0593  154.9917 H   0  0  0  0  0  0  0  0  0  0  0  0
  147.1679  142.5371  154.2124 H   0  0  0  0  0  0  0  0  0  0  0  0
  147.1550  141.3632  155.5145 H   0  0  0  0  0  0  0  0  0  0  0  0
  149.1657  142.8344  155.6965 H   0  0  0  0  0  0  0  0  0  0  0  0
  149.6564  142.4319  154.0649 H   0  0  0  0  0  0  0  0  0  0  0  0
  153.4705  144.2192  159.2118 H   0  0  0  0  0  0  0  0  0  0  0  0
  151.9612  144.1474  160.1290 H   0  0  0  0  0  0  0  0  0  0  0  0
  151.9303  144.1794  158.3717 H   0  0  0  0  0  0  0  0  0  0  0  0
  1  2  1  0  0  0  0
  1 23  1  0  0  0  0
  1 24  1  0  0  0  0
  1 25  1  0  0  0  0
  2  3  1  0  0  0  0
  3  4  1  0  0  0  0
  3 26  1  0  0  0  0
  3 27  1  0  0  0  0
  4  5  1  0  0  0  0
  4 28  1  0  0  0  0
  4 29  1  0  0  0  0
  5 15  1  0  0  0  0
  5  6  1  0  0  0  0
  6  7  1  0  0  0  0
  6 13  2  0  0  0  0
  7 12  1  0  0  0  0
  7  8  1  0  0  0  0
  8  9  1  0  0  0  0
  8 30  1  0  0  0  0
  8 31  1  0  0  0  0
  9 10  1  0  0  0  0
  9 32  1  0  0  0  0
  9 33  1  0  0  0  0
 10 11  1  0  0  0  0
 11 12  1  0  0  0  0
 11 34  1  0  0  0  0
 11 35  1  0  0  0  0
 12 36  1  0  0  0  0
 12 37  1  0  0  0  0
 13 14  1  0  0  0  0
 14 21  1  0  0  0  0
 14 15  2  0  0  0  0
 15 16  1  0  0  0  0
 16 17  2  0  0  0  0
 16 18  1  0  0  0  0
 18 19  1  0  0  0  0
 19 20  2  0  0  0  0
 19 21  1  0  0  0  0
 21 22  1  0  0  0  0
 22 38  1  0  0  0  0
 22 39  1  0  0  0  0
 22 40  1  0  0  0  0
M  CHG  1  18  -1
M  END
> <s_m_source_file>
AV-unprocessed.smi

> <i_m_source_file_index>
523

> <i_lp_mmshare_version>
43012

> <i_f3d_flags>
0

> <s_epik_input>
W0NIM11uMWMoPU8pW25IXWMoPU8pYyhjMTIpbihbQ0gyXVtDSDJdT1tDSDNdKWMobjIpTjNbQ0gyXVtDSDJdT1tDSDJdW0NIMl0z

> <s_epik_cmdline>
J2VwaWtfcHl0aG9uJywgJy1waCcsICc3LjAnLCAnLXRuJywgJzgnLCAnLW1hJywgJzIwMCcsICctbWV0YWxfYmluZGluZycsICctaW1hZScsICc8aW5maWxlLm1hZT4nLCAnLW9tYWUnLCAnPG91dGZpbGUubWFlPic=

> <r_lp_tautomer_probability>
1

> <r_epik_Ionization_Penalty>
4.75788

> <r_epik_Ionization_Penalty_Charging>
0.0452179

> <r_epik_Ionization_Penalty_Neutral>
4.71266

> <r_epik_State_Penalty>
4.71244

> <r_epik_Charging_Adjusted_Penalty>
4.75766

> <i_epik_Tot_Q>
-1

> <i_epik_Tot_abs_Q>
1

> <r_epik_Metal_State_Penalty>
0.934872

> <b_epik_Metal_Only>
1

> <s_lp_Force_Field>
OPLS_2005

> <r_lp_Energy>
41.5278

> <b_lp_Chiralities_Consistent>
1

> <s_lp_Variant>
AV-unprocessed.smi:523-2

> <Gold.Version>
5.8.1

> <Gold.Id.Protein>
6NUR|6NUR_protein|mol2

> <Gold.PLP.Fitness>
37.5411

> <Gold.PLP.PLP>
-34.8812

> <Gold.PLP.part.hbond>
-1.2981

> <Gold.PLP.part.metal>
0.0000

> <Gold.PLP.part.buried>
-0.0425

> <Gold.PLP.part.nonpolar>
-32.8047

> <Gold.PLP.part.repulsive>
0.2416

> <Gold.PLP.ligand.clash>
0.0000

> <Gold.PLP.ligand.torsion>
0.3583

> <Gold.PLP.Chemscore.Hbond>
1.0000

> <Gold.PLP.Chemscore.CHOScore>
0.0000

> <Gold.PLP.Chemscore.Metal>
0.0000

> <Gold.Chemscore.Hbonds>
donor molecule, donor type, donor heavy atom, donor atom, acceptor molecule, acceptor atom, score
      P1  H 10752 10765       L1     2  0.90

> <Gold.PLP.Chemscore.Internal.Correction>
0.3766

> <Gold.Rescore>
     Score         DG    S(hbond)    S(metal)    S(lipo)     H(rot)  DE(clash)    DE(int)     intcor
      8.91     -11.92       0.90        0.00      62.39       1.52       1.60       1.41       ----

> <Gold.Chemscore.Fitness>
8.9092

> <Gold.Chemscore.DG>
-11.9171

> <Gold.Chemscore.ZeroCoef>
-5.4800

> <Gold.Chemscore.Hbond>
0.9036

> <Gold.Chemscore.Metal>
0.0000

> <Gold.Chemscore.Lipo>
62.3905

> <Gold.Chemscore.Internal_Hbond>
0.0000

> <Gold.Chemscore.DEClash>
1.5999

> <Gold.Chemscore.DEInternal>
1.4079

> <Gold.Chemscore.Rot>
1.5159

> <Gold.Chemscore.Internal.Correction>
   9.000000E+99

> <Gold.Chemscore.Hbonds>
donor molecule, donor type, donor heavy atom, donor atom, acceptor molecule, acceptor atom, score
      P1  H 10752 10765       L1     2  0.14

> <Gold.Chemscore.Hbond.Weighted>
-3.0180

> <Gold.Chemscore.Metal.Weighted>
-0.0000

> <Gold.Chemscore.Lipo.Weighted>
-7.2997

> <Gold.Chemscore.Internal_Hbond.Weighted>
0.0000

> <Gold.Chemscore.DEClash.Weighted>
1.5999

> <Gold.Chemscore.DEInternal.Weighted>
1.4079

> <Gold.Chemscore.Rot.Weighted>
3.8806

> <Gold.Chemscore.Internal.Correction.Weighted>
   9.000000E+99

> <Gold.Protein.RotatedTorsions>
[ 6907 6896 6895 6894 ] final -103.49 input  -60.11 | X-H torsion
[ 7974 7965 7964 7962 ] final  -83.04 input  175.53 | X-H torsion
[ 8008 7997 7996 7995 ] final    9.45 input   59.86 | X-H torsion
[ 10167 10162 10161 10158 ] final -110.63 input  -65.29 | X-H torsion
[ 10718 10713 10712 10709 ] final   36.13 input   66.30 | X-H torsion
[ 10763 10752 10751 10750 ] final -158.08 input  -60.55 | X-H torsion
[ 11005 11000 10999 10996 ] final  103.57 input  -57.11 | X-H torsion

> <Gold.Protein.ActiveResidues>
 VAL166  LYS551  ARG553  GLY616  TRP617  ASP618  TYR619  PRO620  LYS621  CYS622 
 ASP623  PHE694  ASN695  SER759  ASP760  ASP761  ALA762  ILE779  LEU786  VAL792 
 PHE793  MET794  SER795  GLU796  ALA797  LYS798  CYS799  TRP800  GLU811  SER814 

> <Gold.Protein.RotatedAtoms>
  150.7242  134.0422  159.3769 H   0  0  0  0  0  0  0  0  0  0  0  0  # atno 6907 bound_to 6896
  151.8395  135.0592  160.0456 H   0  0  0  0  0  0  0  0  0  0  0  0  # atno 6908 bound_to 6896
  152.2873  133.5491  159.5571 H   0  0  0  0  0  0  0  0  0  0  0  0  # atno 6909 bound_to 6896
  145.5253  140.9527  143.1633 H   0  0  0  0  0  0  0  0  0  0  0  0  # atno 7974 bound_to 7965
  154.7802  140.2817  155.6069 H   0  0  0  0  0  0  0  0  0  0  0  0  # atno 8008 bound_to 7997
  156.2948  140.2624  156.2554 H   0  0  0  0  0  0  0  0  0  0  0  0  # atno 8009 bound_to 7997
  154.9793  140.0375  157.2260 H   0  0  0  0  0  0  0  0  0  0  0  0  # atno 8010 bound_to 7997
  140.1424  143.4268  152.1553 H   0  0  0  0  0  0  0  0  0  0  0  0  # atno 10167 bound_to 10162
  157.3311  130.7498  149.6848 H   0  0  0  0  0  0  0  0  0  0  0  0  # atno 10718 bound_to 10713
  154.7585  135.3111  154.8424 H   0  0  0  0  0  0  0  0  0  0  0  0  # atno 10763 bound_to 10752
  153.9191  135.6797  153.4752 H   0  0  0  0  0  0  0  0  0  0  0  0  # atno 10764 bound_to 10752
  153.1184  135.4834  154.9085 H   0  0  0  0  0  0  0  0  0  0  0  0  # atno 10765 bound_to 10752
  139.8785  134.9268  156.5230 H   0  0  0  0  0  0  0  0  0  0  0  0  # atno 11005 bound_to 11000
  144.7654  139.6857  143.7217 LP  0  0  0  0  0  0  0  0  0  0  0  0  # atno 17320 bound_to 7965
  146.2079  139.5416  142.9700 LP  0  0  0  0  0  0  0  0  0  0  0  0  # atno 17321 bound_to 7965
  139.5466  144.7303  151.4566 LP  0  0  0  0  0  0  0  0  0  0  0  0  # atno 17342 bound_to 10162
  140.6752  143.8205  150.7050 LP  0  0  0  0  0  0  0  0  0  0  0  0  # atno 17343 bound_to 10162
  155.9696  130.4195  150.4378 LP  0  0  0  0  0  0  0  0  0  0  0  0  # atno 17370 bound_to 10713
  157.2410  131.0525  151.2436 LP  0  0  0  0  0  0  0  0  0  0  0  0  # atno 17371 bound_to 10713
  140.8437  133.8185  155.9100 LP  0  0  0  0  0  0  0  0  0  0  0  0  # atno 17394 bound_to 11000
  140.9213  134.2138  157.4925 LP  0  0  0  0  0  0  0  0  0  0  0  0  # atno 17395 bound_to 11000

$$$$
