AV-unprocessed.smi:3149|AV-procd|sdf|11999|dock4
  -GOLD-   2272017403D 1   1.00000     0.00000
 Structure written by MMmdl.
 38 39  0  0  0  0  0  0  0  0  2 V2000
  153.0676  138.7284  156.0131 C   0  0  0  0  0  0  0  0  0  0  0  0
  151.9349  139.6474  155.5272 C   0  0  2  0  0  0  0  0  0  0  0  0
  151.8229  140.7923  156.4605 N   0  3  0  0  0  0  0  0  0  0  0  0
  151.4458  140.4366  157.8431 C   0  0  0  0  0  0  0  0  0  0  0  0
  152.5915  140.7261  158.8154 C   0  0  0  0  0  0  0  0  0  0  0  0
  153.6641  140.1326  158.7043 O   0  0  0  0  0  0  0  0  0  0  0  0
  152.3984  141.7321  159.7647 N   0  0  0  0  0  0  0  0  0  0  0  0
  151.6729  142.9524  159.4436 C   0  0  0  0  0  0  0  0  0  0  0  0
  152.5743  143.6323  160.4791 C   0  0  0  0  0  0  0  0  0  0  0  0
  153.5277  142.4403  160.3491 C   0  0  0  0  0  0  0  0  0  0  0  0
  150.5726  138.9114  155.4081 C   0  0  2  0  0  0  0  0  0  0  0  0
  150.6465  137.6313  154.5536 C   0  0  0  0  0  0  0  0  0  0  0  0
  149.5319  139.7939  154.8915 N   0  0  0  0  0  0  0  0  0  0  0  0
  148.2283  139.4765  154.5681 C   0  0  0  0  0  0  0  0  0  0  0  0
  147.6202  140.6246  154.1484 C   0  0  0  0  0  0  0  0  0  0  0  0
  148.6452  141.6059  154.2454 C   0  0  0  0  0  0  0  0  0  0  0  0
  149.7868  141.1068  154.6907 N   0  0  0  0  0  0  0  0  0  0  0  0
  153.2694  137.9257  155.3042 H   0  0  0  0  0  0  0  0  0  0  0  0
  152.8273  138.2740  156.9749 H   0  0  0  0  0  0  0  0  0  0  0  0
  153.9973  139.2859  156.1332 H   0  0  0  0  0  0  0  0  0  0  0  0
  152.2175  140.0185  154.5403 H   0  0  0  0  0  0  0  0  0  0  0  0
  152.7159  141.2630  156.4908 H   0  0  0  0  0  0  0  0  0  0  0  0
  150.5662  141.0069  158.1439 H   0  0  0  0  0  0  0  0  0  0  0  0
  151.1800  139.3801  157.8776 H   0  0  0  0  0  0  0  0  0  0  0  0
  151.8432  143.3074  158.4251 H   0  0  0  0  0  0  0  0  0  0  0  0
  150.6161  142.9256  159.7111 H   0  0  0  0  0  0  0  0  0  0  0  0
  152.9978  144.5817  160.1499 H   0  0  0  0  0  0  0  0  0  0  0  0
  152.1151  143.7135  161.4660 H   0  0  0  0  0  0  0  0  0  0  0  0
  153.8690  142.0245  161.2976 H   0  0  0  0  0  0  0  0  0  0  0  0
  154.3454  142.6199  159.6479 H   0  0  0  0  0  0  0  0  0  0  0  0
  150.2613  138.6142  156.4108 H   0  0  0  0  0  0  0  0  0  0  0  0
  151.2844  136.8763  155.0120 H   0  0  0  0  0  0  0  0  0  0  0  0
  151.0370  137.8371  153.5563 H   0  0  0  0  0  0  0  0  0  0  0  0
  149.6592  137.1832  154.4363 H   0  0  0  0  0  0  0  0  0  0  0  0
  147.8436  138.4720  154.6658 H   0  0  0  0  0  0  0  0  0  0  0  0
  146.5984  140.7448  153.8198 H   0  0  0  0  0  0  0  0  0  0  0  0
  148.5937  142.6585  154.0088 H   0  0  0  0  0  0  0  0  0  0  0  0
  151.1345  141.4389  156.1024 H   0  0  0  0  0  0  0  0  0  0  0  0
  1  2  1  0  0  0  0
  1 18  1  0  0  0  0
  1 19  1  0  0  0  0
  1 20  1  0  0  0  0
  2  3  1  0  0  0  0
  2 11  1  0  0  0  0
  2 21  1  0  0  0  0
  3  4  1  0  0  0  0
  3 22  1  0  0  0  0
  3 38  1  0  0  0  0
  4  5  1  0  0  0  0
  4 23  1  0  0  0  0
  4 24  1  0  0  0  0
  5  6  2  0  0  0  0
  5  7  1  0  0  0  0
  7 10  1  0  0  0  0
  7  8  1  0  0  0  0
  8  9  1  0  0  0  0
  8 25  1  0  0  0  0
  8 26  1  0  0  0  0
  9 10  1  0  0  0  0
  9 27  1  0  0  0  0
  9 28  1  0  0  0  0
 10 29  1  0  0  0  0
 10 30  1  0  0  0  0
 11 12  1  0  0  0  0
 11 13  1  0  0  0  0
 11 31  1  0  0  0  0
 12 32  1  0  0  0  0
 12 33  1  0  0  0  0
 12 34  1  0  0  0  0
 13 17  1  0  0  0  0
 13 14  1  0  0  0  0
 14 15  2  0  0  0  0
 14 35  1  0  0  0  0
 15 16  1  0  0  0  0
 15 36  1  0  0  0  0
 16 17  2  0  0  0  0
 16 37  1  0  0  0  0
M  CHG  1   3   1
M  END
> <s_m_source_file>
AV-unprocessed.smi

> <i_m_source_file_index>
3149

> <i_lp_mmshare_version>
43012

> <i_f3d_flags>
0

> <s_epik_input>
bjFbY0hdW2NIXVtjSF1uMVtDQEBIXShbQ0gzXSlbQ0BIXShbQ0gzXSlbTkhdW0NIMl1DKD1PKU4yW0NIMl1bQ0gyXVtDSDJdMg==

> <s_epik_cmdline>
J2VwaWtfcHl0aG9uJywgJy1waCcsICc3LjAnLCAnLXRuJywgJzgnLCAnLW1hJywgJzIwMCcsICctbWV0YWxfYmluZGluZycsICctaW1hZScsICc8aW5maWxlLm1hZT4nLCAnLW9tYWUnLCAnPG91dGZpbGUubWFlPic=

> <r_lp_tautomer_probability>
1

> <r_epik_Ionization_Penalty>
0.141739

> <r_epik_Ionization_Penalty_Charging>
0.141731

> <r_epik_Ionization_Penalty_Neutral>
8.82171e-06

> <r_epik_State_Penalty>
0.131043

> <r_epik_Charging_Adjusted_Penalty>
0.272773

> <i_epik_Tot_Q>
1

> <i_epik_Tot_abs_Q>
1

> <r_epik_Metal_State_Penalty>
0.131384

> <b_epik_Metal_Only>
0

> <s_lp_Force_Field>
OPLS_2005

> <r_lp_Energy>
21.2317

> <b_lp_Chiralities_Consistent>
1

> <s_lp_Variant>
AV-unprocessed.smi:3149-1

> <Gold.Version>
5.8.1

> <Gold.Id.Protein>
6NUR|6NUR_protein|mol2

> <Gold.PLP.Fitness>
41.3469

> <Gold.PLP.PLP>
-34.5366

> <Gold.PLP.part.hbond>
-2.0000

> <Gold.PLP.part.metal>
0.0000

> <Gold.PLP.part.buried>
0.2472

> <Gold.PLP.part.nonpolar>
-32.6543

> <Gold.PLP.part.repulsive>
0.2836

> <Gold.PLP.ligand.clash>
0.0000

> <Gold.PLP.ligand.torsion>
0.9791

> <Gold.PLP.Chemscore.Hbond>
1.6185

> <Gold.PLP.Chemscore.CHOScore>
0.9968

> <Gold.PLP.Chemscore.Metal>
0.0000

> <Gold.Chemscore.Hbonds>
donor molecule, donor type, donor heavy atom, donor atom, acceptor molecule, acceptor atom, score
      P1  H  7989  7998       L1    17  0.33
      P1  H  7997  8010       L1     6  0.96
      L1  C    16    37       P1  8028  0.75

> <Gold.PLP.Chemscore.Internal.Correction>
0.9223

> <Gold.Rescore>
     Score         DG    S(hbond)    S(metal)    S(lipo)     H(rot)  DE(clash)    DE(int)     intcor
     13.35     -15.81       1.65        0.00      81.85       1.85       0.11       2.34       ----

> <Gold.Chemscore.Fitness>
13.3517

> <Gold.Chemscore.DG>
-15.8053

> <Gold.Chemscore.ZeroCoef>
-5.4800

> <Gold.Chemscore.Hbond>
1.6456

> <Gold.Chemscore.Metal>
0.0000

> <Gold.Chemscore.Lipo>
81.8463

> <Gold.Chemscore.Internal_Hbond>
0.0000

> <Gold.Chemscore.DEClash>
0.1110

> <Gold.Chemscore.DEInternal>
2.3426

> <Gold.Chemscore.Rot>
1.8544

> <Gold.Chemscore.Internal.Correction>
   9.000000E+99

> <Gold.Chemscore.Hbonds>
donor molecule, donor type, donor heavy atom, donor atom, acceptor molecule, acceptor atom, score
      P1  H  7989  7998       L1    17  0.08
      P1  H  7997  8010       L1     6  0.92

> <Gold.Chemscore.Hbond.Weighted>
-5.4964

> <Gold.Chemscore.Metal.Weighted>
-0.0000

> <Gold.Chemscore.Lipo.Weighted>
-9.5760

> <Gold.Chemscore.Internal_Hbond.Weighted>
0.0000

> <Gold.Chemscore.DEClash.Weighted>
0.1110

> <Gold.Chemscore.DEInternal.Weighted>
2.3426

> <Gold.Chemscore.Rot.Weighted>
4.7472

> <Gold.Chemscore.Internal.Correction.Weighted>
   9.000000E+99

> <Gold.Protein.RotatedTorsions>
[ 6907 6896 6895 6894 ] final   82.62 input  -60.11 | X-H torsion
[ 7974 7965 7964 7962 ] final  -58.35 input  175.53 | X-H torsion
[ 8008 7997 7996 7995 ] final   17.99 input   59.86 | X-H torsion
[ 10167 10162 10161 10158 ] final  144.86 input  -65.29 | X-H torsion
[ 10718 10713 10712 10709 ] final  179.71 input   66.30 | X-H torsion
[ 10763 10752 10751 10750 ] final  -74.08 input  -60.55 | X-H torsion
[ 11005 11000 10999 10996 ] final   13.97 input  -57.11 | X-H torsion

> <Gold.Protein.ActiveResidues>
 VAL166  LYS551  ARG553  GLY616  TRP617  ASP618  TYR619  PRO620  LYS621  CYS622 
 ASP623  PHE694  ASN695  SER759  ASP760  ASP761  ALA762  ILE779  LEU786  VAL792 
 PHE793  MET794  SER795  GLU796  ALA797  LYS798  CYS799  TRP800  GLU811  SER814 

> <Gold.Protein.RotatedAtoms>
  152.5304  134.3022  159.9082 H   0  0  0  0  0  0  0  0  0  0  0  0  # atno 6907 bound_to 6896
  151.2972  133.4132  159.2645 H   0  0  0  0  0  0  0  0  0  0  0  0  # atno 6908 bound_to 6896
  151.0150  134.9442  159.8085 H   0  0  0  0  0  0  0  0  0  0  0  0  # atno 6909 bound_to 6896
  145.8404  140.8421  143.0037 H   0  0  0  0  0  0  0  0  0  0  0  0  # atno 7974 bound_to 7965
  154.8994  140.2998  155.5326 H   0  0  0  0  0  0  0  0  0  0  0  0  # atno 8008 bound_to 7997
  156.3019  140.2409  156.3955 H   0  0  0  0  0  0  0  0  0  0  0  0  # atno 8009 bound_to 7997
  154.8536  140.0408  157.1609 H   0  0  0  0  0  0  0  0  0  0  0  0  # atno 8010 bound_to 7997
  139.4938  144.5942  151.6617 H   0  0  0  0  0  0  0  0  0  0  0  0  # atno 10167 bound_to 10162
  156.8717  130.9786  151.3072 H   0  0  0  0  0  0  0  0  0  0  0  0  # atno 10718 bound_to 10713
  154.4682  135.5876  153.6303 H   0  0  0  0  0  0  0  0  0  0  0  0  # atno 10763 bound_to 10752
  152.9831  135.6060  154.3400 H   0  0  0  0  0  0  0  0  0  0  0  0  # atno 10764 bound_to 10752
  154.3280  135.2843  155.2465 H   0  0  0  0  0  0  0  0  0  0  0  0  # atno 10765 bound_to 10752
  140.4747  134.0995  155.7739 H   0  0  0  0  0  0  0  0  0  0  0  0  # atno 11005 bound_to 11000
  144.6734  140.0803  143.7469 LP  0  0  0  0  0  0  0  0  0  0  0  0  # atno 17320 bound_to 7965
  145.9472  139.2708  143.1234 LP  0  0  0  0  0  0  0  0  0  0  0  0  # atno 17321 bound_to 7965
  140.5576  144.0322  150.6155 LP  0  0  0  0  0  0  0  0  0  0  0  0  # atno 17342 bound_to 10162
  140.3397  143.3027  152.0601 LP  0  0  0  0  0  0  0  0  0  0  0  0  # atno 17343 bound_to 10162
  157.6192  130.8642  149.9079 LP  0  0  0  0  0  0  0  0  0  0  0  0  # atno 17370 bound_to 10713
  156.0723  130.3683  150.0750 LP  0  0  0  0  0  0  0  0  0  0  0  0  # atno 17371 bound_to 10713
  141.1560  133.8882  157.1976 LP  0  0  0  0  0  0  0  0  0  0  0  0  # atno 17394 bound_to 11000
  139.9863  135.0081  156.9870 LP  0  0  0  0  0  0  0  0  0  0  0  0  # atno 17395 bound_to 11000

$$$$
