AV-unprocessed.smi:2582|AV-procd|sdf|10133|dock3
  -GOLD-   2272014143D 1   1.00000     0.00000
 Structure written by MMmdl.
 36 38  0  0  0  0  0  0  0  0  2 V2000
  151.8241  139.8855  155.0512 O   0  0  0  0  0  0  0  0  0  0  0  0
  151.1752  140.5239  155.8797 C   0  0  0  0  0  0  0  0  0  0  0  0
  151.7242  140.9338  157.1744 C   0  0  0  0  0  0  0  0  0  0  0  0
  151.0047  141.5975  158.1108 C   0  0  0  0  0  0  0  0  0  0  0  0
  151.5989  141.9507  159.3288 N   0  0  0  0  0  0  0  0  0  0  0  0
  152.9993  141.6190  159.5760 C   0  0  0  0  0  0  0  0  0  0  0  0
  153.0665  142.8959  160.4064 C   0  0  0  0  0  0  0  0  0  0  0  0
  151.8469  143.3596  159.6178 C   0  0  0  0  0  0  0  0  0  0  0  0
  149.6208  141.8846  157.7635 C   0  0  0  0  0  0  0  0  0  0  0  0
  149.1018  141.5494  156.6320 N   0  0  0  0  0  0  0  0  0  0  0  0
  149.8744  140.8998  155.6814 N   0  0  0  0  0  0  0  0  0  0  0  0
  149.1748  140.5555  154.4258 C   0  0  2  0  0  0  0  0  0  0  0  0
  147.7135  141.0639  154.3697 C   0  0  0  0  0  0  0  0  0  0  0  0
  147.0643  140.6608  153.0376 C   0  0  0  0  0  0  0  0  0  0  0  0
  147.1573  139.1402  152.8261 C   0  0  0  0  0  0  0  0  0  0  0  0
  148.5630  138.6853  152.8977 N   0  3  0  0  0  0  0  0  0  0  0  0
  149.2235  139.0326  154.1756 C   0  0  0  0  0  0  0  0  0  0  0  0
  152.7559  140.6900  157.3856 H   0  0  0  0  0  0  0  0  0  0  0  0
  153.1397  140.7021  160.1487 H   0  0  0  0  0  0  0  0  0  0  0  0
  153.6281  141.6524  158.6853 H   0  0  0  0  0  0  0  0  0  0  0  0
  152.8654  142.7377  161.4677 H   0  0  0  0  0  0  0  0  0  0  0  0
  153.9633  143.4939  160.2422 H   0  0  0  0  0  0  0  0  0  0  0  0
  152.1035  143.9510  158.7374 H   0  0  0  0  0  0  0  0  0  0  0  0
  151.0701  143.8289  160.2221 H   0  0  0  0  0  0  0  0  0  0  0  0
  149.0385  142.4048  158.5241 H   0  0  0  0  0  0  0  0  0  0  0  0
  149.6835  141.0437  153.5921 H   0  0  0  0  0  0  0  0  0  0  0  0
  147.1189  140.6424  155.1812 H   0  0  0  0  0  0  0  0  0  0  0  0
  147.6847  142.1478  154.4874 H   0  0  0  0  0  0  0  0  0  0  0  0
  146.0206  140.9766  153.0211 H   0  0  0  0  0  0  0  0  0  0  0  0
  147.5581  141.1797  152.2146 H   0  0  0  0  0  0  0  0  0  0  0  0
  146.5722  138.6152  153.5825 H   0  0  0  0  0  0  0  0  0  0  0  0
  146.7430  138.8669  151.8553 H   0  0  0  0  0  0  0  0  0  0  0  0
  148.5907  137.6829  152.7765 H   0  0  0  0  0  0  0  0  0  0  0  0
  150.2558  138.6836  154.1379 H   0  0  0  0  0  0  0  0  0  0  0  0
  148.7349  138.4935  154.9886 H   0  0  0  0  0  0  0  0  0  0  0  0
  149.0782  139.1180  152.1442 H   0  0  0  0  0  0  0  0  0  0  0  0
  1  2  2  0  0  0  0
  2 11  1  0  0  0  0
  2  3  1  0  0  0  0
  3  4  2  0  0  0  0
  3 18  1  0  0  0  0
  4  5  1  0  0  0  0
  4  9  1  0  0  0  0
  5  8  1  0  0  0  0
  5  6  1  0  0  0  0
  6  7  1  0  0  0  0
  6 19  1  0  0  0  0
  6 20  1  0  0  0  0
  7  8  1  0  0  0  0
  7 21  1  0  0  0  0
  7 22  1  0  0  0  0
  8 23  1  0  0  0  0
  8 24  1  0  0  0  0
  9 10  2  0  0  0  0
  9 25  1  0  0  0  0
 10 11  1  0  0  0  0
 11 12  1  0  0  0  0
 12 17  1  0  0  0  0
 12 13  1  0  0  0  0
 12 26  1  0  0  0  0
 13 14  1  0  0  0  0
 13 27  1  0  0  0  0
 13 28  1  0  0  0  0
 14 15  1  0  0  0  0
 14 29  1  0  0  0  0
 14 30  1  0  0  0  0
 15 16  1  0  0  0  0
 15 31  1  0  0  0  0
 15 32  1  0  0  0  0
 16 17  1  0  0  0  0
 16 33  1  0  0  0  0
 16 36  1  0  0  0  0
 17 34  1  0  0  0  0
 17 35  1  0  0  0  0
M  CHG  1  16   1
M  END
> <s_m_source_file>
AV-unprocessed.smi

> <i_m_source_file_index>
2582

> <i_lp_mmshare_version>
43012

> <i_f3d_flags>
0

> <s_epik_input>
W0NIMl0xW0NIMl1bQ0gyXU4xYyhbY0hdYzI9TylbY0hdbm4yW0NAQEhdM1tDSDJdW0NIMl1bQ0gyXVtOSF1bQ0gyXTM=

> <s_epik_cmdline>
J2VwaWtfcHl0aG9uJywgJy1waCcsICc3LjAnLCAnLXRuJywgJzgnLCAnLW1hJywgJzIwMCcsICctbWV0YWxfYmluZGluZycsICctaW1hZScsICc8aW5maWxlLm1hZT4nLCAnLW9tYWUnLCAnPG91dGZpbGUubWFlPic=

> <r_lp_tautomer_probability>
1

> <r_epik_Ionization_Penalty>
0.00148886

> <r_epik_Ionization_Penalty_Charging>
0.0014053

> <r_epik_Ionization_Penalty_Neutral>
8.35615e-05

> <r_epik_State_Penalty>
-0

> <r_epik_Charging_Adjusted_Penalty>
0.0014053

> <i_epik_Tot_Q>
1

> <i_epik_Tot_abs_Q>
1

> <r_epik_Metal_State_Penalty>
-0

> <b_epik_Metal_Only>
0

> <s_lp_Force_Field>
OPLS_2005

> <r_lp_Energy>
54.701

> <b_lp_Chiralities_Consistent>
1

> <s_lp_Variant>
AV-unprocessed.smi:2582-1

> <Gold.Version>
5.8.1

> <Gold.Id.Protein>
6NUR|6NUR_protein|mol2

> <Gold.PLP.Fitness>
48.9944

> <Gold.PLP.PLP>
-37.8321

> <Gold.PLP.part.hbond>
-2.8879

> <Gold.PLP.part.metal>
0.0000

> <Gold.PLP.part.buried>
-4.2974

> <Gold.PLP.part.nonpolar>
-30.6146

> <Gold.PLP.part.repulsive>
0.2319

> <Gold.PLP.ligand.clash>
0.0000

> <Gold.PLP.ligand.torsion>
0.0958

> <Gold.PLP.Chemscore.Hbond>
3.7428

> <Gold.PLP.Chemscore.CHOScore>
0.0000

> <Gold.PLP.Chemscore.Metal>
0.0000

> <Gold.Chemscore.Hbonds>
donor molecule, donor type, donor heavy atom, donor atom, acceptor molecule, acceptor atom, score
      L1  H    16    33       P1  7948  2.00
      L1  H    16    36       P1  7957  0.75
      P1  H  7989  7998       L1     1  0.96

> <Gold.PLP.Chemscore.Internal.Correction>
0.1256

> <Gold.Rescore>
     Score         DG    S(hbond)    S(metal)    S(lipo)     H(rot)  DE(clash)    DE(int)     intcor
     19.97     -21.42       2.74        0.00      84.28       1.20       0.06       1.39       ----

> <Gold.Chemscore.Fitness>
19.9674

> <Gold.Chemscore.DG>
-21.4168

> <Gold.Chemscore.ZeroCoef>
-5.4800

> <Gold.Chemscore.Hbond>
2.7408

> <Gold.Chemscore.Metal>
0.0000

> <Gold.Chemscore.Lipo>
84.2758

> <Gold.Chemscore.Internal_Hbond>
0.0000

> <Gold.Chemscore.DEClash>
0.0615

> <Gold.Chemscore.DEInternal>
1.3879

> <Gold.Chemscore.Rot>
1.2022

> <Gold.Chemscore.Internal.Correction>
   9.000000E+99

> <Gold.Chemscore.Hbonds>
donor molecule, donor type, donor heavy atom, donor atom, acceptor molecule, acceptor atom, score
      L1  H    16    33       P1  7948  0.95
      L1  H    16    36       P1  7957  0.72
      P1  H  7989  7998       L1     1  0.41

> <Gold.Chemscore.Hbond.Weighted>
-9.1542

> <Gold.Chemscore.Metal.Weighted>
-0.0000

> <Gold.Chemscore.Lipo.Weighted>
-9.8603

> <Gold.Chemscore.Internal_Hbond.Weighted>
0.0000

> <Gold.Chemscore.DEClash.Weighted>
0.0615

> <Gold.Chemscore.DEInternal.Weighted>
1.3879

> <Gold.Chemscore.Rot.Weighted>
3.0777

> <Gold.Chemscore.Internal.Correction.Weighted>
   9.000000E+99

> <Gold.Protein.RotatedTorsions>
[ 6907 6896 6895 6894 ] final -143.35 input  -60.11 | X-H torsion
[ 7974 7965 7964 7962 ] final   82.05 input  175.53 | X-H torsion
[ 8008 7997 7996 7995 ] final  104.92 input   59.86 | X-H torsion
[ 10167 10162 10161 10158 ] final -110.26 input  -65.29 | X-H torsion
[ 10718 10713 10712 10709 ] final   93.88 input   66.30 | X-H torsion
[ 10763 10752 10751 10750 ] final   70.51 input  -60.55 | X-H torsion
[ 11005 11000 10999 10996 ] final   10.39 input  -57.11 | X-H torsion

> <Gold.Protein.ActiveResidues>
 VAL166  LYS551  ARG553  GLY616  TRP617  ASP618  TYR619  PRO620  LYS621  CYS622 
 ASP623  PHE694  ASN695  SER759  ASP760  ASP761  ALA762  ILE779  LEU786  VAL792 
 PHE793  MET794  SER795  GLU796  ALA797  LYS798  CYS799  TRP800  GLU811  SER814 

> <Gold.Protein.RotatedAtoms>
  151.0993  133.5255  159.2610 H   0  0  0  0  0  0  0  0  0  0  0  0  # atno 6907 bound_to 6896
  151.2092  135.0474  159.8914 H   0  0  0  0  0  0  0  0  0  0  0  0  # atno 6908 bound_to 6896
  152.5441  134.0811  159.8289 H   0  0  0  0  0  0  0  0  0  0  0  0  # atno 6909 bound_to 6896
  145.6302  139.2403  143.2089 H   0  0  0  0  0  0  0  0  0  0  0  0  # atno 7974 bound_to 7965
  156.1615  140.3139  155.8815 H   0  0  0  0  0  0  0  0  0  0  0  0  # atno 8008 bound_to 7997
  155.3773  140.0485  157.3061 H   0  0  0  0  0  0  0  0  0  0  0  0  # atno 8009 bound_to 7997
  154.5151  140.2178  155.9093 H   0  0  0  0  0  0  0  0  0  0  0  0  # atno 8010 bound_to 7997
  140.1464  143.4236  152.1526 H   0  0  0  0  0  0  0  0  0  0  0  0  # atno 10167 bound_to 10162
  157.6952  131.0493  150.4102 H   0  0  0  0  0  0  0  0  0  0  0  0  # atno 10718 bound_to 10713
  153.0346  135.5171  154.7452 H   0  0  0  0  0  0  0  0  0  0  0  0  # atno 10763 bound_to 10752
  154.6439  135.2916  155.0072 H   0  0  0  0  0  0  0  0  0  0  0  0  # atno 10764 bound_to 10752
  154.0980  135.6640  153.4916 H   0  0  0  0  0  0  0  0  0  0  0  0  # atno 10765 bound_to 10752
  140.5150  134.0615  155.7828 H   0  0  0  0  0  0  0  0  0  0  0  0  # atno 11005 bound_to 11000
  146.1363  140.7118  142.9388 LP  0  0  0  0  0  0  0  0  0  0  0  0  # atno 17320 bound_to 7965
  144.7197  140.4330  143.7018 LP  0  0  0  0  0  0  0  0  0  0  0  0  # atno 17321 bound_to 7965
  139.5447  144.7288  151.4622 LP  0  0  0  0  0  0  0  0  0  0  0  0  # atno 17342 bound_to 10162
  140.6729  143.8253  150.7022 LP  0  0  0  0  0  0  0  0  0  0  0  0  # atno 17343 bound_to 10162
  156.4487  130.4007  149.6650 LP  0  0  0  0  0  0  0  0  0  0  0  0  # atno 17370 bound_to 10713
  156.3807  130.7578  151.2570 LP  0  0  0  0  0  0  0  0  0  0  0  0  # atno 17371 bound_to 10713
  141.1365  133.9212  157.2422 LP  0  0  0  0  0  0  0  0  0  0  0  0  # atno 17394 bound_to 11000
  139.9638  135.0147  156.9331 LP  0  0  0  0  0  0  0  0  0  0  0  0  # atno 17395 bound_to 11000

$$$$
