AV-unprocessed.smi:3220|AV-procd|sdf|12297|dock6
  -GOLD-   2272018143D 1   1.00000     0.00000
 Structure written by MMmdl.
 33 34  0  0  0  0  0  0  0  0  1 V2000
  151.8701  140.0594  158.7515 C   0  0  0  0  0  0  0  0  0  0  0  0
  151.7785  140.7300  157.3730 C   0  0  2  0  0  0  0  0  0  0  0  0
  150.8750  141.9784  157.4064 C   0  0  0  0  0  0  0  0  0  0  0  0
  151.4328  143.0467  158.2178 N   0  0  0  0  0  0  0  0  0  0  0  0
  151.8621  142.9928  159.5273 C   0  0  0  0  0  0  0  0  0  0  0  0
  152.2944  144.2429  159.8652 C   0  0  0  0  0  0  0  0  0  0  0  0
  152.0928  145.0019  158.6787 C   0  0  0  0  0  0  0  0  0  0  0  0
  151.5805  144.2825  157.6934 N   0  0  0  0  0  0  0  0  0  0  0  0
  151.2694  139.7756  156.3908 N   0  0  0  0  0  0  0  0  0  0  0  0
  151.9332  139.3269  155.3134 C   0  0  0  0  0  0  0  0  0  0  0  0
  153.1014  139.6301  155.0702 O   0  0  0  0  0  0  0  0  0  0  0  0
  151.1693  138.3769  154.3727 C   0  0  2  0  0  0  0  0  0  0  0  0
  149.6573  138.2916  154.6713 C   0  0  0  0  0  0  0  0  0  0  0  0
  149.4210  136.8319  155.0235 C   0  0  0  0  0  0  0  0  0  0  0  0
  150.8043  136.3523  155.4358 C   0  0  0  0  0  0  0  0  0  0  0  0
  151.6493  137.0391  154.5257 O   0  0  0  0  0  0  0  0  0  0  0  0
  152.2614  140.7508  159.4980 H   0  0  0  0  0  0  0  0  0  0  0  0
  152.5345  139.1950  158.7253 H   0  0  0  0  0  0  0  0  0  0  0  0
  150.8923  139.7185  159.0934 H   0  0  0  0  0  0  0  0  0  0  0  0
  152.7826  141.0489  157.0869 H   0  0  0  0  0  0  0  0  0  0  0  0
  150.7093  142.3578  156.3968 H   0  0  0  0  0  0  0  0  0  0  0  0
  149.8935  141.7237  157.8088 H   0  0  0  0  0  0  0  0  0  0  0  0
  151.8181  142.0812  160.1050 H   0  0  0  0  0  0  0  0  0  0  0  0
  152.6933  144.5662  160.8152 H   0  0  0  0  0  0  0  0  0  0  0  0
  152.3019  146.0470  158.5048 H   0  0  0  0  0  0  0  0  0  0  0  0
  150.3183  139.4595  156.5149 H   0  0  0  0  0  0  0  0  0  0  0  0
  151.3454  138.6968  153.3453 H   0  0  0  0  0  0  0  0  0  0  0  0
  149.3635  138.9239  155.5105 H   0  0  0  0  0  0  0  0  0  0  0  0
  149.0565  138.5936  153.8131 H   0  0  0  0  0  0  0  0  0  0  0  0
  148.6733  136.6955  155.8054 H   0  0  0  0  0  0  0  0  0  0  0  0
  149.0910  136.2862  154.1387 H   0  0  0  0  0  0  0  0  0  0  0  0
  151.0340  136.6529  156.4590 H   0  0  0  0  0  0  0  0  0  0  0  0
  150.9195  135.2711  155.3573 H   0  0  0  0  0  0  0  0  0  0  0  0
  1  2  1  0  0  0  0
  1 17  1  0  0  0  0
  1 18  1  0  0  0  0
  1 19  1  0  0  0  0
  2  3  1  0  0  0  0
  2  9  1  0  0  0  0
  2 20  1  0  0  0  0
  3  4  1  0  0  0  0
  3 21  1  0  0  0  0
  3 22  1  0  0  0  0
  4  8  1  0  0  0  0
  4  5  1  0  0  0  0
  5  6  2  0  0  0  0
  5 23  1  0  0  0  0
  6  7  1  0  0  0  0
  6 24  1  0  0  0  0
  7  8  2  0  0  0  0
  7 25  1  0  0  0  0
  9 10  1  0  0  0  0
  9 26  1  0  0  0  0
 10 11  2  0  0  0  0
 10 12  1  0  0  0  0
 12 16  1  0  0  0  0
 12 13  1  0  0  0  0
 12 27  1  0  0  0  0
 13 14  1  0  0  0  0
 13 28  1  0  0  0  0
 13 29  1  0  0  0  0
 14 15  1  0  0  0  0
 14 30  1  0  0  0  0
 14 31  1  0  0  0  0
 15 16  1  0  0  0  0
 15 32  1  0  0  0  0
 15 33  1  0  0  0  0
M  END
> <s_m_source_file>
AV-unprocessed.smi

> <i_m_source_file_index>
3220

> <i_lp_mmshare_version>
43012

> <i_f3d_flags>
0

> <s_epik_input>
bjFbY0hdW2NIXVtjSF1uMVtDSDJdW0NAQEhdKFtDSDNdKVtOSF1DKD1PKVtDQEBIXTJbQ0gyXVtDSDJdW0NIMl1PMg==

> <s_epik_cmdline>
J2VwaWtfcHl0aG9uJywgJy1waCcsICc3LjAnLCAnLXRuJywgJzgnLCAnLW1hJywgJzIwMCcsICctbWV0YWxfYmluZGluZycsICctaW1hZScsICc8aW5maWxlLm1hZT4nLCAnLW9tYWUnLCAnPG91dGZpbGUubWFlPic=

> <r_lp_tautomer_probability>
1

> <r_epik_Ionization_Penalty>
0.00033363

> <r_epik_Ionization_Penalty_Charging>
0

> <r_epik_Ionization_Penalty_Neutral>
0.00033363

> <r_epik_State_Penalty>
-0

> <r_epik_Charging_Adjusted_Penalty>
0

> <i_epik_Tot_Q>
0

> <i_epik_Tot_abs_Q>
0

> <r_epik_Metal_State_Penalty>
-0

> <b_epik_Metal_Only>
0

> <s_lp_Force_Field>
OPLS_2005

> <r_lp_Energy>
17.2779

> <b_lp_Chiralities_Consistent>
1

> <s_lp_Variant>
AV-unprocessed.smi:3220-1

> <Gold.Version>
5.8.1

> <Gold.Id.Protein>
6NUR|6NUR_protein|mol2

> <Gold.PLP.Fitness>
40.9208

> <Gold.PLP.PLP>
-35.5606

> <Gold.PLP.part.hbond>
-2.9329

> <Gold.PLP.part.metal>
0.0000

> <Gold.PLP.part.buried>
-6.0901

> <Gold.PLP.part.nonpolar>
-27.4848

> <Gold.PLP.part.repulsive>
0.3996

> <Gold.PLP.ligand.clash>
0.0000

> <Gold.PLP.ligand.torsion>
0.3305

> <Gold.PLP.Chemscore.Hbond>
2.0000

> <Gold.PLP.Chemscore.CHOScore>
0.0000

> <Gold.PLP.Chemscore.Metal>
0.0000

> <Gold.Chemscore.Hbonds>
donor molecule, donor type, donor heavy atom, donor atom, acceptor molecule, acceptor atom, score
      P1  H  7997  8008       L1    11  1.00
      P1  H 10752 10763       L1    16  1.00

> <Gold.PLP.Chemscore.Internal.Correction>
0.0212

> <Gold.Rescore>
     Score         DG    S(hbond)    S(metal)    S(lipo)     H(rot)  DE(clash)    DE(int)     intcor
     16.37     -17.10       1.95        0.00      79.01       1.62       0.00       0.72       ----

> <Gold.Chemscore.Fitness>
16.3729

> <Gold.Chemscore.DG>
-17.0954

> <Gold.Chemscore.ZeroCoef>
-5.4800

> <Gold.Chemscore.Hbond>
1.9530

> <Gold.Chemscore.Metal>
0.0000

> <Gold.Chemscore.Lipo>
79.0113

> <Gold.Chemscore.Internal_Hbond>
0.0000

> <Gold.Chemscore.DEClash>
0.0045

> <Gold.Chemscore.DEInternal>
0.7179

> <Gold.Chemscore.Rot>
1.6219

> <Gold.Chemscore.Internal.Correction>
   9.000000E+99

> <Gold.Chemscore.Hbonds>
donor molecule, donor type, donor heavy atom, donor atom, acceptor molecule, acceptor atom, score
      P1  H  7997  8008       L1    11  0.99
      P1  H 10752 10763       L1    16  0.25

> <Gold.Chemscore.Hbond.Weighted>
-6.5230

> <Gold.Chemscore.Metal.Weighted>
-0.0000

> <Gold.Chemscore.Lipo.Weighted>
-9.2443

> <Gold.Chemscore.Internal_Hbond.Weighted>
0.0000

> <Gold.Chemscore.DEClash.Weighted>
0.0045

> <Gold.Chemscore.DEInternal.Weighted>
0.7179

> <Gold.Chemscore.Rot.Weighted>
4.1520

> <Gold.Chemscore.Internal.Correction.Weighted>
   9.000000E+99

> <Gold.Protein.RotatedTorsions>
[ 6907 6896 6895 6894 ] final   19.58 input  -60.11 | X-H torsion
[ 7974 7965 7964 7962 ] final   56.42 input  175.53 | X-H torsion
[ 8008 7997 7996 7995 ] final   -1.58 input   59.86 | X-H torsion
[ 10167 10162 10161 10158 ] final  139.23 input  -65.29 | X-H torsion
[ 10718 10713 10712 10709 ] final  154.19 input   66.30 | X-H torsion
[ 10763 10752 10751 10750 ] final   37.04 input  -60.55 | X-H torsion
[ 11005 11000 10999 10996 ] final  -97.40 input  -57.11 | X-H torsion

> <Gold.Protein.ActiveResidues>
 VAL166  LYS551  ARG553  GLY616  TRP617  ASP618  TYR619  PRO620  LYS621  CYS622 
 ASP623  PHE694  ASN695  SER759  ASP760  ASP761  ALA762  ILE779  LEU786  VAL792 
 PHE793  MET794  SER795  GLU796  ALA797  LYS798  CYS799  TRP800  GLU811  SER814 

> <Gold.Protein.RotatedAtoms>
  151.8831  135.0446  160.0490 H   0  0  0  0  0  0  0  0  0  0  0  0  # atno 6907 bound_to 6896
  152.2497  133.5200  159.5326 H   0  0  0  0  0  0  0  0  0  0  0  0  # atno 6908 bound_to 6896
  150.7080  134.0893  159.3968 H   0  0  0  0  0  0  0  0  0  0  0  0  # atno 6909 bound_to 6896
  145.9400  139.3880  143.0369 H   0  0  0  0  0  0  0  0  0  0  0  0  # atno 7974 bound_to 7965
  154.6453  140.2556  155.7276 H   0  0  0  0  0  0  0  0  0  0  0  0  # atno 8008 bound_to 7997
  156.2549  140.2879  156.0784 H   0  0  0  0  0  0  0  0  0  0  0  0  # atno 8009 bound_to 7997
  155.1534  140.0382  157.2816 H   0  0  0  0  0  0  0  0  0  0  0  0  # atno 8010 bound_to 7997
  139.5085  144.6307  151.5824 H   0  0  0  0  0  0  0  0  0  0  0  0  # atno 10167 bound_to 10162
  157.2348  131.0747  151.1830 H   0  0  0  0  0  0  0  0  0  0  0  0  # atno 10718 bound_to 10713
  153.0053  135.6289  154.2081 H   0  0  0  0  0  0  0  0  0  0  0  0  # atno 10763 bound_to 10752
  154.1825  135.2812  155.3049 H   0  0  0  0  0  0  0  0  0  0  0  0  # atno 10764 bound_to 10752
  154.5824  135.5643  153.7257 H   0  0  0  0  0  0  0  0  0  0  0  0  # atno 10765 bound_to 10752
  141.1380  133.8168  157.0701 H   0  0  0  0  0  0  0  0  0  0  0  0  # atno 11005 bound_to 11000
  145.8312  140.9629  143.0848 LP  0  0  0  0  0  0  0  0  0  0  0  0  # atno 17320 bound_to 7965
  144.6777  140.0165  143.7484 LP  0  0  0  0  0  0  0  0  0  0  0  0  # atno 17321 bound_to 7965
  140.6039  143.9560  150.6405 LP  0  0  0  0  0  0  0  0  0  0  0  0  # atno 17342 bound_to 10162
  140.2780  143.3409  152.1177 LP  0  0  0  0  0  0  0  0  0  0  0  0  # atno 17343 bound_to 10162
  157.3440  130.7048  149.6399 LP  0  0  0  0  0  0  0  0  0  0  0  0  # atno 17370 bound_to 10713
  155.9673  130.4271  150.4731 LP  0  0  0  0  0  0  0  0  0  0  0  0  # atno 17371 bound_to 10713
  140.0516  134.9802  157.1147 LP  0  0  0  0  0  0  0  0  0  0  0  0  # atno 17394 bound_to 11000
  140.3981  134.2112  155.7164 LP  0  0  0  0  0  0  0  0  0  0  0  0  # atno 17395 bound_to 11000

$$$$
