AV-unprocessed.smi:704|AV-procd|sdf|3442|dock8
  -GOLD-   22720 0433D 1   1.00000     0.00000
 Structure written by MMmdl.
 38 39  0  0  0  0  0  0  0  0  1 V2000
  151.9423  138.5192  154.5388 C   0  0  0  0  0  0  0  0  0  0  0  0
  150.5982  138.3718  154.0938 O   0  0  0  0  0  0  0  0  0  0  0  0
  149.7326  139.4386  154.2440 C   0  0  0  0  0  0  0  0  0  0  0  0
  150.2279  140.6096  154.7176 N   0  0  0  0  0  0  0  0  0  0  0  0
  149.3839  141.6509  154.8685 C   0  0  0  0  0  0  0  0  0  0  0  0
  148.0121  141.5806  154.5647 C   0  0  0  0  0  0  0  0  0  0  0  0
  147.4958  140.3675  154.0725 C   0  0  0  0  0  0  0  0  0  0  0  0
  148.3724  139.2699  153.8945 C   0  0  0  0  0  0  0  0  0  0  0  0
  147.9522  137.9964  153.4216 N   0  0  0  0  0  0  0  0  0  0  0  0
  146.7286  137.4447  153.4828 C   0  0  0  0  0  0  0  0  0  0  0  0
  145.7349  137.9695  153.9849 O   0  0  0  0  0  0  0  0  0  0  0  0
  146.7121  136.2391  152.8970 N   0  0  0  0  0  0  0  0  0  0  0  0
  145.5345  135.3843  152.7652 C   0  0  2  0  0  0  0  0  0  0  0  0
  145.8600  134.1112  151.9696 C   0  0  0  0  0  0  0  0  0  0  0  0
  144.5905  133.7990  151.1834 C   0  0  0  0  0  0  0  0  0  0  0  0
  144.0386  135.1735  150.8142 C   0  0  0  0  0  0  0  0  0  0  0  0
  144.3824  136.0946  152.0011 C   0  0  1  0  0  0  0  0  0  0  0  0
  143.1665  136.3582  152.9051 C   0  0  0  0  0  0  0  0  0  0  0  0
  142.6010  135.2980  153.4878 N   0  0  0  0  0  0  0  0  0  0  0  0
  142.7449  137.5006  153.0773 O   0  0  0  0  0  0  0  0  0  0  0  0
  152.4889  137.5960  154.3460 H   0  0  0  0  0  0  0  0  0  0  0  0
  151.9892  138.7130  155.6114 H   0  0  0  0  0  0  0  0  0  0  0  0
  152.4527  139.3230  154.0065 H   0  0  0  0  0  0  0  0  0  0  0  0
  149.8138  142.5657  155.2487 H   0  0  0  0  0  0  0  0  0  0  0  0
  147.3692  142.4362  154.7106 H   0  0  0  0  0  0  0  0  0  0  0  0
  146.4409  140.2998  153.8566 H   0  0  0  0  0  0  0  0  0  0  0  0
  148.6476  137.4789  152.9038 H   0  0  0  0  0  0  0  0  0  0  0  0
  147.5741  135.8881  152.5059 H   0  0  0  0  0  0  0  0  0  0  0  0
  145.2099  135.0780  153.7624 H   0  0  0  0  0  0  0  0  0  0  0  0
  146.6734  134.2984  151.2665 H   0  0  0  0  0  0  0  0  0  0  0  0
  146.1654  133.2846  152.6119 H   0  0  0  0  0  0  0  0  0  0  0  0
  144.7789  133.1730  150.3108 H   0  0  0  0  0  0  0  0  0  0  0  0
  143.8798  133.2753  151.8241 H   0  0  0  0  0  0  0  0  0  0  0  0
  144.5412  135.5380  149.9173 H   0  0  0  0  0  0  0  0  0  0  0  0
  142.9722  135.1332  150.5865 H   0  0  0  0  0  0  0  0  0  0  0  0
  144.7204  137.0508  151.5963 H   0  0  0  0  0  0  0  0  0  0  0  0
  141.8090  135.4225  154.1017 H   0  0  0  0  0  0  0  0  0  0  0  0
  142.9774  134.3759  153.3233 H   0  0  0  0  0  0  0  0  0  0  0  0
  1  2  1  0  0  0  0
  1 21  1  0  0  0  0
  1 22  1  0  0  0  0
  1 23  1  0  0  0  0
  2  3  1  0  0  0  0
  3  8  1  0  0  0  0
  3  4  2  0  0  0  0
  4  5  1  0  0  0  0
  5  6  2  0  0  0  0
  5 24  1  0  0  0  0
  6  7  1  0  0  0  0
  6 25  1  0  0  0  0
  7  8  2  0  0  0  0
  7 26  1  0  0  0  0
  8  9  1  0  0  0  0
  9 10  1  0  0  0  0
  9 27  1  0  0  0  0
 10 11  2  0  0  0  0
 10 12  1  0  0  0  0
 12 13  1  0  0  0  0
 12 28  1  0  0  0  0
 13 17  1  0  0  0  0
 13 14  1  0  0  0  0
 13 29  1  0  0  0  0
 14 15  1  0  0  0  0
 14 30  1  0  0  0  0
 14 31  1  0  0  0  0
 15 16  1  0  0  0  0
 15 32  1  0  0  0  0
 15 33  1  0  0  0  0
 16 17  1  0  0  0  0
 16 34  1  0  0  0  0
 16 35  1  0  0  0  0
 17 18  1  0  0  0  0
 17 36  1  0  0  0  0
 18 19  1  0  0  0  0
 18 20  2  0  0  0  0
 19 37  1  0  0  0  0
 19 38  1  0  0  0  0
M  END
> <s_m_source_file>
AV-unprocessed.smi

> <i_m_source_file_index>
704

> <i_lp_mmshare_version>
43012

> <i_f3d_flags>
0

> <s_epik_input>
W0NIM11PYzFuW2NIXVtjSF1bY0hdYzFbTkhdQyg9TylbTkhdW0NAQEhdMltDSDJdW0NIMl1bQ0gyXVtDQEhdMkMoPU8pW05IMl0=

> <s_epik_cmdline>
J2VwaWtfcHl0aG9uJywgJy1waCcsICc3LjAnLCAnLXRuJywgJzgnLCAnLW1hJywgJzIwMCcsICctbWV0YWxfYmluZGluZycsICctaW1hZScsICc8aW5maWxlLm1hZT4nLCAnLW9tYWUnLCAnPG91dGZpbGUubWFlPic=

> <r_lp_tautomer_probability>
1

> <r_epik_Ionization_Penalty>
9.09123e-05

> <r_epik_Ionization_Penalty_Charging>
0

> <r_epik_Ionization_Penalty_Neutral>
9.09123e-05

> <r_epik_State_Penalty>
-0

> <r_epik_Charging_Adjusted_Penalty>
0

> <i_epik_Tot_Q>
0

> <i_epik_Tot_abs_Q>
0

> <r_epik_Metal_State_Penalty>
-0

> <b_epik_Metal_Only>
0

> <s_lp_Force_Field>
OPLS_2005

> <r_lp_Energy>
16.6187

> <b_lp_Chiralities_Consistent>
1

> <s_lp_Variant>
AV-unprocessed.smi:704-1

> <Gold.Version>
5.8.1

> <Gold.Id.Protein>
6NUR|6NUR_protein|mol2

> <Gold.PLP.Fitness>
40.9146

> <Gold.PLP.PLP>
-29.8959

> <Gold.PLP.part.hbond>
-2.7561

> <Gold.PLP.part.metal>
0.0000

> <Gold.PLP.part.buried>
-4.0433

> <Gold.PLP.part.nonpolar>
-24.9502

> <Gold.PLP.part.repulsive>
0.9783

> <Gold.PLP.ligand.clash>
0.0000

> <Gold.PLP.ligand.torsion>
0.1686

> <Gold.PLP.Chemscore.Hbond>
2.7840

> <Gold.PLP.Chemscore.CHOScore>
1.0000

> <Gold.PLP.Chemscore.Metal>
0.0000

> <Gold.Chemscore.Hbonds>
donor molecule, donor type, donor heavy atom, donor atom, acceptor molecule, acceptor atom, score
      L1  H     9    27       P1  7948  0.96
      L1  H    12    28       P1  7948  0.96
      P1  H  7989  7998       L1     4  0.90
      L1  C     5    24       P1  8028  1.00

> <Gold.PLP.Chemscore.Internal.Correction>
0.0039

> <Gold.Rescore>
     Score         DG    S(hbond)    S(metal)    S(lipo)     H(rot)  DE(clash)    DE(int)     intcor
     12.21     -14.76       2.17        0.00      58.00       1.86       1.25       1.29       ----

> <Gold.Chemscore.Fitness>
12.2136

> <Gold.Chemscore.DG>
-14.7551

> <Gold.Chemscore.ZeroCoef>
-5.4800

> <Gold.Chemscore.Hbond>
2.1747

> <Gold.Chemscore.Metal>
0.0000

> <Gold.Chemscore.Lipo>
57.9955

> <Gold.Chemscore.Internal_Hbond>
0.0000

> <Gold.Chemscore.DEClash>
1.2511

> <Gold.Chemscore.DEInternal>
1.2904

> <Gold.Chemscore.Rot>
1.8648

> <Gold.Chemscore.Internal.Correction>
   9.000000E+99

> <Gold.Chemscore.Hbonds>
donor molecule, donor type, donor heavy atom, donor atom, acceptor molecule, acceptor atom, score
      L1  H     9    27       P1  7948  0.92
      L1  H    12    28       P1  7948  0.88
      P1  H  7989  7998       L1     4  0.20

> <Gold.Chemscore.Hbond.Weighted>
-7.2636

> <Gold.Chemscore.Metal.Weighted>
-0.0000

> <Gold.Chemscore.Lipo.Weighted>
-6.7855

> <Gold.Chemscore.Internal_Hbond.Weighted>
0.0000

> <Gold.Chemscore.DEClash.Weighted>
1.2511

> <Gold.Chemscore.DEInternal.Weighted>
1.2904

> <Gold.Chemscore.Rot.Weighted>
4.7739

> <Gold.Chemscore.Internal.Correction.Weighted>
   9.000000E+99

> <Gold.Protein.RotatedTorsions>
[ 6907 6896 6895 6894 ] final  157.95 input  -60.11 | X-H torsion
[ 7974 7965 7964 7962 ] final  -97.20 input  175.53 | X-H torsion
[ 8008 7997 7996 7995 ] final -110.20 input   59.86 | X-H torsion
[ 10167 10162 10161 10158 ] final -119.18 input  -65.29 | X-H torsion
[ 10718 10713 10712 10709 ] final  -83.09 input   66.30 | X-H torsion
[ 10763 10752 10751 10750 ] final  -25.98 input  -60.55 | X-H torsion
[ 11005 11000 10999 10996 ] final   49.85 input  -57.11 | X-H torsion

> <Gold.Protein.ActiveResidues>
 VAL166  LYS551  ARG553  GLY616  TRP617  ASP618  TYR619  PRO620  LYS621  CYS622 
 ASP623  PHE694  ASN695  SER759  ASP760  ASP761  ALA762  ILE779  LEU786  VAL792 
 PHE793  MET794  SER795  GLU796  ALA797  LYS798  CYS799  TRP800  GLU811  SER814 

> <Gold.Protein.RotatedAtoms>
  152.0076  133.3849  159.4206 H   0  0  0  0  0  0  0  0  0  0  0  0  # atno 6907 bound_to 6896
  150.6903  134.3766  159.5024 H   0  0  0  0  0  0  0  0  0  0  0  0  # atno 6908 bound_to 6896
  152.1522  134.8979  160.0598 H   0  0  0  0  0  0  0  0  0  0  0  0  # atno 6909 bound_to 6896
  145.3368  140.9452  143.2630 H   0  0  0  0  0  0  0  0  0  0  0  0  # atno 7974 bound_to 7965
  154.9709  140.0397  157.2234 H   0  0  0  0  0  0  0  0  0  0  0  0  # atno 8008 bound_to 7997
  154.7802  140.2817  155.6047 H   0  0  0  0  0  0  0  0  0  0  0  0  # atno 8009 bound_to 7997
  156.2935  140.2593  156.2626 H   0  0  0  0  0  0  0  0  0  0  0  0  # atno 8010 bound_to 7997
  140.0494  143.5074  152.2089 H   0  0  0  0  0  0  0  0  0  0  0  0  # atno 10167 bound_to 10162
  156.0023  130.4654  150.4204 H   0  0  0  0  0  0  0  0  0  0  0  0  # atno 10718 bound_to 10713
  153.7086  135.6952  153.5043 H   0  0  0  0  0  0  0  0  0  0  0  0  # atno 10763 bound_to 10752
  153.2289  135.4344  155.0572 H   0  0  0  0  0  0  0  0  0  0  0  0  # atno 10764 bound_to 10752
  154.8322  135.3479  154.6624 H   0  0  0  0  0  0  0  0  0  0  0  0  # atno 10765 bound_to 10752
  140.1067  134.5008  155.8713 H   0  0  0  0  0  0  0  0  0  0  0  0  # atno 11005 bound_to 11000
  144.8821  139.4890  143.6718 LP  0  0  0  0  0  0  0  0  0  0  0  0  # atno 17320 bound_to 7965
  146.3023  139.7467  142.9082 LP  0  0  0  0  0  0  0  0  0  0  0  0  # atno 17321 bound_to 7965
  139.5962  144.7568  151.3280 LP  0  0  0  0  0  0  0  0  0  0  0  0  # atno 17342 bound_to 10162
  140.7223  143.7100  150.7777 LP  0  0  0  0  0  0  0  0  0  0  0  0  # atno 17343 bound_to 10162
  157.2261  131.0493  151.2519 LP  0  0  0  0  0  0  0  0  0  0  0  0  # atno 17370 bound_to 10713
  157.3755  130.7204  149.6594 LP  0  0  0  0  0  0  0  0  0  0  0  0  # atno 17371 bound_to 10713
  141.2120  133.6714  156.6626 LP  0  0  0  0  0  0  0  0  0  0  0  0  # atno 17394 bound_to 11000
  140.3146  134.8058  157.4203 LP  0  0  0  0  0  0  0  0  0  0  0  0  # atno 17395 bound_to 11000

$$$$
