AV-unprocessed.smi:1216|AV-procd|sdf|5099|dock7
  -GOLD-   22720 4153D 1   1.00000     0.00000
 Structure written by MMmdl.
 43 44  0  0  0  0  0  0  0  0  2 V2000
  148.5156  132.5855  153.1009 C   0  0  0  0  0  0  0  0  0  0  0  0
  147.3870  133.1857  152.2516 C   0  0  1  0  0  0  0  0  0  0  0  0
  146.1249  132.2969  152.2939 C   0  0  0  0  0  0  0  0  0  0  0  0
  145.2518  132.4787  151.1293 N   0  0  0  0  0  0  0  0  0  0  0  0
  145.5356  132.1828  149.8205 C   0  0  0  0  0  0  0  0  0  0  0  0
  144.4207  132.5146  149.0946 C   0  0  0  0  0  0  0  0  0  0  0  0
  143.5073  133.0045  149.9891 N   0  3  0  0  0  0  0  0  0  0  0  0
  144.0159  132.9859  151.2252 C   0  0  0  0  0  0  0  0  0  0  0  0
  147.0996  134.5345  152.7373 N   0  0  0  0  0  0  0  0  0  0  0  0
  146.2610  134.8496  153.7369 C   0  0  0  0  0  0  0  0  0  0  0  0
  145.6537  134.0077  154.4005 O   0  0  0  0  0  0  0  0  0  0  0  0
  146.1162  136.3466  154.0416 C   0  0  0  0  0  0  0  0  0  0  0  0
  144.7455  136.8480  153.8600 N   0  0  0  0  0  0  0  0  0  0  0  0
  144.1135  136.5903  152.5562 C   0  0  0  0  0  0  0  0  0  0  0  0
  142.9625  135.5594  152.6150 C   0  0  0  0  0  0  0  0  0  0  0  0
  142.1650  135.5042  153.9331 C   0  0  0  0  0  0  0  0  0  0  0  0
  141.6279  136.8635  154.4285 C   0  0  0  0  0  0  0  0  0  0  0  0
  142.6653  138.0009  154.5870 C   0  0  0  0  0  0  0  0  0  0  0  0
  144.1022  137.5199  154.8482 C   0  0  0  0  0  0  0  0  0  0  0  0
  144.6180  137.7604  155.9402 O   0  0  0  0  0  0  0  0  0  0  0  0
  148.7849  131.5892  152.7486 H   0  0  0  0  0  0  0  0  0  0  0  0
  148.2239  132.4997  154.1482 H   0  0  0  0  0  0  0  0  0  0  0  0
  149.4140  133.2022  153.0543 H   0  0  0  0  0  0  0  0  0  0  0  0
  147.7535  133.2370  151.2247 H   0  0  0  0  0  0  0  0  0  0  0  0
  146.4036  131.2426  152.3252 H   0  0  0  0  0  0  0  0  0  0  0  0
  145.5403  132.4943  153.1938 H   0  0  0  0  0  0  0  0  0  0  0  0
  146.4823  131.7633  149.5124 H   0  0  0  0  0  0  0  0  0  0  0  0
  144.2144  132.4411  148.0368 H   0  0  0  0  0  0  0  0  0  0  0  0
  143.5221  133.3084  152.1245 H   0  0  0  0  0  0  0  0  0  0  0  0
  147.5577  135.2945  152.2548 H   0  0  0  0  0  0  0  0  0  0  0  0
  146.4505  136.5222  155.0647 H   0  0  0  0  0  0  0  0  0  0  0  0
  146.8055  136.9136  153.4130 H   0  0  0  0  0  0  0  0  0  0  0  0
  143.7472  137.5301  152.1427 H   0  0  0  0  0  0  0  0  0  0  0  0
  144.8543  136.2563  151.8285 H   0  0  0  0  0  0  0  0  0  0  0  0
  142.2817  135.7451  151.7837 H   0  0  0  0  0  0  0  0  0  0  0  0
  143.3771  134.5666  152.4377 H   0  0  0  0  0  0  0  0  0  0  0  0
  141.3263  134.8189  153.8076 H   0  0  0  0  0  0  0  0  0  0  0  0
  142.7826  135.0523  154.7105 H   0  0  0  0  0  0  0  0  0  0  0  0
  140.8443  137.2023  153.7499 H   0  0  0  0  0  0  0  0  0  0  0  0
  141.1335  136.7052  155.3877 H   0  0  0  0  0  0  0  0  0  0  0  0
  142.6617  138.6374  153.7025 H   0  0  0  0  0  0  0  0  0  0  0  0
  142.3545  138.6569  155.4012 H   0  0  0  0  0  0  0  0  0  0  0  0
  142.5792  133.3323  149.7525 H   0  0  0  0  0  0  0  0  0  0  0  0
  1  2  1  0  0  0  0
  1 21  1  0  0  0  0
  1 22  1  0  0  0  0
  1 23  1  0  0  0  0
  2  3  1  0  0  0  0
  2  9  1  0  0  0  0
  2 24  1  0  0  0  0
  3  4  1  0  0  0  0
  3 25  1  0  0  0  0
  3 26  1  0  0  0  0
  4  8  1  0  0  0  0
  4  5  1  0  0  0  0
  5  6  2  0  0  0  0
  5 27  1  0  0  0  0
  6  7  1  0  0  0  0
  6 28  1  0  0  0  0
  7  8  2  0  0  0  0
  7 43  1  0  0  0  0
  8 29  1  0  0  0  0
  9 10  1  0  0  0  0
  9 30  1  0  0  0  0
 10 11  2  0  0  0  0
 10 12  1  0  0  0  0
 12 13  1  0  0  0  0
 12 31  1  0  0  0  0
 12 32  1  0  0  0  0
 13 19  1  0  0  0  0
 13 14  1  0  0  0  0
 14 15  1  0  0  0  0
 14 33  1  0  0  0  0
 14 34  1  0  0  0  0
 15 16  1  0  0  0  0
 15 35  1  0  0  0  0
 15 36  1  0  0  0  0
 16 17  1  0  0  0  0
 16 37  1  0  0  0  0
 16 38  1  0  0  0  0
 17 18  1  0  0  0  0
 17 39  1  0  0  0  0
 17 40  1  0  0  0  0
 18 19  1  0  0  0  0
 18 41  1  0  0  0  0
 18 42  1  0  0  0  0
 19 20  2  0  0  0  0
M  CHG  1   7   1
M  END
> <s_m_source_file>
AV-unprocessed.smi

> <i_m_source_file_index>
1216

> <i_lp_mmshare_version>
43012

> <i_f3d_flags>
0

> <s_epik_input>
W2NIXTFuW2NIXVtjSF1uMVtDSDJdW0NAQEhdKFtDSDNdKVtOSF1DKD1PKVtDSDJdTjJbQ0gyXVtDSDJdW0NIMl1bQ0gyXVtDSDJdQzI9Tw==

> <s_epik_cmdline>
J2VwaWtfcHl0aG9uJywgJy1waCcsICc3LjAnLCAnLXRuJywgJzgnLCAnLW1hJywgJzIwMCcsICctbWV0YWxfYmluZGluZycsICctaW1hZScsICc8aW5maWxlLm1hZT4nLCAnLW9tYWUnLCAnPG91dGZpbGUubWFlPic=

> <r_lp_tautomer_probability>
1

> <r_epik_Ionization_Penalty>
0.254232

> <r_epik_Ionization_Penalty_Charging>
0

> <r_epik_Ionization_Penalty_Neutral>
0.254232

> <r_epik_State_Penalty>
0.245698

> <r_epik_Charging_Adjusted_Penalty>
0.245698

> <i_epik_Tot_Q>
1

> <i_epik_Tot_abs_Q>
1

> <r_epik_Metal_State_Penalty>
0.535799

> <b_epik_Metal_Only>
0

> <s_lp_Force_Field>
OPLS_2005

> <r_lp_Energy>
21.2202

> <b_lp_Chiralities_Consistent>
1

> <s_lp_Variant>
AV-unprocessed.smi:1216-2

> <Gold.Version>
5.8.1

> <Gold.Id.Protein>
6NUR|6NUR_protein|mol2

> <Gold.PLP.Fitness>
42.5979

> <Gold.PLP.PLP>
-32.7529

> <Gold.PLP.part.hbond>
-2.0000

> <Gold.PLP.part.metal>
0.0000

> <Gold.PLP.part.buried>
-6.4989

> <Gold.PLP.part.nonpolar>
-25.0347

> <Gold.PLP.part.repulsive>
0.1814

> <Gold.PLP.ligand.clash>
0.0000

> <Gold.PLP.ligand.torsion>
0.6599

> <Gold.PLP.Chemscore.Hbond>
3.0000

> <Gold.PLP.Chemscore.CHOScore>
0.7135

> <Gold.PLP.Chemscore.Metal>
0.0000

> <Gold.Chemscore.Hbonds>
donor molecule, donor type, donor heavy atom, donor atom, acceptor molecule, acceptor atom, score
      L1  H     7    43       P1 10186  2.00
      L1  H     9    30       P1  7948  1.00
      L1  C     5    27       P1 10747  0.47

> <Gold.PLP.Chemscore.Internal.Correction>
0.0243

> <Gold.Rescore>
     Score         DG    S(hbond)    S(metal)    S(lipo)     H(rot)  DE(clash)    DE(int)     intcor
     11.71     -13.97       1.96        0.00      64.98       2.22       0.03       2.23       ----

> <Gold.Chemscore.Fitness>
11.7131

> <Gold.Chemscore.DG>
-13.9661

> <Gold.Chemscore.ZeroCoef>
-5.4800

> <Gold.Chemscore.Hbond>
1.9631

> <Gold.Chemscore.Metal>
0.0000

> <Gold.Chemscore.Lipo>
64.9804

> <Gold.Chemscore.Internal_Hbond>
0.0000

> <Gold.Chemscore.DEClash>
0.0263

> <Gold.Chemscore.DEInternal>
2.2266

> <Gold.Chemscore.Rot>
2.2161

> <Gold.Chemscore.Internal.Correction>
   9.000000E+99

> <Gold.Chemscore.Hbonds>
donor molecule, donor type, donor heavy atom, donor atom, acceptor molecule, acceptor atom, score
      L1  H     7    43       P1 10186  0.99
      L1  H     9    30       P1  7948  0.96

> <Gold.Chemscore.Hbond.Weighted>
-6.5566

> <Gold.Chemscore.Metal.Weighted>
-0.0000

> <Gold.Chemscore.Lipo.Weighted>
-7.6027

> <Gold.Chemscore.Internal_Hbond.Weighted>
0.0000

> <Gold.Chemscore.DEClash.Weighted>
0.0263

> <Gold.Chemscore.DEInternal.Weighted>
2.2266

> <Gold.Chemscore.Rot.Weighted>
5.6733

> <Gold.Chemscore.Internal.Correction.Weighted>
   9.000000E+99

> <Gold.Protein.RotatedTorsions>
[ 6907 6896 6895 6894 ] final   26.97 input  -60.11 | X-H torsion
[ 7974 7965 7964 7962 ] final  140.29 input  175.53 | X-H torsion
[ 8008 7997 7996 7995 ] final  113.35 input   59.86 | X-H torsion
[ 10167 10162 10161 10158 ] final   23.12 input  -65.29 | X-H torsion
[ 10718 10713 10712 10709 ] final  144.42 input   66.30 | X-H torsion
[ 10763 10752 10751 10750 ] final  -63.32 input  -60.55 | X-H torsion
[ 11005 11000 10999 10996 ] final  -52.68 input  -57.11 | X-H torsion

> <Gold.Protein.ActiveResidues>
 VAL166  LYS551  ARG553  GLY616  TRP617  ASP618  TYR619  PRO620  LYS621  CYS622 
 ASP623  PHE694  ASN695  SER759  ASP760  ASP761  ALA762  ILE779  LEU786  VAL792 
 PHE793  MET794  SER795  GLU796  ALA797  LYS798  CYS799  TRP800  GLU811  SER814 

> <Gold.Protein.RotatedAtoms>
  151.9953  134.9957  160.0562 H   0  0  0  0  0  0  0  0  0  0  0  0  # atno 6907 bound_to 6896
  152.1570  133.4553  159.4850 H   0  0  0  0  0  0  0  0  0  0  0  0  # atno 6908 bound_to 6896
  150.6882  134.2036  159.4375 H   0  0  0  0  0  0  0  0  0  0  0  0  # atno 6909 bound_to 6896
  144.9200  139.5180  143.5668 H   0  0  0  0  0  0  0  0  0  0  0  0  # atno 7974 bound_to 7965
  156.2252  140.2981  156.0050 H   0  0  0  0  0  0  0  0  0  0  0  0  # atno 8008 bound_to 7997
  155.2374  140.0421  157.2987 H   0  0  0  0  0  0  0  0  0  0  0  0  # atno 8009 bound_to 7997
  154.5905  140.2400  155.7936 H   0  0  0  0  0  0  0  0  0  0  0  0  # atno 8010 bound_to 7997
  140.5294  143.9867  150.6457 H   0  0  0  0  0  0  0  0  0  0  0  0  # atno 10167 bound_to 10162
  157.3574  131.0960  151.0946 H   0  0  0  0  0  0  0  0  0  0  0  0  # atno 10718 bound_to 10713
  154.3133  135.6211  153.5475 H   0  0  0  0  0  0  0  0  0  0  0  0  # atno 10763 bound_to 10752
  152.9827  135.5706  154.5153 H   0  0  0  0  0  0  0  0  0  0  0  0  # atno 10764 bound_to 10752
  154.4806  135.2863  155.1549 H   0  0  0  0  0  0  0  0  0  0  0  0  # atno 10765 bound_to 10752
  141.0937  133.6628  156.4060 H   0  0  0  0  0  0  0  0  0  0  0  0  # atno 11005 bound_to 11000
  146.3200  139.8072  142.8953 LP  0  0  0  0  0  0  0  0  0  0  0  0  # atno 17320 bound_to 7965
  145.3312  141.0267  143.3445 LP  0  0  0  0  0  0  0  0  0  0  0  0  # atno 17321 bound_to 7965
  140.3238  143.3120  152.0757 LP  0  0  0  0  0  0  0  0  0  0  0  0  # atno 17342 bound_to 10162
  139.4949  144.6556  151.6580 LP  0  0  0  0  0  0  0  0  0  0  0  0  # atno 17343 bound_to 10162
  157.2098  130.6433  149.5770 LP  0  0  0  0  0  0  0  0  0  0  0  0  # atno 17370 bound_to 10713
  155.9731  130.4663  150.6286 LP  0  0  0  0  0  0  0  0  0  0  0  0  # atno 17371 bound_to 10713
  140.5191  134.6321  157.5312 LP  0  0  0  0  0  0  0  0  0  0  0  0  # atno 17394 bound_to 11000
  139.9768  134.7202  155.9934 LP  0  0  0  0  0  0  0  0  0  0  0  0  # atno 17395 bound_to 11000

$$$$
