AV-unprocessed.smi:1762|AV-procd|sdf|7119|dock2
  -GOLD-   22720 8353D 1   1.00000     0.00000
 Structure written by MMmdl.
 52 53  0  0  0  0  0  0  0  0  3 V2000
  144.6689  134.1593  151.1119 C   0  0  0  0  0  0  0  0  0  0  0  0
  145.5671  135.1484  151.8632 C   0  0  2  0  0  0  0  0  0  0  0  0
  146.4066  134.4531  152.9512 C   0  0  0  0  0  0  0  0  0  0  0  0
  147.2044  135.4436  153.7240 N   0  3  2  0  0  0  0  0  0  0  0  0
  148.1333  134.8582  154.7490 C   0  0  2  0  0  0  0  0  0  0  0  0
  148.7941  135.9787  155.5892 C   0  0  0  0  0  0  0  0  0  0  0  0
  149.3872  136.8888  154.9998 O   0  0  0  0  0  0  0  0  0  0  0  0
  148.5770  135.7894  156.9186 N   0  5  0  0  0  0  0  0  0  0  0  0
  147.8749  136.7376  157.7815 C   0  0  0  0  0  0  0  0  0  0  0  0
  148.6675  136.9600  159.0907 C   0  0  0  0  0  0  0  0  0  0  0  0
  148.0859  136.2819  160.3295 C   0  0  0  0  0  0  0  0  0  0  0  0
  147.9968  134.8729  160.4033 C   0  0  0  0  0  0  0  0  0  0  0  0
  147.4432  134.2901  161.5591 C   0  0  0  0  0  0  0  0  0  0  0  0
  146.9919  135.1318  162.5934 C   0  0  0  0  0  0  0  0  0  0  0  0
  147.1152  136.5250  162.4244 C   0  0  0  0  0  0  0  0  0  0  0  0
  147.6441  137.0946  161.3204 N   0  0  0  0  0  0  0  0  0  0  0  0
  149.2090  133.8734  154.1758 C   0  0  0  0  0  0  0  0  0  0  0  0
  148.6022  132.5448  153.6827 C   0  0  0  0  0  0  0  0  0  0  0  0
  150.3940  133.5944  155.1244 C   0  0  0  0  0  0  0  0  0  0  0  0
  146.2792  136.4659  154.2935 C   0  0  0  0  0  0  0  0  0  0  0  0
  145.4201  137.1285  153.2023 C   0  0  1  0  0  0  0  0  0  0  0  0
  146.2095  138.0979  152.3045 C   0  0  0  0  0  0  0  0  0  0  0  0
  144.7269  136.1325  152.4551 O   0  0  0  0  0  0  0  0  0  0  0  0
  145.2599  133.3868  150.6192 H   0  0  0  0  0  0  0  0  0  0  0  0
  144.0846  134.6688  150.3452 H   0  0  0  0  0  0  0  0  0  0  0  0
  143.9710  133.6661  151.7893 H   0  0  0  0  0  0  0  0  0  0  0  0
  146.2294  135.6187  151.1361 H   0  0  0  0  0  0  0  0  0  0  0  0
  145.7643  133.8929  153.6328 H   0  0  0  0  0  0  0  0  0  0  0  0
  147.0467  133.7321  152.4474 H   0  0  0  0  0  0  0  0  0  0  0  0
  147.4951  134.2533  155.3985 H   0  0  0  0  0  0  0  0  0  0  0  0
  147.7202  137.6953  157.2841 H   0  0  0  0  0  0  0  0  0  0  0  0
  146.8790  136.3808  158.0482 H   0  0  0  0  0  0  0  0  0  0  0  0
  149.6859  136.5945  158.9516 H   0  0  0  0  0  0  0  0  0  0  0  0
  148.7654  138.0290  159.2848 H   0  0  0  0  0  0  0  0  0  0  0  0
  148.3548  134.2538  159.5937 H   0  0  0  0  0  0  0  0  0  0  0  0
  147.3664  133.2168  161.6500 H   0  0  0  0  0  0  0  0  0  0  0  0
  146.5613  134.7203  163.4941 H   0  0  0  0  0  0  0  0  0  0  0  0
  146.7778  137.2008  163.1961 H   0  0  0  0  0  0  0  0  0  0  0  0
  149.6180  134.3248  153.2730 H   0  0  0  0  0  0  0  0  0  0  0  0
  148.2306  131.9346  154.5064 H   0  0  0  0  0  0  0  0  0  0  0  0
  149.3441  131.9507  153.1487 H   0  0  0  0  0  0  0  0  0  0  0  0
  147.7710  132.7214  152.9991 H   0  0  0  0  0  0  0  0  0  0  0  0
  150.0914  132.9980  155.9849 H   0  0  0  0  0  0  0  0  0  0  0  0
  150.8444  134.5120  155.5015 H   0  0  0  0  0  0  0  0  0  0  0  0
  151.1766  133.0373  154.6090 H   0  0  0  0  0  0  0  0  0  0  0  0
  145.6302  135.9844  155.0267 H   0  0  0  0  0  0  0  0  0  0  0  0
  146.8157  137.2495  154.8278 H   0  0  0  0  0  0  0  0  0  0  0  0
  144.6500  137.7184  153.7005 H   0  0  0  0  0  0  0  0  0  0  0  0
  146.6115  138.9247  152.8907 H   0  0  0  0  0  0  0  0  0  0  0  0
  145.5681  138.5234  151.5327 H   0  0  0  0  0  0  0  0  0  0  0  0
  147.0526  137.6143  151.8117 H   0  0  0  0  0  0  0  0  0  0  0  0
  147.7962  135.9221  153.0600 H   0  0  0  0  0  0  0  0  0  0  0  0
  1  2  1  0  0  0  0
  1 24  1  0  0  0  0
  1 25  1  0  0  0  0
  1 26  1  0  0  0  0
  2 23  1  0  0  0  0
  2  3  1  0  0  0  0
  2 27  1  0  0  0  0
  3  4  1  0  0  0  0
  3 28  1  0  0  0  0
  3 29  1  0  0  0  0
  4  5  1  0  0  0  0
  4 20  1  0  0  0  0
  4 52  1  0  0  0  0
  5  6  1  0  0  0  0
  5 17  1  0  0  0  0
  5 30  1  0  0  0  0
  6  7  2  0  0  0  0
  6  8  1  0  0  0  0
  8  9  1  0  0  0  0
  9 10  1  0  0  0  0
  9 31  1  0  0  0  0
  9 32  1  0  0  0  0
 10 11  1  0  0  0  0
 10 33  1  0  0  0  0
 10 34  1  0  0  0  0
 11 16  1  0  0  0  0
 11 12  2  0  0  0  0
 12 13  1  0  0  0  0
 12 35  1  0  0  0  0
 13 14  2  0  0  0  0
 13 36  1  0  0  0  0
 14 15  1  0  0  0  0
 14 37  1  0  0  0  0
 15 16  2  0  0  0  0
 15 38  1  0  0  0  0
 17 18  1  0  0  0  0
 17 19  1  0  0  0  0
 17 39  1  0  0  0  0
 18 40  1  0  0  0  0
 18 41  1  0  0  0  0
 18 42  1  0  0  0  0
 19 43  1  0  0  0  0
 19 44  1  0  0  0  0
 19 45  1  0  0  0  0
 20 21  1  0  0  0  0
 20 46  1  0  0  0  0
 20 47  1  0  0  0  0
 21 22  1  0  0  0  0
 21 23  1  0  0  0  0
 21 48  1  0  0  0  0
 22 49  1  0  0  0  0
 22 50  1  0  0  0  0
 22 51  1  0  0  0  0
M  CHG  1   4   1
M  CHG  1   8  -1
M  END
> <s_m_source_file>
AV-unprocessed.smi

> <i_m_source_file_index>
1762

> <i_lp_mmshare_version>
43012

> <i_f3d_flags>
0

> <s_epik_input>
W0NIM11bQ0BASF0xW0NIMl1OKFtDSDJdW0NASF0oTzEpW0NIM10pW0NAQEhdKFtDSF0oW0NIM10pW0NIM10pQyg9TylbTkhdW0NIMl1bQ0gyXWMyW2NIXVtjSF1bY0hdW2NIXW4y

> <s_epik_cmdline>
J2VwaWtfcHl0aG9uJywgJy1waCcsICc3LjAnLCAnLXRuJywgJzgnLCAnLW1hJywgJzIwMCcsICctbWV0YWxfYmluZGluZycsICctaW1hZScsICc8aW5maWxlLm1hZT4nLCAnLW9tYWUnLCAnPG91dGZpbGUubWFlPic=

> <r_epik_Ionization_Penalty>
7.82966

> <r_epik_Ionization_Penalty_Charging>
7.7461

> <r_epik_Ionization_Penalty_Neutral>
0.0835571

> <r_epik_State_Penalty>
8.52273

> <r_epik_Charging_Adjusted_Penalty>
16.2688

> <i_epik_Tot_Q>
0

> <i_epik_Tot_abs_Q>
2

> <r_epik_Metal_State_Penalty>
4.47451

> <b_epik_Metal_Only>
1

> <s_lp_Force_Field>
OPLS_2005

> <r_lp_Energy>
24.7252

> <b_lp_Chiralities_Consistent>
1

> <s_lp_Variant>
AV-unprocessed.smi:1762-21

> <Gold.Version>
5.8.1

> <Gold.Id.Protein>
6NUR|6NUR_protein|mol2

> <Gold.PLP.Fitness>
46.9869

> <Gold.PLP.PLP>
-38.0112

> <Gold.PLP.part.hbond>
-3.0000

> <Gold.PLP.part.metal>
0.0000

> <Gold.PLP.part.buried>
-4.8344

> <Gold.PLP.part.nonpolar>
-29.9471

> <Gold.PLP.part.repulsive>
0.2792

> <Gold.PLP.ligand.clash>
0.0142

> <Gold.PLP.ligand.torsion>
1.5012

> <Gold.PLP.Chemscore.Hbond>
3.8640

> <Gold.PLP.Chemscore.CHOScore>
0.0000

> <Gold.PLP.Chemscore.Metal>
0.0000

> <Gold.Chemscore.Hbonds>
donor molecule, donor type, donor heavy atom, donor atom, acceptor molecule, acceptor atom, score
      L1  H     4    52       P1  7948  2.00
      P1  H  6931  6943       L1    16  1.00
      P1  H  6934  6947       L1    16  0.86

> <Gold.PLP.Chemscore.Internal.Correction>
0.4004

> <Gold.Rescore>
     Score         DG    S(hbond)    S(metal)    S(lipo)     H(rot)  DE(clash)    DE(int)     intcor
     16.71     -19.31       2.25        0.00      88.99       1.60       0.03       2.57       ----

> <Gold.Chemscore.Fitness>
16.7131

> <Gold.Chemscore.DG>
-19.3125

> <Gold.Chemscore.ZeroCoef>
-5.4800

> <Gold.Chemscore.Hbond>
2.2512

> <Gold.Chemscore.Metal>
0.0000

> <Gold.Chemscore.Lipo>
88.9947

> <Gold.Chemscore.Internal_Hbond>
0.0000

> <Gold.Chemscore.DEClash>
0.0270

> <Gold.Chemscore.DEInternal>
2.5724

> <Gold.Chemscore.Rot>
1.6012

> <Gold.Chemscore.Internal.Correction>
   9.000000E+99

> <Gold.Chemscore.Hbonds>
donor molecule, donor type, donor heavy atom, donor atom, acceptor molecule, acceptor atom, score
      L1  H     4    52       P1  7948  1.00
      P1  H  6931  6943       L1    16  0.45
      P1  H  6934  6947       L1    16  0.76

> <Gold.Chemscore.Hbond.Weighted>
-7.5191

> <Gold.Chemscore.Metal.Weighted>
-0.0000

> <Gold.Chemscore.Lipo.Weighted>
-10.4124

> <Gold.Chemscore.Internal_Hbond.Weighted>
0.0000

> <Gold.Chemscore.DEClash.Weighted>
0.0270

> <Gold.Chemscore.DEInternal.Weighted>
2.5724

> <Gold.Chemscore.Rot.Weighted>
4.0990

> <Gold.Chemscore.Internal.Correction.Weighted>
   9.000000E+99

> <Gold.Protein.RotatedTorsions>
[ 6907 6896 6895 6894 ] final -111.31 input  -60.11 | X-H torsion
[ 7974 7965 7964 7962 ] final  174.78 input  175.53 | X-H torsion
[ 8008 7997 7996 7995 ] final  -54.78 input   59.86 | X-H torsion
[ 10167 10162 10161 10158 ] final -163.12 input  -65.29 | X-H torsion
[ 10718 10713 10712 10709 ] final  -97.96 input   66.30 | X-H torsion
[ 10763 10752 10751 10750 ] final   38.75 input  -60.55 | X-H torsion
[ 11005 11000 10999 10996 ] final   87.04 input  -57.11 | X-H torsion

> <Gold.Protein.ActiveResidues>
 VAL166  LYS551  ARG553  GLY616  TRP617  ASP618  TYR619  PRO620  LYS621  CYS622 
 ASP623  PHE694  ASN695  SER759  ASP760  ASP761  ALA762  ILE779  LEU786  VAL792 
 PHE793  MET794  SER795  GLU796  ALA797  LYS798  CYS799  TRP800  GLU811  SER814 

> <Gold.Protein.RotatedAtoms>
  150.7682  133.9254  159.3410 H   0  0  0  0  0  0  0  0  0  0  0  0  # atno 6907 bound_to 6896
  151.7147  135.0904  160.0283 H   0  0  0  0  0  0  0  0  0  0  0  0  # atno 6908 bound_to 6896
  152.3687  133.6353  159.6106 H   0  0  0  0  0  0  0  0  0  0  0  0  # atno 6909 bound_to 6896
  144.7214  139.9848  143.6439 H   0  0  0  0  0  0  0  0  0  0  0  0  # atno 7974 bound_to 7965
  154.4173  140.1168  156.5371 H   0  0  0  0  0  0  0  0  0  0  0  0  # atno 8008 bound_to 7997
  155.6546  140.3496  155.4741 H   0  0  0  0  0  0  0  0  0  0  0  0  # atno 8009 bound_to 7997
  155.9764  140.1151  157.0756 H   0  0  0  0  0  0  0  0  0  0  0  0  # atno 8010 bound_to 7997
  139.6343  144.0380  152.2041 H   0  0  0  0  0  0  0  0  0  0  0  0  # atno 10167 bound_to 10162
  156.0096  130.5217  150.6452 H   0  0  0  0  0  0  0  0  0  0  0  0  # atno 10718 bound_to 10713
  152.9990  135.6240  154.2354 H   0  0  0  0  0  0  0  0  0  0  0  0  # atno 10763 bound_to 10752
  154.2096  135.2800  155.2965 H   0  0  0  0  0  0  0  0  0  0  0  0  # atno 10764 bound_to 10752
  154.5618  135.5703  153.7072 H   0  0  0  0  0  0  0  0  0  0  0  0  # atno 10765 bound_to 10752
  139.8929  134.8395  156.2804 H   0  0  0  0  0  0  0  0  0  0  0  0  # atno 11005 bound_to 11000
  146.0459  139.3465  143.0669 LP  0  0  0  0  0  0  0  0  0  0  0  0  # atno 17320 bound_to 7965
  145.8276  140.9647  143.0866 LP  0  0  0  0  0  0  0  0  0  0  0  0  # atno 17321 bound_to 7965
  140.0053  144.6263  150.7694 LP  0  0  0  0  0  0  0  0  0  0  0  0  # atno 17342 bound_to 10162
  140.7456  143.2879  151.3413 LP  0  0  0  0  0  0  0  0  0  0  0  0  # atno 17343 bound_to 10162
  157.4224  131.0838  151.1118 LP  0  0  0  0  0  0  0  0  0  0  0  0  # atno 17370 bound_to 10713
  157.1716  130.6270  149.5642 LP  0  0  0  0  0  0  0  0  0  0  0  0  # atno 17371 bound_to 10713
  141.0042  133.7133  156.1009 LP  0  0  0  0  0  0  0  0  0  0  0  0  # atno 17394 bound_to 11000
  140.7456  134.4102  157.5549 LP  0  0  0  0  0  0  0  0  0  0  0  0  # atno 17395 bound_to 11000

$$$$
