AV-unprocessed.smi:1240|AV-procd|sdf|5207|dock7
  -GOLD-   22720 4293D 1   1.00000     0.00000
 Structure written by MMmdl.
 49 51  0  0  0  0  0  0  0  0  3 V2000
  147.5173  131.9393  152.6071 O   0  0  0  0  0  0  0  0  0  0  0  0
  147.9071  133.1062  152.6020 C   0  0  0  0  0  0  0  0  0  0  0  0
  149.0452  133.5067  153.1842 N   0  0  0  0  0  0  0  0  0  0  0  0
  149.9946  132.6298  153.8598 C   0  0  0  0  0  0  0  0  0  0  0  0
  149.2982  131.6364  154.8287 C   0  0  2  0  0  0  0  0  0  0  0  0
  149.0504  132.2189  156.2499 C   0  0  2  0  0  0  0  0  0  0  0  0
  148.0701  133.3808  156.2846 C   0  0  0  0  0  0  0  0  0  0  0  0
  148.3610  134.0058  157.6424 C   0  0  0  0  0  0  0  0  0  0  0  0
  149.7636  133.8635  157.8171 O   0  0  0  0  0  0  0  0  0  0  0  0
  150.2644  132.8642  156.9344 C   0  0  0  0  0  0  0  0  0  0  0  0
  150.0444  130.3458  154.9338 N   0  3  0  0  0  0  0  0  0  0  0  0
  149.9734  129.5024  153.7154 C   0  0  0  0  0  0  0  0  0  0  0  0
  150.5986  128.1238  153.9898 C   0  0  0  0  0  0  0  0  0  0  0  0
  151.9374  128.2836  154.4444 O   0  0  0  0  0  0  0  0  0  0  0  0
  152.0070  129.0241  155.6573 C   0  0  0  0  0  0  0  0  0  0  0  0
  151.4419  130.4357  155.4289 C   0  0  0  0  0  0  0  0  0  0  0  0
  147.2617  134.1413  152.0369 N   0  0  0  0  0  0  0  0  0  0  0  0
  146.0574  134.1350  151.2811 C   0  0  0  0  0  0  0  0  0  0  0  0
  145.4776  132.8798  150.9914 C   0  0  0  0  0  0  0  0  0  0  0  0
  144.2726  132.8209  150.2621 C   0  0  0  0  0  0  0  0  0  0  0  0
  143.6773  133.9619  149.8542 N   0  3  0  0  0  0  0  0  0  0  0  0
  144.1856  135.1848  150.1173 C   0  0  0  0  0  0  0  0  0  0  0  0
  145.3884  135.3068  150.8425 C   0  0  0  0  0  0  0  0  0  0  0  0
  149.2812  134.4876  153.1433 H   0  0  0  0  0  0  0  0  0  0  0  0
  150.5481  132.0959  153.0874 H   0  0  0  0  0  0  0  0  0  0  0  0
  150.7203  133.2325  154.4082 H   0  0  0  0  0  0  0  0  0  0  0  0
  148.3183  131.3966  154.4124 H   0  0  0  0  0  0  0  0  0  0  0  0
  148.6729  131.4355  156.9087 H   0  0  0  0  0  0  0  0  0  0  0  0
  148.2922  134.0941  155.4893 H   0  0  0  0  0  0  0  0  0  0  0  0
  147.0294  133.0706  156.1856 H   0  0  0  0  0  0  0  0  0  0  0  0
  148.0529  135.0497  157.7011 H   0  0  0  0  0  0  0  0  0  0  0  0
  147.8513  133.4543  158.4336 H   0  0  0  0  0  0  0  0  0  0  0  0
  150.8625  132.1375  157.4844 H   0  0  0  0  0  0  0  0  0  0  0  0
  150.9117  133.3535  156.2057 H   0  0  0  0  0  0  0  0  0  0  0  0
  148.9352  129.3753  153.4070 H   0  0  0  0  0  0  0  0  0  0  0  0
  150.4974  129.9861  152.8906 H   0  0  0  0  0  0  0  0  0  0  0  0
  150.0153  127.5717  154.7287 H   0  0  0  0  0  0  0  0  0  0  0  0
  150.6043  127.5261  153.0780 H   0  0  0  0  0  0  0  0  0  0  0  0
  151.4587  128.5071  156.4466 H   0  0  0  0  0  0  0  0  0  0  0  0
  153.0475  129.0821  155.9769 H   0  0  0  0  0  0  0  0  0  0  0  0
  152.0682  130.9592  154.7056 H   0  0  0  0  0  0  0  0  0  0  0  0
  151.4839  130.9983  156.3610 H   0  0  0  0  0  0  0  0  0  0  0  0
  147.6666  135.0528  152.1936 H   0  0  0  0  0  0  0  0  0  0  0  0
  145.9511  131.9659  151.3204 H   0  0  0  0  0  0  0  0  0  0  0  0
  143.7699  131.9020  149.9979 H   0  0  0  0  0  0  0  0  0  0  0  0
  143.6152  136.0246  149.7483 H   0  0  0  0  0  0  0  0  0  0  0  0
  145.7633  136.2955  151.0575 H   0  0  0  0  0  0  0  0  0  0  0  0
  149.5440  129.8209  155.6371 H   0  0  0  0  0  0  0  0  0  0  0  0
  142.8045  133.8977  149.3292 H   0  0  0  0  0  0  0  0  0  0  0  0
  1  2  2  0  0  0  0
  2  3  1  0  0  0  0
  2 17  1  0  0  0  0
  3  4  1  0  0  0  0
  3 24  1  0  0  0  0
  4  5  1  0  0  0  0
  4 25  1  0  0  0  0
  4 26  1  0  0  0  0
  5  6  1  0  0  0  0
  5 11  1  0  0  0  0
  5 27  1  0  0  0  0
  6 10  1  0  0  0  0
  6  7  1  0  0  0  0
  6 28  1  0  0  0  0
  7  8  1  0  0  0  0
  7 29  1  0  0  0  0
  7 30  1  0  0  0  0
  8  9  1  0  0  0  0
  8 31  1  0  0  0  0
  8 32  1  0  0  0  0
  9 10  1  0  0  0  0
 10 33  1  0  0  0  0
 10 34  1  0  0  0  0
 11 16  1  0  0  0  0
 11 12  1  0  0  0  0
 11 48  1  0  0  0  0
 12 13  1  0  0  0  0
 12 35  1  0  0  0  0
 12 36  1  0  0  0  0
 13 14  1  0  0  0  0
 13 37  1  0  0  0  0
 13 38  1  0  0  0  0
 14 15  1  0  0  0  0
 15 16  1  0  0  0  0
 15 39  1  0  0  0  0
 15 40  1  0  0  0  0
 16 41  1  0  0  0  0
 16 42  1  0  0  0  0
 17 18  1  0  0  0  0
 17 43  1  0  0  0  0
 18 23  1  0  0  0  0
 18 19  2  0  0  0  0
 19 20  1  0  0  0  0
 19 44  1  0  0  0  0
 20 21  2  0  0  0  0
 20 45  1  0  0  0  0
 21 22  1  0  0  0  0
 21 49  1  0  0  0  0
 22 23  2  0  0  0  0
 22 46  1  0  0  0  0
 23 47  1  0  0  0  0
M  CHG  1  11   1
M  CHG  1  21   1
M  END
> <s_m_source_file>
AV-unprocessed.smi

> <i_m_source_file_index>
1240

> <i_lp_mmshare_version>
43012

> <i_f3d_flags>
0

> <s_epik_input>
W2NIXTFbY0hdbltjSF1bY0hdYzFbTkhdQyg9TylbTkhdW0NIMl1bQ0BIXShbQ0BASF0yW0NIMl1bQ0gyXU9bQ0gyXTIpTjNbQ0gyXVtDSDJdT1tDSDJdW0NIMl0z

> <s_epik_cmdline>
J2VwaWtfcHl0aG9uJywgJy1waCcsICc3LjAnLCAnLXRuJywgJzgnLCAnLW1hJywgJzIwMCcsICctbWV0YWxfYmluZGluZycsICctaW1hZScsICc8aW5maWxlLm1hZT4nLCAnLW9tYWUnLCAnPG91dGZpbGUubWFlPic=

> <r_epik_Ionization_Penalty>
2.08105

> <r_epik_Ionization_Penalty_Charging>
2.08103

> <r_epik_Ionization_Penalty_Neutral>
2.04144e-05

> <r_epik_State_Penalty>
2.15598

> <r_epik_Charging_Adjusted_Penalty>
4.23701

> <i_epik_Tot_Q>
2

> <i_epik_Tot_abs_Q>
2

> <r_epik_Metal_State_Penalty>
2.25158

> <b_epik_Metal_Only>
0

> <s_lp_Force_Field>
OPLS_2005

> <r_lp_Energy>
50.7828

> <b_lp_Chiralities_Consistent>
1

> <s_lp_Variant>
AV-unprocessed.smi:1240-13

> <Gold.Version>
5.8.1

> <Gold.Id.Protein>
6NUR|6NUR_protein|mol2

> <Gold.PLP.Fitness>
42.1201

> <Gold.PLP.PLP>
-30.7057

> <Gold.PLP.part.hbond>
-4.0000

> <Gold.PLP.part.metal>
0.0000

> <Gold.PLP.part.buried>
-5.0670

> <Gold.PLP.part.nonpolar>
-22.3114

> <Gold.PLP.part.repulsive>
0.2715

> <Gold.PLP.ligand.clash>
0.0000

> <Gold.PLP.ligand.torsion>
0.6698

> <Gold.PLP.Chemscore.Hbond>
4.1619

> <Gold.PLP.Chemscore.CHOScore>
0.0000

> <Gold.PLP.Chemscore.Metal>
0.0000

> <Gold.Chemscore.Hbonds>
donor molecule, donor type, donor heavy atom, donor atom, acceptor molecule, acceptor atom, score
      L1  H     3    24       P1  7948  0.18
      L1  H    17    43       P1  7948  0.94
      L1  H    21    49       P1 10186  1.50
      P1  H  6896  6907       L1     9  1.00

> <Gold.PLP.Chemscore.Internal.Correction>
0.2684

> <Gold.Rescore>
     Score         DG    S(hbond)    S(metal)    S(lipo)     H(rot)  DE(clash)    DE(int)     intcor
     15.00     -18.61       2.75        0.00      71.69       1.74       0.13       3.48       ----

> <Gold.Chemscore.Fitness>
14.9972

> <Gold.Chemscore.DG>
-18.6085

> <Gold.Chemscore.ZeroCoef>
-5.4800

> <Gold.Chemscore.Hbond>
2.7545

> <Gold.Chemscore.Metal>
0.0000

> <Gold.Chemscore.Lipo>
71.6927

> <Gold.Chemscore.Internal_Hbond>
0.0000

> <Gold.Chemscore.DEClash>
0.1326

> <Gold.Chemscore.DEInternal>
3.4787

> <Gold.Chemscore.Rot>
1.7421

> <Gold.Chemscore.Internal.Correction>
   9.000000E+99

> <Gold.Chemscore.Hbonds>
donor molecule, donor type, donor heavy atom, donor atom, acceptor molecule, acceptor atom, score
      L1  H    17    43       P1  7948  0.84
      L1  H    21    49       P1 10186  0.76
      P1  H  6896  6907       L1     9  0.65

> <Gold.Chemscore.Hbond.Weighted>
-9.2002

> <Gold.Chemscore.Metal.Weighted>
-0.0000

> <Gold.Chemscore.Lipo.Weighted>
-8.3880

> <Gold.Chemscore.Internal_Hbond.Weighted>
0.0000

> <Gold.Chemscore.DEClash.Weighted>
0.1326

> <Gold.Chemscore.DEInternal.Weighted>
3.4787

> <Gold.Chemscore.Rot.Weighted>
4.4597

> <Gold.Chemscore.Internal.Correction.Weighted>
   9.000000E+99

> <Gold.Protein.RotatedTorsions>
[ 6907 6896 6895 6894 ] final -116.25 input  -60.11 | X-H torsion
[ 7974 7965 7964 7962 ] final   31.52 input  175.53 | X-H torsion
[ 8008 7997 7996 7995 ] final  160.55 input   59.86 | X-H torsion
[ 10167 10162 10161 10158 ] final  170.32 input  -65.29 | X-H torsion
[ 10718 10713 10712 10709 ] final  -86.03 input   66.30 | X-H torsion
[ 10763 10752 10751 10750 ] final -114.93 input  -60.55 | X-H torsion
[ 11005 11000 10999 10996 ] final  -30.62 input  -57.11 | X-H torsion

> <Gold.Protein.ActiveResidues>
 VAL166  LYS551  ARG553  GLY616  TRP617  ASP618  TYR619  PRO620  LYS621  CYS622 
 ASP623  PHE694  ASN695  SER759  ASP760  ASP761  ALA762  ILE779  LEU786  VAL792 
 PHE793  MET794  SER795  GLU796  ALA797  LYS798  CYS799  TRP800  GLU811  SER814 

> <Gold.Protein.RotatedAtoms>
  150.8041  133.8543  159.3213 H   0  0  0  0  0  0  0  0  0  0  0  0  # atno 6907 bound_to 6896
  151.6347  135.1017  160.0138 H   0  0  0  0  0  0  0  0  0  0  0  0  # atno 6908 bound_to 6896
  152.4131  133.6955  159.6450 H   0  0  0  0  0  0  0  0  0  0  0  0  # atno 6909 bound_to 6896
  146.1545  139.6646  142.9076 H   0  0  0  0  0  0  0  0  0  0  0  0  # atno 7974 bound_to 7965
  156.2164  140.1801  156.7578 H   0  0  0  0  0  0  0  0  0  0  0  0  # atno 8008 bound_to 7997
  154.5798  140.0668  156.9117 H   0  0  0  0  0  0  0  0  0  0  0  0  # atno 8009 bound_to 7997
  155.2522  140.3330  155.4283 H   0  0  0  0  0  0  0  0  0  0  0  0  # atno 8010 bound_to 7997
  139.5015  144.3609  151.9826 H   0  0  0  0  0  0  0  0  0  0  0  0  # atno 10167 bound_to 10162
  155.9992  130.4751  150.4653 H   0  0  0  0  0  0  0  0  0  0  0  0  # atno 10718 bound_to 10713
  154.8461  135.4400  154.1584 H   0  0  0  0  0  0  0  0  0  0  0  0  # atno 10763 bound_to 10752
  153.2727  135.6946  153.7471 H   0  0  0  0  0  0  0  0  0  0  0  0  # atno 10764 bound_to 10752
  153.6705  135.3419  155.3127 H   0  0  0  0  0  0  0  0  0  0  0  0  # atno 10765 bound_to 10752
  140.9398  133.7286  156.1059 H   0  0  0  0  0  0  0  0  0  0  0  0  # atno 11005 bound_to 11000
  145.4743  141.0437  143.2681 LP  0  0  0  0  0  0  0  0  0  0  0  0  # atno 17320 bound_to 7965
  144.7945  139.6261  143.7098 LP  0  0  0  0  0  0  0  0  0  0  0  0  # atno 17321 bound_to 7965
  140.3045  144.3608  150.6051 LP  0  0  0  0  0  0  0  0  0  0  0  0  # atno 17342 bound_to 10162
  140.5847  143.2170  151.7364 LP  0  0  0  0  0  0  0  0  0  0  0  0  # atno 17343 bound_to 10162
  157.2673  131.0579  151.2282 LP  0  0  0  0  0  0  0  0  0  0  0  0  # atno 17370 bound_to 10713
  157.3375  130.7016  149.6361 LP  0  0  0  0  0  0  0  0  0  0  0  0  # atno 17371 bound_to 10713
  140.7749  134.3790  157.5500 LP  0  0  0  0  0  0  0  0  0  0  0  0  # atno 17394 bound_to 11000
  139.8817  134.9046  156.2880 LP  0  0  0  0  0  0  0  0  0  0  0  0  # atno 17395 bound_to 11000

$$$$
