AV-unprocessed.smi:3078|AV-procd|sdf|11731|dock10
  -GOLD-   2272017133D 1   1.00000     0.00000
 Structure written by MMmdl.
 23 23  0  0  0  0  0  0  0  0  2 V2000
  151.0428  141.4450  156.1109 C   0  0  0  0  0  0  0  0  0  0  0  0
  150.0778  140.7896  155.2544 N   0  0  0  0  0  0  0  0  0  0  0  0
  148.8906  141.2832  154.7586 C   0  0  0  0  0  0  0  0  0  0  0  0
  148.3223  140.3001  153.9953 C   0  0  0  0  0  0  0  0  0  0  0  0
  147.0204  140.3105  153.2382 C   0  0  2  0  0  0  0  0  0  0  0  0
  145.9018  140.4574  154.1526 N   0  0  0  0  0  0  0  0  0  0  0  0
  146.8435  139.0057  152.4409 C   0  0  0  0  0  0  0  0  0  0  0  0
  145.4229  138.6511  152.2793 N   0  3  0  0  0  0  0  0  0  0  0  0
  149.2551  139.2280  154.0960 C   0  0  0  0  0  0  0  0  0  0  0  0
  150.3031  139.5243  154.8466 N   0  0  0  0  0  0  0  0  0  0  0  0
  150.6718  142.4251  156.4121 H   0  0  0  0  0  0  0  0  0  0  0  0
  151.9843  141.5706  155.5757 H   0  0  0  0  0  0  0  0  0  0  0  0
  151.2153  140.8423  157.0033 H   0  0  0  0  0  0  0  0  0  0  0  0
  148.5501  142.2824  154.9880 H   0  0  0  0  0  0  0  0  0  0  0  0
  146.9972  141.1567  152.5501 H   0  0  0  0  0  0  0  0  0  0  0  0
  145.0893  140.7767  153.6436 H   0  0  0  0  0  0  0  0  0  0  0  0
  145.6574  139.5577  154.5420 H   0  0  0  0  0  0  0  0  0  0  0  0
  147.2682  139.1203  151.4429 H   0  0  0  0  0  0  0  0  0  0  0  0
  147.3730  138.1790  152.9174 H   0  0  0  0  0  0  0  0  0  0  0  0
  145.2109  138.5444  151.2978 H   0  0  0  0  0  0  0  0  0  0  0  0
  144.8458  139.3803  152.6730 H   0  0  0  0  0  0  0  0  0  0  0  0
  149.2012  138.2471  153.6471 H   0  0  0  0  0  0  0  0  0  0  0  0
  145.2423  137.7813  152.7604 H   0  0  0  0  0  0  0  0  0  0  0  0
  1  2  1  0  0  0  0
  1 11  1  0  0  0  0
  1 12  1  0  0  0  0
  1 13  1  0  0  0  0
  2 10  1  0  0  0  0
  2  3  1  0  0  0  0
  3  4  2  0  0  0  0
  3 14  1  0  0  0  0
  4  5  1  0  0  0  0
  4  9  1  0  0  0  0
  5  6  1  0  0  0  0
  5  7  1  0  0  0  0
  5 15  1  0  0  0  0
  6 16  1  0  0  0  0
  6 17  1  0  0  0  0
  7  8  1  0  0  0  0
  7 18  1  0  0  0  0
  7 19  1  0  0  0  0
  8 20  1  0  0  0  0
  8 21  1  0  0  0  0
  8 23  1  0  0  0  0
  9 10  2  0  0  0  0
  9 22  1  0  0  0  0
M  CHG  1   8   1
M  END
> <s_m_source_file>
AV-unprocessed.smi

> <i_m_source_file_index>
3078

> <i_lp_mmshare_version>
43012

> <i_f3d_flags>
0

> <s_epik_input>
W0NIM11uMVtjSF1jKFtjSF1uMSlbQ0BIXShbTkgyXSlbQ0gyXVtOSDJd

> <s_epik_cmdline>
J2VwaWtfcHl0aG9uJywgJy1waCcsICc3LjAnLCAnLXRuJywgJzgnLCAnLW1hJywgJzIwMCcsICctbWV0YWxfYmluZGluZycsICctaW1hZScsICc8aW5maWxlLm1hZT4nLCAnLW9tYWUnLCAnPG91dGZpbGUubWFlPic=

> <r_lp_tautomer_probability>
1

> <r_epik_Ionization_Penalty>
0.0498714

> <r_epik_Ionization_Penalty_Charging>
0.00651912

> <r_epik_Ionization_Penalty_Neutral>
0.0433523

> <r_epik_State_Penalty>
0.141593

> <r_epik_Charging_Adjusted_Penalty>
0.148112

> <i_epik_Tot_Q>
1

> <i_epik_Tot_abs_Q>
1

> <r_epik_Metal_State_Penalty>
0.141584

> <b_epik_Metal_Only>
0

> <s_lp_Force_Field>
OPLS_2005

> <r_lp_Energy>
-1.23343

> <b_lp_Chiralities_Consistent>
1

> <s_lp_Variant>
AV-unprocessed.smi:3078-1

> <Gold.Version>
5.8.1

> <Gold.Id.Protein>
6NUR|6NUR_protein|mol2

> <Gold.PLP.Fitness>
37.3886

> <Gold.PLP.PLP>
-21.4868

> <Gold.PLP.part.hbond>
-2.9197

> <Gold.PLP.part.metal>
0.0000

> <Gold.PLP.part.buried>
0.7382

> <Gold.PLP.part.nonpolar>
-18.6127

> <Gold.PLP.part.repulsive>
0.0981

> <Gold.PLP.ligand.clash>
0.0000

> <Gold.PLP.ligand.torsion>
0.4153

> <Gold.PLP.Chemscore.Hbond>
3.9440

> <Gold.PLP.Chemscore.CHOScore>
1.6326

> <Gold.PLP.Chemscore.Metal>
0.0000

> <Gold.Chemscore.Hbonds>
donor molecule, donor type, donor heavy atom, donor atom, acceptor molecule, acceptor atom, score
      L1  H     6    16       P1 10175  1.00
      L1  H     8    20       P1 10171  0.99
      L1  H     8    21       P1 10175  1.92
      L1  C     3    14       P1  8028  0.99
      L1  C     9    22       P1  7948  0.63

> <Gold.PLP.Chemscore.Internal.Correction>
0.0025

> <Gold.Rescore>
     Score         DG    S(hbond)    S(metal)    S(lipo)     H(rot)  DE(clash)    DE(int)     intcor
     16.12     -16.54       2.83        0.00      44.72       1.41       0.04       0.38       ----

> <Gold.Chemscore.Fitness>
16.1192

> <Gold.Chemscore.DG>
-16.5387

> <Gold.Chemscore.ZeroCoef>
-5.4800

> <Gold.Chemscore.Hbond>
2.8269

> <Gold.Chemscore.Metal>
0.0000

> <Gold.Chemscore.Lipo>
44.7196

> <Gold.Chemscore.Internal_Hbond>
0.0000

> <Gold.Chemscore.DEClash>
0.0373

> <Gold.Chemscore.DEInternal>
0.3823

> <Gold.Chemscore.Rot>
1.4123

> <Gold.Chemscore.Internal.Correction>
   9.000000E+99

> <Gold.Chemscore.Hbonds>
donor molecule, donor type, donor heavy atom, donor atom, acceptor molecule, acceptor atom, score
      L1  H     6    16       P1 10175  0.89
      L1  H     8    20       P1 10171  0.90
      L1  H     8    21       P1 10175  0.91

> <Gold.Chemscore.Hbond.Weighted>
-9.4419

> <Gold.Chemscore.Metal.Weighted>
-0.0000

> <Gold.Chemscore.Lipo.Weighted>
-5.2322

> <Gold.Chemscore.Internal_Hbond.Weighted>
0.0000

> <Gold.Chemscore.DEClash.Weighted>
0.0373

> <Gold.Chemscore.DEInternal.Weighted>
0.3823

> <Gold.Chemscore.Rot.Weighted>
3.6154

> <Gold.Chemscore.Internal.Correction.Weighted>
   9.000000E+99

> <Gold.Protein.RotatedTorsions>
[ 6907 6896 6895 6894 ] final -158.61 input  -60.11 | X-H torsion
[ 7974 7965 7964 7962 ] final   24.84 input  175.53 | X-H torsion
[ 8008 7997 7996 7995 ] final -106.40 input   59.86 | X-H torsion
[ 10167 10162 10161 10158 ] final   27.06 input  -65.29 | X-H torsion
[ 10718 10713 10712 10709 ] final   50.58 input   66.30 | X-H torsion
[ 10763 10752 10751 10750 ] final  -11.39 input  -60.55 | X-H torsion
[ 11005 11000 10999 10996 ] final -133.11 input  -57.11 | X-H torsion

> <Gold.Protein.ActiveResidues>
 VAL166  LYS551  ARG553  GLY616  TRP617  ASP618  TYR619  PRO620  LYS621  CYS622 
 ASP623  PHE694  ASN695  SER759  ASP760  ASP761  ALA762  ILE779  LEU786  VAL792 
 PHE793  MET794  SER795  GLU796  ALA797  LYS798  CYS799  TRP800  GLU811  SER814 

> <Gold.Protein.RotatedAtoms>
  151.3208  133.4041  159.2654 H   0  0  0  0  0  0  0  0  0  0  0  0  # atno 6907 bound_to 6896
  151.0036  134.9342  159.7978 H   0  0  0  0  0  0  0  0  0  0  0  0  # atno 6908 bound_to 6896
  152.5282  134.3173  159.9188 H   0  0  0  0  0  0  0  0  0  0  0  0  # atno 6909 bound_to 6896
  146.1918  139.7548  142.8826 H   0  0  0  0  0  0  0  0  0  0  0  0  # atno 7974 bound_to 7965
  154.9139  140.0409  157.1961 H   0  0  0  0  0  0  0  0  0  0  0  0  # atno 8008 bound_to 7997
  154.8320  140.2900  155.5694 H   0  0  0  0  0  0  0  0  0  0  0  0  # atno 8009 bound_to 7997
  156.2987  140.2499  156.3247 H   0  0  0  0  0  0  0  0  0  0  0  0  # atno 8010 bound_to 7997
  140.4971  144.0375  150.6318 H   0  0  0  0  0  0  0  0  0  0  0  0  # atno 10167 bound_to 10162
  157.4898  130.8368  149.8189 H   0  0  0  0  0  0  0  0  0  0  0  0  # atno 10718 bound_to 10713
  153.4831  135.7017  153.5927 H   0  0  0  0  0  0  0  0  0  0  0  0  # atno 10763 bound_to 10752
  153.4132  135.3843  155.2063 H   0  0  0  0  0  0  0  0  0  0  0  0  # atno 10764 bound_to 10752
  154.8720  135.3909  154.4282 H   0  0  0  0  0  0  0  0  0  0  0  0  # atno 10765 bound_to 10752
  140.9110  134.1567  157.4389 H   0  0  0  0  0  0  0  0  0  0  0  0  # atno 11005 bound_to 11000
  145.3770  141.0352  143.3199 LP  0  0  0  0  0  0  0  0  0  0  0  0  # atno 17320 bound_to 7965
  144.8501  139.5335  143.6860 LP  0  0  0  0  0  0  0  0  0  0  0  0  # atno 17321 bound_to 7965
  140.3660  143.2881  152.0331 LP  0  0  0  0  0  0  0  0  0  0  0  0  # atno 17342 bound_to 10162
  139.4863  144.6266  151.7152 LP  0  0  0  0  0  0  0  0  0  0  0  0  # atno 17343 bound_to 10162
  156.0167  130.3811  150.2089 LP  0  0  0  0  0  0  0  0  0  0  0  0  # atno 17370 bound_to 10713
  157.0277  130.9998  151.3321 LP  0  0  0  0  0  0  0  0  0  0  0  0  # atno 17371 bound_to 10713
  139.8757  134.9936  156.5651 LP  0  0  0  0  0  0  0  0  0  0  0  0  # atno 17394 bound_to 11000
  140.8110  133.8429  155.8810 LP  0  0  0  0  0  0  0  0  0  0  0  0  # atno 17395 bound_to 11000

$$$$
