AV-unprocessed.smi:3004|AV-procd|sdf|11441|dock5
  -GOLD-   2272016373D 1   1.00000     0.00000
 Structure written by MMmdl.
 47 48  0  0  0  0  0  0  0  0  2 V2000
  148.0500  132.2644  153.5533 C   0  0  0  0  0  0  0  0  0  0  0  0
  146.9409  132.6442  152.6174 C   0  0  0  0  0  0  0  0  0  0  0  0
  145.9493  131.8040  152.0386 C   0  0  0  0  0  0  0  0  0  0  0  0
  145.1943  132.6487  151.2746 C   0  0  0  0  0  0  0  0  0  0  0  0
  144.0011  132.3685  150.4216 C   0  0  0  0  0  0  0  0  0  0  0  0
  145.7399  133.9126  151.4154 N   0  0  0  0  0  0  0  0  0  0  0  0
  145.3129  135.1688  150.8190 C   0  0  0  0  0  0  0  0  0  0  0  0
  145.0882  136.2417  151.8856 C   0  0  0  0  0  0  0  0  0  0  0  0
  143.9441  136.5681  152.2017 O   0  0  0  0  0  0  0  0  0  0  0  0
  146.1879  136.7824  152.4334 N   0  0  0  0  0  0  0  0  0  0  0  0
  146.1874  137.8123  153.4641 C   0  0  0  0  0  0  0  0  0  0  0  0
  146.8774  139.0998  152.9706 C   0  0  0  0  0  0  0  0  0  0  0  0
  146.3933  140.3318  153.6510 N   0  3  2  0  0  0  0  0  0  0  0  0
  147.2549  141.5066  153.3475 C   0  0  0  0  0  0  0  0  0  0  0  0
  146.6339  142.8107  153.8722 C   0  0  0  0  0  0  0  0  0  0  0  0
  146.3502  142.7197  155.3750 C   0  0  0  0  0  0  0  0  0  0  0  0
  145.4748  141.4930  155.6643 C   0  0  0  0  0  0  0  0  0  0  0  0
  146.0919  140.1904  155.1113 C   0  0  2  0  0  0  0  0  0  0  0  0
  147.2972  139.7128  155.9494 C   0  0  0  0  0  0  0  0  0  0  0  0
  146.8088  133.9059  152.2422 N   0  0  0  0  0  0  0  0  0  0  0  0
  148.0964  131.1839  153.6907 H   0  0  0  0  0  0  0  0  0  0  0  0
  147.9073  132.7174  154.5347 H   0  0  0  0  0  0  0  0  0  0  0  0
  149.0174  132.5911  153.1710 H   0  0  0  0  0  0  0  0  0  0  0  0
  145.8131  130.7402  152.1651 H   0  0  0  0  0  0  0  0  0  0  0  0
  143.7222  131.3160  150.4760 H   0  0  0  0  0  0  0  0  0  0  0  0
  144.2044  132.6072  149.3776 H   0  0  0  0  0  0  0  0  0  0  0  0
  143.1437  132.9584  150.7455 H   0  0  0  0  0  0  0  0  0  0  0  0
  146.0656  135.5075  150.1052 H   0  0  0  0  0  0  0  0  0  0  0  0
  144.3947  135.0023  150.2544 H   0  0  0  0  0  0  0  0  0  0  0  0
  147.0870  136.4498  152.1145 H   0  0  0  0  0  0  0  0  0  0  0  0
  145.1527  138.0225  153.7360 H   0  0  0  0  0  0  0  0  0  0  0  0
  146.6721  137.4108  154.3542 H   0  0  0  0  0  0  0  0  0  0  0  0
  147.9610  139.0242  153.0629 H   0  0  0  0  0  0  0  0  0  0  0  0
  146.6774  139.1970  151.9024 H   0  0  0  0  0  0  0  0  0  0  0  0
  148.2493  141.3612  153.7709 H   0  0  0  0  0  0  0  0  0  0  0  0
  147.3886  141.5926  152.2684 H   0  0  0  0  0  0  0  0  0  0  0  0
  147.2998  143.6498  153.6686 H   0  0  0  0  0  0  0  0  0  0  0  0
  145.7061  143.0153  153.3362 H   0  0  0  0  0  0  0  0  0  0  0  0
  147.2875  142.6537  155.9288 H   0  0  0  0  0  0  0  0  0  0  0  0
  145.8508  143.6262  155.7179 H   0  0  0  0  0  0  0  0  0  0  0  0
  145.2977  141.4042  156.7368 H   0  0  0  0  0  0  0  0  0  0  0  0
  144.4945  141.6444  155.2102 H   0  0  0  0  0  0  0  0  0  0  0  0
  145.3146  139.4351  155.2190 H   0  0  0  0  0  0  0  0  0  0  0  0
  147.0301  139.6498  157.0046 H   0  0  0  0  0  0  0  0  0  0  0  0
  148.1505  140.3858  155.8720 H   0  0  0  0  0  0  0  0  0  0  0  0
  147.6283  138.7179  155.6529 H   0  0  0  0  0  0  0  0  0  0  0  0
  145.5056  140.5416  153.2172 H   0  0  0  0  0  0  0  0  0  0  0  0
  1  2  1  0  0  0  0
  1 21  1  0  0  0  0
  1 22  1  0  0  0  0
  1 23  1  0  0  0  0
  2 20  2  0  0  0  0
  2  3  1  0  0  0  0
  3  4  2  0  0  0  0
  3 24  1  0  0  0  0
  4  5  1  0  0  0  0
  4  6  1  0  0  0  0
  5 25  1  0  0  0  0
  5 26  1  0  0  0  0
  5 27  1  0  0  0  0
  6  7  1  0  0  0  0
  6 20  1  0  0  0  0
  7  8  1  0  0  0  0
  7 28  1  0  0  0  0
  7 29  1  0  0  0  0
  8  9  2  0  0  0  0
  8 10  1  0  0  0  0
 10 11  1  0  0  0  0
 10 30  1  0  0  0  0
 11 12  1  0  0  0  0
 11 31  1  0  0  0  0
 11 32  1  0  0  0  0
 12 13  1  0  0  0  0
 12 33  1  0  0  0  0
 12 34  1  0  0  0  0
 13 18  1  0  0  0  0
 13 14  1  0  0  0  0
 13 47  1  0  0  0  0
 14 15  1  0  0  0  0
 14 35  1  0  0  0  0
 14 36  1  0  0  0  0
 15 16  1  0  0  0  0
 15 37  1  0  0  0  0
 15 38  1  0  0  0  0
 16 17  1  0  0  0  0
 16 39  1  0  0  0  0
 16 40  1  0  0  0  0
 17 18  1  0  0  0  0
 17 41  1  0  0  0  0
 17 42  1  0  0  0  0
 18 19  1  0  0  0  0
 18 43  1  0  0  0  0
 19 44  1  0  0  0  0
 19 45  1  0  0  0  0
 19 46  1  0  0  0  0
M  CHG  1  13   1
M  END
> <s_m_source_file>
AV-unprocessed.smi

> <i_m_source_file_index>
3004

> <i_lp_mmshare_version>
43012

> <i_f3d_flags>
0

> <s_epik_input>
W0NIM11jMVtjSF1jKFtDSDNdKW4objEpW0NIMl1DKD1PKVtOSF1bQ0gyXVtDSDJdTjJbQ0gyXVtDSDJdW0NIMl1bQ0gyXVtDQEhdMltDSDNd

> <s_epik_cmdline>
J2VwaWtfcHl0aG9uJywgJy1waCcsICc3LjAnLCAnLXRuJywgJzgnLCAnLW1hJywgJzIwMCcsICctbWV0YWxfYmluZGluZycsICctaW1hZScsICc8aW5maWxlLm1hZT4nLCAnLW9tYWUnLCAnPG91dGZpbGUubWFlPic=

> <r_lp_tautomer_probability>
1

> <r_epik_Ionization_Penalty>
0.00303644

> <r_epik_Ionization_Penalty_Charging>
0.00284254

> <r_epik_Ionization_Penalty_Neutral>
0.000193908

> <r_epik_State_Penalty>
-0

> <r_epik_Charging_Adjusted_Penalty>
0.00284254

> <i_epik_Tot_Q>
1

> <i_epik_Tot_abs_Q>
1

> <r_epik_Metal_State_Penalty>
-0

> <b_epik_Metal_Only>
0

> <s_lp_Force_Field>
OPLS_2005

> <r_lp_Energy>
17.6316

> <b_lp_Chiralities_Consistent>
1

> <s_lp_Variant>
AV-unprocessed.smi:3004-3

> <Gold.Version>
5.8.1

> <Gold.Id.Protein>
6NUR|6NUR_protein|mol2

> <Gold.PLP.Fitness>
43.2439

> <Gold.PLP.PLP>
-35.2384

> <Gold.PLP.part.hbond>
-2.0000

> <Gold.PLP.part.metal>
0.0000

> <Gold.PLP.part.buried>
-7.4352

> <Gold.PLP.part.nonpolar>
-27.1587

> <Gold.PLP.part.repulsive>
1.0451

> <Gold.PLP.ligand.clash>
0.0000

> <Gold.PLP.ligand.torsion>
0.5196

> <Gold.PLP.Chemscore.Hbond>
3.0000

> <Gold.PLP.Chemscore.CHOScore>
0.0000

> <Gold.PLP.Chemscore.Metal>
0.0000

> <Gold.Chemscore.Hbonds>
donor molecule, donor type, donor heavy atom, donor atom, acceptor molecule, acceptor atom, score
      L1  H    10    30       P1  7948  1.00
      L1  H    13    47       P1 10175  2.00

> <Gold.PLP.Chemscore.Internal.Correction>
0.0447

> <Gold.Rescore>
     Score         DG    S(hbond)    S(metal)    S(lipo)     H(rot)  DE(clash)    DE(int)     intcor
     15.62     -16.22       1.96        0.00      72.26       1.67       0.03       0.58       ----

> <Gold.Chemscore.Fitness>
15.6161

> <Gold.Chemscore.DG>
-16.2237

> <Gold.Chemscore.ZeroCoef>
-5.4800

> <Gold.Chemscore.Hbond>
1.9619

> <Gold.Chemscore.Metal>
0.0000

> <Gold.Chemscore.Lipo>
72.2647

> <Gold.Chemscore.Internal_Hbond>
0.0000

> <Gold.Chemscore.DEClash>
0.0314

> <Gold.Chemscore.DEInternal>
0.5762

> <Gold.Chemscore.Rot>
1.6657

> <Gold.Chemscore.Internal.Correction>
   9.000000E+99

> <Gold.Chemscore.Hbonds>
donor molecule, donor type, donor heavy atom, donor atom, acceptor molecule, acceptor atom, score
      L1  H    10    30       P1  7948  1.00
      L1  H    13    47       P1 10175  0.89

> <Gold.Chemscore.Hbond.Weighted>
-6.5528

> <Gold.Chemscore.Metal.Weighted>
-0.0000

> <Gold.Chemscore.Lipo.Weighted>
-8.4550

> <Gold.Chemscore.Internal_Hbond.Weighted>
0.0000

> <Gold.Chemscore.DEClash.Weighted>
0.0314

> <Gold.Chemscore.DEInternal.Weighted>
0.5762

> <Gold.Chemscore.Rot.Weighted>
4.2641

> <Gold.Chemscore.Internal.Correction.Weighted>
   9.000000E+99

> <Gold.Protein.RotatedTorsions>
[ 6907 6896 6895 6894 ] final   32.48 input  -60.11 | X-H torsion
[ 7974 7965 7964 7962 ] final  131.05 input  175.53 | X-H torsion
[ 8008 7997 7996 7995 ] final   72.59 input   59.86 | X-H torsion
[ 10167 10162 10161 10158 ] final  -99.16 input  -65.29 | X-H torsion
[ 10718 10713 10712 10709 ] final  173.04 input   66.30 | X-H torsion
[ 10763 10752 10751 10750 ] final  107.96 input  -60.55 | X-H torsion
[ 11005 11000 10999 10996 ] final  -24.47 input  -57.11 | X-H torsion

> <Gold.Protein.ActiveResidues>
 VAL166  LYS551  ARG553  GLY616  TRP617  ASP618  TYR619  PRO620  LYS621  CYS622 
 ASP623  PHE694  ASN695  SER759  ASP760  ASP761  ALA762  ILE779  LEU786  VAL792 
 PHE793  MET794  SER795  GLU796  ALA797  LYS798  CYS799  TRP800  GLU811  SER814 

> <Gold.Protein.RotatedAtoms>
  152.0750  134.9508  160.0573 H   0  0  0  0  0  0  0  0  0  0  0  0  # atno 6907 bound_to 6896
  152.0819  133.4152  159.4513 H   0  0  0  0  0  0  0  0  0  0  0  0  # atno 6908 bound_to 6896
  150.6836  134.2892  159.4703 H   0  0  0  0  0  0  0  0  0  0  0  0  # atno 6909 bound_to 6896
  145.0114  139.4217  143.5243 H   0  0  0  0  0  0  0  0  0  0  0  0  # atno 7974 bound_to 7965
  155.7712  140.3484  155.5248 H   0  0  0  0  0  0  0  0  0  0  0  0  # atno 8008 bound_to 7997
  155.8820  140.1003  157.1499 H   0  0  0  0  0  0  0  0  0  0  0  0  # atno 8009 bound_to 7997
  154.4025  140.1320  156.4196 H   0  0  0  0  0  0  0  0  0  0  0  0  # atno 8010 bound_to 7997
  140.2653  143.3380  152.0586 H   0  0  0  0  0  0  0  0  0  0  0  0  # atno 10167 bound_to 10162
  156.9700  131.0087  151.2907 H   0  0  0  0  0  0  0  0  0  0  0  0  # atno 10718 bound_to 10713
  153.4140  135.3827  155.2068 H   0  0  0  0  0  0  0  0  0  0  0  0  # atno 10763 bound_to 10752
  154.8740  135.3801  154.4466 H   0  0  0  0  0  0  0  0  0  0  0  0  # atno 10764 bound_to 10752
  153.4978  135.7088  153.5911 H   0  0  0  0  0  0  0  0  0  0  0  0  # atno 10765 bound_to 10752
  140.8848  133.7629  156.0346 H   0  0  0  0  0  0  0  0  0  0  0  0  # atno 11005 bound_to 11000
  146.3470  139.9560  142.8723 LP  0  0  0  0  0  0  0  0  0  0  0  0  # atno 17320 bound_to 7965
  145.2018  140.9857  143.4151 LP  0  0  0  0  0  0  0  0  0  0  0  0  # atno 17321 bound_to 7965
  139.5004  144.6692  151.6284 LP  0  0  0  0  0  0  0  0  0  0  0  0  # atno 17342 bound_to 10162
  140.5933  143.9741  150.6338 LP  0  0  0  0  0  0  0  0  0  0  0  0  # atno 17343 bound_to 10162
  157.5599  130.8238  149.8252 LP  0  0  0  0  0  0  0  0  0  0  0  0  # atno 17370 bound_to 10713
  156.0286  130.3771  150.1750 LP  0  0  0  0  0  0  0  0  0  0  0  0  # atno 17371 bound_to 10713
  140.8418  134.3057  157.5310 LP  0  0  0  0  0  0  0  0  0  0  0  0  # atno 17394 bound_to 11000
  139.8723  134.9420  156.3813 LP  0  0  0  0  0  0  0  0  0  0  0  0  # atno 17395 bound_to 11000

$$$$
