AV-unprocessed.smi:620|AV-procd|sdf|3088|dock7
  -GOLD-   22720 0 13D 1   1.00000     0.00000
 Structure written by MMmdl.
 32 34  0  0  0  0  0  0  0  0  2 V2000
  150.1461  135.5096  155.6339 C   0  0  0  0  0  0  0  0  0  0  0  0
  151.0839  136.6265  155.9404 C   0  0  0  0  0  0  0  0  0  0  0  0
  152.1970  136.8532  155.2414 N   0  0  0  0  0  0  0  0  0  0  0  0
  152.9000  137.9465  155.7229 N   0  0  0  0  0  0  0  0  0  0  0  0
  152.3162  138.5412  156.7801 C   0  0  0  0  0  0  0  0  0  0  0  0
  152.7795  139.6210  157.4496 N   0  5  0  0  0  0  0  0  0  0  0  0
  152.0711  140.3599  158.3418 C   0  0  0  0  0  0  0  0  0  0  0  0
  151.0432  140.0304  158.9366 O   0  0  0  0  0  0  0  0  0  0  0  0
  152.6038  141.5732  158.5531 N   0  0  0  0  0  0  0  0  0  0  0  0
  152.0990  142.6180  159.4411 C   0  0  0  0  0  0  0  0  0  0  0  0
  151.7498  143.8830  158.6784 C   0  0  0  0  0  0  0  0  0  0  0  0
  152.8126  144.7134  157.9985 C   0  0  0  0  0  0  0  0  0  0  0  0
  152.1060  145.2440  159.2259 C   0  0  0  0  0  0  0  0  0  0  0  0
  153.0761  142.9249  160.5614 C   0  0  0  0  0  0  0  0  0  0  0  0
  153.3469  141.9191  161.6542 C   0  0  0  0  0  0  0  0  0  0  0  0
  152.6015  143.1968  161.9694 C   0  0  0  0  0  0  0  0  0  0  0  0
  150.8114  137.7536  157.2562 S   0  0  0  0  0  0  0  0  0  0  0  0
  150.4983  134.9355  154.7761 H   0  0  0  0  0  0  0  0  0  0  0  0
  149.1566  135.9059  155.4066 H   0  0  0  0  0  0  0  0  0  0  0  0
  150.0686  134.8426  156.4925 H   0  0  0  0  0  0  0  0  0  0  0  0
  153.4462  141.7916  158.0417 H   0  0  0  0  0  0  0  0  0  0  0  0
  151.1777  142.2767  159.9161 H   0  0  0  0  0  0  0  0  0  0  0  0
  150.7971  143.8221  158.1549 H   0  0  0  0  0  0  0  0  0  0  0  0
  153.8511  144.4097  158.1138 H   0  0  0  0  0  0  0  0  0  0  0  0
  152.5617  145.1616  157.0395 H   0  0  0  0  0  0  0  0  0  0  0  0
  151.3831  146.0451  159.0862 H   0  0  0  0  0  0  0  0  0  0  0  0
  152.6716  145.2828  160.1550 H   0  0  0  0  0  0  0  0  0  0  0  0
  153.9360  143.5081  160.2365 H   0  0  0  0  0  0  0  0  0  0  0  0
  152.7753  140.9930  161.6417 H   0  0  0  0  0  0  0  0  0  0  0  0
  154.3709  141.8305  162.0110 H   0  0  0  0  0  0  0  0  0  0  0  0
  153.1284  143.9604  162.5375 H   0  0  0  0  0  0  0  0  0  0  0  0
  151.5364  143.1142  162.1754 H   0  0  0  0  0  0  0  0  0  0  0  0
  1  2  1  0  0  0  0
  1 18  1  0  0  0  0
  1 19  1  0  0  0  0
  1 20  1  0  0  0  0
  2 17  1  0  0  0  0
  2  3  2  0  0  0  0
  3  4  1  0  0  0  0
  4  5  2  0  0  0  0
  5  6  1  0  0  0  0
  5 17  1  0  0  0  0
  6  7  1  0  0  0  0
  7  8  2  0  0  0  0
  7  9  1  0  0  0  0
  9 10  1  0  0  0  0
  9 21  1  0  0  0  0
 10 11  1  0  0  0  0
 10 14  1  0  0  0  0
 10 22  1  0  0  0  0
 11 13  1  0  0  0  0
 11 12  1  0  0  0  0
 11 23  1  0  0  0  0
 12 13  1  0  0  0  0
 12 24  1  0  0  0  0
 12 25  1  0  0  0  0
 13 26  1  0  0  0  0
 13 27  1  0  0  0  0
 14 16  1  0  0  0  0
 14 15  1  0  0  0  0
 14 28  1  0  0  0  0
 15 16  1  0  0  0  0
 15 29  1  0  0  0  0
 15 30  1  0  0  0  0
 16 31  1  0  0  0  0
 16 32  1  0  0  0  0
M  CHG  1   6  -1
M  END
> <s_m_source_file>
AV-unprocessed.smi

> <i_m_source_file_index>
620

> <i_lp_mmshare_version>
43012

> <i_f3d_flags>
0

> <s_epik_input>
W0NIM11jMW5uYyhzMSlbTkhdQyg9TylbTkhdW0NIXShbQ0hdMltDSDJdW0NIMl0yKVtDSF0zW0NIMl1bQ0gyXTM=

> <s_epik_cmdline>
J2VwaWtfcHl0aG9uJywgJy1waCcsICc3LjAnLCAnLXRuJywgJzgnLCAnLW1hJywgJzIwMCcsICctbWV0YWxfYmluZGluZycsICctaW1hZScsICc8aW5maWxlLm1hZT4nLCAnLW9tYWUnLCAnPG91dGZpbGUubWFlPic=

> <r_lp_tautomer_probability>
1

> <r_epik_Ionization_Penalty>
4.60723

> <r_epik_Ionization_Penalty_Charging>
4.45392

> <r_epik_Ionization_Penalty_Neutral>
0.153307

> <r_epik_State_Penalty>
4.4536

> <r_epik_Charging_Adjusted_Penalty>
8.90752

> <i_epik_Tot_Q>
-1

> <i_epik_Tot_abs_Q>
1

> <r_epik_Metal_State_Penalty>
0.796734

> <b_epik_Metal_Only>
1

> <s_lp_Force_Field>
OPLS_2005

> <r_lp_Energy>
26.5225

> <b_lp_Chiralities_Consistent>
1

> <s_lp_Variant>
AV-unprocessed.smi:620-2

> <Gold.Version>
5.8.1

> <Gold.Id.Protein>
6NUR|6NUR_protein|mol2

> <Gold.PLP.Fitness>
46.7083

> <Gold.PLP.PLP>
-38.3566

> <Gold.PLP.part.hbond>
-2.4048

> <Gold.PLP.part.metal>
0.0000

> <Gold.PLP.part.buried>
-5.0808

> <Gold.PLP.part.nonpolar>
-30.6425

> <Gold.PLP.part.repulsive>
0.1680

> <Gold.PLP.ligand.clash>
0.0000

> <Gold.PLP.ligand.torsion>
1.3379

> <Gold.PLP.Chemscore.Hbond>
2.9600

> <Gold.PLP.Chemscore.CHOScore>
0.0000

> <Gold.PLP.Chemscore.Metal>
0.0000

> <Gold.Chemscore.Hbonds>
donor molecule, donor type, donor heavy atom, donor atom, acceptor molecule, acceptor atom, score
      P1  H  7997  8008       L1     6  2.00
      P1  H 10752 10763       L1     3  0.93

> <Gold.PLP.Chemscore.Internal.Correction>
2.1475

> <Gold.Rescore>
     Score         DG    S(hbond)    S(metal)    S(lipo)     H(rot)  DE(clash)    DE(int)     intcor
     16.45     -19.11       1.73        0.00      98.16       1.41       0.00       2.66       ----

> <Gold.Chemscore.Fitness>
16.4506

> <Gold.Chemscore.DG>
-19.1103

> <Gold.Chemscore.ZeroCoef>
-5.4800

> <Gold.Chemscore.Hbond>
1.7253

> <Gold.Chemscore.Metal>
0.0000

> <Gold.Chemscore.Lipo>
98.1569

> <Gold.Chemscore.Internal_Hbond>
0.0000

> <Gold.Chemscore.DEClash>
0.0038

> <Gold.Chemscore.DEInternal>
2.6559

> <Gold.Chemscore.Rot>
1.4127

> <Gold.Chemscore.Internal.Correction>
   9.000000E+99

> <Gold.Chemscore.Hbonds>
donor molecule, donor type, donor heavy atom, donor atom, acceptor molecule, acceptor atom, score
      P1  H  7997  8008       L1     6  0.60
      P1  H 10752 10763       L1     3  0.82

> <Gold.Chemscore.Hbond.Weighted>
-5.7624

> <Gold.Chemscore.Metal.Weighted>
-0.0000

> <Gold.Chemscore.Lipo.Weighted>
-11.4844

> <Gold.Chemscore.Internal_Hbond.Weighted>
0.0000

> <Gold.Chemscore.DEClash.Weighted>
0.0038

> <Gold.Chemscore.DEInternal.Weighted>
2.6559

> <Gold.Chemscore.Rot.Weighted>
3.6165

> <Gold.Chemscore.Internal.Correction.Weighted>
   9.000000E+99

> <Gold.Protein.RotatedTorsions>
[ 6907 6896 6895 6894 ] final -124.44 input  -60.11 | X-H torsion
[ 7974 7965 7964 7962 ] final  -91.53 input  175.53 | X-H torsion
[ 8008 7997 7996 7995 ] final  -61.98 input   59.86 | X-H torsion
[ 10167 10162 10161 10158 ] final  -61.34 input  -65.29 | X-H torsion
[ 10718 10713 10712 10709 ] final  164.24 input   66.30 | X-H torsion
[ 10763 10752 10751 10750 ] final   63.90 input  -60.55 | X-H torsion
[ 11005 11000 10999 10996 ] final  -20.95 input  -57.11 | X-H torsion

> <Gold.Protein.ActiveResidues>
 VAL166  LYS551  ARG553  GLY616  TRP617  ASP618  TYR619  PRO620  LYS621  CYS622 
 ASP623  PHE694  ASN695  SER759  ASP760  ASP761  ALA762  ILE779  LEU786  VAL792 
 PHE793  MET794  SER795  GLU796  ALA797  LYS798  CYS799  TRP800  GLU811  SER814 

> <Gold.Protein.RotatedAtoms>
  150.8768  133.7428  159.2943 H   0  0  0  0  0  0  0  0  0  0  0  0  # atno 6907 bound_to 6896
  151.5022  135.1060  159.9841 H   0  0  0  0  0  0  0  0  0  0  0  0  # atno 6908 bound_to 6896
  152.4733  133.8034  159.7020 H   0  0  0  0  0  0  0  0  0  0  0  0  # atno 6909 bound_to 6896
  145.4119  140.9545  143.2229 H   0  0  0  0  0  0  0  0  0  0  0  0  # atno 7974 bound_to 7965
  154.4476  140.1006  156.6515 H   0  0  0  0  0  0  0  0  0  0  0  0  # atno 8008 bound_to 7997
  155.5392  140.3483  155.4424 H   0  0  0  0  0  0  0  0  0  0  0  0  # atno 8009 bound_to 7997
  156.0609  140.1326  156.9931 H   0  0  0  0  0  0  0  0  0  0  0  0  # atno 8010 bound_to 7997
  140.6012  143.2362  151.5923 H   0  0  0  0  0  0  0  0  0  0  0  0  # atno 10167 bound_to 10162
  157.0971  131.0433  151.2513 H   0  0  0  0  0  0  0  0  0  0  0  0  # atno 10718 bound_to 10713
  153.0035  135.5412  154.6426 H   0  0  0  0  0  0  0  0  0  0  0  0  # atno 10763 bound_to 10752
  154.5677  135.2839  155.0860 H   0  0  0  0  0  0  0  0  0  0  0  0  # atno 10764 bound_to 10752
  154.2038  135.6479  153.5147 H   0  0  0  0  0  0  0  0  0  0  0  0  # atno 10765 bound_to 10752
  140.8514  133.7854  155.9971 H   0  0  0  0  0  0  0  0  0  0  0  0  # atno 11005 bound_to 11000
  144.8303  139.5639  143.6946 LP  0  0  0  0  0  0  0  0  0  0  0  0  # atno 17320 bound_to 7965
  146.2700  139.6613  142.9302 LP  0  0  0  0  0  0  0  0  0  0  0  0  # atno 17321 bound_to 7965
  139.5293  144.2965  152.1109 LP  0  0  0  0  0  0  0  0  0  0  0  0  # atno 17342 bound_to 10162
  140.2146  144.4528  150.6370 LP  0  0  0  0  0  0  0  0  0  0  0  0  # atno 17343 bound_to 10162
  157.4672  130.7687  149.7290 LP  0  0  0  0  0  0  0  0  0  0  0  0  # atno 17370 bound_to 10713
  155.9883  130.3960  150.3125 LP  0  0  0  0  0  0  0  0  0  0  0  0  # atno 17371 bound_to 10713
  140.8785  134.2640  157.5156 LP  0  0  0  0  0  0  0  0  0  0  0  0  # atno 17394 bound_to 11000
  139.8704  134.9603  156.4360 LP  0  0  0  0  0  0  0  0  0  0  0  0  # atno 17395 bound_to 11000

$$$$
