AV-unprocessed.smi:213|AV-procd|sdf|1637|dock3
  -GOLD-   2262020 03D 1   1.00000     0.00000
 Structure written by MMmdl.
 59 62  0  0  0  0  0  0  0  0  2 V2000
  149.3912  141.7092  157.1443 C   0  0  0  0  0  0  0  0  0  0  0  0
  150.3197  140.5338  157.4902 C   0  0  2  0  0  0  0  0  0  0  0  0
  151.7507  141.0250  157.8193 C   0  0  0  0  0  0  0  0  0  0  0  0
  151.7871  142.0098  158.9302 N   0  3  0  0  0  0  0  0  0  0  0  0
  152.9755  141.8621  159.8006 C   0  0  0  0  0  0  0  0  0  0  0  0
  152.8870  142.8421  160.9826 C   0  0  0  0  0  0  0  0  0  0  0  0
  152.7708  144.1723  160.4920 O   0  0  0  0  0  0  0  0  0  0  0  0
  151.5955  144.3532  159.7115 C   0  0  0  0  0  0  0  0  0  0  0  0
  151.6372  143.4188  158.4908 C   0  0  0  0  0  0  0  0  0  0  0  0
  150.3008  139.5055  156.4385 N   0  0  0  0  0  0  0  0  0  0  0  0
  151.0174  139.7427  155.1858 C   0  0  0  0  0  0  0  0  0  0  0  0
  150.2083  138.2151  156.8564 C   0  0  0  0  0  0  0  0  0  0  0  0
  149.8710  137.9556  158.1485 N   0  0  0  0  0  0  0  0  0  0  0  0
  149.7219  136.6964  158.5685 C   0  0  0  0  0  0  0  0  0  0  0  0
  149.8537  135.5659  157.8738 N   0  0  0  0  0  0  0  0  0  0  0  0
  150.2105  135.8153  156.5820 C   0  0  0  0  0  0  0  0  0  0  0  0
  150.4051  137.0982  155.9955 C   0  0  0  0  0  0  0  0  0  0  0  0
  150.7555  136.9575  154.6581 N   0  0  0  0  0  0  0  0  0  0  0  0
  150.7630  135.6676  154.4635 C   0  0  0  0  0  0  0  0  0  0  0  0
  150.4576  134.9055  155.5685 N   0  0  0  0  0  0  0  0  0  0  0  0
  150.3994  133.4534  155.6264 C   0  0  0  0  0  0  0  0  0  0  0  0
  149.6009  132.7994  154.4749 C   0  0  2  0  0  0  0  0  0  0  0  0
  148.2757  133.2908  154.4857 O   0  0  0  0  0  0  0  0  0  0  0  0
  149.6176  131.2505  154.4780 C   0  0  1  0  0  0  0  0  0  0  0  0
  148.9402  130.5069  153.3161 C   0  0  0  0  0  0  0  0  0  0  0  0
  149.6967  129.1874  153.2458 C   0  0  0  0  0  0  0  0  0  0  0  0
  150.8812  129.3711  154.1986 C   0  0  0  0  0  0  0  0  0  0  0  0
  150.9512  130.7694  154.4354 O   0  0  0  0  0  0  0  0  0  0  0  0
  149.3231  142.4075  157.9787 H   0  0  0  0  0  0  0  0  0  0  0  0
  148.3812  141.3587  156.9289 H   0  0  0  0  0  0  0  0  0  0  0  0
  149.7442  142.2713  156.2799 H   0  0  0  0  0  0  0  0  0  0  0  0
  149.9097  140.1095  158.4041 H   0  0  0  0  0  0  0  0  0  0  0  0
  152.3614  140.1617  158.0866 H   0  0  0  0  0  0  0  0  0  0  0  0
  152.2178  141.4617  156.9353 H   0  0  0  0  0  0  0  0  0  0  0  0
  153.0363  140.8402  160.1771 H   0  0  0  0  0  0  0  0  0  0  0  0
  153.8814  142.0482  159.2217 H   0  0  0  0  0  0  0  0  0  0  0  0
  152.0367  142.6024  161.6236 H   0  0  0  0  0  0  0  0  0  0  0  0
  153.7829  142.7693  161.5995 H   0  0  0  0  0  0  0  0  0  0  0  0
  150.7082  144.1639  160.3175 H   0  0  0  0  0  0  0  0  0  0  0  0
  151.5426  145.3925  159.3870 H   0  0  0  0  0  0  0  0  0  0  0  0
  152.4690  143.6912  157.8393 H   0  0  0  0  0  0  0  0  0  0  0  0
  150.7234  143.5464  157.9120 H   0  0  0  0  0  0  0  0  0  0  0  0
  150.7383  139.0041  154.4332 H   0  0  0  0  0  0  0  0  0  0  0  0
  152.0959  139.6869  155.3366 H   0  0  0  0  0  0  0  0  0  0  0  0
  150.7822  140.7239  154.7757 H   0  0  0  0  0  0  0  0  0  0  0  0
  149.4508  136.5773  159.6073 H   0  0  0  0  0  0  0  0  0  0  0  0
  151.0048  135.2331  153.5043 H   0  0  0  0  0  0  0  0  0  0  0  0
  151.4185  133.0651  155.6541 H   0  0  0  0  0  0  0  0  0  0  0  0
  149.9462  133.1766  156.5791 H   0  0  0  0  0  0  0  0  0  0  0  0
  150.0534  133.1412  153.5433 H   0  0  0  0  0  0  0  0  0  0  0  0
  147.9313  133.2369  153.6071 H   0  0  0  0  0  0  0  0  0  0  0  0
  149.1947  130.8983  155.4212 H   0  0  0  0  0  0  0  0  0  0  0  0
  147.8728  130.3599  153.4767 H   0  0  0  0  0  0  0  0  0  0  0  0
  149.0598  131.0324  152.3690 H   0  0  0  0  0  0  0  0  0  0  0  0
  149.0757  128.3452  153.5531 H   0  0  0  0  0  0  0  0  0  0  0  0
  150.0368  128.9971  152.2272 H   0  0  0  0  0  0  0  0  0  0  0  0
  150.6955  128.8582  155.1435 H   0  0  0  0  0  0  0  0  0  0  0  0
  151.8159  128.9923  153.7845 H   0  0  0  0  0  0  0  0  0  0  0  0
  150.9898  141.8002  159.5148 H   0  0  0  0  0  0  0  0  0  0  0  0
  1  2  1  0  0  0  0
  1 29  1  0  0  0  0
  1 30  1  0  0  0  0
  1 31  1  0  0  0  0
  2  3  1  0  0  0  0
  2 10  1  0  0  0  0
  2 32  1  0  0  0  0
  3  4  1  0  0  0  0
  3 33  1  0  0  0  0
  3 34  1  0  0  0  0
  4  9  1  0  0  0  0
  4  5  1  0  0  0  0
  4 59  1  0  0  0  0
  5  6  1  0  0  0  0
  5 35  1  0  0  0  0
  5 36  1  0  0  0  0
  6  7  1  0  0  0  0
  6 37  1  0  0  0  0
  6 38  1  0  0  0  0
  7  8  1  0  0  0  0
  8  9  1  0  0  0  0
  8 39  1  0  0  0  0
  8 40  1  0  0  0  0
  9 41  1  0  0  0  0
  9 42  1  0  0  0  0
 10 11  1  0  0  0  0
 10 12  1  0  0  0  0
 11 43  1  0  0  0  0
 11 44  1  0  0  0  0
 11 45  1  0  0  0  0
 12 17  1  0  0  0  0
 12 13  2  0  0  0  0
 13 14  1  0  0  0  0
 14 15  2  0  0  0  0
 14 46  1  0  0  0  0
 15 16  1  0  0  0  0
 16 20  1  0  0  0  0
 16 17  2  0  0  0  0
 17 18  1  0  0  0  0
 18 19  2  0  0  0  0
 19 20  1  0  0  0  0
 19 47  1  0  0  0  0
 20 21  1  0  0  0  0
 21 22  1  0  0  0  0
 21 48  1  0  0  0  0
 21 49  1  0  0  0  0
 22 23  1  0  0  0  0
 22 24  1  0  0  0  0
 22 50  1  0  0  0  0
 23 51  1  0  0  0  0
 24 28  1  0  0  0  0
 24 25  1  0  0  0  0
 24 52  1  0  0  0  0
 25 26  1  0  0  0  0
 25 53  1  0  0  0  0
 25 54  1  0  0  0  0
 26 27  1  0  0  0  0
 26 55  1  0  0  0  0
 26 56  1  0  0  0  0
 27 28  1  0  0  0  0
 27 57  1  0  0  0  0
 27 58  1  0  0  0  0
M  CHG  1   4   1
M  END
> <s_m_source_file>
AV-unprocessed.smi

> <i_m_source_file_index>
213

> <i_lp_mmshare_version>
43012

> <i_f3d_flags>
0

> <s_epik_input>
W0NIMl0xW0NIMl1PW0NIMl1bQ0gyXU4xW0NIMl1bQ0BASF0oW0NIM10pTihbQ0gzXSljKG5bY0hdbjIpYyhjMjMpbltjSF1uM1tDSDJdW0NASF0oW09IXSlbQ0BASF00W0NIMl1bQ0gyXVtDSDJdTzQ=

> <s_epik_cmdline>
J2VwaWtfcHl0aG9uJywgJy1waCcsICc3LjAnLCAnLXRuJywgJzgnLCAnLW1hJywgJzIwMCcsICctbWV0YWxfYmluZGluZycsICctaW1hZScsICc8aW5maWxlLm1hZT4nLCAnLW9tYWUnLCAnPG91dGZpbGUubWFlPic=

> <r_lp_tautomer_probability>
1

> <r_epik_Ionization_Penalty>
0.399679

> <r_epik_Ionization_Penalty_Charging>
0.399433

> <r_epik_Ionization_Penalty_Neutral>
0.000246213

> <r_epik_State_Penalty>
0.286032

> <r_epik_Charging_Adjusted_Penalty>
0.685465

> <i_epik_Tot_Q>
1

> <i_epik_Tot_abs_Q>
1

> <r_epik_Metal_State_Penalty>
0.286072

> <b_epik_Metal_Only>
0

> <s_lp_Force_Field>
OPLS_2005

> <r_lp_Energy>
48.2471

> <b_lp_Chiralities_Consistent>
1

> <s_lp_Variant>
AV-unprocessed.smi:213-5

> <Gold.Version>
5.8.1

> <Gold.Id.Protein>
6NUR|6NUR_protein|mol2

> <Gold.PLP.Fitness>
45.4922

> <Gold.PLP.PLP>
-41.0406

> <Gold.PLP.part.hbond>
-1.0000

> <Gold.PLP.part.metal>
0.0000

> <Gold.PLP.part.buried>
-4.3386

> <Gold.PLP.part.nonpolar>
-35.8163

> <Gold.PLP.part.repulsive>
0.3443

> <Gold.PLP.ligand.clash>
0.0000

> <Gold.PLP.ligand.torsion>
1.0676

> <Gold.PLP.Chemscore.Hbond>
1.0000

> <Gold.PLP.Chemscore.CHOScore>
0.8399

> <Gold.PLP.Chemscore.Metal>
0.0000

> <Gold.Chemscore.Hbonds>
donor molecule, donor type, donor heavy atom, donor atom, acceptor molecule, acceptor atom, score
      P1  H  6896  6909       L1    15  0.56
      L1  C    19    47       P1  7949  0.73

> <Gold.PLP.Chemscore.Internal.Correction>
1.0672

> <Gold.Rescore>
     Score         DG    S(hbond)    S(metal)    S(lipo)     H(rot)  DE(clash)    DE(int)     intcor
     10.18     -12.67       0.85        0.00      99.16       2.83       0.07       2.41       ----

> <Gold.Chemscore.Fitness>
10.1849

> <Gold.Chemscore.DG>
-12.6714

> <Gold.Chemscore.ZeroCoef>
-5.4800

> <Gold.Chemscore.Hbond>
0.8450

> <Gold.Chemscore.Metal>
0.0000

> <Gold.Chemscore.Lipo>
99.1620

> <Gold.Chemscore.Internal_Hbond>
0.0000

> <Gold.Chemscore.DEClash>
0.0743

> <Gold.Chemscore.DEInternal>
2.4122

> <Gold.Chemscore.Rot>
2.8254

> <Gold.Chemscore.Internal.Correction>
   9.000000E+99

> <Gold.Chemscore.Hbonds>
donor molecule, donor type, donor heavy atom, donor atom, acceptor molecule, acceptor atom, score
      P1  H  6896  6909       L1    15  0.07

> <Gold.Chemscore.Hbond.Weighted>
-2.8224

> <Gold.Chemscore.Metal.Weighted>
-0.0000

> <Gold.Chemscore.Lipo.Weighted>
-11.6019

> <Gold.Chemscore.Internal_Hbond.Weighted>
0.0000

> <Gold.Chemscore.DEClash.Weighted>
0.0743

> <Gold.Chemscore.DEInternal.Weighted>
2.4122

> <Gold.Chemscore.Rot.Weighted>
7.2330

> <Gold.Chemscore.Internal.Correction.Weighted>
   9.000000E+99

> <Gold.Protein.RotatedTorsions>
[ 6907 6896 6895 6894 ] final   41.84 input  -60.11 | X-H torsion
[ 7974 7965 7964 7962 ] final -103.62 input  175.53 | X-H torsion
[ 8008 7997 7996 7995 ] final   33.04 input   59.86 | X-H torsion
[ 10167 10162 10161 10158 ] final  134.66 input  -65.29 | X-H torsion
[ 10718 10713 10712 10709 ] final   -6.99 input   66.30 | X-H torsion
[ 10763 10752 10751 10750 ] final  173.45 input  -60.55 | X-H torsion
[ 11005 11000 10999 10996 ] final  176.58 input  -57.11 | X-H torsion

> <Gold.Protein.ActiveResidues>
 VAL166  LYS551  ARG553  GLY616  TRP617  ASP618  TYR619  PRO620  LYS621  CYS622 
 ASP623  PHE694  ASN695  SER759  ASP760  ASP761  ALA762  ILE779  LEU786  VAL792 
 PHE793  MET794  SER795  GLU796  ALA797  LYS798  CYS799  TRP800  GLU811  SER814 

> <Gold.Protein.RotatedAtoms>
  152.2003  134.8593  160.0508 H   0  0  0  0  0  0  0  0  0  0  0  0  # atno 6907 bound_to 6896
  151.9449  133.3644  159.3987 H   0  0  0  0  0  0  0  0  0  0  0  0  # atno 6908 bound_to 6896
  150.6953  134.4325  159.5299 H   0  0  0  0  0  0  0  0  0  0  0  0  # atno 6909 bound_to 6896
  145.2535  140.9246  143.3081 H   0  0  0  0  0  0  0  0  0  0  0  0  # atno 7974 bound_to 7965
  155.1323  140.3258  155.4471 H   0  0  0  0  0  0  0  0  0  0  0  0  # atno 8008 bound_to 7997
  156.2630  140.2008  156.6390 H   0  0  0  0  0  0  0  0  0  0  0  0  # atno 8009 bound_to 7997
  154.6604  140.0548  157.0042 H   0  0  0  0  0  0  0  0  0  0  0  0  # atno 8010 bound_to 7997
  139.5247  144.6556  151.5171 H   0  0  0  0  0  0  0  0  0  0  0  0  # atno 10167 bound_to 10162
  156.7237  130.5159  149.5862 H   0  0  0  0  0  0  0  0  0  0  0  0  # atno 10718 bound_to 10713
  154.4402  135.2762  155.1852 H   0  0  0  0  0  0  0  0  0  0  0  0  # atno 10763 bound_to 10752
  154.3722  135.6106  153.5749 H   0  0  0  0  0  0  0  0  0  0  0  0  # atno 10764 bound_to 10752
  152.9840  135.5860  154.4729 H   0  0  0  0  0  0  0  0  0  0  0  0  # atno 10765 bound_to 10752
  140.3747  134.6999  157.4414 H   0  0  0  0  0  0  0  0  0  0  0  0  # atno 11005 bound_to 11000
  144.9481  139.4113  143.6416 LP  0  0  0  0  0  0  0  0  0  0  0  0  # atno 17320 bound_to 7965
  146.3296  139.8475  142.8879 LP  0  0  0  0  0  0  0  0  0  0  0  0  # atno 17321 bound_to 7965
  140.6380  143.8945  150.6665 LP  0  0  0  0  0  0  0  0  0  0  0  0  # atno 17342 bound_to 10162
  140.2270  143.3764  152.1596 LP  0  0  0  0  0  0  0  0  0  0  0  0  # atno 17343 bound_to 10162
  156.1576  130.6352  151.0678 LP  0  0  0  0  0  0  0  0  0  0  0  0  # atno 17370 bound_to 10713
  157.6887  131.0817  150.7169 LP  0  0  0  0  0  0  0  0  0  0  0  0  # atno 17371 bound_to 10713
  140.0524  134.6111  155.8845 LP  0  0  0  0  0  0  0  0  0  0  0  0  # atno 17394 bound_to 11000
  141.1943  133.6582  156.5589 LP  0  0  0  0  0  0  0  0  0  0  0  0  # atno 17395 bound_to 11000

$$$$
