AV-unprocessed.smi:1047|AV-procd|sdf|4561|dock7
  -GOLD-   22720 3 03D 1   1.00000     0.00000
 Structure written by MMmdl.
 57 59  0  0  0  0  0  0  0  0  3 V2000
  143.5086  139.1097  156.2085 C   0  0  0  0  0  0  0  0  0  0  0  0
  144.9953  139.3685  155.9250 C   0  0  0  0  0  0  0  0  0  0  0  0
  145.3853  138.9823  154.5426 N   0  3  2  0  0  0  0  0  0  0  0  0
  145.1630  137.5467  154.2431 C   0  0  0  0  0  0  0  0  0  0  0  0
  146.2743  136.6731  154.8513 C   0  0  0  0  0  0  0  0  0  0  0  0
  147.5386  137.1130  154.3693 O   0  0  0  0  0  0  0  0  0  0  0  0
  147.8322  138.4543  154.7481 C   0  0  1  0  0  0  0  0  0  0  0  0
  149.2392  138.7966  154.2337 C   0  0  0  0  0  0  0  0  0  0  0  0
  150.1382  137.6270  154.3077 N   0  3  0  0  0  0  0  0  0  0  0  0
  151.5737  137.9700  154.3614 C   0  0  0  0  0  0  0  0  0  0  0  0
  151.8458  139.0719  155.3986 C   0  0  2  0  0  0  0  0  0  0  0  0
  153.2270  139.3785  155.3811 O   0  0  0  0  0  0  0  0  0  0  0  0
  151.4375  138.6387  156.8198 C   0  0  0  0  0  0  0  0  0  0  0  0
  152.2288  139.2922  157.8471 N   0  0  0  0  0  0  0  0  0  0  0  0
  153.3366  138.8164  158.4484 C   0  0  0  0  0  0  0  0  0  0  0  0
  153.9109  139.5894  159.3652 N   0  0  0  0  0  0  0  0  0  0  0  0
  153.0739  140.6920  159.3652 C   0  0  0  0  0  0  0  0  0  0  0  0
  153.1255  141.8824  160.1229 C   0  0  0  0  0  0  0  0  0  0  0  0
  152.1475  142.8891  159.9582 C   0  0  0  0  0  0  0  0  0  0  0  0
  152.2402  144.1523  160.7961 C   0  0  0  0  0  0  0  0  0  0  0  0
  151.0973  142.7135  159.0214 C   0  0  0  0  0  0  0  0  0  0  0  0
  150.0344  143.7810  158.8306 C   0  0  0  0  0  0  0  0  0  0  0  0
  151.0330  141.5317  158.2534 C   0  0  0  0  0  0  0  0  0  0  0  0
  152.0110  140.5366  158.4278 C   0  0  0  0  0  0  0  0  0  0  0  0
  146.7584  139.3876  154.1435 C   0  0  0  0  0  0  0  0  0  0  0  0
  143.2780  139.3101  157.2551 H   0  0  0  0  0  0  0  0  0  0  0  0
  143.2435  138.0712  156.0066 H   0  0  0  0  0  0  0  0  0  0  0  0
  142.8585  139.7461  155.6089 H   0  0  0  0  0  0  0  0  0  0  0  0
  145.2451  140.4102  156.1263 H   0  0  0  0  0  0  0  0  0  0  0  0
  145.5731  138.7751  156.6346 H   0  0  0  0  0  0  0  0  0  0  0  0
  144.1809  137.2255  154.5920 H   0  0  0  0  0  0  0  0  0  0  0  0
  145.1581  137.4193  153.1596 H   0  0  0  0  0  0  0  0  0  0  0  0
  146.2526  136.7039  155.9418 H   0  0  0  0  0  0  0  0  0  0  0  0
  146.1318  135.6318  154.5619 H   0  0  0  0  0  0  0  0  0  0  0  0
  147.8288  138.5369  155.8362 H   0  0  0  0  0  0  0  0  0  0  0  0
  149.1912  139.1597  153.2059 H   0  0  0  0  0  0  0  0  0  0  0  0
  149.6652  139.5984  154.8383 H   0  0  0  0  0  0  0  0  0  0  0  0
  149.9148  137.0962  155.1381 H   0  0  0  0  0  0  0  0  0  0  0  0
  152.1340  137.0714  154.6231 H   0  0  0  0  0  0  0  0  0  0  0  0
  151.9160  138.2840  153.3740 H   0  0  0  0  0  0  0  0  0  0  0  0
  151.2911  139.9712  155.1265 H   0  0  0  0  0  0  0  0  0  0  0  0
  153.6034  139.0235  154.5893 H   0  0  0  0  0  0  0  0  0  0  0  0
  150.3877  138.8745  156.9996 H   0  0  0  0  0  0  0  0  0  0  0  0
  151.5377  137.5583  156.9356 H   0  0  0  0  0  0  0  0  0  0  0  0
  153.7481  137.8503  158.1943 H   0  0  0  0  0  0  0  0  0  0  0  0
  153.9254  142.0161  160.8364 H   0  0  0  0  0  0  0  0  0  0  0  0
  151.3340  144.2877  161.3867 H   0  0  0  0  0  0  0  0  0  0  0  0
  152.3710  145.0252  160.1564 H   0  0  0  0  0  0  0  0  0  0  0  0
  153.0842  144.1125  161.4852 H   0  0  0  0  0  0  0  0  0  0  0  0
  149.3194  143.4980  158.0576 H   0  0  0  0  0  0  0  0  0  0  0  0
  150.4900  144.7261  158.5345 H   0  0  0  0  0  0  0  0  0  0  0  0
  149.4810  143.9381  159.7567 H   0  0  0  0  0  0  0  0  0  0  0  0
  150.2385  141.3855  157.5368 H   0  0  0  0  0  0  0  0  0  0  0  0
  146.8157  139.3435  153.0549 H   0  0  0  0  0  0  0  0  0  0  0  0
  146.9530  140.4254  154.4119 H   0  0  0  0  0  0  0  0  0  0  0  0
  149.9781  137.0428  153.4993 H   0  0  0  0  0  0  0  0  0  0  0  0
  144.7490  139.4885  153.9425 H   0  0  0  0  0  0  0  0  0  0  0  0
  1  2  1  0  0  0  0
  1 26  1  0  0  0  0
  1 27  1  0  0  0  0
  1 28  1  0  0  0  0
  2  3  1  0  0  0  0
  2 29  1  0  0  0  0
  2 30  1  0  0  0  0
  3 25  1  0  0  0  0
  3  4  1  0  0  0  0
  3 57  1  0  0  0  0
  4  5  1  0  0  0  0
  4 31  1  0  0  0  0
  4 32  1  0  0  0  0
  5  6  1  0  0  0  0
  5 33  1  0  0  0  0
  5 34  1  0  0  0  0
  6  7  1  0  0  0  0
  7  8  1  0  0  0  0
  7 25  1  0  0  0  0
  7 35  1  0  0  0  0
  8  9  1  0  0  0  0
  8 36  1  0  0  0  0
  8 37  1  0  0  0  0
  9 10  1  0  0  0  0
  9 38  1  0  0  0  0
  9 56  1  0  0  0  0
 10 11  1  0  0  0  0
 10 39  1  0  0  0  0
 10 40  1  0  0  0  0
 11 12  1  0  0  0  0
 11 13  1  0  0  0  0
 11 41  1  0  0  0  0
 12 42  1  0  0  0  0
 13 14  1  0  0  0  0
 13 43  1  0  0  0  0
 13 44  1  0  0  0  0
 14 24  1  0  0  0  0
 14 15  1  0  0  0  0
 15 16  2  0  0  0  0
 15 45  1  0  0  0  0
 16 17  1  0  0  0  0
 17 24  2  0  0  0  0
 17 18  1  0  0  0  0
 18 19  2  0  0  0  0
 18 46  1  0  0  0  0
 19 20  1  0  0  0  0
 19 21  1  0  0  0  0
 20 47  1  0  0  0  0
 20 48  1  0  0  0  0
 20 49  1  0  0  0  0
 21 22  1  0  0  0  0
 21 23  2  0  0  0  0
 22 50  1  0  0  0  0
 22 51  1  0  0  0  0
 22 52  1  0  0  0  0
 23 24  1  0  0  0  0
 23 53  1  0  0  0  0
 25 54  1  0  0  0  0
 25 55  1  0  0  0  0
M  CHG  1   3   1
M  CHG  1   9   1
M  END
> <s_m_source_file>
AV-unprocessed.smi

> <i_m_source_file_index>
1047

> <i_lp_mmshare_version>
43012

> <i_f3d_flags>
0

> <s_epik_input>
W0NIM11bQ0gyXU4xW0NIMl1bQ0gyXU9bQ0BIXShbQ0gyXTEpW0NIMl1bTkhdW0NIMl1bQ0BIXShbT0hdKVtDSDJdbihbY0hdbjIpYyhjMjMpW2NIXWMoW0NIM10pYyhbY0hdMylbQ0gzXQ==

> <s_epik_cmdline>
J2VwaWtfcHl0aG9uJywgJy1waCcsICc3LjAnLCAnLXRuJywgJzgnLCAnLW1hJywgJzIwMCcsICctbWV0YWxfYmluZGluZycsICctaW1hZScsICc8aW5maWxlLm1hZT4nLCAnLW9tYWUnLCAnPG91dGZpbGUubWFlPic=

> <r_epik_Ionization_Penalty>
0.528991

> <r_epik_Ionization_Penalty_Charging>
0.438567

> <r_epik_Ionization_Penalty_Neutral>
0.0904237

> <r_epik_State_Penalty>
0.533036

> <r_epik_Charging_Adjusted_Penalty>
0.971603

> <i_epik_Tot_Q>
2

> <i_epik_Tot_abs_Q>
2

> <r_epik_Metal_State_Penalty>
0.448985

> <b_epik_Metal_Only>
0

> <s_lp_Force_Field>
OPLS_2005

> <r_lp_Energy>
30.8403

> <b_lp_Chiralities_Consistent>
1

> <s_lp_Variant>
AV-unprocessed.smi:1047-2

> <Gold.Version>
5.8.1

> <Gold.Id.Protein>
6NUR|6NUR_protein|mol2

> <Gold.PLP.Fitness>
51.3534

> <Gold.PLP.PLP>
-38.5681

> <Gold.PLP.part.hbond>
-3.0000

> <Gold.PLP.part.metal>
0.0000

> <Gold.PLP.part.buried>
-6.3654

> <Gold.PLP.part.nonpolar>
-31.3958

> <Gold.PLP.part.repulsive>
1.4026

> <Gold.PLP.ligand.clash>
0.0000

> <Gold.PLP.ligand.torsion>
1.1512

> <Gold.PLP.Chemscore.Hbond>
5.0000

> <Gold.PLP.Chemscore.CHOScore>
0.0000

> <Gold.PLP.Chemscore.Metal>
0.0000

> <Gold.Chemscore.Hbonds>
donor molecule, donor type, donor heavy atom, donor atom, acceptor molecule, acceptor atom, score
      L1  H     3    57       P1 10175  1.85
      L1  H     9    56       P1  7948  1.89
      P1  H  7997  8008       L1    12  1.00

> <Gold.PLP.Chemscore.Internal.Correction>
0.0879

> <Gold.Rescore>
     Score         DG    S(hbond)    S(metal)    S(lipo)     H(rot)  DE(clash)    DE(int)     intcor
     19.21     -20.62       2.73        0.00     110.61       2.70       0.20       1.21       ----

> <Gold.Chemscore.Fitness>
19.2068

> <Gold.Chemscore.DG>
-20.6177

> <Gold.Chemscore.ZeroCoef>
-5.4800

> <Gold.Chemscore.Hbond>
2.7258

> <Gold.Chemscore.Metal>
0.0000

> <Gold.Chemscore.Lipo>
110.6118

> <Gold.Chemscore.Internal_Hbond>
0.0000

> <Gold.Chemscore.DEClash>
0.1972

> <Gold.Chemscore.DEInternal>
1.2137

> <Gold.Chemscore.Rot>
2.6985

> <Gold.Chemscore.Internal.Correction>
   9.000000E+99

> <Gold.Chemscore.Hbonds>
donor molecule, donor type, donor heavy atom, donor atom, acceptor molecule, acceptor atom, score
      L1  H     3    57       P1 10175  0.89
      L1  H     9    56       P1  7948  0.27
      P1  H  7997  8008       L1    12  0.58

> <Gold.Chemscore.Hbond.Weighted>
-9.1043

> <Gold.Chemscore.Metal.Weighted>
-0.0000

> <Gold.Chemscore.Lipo.Weighted>
-12.9416

> <Gold.Chemscore.Internal_Hbond.Weighted>
0.0000

> <Gold.Chemscore.DEClash.Weighted>
0.1972

> <Gold.Chemscore.DEInternal.Weighted>
1.2137

> <Gold.Chemscore.Rot.Weighted>
6.9081

> <Gold.Chemscore.Internal.Correction.Weighted>
   9.000000E+99

> <Gold.Protein.RotatedTorsions>
[ 6907 6896 6895 6894 ] final   96.29 input  -60.11 | X-H torsion
[ 7974 7965 7964 7962 ] final  -98.26 input  175.53 | X-H torsion
[ 8008 7997 7996 7995 ] final  -32.00 input   59.86 | X-H torsion
[ 10167 10162 10161 10158 ] final  -48.44 input  -65.29 | X-H torsion
[ 10718 10713 10712 10709 ] final   79.52 input   66.30 | X-H torsion
[ 10763 10752 10751 10750 ] final   29.92 input  -60.55 | X-H torsion
[ 11005 11000 10999 10996 ] final   87.04 input  -57.11 | X-H torsion

> <Gold.Protein.ActiveResidues>
 VAL166  LYS551  ARG553  GLY616  TRP617  ASP618  TYR619  PRO620  LYS621  CYS622 
 ASP623  PHE694  ASN695  SER759  ASP760  ASP761  ALA762  ILE779  LEU786  VAL792 
 PHE793  MET794  SER795  GLU796  ALA797  LYS798  CYS799  TRP800  GLU811  SER814 

> <Gold.Protein.RotatedAtoms>
  152.5436  134.0908  159.8275 H   0  0  0  0  0  0  0  0  0  0  0  0  # atno 6907 bound_to 6896
  151.0998  133.5245  159.2618 H   0  0  0  0  0  0  0  0  0  0  0  0  # atno 6908 bound_to 6896
  151.2004  135.0449  159.8924 H   0  0  0  0  0  0  0  0  0  0  0  0  # atno 6909 bound_to 6896
  145.3230  140.9425  143.2705 H   0  0  0  0  0  0  0  0  0  0  0  0  # atno 7974 bound_to 7965
  154.4194  140.1749  156.1657 H   0  0  0  0  0  0  0  0  0  0  0  0  # atno 8008 bound_to 7997
  155.9802  140.3378  155.6632 H   0  0  0  0  0  0  0  0  0  0  0  0  # atno 8009 bound_to 7997
  155.6510  140.0690  157.2577 H   0  0  0  0  0  0  0  0  0  0  0  0  # atno 8010 bound_to 7997
  140.6731  143.2740  151.4070 H   0  0  0  0  0  0  0  0  0  0  0  0  # atno 10167 bound_to 10162
  157.6779  130.9918  150.1944 H   0  0  0  0  0  0  0  0  0  0  0  0  # atno 10718 bound_to 10713
  153.0401  135.6477  154.0965 H   0  0  0  0  0  0  0  0  0  0  0  0  # atno 10763 bound_to 10752
  154.0673  135.2883  155.3316 H   0  0  0  0  0  0  0  0  0  0  0  0  # atno 10764 bound_to 10752
  154.6617  135.5389  153.8092 H   0  0  0  0  0  0  0  0  0  0  0  0  # atno 10765 bound_to 10752
  139.8929  134.8395  156.2804 H   0  0  0  0  0  0  0  0  0  0  0  0  # atno 11005 bound_to 11000
  144.8924  139.4757  143.6671 LP  0  0  0  0  0  0  0  0  0  0  0  0  # atno 17320 bound_to 7965
  146.3075  139.7630  142.9045 LP  0  0  0  0  0  0  0  0  0  0  0  0  # atno 17321 bound_to 7965
  139.6009  144.1298  152.2197 LP  0  0  0  0  0  0  0  0  0  0  0  0  # atno 17342 bound_to 10162
  140.0682  144.5801  150.7212 LP  0  0  0  0  0  0  0  0  0  0  0  0  # atno 17343 bound_to 10162
  156.2649  130.3715  149.8092 LP  0  0  0  0  0  0  0  0  0  0  0  0  # atno 17370 bound_to 10713
  156.5826  130.8472  151.3387 LP  0  0  0  0  0  0  0  0  0  0  0  0  # atno 17371 bound_to 10713
  141.0042  133.7133  156.1009 LP  0  0  0  0  0  0  0  0  0  0  0  0  # atno 17394 bound_to 11000
  140.7456  134.4102  157.5549 LP  0  0  0  0  0  0  0  0  0  0  0  0  # atno 17395 bound_to 11000

$$$$
