AV-unprocessed.smi:1166|AV-procd|sdf|4937|dock10
  -GOLD-   22720 3523D 1   1.00000     0.00000
 Structure written by MMmdl.
 46 47  0  0  0  0  0  0  0  0  1 V2000
  150.8250  142.1074  158.1922 C   0  0  0  0  0  0  0  0  0  0  0  0
  151.1914  143.1855  159.1051 N   0  0  0  0  0  0  0  0  0  0  0  0
  150.6974  144.5364  158.8688 C   0  0  0  0  0  0  0  0  0  0  0  0
  152.0713  142.9278  160.1813 C   0  0  0  0  0  0  0  0  0  0  0  0
  152.0531  143.7178  161.3576 C   0  0  0  0  0  0  0  0  0  0  0  0
  152.9499  143.4233  162.4026 C   0  0  0  0  0  0  0  0  0  0  0  0
  153.8443  142.3386  162.2545 C   0  0  0  0  0  0  0  0  0  0  0  0
  154.8102  141.9514  163.2227 N   0  0  0  0  0  0  0  0  0  0  0  0
  155.1666  142.5814  164.3553 C   0  0  0  0  0  0  0  0  0  0  0  0
  154.6690  143.6241  164.7797 O   0  0  0  0  0  0  0  0  0  0  0  0
  156.1382  141.9135  164.9931 N   0  0  0  0  0  0  0  0  0  0  0  0
  156.7546  142.3199  166.2522 C   0  0  1  0  0  0  0  0  0  0  0  0
  157.3003  143.7544  166.1552 C   0  0  0  0  0  0  0  0  0  0  0  0
  157.8910  144.1759  167.5051 C   0  0  0  0  0  0  0  0  0  0  0  0
  156.8575  144.0362  168.6365 C   0  0  0  0  0  0  0  0  0  0  0  0
  156.2717  142.6807  168.6765 N   0  0  0  0  0  0  0  0  0  0  0  0
  156.8184  141.5316  169.8636 S   0  0  0  0  0  0  0  0  0  0  0  0
  155.4862  141.5252  171.1324 C   0  0  0  0  0  0  0  0  0  0  0  0
  156.8491  140.2070  169.2247 O   0  0  0  0  0  0  0  0  0  0  0  0
  158.0390  142.0704  170.4828 O   0  0  0  0  0  0  0  0  0  0  0  0
  155.7215  142.2079  167.3904 C   0  0  0  0  0  0  0  0  0  0  0  0
  153.7968  141.6173  161.0456 C   0  0  0  0  0  0  0  0  0  0  0  0
  152.9386  141.8954  160.0426 N   0  0  0  0  0  0  0  0  0  0  0  0
  150.3342  141.2977  158.7329 H   0  0  0  0  0  0  0  0  0  0  0  0
  151.7107  141.7077  157.6973 H   0  0  0  0  0  0  0  0  0  0  0  0
  150.1388  142.4548  157.4198 H   0  0  0  0  0  0  0  0  0  0  0  0
  151.5266  145.2235  158.6980 H   0  0  0  0  0  0  0  0  0  0  0  0
  150.1208  144.8887  159.7245 H   0  0  0  0  0  0  0  0  0  0  0  0
  150.0490  144.5751  157.9931 H   0  0  0  0  0  0  0  0  0  0  0  0
  151.3727  144.5468  161.4791 H   0  0  0  0  0  0  0  0  0  0  0  0
  152.9394  144.0443  163.2841 H   0  0  0  0  0  0  0  0  0  0  0  0
  155.2574  141.0625  163.0515 H   0  0  0  0  0  0  0  0  0  0  0  0
  156.4824  141.0620  164.5740 H   0  0  0  0  0  0  0  0  0  0  0  0
  157.5822  141.6436  166.4672 H   0  0  0  0  0  0  0  0  0  0  0  0
  158.0651  143.8220  165.3806 H   0  0  0  0  0  0  0  0  0  0  0  0
  156.5026  144.4420  165.8704 H   0  0  0  0  0  0  0  0  0  0  0  0
  158.7706  143.5717  167.7232 H   0  0  0  0  0  0  0  0  0  0  0  0
  158.2382  145.2079  167.4501 H   0  0  0  0  0  0  0  0  0  0  0  0
  157.3102  144.2836  169.5963 H   0  0  0  0  0  0  0  0  0  0  0  0
  156.0511  144.7543  168.4837 H   0  0  0  0  0  0  0  0  0  0  0  0
  155.7436  140.8104  171.9136 H   0  0  0  0  0  0  0  0  0  0  0  0
  154.5424  141.2276  170.6789 H   0  0  0  0  0  0  0  0  0  0  0  0
  155.3918  142.5137  171.5781 H   0  0  0  0  0  0  0  0  0  0  0  0
  154.8436  142.8105  167.1541 H   0  0  0  0  0  0  0  0  0  0  0  0
  155.3703  141.1806  167.4868 H   0  0  0  0  0  0  0  0  0  0  0  0
  154.4663  140.7868  160.8760 H   0  0  0  0  0  0  0  0  0  0  0  0
  1  2  1  0  0  0  0
  1 24  1  0  0  0  0
  1 25  1  0  0  0  0
  1 26  1  0  0  0  0
  2  3  1  0  0  0  0
  2  4  1  0  0  0  0
  3 27  1  0  0  0  0
  3 28  1  0  0  0  0
  3 29  1  0  0  0  0
  4 23  1  0  0  0  0
  4  5  2  0  0  0  0
  5  6  1  0  0  0  0
  5 30  1  0  0  0  0
  6  7  2  0  0  0  0
  6 31  1  0  0  0  0
  7  8  1  0  0  0  0
  7 22  1  0  0  0  0
  8  9  1  0  0  0  0
  8 32  1  0  0  0  0
  9 10  2  0  0  0  0
  9 11  1  0  0  0  0
 11 12  1  0  0  0  0
 11 33  1  0  0  0  0
 12 21  1  0  0  0  0
 12 13  1  0  0  0  0
 12 34  1  0  0  0  0
 13 14  1  0  0  0  0
 13 35  1  0  0  0  0
 13 36  1  0  0  0  0
 14 15  1  0  0  0  0
 14 37  1  0  0  0  0
 14 38  1  0  0  0  0
 15 16  1  0  0  0  0
 15 39  1  0  0  0  0
 15 40  1  0  0  0  0
 16 17  1  0  0  0  0
 16 21  1  0  0  0  0
 17 18  1  0  0  0  0
 17 19  2  0  0  0  0
 17 20  2  0  0  0  0
 18 41  1  0  0  0  0
 18 42  1  0  0  0  0
 18 43  1  0  0  0  0
 21 44  1  0  0  0  0
 21 45  1  0  0  0  0
 22 23  2  0  0  0  0
 22 46  1  0  0  0  0
M  END
> <s_m_source_file>
AV-unprocessed.smi

> <i_m_source_file_index>
1166

> <i_lp_mmshare_version>
43012

> <i_f3d_flags>
0

> <s_epik_input>
W0NIM11OKFtDSDNdKWMxW2NIXVtjSF1jKFtjSF1uMSlbTkhdQyg9TylbTkhdW0NAQEhdMltDSDJdW0NIMl1bQ0gyXU4oW0NIMl0yKVMoPU8pKD1PKVtDSDNd

> <s_epik_cmdline>
J2VwaWtfcHl0aG9uJywgJy1waCcsICc3LjAnLCAnLXRuJywgJzgnLCAnLW1hJywgJzIwMCcsICctbWV0YWxfYmluZGluZycsICctaW1hZScsICc8aW5maWxlLm1hZT4nLCAnLW9tYWUnLCAnPG91dGZpbGUubWFlPic=

> <r_lp_tautomer_probability>
1

> <r_epik_Ionization_Penalty>
0.585334

> <r_epik_Ionization_Penalty_Charging>
0

> <r_epik_Ionization_Penalty_Neutral>
0.585334

> <r_epik_State_Penalty>
0.597345

> <r_epik_Charging_Adjusted_Penalty>
0.597345

> <i_epik_Tot_Q>
0

> <i_epik_Tot_abs_Q>
0

> <r_epik_Metal_State_Penalty>
0.29678

> <b_epik_Metal_Only>
0

> <s_lp_Force_Field>
OPLS_2005

> <r_lp_Energy>
2.0747

> <b_lp_Chiralities_Consistent>
1

> <s_lp_Variant>
AV-unprocessed.smi:1166-4

> <Gold.Version>
5.8.1

> <Gold.Id.Protein>
6NUR|6NUR_protein|mol2

> <Gold.PLP.Fitness>
47.4054

> <Gold.PLP.PLP>
-48.1372

> <Gold.PLP.part.hbond>
-2.5108

> <Gold.PLP.part.metal>
0.0000

> <Gold.PLP.part.buried>
-5.9104

> <Gold.PLP.part.nonpolar>
-38.6586

> <Gold.PLP.part.repulsive>
0.3213

> <Gold.PLP.ligand.clash>
0.0000

> <Gold.PLP.ligand.torsion>
1.3969

> <Gold.PLP.Chemscore.Hbond>
0.0000

> <Gold.PLP.Chemscore.CHOScore>
0.0000

> <Gold.PLP.Chemscore.Metal>
0.0000

> <Gold.PLP.Chemscore.Internal.Correction>
2.0621

> <Gold.Rescore>
     Score         DG    S(hbond)    S(metal)    S(lipo)     H(rot)  DE(clash)    DE(int)     intcor
      8.11     -13.65       0.00        0.00      91.74       1.00       2.24       3.31       ----

> <Gold.Chemscore.Fitness>
8.1072

> <Gold.Chemscore.DG>
-13.6532

> <Gold.Chemscore.ZeroCoef>
-5.4800

> <Gold.Chemscore.Hbond>
0.0000

> <Gold.Chemscore.Metal>
0.0000

> <Gold.Chemscore.Lipo>
91.7370

> <Gold.Chemscore.Internal_Hbond>
0.0000

> <Gold.Chemscore.DEClash>
2.2406

> <Gold.Chemscore.DEInternal>
3.3054

> <Gold.Chemscore.Rot>
1.0000

> <Gold.Chemscore.Internal.Correction>
   9.000000E+99

> <Gold.Chemscore.Hbond.Weighted>
-0.0000

> <Gold.Chemscore.Metal.Weighted>
-0.0000

> <Gold.Chemscore.Lipo.Weighted>
-10.7332

> <Gold.Chemscore.Internal_Hbond.Weighted>
0.0000

> <Gold.Chemscore.DEClash.Weighted>
2.2406

> <Gold.Chemscore.DEInternal.Weighted>
3.3054

> <Gold.Chemscore.Rot.Weighted>
2.5600

> <Gold.Chemscore.Internal.Correction.Weighted>
   9.000000E+99

> <Gold.Protein.RotatedTorsions>
[ 6907 6896 6895 6894 ] final   49.13 input  -60.11 | X-H torsion
[ 7974 7965 7964 7962 ] final   56.02 input  175.53 | X-H torsion
[ 8008 7997 7996 7995 ] final  -33.73 input   59.86 | X-H torsion
[ 10167 10162 10161 10158 ] final  103.41 input  -65.29 | X-H torsion
[ 10718 10713 10712 10709 ] final  119.92 input   66.30 | X-H torsion
[ 10763 10752 10751 10750 ] final  -19.40 input  -60.55 | X-H torsion
[ 11005 11000 10999 10996 ] final -132.33 input  -57.11 | X-H torsion

> <Gold.Protein.ActiveResidues>
 VAL166  LYS551  ARG553  GLY616  TRP617  ASP618  TYR619  PRO620  LYS621  CYS622 
 ASP623  PHE694  ASN695  SER759  ASP760  ASP761  ALA762  ILE779  LEU786  VAL792 
 PHE793  MET794  SER795  GLU796  ALA797  LYS798  CYS799  TRP800  GLU811  SER814 

> <Gold.Protein.RotatedAtoms>
  152.2873  134.7761  160.0384 H   0  0  0  0  0  0  0  0  0  0  0  0  # atno 6907 bound_to 6896
  151.8319  133.3405  159.3624 H   0  0  0  0  0  0  0  0  0  0  0  0  # atno 6908 bound_to 6896
  150.7215  134.5403  159.5788 H   0  0  0  0  0  0  0  0  0  0  0  0  # atno 6909 bound_to 6896
  145.9443  139.3915  143.0345 H   0  0  0  0  0  0  0  0  0  0  0  0  # atno 7974 bound_to 7965
  154.4140  140.1703  156.1936 H   0  0  0  0  0  0  0  0  0  0  0  0  # atno 8008 bound_to 7997
  155.9583  140.3395  155.6444 H   0  0  0  0  0  0  0  0  0  0  0  0  # atno 8009 bound_to 7997
  155.6781  140.0719  157.2485 H   0  0  0  0  0  0  0  0  0  0  0  0  # atno 8010 bound_to 7997
  139.7265  144.7046  151.0789 H   0  0  0  0  0  0  0  0  0  0  0  0  # atno 10167 bound_to 10162
  157.5928  131.1062  150.7963 H   0  0  0  0  0  0  0  0  0  0  0  0  # atno 10718 bound_to 10713
  153.6042  135.6998  153.5372 H   0  0  0  0  0  0  0  0  0  0  0  0  # atno 10763 bound_to 10752
  153.3071  135.4112  155.1303 H   0  0  0  0  0  0  0  0  0  0  0  0  # atno 10764 bound_to 10752
  154.8576  135.3663  154.5579 H   0  0  0  0  0  0  0  0  0  0  0  0  # atno 10765 bound_to 10752
  140.9180  134.1482  157.4337 H   0  0  0  0  0  0  0  0  0  0  0  0  # atno 11005 bound_to 11000
  145.8258  140.9656  143.0875 LP  0  0  0  0  0  0  0  0  0  0  0  0  # atno 17320 bound_to 7965
  144.6784  140.0099  143.7484 LP  0  0  0  0  0  0  0  0  0  0  0  0  # atno 17321 bound_to 7965
  140.7763  143.5098  150.9667 LP  0  0  0  0  0  0  0  0  0  0  0  0  # atno 17342 bound_to 10162
  139.8786  143.7101  152.3159 LP  0  0  0  0  0  0  0  0  0  0  0  0  # atno 17343 bound_to 10162
  156.8381  130.5038  149.5324 LP  0  0  0  0  0  0  0  0  0  0  0  0  # atno 17370 bound_to 10713
  156.0985  130.5951  150.9855 LP  0  0  0  0  0  0  0  0  0  0  0  0  # atno 17371 bound_to 10713
  139.8770  134.9961  156.5775 LP  0  0  0  0  0  0  0  0  0  0  0  0  # atno 17394 bound_to 11000
  140.8025  133.8494  155.8739 LP  0  0  0  0  0  0  0  0  0  0  0  0  # atno 17395 bound_to 11000

$$$$
