AV-unprocessed.smi:2775|AV-procd|sdf|10691|dock6
  -GOLD-   2272015133D 1   1.00000     0.00000
 Structure written by MMmdl.
 42 45  0  0  0  0  0  0  0  0  1 V2000
  143.9733  136.4586  161.7033 C   0  0  0  0  0  0  0  0  0  0  0  0
  145.4693  136.2756  161.5284 C   0  0  0  0  0  0  0  0  0  0  0  0
  146.0835  135.5350  162.4770 N   0  0  0  0  0  0  0  0  0  0  0  0
  147.4126  135.3341  162.3646 C   0  0  0  0  0  0  0  0  0  0  0  0
  148.1894  135.8600  161.3148 C   0  0  0  0  0  0  0  0  0  0  0  0
  147.5513  136.6500  160.3296 C   0  0  0  0  0  0  0  0  0  0  0  0
  148.2337  137.2121  159.2174 N   0  0  0  0  0  0  0  0  0  0  0  0
  149.5512  137.4470  159.0673 C   0  0  0  0  0  0  0  0  0  0  0  0
  150.4169  137.1470  159.8866 O   0  0  0  0  0  0  0  0  0  0  0  0
  149.8590  138.0971  157.9316 N   0  0  0  0  0  0  0  0  0  0  0  0
  151.1903  138.5010  157.4721 C   0  0  1  0  0  0  0  0  0  0  0  0
  151.5009  138.1269  156.0029 C   0  0  1  0  0  0  0  0  0  0  0  0
  150.4507  137.6451  155.0344 C   0  0  0  0  0  0  0  0  0  0  0  0
  149.7890  138.9406  154.5769 C   0  0  0  0  0  0  0  0  0  0  0  0
  150.8240  139.9210  154.6489 O   0  0  0  0  0  0  0  0  0  0  0  0
  151.7371  139.6054  155.7034 C   0  0  1  0  0  0  0  0  0  0  0  0
  151.2785  139.9953  157.1209 C   0  0  0  0  0  0  0  0  0  0  0  0
  150.1302  141.0001  157.3527 C   0  0  0  0  0  0  0  0  0  0  0  0
  151.1904  142.0691  157.6263 C   0  0  0  0  0  0  0  0  0  0  0  0
  152.1609  140.9336  157.9595 C   0  0  0  0  0  0  0  0  0  0  0  0
  146.1555  136.8518  160.4337 C   0  0  0  0  0  0  0  0  0  0  0  0
  145.3072  137.7928  159.2519 Cl  0  0  0  0  0  0  0  0  0  0  0  0
  143.7302  137.5165  161.8050 H   0  0  0  0  0  0  0  0  0  0  0  0
  143.6061  135.9418  162.5912 H   0  0  0  0  0  0  0  0  0  0  0  0
  143.4396  136.0626  160.8391 H   0  0  0  0  0  0  0  0  0  0  0  0
  147.8716  134.7293  163.1325 H   0  0  0  0  0  0  0  0  0  0  0  0
  149.2455  135.6405  161.2792 H   0  0  0  0  0  0  0  0  0  0  0  0
  147.6377  137.5885  158.4948 H   0  0  0  0  0  0  0  0  0  0  0  0
  149.0854  138.3887  157.3515 H   0  0  0  0  0  0  0  0  0  0  0  0
  151.9979  138.2086  158.1460 H   0  0  0  0  0  0  0  0  0  0  0  0
  152.4242  137.5486  155.9485 H   0  0  0  0  0  0  0  0  0  0  0  0
  150.9255  137.1522  154.1854 H   0  0  0  0  0  0  0  0  0  0  0  0
  149.7395  136.9401  155.4634 H   0  0  0  0  0  0  0  0  0  0  0  0
  149.3736  138.8691  153.5717 H   0  0  0  0  0  0  0  0  0  0  0  0
  148.9815  139.2147  155.2565 H   0  0  0  0  0  0  0  0  0  0  0  0
  152.7750  139.8563  155.4810 H   0  0  0  0  0  0  0  0  0  0  0  0
  149.4975  141.2078  156.4902 H   0  0  0  0  0  0  0  0  0  0  0  0
  149.5347  140.7807  158.2403 H   0  0  0  0  0  0  0  0  0  0  0  0
  151.4758  142.6194  156.7282 H   0  0  0  0  0  0  0  0  0  0  0  0
  150.9641  142.7369  158.4578 H   0  0  0  0  0  0  0  0  0  0  0  0
  152.1581  140.6786  159.0207 H   0  0  0  0  0  0  0  0  0  0  0  0
  153.1746  141.0749  157.5840 H   0  0  0  0  0  0  0  0  0  0  0  0
  1  2  1  0  0  0  0
  1 23  1  0  0  0  0
  1 24  1  0  0  0  0
  1 25  1  0  0  0  0
  2 21  1  0  0  0  0
  2  3  2  0  0  0  0
  3  4  1  0  0  0  0
  4  5  2  0  0  0  0
  4 26  1  0  0  0  0
  5  6  1  0  0  0  0
  5 27  1  0  0  0  0
  6  7  1  0  0  0  0
  6 21  2  0  0  0  0
  7  8  1  0  0  0  0
  7 28  1  0  0  0  0
  8  9  2  0  0  0  0
  8 10  1  0  0  0  0
 10 11  1  0  0  0  0
 10 29  1  0  0  0  0
 11 17  1  0  0  0  0
 11 12  1  0  0  0  0
 11 30  1  0  0  0  0
 12 16  1  0  0  0  0
 12 13  1  0  0  0  0
 12 31  1  0  0  0  0
 13 14  1  0  0  0  0
 13 32  1  0  0  0  0
 13 33  1  0  0  0  0
 14 15  1  0  0  0  0
 14 34  1  0  0  0  0
 14 35  1  0  0  0  0
 15 16  1  0  0  0  0
 16 17  1  0  0  0  0
 16 36  1  0  0  0  0
 17 20  1  0  0  0  0
 17 18  1  0  0  0  0
 18 19  1  0  0  0  0
 18 37  1  0  0  0  0
 18 38  1  0  0  0  0
 19 20  1  0  0  0  0
 19 39  1  0  0  0  0
 19 40  1  0  0  0  0
 20 41  1  0  0  0  0
 20 42  1  0  0  0  0
 21 22  1  0  0  0  0
M  END
> <s_m_source_file>
AV-unprocessed.smi

> <i_m_source_file_index>
2775

> <i_lp_mmshare_version>
43012

> <i_f3d_flags>
0

> <s_epik_input>
W0NIM11jMW5bY0hdW2NIXWMoYzFDbClbTkhdQyg9TylbTkhdW0NAQEhdMltDQEhdKFtDSDJdW0NIMl1PMylbQ0BASF0zQzI0W0NIMl1bQ0gyXVtDSDJdNA==

> <s_epik_cmdline>
J2VwaWtfcHl0aG9uJywgJy1waCcsICc3LjAnLCAnLXRuJywgJzgnLCAnLW1hJywgJzIwMCcsICctbWV0YWxfYmluZGluZycsICctaW1hZScsICc8aW5maWxlLm1hZT4nLCAnLW9tYWUnLCAnPG91dGZpbGUubWFlPic=

> <r_epik_Ionization_Penalty>
0.01026

> <r_epik_Ionization_Penalty_Charging>
0

> <r_epik_Ionization_Penalty_Neutral>
0.01026

> <r_epik_State_Penalty>
0.00780685

> <r_epik_Charging_Adjusted_Penalty>
0.00780685

> <i_epik_Tot_Q>
0

> <i_epik_Tot_abs_Q>
0

> <r_epik_Metal_State_Penalty>
0.00767411

> <b_epik_Metal_Only>
0

> <s_lp_Force_Field>
OPLS_2005

> <r_lp_Energy>
57.8128

> <b_lp_Chiralities_Consistent>
1

> <s_lp_Variant>
AV-unprocessed.smi:2775-4

> <Gold.Version>
5.8.1

> <Gold.Id.Protein>
6NUR|6NUR_protein|mol2

> <Gold.PLP.Fitness>
36.4970

> <Gold.PLP.PLP>
-30.6673

> <Gold.PLP.part.hbond>
-2.2701

> <Gold.PLP.part.metal>
0.0000

> <Gold.PLP.part.buried>
-7.2864

> <Gold.PLP.part.nonpolar>
-22.8831

> <Gold.PLP.part.repulsive>
0.3343

> <Gold.PLP.ligand.clash>
0.0000

> <Gold.PLP.ligand.torsion>
0.1659

> <Gold.PLP.Chemscore.Hbond>
2.0000

> <Gold.PLP.Chemscore.CHOScore>
0.0000

> <Gold.PLP.Chemscore.Metal>
0.0000

> <Gold.Chemscore.Hbonds>
donor molecule, donor type, donor heavy atom, donor atom, acceptor molecule, acceptor atom, score
      P1  H  6896  6907       L1     9  0.55
      P1  H  7989  7998       L1    15  1.00

> <Gold.PLP.Chemscore.Internal.Correction>
0.1616

> <Gold.Rescore>
     Score         DG    S(hbond)    S(metal)    S(lipo)     H(rot)  DE(clash)    DE(int)     intcor
     18.17     -19.55       1.98        0.00      85.73       1.00       0.03       1.35       ----

> <Gold.Chemscore.Fitness>
18.1736

> <Gold.Chemscore.DG>
-19.5525

> <Gold.Chemscore.ZeroCoef>
-5.4800

> <Gold.Chemscore.Hbond>
1.9767

> <Gold.Chemscore.Metal>
0.0000

> <Gold.Chemscore.Lipo>
85.7308

> <Gold.Chemscore.Internal_Hbond>
0.0000

> <Gold.Chemscore.DEClash>
0.0253

> <Gold.Chemscore.DEInternal>
1.3537

> <Gold.Chemscore.Rot>
1.0000

> <Gold.Chemscore.Internal.Correction>
   9.000000E+99

> <Gold.Chemscore.Hbonds>
donor molecule, donor type, donor heavy atom, donor atom, acceptor molecule, acceptor atom, score
      P1  H  6896  6907       L1     9  0.48
      P1  H  7989  7998       L1    15  0.70

> <Gold.Chemscore.Hbond.Weighted>
-6.6020

> <Gold.Chemscore.Metal.Weighted>
-0.0000

> <Gold.Chemscore.Lipo.Weighted>
-10.0305

> <Gold.Chemscore.Internal_Hbond.Weighted>
0.0000

> <Gold.Chemscore.DEClash.Weighted>
0.0253

> <Gold.Chemscore.DEInternal.Weighted>
1.3537

> <Gold.Chemscore.Rot.Weighted>
2.5600

> <Gold.Chemscore.Internal.Correction.Weighted>
   9.000000E+99

> <Gold.Protein.RotatedTorsions>
[ 6907 6896 6895 6894 ] final  -36.57 input  -60.11 | X-H torsion
[ 7974 7965 7964 7962 ] final  -81.60 input  175.53 | X-H torsion
[ 8008 7997 7996 7995 ] final  -23.56 input   59.86 | X-H torsion
[ 10167 10162 10161 10158 ] final  -92.20 input  -65.29 | X-H torsion
[ 10718 10713 10712 10709 ] final -137.15 input   66.30 | X-H torsion
[ 10763 10752 10751 10750 ] final  -47.69 input  -60.55 | X-H torsion
[ 11005 11000 10999 10996 ] final  -20.56 input  -57.11 | X-H torsion

> <Gold.Protein.ActiveResidues>
 VAL166  LYS551  ARG553  GLY616  TRP617  ASP618  TYR619  PRO620  LYS621  CYS622 
 ASP623  PHE694  ASN695  SER759  ASP760  ASP761  ALA762  ILE779  LEU786  VAL792 
 PHE793  MET794  SER795  GLU796  ALA797  LYS798  CYS799  TRP800  GLU811  SER814 

> <Gold.Protein.RotatedAtoms>
  151.0255  134.9501  159.8082 H   0  0  0  0  0  0  0  0  0  0  0  0  # atno 6907 bound_to 6896
  152.5334  134.2848  159.9031 H   0  0  0  0  0  0  0  0  0  0  0  0  # atno 6908 bound_to 6896
  151.2856  133.4147  159.2664 H   0  0  0  0  0  0  0  0  0  0  0  0  # atno 6909 bound_to 6896
  145.5445  140.9505  143.1533 H   0  0  0  0  0  0  0  0  0  0  0  0  # atno 7974 bound_to 7965
  154.4578  140.1977  156.0329 H   0  0  0  0  0  0  0  0  0  0  0  0  # atno 8008 bound_to 7997
  156.0781  140.3275  155.7631 H   0  0  0  0  0  0  0  0  0  0  0  0  # atno 8009 bound_to 7997
  155.5156  140.0565  157.2907 H   0  0  0  0  0  0  0  0  0  0  0  0  # atno 8010 bound_to 7997
  140.3372  143.2962  151.9876 H   0  0  0  0  0  0  0  0  0  0  0  0  # atno 10167 bound_to 10162
  156.2849  130.7342  151.1351 H   0  0  0  0  0  0  0  0  0  0  0  0  # atno 10718 bound_to 10713
  154.0655  135.6612  153.4817 H   0  0  0  0  0  0  0  0  0  0  0  0  # atno 10763 bound_to 10752
  153.0410  135.5145  154.7617 H   0  0  0  0  0  0  0  0  0  0  0  0  # atno 10764 bound_to 10752
  154.6667  135.3023  154.9763 H   0  0  0  0  0  0  0  0  0  0  0  0  # atno 10765 bound_to 10752
  140.8476  133.7880  155.9930 H   0  0  0  0  0  0  0  0  0  0  0  0  # atno 11005 bound_to 11000
  144.7560  139.7073  143.7254 LP  0  0  0  0  0  0  0  0  0  0  0  0  # atno 17320 bound_to 7965
  146.1959  139.5224  142.9775 LP  0  0  0  0  0  0  0  0  0  0  0  0  # atno 17321 bound_to 7965
  139.4846  144.6187  151.7297 LP  0  0  0  0  0  0  0  0  0  0  0  0  # atno 17342 bound_to 10162
  140.5343  144.0681  150.6064 LP  0  0  0  0  0  0  0  0  0  0  0  0  # atno 17343 bound_to 10162
  157.7325  131.0598  150.5622 LP  0  0  0  0  0  0  0  0  0  0  0  0  # atno 17370 bound_to 10713
  156.5732  130.4285  149.6010 LP  0  0  0  0  0  0  0  0  0  0  0  0  # atno 17371 bound_to 10713
  140.8825  134.2593  157.5136 LP  0  0  0  0  0  0  0  0  0  0  0  0  # atno 17394 bound_to 11000
  139.8703  134.9622  156.4422 LP  0  0  0  0  0  0  0  0  0  0  0  0  # atno 17395 bound_to 11000

$$$$
