AV-unprocessed.smi:2775|AV-procd|sdf|10690|dock2
  -GOLD-   2272015133D 1   1.00000     0.00000
 Structure written by MMmdl.
 42 45  0  0  0  0  0  0  0  0  1 V2000
  149.0989  130.3154  153.9016 C   0  0  0  0  0  0  0  0  0  0  0  0
  149.6419  131.5466  154.6029 C   0  0  0  0  0  0  0  0  0  0  0  0
  150.4997  131.3104  155.6194 N   0  0  0  0  0  0  0  0  0  0  0  0
  151.0084  132.3706  156.2798 C   0  0  0  0  0  0  0  0  0  0  0  0
  150.6968  133.7058  155.9602 C   0  0  0  0  0  0  0  0  0  0  0  0
  149.8090  133.9577  154.8866 C   0  0  0  0  0  0  0  0  0  0  0  0
  149.4077  135.2595  154.4781 N   0  0  0  0  0  0  0  0  0  0  0  0
  149.3619  136.4091  155.1790 C   0  0  0  0  0  0  0  0  0  0  0  0
  149.6768  136.5298  156.3606 O   0  0  0  0  0  0  0  0  0  0  0  0
  148.9381  137.4635  154.4602 N   0  0  0  0  0  0  0  0  0  0  0  0
  148.7766  138.8433  154.9217 C   0  0  2  0  0  0  0  0  0  0  0  0
  148.5226  139.8251  153.7624 C   0  0  1  0  0  0  0  0  0  0  0  0
  147.2165  140.5687  153.6855 C   0  0  0  0  0  0  0  0  0  0  0  0
  147.5566  141.9229  154.3137 C   0  0  0  0  0  0  0  0  0  0  0  0
  148.7023  141.6672  155.1226 O   0  0  0  0  0  0  0  0  0  0  0  0
  149.5379  140.7620  154.4075 C   0  0  1  0  0  0  0  0  0  0  0  0
  150.0954  139.5877  155.2208 C   0  0  0  0  0  0  0  0  0  0  0  0
  151.4818  139.0079  154.8802 C   0  0  0  0  0  0  0  0  0  0  0  0
  151.7068  138.7705  156.3759 C   0  0  0  0  0  0  0  0  0  0  0  0
  150.5934  139.7832  156.6595 C   0  0  0  0  0  0  0  0  0  0  0  0
  149.2610  132.8482  154.2006 C   0  0  0  0  0  0  0  0  0  0  0  0
  148.1484  133.0780  152.8923 Cl  0  0  0  0  0  0  0  0  0  0  0  0
  149.3680  130.3318  152.8452 H   0  0  0  0  0  0  0  0  0  0  0  0
  148.0121  130.2821  153.9809 H   0  0  0  0  0  0  0  0  0  0  0  0
  149.4964  129.3973  154.3362 H   0  0  0  0  0  0  0  0  0  0  0  0
  151.6831  132.1481  157.0934 H   0  0  0  0  0  0  0  0  0  0  0  0
  151.1338  134.4967  156.5490 H   0  0  0  0  0  0  0  0  0  0  0  0
  149.1695  135.3408  153.5004 H   0  0  0  0  0  0  0  0  0  0  0  0
  148.6971  137.2888  153.4952 H   0  0  0  0  0  0  0  0  0  0  0  0
  148.0410  138.9733  155.7186 H   0  0  0  0  0  0  0  0  0  0  0  0
  148.8876  139.4471  152.8054 H   0  0  0  0  0  0  0  0  0  0  0  0
  146.8555  140.6798  152.6628 H   0  0  0  0  0  0  0  0  0  0  0  0
  146.4431  140.0585  154.2606 H   0  0  0  0  0  0  0  0  0  0  0  0
  147.8218  142.6466  153.5416 H   0  0  0  0  0  0  0  0  0  0  0  0
  146.7343  142.3340  154.8996 H   0  0  0  0  0  0  0  0  0  0  0  0
  150.2219  141.2389  153.7043 H   0  0  0  0  0  0  0  0  0  0  0  0
  151.4902  138.1042  154.2712 H   0  0  0  0  0  0  0  0  0  0  0  0
  152.1611  139.7600  154.4761 H   0  0  0  0  0  0  0  0  0  0  0  0
  151.4493  137.7576  156.6872 H   0  0  0  0  0  0  0  0  0  0  0  0
  152.6918  139.0650  156.7389 H   0  0  0  0  0  0  0  0  0  0  0  0
  150.9756  140.7892  156.8388 H   0  0  0  0  0  0  0  0  0  0  0  0
  149.8889  139.4766  157.4329 H   0  0  0  0  0  0  0  0  0  0  0  0
  1  2  1  0  0  0  0
  1 23  1  0  0  0  0
  1 24  1  0  0  0  0
  1 25  1  0  0  0  0
  2 21  1  0  0  0  0
  2  3  2  0  0  0  0
  3  4  1  0  0  0  0
  4  5  2  0  0  0  0
  4 26  1  0  0  0  0
  5  6  1  0  0  0  0
  5 27  1  0  0  0  0
  6  7  1  0  0  0  0
  6 21  2  0  0  0  0
  7  8  1  0  0  0  0
  7 28  1  0  0  0  0
  8  9  2  0  0  0  0
  8 10  1  0  0  0  0
 10 11  1  0  0  0  0
 10 29  1  0  0  0  0
 11 17  1  0  0  0  0
 11 12  1  0  0  0  0
 11 30  1  0  0  0  0
 12 16  1  0  0  0  0
 12 13  1  0  0  0  0
 12 31  1  0  0  0  0
 13 14  1  0  0  0  0
 13 32  1  0  0  0  0
 13 33  1  0  0  0  0
 14 15  1  0  0  0  0
 14 34  1  0  0  0  0
 14 35  1  0  0  0  0
 15 16  1  0  0  0  0
 16 17  1  0  0  0  0
 16 36  1  0  0  0  0
 17 20  1  0  0  0  0
 17 18  1  0  0  0  0
 18 19  1  0  0  0  0
 18 37  1  0  0  0  0
 18 38  1  0  0  0  0
 19 20  1  0  0  0  0
 19 39  1  0  0  0  0
 19 40  1  0  0  0  0
 20 41  1  0  0  0  0
 20 42  1  0  0  0  0
 21 22  1  0  0  0  0
M  END
> <s_m_source_file>
AV-unprocessed.smi

> <i_m_source_file_index>
2775

> <i_lp_mmshare_version>
43012

> <i_f3d_flags>
0

> <s_epik_input>
W0NIM11jMW5bY0hdW2NIXWMoYzFDbClbTkhdQyg9TylbTkhdW0NAQEhdMltDQEhdKFtDSDJdW0NIMl1PMylbQ0BASF0zQzI0W0NIMl1bQ0gyXVtDSDJdNA==

> <s_epik_cmdline>
J2VwaWtfcHl0aG9uJywgJy1waCcsICc3LjAnLCAnLXRuJywgJzgnLCAnLW1hJywgJzIwMCcsICctbWV0YWxfYmluZGluZycsICctaW1hZScsICc8aW5maWxlLm1hZT4nLCAnLW9tYWUnLCAnPG91dGZpbGUubWFlPic=

> <r_epik_Ionization_Penalty>
0.01026

> <r_epik_Ionization_Penalty_Charging>
0

> <r_epik_Ionization_Penalty_Neutral>
0.01026

> <r_epik_State_Penalty>
0.00780685

> <r_epik_Charging_Adjusted_Penalty>
0.00780685

> <i_epik_Tot_Q>
0

> <i_epik_Tot_abs_Q>
0

> <r_epik_Metal_State_Penalty>
0.00767411

> <b_epik_Metal_Only>
0

> <s_lp_Force_Field>
OPLS_2005

> <r_lp_Energy>
55.7352

> <b_lp_Chiralities_Consistent>
1

> <s_lp_Variant>
AV-unprocessed.smi:2775-3

> <Gold.Version>
5.8.1

> <Gold.Id.Protein>
6NUR|6NUR_protein|mol2

> <Gold.PLP.Fitness>
42.6425

> <Gold.PLP.PLP>
-36.9426

> <Gold.PLP.part.hbond>
-2.0000

> <Gold.PLP.part.metal>
0.0000

> <Gold.PLP.part.buried>
-1.2726

> <Gold.PLP.part.nonpolar>
-34.7187

> <Gold.PLP.part.repulsive>
0.4823

> <Gold.PLP.ligand.clash>
0.0000

> <Gold.PLP.ligand.torsion>
0.2352

> <Gold.PLP.Chemscore.Hbond>
1.9920

> <Gold.PLP.Chemscore.CHOScore>
0.0000

> <Gold.PLP.Chemscore.Metal>
0.0000

> <Gold.Chemscore.Hbonds>
donor molecule, donor type, donor heavy atom, donor atom, acceptor molecule, acceptor atom, score
      L1  H     7    28       P1  7948  1.00
      L1  H    10    29       P1  7948  0.98

> <Gold.PLP.Chemscore.Internal.Correction>
0.1943

> <Gold.Rescore>
     Score         DG    S(hbond)    S(metal)    S(lipo)     H(rot)  DE(clash)    DE(int)     intcor
     17.31     -18.41       1.50        0.00      89.62       1.00       0.09       1.01       ----

> <Gold.Chemscore.Fitness>
17.3077

> <Gold.Chemscore.DG>
-18.4110

> <Gold.Chemscore.ZeroCoef>
-5.4800

> <Gold.Chemscore.Hbond>
1.4986

> <Gold.Chemscore.Metal>
0.0000

> <Gold.Chemscore.Lipo>
89.6212

> <Gold.Chemscore.Internal_Hbond>
0.0000

> <Gold.Chemscore.DEClash>
0.0925

> <Gold.Chemscore.DEInternal>
1.0108

> <Gold.Chemscore.Rot>
1.0000

> <Gold.Chemscore.Internal.Correction>
   9.000000E+99

> <Gold.Chemscore.Hbonds>
donor molecule, donor type, donor heavy atom, donor atom, acceptor molecule, acceptor atom, score
      L1  H     7    28       P1  7948  0.39
      L1  H    10    29       P1  7948  0.92

> <Gold.Chemscore.Hbond.Weighted>
-5.0053

> <Gold.Chemscore.Metal.Weighted>
-0.0000

> <Gold.Chemscore.Lipo.Weighted>
-10.4857

> <Gold.Chemscore.Internal_Hbond.Weighted>
0.0000

> <Gold.Chemscore.DEClash.Weighted>
0.0925

> <Gold.Chemscore.DEInternal.Weighted>
1.0108

> <Gold.Chemscore.Rot.Weighted>
2.5600

> <Gold.Chemscore.Internal.Correction.Weighted>
   9.000000E+99

> <Gold.Protein.RotatedTorsions>
[ 6907 6896 6895 6894 ] final  146.77 input  -60.11 | X-H torsion
[ 7974 7965 7964 7962 ] final  -35.29 input  175.53 | X-H torsion
[ 8008 7997 7996 7995 ] final   91.52 input   59.86 | X-H torsion
[ 10167 10162 10161 10158 ] final   16.73 input  -65.29 | X-H torsion
[ 10718 10713 10712 10709 ] final -121.96 input   66.30 | X-H torsion
[ 10763 10752 10751 10750 ] final  -32.95 input  -60.55 | X-H torsion
[ 11005 11000 10999 10996 ] final  -35.60 input  -57.11 | X-H torsion

> <Gold.Protein.ActiveResidues>
 VAL166  LYS551  ARG553  GLY616  TRP617  ASP618  TYR619  PRO620  LYS621  CYS622 
 ASP623  PHE694  ASN695  SER759  ASP760  ASP761  ALA762  ILE779  LEU786  VAL792 
 PHE793  MET794  SER795  GLU796  ALA797  LYS798  CYS799  TRP800  GLU811  SER814 

> <Gold.Protein.RotatedAtoms>
  152.1636  133.4597  159.4872 H   0  0  0  0  0  0  0  0  0  0  0  0  # atno 6907 bound_to 6896
  150.6910  134.2041  159.4343 H   0  0  0  0  0  0  0  0  0  0  0  0  # atno 6908 bound_to 6896
  151.9945  134.9961  160.0613 H   0  0  0  0  0  0  0  0  0  0  0  0  # atno 6909 bound_to 6896
  146.0758  140.6142  142.8931 H   0  0  0  0  0  0  0  0  0  0  0  0  # atno 7974 bound_to 7965
  156.0247  140.3336  155.7076 H   0  0  0  0  0  0  0  0  0  0  0  0  # atno 8008 bound_to 7997
  155.5971  140.0652  157.2761 H   0  0  0  0  0  0  0  0  0  0  0  0  # atno 8009 bound_to 7997
  154.4330  140.1817  156.1122 H   0  0  0  0  0  0  0  0  0  0  0  0  # atno 8010 bound_to 7997
  140.5776  143.9042  150.6763 H   0  0  0  0  0  0  0  0  0  0  0  0  # atno 10167 bound_to 10162
  156.1380  130.6444  150.9726 H   0  0  0  0  0  0  0  0  0  0  0  0  # atno 10718 bound_to 10713
  153.8221  135.6873  153.4826 H   0  0  0  0  0  0  0  0  0  0  0  0  # atno 10763 bound_to 10752
  153.1563  135.4598  154.9706 H   0  0  0  0  0  0  0  0  0  0  0  0  # atno 10764 bound_to 10752
  154.7923  135.3306  154.7692 H   0  0  0  0  0  0  0  0  0  0  0  0  # atno 10765 bound_to 10752
  140.9809  133.7057  156.1682 H   0  0  0  0  0  0  0  0  0  0  0  0  # atno 11005 bound_to 11000
  144.7261  140.4528  143.6972 LP  0  0  0  0  0  0  0  0  0  0  0  0  # atno 17320 bound_to 7965
  145.6308  139.1536  143.2970 LP  0  0  0  0  0  0  0  0  0  0  0  0  # atno 17321 bound_to 7965
  140.2533  143.3577  152.1387 LP  0  0  0  0  0  0  0  0  0  0  0  0  # atno 17342 bound_to 10162
  139.5152  144.6959  151.5632 LP  0  0  0  0  0  0  0  0  0  0  0  0  # atno 17343 bound_to 10162
  157.6549  131.0891  150.7968 LP  0  0  0  0  0  0  0  0  0  0  0  0  # atno 17370 bound_to 10713
  156.8046  130.4932  149.5364 LP  0  0  0  0  0  0  0  0  0  0  0  0  # atno 17371 bound_to 10713
  140.7188  134.4381  157.5576 LP  0  0  0  0  0  0  0  0  0  0  0  0  # atno 17394 bound_to 11000
  139.8950  134.8694  156.2152 LP  0  0  0  0  0  0  0  0  0  0  0  0  # atno 17395 bound_to 11000

$$$$
