AV-unprocessed.smi:3203|AV-procd|sdf|12249|dock6
  -GOLD-   2272018 83D 1   1.00000     0.00000
 Structure written by MMmdl.
 32 33  0  0  0  0  0  0  0  0  1 V2000
  154.1709  140.2041  160.7119 C   0  0  0  0  0  0  0  0  0  0  0  0
  153.3613  141.4863  160.8223 C   0  0  0  0  0  0  0  0  0  0  0  0
  153.4527  142.2623  161.9973 C   0  0  0  0  0  0  0  0  0  0  0  0
  152.7041  143.4474  162.0961 C   0  0  0  0  0  0  0  0  0  0  0  0
  151.8907  143.8090  161.0084 C   0  0  0  0  0  0  0  0  0  0  0  0
  151.7973  143.0738  159.8819 N   0  0  0  0  0  0  0  0  0  0  0  0
  152.5136  141.9269  159.7706 C   0  0  0  0  0  0  0  0  0  0  0  0
  152.4649  141.0997  158.6146 N   0  0  0  0  0  0  0  0  0  0  0  0
  151.6604  141.1977  157.5389 C   0  0  0  0  0  0  0  0  0  0  0  0
  150.7876  142.0527  157.3907 O   0  0  0  0  0  0  0  0  0  0  0  0
  151.8596  140.1389  156.4536 C   0  0  0  0  0  0  0  0  0  0  0  0
  151.1205  140.5001  155.2960 O   0  0  0  0  0  0  0  0  0  0  0  0
  149.7432  140.1882  155.4071 C   0  0  0  0  0  0  0  0  0  0  0  0
  149.0389  140.6281  154.1418 C   0  0  0  0  0  0  0  0  0  0  0  0
  147.9979  141.7235  154.1853 C   0  0  0  0  0  0  0  0  0  0  0  0
  147.5798  140.2995  153.9194 C   0  0  0  0  0  0  0  0  0  0  0  0
  154.7534  140.0229  161.6157 H   0  0  0  0  0  0  0  0  0  0  0  0
  154.8636  140.2615  159.8718 H   0  0  0  0  0  0  0  0  0  0  0  0
  153.5129  139.3478  160.5605 H   0  0  0  0  0  0  0  0  0  0  0  0
  154.0885  141.9557  162.8151 H   0  0  0  0  0  0  0  0  0  0  0  0
  152.7525  144.0633  162.9818 H   0  0  0  0  0  0  0  0  0  0  0  0
  151.2989  144.7117  161.0428 H   0  0  0  0  0  0  0  0  0  0  0  0
  153.1351  140.3450  158.5938 H   0  0  0  0  0  0  0  0  0  0  0  0
  152.9231  140.0669  156.2214 H   0  0  0  0  0  0  0  0  0  0  0  0
  151.5299  139.1668  156.8241 H   0  0  0  0  0  0  0  0  0  0  0  0
  149.6027  139.1162  155.5559 H   0  0  0  0  0  0  0  0  0  0  0  0
  149.3022  140.7082  156.2588 H   0  0  0  0  0  0  0  0  0  0  0  0
  149.6741  140.6145  153.2579 H   0  0  0  0  0  0  0  0  0  0  0  0
  147.7460  142.1473  155.1556 H   0  0  0  0  0  0  0  0  0  0  0  0
  147.9674  142.4204  153.3501 H   0  0  0  0  0  0  0  0  0  0  0  0
  147.2717  140.0456  152.9074 H   0  0  0  0  0  0  0  0  0  0  0  0
  147.0513  139.7748  154.7129 H   0  0  0  0  0  0  0  0  0  0  0  0
  1  2  1  0  0  0  0
  1 17  1  0  0  0  0
  1 18  1  0  0  0  0
  1 19  1  0  0  0  0
  2  7  1  0  0  0  0
  2  3  2  0  0  0  0
  3  4  1  0  0  0  0
  3 20  1  0  0  0  0
  4  5  2  0  0  0  0
  4 21  1  0  0  0  0
  5  6  1  0  0  0  0
  5 22  1  0  0  0  0
  6  7  2  0  0  0  0
  7  8  1  0  0  0  0
  8  9  1  0  0  0  0
  8 23  1  0  0  0  0
  9 10  2  0  0  0  0
  9 11  1  0  0  0  0
 11 12  1  0  0  0  0
 11 24  1  0  0  0  0
 11 25  1  0  0  0  0
 12 13  1  0  0  0  0
 13 14  1  0  0  0  0
 13 26  1  0  0  0  0
 13 27  1  0  0  0  0
 14 16  1  0  0  0  0
 14 15  1  0  0  0  0
 14 28  1  0  0  0  0
 15 16  1  0  0  0  0
 15 29  1  0  0  0  0
 15 30  1  0  0  0  0
 16 31  1  0  0  0  0
 16 32  1  0  0  0  0
M  END
> <s_m_source_file>
AV-unprocessed.smi

> <i_m_source_file_index>
3203

> <i_lp_mmshare_version>
43012

> <i_f3d_flags>
0

> <s_epik_input>
W0NIM11jMVtjSF1bY0hdW2NIXW5jMVtOSF1DKD1PKVtDSDJdT1tDSDJdW0NIXTJbQ0gyXVtDSDJdMg==

> <s_epik_cmdline>
J2VwaWtfcHl0aG9uJywgJy1waCcsICc3LjAnLCAnLXRuJywgJzgnLCAnLW1hJywgJzIwMCcsICctbWV0YWxfYmluZGluZycsICctaW1hZScsICc8aW5maWxlLm1hZT4nLCAnLW9tYWUnLCAnPG91dGZpbGUubWFlPic=

> <r_epik_Ionization_Penalty>
0.00323497

> <r_epik_Ionization_Penalty_Charging>
0

> <r_epik_Ionization_Penalty_Neutral>
0.00323497

> <r_epik_State_Penalty>
0.00315819

> <r_epik_Charging_Adjusted_Penalty>
0.00315819

> <i_epik_Tot_Q>
0

> <i_epik_Tot_abs_Q>
0

> <r_epik_Metal_State_Penalty>
-0

> <b_epik_Metal_Only>
0

> <s_lp_Force_Field>
OPLS_2005

> <r_lp_Energy>
15.2792

> <b_lp_Chiralities_Consistent>
1

> <s_lp_Variant>
AV-unprocessed.smi:3203-1

> <Gold.Version>
5.8.1

> <Gold.Id.Protein>
6NUR|6NUR_protein|mol2

> <Gold.PLP.Fitness>
39.6112

> <Gold.PLP.PLP>
-37.3752

> <Gold.PLP.part.hbond>
-1.0000

> <Gold.PLP.part.metal>
0.0000

> <Gold.PLP.part.buried>
-4.4944

> <Gold.PLP.part.nonpolar>
-31.4333

> <Gold.PLP.part.repulsive>
0.2191

> <Gold.PLP.ligand.clash>
0.0000

> <Gold.PLP.ligand.torsion>
0.5837

> <Gold.PLP.Chemscore.Hbond>
0.9440

> <Gold.PLP.Chemscore.CHOScore>
0.0000

> <Gold.PLP.Chemscore.Metal>
0.0000

> <Gold.Chemscore.Hbonds>
donor molecule, donor type, donor heavy atom, donor atom, acceptor molecule, acceptor atom, score
      P1  H  7989  7998       L1    12  0.94

> <Gold.PLP.Chemscore.Internal.Correction>
0.5713

> <Gold.Rescore>
     Score         DG    S(hbond)    S(metal)    S(lipo)     H(rot)  DE(clash)    DE(int)     intcor
     11.84     -14.74       0.95        0.00      85.66       1.54       0.04       2.85       ----

> <Gold.Chemscore.Fitness>
11.8417

> <Gold.Chemscore.DG>
-14.7353

> <Gold.Chemscore.ZeroCoef>
-5.4800

> <Gold.Chemscore.Hbond>
0.9473

> <Gold.Chemscore.Metal>
0.0000

> <Gold.Chemscore.Lipo>
85.6602

> <Gold.Chemscore.Internal_Hbond>
0.0000

> <Gold.Chemscore.DEClash>
0.0408

> <Gold.Chemscore.DEInternal>
2.8527

> <Gold.Chemscore.Rot>
1.5355

> <Gold.Chemscore.Internal.Correction>
   9.000000E+99

> <Gold.Chemscore.Hbonds>
donor molecule, donor type, donor heavy atom, donor atom, acceptor molecule, acceptor atom, score
      P1  H  7989  7998       L1    12  0.77

> <Gold.Chemscore.Hbond.Weighted>
-3.1639

> <Gold.Chemscore.Metal.Weighted>
-0.0000

> <Gold.Chemscore.Lipo.Weighted>
-10.0222

> <Gold.Chemscore.Internal_Hbond.Weighted>
0.0000

> <Gold.Chemscore.DEClash.Weighted>
0.0408

> <Gold.Chemscore.DEInternal.Weighted>
2.8527

> <Gold.Chemscore.Rot.Weighted>
3.9308

> <Gold.Chemscore.Internal.Correction.Weighted>
   9.000000E+99

> <Gold.Protein.RotatedTorsions>
[ 6907 6896 6895 6894 ] final  -95.95 input  -60.11 | X-H torsion
[ 7974 7965 7964 7962 ] final  -51.61 input  175.53 | X-H torsion
[ 8008 7997 7996 7995 ] final  -90.87 input   59.86 | X-H torsion
[ 10167 10162 10161 10158 ] final  138.92 input  -65.29 | X-H torsion
[ 10718 10713 10712 10709 ] final  -23.53 input   66.30 | X-H torsion
[ 10763 10752 10751 10750 ] final  129.35 input  -60.55 | X-H torsion
[ 11005 11000 10999 10996 ] final  177.70 input  -57.11 | X-H torsion

> <Gold.Protein.ActiveResidues>
 VAL166  LYS551  ARG553  GLY616  TRP617  ASP618  TYR619  PRO620  LYS621  CYS622 
 ASP623  PHE694  ASN695  SER759  ASP760  ASP761  ALA762  ILE779  LEU786  VAL792 
 PHE793  MET794  SER795  GLU796  ALA797  LYS798  CYS799  TRP800  GLU811  SER814 

> <Gold.Protein.RotatedAtoms>
  150.6976  134.1579  159.4164 H   0  0  0  0  0  0  0  0  0  0  0  0  # atno 6907 bound_to 6896
  151.9560  135.0144  160.0554 H   0  0  0  0  0  0  0  0  0  0  0  0  # atno 6908 bound_to 6896
  152.1969  133.4778  159.5074 H   0  0  0  0  0  0  0  0  0  0  0  0  # atno 6909 bound_to 6896
  145.9171  140.7866  142.9666 H   0  0  0  0  0  0  0  0  0  0  0  0  # atno 7974 bound_to 7965
  154.7038  140.0525  157.0484 H   0  0  0  0  0  0  0  0  0  0  0  0  # atno 8008 bound_to 7997
  155.0647  140.3193  155.4630 H   0  0  0  0  0  0  0  0  0  0  0  0  # atno 8009 bound_to 7997
  156.2768  140.2092  156.5775 H   0  0  0  0  0  0  0  0  0  0  0  0  # atno 8010 bound_to 7997
  139.5095  144.6325  151.5780 H   0  0  0  0  0  0  0  0  0  0  0  0  # atno 10167 bound_to 10162
  156.4898  130.4564  149.6762 H   0  0  0  0  0  0  0  0  0  0  0  0  # atno 10718 bound_to 10713
  153.7404  135.3225  155.3303 H   0  0  0  0  0  0  0  0  0  0  0  0  # atno 10763 bound_to 10752
  154.8297  135.4543  154.1032 H   0  0  0  0  0  0  0  0  0  0  0  0  # atno 10764 bound_to 10752
  153.2206  135.6947  153.8087 H   0  0  0  0  0  0  0  0  0  0  0  0  # atno 10765 bound_to 10752
  140.3869  134.6896  157.4484 H   0  0  0  0  0  0  0  0  0  0  0  0  # atno 11005 bound_to 11000
  144.6749  140.1916  143.7396 LP  0  0  0  0  0  0  0  0  0  0  0  0  # atno 17320 bound_to 7965
  145.8598  139.2217  143.1723 LP  0  0  0  0  0  0  0  0  0  0  0  0  # atno 17321 bound_to 7965
  140.6063  143.9518  150.6421 LP  0  0  0  0  0  0  0  0  0  0  0  0  # atno 17342 bound_to 10162
  140.2746  143.3432  152.1207 LP  0  0  0  0  0  0  0  0  0  0  0  0  # atno 17343 bound_to 10162
  156.3438  130.7396  151.2345 LP  0  0  0  0  0  0  0  0  0  0  0  0  # atno 17370 bound_to 10713
  157.7475  131.0396  150.4559 LP  0  0  0  0  0  0  0  0  0  0  0  0  # atno 17371 bound_to 10713
  140.0436  134.6232  155.8950 LP  0  0  0  0  0  0  0  0  0  0  0  0  # atno 17394 bound_to 11000
  141.1904  133.6568  156.5411 LP  0  0  0  0  0  0  0  0  0  0  0  0  # atno 17395 bound_to 11000

$$$$
