AV-unprocessed.smi:2336|AV-procd|sdf|9330|dock8
  -GOLD-   2272012553D 1   1.00000     0.00000
 Structure written by MMmdl.
 50 51  0  0  0  0  0  0  0  0  2 V2000
  148.8304  136.5868  157.8167 C   0  0  0  0  0  0  0  0  0  0  0  0
  148.7351  135.4690  156.7588 C   0  0  0  0  0  0  0  0  0  0  0  0
  148.2883  134.1683  157.4538 C   0  0  0  0  0  0  0  0  0  0  0  0
  150.0603  135.3056  155.9567 C   0  0  1  0  0  0  0  0  0  0  0  0
  150.0133  134.1055  154.9658 C   0  0  0  0  0  0  0  0  0  0  0  0
  148.9840  134.2408  153.9382 N   0  0  0  0  0  0  0  0  0  0  0  0
  148.1375  133.2786  153.5429 C   0  0  0  0  0  0  0  0  0  0  0  0
  148.1449  132.1365  154.0007 O   0  0  0  0  0  0  0  0  0  0  0  0
  147.3007  133.7313  152.5942 N   0  0  0  0  0  0  0  0  0  0  0  0
  146.2221  133.0559  151.9591 C   0  0  0  0  0  0  0  0  0  0  0  0
  146.0554  131.6496  151.9544 C   0  0  0  0  0  0  0  0  0  0  0  0
  144.9289  131.1064  151.3038 C   0  0  0  0  0  0  0  0  0  0  0  0
  143.9909  131.8568  150.6884 N   0  0  0  0  0  0  0  0  0  0  0  0
  144.1460  133.1974  150.7066 C   0  0  0  0  0  0  0  0  0  0  0  0
  145.2339  133.8417  151.3294 C   0  0  0  0  0  0  0  0  0  0  0  0
  145.3263  135.1936  151.3179 F   0  0  0  0  0  0  0  0  0  0  0  0
  150.4350  136.6086  155.3204 N   0  3  0  0  0  0  0  0  0  0  0  0
  151.5545  137.3524  155.9524 C   0  0  0  0  0  0  0  0  0  0  0  0
  151.9906  138.5256  155.0512 C   0  0  0  0  0  0  0  0  0  0  0  0
  150.8796  139.4296  154.7462 N   0  0  0  0  0  0  0  0  0  0  0  0
  150.4501  140.2198  155.8953 C   0  0  0  0  0  0  0  0  0  0  0  0
  149.7867  138.6836  154.1194 C   0  0  0  0  0  0  0  0  0  0  0  0
  149.3020  137.5135  154.9998 C   0  0  0  0  0  0  0  0  0  0  0  0
  149.6381  136.3960  158.5240 H   0  0  0  0  0  0  0  0  0  0  0  0
  147.9047  136.6665  158.3878 H   0  0  0  0  0  0  0  0  0  0  0  0
  149.0035  137.5643  157.3666 H   0  0  0  0  0  0  0  0  0  0  0  0
  147.9408  135.7457  156.0648 H   0  0  0  0  0  0  0  0  0  0  0  0
  149.0743  133.7699  158.0962 H   0  0  0  0  0  0  0  0  0  0  0  0
  148.0109  133.3951  156.7383 H   0  0  0  0  0  0  0  0  0  0  0  0
  147.4098  134.3388  158.0769 H   0  0  0  0  0  0  0  0  0  0  0  0
  150.8317  135.0809  156.6952 H   0  0  0  0  0  0  0  0  0  0  0  0
  150.9518  134.0329  154.4188 H   0  0  0  0  0  0  0  0  0  0  0  0
  149.9184  133.1667  155.5136 H   0  0  0  0  0  0  0  0  0  0  0  0
  148.9119  135.1423  153.4889 H   0  0  0  0  0  0  0  0  0  0  0  0
  147.4780  134.6651  152.2533 H   0  0  0  0  0  0  0  0  0  0  0  0
  146.7512  130.9830  152.4396 H   0  0  0  0  0  0  0  0  0  0  0  0
  144.7738  130.0379  151.2837 H   0  0  0  0  0  0  0  0  0  0  0  0
  143.3784  133.7746  150.2125 H   0  0  0  0  0  0  0  0  0  0  0  0
  151.2756  137.7208  156.9368 H   0  0  0  0  0  0  0  0  0  0  0  0
  152.4031  136.6853  156.1008 H   0  0  0  0  0  0  0  0  0  0  0  0
  152.7999  139.0857  155.5213 H   0  0  0  0  0  0  0  0  0  0  0  0
  152.3886  138.1364  154.1131 H   0  0  0  0  0  0  0  0  0  0  0  0
  149.6671  140.9188  155.5997 H   0  0  0  0  0  0  0  0  0  0  0  0
  151.2846  140.8044  156.2837 H   0  0  0  0  0  0  0  0  0  0  0  0
  150.0632  139.6062  156.7082 H   0  0  0  0  0  0  0  0  0  0  0  0
  148.9608  139.3606  153.8975 H   0  0  0  0  0  0  0  0  0  0  0  0
  150.1348  138.2982  153.1601 H   0  0  0  0  0  0  0  0  0  0  0  0
  148.5357  136.9597  154.4568 H   0  0  0  0  0  0  0  0  0  0  0  0
  148.8278  137.8947  155.9016 H   0  0  0  0  0  0  0  0  0  0  0  0
  150.7869  136.3385  154.4130 H   0  0  0  0  0  0  0  0  0  0  0  0
  1  2  1  0  0  0  0
  1 24  1  0  0  0  0
  1 25  1  0  0  0  0
  1 26  1  0  0  0  0
  2  3  1  0  0  0  0
  2  4  1  0  0  0  0
  2 27  1  0  0  0  0
  3 28  1  0  0  0  0
  3 29  1  0  0  0  0
  3 30  1  0  0  0  0
  4  5  1  0  0  0  0
  4 17  1  0  0  0  0
  4 31  1  0  0  0  0
  5  6  1  0  0  0  0
  5 32  1  0  0  0  0
  5 33  1  0  0  0  0
  6  7  1  0  0  0  0
  6 34  1  0  0  0  0
  7  8  2  0  0  0  0
  7  9  1  0  0  0  0
  9 10  1  0  0  0  0
  9 35  1  0  0  0  0
 10 15  1  0  0  0  0
 10 11  2  0  0  0  0
 11 12  1  0  0  0  0
 11 36  1  0  0  0  0
 12 13  2  0  0  0  0
 12 37  1  0  0  0  0
 13 14  1  0  0  0  0
 14 15  2  0  0  0  0
 14 38  1  0  0  0  0
 15 16  1  0  0  0  0
 17 23  1  0  0  0  0
 17 18  1  0  0  0  0
 17 50  1  0  0  0  0
 18 19  1  0  0  0  0
 18 39  1  0  0  0  0
 18 40  1  0  0  0  0
 19 20  1  0  0  0  0
 19 41  1  0  0  0  0
 19 42  1  0  0  0  0
 20 21  1  0  0  0  0
 20 22  1  0  0  0  0
 21 43  1  0  0  0  0
 21 44  1  0  0  0  0
 21 45  1  0  0  0  0
 22 23  1  0  0  0  0
 22 46  1  0  0  0  0
 22 47  1  0  0  0  0
 23 48  1  0  0  0  0
 23 49  1  0  0  0  0
M  CHG  1  17   1
M  END
> <s_m_source_file>
AV-unprocessed.smi

> <i_m_source_file_index>
2336

> <i_lp_mmshare_version>
43012

> <i_f3d_flags>
0

> <s_epik_input>
W0NIMl0xW0NIMl1OKFtDSDNdKVtDSDJdW0NIMl1OMVtDQEhdKFtDSF0oW0NIM10pW0NIM10pW0NIMl1bTkhdQyg9TylbTkhdYzJbY0hdW2NIXW5bY0hdYzJG

> <s_epik_cmdline>
J2VwaWtfcHl0aG9uJywgJy1waCcsICc3LjAnLCAnLXRuJywgJzgnLCAnLW1hJywgJzIwMCcsICctbWV0YWxfYmluZGluZycsICctaW1hZScsICc8aW5maWxlLm1hZT4nLCAnLW9tYWUnLCAnPG91dGZpbGUubWFlPic=

> <r_epik_Ionization_Penalty>
0.204575

> <r_epik_Ionization_Penalty_Charging>
0.20006

> <r_epik_Ionization_Penalty_Neutral>
0.00451444

> <r_epik_State_Penalty>
1.43207

> <r_epik_Charging_Adjusted_Penalty>
1.63213

> <i_epik_Tot_Q>
1

> <i_epik_Tot_abs_Q>
1

> <r_epik_Metal_State_Penalty>
1.43277

> <b_epik_Metal_Only>
0

> <s_lp_Force_Field>
OPLS_2005

> <r_lp_Energy>
38.4551

> <b_lp_Chiralities_Consistent>
1

> <s_lp_Variant>
AV-unprocessed.smi:2336-4

> <Gold.Version>
5.8.1

> <Gold.Id.Protein>
6NUR|6NUR_protein|mol2

> <Gold.PLP.Fitness>
45.7226

> <Gold.PLP.PLP>
-36.3868

> <Gold.PLP.part.hbond>
-3.0000

> <Gold.PLP.part.metal>
0.0000

> <Gold.PLP.part.buried>
-7.0890

> <Gold.PLP.part.nonpolar>
-27.6927

> <Gold.PLP.part.repulsive>
0.4259

> <Gold.PLP.ligand.clash>
0.0000

> <Gold.PLP.ligand.torsion>
1.3665

> <Gold.PLP.Chemscore.Hbond>
2.9040

> <Gold.PLP.Chemscore.CHOScore>
1.0000

> <Gold.PLP.Chemscore.Metal>
0.0000

> <Gold.Chemscore.Hbonds>
donor molecule, donor type, donor heavy atom, donor atom, acceptor molecule, acceptor atom, score
      L1  H     6    34       P1  7948  0.98
      L1  H     9    35       P1  7948  0.66
      P1  H  7989  7998       L1    20  0.96
      L1  C    14    38       P1 10186  0.97

> <Gold.PLP.Chemscore.Internal.Correction>
0.3568

> <Gold.Rescore>
     Score         DG    S(hbond)    S(metal)    S(lipo)     H(rot)  DE(clash)    DE(int)     intcor
     13.39     -15.89       1.71        0.00      76.71       1.67       0.17       2.33       ----

> <Gold.Chemscore.Fitness>
13.3874

> <Gold.Chemscore.DG>
-15.8853

> <Gold.Chemscore.ZeroCoef>
-5.4800

> <Gold.Chemscore.Hbond>
1.7110

> <Gold.Chemscore.Metal>
0.0000

> <Gold.Chemscore.Lipo>
76.7146

> <Gold.Chemscore.Internal_Hbond>
0.0000

> <Gold.Chemscore.DEClash>
0.1671

> <Gold.Chemscore.DEInternal>
2.3309

> <Gold.Chemscore.Rot>
1.6739

> <Gold.Chemscore.Internal.Correction>
   9.000000E+99

> <Gold.Chemscore.Hbonds>
donor molecule, donor type, donor heavy atom, donor atom, acceptor molecule, acceptor atom, score
      L1  H     6    34       P1  7948  0.51
      L1  H     9    35       P1  7948  0.53
      P1  H  7989  7998       L1    20  0.14

> <Gold.Chemscore.Hbond.Weighted>
-5.7148

> <Gold.Chemscore.Metal.Weighted>
-0.0000

> <Gold.Chemscore.Lipo.Weighted>
-8.9756

> <Gold.Chemscore.Internal_Hbond.Weighted>
0.0000

> <Gold.Chemscore.DEClash.Weighted>
0.1671

> <Gold.Chemscore.DEInternal.Weighted>
2.3309

> <Gold.Chemscore.Rot.Weighted>
4.2851

> <Gold.Chemscore.Internal.Correction.Weighted>
   9.000000E+99

> <Gold.Protein.RotatedTorsions>
[ 6907 6896 6895 6894 ] final  -29.99 input  -60.11 | X-H torsion
[ 7974 7965 7964 7962 ] final  159.11 input  175.53 | X-H torsion
[ 8008 7997 7996 7995 ] final  139.13 input   59.86 | X-H torsion
[ 10167 10162 10161 10158 ] final   44.63 input  -65.29 | X-H torsion
[ 10718 10713 10712 10709 ] final  157.48 input   66.30 | X-H torsion
[ 10763 10752 10751 10750 ] final  -35.17 input  -60.55 | X-H torsion
[ 11005 11000 10999 10996 ] final   -2.31 input  -57.11 | X-H torsion

> <Gold.Protein.ActiveResidues>
 VAL166  LYS551  ARG553  GLY616  TRP617  ASP618  TYR619  PRO620  LYS621  CYS622 
 ASP623  PHE694  ASN695  SER759  ASP760  ASP761  ALA762  ILE779  LEU786  VAL792 
 PHE793  MET794  SER795  GLU796  ALA797  LYS798  CYS799  TRP800  GLU811  SER814 

> <Gold.Protein.RotatedAtoms>
  151.1116  135.0030  159.8496 H   0  0  0  0  0  0  0  0  0  0  0  0  # atno 6907 bound_to 6896
  152.5443  134.1829  159.8653 H   0  0  0  0  0  0  0  0  0  0  0  0  # atno 6908 bound_to 6896
  151.1880  133.4640  159.2628 H   0  0  0  0  0  0  0  0  0  0  0  0  # atno 6909 bound_to 6896
  144.7808  139.7571  143.6260 H   0  0  0  0  0  0  0  0  0  0  0  0  # atno 7974 bound_to 7965
  156.2992  140.2375  156.4186 H   0  0  0  0  0  0  0  0  0  0  0  0  # atno 8008 bound_to 7997
  154.8376  140.0430  157.1539 H   0  0  0  0  0  0  0  0  0  0  0  0  # atno 8009 bound_to 7997
  154.9139  140.2994  155.5255 H   0  0  0  0  0  0  0  0  0  0  0  0  # atno 8010 bound_to 7997
  140.3324  144.2572  150.6166 H   0  0  0  0  0  0  0  0  0  0  0  0  # atno 10167 bound_to 10162
  157.1909  131.0654  151.2080 H   0  0  0  0  0  0  0  0  0  0  0  0  # atno 10718 bound_to 10713
  153.8587  135.6842  153.4785 H   0  0  0  0  0  0  0  0  0  0  0  0  # atno 10763 bound_to 10752
  153.1354  135.4680  154.9412 H   0  0  0  0  0  0  0  0  0  0  0  0  # atno 10764 bound_to 10752
  154.7768  135.3256  154.8023 H   0  0  0  0  0  0  0  0  0  0  0  0  # atno 10765 bound_to 10752
  140.6569  133.9355  155.8413 H   0  0  0  0  0  0  0  0  0  0  0  0  # atno 11005 bound_to 11000
  146.2015  139.5313  142.9740 LP  0  0  0  0  0  0  0  0  0  0  0  0  # atno 17320 bound_to 7965
  145.6055  141.0348  143.1995 LP  0  0  0  0  0  0  0  0  0  0  0  0  # atno 17321 bound_to 7965
  140.5385  143.2228  151.8123 LP  0  0  0  0  0  0  0  0  0  0  0  0  # atno 17342 bound_to 10162
  139.4854  144.4630  151.9517 LP  0  0  0  0  0  0  0  0  0  0  0  0  # atno 17343 bound_to 10162
  157.3862  130.7257  149.6664 LP  0  0  0  0  0  0  0  0  0  0  0  0  # atno 17370 bound_to 10713
  155.9712  130.4159  150.4204 LP  0  0  0  0  0  0  0  0  0  0  0  0  # atno 17371 bound_to 10713
  141.0495  134.0506  157.3802 LP  0  0  0  0  0  0  0  0  0  0  0  0  # atno 17394 bound_to 11000
  139.9026  135.0170  156.7341 LP  0  0  0  0  0  0  0  0  0  0  0  0  # atno 17395 bound_to 11000

$$$$
