AV-unprocessed.smi:594|AV-procd|sdf|3017|dock9
  -GOLD-   2262023523D 1   1.00000     0.00000
 Structure written by MMmdl.
 40 41  0  0  0  0  0  0  0  0  3 V2000
  150.9761  143.3465  157.5157 C   0  0  0  0  0  0  0  0  0  0  0  0
  151.8424  143.5959  158.7640 C   0  0  1  0  0  0  0  0  0  0  0  0
  151.2506  144.7418  159.6101 C   0  0  0  0  0  0  0  0  0  0  0  0
  152.0967  145.0294  160.8595 C   0  0  0  0  0  0  0  0  0  0  0  0
  152.2607  143.7658  161.7143 C   0  0  0  0  0  0  0  0  0  0  0  0
  152.8677  142.6214  160.8899 C   0  0  0  0  0  0  0  0  0  0  0  0
  152.0334  142.3222  159.6287 C   0  0  2  0  0  0  0  0  0  0  0  0
  152.6989  141.2689  158.8634 N   0  0  0  0  0  0  0  0  0  0  0  0
  152.2603  140.0100  158.7084 C   0  0  0  0  0  0  0  0  0  0  0  0
  151.2340  139.5776  159.2346 O   0  0  0  0  0  0  0  0  0  0  0  0
  153.1259  139.1011  157.8255 C   0  0  0  0  0  0  0  0  0  0  0  0
  152.3612  138.4619  156.7413 N   0  0  0  0  0  0  0  0  0  0  0  0
  151.9447  137.1314  156.9461 C   0  0  0  0  0  0  0  0  0  0  0  0
  151.2352  136.4533  156.0228 C   0  0  0  0  0  0  0  0  0  0  0  0
  150.8126  135.0890  156.2511 N   0  3  0  0  0  0  0  0  0  0  0  0
  150.2641  134.4822  155.3367 O   0  0  0  0  0  0  0  0  0  0  0  0
  151.0153  134.5784  157.3488 O   0  5  0  0  0  0  0  0  0  0  0  0
  150.9043  137.1396  154.7889 C   0  0  0  0  0  0  0  0  0  0  0  0
  151.2970  138.4130  154.5881 C   0  0  0  0  0  0  0  0  0  0  0  0
  152.0677  139.1498  155.5952 C   0  0  0  0  0  0  0  0  0  0  0  0
  152.4273  140.3142  155.4190 O   0  0  0  0  0  0  0  0  0  0  0  0
  149.9922  142.9631  157.7878 H   0  0  0  0  0  0  0  0  0  0  0  0
  151.4386  142.6268  156.8403 H   0  0  0  0  0  0  0  0  0  0  0  0
  150.8291  144.2671  156.9503 H   0  0  0  0  0  0  0  0  0  0  0  0
  152.8253  143.9193  158.4174 H   0  0  0  0  0  0  0  0  0  0  0  0
  151.1746  145.6483  159.0085 H   0  0  0  0  0  0  0  0  0  0  0  0
  150.2334  144.4875  159.9119 H   0  0  0  0  0  0  0  0  0  0  0  0
  153.0779  145.4010  160.5611 H   0  0  0  0  0  0  0  0  0  0  0  0
  151.6323  145.8199  161.4497 H   0  0  0  0  0  0  0  0  0  0  0  0
  152.8920  143.9794  162.5772 H   0  0  0  0  0  0  0  0  0  0  0  0
  151.2905  143.4599  162.1076 H   0  0  0  0  0  0  0  0  0  0  0  0
  153.8875  142.8852  160.6054 H   0  0  0  0  0  0  0  0  0  0  0  0
  152.9421  141.7262  161.5088 H   0  0  0  0  0  0  0  0  0  0  0  0
  151.0501  141.9808  159.9582 H   0  0  0  0  0  0  0  0  0  0  0  0
  153.5554  141.5270  158.3950 H   0  0  0  0  0  0  0  0  0  0  0  0
  153.9553  139.6745  157.4068 H   0  0  0  0  0  0  0  0  0  0  0  0
  153.5923  138.3512  158.4658 H   0  0  0  0  0  0  0  0  0  0  0  0
  152.2340  136.7124  157.8991 H   0  0  0  0  0  0  0  0  0  0  0  0
  150.3389  136.6380  154.0173 H   0  0  0  0  0  0  0  0  0  0  0  0
  151.0388  138.9055  153.6621 H   0  0  0  0  0  0  0  0  0  0  0  0
  1  2  1  0  0  0  0
  1 22  1  0  0  0  0
  1 23  1  0  0  0  0
  1 24  1  0  0  0  0
  2  7  1  0  0  0  0
  2  3  1  0  0  0  0
  2 25  1  0  0  0  0
  3  4  1  0  0  0  0
  3 26  1  0  0  0  0
  3 27  1  0  0  0  0
  4  5  1  0  0  0  0
  4 28  1  0  0  0  0
  4 29  1  0  0  0  0
  5  6  1  0  0  0  0
  5 30  1  0  0  0  0
  5 31  1  0  0  0  0
  6  7  1  0  0  0  0
  6 32  1  0  0  0  0
  6 33  1  0  0  0  0
  7  8  1  0  0  0  0
  7 34  1  0  0  0  0
  8  9  1  0  0  0  0
  8 35  1  0  0  0  0
  9 10  2  0  0  0  0
  9 11  1  0  0  0  0
 11 12  1  0  0  0  0
 11 36  1  0  0  0  0
 11 37  1  0  0  0  0
 12 20  1  0  0  0  0
 12 13  1  0  0  0  0
 13 14  2  0  0  0  0
 13 38  1  0  0  0  0
 14 15  1  0  0  0  0
 14 18  1  0  0  0  0
 15 16  2  0  0  0  0
 15 17  1  0  0  0  0
 18 19  2  0  0  0  0
 18 39  1  0  0  0  0
 19 20  1  0  0  0  0
 19 40  1  0  0  0  0
 20 21  2  0  0  0  0
M  CHG  1  15   1
M  CHG  1  17  -1
M  END
> <s_m_source_file>
AV-unprocessed.smi

> <i_m_source_file_index>
594

> <i_lp_mmshare_version>
43012

> <i_f3d_flags>
0

> <s_epik_input>
W0NIM11bQ0BASF0xW0NIMl1bQ0gyXVtDSDJdW0NIMl1bQ0BIXTFbTkhdQyg9TylbQ0gyXW4yW2NIXWMoW04rXSg9TylbTy1dKVtjSF1bY0hdYzI9Tw==

> <s_epik_cmdline>
J2VwaWtfcHl0aG9uJywgJy1waCcsICc3LjAnLCAnLXRuJywgJzgnLCAnLW1hJywgJzIwMCcsICctbWV0YWxfYmluZGluZycsICctaW1hZScsICc8aW5maWxlLm1hZT4nLCAnLW9tYWUnLCAnPG91dGZpbGUubWFlPic=

> <r_lp_tautomer_probability>
1

> <r_epik_Ionization_Penalty>
1.91305e-08

> <r_epik_Ionization_Penalty_Charging>
8.35811e-11

> <r_epik_Ionization_Penalty_Neutral>
1.90469e-08

> <r_epik_State_Penalty>
-0

> <r_epik_Charging_Adjusted_Penalty>
8.35811e-11

> <i_epik_Tot_Q>
0

> <i_epik_Tot_abs_Q>
2

> <r_epik_Metal_State_Penalty>
-0

> <b_epik_Metal_Only>
0

> <s_lp_Force_Field>
OPLS_2005

> <r_lp_Energy>
21.4369

> <b_lp_Chiralities_Consistent>
1

> <s_lp_Variant>
AV-unprocessed.smi:594-4

> <Gold.Version>
5.8.1

> <Gold.Id.Protein>
6NUR|6NUR_protein|mol2

> <Gold.PLP.Fitness>
46.5666

> <Gold.PLP.PLP>
-41.6859

> <Gold.PLP.part.hbond>
-3.1986

> <Gold.PLP.part.metal>
0.0000

> <Gold.PLP.part.buried>
-5.3907

> <Gold.PLP.part.nonpolar>
-34.2242

> <Gold.PLP.part.repulsive>
0.1881

> <Gold.PLP.ligand.clash>
0.0000

> <Gold.PLP.ligand.torsion>
0.4146

> <Gold.PLP.Chemscore.Hbond>
1.9005

> <Gold.PLP.Chemscore.CHOScore>
0.0000

> <Gold.PLP.Chemscore.Metal>
0.0000

> <Gold.Chemscore.Hbonds>
donor molecule, donor type, donor heavy atom, donor atom, acceptor molecule, acceptor atom, score
      P1  H  6896  6909       L1    17  0.29
      P1  H  7989  7998       L1    21  0.42
      P1  H  7997  8010       L1    21  0.94

> <Gold.PLP.Chemscore.Internal.Correction>
0.0085

> <Gold.Rescore>
     Score         DG    S(hbond)    S(metal)    S(lipo)     H(rot)  DE(clash)    DE(int)     intcor
     19.58     -20.06       1.81        0.00     106.77       1.55       0.09       0.39       ----

> <Gold.Chemscore.Fitness>
19.5759

> <Gold.Chemscore.DG>
-20.0607

> <Gold.Chemscore.ZeroCoef>
-5.4800

> <Gold.Chemscore.Hbond>
1.8136

> <Gold.Chemscore.Metal>
0.0000

> <Gold.Chemscore.Lipo>
106.7731

> <Gold.Chemscore.Internal_Hbond>
0.0000

> <Gold.Chemscore.DEClash>
0.0926

> <Gold.Chemscore.DEInternal>
0.3922

> <Gold.Chemscore.Rot>
1.5505

> <Gold.Chemscore.Internal.Correction>
   9.000000E+99

> <Gold.Chemscore.Hbonds>
donor molecule, donor type, donor heavy atom, donor atom, acceptor molecule, acceptor atom, score
      P1  H  6896  6909       L1    17  0.27
      P1  H  7989  7998       L1    21  0.22
      P1  H  7997  8010       L1    21  0.27

> <Gold.Chemscore.Hbond.Weighted>
-6.0574

> <Gold.Chemscore.Metal.Weighted>
-0.0000

> <Gold.Chemscore.Lipo.Weighted>
-12.4924

> <Gold.Chemscore.Internal_Hbond.Weighted>
0.0000

> <Gold.Chemscore.DEClash.Weighted>
0.0926

> <Gold.Chemscore.DEInternal.Weighted>
0.3922

> <Gold.Chemscore.Rot.Weighted>
3.9692

> <Gold.Chemscore.Internal.Correction.Weighted>
   9.000000E+99

> <Gold.Protein.RotatedTorsions>
[ 6907 6896 6895 6894 ] final   -3.89 input  -60.11 | X-H torsion
[ 7974 7965 7964 7962 ] final   10.07 input  175.53 | X-H torsion
[ 8008 7997 7996 7995 ] final   96.10 input   59.86 | X-H torsion
[ 10167 10162 10161 10158 ] final  131.21 input  -65.29 | X-H torsion
[ 10718 10713 10712 10709 ] final  -22.44 input   66.30 | X-H torsion
[ 10763 10752 10751 10750 ] final -113.90 input  -60.55 | X-H torsion
[ 11005 11000 10999 10996 ] final    3.25 input  -57.11 | X-H torsion

> <Gold.Protein.ActiveResidues>
 VAL166  LYS551  ARG553  GLY616  TRP617  ASP618  TYR619  PRO620  LYS621  CYS622 
 ASP623  PHE694  ASN695  SER759  ASP760  ASP761  ALA762  ILE779  LEU786  VAL792 
 PHE793  MET794  SER795  GLU796  ALA797  LYS798  CYS799  TRP800  GLU811  SER814 

> <Gold.Protein.RotatedAtoms>
  151.5064  135.1063  159.9842 H   0  0  0  0  0  0  0  0  0  0  0  0  # atno 6907 bound_to 6896
  152.4680  133.7961  159.6939 H   0  0  0  0  0  0  0  0  0  0  0  0  # atno 6908 bound_to 6896
  150.8673  133.7492  159.2998 H   0  0  0  0  0  0  0  0  0  0  0  0  # atno 6909 bound_to 6896
  146.2394  139.9689  142.8449 H   0  0  0  0  0  0  0  0  0  0  0  0  # atno 7974 bound_to 7965
  156.0760  140.3277  155.7634 H   0  0  0  0  0  0  0  0  0  0  0  0  # atno 8008 bound_to 7997
  155.5229  140.0586  157.2920 H   0  0  0  0  0  0  0  0  0  0  0  0  # atno 8009 bound_to 7997
  154.4556  140.1941  156.0408 H   0  0  0  0  0  0  0  0  0  0  0  0  # atno 8010 bound_to 7997
  139.5394  144.6715  151.4675 H   0  0  0  0  0  0  0  0  0  0  0  0  # atno 10167 bound_to 10162
  156.5045  130.4596  149.6682 H   0  0  0  0  0  0  0  0  0  0  0  0  # atno 10718 bound_to 10713
  154.8417  135.4437  154.1422 H   0  0  0  0  0  0  0  0  0  0  0  0  # atno 10763 bound_to 10752
  153.2604  135.6935  153.7590 H   0  0  0  0  0  0  0  0  0  0  0  0  # atno 10764 bound_to 10752
  153.6869  135.3393  155.3168 H   0  0  0  0  0  0  0  0  0  0  0  0  # atno 10765 bound_to 10752
  140.5952  133.9887  155.8106 H   0  0  0  0  0  0  0  0  0  0  0  0  # atno 11005 bound_to 11000
  145.1700  140.9716  143.4327 LP  0  0  0  0  0  0  0  0  0  0  0  0  # atno 17320 bound_to 7965
  145.0037  139.3574  143.6154 LP  0  0  0  0  0  0  0  0  0  0  0  0  # atno 17321 bound_to 7965
  140.6617  143.8485  150.6895 LP  0  0  0  0  0  0  0  0  0  0  0  0  # atno 17342 bound_to 10162
  140.1881  143.4059  152.1883 LP  0  0  0  0  0  0  0  0  0  0  0  0  # atno 17343 bound_to 10162
  156.3300  130.7326  151.2254 LP  0  0  0  0  0  0  0  0  0  0  0  0  # atno 17370 bound_to 10713
  157.7458  131.0432  150.4734 LP  0  0  0  0  0  0  0  0  0  0  0  0  # atno 17371 bound_to 10713
  141.0909  133.9918  157.3239 LP  0  0  0  0  0  0  0  0  0  0  0  0  # atno 17394 bound_to 11000
  139.9256  135.0201  156.8224 LP  0  0  0  0  0  0  0  0  0  0  0  0  # atno 17395 bound_to 11000

$$$$
