AV-unprocessed.smi:1509|AV-procd|sdf|6092|dock10
  -GOLD-   22720 6223D 1   1.00000     0.00000
 Structure written by MMmdl.
 42 43  0  0  0  0  0  0  0  0  2 V2000
  152.5846  142.6125  161.1854 C   0  0  0  0  0  0  0  0  0  0  0  0
  152.8676  143.6578  160.0920 C   0  0  2  0  0  0  0  0  0  0  0  0
  152.1214  144.9842  160.3261 C   0  0  0  0  0  0  0  0  0  0  0  0
  150.6257  144.8444  160.0104 C   0  0  0  0  0  0  0  0  0  0  0  0
  150.4105  144.2782  158.5979 C   0  0  0  0  0  0  0  0  0  0  0  0
  151.1146  142.9811  158.4259 N   0  3  1  0  0  0  0  0  0  0  0  0
  150.8002  142.3409  157.1235 C   0  0  0  0  0  0  0  0  0  0  0  0
  151.3059  140.8903  157.0422 C   0  0  0  0  0  0  0  0  0  0  0  0
  150.8836  140.1997  155.7344 C   0  0  0  0  0  0  0  0  0  0  0  0
  149.4397  140.2521  155.5357 N   0  0  0  0  0  0  0  0  0  0  0  0
  148.8328  140.6735  154.4149 C   0  0  0  0  0  0  0  0  0  0  0  0
  149.4430  141.0859  153.4288 O   0  0  0  0  0  0  0  0  0  0  0  0
  147.3050  140.6199  154.4008 C   0  0  0  0  0  0  0  0  0  0  0  0
  146.8331  139.4810  153.6364 N   0  0  0  0  0  0  0  0  0  0  0  0
  146.9464  139.1872  152.3394 C   0  0  0  0  0  0  0  0  0  0  0  0
  146.3597  138.0370  152.0453 N   0  0  0  0  0  0  0  0  0  0  0  0
  145.8587  137.6182  153.2667 N   0  0  0  0  0  0  0  0  0  0  0  0
  146.1367  138.4709  154.2145 N   0  0  0  0  0  0  0  0  0  0  0  0
  152.5757  143.1150  158.6774 C   0  0  0  0  0  0  0  0  0  0  0  0
  151.5386  142.3064  161.1973 H   0  0  0  0  0  0  0  0  0  0  0  0
  152.8266  143.0047  162.1735 H   0  0  0  0  0  0  0  0  0  0  0  0
  153.1870  141.7162  161.0340 H   0  0  0  0  0  0  0  0  0  0  0  0
  153.9354  143.8741  160.1448 H   0  0  0  0  0  0  0  0  0  0  0  0
  152.2624  145.3285  161.3511 H   0  0  0  0  0  0  0  0  0  0  0  0
  152.5495  145.7550  159.6837 H   0  0  0  0  0  0  0  0  0  0  0  0
  150.1482  144.1946  160.7445 H   0  0  0  0  0  0  0  0  0  0  0  0
  150.1368  145.8149  160.0989 H   0  0  0  0  0  0  0  0  0  0  0  0
  149.3411  144.1450  158.4296 H   0  0  0  0  0  0  0  0  0  0  0  0
  150.7637  144.9880  157.8481 H   0  0  0  0  0  0  0  0  0  0  0  0
  149.7176  142.3240  156.9878 H   0  0  0  0  0  0  0  0  0  0  0  0
  151.2030  142.9408  156.3060 H   0  0  0  0  0  0  0  0  0  0  0  0
  152.3923  140.8596  157.1204 H   0  0  0  0  0  0  0  0  0  0  0  0
  150.9187  140.3297  157.8940 H   0  0  0  0  0  0  0  0  0  0  0  0
  151.3915  140.6511  154.8802 H   0  0  0  0  0  0  0  0  0  0  0  0
  151.1835  139.1517  155.7543 H   0  0  0  0  0  0  0  0  0  0  0  0
  148.8613  139.9300  156.2985 H   0  0  0  0  0  0  0  0  0  0  0  0
  146.9158  140.5480  155.4172 H   0  0  0  0  0  0  0  0  0  0  0  0
  146.9043  141.5375  153.9672 H   0  0  0  0  0  0  0  0  0  0  0  0
  147.4520  139.8112  151.6170 H   0  0  0  0  0  0  0  0  0  0  0  0
  153.0039  143.7860  157.9308 H   0  0  0  0  0  0  0  0  0  0  0  0
  153.0777  142.1563  158.5523 H   0  0  0  0  0  0  0  0  0  0  0  0
  150.7479  142.3684  159.1403 H   0  0  0  0  0  0  0  0  0  0  0  0
  1  2  1  0  0  0  0
  1 20  1  0  0  0  0
  1 21  1  0  0  0  0
  1 22  1  0  0  0  0
  2 19  1  0  0  0  0
  2  3  1  0  0  0  0
  2 23  1  0  0  0  0
  3  4  1  0  0  0  0
  3 24  1  0  0  0  0
  3 25  1  0  0  0  0
  4  5  1  0  0  0  0
  4 26  1  0  0  0  0
  4 27  1  0  0  0  0
  5  6  1  0  0  0  0
  5 28  1  0  0  0  0
  5 29  1  0  0  0  0
  6  7  1  0  0  0  0
  6 19  1  0  0  0  0
  6 42  1  0  0  0  0
  7  8  1  0  0  0  0
  7 30  1  0  0  0  0
  7 31  1  0  0  0  0
  8  9  1  0  0  0  0
  8 32  1  0  0  0  0
  8 33  1  0  0  0  0
  9 10  1  0  0  0  0
  9 34  1  0  0  0  0
  9 35  1  0  0  0  0
 10 11  1  0  0  0  0
 10 36  1  0  0  0  0
 11 12  2  0  0  0  0
 11 13  1  0  0  0  0
 13 14  1  0  0  0  0
 13 37  1  0  0  0  0
 13 38  1  0  0  0  0
 14 18  1  0  0  0  0
 14 15  1  0  0  0  0
 15 16  2  0  0  0  0
 15 39  1  0  0  0  0
 16 17  1  0  0  0  0
 17 18  2  0  0  0  0
 19 40  1  0  0  0  0
 19 41  1  0  0  0  0
M  CHG  1   6   1
M  END
> <s_m_source_file>
AV-unprocessed.smi

> <i_m_source_file_index>
1509

> <i_lp_mmshare_version>
43012

> <i_f3d_flags>
0

> <s_epik_input>
W0NIM11bQ0BASF0xW0NIMl1bQ0gyXVtDSDJdTihbQ0gyXTEpW0NIMl1bQ0gyXVtDSDJdW05IXUMoPU8pW0NIMl1uMltjSF1ubm4y

> <s_epik_cmdline>
J2VwaWtfcHl0aG9uJywgJy1waCcsICc3LjAnLCAnLXRuJywgJzgnLCAnLW1hJywgJzIwMCcsICctbWV0YWxfYmluZGluZycsICctaW1hZScsICc8aW5maWxlLm1hZT4nLCAnLW9tYWUnLCAnPG91dGZpbGUubWFlPic=

> <r_lp_tautomer_probability>
1

> <r_epik_Ionization_Penalty>
0.00044216

> <r_epik_Ionization_Penalty_Charging>
0.000440775

> <r_epik_Ionization_Penalty_Neutral>
1.38512e-06

> <r_epik_State_Penalty>
0.000271914

> <r_epik_Charging_Adjusted_Penalty>
0.000712689

> <i_epik_Tot_Q>
1

> <i_epik_Tot_abs_Q>
1

> <r_epik_Metal_State_Penalty>
-0

> <b_epik_Metal_Only>
0

> <s_lp_Force_Field>
OPLS_2005

> <r_lp_Energy>
22.816

> <b_lp_Chiralities_Consistent>
1

> <s_lp_Variant>
AV-unprocessed.smi:1509-3

> <Gold.Version>
5.8.1

> <Gold.Id.Protein>
6NUR|6NUR_protein|mol2

> <Gold.PLP.Fitness>
40.3875

> <Gold.PLP.PLP>
-34.5771

> <Gold.PLP.part.hbond>
-2.0000

> <Gold.PLP.part.metal>
0.0000

> <Gold.PLP.part.buried>
-5.0552

> <Gold.PLP.part.nonpolar>
-32.8431

> <Gold.PLP.part.repulsive>
4.8424

> <Gold.PLP.ligand.clash>
0.0000

> <Gold.PLP.ligand.torsion>
0.3354

> <Gold.PLP.Chemscore.Hbond>
1.1420

> <Gold.PLP.Chemscore.CHOScore>
1.0000

> <Gold.PLP.Chemscore.Metal>
0.0000

> <Gold.Chemscore.Hbonds>
donor molecule, donor type, donor heavy atom, donor atom, acceptor molecule, acceptor atom, score
      P1  H  7989  7998       L1    12  0.14
      P1  H  8011  8017       L1    12  1.00
      L1  C    15    39       P1  7957  1.00

> <Gold.PLP.Chemscore.Internal.Correction>
0.0554

> <Gold.Rescore>
     Score         DG    S(hbond)    S(metal)    S(lipo)     H(rot)  DE(clash)    DE(int)     intcor
     10.38     -12.82       1.20        0.00      93.45       2.97       2.05       0.40       ----

> <Gold.Chemscore.Fitness>
10.3797

> <Gold.Chemscore.DG>
-12.8214

> <Gold.Chemscore.ZeroCoef>
-5.4800

> <Gold.Chemscore.Hbond>
1.1992

> <Gold.Chemscore.Metal>
0.0000

> <Gold.Chemscore.Lipo>
93.4527

> <Gold.Chemscore.Internal_Hbond>
0.0000

> <Gold.Chemscore.DEClash>
2.0464

> <Gold.Chemscore.DEInternal>
0.3952

> <Gold.Chemscore.Rot>
2.9680

> <Gold.Chemscore.Internal.Correction>
   9.000000E+99

> <Gold.Chemscore.Hbonds>
donor molecule, donor type, donor heavy atom, donor atom, acceptor molecule, acceptor atom, score
      P1  H  7989  7998       L1    12  0.13
      P1  H  8011  8017       L1    12  0.98

> <Gold.Chemscore.Hbond.Weighted>
-4.0054

> <Gold.Chemscore.Metal.Weighted>
-0.0000

> <Gold.Chemscore.Lipo.Weighted>
-10.9340

> <Gold.Chemscore.Internal_Hbond.Weighted>
0.0000

> <Gold.Chemscore.DEClash.Weighted>
2.0464

> <Gold.Chemscore.DEInternal.Weighted>
0.3952

> <Gold.Chemscore.Rot.Weighted>
7.5980

> <Gold.Chemscore.Internal.Correction.Weighted>
   9.000000E+99

> <Gold.Protein.RotatedTorsions>
[ 6907 6896 6895 6894 ] final  -55.33 input  -60.11 | X-H torsion
[ 7974 7965 7964 7962 ] final  161.17 input  175.53 | X-H torsion
[ 8008 7997 7996 7995 ] final  -44.71 input   59.86 | X-H torsion
[ 10167 10162 10161 10158 ] final -117.58 input  -65.29 | X-H torsion
[ 10718 10713 10712 10709 ] final -118.81 input   66.30 | X-H torsion
[ 10763 10752 10751 10750 ] final  -55.75 input  -60.55 | X-H torsion
[ 11005 11000 10999 10996 ] final -140.06 input  -57.11 | X-H torsion

> <Gold.Protein.ActiveResidues>
 VAL166  LYS551  ARG553  GLY616  TRP617  ASP618  TYR619  PRO620  LYS621  CYS622 
 ASP623  PHE694  ASN695  SER759  ASP760  ASP761  ALA762  ILE779  LEU786  VAL792 
 PHE793  MET794  SER795  GLU796  ALA797  LYS798  CYS799  TRP800  GLU811  SER814 

> <Gold.Protein.RotatedAtoms>
  150.8261  134.7493  159.6813 H   0  0  0  0  0  0  0  0  0  0  0  0  # atno 6907 bound_to 6896
  152.4372  134.5660  159.9917 H   0  0  0  0  0  0  0  0  0  0  0  0  # atno 6908 bound_to 6896
  151.5832  133.3337  159.3048 H   0  0  0  0  0  0  0  0  0  0  0  0  # atno 6909 bound_to 6896
  144.7699  139.7860  143.6301 H   0  0  0  0  0  0  0  0  0  0  0  0  # atno 7974 bound_to 7965
  154.3998  140.1415  156.3727 H   0  0  0  0  0  0  0  0  0  0  0  0  # atno 8008 bound_to 7997
  155.8077  140.3474  155.5419 H   0  0  0  0  0  0  0  0  0  0  0  0  # atno 8009 bound_to 7997
  155.8418  140.0928  157.1720 H   0  0  0  0  0  0  0  0  0  0  0  0  # atno 8010 bound_to 7997
  140.0668  143.4915  152.2002 H   0  0  0  0  0  0  0  0  0  0  0  0  # atno 10167 bound_to 10162
  156.1134  130.6266  150.9337 H   0  0  0  0  0  0  0  0  0  0  0  0  # atno 10718 bound_to 10713
  154.1958  135.6419  153.5073 H   0  0  0  0  0  0  0  0  0  0  0  0  # atno 10763 bound_to 10752
  153.0024  135.5439  154.6368 H   0  0  0  0  0  0  0  0  0  0  0  0  # atno 10764 bound_to 10752
  154.5768  135.2921  155.0746 H   0  0  0  0  0  0  0  0  0  0  0  0  # atno 10765 bound_to 10752
  140.8459  134.2345  157.4786 H   0  0  0  0  0  0  0  0  0  0  0  0  # atno 11005 bound_to 11000
  146.1838  139.5043  142.9849 LP  0  0  0  0  0  0  0  0  0  0  0  0  # atno 17320 bound_to 7965
  145.6355  141.0295  143.1840 LP  0  0  0  0  0  0  0  0  0  0  0  0  # atno 17321 bound_to 7965
  139.5860  144.7531  151.3518 LP  0  0  0  0  0  0  0  0  0  0  0  0  # atno 17342 bound_to 10162
  140.7145  143.7302  150.7629 LP  0  0  0  0  0  0  0  0  0  0  0  0  # atno 17343 bound_to 10162
  157.6316  131.0920  150.8430 LP  0  0  0  0  0  0  0  0  0  0  0  0  # atno 17370 bound_to 10713
  156.8537  130.5089  149.5309 LP  0  0  0  0  0  0  0  0  0  0  0  0  # atno 17371 bound_to 10713
  139.8703  134.9659  156.4545 LP  0  0  0  0  0  0  0  0  0  0  0  0  # atno 17394 bound_to 11000
  140.8843  133.7894  155.9501 LP  0  0  0  0  0  0  0  0  0  0  0  0  # atno 17395 bound_to 11000

$$$$
