AV-unprocessed.smi:3196|AV-procd|sdf|12222|dock2
  -GOLD-   2272018 53D 1   1.00000     0.00000
 Structure written by MMmdl.
 33 34  0  0  0  0  0  0  0  0  1 V2000
  148.3522  145.0060  160.8239 C   0  0  0  0  0  0  0  0  0  0  0  0
  149.7476  144.4505  160.5202 C   0  0  0  0  0  0  0  0  0  0  0  0
  150.2217  144.7953  159.1020 C   0  0  0  0  0  0  0  0  0  0  0  0
  151.6049  144.2431  158.8050 C   0  0  1  0  0  0  0  0  0  0  0  0
  151.8706  142.7617  158.8367 C   0  0  0  0  0  0  0  0  0  0  0  0
  151.9247  143.5071  157.5183 C   0  0  1  0  0  0  0  0  0  0  0  0
  150.8726  143.2494  156.5797 N   0  0  0  0  0  0  0  0  0  0  0  0
  150.5010  142.0654  156.0609 C   0  0  0  0  0  0  0  0  0  0  0  0
  151.0584  141.0255  156.4040 O   0  0  0  0  0  0  0  0  0  0  0  0
  149.4691  142.1429  155.1968 N   0  0  0  0  0  0  0  0  0  0  0  0
  148.8059  141.1163  154.4677 C   0  0  0  0  0  0  0  0  0  0  0  0
  149.2849  139.7917  154.3140 C   0  0  0  0  0  0  0  0  0  0  0  0
  148.5203  138.8804  153.5579 C   0  0  0  0  0  0  0  0  0  0  0  0
  147.3517  139.2008  152.9637 N   0  0  0  0  0  0  0  0  0  0  0  0
  146.9008  140.4647  153.1065 C   0  0  0  0  0  0  0  0  0  0  0  0
  147.5860  141.4522  153.8422 C   0  0  0  0  0  0  0  0  0  0  0  0
  147.0759  142.7036  153.9443 F   0  0  0  0  0  0  0  0  0  0  0  0
  148.0425  144.7461  161.8364 H   0  0  0  0  0  0  0  0  0  0  0  0
  147.6098  144.6027  160.1349 H   0  0  0  0  0  0  0  0  0  0  0  0
  148.3339  146.0928  160.7388 H   0  0  0  0  0  0  0  0  0  0  0  0
  150.4569  144.8438  161.2495 H   0  0  0  0  0  0  0  0  0  0  0  0
  149.7397  143.3677  160.6493 H   0  0  0  0  0  0  0  0  0  0  0  0
  149.5087  144.4065  158.3741 H   0  0  0  0  0  0  0  0  0  0  0  0
  150.2477  145.8776  158.9704 H   0  0  0  0  0  0  0  0  0  0  0  0
  152.4061  144.8770  159.1807 H   0  0  0  0  0  0  0  0  0  0  0  0
  152.8139  142.4324  159.2674 H   0  0  0  0  0  0  0  0  0  0  0  0
  151.0244  142.1001  159.0138 H   0  0  0  0  0  0  0  0  0  0  0  0
  152.9277  143.6426  157.1167 H   0  0  0  0  0  0  0  0  0  0  0  0
  150.3091  144.0477  156.3248 H   0  0  0  0  0  0  0  0  0  0  0  0
  149.0962  143.0700  155.0523 H   0  0  0  0  0  0  0  0  0  0  0  0
  150.2118  139.4516  154.7470 H   0  0  0  0  0  0  0  0  0  0  0  0
  148.8602  137.8639  153.4249 H   0  0  0  0  0  0  0  0  0  0  0  0
  145.9658  140.6970  152.6187 H   0  0  0  0  0  0  0  0  0  0  0  0
  1  2  1  0  0  0  0
  1 18  1  0  0  0  0
  1 19  1  0  0  0  0
  1 20  1  0  0  0  0
  2  3  1  0  0  0  0
  2 21  1  0  0  0  0
  2 22  1  0  0  0  0
  3  4  1  0  0  0  0
  3 23  1  0  0  0  0
  3 24  1  0  0  0  0
  4  6  1  0  0  0  0
  4  5  1  0  0  0  0
  4 25  1  0  0  0  0
  5  6  1  0  0  0  0
  5 26  1  0  0  0  0
  5 27  1  0  0  0  0
  6  7  1  0  0  0  0
  6 28  1  0  0  0  0
  7  8  1  0  0  0  0
  7 29  1  0  0  0  0
  8  9  2  0  0  0  0
  8 10  1  0  0  0  0
 10 11  1  0  0  0  0
 10 30  1  0  0  0  0
 11 16  1  0  0  0  0
 11 12  2  0  0  0  0
 12 13  1  0  0  0  0
 12 31  1  0  0  0  0
 13 14  2  0  0  0  0
 13 32  1  0  0  0  0
 14 15  1  0  0  0  0
 15 16  2  0  0  0  0
 15 33  1  0  0  0  0
 16 17  1  0  0  0  0
M  END
> <s_m_source_file>
AV-unprocessed.smi

> <i_m_source_file_index>
3196

> <i_lp_mmshare_version>
43012

> <i_f3d_flags>
0

> <s_epik_input>
W0NIM11bQ0gyXVtDSDJdW0NAQEhdMVtDSDJdW0NASF0xW05IXUMoPU8pW05IXWMyW2NIXVtjSF1uW2NIXWMyRg==

> <s_epik_cmdline>
J2VwaWtfcHl0aG9uJywgJy1waCcsICc3LjAnLCAnLXRuJywgJzgnLCAnLW1hJywgJzIwMCcsICctbWV0YWxfYmluZGluZycsICctaW1hZScsICc8aW5maWxlLm1hZT4nLCAnLW9tYWUnLCAnPG91dGZpbGUubWFlPic=

> <r_epik_Ionization_Penalty>
0.00341997

> <r_epik_Ionization_Penalty_Charging>
0

> <r_epik_Ionization_Penalty_Neutral>
0.00341997

> <r_epik_State_Penalty>
0.00239198

> <r_epik_Charging_Adjusted_Penalty>
0.00239198

> <i_epik_Tot_Q>
0

> <i_epik_Tot_abs_Q>
0

> <r_epik_Metal_State_Penalty>
-0

> <b_epik_Metal_Only>
0

> <s_lp_Force_Field>
OPLS_2005

> <r_lp_Energy>
35.1311

> <b_lp_Chiralities_Consistent>
1

> <s_lp_Variant>
AV-unprocessed.smi:3196-2

> <Gold.Version>
5.8.1

> <Gold.Id.Protein>
6NUR|6NUR_protein|mol2

> <Gold.PLP.Fitness>
48.9301

> <Gold.PLP.PLP>
-37.2056

> <Gold.PLP.part.hbond>
-2.0000

> <Gold.PLP.part.metal>
0.0000

> <Gold.PLP.part.buried>
-3.2771

> <Gold.PLP.part.nonpolar>
-33.4160

> <Gold.PLP.part.repulsive>
0.7837

> <Gold.PLP.ligand.clash>
0.0000

> <Gold.PLP.ligand.torsion>
0.3865

> <Gold.PLP.Chemscore.Hbond>
1.9920

> <Gold.PLP.Chemscore.CHOScore>
1.9858

> <Gold.PLP.Chemscore.Metal>
0.0000

> <Gold.Chemscore.Hbonds>
donor molecule, donor type, donor heavy atom, donor atom, acceptor molecule, acceptor atom, score
      L1  H     7    29       P1  8028  1.00
      L1  H    10    30       P1  8028  0.99
      L1  C    13    32       P1  7948  1.00
      L1  C    15    33       P1 10175  1.00

> <Gold.PLP.Chemscore.Internal.Correction>
0.5641

> <Gold.Rescore>
     Score         DG    S(hbond)    S(metal)    S(lipo)     H(rot)  DE(clash)    DE(int)     intcor
     17.40     -19.15       1.90        0.00      92.83       1.39       0.31       1.44       ----

> <Gold.Chemscore.Fitness>
17.3995

> <Gold.Chemscore.DG>
-19.1469

> <Gold.Chemscore.ZeroCoef>
-5.4800

> <Gold.Chemscore.Hbond>
1.9017

> <Gold.Chemscore.Metal>
0.0000

> <Gold.Chemscore.Lipo>
92.8315

> <Gold.Chemscore.Internal_Hbond>
0.0000

> <Gold.Chemscore.DEClash>
0.3108

> <Gold.Chemscore.DEInternal>
1.4365

> <Gold.Chemscore.Rot>
1.3852

> <Gold.Chemscore.Internal.Correction>
   9.000000E+99

> <Gold.Chemscore.Hbonds>
donor molecule, donor type, donor heavy atom, donor atom, acceptor molecule, acceptor atom, score
      L1  H     7    29       P1  8028  0.96
      L1  H    10    30       P1  8028  0.94

> <Gold.Chemscore.Hbond.Weighted>
-6.3516

> <Gold.Chemscore.Metal.Weighted>
-0.0000

> <Gold.Chemscore.Lipo.Weighted>
-10.8613

> <Gold.Chemscore.Internal_Hbond.Weighted>
0.0000

> <Gold.Chemscore.DEClash.Weighted>
0.3108

> <Gold.Chemscore.DEInternal.Weighted>
1.4365

> <Gold.Chemscore.Rot.Weighted>
3.5460

> <Gold.Chemscore.Internal.Correction.Weighted>
   9.000000E+99

> <Gold.Protein.RotatedTorsions>
[ 6907 6896 6895 6894 ] final  143.47 input  -60.11 | X-H torsion
[ 7974 7965 7964 7962 ] final -102.62 input  175.53 | X-H torsion
[ 8008 7997 7996 7995 ] final   20.61 input   59.86 | X-H torsion
[ 10167 10162 10161 10158 ] final  121.12 input  -65.29 | X-H torsion
[ 10718 10713 10712 10709 ] final   35.20 input   66.30 | X-H torsion
[ 10763 10752 10751 10750 ] final  -21.79 input  -60.55 | X-H torsion
[ 11005 11000 10999 10996 ] final   68.79 input  -57.11 | X-H torsion

> <Gold.Protein.ActiveResidues>
 VAL166  LYS551  ARG553  GLY616  TRP617  ASP618  TYR619  PRO620  LYS621  CYS622 
 ASP623  PHE694  ASN695  SER759  ASP760  ASP761  ALA762  ILE779  LEU786  VAL792 
 PHE793  MET794  SER795  GLU796  ALA797  LYS798  CYS799  TRP800  GLU811  SER814 

> <Gold.Protein.RotatedAtoms>
  152.2058  133.4875  159.5083 H   0  0  0  0  0  0  0  0  0  0  0  0  # atno 6907 bound_to 6896
  150.6979  134.1531  159.4157 H   0  0  0  0  0  0  0  0  0  0  0  0  # atno 6908 bound_to 6896
  151.9449  135.0196  160.0589 H   0  0  0  0  0  0  0  0  0  0  0  0  # atno 6909 bound_to 6896
  145.2664  140.9285  143.3011 H   0  0  0  0  0  0  0  0  0  0  0  0  # atno 7974 bound_to 7965
  154.9382  140.3049  155.5134 H   0  0  0  0  0  0  0  0  0  0  0  0  # atno 8008 bound_to 7997
  156.2998  140.2341  156.4385 H   0  0  0  0  0  0  0  0  0  0  0  0  # atno 8009 bound_to 7997
  154.8171  140.0425  157.1373 H   0  0  0  0  0  0  0  0  0  0  0  0  # atno 8010 bound_to 7997
  139.5939  144.7035  151.3222 H   0  0  0  0  0  0  0  0  0  0  0  0  # atno 10167 bound_to 10162
  157.3197  130.7442  149.6777 H   0  0  0  0  0  0  0  0  0  0  0  0  # atno 10718 bound_to 10713
  153.6418  135.6985  153.5239 H   0  0  0  0  0  0  0  0  0  0  0  0  # atno 10763 bound_to 10752
  153.2777  135.4195  155.1048 H   0  0  0  0  0  0  0  0  0  0  0  0  # atno 10764 bound_to 10752
  154.8498  135.3594  154.5962 H   0  0  0  0  0  0  0  0  0  0  0  0  # atno 10765 bound_to 10752
  139.9691  134.6931  156.0484 H   0  0  0  0  0  0  0  0  0  0  0  0  # atno 11005 bound_to 11000
  144.9373  139.4229  143.6466 LP  0  0  0  0  0  0  0  0  0  0  0  0  # atno 17320 bound_to 7965
  146.3260  139.8315  142.8907 LP  0  0  0  0  0  0  0  0  0  0  0  0  # atno 17321 bound_to 7965
  140.7196  143.7172  150.7724 LP  0  0  0  0  0  0  0  0  0  0  0  0  # atno 17342 bound_to 10162
  140.0734  143.5039  152.2568 LP  0  0  0  0  0  0  0  0  0  0  0  0  # atno 17343 bound_to 10162
  155.9685  130.4227  150.4527 LP  0  0  0  0  0  0  0  0  0  0  0  0  # atno 17370 bound_to 10713
  157.2540  131.0552  151.2362 LP  0  0  0  0  0  0  0  0  0  0  0  0  # atno 17371 bound_to 10713
  141.1371  133.6573  156.3624 LP  0  0  0  0  0  0  0  0  0  0  0  0  # atno 17394 bound_to 11000
  140.5332  134.6192  157.5356 LP  0  0  0  0  0  0  0  0  0  0  0  0  # atno 17395 bound_to 11000

$$$$
