AV-unprocessed.smi:1036|AV-procd|sdf|4516|dock4
  -GOLD-   22720 2523D 1   1.00000     0.00000
 Structure written by MMmdl.
 42 44  0  0  0  0  0  0  0  0  2 V2000
  147.0811  140.2160  151.7043 O   0  0  0  0  0  0  0  0  0  0  0  0
  147.1184  140.0401  153.1028 C   0  0  0  0  0  0  0  0  0  0  0  0
  146.7314  138.5974  153.4453 C   0  0  0  0  0  0  0  0  0  0  0  0
  145.5354  138.1857  152.7302 N   0  0  0  0  0  0  0  0  0  0  0  0
  145.4615  136.8643  152.2770 C   0  0  0  0  0  0  0  0  0  0  0  0
  146.5137  136.0250  152.0834 N   0  3  0  0  0  0  0  0  0  0  0  0
  146.0176  134.7921  151.6490 C   0  0  0  0  0  0  0  0  0  0  0  0
  146.6780  133.6121  151.3213 C   0  0  0  0  0  0  0  0  0  0  0  0
  145.8731  132.5263  150.9188 C   0  0  0  0  0  0  0  0  0  0  0  0
  144.4686  132.6357  150.8536 C   0  0  0  0  0  0  0  0  0  0  0  0
  143.8069  133.8356  151.1871 C   0  0  0  0  0  0  0  0  0  0  0  0
  144.6079  134.9062  151.5824 C   0  0  0  0  0  0  0  0  0  0  0  0
  144.3063  136.2144  151.9802 N   0  0  0  0  0  0  0  0  0  0  0  0
  142.9049  136.6541  152.0516 C   0  0  0  0  0  0  0  0  0  0  0  0
  142.6283  137.5276  153.2921 C   0  0  2  0  0  0  0  0  0  0  0  0
  143.1296  136.8497  154.4255 O   0  0  0  0  0  0  0  0  0  0  0  0
  141.1499  137.8765  153.4286 C   0  0  0  0  0  0  0  0  0  0  0  0
  140.7346  139.2269  153.4501 C   0  0  0  0  0  0  0  0  0  0  0  0
  139.3744  139.5516  153.6143 C   0  0  0  0  0  0  0  0  0  0  0  0
  138.9869  140.8485  153.6393 F   0  0  0  0  0  0  0  0  0  0  0  0
  138.4189  138.5287  153.7611 C   0  0  0  0  0  0  0  0  0  0  0  0
  138.8248  137.1809  153.7430 C   0  0  0  0  0  0  0  0  0  0  0  0
  140.1847  136.8538  153.5779 C   0  0  0  0  0  0  0  0  0  0  0  0
  140.5593  135.5517  153.5838 F   0  0  0  0  0  0  0  0  0  0  0  0
  147.9089  139.9359  151.3435 H   0  0  0  0  0  0  0  0  0  0  0  0
  148.1216  140.2702  153.4626 H   0  0  0  0  0  0  0  0  0  0  0  0
  146.4315  140.7470  153.5694 H   0  0  0  0  0  0  0  0  0  0  0  0
  147.5504  137.9230  153.1918 H   0  0  0  0  0  0  0  0  0  0  0  0
  146.5546  138.5061  154.5183 H   0  0  0  0  0  0  0  0  0  0  0  0
  144.6760  138.6860  152.9078 H   0  0  0  0  0  0  0  0  0  0  0  0
  147.7534  133.5230  151.3720 H   0  0  0  0  0  0  0  0  0  0  0  0
  146.3423  131.5892  150.6560 H   0  0  0  0  0  0  0  0  0  0  0  0
  143.8859  131.7810  150.5419 H   0  0  0  0  0  0  0  0  0  0  0  0
  142.7306  133.9080  151.1364 H   0  0  0  0  0  0  0  0  0  0  0  0
  142.6770  137.2017  151.1362 H   0  0  0  0  0  0  0  0  0  0  0  0
  142.2678  135.7686  152.0449 H   0  0  0  0  0  0  0  0  0  0  0  0
  143.2048  138.4498  153.2146 H   0  0  0  0  0  0  0  0  0  0  0  0
  143.0162  135.9204  154.2946 H   0  0  0  0  0  0  0  0  0  0  0  0
  141.4602  140.0210  153.3514 H   0  0  0  0  0  0  0  0  0  0  0  0
  137.3759  138.7772  153.8915 H   0  0  0  0  0  0  0  0  0  0  0  0
  138.0920  136.3966  153.8615 H   0  0  0  0  0  0  0  0  0  0  0  0
  147.4825  136.2726  152.2384 H   0  0  0  0  0  0  0  0  0  0  0  0
  1  2  1  0  0  0  0
  1 25  1  0  0  0  0
  2  3  1  0  0  0  0
  2 26  1  0  0  0  0
  2 27  1  0  0  0  0
  3  4  1  0  0  0  0
  3 28  1  0  0  0  0
  3 29  1  0  0  0  0
  4  5  1  0  0  0  0
  4 30  1  0  0  0  0
  5 13  1  0  0  0  0
  5  6  2  0  0  0  0
  6  7  1  0  0  0  0
  6 42  1  0  0  0  0
  7 12  2  0  0  0  0
  7  8  1  0  0  0  0
  8  9  2  0  0  0  0
  8 31  1  0  0  0  0
  9 10  1  0  0  0  0
  9 32  1  0  0  0  0
 10 11  2  0  0  0  0
 10 33  1  0  0  0  0
 11 12  1  0  0  0  0
 11 34  1  0  0  0  0
 12 13  1  0  0  0  0
 13 14  1  0  0  0  0
 14 15  1  0  0  0  0
 14 35  1  0  0  0  0
 14 36  1  0  0  0  0
 15 16  1  0  0  0  0
 15 17  1  0  0  0  0
 15 37  1  0  0  0  0
 16 38  1  0  0  0  0
 17 23  1  0  0  0  0
 17 18  2  0  0  0  0
 18 19  1  0  0  0  0
 18 39  1  0  0  0  0
 19 20  1  0  0  0  0
 19 21  2  0  0  0  0
 21 22  1  0  0  0  0
 21 40  1  0  0  0  0
 22 23  2  0  0  0  0
 22 41  1  0  0  0  0
 23 24  1  0  0  0  0
M  CHG  1   6   1
M  END
> <s_m_source_file>
AV-unprocessed.smi

> <i_m_source_file_index>
1036

> <i_lp_mmshare_version>
43012

> <i_f3d_flags>
0

> <s_epik_input>
W09IXVtDSDJdW0NIMl1bTkhdYyhuMSluKGMoYzEyKVtjSF1bY0hdW2NIXVtjSF0yKVtDSDJdW0NASF0oW09IXSljM1tjSF1jKEYpW2NIXVtjSF1jM0Y=

> <s_epik_cmdline>
J2VwaWtfcHl0aG9uJywgJy1waCcsICc3LjAnLCAnLXRuJywgJzgnLCAnLW1hJywgJzIwMCcsICctbWV0YWxfYmluZGluZycsICctaW1hZScsICc8aW5maWxlLm1hZT4nLCAnLW9tYWUnLCAnPG91dGZpbGUubWFlPic=

> <r_epik_Ionization_Penalty>
0.0688114

> <r_epik_Ionization_Penalty_Charging>
0.0688055

> <r_epik_Ionization_Penalty_Neutral>
5.85933e-06

> <r_epik_State_Penalty>
0.0602293

> <r_epik_Charging_Adjusted_Penalty>
0.129035

> <i_epik_Tot_Q>
1

> <i_epik_Tot_abs_Q>
1

> <r_epik_Metal_State_Penalty>
2.77411

> <b_epik_Metal_Only>
0

> <s_lp_Force_Field>
OPLS_2005

> <r_lp_Energy>
18.4992

> <b_lp_Chiralities_Consistent>
1

> <s_lp_Variant>
AV-unprocessed.smi:1036-1

> <Gold.Version>
5.8.1

> <Gold.Id.Protein>
6NUR|6NUR_protein|mol2

> <Gold.PLP.Fitness>
55.5430

> <Gold.PLP.PLP>
-43.4902

> <Gold.PLP.part.hbond>
-2.7872

> <Gold.PLP.part.metal>
0.0000

> <Gold.PLP.part.buried>
-3.7130

> <Gold.PLP.part.nonpolar>
-37.5194

> <Gold.PLP.part.repulsive>
0.0482

> <Gold.PLP.ligand.clash>
0.0000

> <Gold.PLP.ligand.torsion>
0.5263

> <Gold.PLP.Chemscore.Hbond>
4.3504

> <Gold.PLP.Chemscore.CHOScore>
0.0000

> <Gold.PLP.Chemscore.Metal>
0.0000

> <Gold.Chemscore.Hbonds>
donor molecule, donor type, donor heavy atom, donor atom, acceptor molecule, acceptor atom, score
      L1  H     1    25       P1  7957  1.00
      L1  H     4    30       P1 10175  1.49
      L1  H     6    42       P1  7948  1.89

> <Gold.PLP.Chemscore.Internal.Correction>
0.0540

> <Gold.Rescore>
     Score         DG    S(hbond)    S(metal)    S(lipo)     H(rot)  DE(clash)    DE(int)     intcor
     14.53     -17.58       2.65        0.00      99.71       3.29       1.44       1.61       ----

> <Gold.Chemscore.Fitness>
14.5317

> <Gold.Chemscore.DG>
-17.5849

> <Gold.Chemscore.ZeroCoef>
-5.4800

> <Gold.Chemscore.Hbond>
2.6509

> <Gold.Chemscore.Metal>
0.0000

> <Gold.Chemscore.Lipo>
99.7145

> <Gold.Chemscore.Internal_Hbond>
0.0000

> <Gold.Chemscore.DEClash>
1.4435

> <Gold.Chemscore.DEInternal>
1.6097

> <Gold.Chemscore.Rot>
3.2874

> <Gold.Chemscore.Internal.Correction>
   9.000000E+99

> <Gold.Chemscore.Hbonds>
donor molecule, donor type, donor heavy atom, donor atom, acceptor molecule, acceptor atom, score
      L1  H     1    25       P1  7957  0.97
      L1  H     4    30       P1 10175  0.73
      L1  H     6    42       P1  7948  0.85

> <Gold.Chemscore.Hbond.Weighted>
-8.8541

> <Gold.Chemscore.Metal.Weighted>
-0.0000

> <Gold.Chemscore.Lipo.Weighted>
-11.6666

> <Gold.Chemscore.Internal_Hbond.Weighted>
0.0000

> <Gold.Chemscore.DEClash.Weighted>
1.4435

> <Gold.Chemscore.DEInternal.Weighted>
1.6097

> <Gold.Chemscore.Rot.Weighted>
8.4158

> <Gold.Chemscore.Internal.Correction.Weighted>
   9.000000E+99

> <Gold.Protein.RotatedTorsions>
[ 6907 6896 6895 6894 ] final  167.67 input  -60.11 | X-H torsion
[ 7974 7965 7964 7962 ] final  -64.92 input  175.53 | X-H torsion
[ 8008 7997 7996 7995 ] final  160.54 input   59.86 | X-H torsion
[ 10167 10162 10161 10158 ] final  -89.42 input  -65.29 | X-H torsion
[ 10718 10713 10712 10709 ] final  140.27 input   66.30 | X-H torsion
[ 10763 10752 10751 10750 ] final   36.21 input  -60.55 | X-H torsion
[ 11005 11000 10999 10996 ] final   33.50 input  -57.11 | X-H torsion

> <Gold.Protein.ActiveResidues>
 VAL166  LYS551  ARG553  GLY616  TRP617  ASP618  TYR619  PRO620  LYS621  CYS622 
 ASP623  PHE694  ASN695  SER759  ASP760  ASP761  ALA762  ILE779  LEU786  VAL792 
 PHE793  MET794  SER795  GLU796  ALA797  LYS798  CYS799  TRP800  GLU811  SER814 

> <Gold.Protein.RotatedAtoms>
  151.8597  133.3455  159.3699 H   0  0  0  0  0  0  0  0  0  0  0  0  # atno 6907 bound_to 6896
  150.7182  134.5218  159.5667 H   0  0  0  0  0  0  0  0  0  0  0  0  # atno 6908 bound_to 6896
  152.2729  134.7913  160.0462 H   0  0  0  0  0  0  0  0  0  0  0  0  # atno 6909 bound_to 6896
  145.7607  140.8863  143.0431 H   0  0  0  0  0  0  0  0  0  0  0  0  # atno 7974 bound_to 7965
  156.2165  140.1801  156.7576 H   0  0  0  0  0  0  0  0  0  0  0  0  # atno 8008 bound_to 7997
  154.5800  140.0668  156.9119 H   0  0  0  0  0  0  0  0  0  0  0  0  # atno 8009 bound_to 7997
  155.2520  140.3329  155.4284 H   0  0  0  0  0  0  0  0  0  0  0  0  # atno 8010 bound_to 7997
  140.3650  143.2823  151.9569 H   0  0  0  0  0  0  0  0  0  0  0  0  # atno 10167 bound_to 10162
  157.4051  131.1021  151.0511 H   0  0  0  0  0  0  0  0  0  0  0  0  # atno 10718 bound_to 10713
  153.0086  135.6312  154.1949 H   0  0  0  0  0  0  0  0  0  0  0  0  # atno 10763 bound_to 10752
  154.1692  135.2819  155.3087 H   0  0  0  0  0  0  0  0  0  0  0  0  # atno 10764 bound_to 10752
  154.5921  135.5614  153.7349 H   0  0  0  0  0  0  0  0  0  0  0  0  # atno 10765 bound_to 10752
  140.2625  134.3176  155.7853 H   0  0  0  0  0  0  0  0  0  0  0  0  # atno 11005 bound_to 11000
  144.6831  139.9719  143.7482 LP  0  0  0  0  0  0  0  0  0  0  0  0  # atno 17320 bound_to 7965
  146.0267  139.3298  143.0780 LP  0  0  0  0  0  0  0  0  0  0  0  0  # atno 17321 bound_to 7965
  139.4810  144.5958  151.7692 LP  0  0  0  0  0  0  0  0  0  0  0  0  # atno 17342 bound_to 10162
  140.5089  144.1055  150.5990 LP  0  0  0  0  0  0  0  0  0  0  0  0  # atno 17343 bound_to 10162
  157.1496  130.6178  149.5578 LP  0  0  0  0  0  0  0  0  0  0  0  0  # atno 17370 bound_to 10713
  155.9834  130.4853  150.6932 LP  0  0  0  0  0  0  0  0  0  0  0  0  # atno 17371 bound_to 10713
  141.2188  133.7418  156.9209 LP  0  0  0  0  0  0  0  0  0  0  0  0  # atno 17394 bound_to 11000
  140.1451  134.9268  157.2518 LP  0  0  0  0  0  0  0  0  0  0  0  0  # atno 17395 bound_to 11000

$$$$
