AV-unprocessed.smi:1973|AV-procd|sdf|7977|dock4
  -GOLD-   2272010153D 1   1.00000     0.00000
 Structure written by MMmdl.
 48 50  0  0  0  0  0  0  0  0  2 V2000
  151.8095  139.9137  156.0140 C   0  0  0  0  0  0  0  0  0  0  0  0
  150.7602  140.0716  155.0754 O   0  0  0  0  0  0  0  0  0  0  0  0
  150.2569  138.8305  154.6111 C   0  0  0  0  0  0  0  0  0  0  0  0
  149.7279  138.0283  155.8092 C   0  0  0  0  0  0  0  0  0  0  0  0
  149.3835  136.6567  155.4223 N   0  0  0  0  0  0  0  0  0  0  0  0
  148.0469  136.4804  155.1060 N   0  0  0  0  0  0  0  0  0  0  0  0
  147.6079  135.3114  154.7672 C   0  0  0  0  0  0  0  0  0  0  0  0
  146.1748  135.0774  154.4363 C   0  0  0  0  0  0  0  0  0  0  0  0
  145.7384  133.9521  154.1891 O   0  0  0  0  0  0  0  0  0  0  0  0
  145.3964  136.1746  154.4381 N   0  0  0  0  0  0  0  0  0  0  0  0
  143.9614  136.1866  154.1775 C   0  0  0  0  0  0  0  0  0  0  0  0
  143.6374  135.7424  152.7385 C   0  0  1  0  0  0  0  0  0  0  0  0
  144.7770  135.9331  151.7373 C   0  0  0  0  0  0  0  0  0  0  0  0
  144.4623  134.9401  150.6114 C   0  0  0  0  0  0  0  0  0  0  0  0
  143.4956  133.9609  151.1615 N   0  3  1  0  0  0  0  0  0  0  0  0
  143.8226  132.5500  150.8650 C   0  0  0  0  0  0  0  0  0  0  0  0
  145.2973  132.3050  150.6525 C   0  0  0  0  0  0  0  0  0  0  0  0
  144.3550  132.3341  149.4686 C   0  0  0  0  0  0  0  0  0  0  0  0
  143.3349  134.2516  152.6005 C   0  0  0  0  0  0  0  0  0  0  0  0
  148.5039  134.1690  154.7048 C   0  0  0  0  0  0  0  0  0  0  0  0
  149.8038  134.3557  155.0226 C   0  0  0  0  0  0  0  0  0  0  0  0
  150.3239  135.6643  155.4222 C   0  0  0  0  0  0  0  0  0  0  0  0
  151.4984  135.8546  155.7362 O   0  0  0  0  0  0  0  0  0  0  0  0
  152.1632  140.8928  156.3365 H   0  0  0  0  0  0  0  0  0  0  0  0
  152.6531  139.3780  155.5769 H   0  0  0  0  0  0  0  0  0  0  0  0
  151.4696  139.3712  156.8972 H   0  0  0  0  0  0  0  0  0  0  0  0
  149.4599  138.9997  153.8853 H   0  0  0  0  0  0  0  0  0  0  0  0
  151.0489  138.2735  154.1075 H   0  0  0  0  0  0  0  0  0  0  0  0
  150.4841  138.0105  156.5961 H   0  0  0  0  0  0  0  0  0  0  0  0
  148.8659  138.5341  156.2476 H   0  0  0  0  0  0  0  0  0  0  0  0
  145.8323  137.0621  154.6458 H   0  0  0  0  0  0  0  0  0  0  0  0
  143.4821  135.5194  154.8946 H   0  0  0  0  0  0  0  0  0  0  0  0
  143.5578  137.1827  154.3673 H   0  0  0  0  0  0  0  0  0  0  0  0
  142.7680  136.2954  152.3779 H   0  0  0  0  0  0  0  0  0  0  0  0
  144.8567  136.9605  151.3801 H   0  0  0  0  0  0  0  0  0  0  0  0
  145.7286  135.6681  152.2005 H   0  0  0  0  0  0  0  0  0  0  0  0
  143.9965  135.4462  149.7653 H   0  0  0  0  0  0  0  0  0  0  0  0
  145.3744  134.4628  150.2492 H   0  0  0  0  0  0  0  0  0  0  0  0
  143.1993  131.7956  151.3424 H   0  0  0  0  0  0  0  0  0  0  0  0
  145.9818  133.1432  150.7714 H   0  0  0  0  0  0  0  0  0  0  0  0
  145.6934  131.3360  150.9498 H   0  0  0  0  0  0  0  0  0  0  0  0
  144.1314  131.3842  148.9869 H   0  0  0  0  0  0  0  0  0  0  0  0
  144.4133  133.1915  148.8004 H   0  0  0  0  0  0  0  0  0  0  0  0
  144.0569  133.6693  153.1761 H   0  0  0  0  0  0  0  0  0  0  0  0
  142.3355  133.9917  152.9510 H   0  0  0  0  0  0  0  0  0  0  0  0
  148.1478  133.1920  154.4125 H   0  0  0  0  0  0  0  0  0  0  0  0
  150.4813  133.5154  154.9808 H   0  0  0  0  0  0  0  0  0  0  0  0
  142.6074  134.1662  150.7265 H   0  0  0  0  0  0  0  0  0  0  0  0
  1  2  1  0  0  0  0
  1 24  1  0  0  0  0
  1 25  1  0  0  0  0
  1 26  1  0  0  0  0
  2  3  1  0  0  0  0
  3  4  1  0  0  0  0
  3 27  1  0  0  0  0
  3 28  1  0  0  0  0
  4  5  1  0  0  0  0
  4 29  1  0  0  0  0
  4 30  1  0  0  0  0
  5 22  1  0  0  0  0
  5  6  1  0  0  0  0
  6  7  2  0  0  0  0
  7  8  1  0  0  0  0
  7 20  1  0  0  0  0
  8  9  2  0  0  0  0
  8 10  1  0  0  0  0
 10 11  1  0  0  0  0
 10 31  1  0  0  0  0
 11 12  1  0  0  0  0
 11 32  1  0  0  0  0
 11 33  1  0  0  0  0
 12 19  1  0  0  0  0
 12 13  1  0  0  0  0
 12 34  1  0  0  0  0
 13 14  1  0  0  0  0
 13 35  1  0  0  0  0
 13 36  1  0  0  0  0
 14 15  1  0  0  0  0
 14 37  1  0  0  0  0
 14 38  1  0  0  0  0
 15 16  1  0  0  0  0
 15 19  1  0  0  0  0
 15 48  1  0  0  0  0
 16 18  1  0  0  0  0
 16 17  1  0  0  0  0
 16 39  1  0  0  0  0
 17 18  1  0  0  0  0
 17 40  1  0  0  0  0
 17 41  1  0  0  0  0
 18 42  1  0  0  0  0
 18 43  1  0  0  0  0
 19 44  1  0  0  0  0
 19 45  1  0  0  0  0
 20 21  2  0  0  0  0
 20 46  1  0  0  0  0
 21 22  1  0  0  0  0
 21 47  1  0  0  0  0
 22 23  2  0  0  0  0
M  CHG  1  15   1
M  END
> <s_m_source_file>
AV-unprocessed.smi

> <i_m_source_file_index>
1973

> <i_lp_mmshare_version>
43012

> <i_f3d_flags>
0

> <s_epik_input>
W0NIM11PW0NIMl1bQ0gyXW4xbmMoW2NIXVtjSF1jMT1PKUMoPU8pW05IXVtDSDJdW0NAQEhdMltDSDJdW0NIMl1OKFtDSDJdMilbQ0hdM1tDSDJdW0NIMl0z

> <s_epik_cmdline>
J2VwaWtfcHl0aG9uJywgJy1waCcsICc3LjAnLCAnLXRuJywgJzgnLCAnLW1hJywgJzIwMCcsICctbWV0YWxfYmluZGluZycsICctaW1hZScsICc8aW5maWxlLm1hZT4nLCAnLW9tYWUnLCAnPG91dGZpbGUubWFlPic=

> <r_lp_tautomer_probability>
1

> <r_epik_Ionization_Penalty>
0.000225706

> <r_epik_Ionization_Penalty_Charging>
0.000223776

> <r_epik_Ionization_Penalty_Neutral>
1.93004e-06

> <r_epik_State_Penalty>
-0

> <r_epik_Charging_Adjusted_Penalty>
0.000223776

> <i_epik_Tot_Q>
1

> <i_epik_Tot_abs_Q>
1

> <r_epik_Metal_State_Penalty>
-0

> <b_epik_Metal_Only>
0

> <s_lp_Force_Field>
OPLS_2005

> <r_lp_Energy>
57.2407

> <b_lp_Chiralities_Consistent>
1

> <s_lp_Variant>
AV-unprocessed.smi:1973-2

> <Gold.Version>
5.8.1

> <Gold.Id.Protein>
6NUR|6NUR_protein|mol2

> <Gold.PLP.Fitness>
47.0476

> <Gold.PLP.PLP>
-36.7874

> <Gold.PLP.part.hbond>
-3.0000

> <Gold.PLP.part.metal>
0.0000

> <Gold.PLP.part.buried>
-6.6409

> <Gold.PLP.part.nonpolar>
-28.4381

> <Gold.PLP.part.repulsive>
0.3186

> <Gold.PLP.ligand.clash>
0.0000

> <Gold.PLP.ligand.torsion>
1.5020

> <Gold.PLP.Chemscore.Hbond>
4.0000

> <Gold.PLP.Chemscore.CHOScore>
0.0000

> <Gold.PLP.Chemscore.Metal>
0.0000

> <Gold.Chemscore.Hbonds>
donor molecule, donor type, donor heavy atom, donor atom, acceptor molecule, acceptor atom, score
      L1  H    15    48       P1 10186  2.00
      P1  H  7989  7998       L1     2  1.00
      P1  H 10752 10763       L1    23  1.00

> <Gold.PLP.Chemscore.Internal.Correction>
1.2641

> <Gold.Rescore>
     Score         DG    S(hbond)    S(metal)    S(lipo)     H(rot)  DE(clash)    DE(int)     intcor
     16.56     -19.21       2.74        0.00      82.15       1.97       0.03       2.63       ----

> <Gold.Chemscore.Fitness>
16.5554

> <Gold.Chemscore.DG>
-19.2091

> <Gold.Chemscore.ZeroCoef>
-5.4800

> <Gold.Chemscore.Hbond>
2.7436

> <Gold.Chemscore.Metal>
0.0000

> <Gold.Chemscore.Lipo>
82.1506

> <Gold.Chemscore.Internal_Hbond>
0.0000

> <Gold.Chemscore.DEClash>
0.0272

> <Gold.Chemscore.DEInternal>
2.6265

> <Gold.Chemscore.Rot>
1.9711

> <Gold.Chemscore.Internal.Correction>
   9.000000E+99

> <Gold.Chemscore.Hbonds>
donor molecule, donor type, donor heavy atom, donor atom, acceptor molecule, acceptor atom, score
      L1  H    15    48       P1 10186  0.53
      P1  H  7989  7998       L1     2  0.22
      P1  H 10752 10763       L1    23  0.99

> <Gold.Chemscore.Hbond.Weighted>
-9.1635

> <Gold.Chemscore.Metal.Weighted>
-0.0000

> <Gold.Chemscore.Lipo.Weighted>
-9.6116

> <Gold.Chemscore.Internal_Hbond.Weighted>
0.0000

> <Gold.Chemscore.DEClash.Weighted>
0.0272

> <Gold.Chemscore.DEInternal.Weighted>
2.6265

> <Gold.Chemscore.Rot.Weighted>
5.0460

> <Gold.Chemscore.Internal.Correction.Weighted>
   9.000000E+99

> <Gold.Protein.RotatedTorsions>
[ 6907 6896 6895 6894 ] final   21.66 input  -60.11 | X-H torsion
[ 7974 7965 7964 7962 ] final -170.53 input  175.53 | X-H torsion
[ 8008 7997 7996 7995 ] final -163.52 input   59.86 | X-H torsion
[ 10167 10162 10161 10158 ] final  112.57 input  -65.29 | X-H torsion
[ 10718 10713 10712 10709 ] final -100.41 input   66.30 | X-H torsion
[ 10763 10752 10751 10750 ] final   92.91 input  -60.55 | X-H torsion
[ 11005 11000 10999 10996 ] final   45.76 input  -57.11 | X-H torsion

> <Gold.Protein.ActiveResidues>
 VAL166  LYS551  ARG553  GLY616  TRP617  ASP618  TYR619  PRO620  LYS621  CYS622 
 ASP623  PHE694  ASN695  SER759  ASP760  ASP761  ALA762  ILE779  LEU786  VAL792 
 PHE793  MET794  SER795  GLU796  ALA797  LYS798  CYS799  TRP800  GLU811  SER814 

> <Gold.Protein.RotatedAtoms>
  151.9151  135.0322  160.0517 H   0  0  0  0  0  0  0  0  0  0  0  0  # atno 6907 bound_to 6896
  152.2246  133.5006  159.5190 H   0  0  0  0  0  0  0  0  0  0  0  0  # atno 6908 bound_to 6896
  150.7009  134.1213  159.4078 H   0  0  0  0  0  0  0  0  0  0  0  0  # atno 6909 bound_to 6896
  144.7169  140.2057  143.6333 H   0  0  0  0  0  0  0  0  0  0  0  0  # atno 7974 bound_to 7965
  155.8224  140.0921  157.1841 H   0  0  0  0  0  0  0  0  0  0  0  0  # atno 8008 bound_to 7997
  154.3979  140.1434  156.3576 H   0  0  0  0  0  0  0  0  0  0  0  0  # atno 8009 bound_to 7997
  155.8252  140.3445  155.5541 H   0  0  0  0  0  0  0  0  0  0  0  0  # atno 8010 bound_to 7997
  139.6525  144.7128  151.2020 H   0  0  0  0  0  0  0  0  0  0  0  0  # atno 10167 bound_to 10162
  156.0162  130.5326  150.6813 H   0  0  0  0  0  0  0  0  0  0  0  0  # atno 10718 bound_to 10713
  153.2244  135.4344  155.0525 H   0  0  0  0  0  0  0  0  0  0  0  0  # atno 10763 bound_to 10752
  154.8266  135.3364  154.6880 H   0  0  0  0  0  0  0  0  0  0  0  0  # atno 10764 bound_to 10752
  153.7310  135.7011  153.5045 H   0  0  0  0  0  0  0  0  0  0  0  0  # atno 10765 bound_to 10752
  140.1430  134.4558  155.8435 H   0  0  0  0  0  0  0  0  0  0  0  0  # atno 11005 bound_to 11000
  145.8638  139.2236  143.1701 LP  0  0  0  0  0  0  0  0  0  0  0  0  # atno 17320 bound_to 7965
  146.0149  140.8401  142.9952 LP  0  0  0  0  0  0  0  0  0  0  0  0  # atno 17321 bound_to 7965
  140.7544  143.6126  150.8591 LP  0  0  0  0  0  0  0  0  0  0  0  0  # atno 17342 bound_to 10162
  139.9775  143.5988  152.2953 LP  0  0  0  0  0  0  0  0  0  0  0  0  # atno 17343 bound_to 10162
  157.4514  131.0873  151.0841 LP  0  0  0  0  0  0  0  0  0  0  0  0  # atno 17370 bound_to 10713
  157.1356  130.6121  149.5541 LP  0  0  0  0  0  0  0  0  0  0  0  0  # atno 17371 bound_to 10713
  141.2189  133.6841  156.7282 LP  0  0  0  0  0  0  0  0  0  0  0  0  # atno 17394 bound_to 11000
  140.2698  134.8401  157.3836 LP  0  0  0  0  0  0  0  0  0  0  0  0  # atno 17395 bound_to 11000

$$$$
