AV-unprocessed.smi:1732|AV-procd|sdf|6976|dock1
  -GOLD-   22720 8183D 1   1.00000     0.00000
 Structure written by MMmdl.
 36 37  0  0  0  0  0  0  0  0  1 V2000
  151.9220  140.0203  155.1139 O   0  0  0  0  0  0  0  0  0  0  0  0
  150.9397  139.5979  155.7225 C   0  0  0  0  0  0  0  0  0  0  0  0
  149.9400  138.7005  154.9956 C   0  0  0  0  0  0  0  0  0  0  0  0
  149.2889  139.4629  153.9895 O   0  0  0  0  0  0  0  0  0  0  0  0
  148.1136  140.1209  154.4374 C   0  0  0  0  0  0  0  0  0  0  0  0
  147.3438  140.6959  153.2507 C   0  0  0  0  0  0  0  0  0  0  0  0
  146.4498  141.7710  153.8702 C   0  0  0  0  0  0  0  0  0  0  0  0
  147.2155  142.2984  155.0933 C   0  0  0  0  0  0  0  0  0  0  0  0
  148.4068  141.3521  155.3025 C   0  0  0  0  0  0  0  0  0  0  0  0
  150.6643  139.8339  157.0208 N   0  0  0  0  0  0  0  0  0  0  0  0
  151.3496  140.6343  157.9498 C   0  0  0  0  0  0  0  0  0  0  0  0
  151.2274  141.9837  158.0522 C   0  0  0  0  0  0  0  0  0  0  0  0
  151.9510  142.7498  159.0531 C   0  0  0  0  0  0  0  0  0  0  0  0
  151.8681  144.2674  159.1062 C   0  0  0  0  0  0  0  0  0  0  0  0
  152.7404  144.8301  158.2687 F   0  0  0  0  0  0  0  0  0  0  0  0
  150.6458  144.6907  158.7840 F   0  0  0  0  0  0  0  0  0  0  0  0
  152.1425  144.6928  160.3386 F   0  0  0  0  0  0  0  0  0  0  0  0
  152.7583  142.0533  159.8743 C   0  0  0  0  0  0  0  0  0  0  0  0
  152.8725  140.6640  159.7899 N   0  0  0  0  0  0  0  0  0  0  0  0
  152.2221  139.9018  158.8825 C   0  0  0  0  0  0  0  0  0  0  0  0
  152.3778  138.6810  158.8715 O   0  0  0  0  0  0  0  0  0  0  0  0
  153.4866  140.2128  160.4524 H   0  0  0  0  0  0  0  0  0  0  0  0
  150.4592  137.8504  154.5497 H   0  0  0  0  0  0  0  0  0  0  0  0
  149.2235  138.3124  155.7204 H   0  0  0  0  0  0  0  0  0  0  0  0
  147.4636  139.4282  154.9756 H   0  0  0  0  0  0  0  0  0  0  0  0
  148.0377  141.1595  152.5479 H   0  0  0  0  0  0  0  0  0  0  0  0
  146.7782  139.9375  152.7083 H   0  0  0  0  0  0  0  0  0  0  0  0
  146.2059  142.5609  153.1591 H   0  0  0  0  0  0  0  0  0  0  0  0
  145.5106  141.3214  154.1952 H   0  0  0  0  0  0  0  0  0  0  0  0
  147.5628  143.3195  154.9324 H   0  0  0  0  0  0  0  0  0  0  0  0
  146.5661  142.3101  155.9692 H   0  0  0  0  0  0  0  0  0  0  0  0
  148.5567  141.0981  156.3521 H   0  0  0  0  0  0  0  0  0  0  0  0
  149.3173  141.8386  154.9498 H   0  0  0  0  0  0  0  0  0  0  0  0
  149.8584  139.3537  157.3956 H   0  0  0  0  0  0  0  0  0  0  0  0
  150.5637  142.5322  157.4039 H   0  0  0  0  0  0  0  0  0  0  0  0
  153.3729  142.4972  160.6436 H   0  0  0  0  0  0  0  0  0  0  0  0
  1  2  2  0  0  0  0
  2  3  1  0  0  0  0
  2 10  1  0  0  0  0
  3  4  1  0  0  0  0
  3 23  1  0  0  0  0
  3 24  1  0  0  0  0
  4  5  1  0  0  0  0
  5  9  1  0  0  0  0
  5  6  1  0  0  0  0
  5 25  1  0  0  0  0
  6  7  1  0  0  0  0
  6 26  1  0  0  0  0
  6 27  1  0  0  0  0
  7  8  1  0  0  0  0
  7 28  1  0  0  0  0
  7 29  1  0  0  0  0
  8  9  1  0  0  0  0
  8 30  1  0  0  0  0
  8 31  1  0  0  0  0
  9 32  1  0  0  0  0
  9 33  1  0  0  0  0
 10 11  1  0  0  0  0
 10 34  1  0  0  0  0
 11 20  1  0  0  0  0
 11 12  2  0  0  0  0
 12 13  1  0  0  0  0
 12 35  1  0  0  0  0
 13 14  1  0  0  0  0
 13 18  2  0  0  0  0
 14 15  1  0  0  0  0
 14 16  1  0  0  0  0
 14 17  1  0  0  0  0
 18 19  1  0  0  0  0
 18 36  1  0  0  0  0
 19 22  1  0  0  0  0
 19 20  1  0  0  0  0
 20 21  2  0  0  0  0
M  END
> <s_m_source_file>
AV-unprocessed.smi

> <i_m_source_file_index>
1732

> <i_lp_mmshare_version>
43012

> <i_f3d_flags>
0

> <s_epik_input>
W0NIMl0xW0NIMl1bQ0gyXVtDSDJdW0NIXTFPW0NIMl1DKD1PKVtOSF1jMltjSF1jKEMoRikoRilGKVtjSF1bbkhdYzI9Tw==

> <s_epik_cmdline>
J2VwaWtfcHl0aG9uJywgJy1waCcsICc3LjAnLCAnLXRuJywgJzgnLCAnLW1hJywgJzIwMCcsICctbWV0YWxfYmluZGluZycsICctaW1hZScsICc8aW5maWxlLm1hZT4nLCAnLW9tYWUnLCAnPG91dGZpbGUubWFlPic=

> <r_lp_tautomer_probability>
0.999

> <r_epik_Ionization_Penalty>
0.0109735

> <r_epik_Ionization_Penalty_Charging>
0.0109734

> <r_epik_Ionization_Penalty_Neutral>
9.17026e-08

> <r_epik_State_Penalty>
0.0084206

> <r_epik_Charging_Adjusted_Penalty>
0.019394

> <i_epik_Tot_Q>
0

> <i_epik_Tot_abs_Q>
0

> <r_epik_Metal_State_Penalty>
0.328349

> <b_epik_Metal_Only>
0

> <s_lp_Force_Field>
OPLS_2005

> <r_lp_Energy>
36.3652

> <b_lp_Chiralities_Consistent>
1

> <s_lp_Variant>
AV-unprocessed.smi:1732-1

> <Gold.Version>
5.8.1

> <Gold.Id.Protein>
6NUR|6NUR_protein|mol2

> <Gold.PLP.Fitness>
41.5728

> <Gold.PLP.PLP>
-42.9757

> <Gold.PLP.part.hbond>
-1.0000

> <Gold.PLP.part.metal>
0.0000

> <Gold.PLP.part.buried>
-5.2642

> <Gold.PLP.part.nonpolar>
-38.9721

> <Gold.PLP.part.repulsive>
1.8609

> <Gold.PLP.ligand.clash>
0.0051

> <Gold.PLP.ligand.torsion>
2.1018

> <Gold.PLP.Chemscore.Hbond>
0.8800

> <Gold.PLP.Chemscore.CHOScore>
0.0000

> <Gold.PLP.Chemscore.Metal>
0.0000

> <Gold.Chemscore.Hbonds>
donor molecule, donor type, donor heavy atom, donor atom, acceptor molecule, acceptor atom, score
      P1  H  7989  7998       L1     1  0.86

> <Gold.PLP.Chemscore.Internal.Correction>
0.1659

> <Gold.Rescore>
     Score         DG    S(hbond)    S(metal)    S(lipo)     H(rot)  DE(clash)    DE(int)     intcor
     11.23     -13.59       0.90        0.00      78.57       1.60       0.14       2.22       ----

> <Gold.Chemscore.Fitness>
11.2295

> <Gold.Chemscore.DG>
-13.5891

> <Gold.Chemscore.ZeroCoef>
-5.4800

> <Gold.Chemscore.Hbond>
0.9027

> <Gold.Chemscore.Metal>
0.0000

> <Gold.Chemscore.Lipo>
78.5671

> <Gold.Chemscore.Internal_Hbond>
0.0000

> <Gold.Chemscore.DEClash>
0.1387

> <Gold.Chemscore.DEInternal>
2.2209

> <Gold.Chemscore.Rot>
1.6009

> <Gold.Chemscore.Internal.Correction>
   9.000000E+99

> <Gold.Chemscore.Hbonds>
donor molecule, donor type, donor heavy atom, donor atom, acceptor molecule, acceptor atom, score
      P1  H  7989  7998       L1     1  0.84

> <Gold.Chemscore.Hbond.Weighted>
-3.0150

> <Gold.Chemscore.Metal.Weighted>
-0.0000

> <Gold.Chemscore.Lipo.Weighted>
-9.1923

> <Gold.Chemscore.Internal_Hbond.Weighted>
0.0000

> <Gold.Chemscore.DEClash.Weighted>
0.1387

> <Gold.Chemscore.DEInternal.Weighted>
2.2209

> <Gold.Chemscore.Rot.Weighted>
4.0982

> <Gold.Chemscore.Internal.Correction.Weighted>
   9.000000E+99

> <Gold.Protein.RotatedTorsions>
[ 6907 6896 6895 6894 ] final -113.55 input  -60.11 | X-H torsion
[ 7974 7965 7964 7962 ] final   82.43 input  175.53 | X-H torsion
[ 8008 7997 7996 7995 ] final  104.01 input   59.86 | X-H torsion
[ 10167 10162 10161 10158 ] final   -1.70 input  -65.29 | X-H torsion
[ 10718 10713 10712 10709 ] final -109.34 input   66.30 | X-H torsion
[ 10763 10752 10751 10750 ] final   61.61 input  -60.55 | X-H torsion
[ 11005 11000 10999 10996 ] final  118.86 input  -57.11 | X-H torsion

> <Gold.Protein.ActiveResidues>
 VAL166  LYS551  ARG553  GLY616  TRP617  ASP618  TYR619  PRO620  LYS621  CYS622 
 ASP623  PHE694  ASN695  SER759  ASP760  ASP761  ALA762  ILE779  LEU786  VAL792 
 PHE793  MET794  SER795  GLU796  ALA797  LYS798  CYS799  TRP800  GLU811  SER814 

> <Gold.Protein.RotatedAtoms>
  150.7837  133.8929  159.3318 H   0  0  0  0  0  0  0  0  0  0  0  0  # atno 6907 bound_to 6896
  151.6785  135.0963  160.0221 H   0  0  0  0  0  0  0  0  0  0  0  0  # atno 6908 bound_to 6896
  152.3895  133.6620  159.6261 H   0  0  0  0  0  0  0  0  0  0  0  0  # atno 6909 bound_to 6896
  145.6252  139.2393  143.2116 H   0  0  0  0  0  0  0  0  0  0  0  0  # atno 7974 bound_to 7965
  156.1535  140.3155  155.8688 H   0  0  0  0  0  0  0  0  0  0  0  0  # atno 8008 bound_to 7997
  155.3923  140.0494  157.3057 H   0  0  0  0  0  0  0  0  0  0  0  0  # atno 8009 bound_to 7997
  154.5080  140.2154  155.9223 H   0  0  0  0  0  0  0  0  0  0  0  0  # atno 8010 bound_to 7997
  140.6821  143.6744  150.8158 H   0  0  0  0  0  0  0  0  0  0  0  0  # atno 10167 bound_to 10162
  156.0532  130.5759  150.8086 H   0  0  0  0  0  0  0  0  0  0  0  0  # atno 10718 bound_to 10713
  152.9956  135.5494  154.6062 H   0  0  0  0  0  0  0  0  0  0  0  0  # atno 10763 bound_to 10752
  154.5392  135.2818  155.1113 H   0  0  0  0  0  0  0  0  0  0  0  0  # atno 10764 bound_to 10752
  154.2397  135.6418  153.5255 H   0  0  0  0  0  0  0  0  0  0  0  0  # atno 10765 bound_to 10752
  139.9125  134.9624  156.7568 H   0  0  0  0  0  0  0  0  0  0  0  0  # atno 11005 bound_to 11000
  146.1400  140.7070  142.9371 LP  0  0  0  0  0  0  0  0  0  0  0  0  # atno 17320 bound_to 7965
  144.7215  140.4389  143.7004 LP  0  0  0  0  0  0  0  0  0  0  0  0  # atno 17321 bound_to 7965
  140.0446  143.5312  152.2702 LP  0  0  0  0  0  0  0  0  0  0  0  0  # atno 17342 bound_to 10162
  139.6151  144.7617  151.2864 LP  0  0  0  0  0  0  0  0  0  0  0  0  # atno 17343 bound_to 10162
  157.5477  131.0943  150.9739 LP  0  0  0  0  0  0  0  0  0  0  0  0  # atno 17370 bound_to 10713
  157.0006  130.5598  149.5311 LP  0  0  0  0  0  0  0  0  0  0  0  0  # atno 17371 bound_to 10713
  140.6730  133.9543  155.7867 LP  0  0  0  0  0  0  0  0  0  0  0  0  # atno 17394 bound_to 11000
  141.0564  134.0410  157.3716 LP  0  0  0  0  0  0  0  0  0  0  0  0  # atno 17395 bound_to 11000

$$$$
