AV-unprocessed.smi:2696|AV-procd|sdf|10414|dock6
  -GOLD-   2272014453D 1   1.00000     0.00000
 Structure written by MMmdl.
 43 44  0  0  0  0  0  0  0  0  1 V2000
  146.4147  137.1144  153.6444 C   0  0  0  0  0  0  0  0  0  0  0  0
  146.4872  138.5515  153.1040 C   0  0  0  0  0  0  0  0  0  0  0  0
  146.7566  138.5768  151.5917 C   0  0  0  0  0  0  0  0  0  0  0  0
  147.5067  139.3868  153.8671 C   0  0  0  0  0  0  0  0  0  0  0  0
  148.8083  139.0261  153.9717 C   0  0  0  0  0  0  0  0  0  0  0  0
  149.7535  139.8424  154.7329 C   0  0  0  0  0  0  0  0  0  0  0  0
  150.9473  139.5570  154.8243 O   0  0  0  0  0  0  0  0  0  0  0  0
  149.2099  140.9363  155.3421 N   0  0  0  0  0  0  0  0  0  0  0  0
  150.0299  141.8122  156.2062 C   0  0  0  0  0  0  0  0  0  0  0  0
  149.9884  141.4563  157.7249 C   0  0  2  0  0  0  0  0  0  0  0  0
  149.9955  139.9236  157.9087 C   0  0  0  0  0  0  0  0  0  0  0  0
  148.7019  141.8151  158.1977 O   0  0  0  0  0  0  0  0  0  0  0  0
  151.1182  142.1183  158.5296 C   0  0  0  0  0  0  0  0  0  0  0  0
  151.2471  143.5264  158.5869 C   0  0  0  0  0  0  0  0  0  0  0  0
  152.3098  144.1197  159.2932 C   0  0  0  0  0  0  0  0  0  0  0  0
  153.2590  143.3140  159.9472 C   0  0  0  0  0  0  0  0  0  0  0  0
  153.1536  141.9092  159.8964 C   0  0  0  0  0  0  0  0  0  0  0  0
  154.1948  141.0520  160.6007 C   0  0  0  0  0  0  0  0  0  0  0  0
  153.9199  139.7511  160.4981 F   0  0  0  0  0  0  0  0  0  0  0  0
  155.3967  141.2689  160.0662 F   0  0  0  0  0  0  0  0  0  0  0  0
  154.2337  141.3786  161.8919 F   0  0  0  0  0  0  0  0  0  0  0  0
  152.0803  141.3205  159.1924 C   0  0  0  0  0  0  0  0  0  0  0  0
  147.8551  141.2886  155.1680 C   0  0  0  0  0  0  0  0  0  0  0  0
  147.0418  140.5571  154.4755 N   0  0  0  0  0  0  0  0  0  0  0  0
  146.2054  137.1090  154.7146 H   0  0  0  0  0  0  0  0  0  0  0  0
  147.3489  136.5755  153.4844 H   0  0  0  0  0  0  0  0  0  0  0  0
  145.6216  136.5515  153.1515 H   0  0  0  0  0  0  0  0  0  0  0  0
  145.5070  139.0036  153.2646 H   0  0  0  0  0  0  0  0  0  0  0  0
  146.7716  139.5999  151.2145 H   0  0  0  0  0  0  0  0  0  0  0  0
  145.9811  138.0373  151.0474 H   0  0  0  0  0  0  0  0  0  0  0  0
  147.7140  138.1164  151.3460 H   0  0  0  0  0  0  0  0  0  0  0  0
  149.1597  138.1208  153.4989 H   0  0  0  0  0  0  0  0  0  0  0  0
  151.0594  141.8539  155.8443 H   0  0  0  0  0  0  0  0  0  0  0  0
  149.6795  142.8399  156.0914 H   0  0  0  0  0  0  0  0  0  0  0  0
  150.9039  139.4646  157.5197 H   0  0  0  0  0  0  0  0  0  0  0  0
  149.1607  139.4563  157.3844 H   0  0  0  0  0  0  0  0  0  0  0  0
  149.9162  139.6501  158.9619 H   0  0  0  0  0  0  0  0  0  0  0  0
  148.2437  141.0290  158.4530 H   0  0  0  0  0  0  0  0  0  0  0  0
  150.5430  144.1695  158.0801 H   0  0  0  0  0  0  0  0  0  0  0  0
  152.3996  145.1953  159.3281 H   0  0  0  0  0  0  0  0  0  0  0  0
  154.0738  143.7764  160.4849 H   0  0  0  0  0  0  0  0  0  0  0  0
  152.0071  140.2453  159.1410 H   0  0  0  0  0  0  0  0  0  0  0  0
  147.5388  142.2071  155.6648 H   0  0  0  0  0  0  0  0  0  0  0  0
  1  2  1  0  0  0  0
  1 25  1  0  0  0  0
  1 26  1  0  0  0  0
  1 27  1  0  0  0  0
  2  3  1  0  0  0  0
  2  4  1  0  0  0  0
  2 28  1  0  0  0  0
  3 29  1  0  0  0  0
  3 30  1  0  0  0  0
  3 31  1  0  0  0  0
  4 24  1  0  0  0  0
  4  5  2  0  0  0  0
  5  6  1  0  0  0  0
  5 32  1  0  0  0  0
  6  7  2  0  0  0  0
  6  8  1  0  0  0  0
  8  9  1  0  0  0  0
  8 23  1  0  0  0  0
  9 10  1  0  0  0  0
  9 33  1  0  0  0  0
  9 34  1  0  0  0  0
 10 11  1  0  0  0  0
 10 12  1  0  0  0  0
 10 13  1  0  0  0  0
 11 35  1  0  0  0  0
 11 36  1  0  0  0  0
 11 37  1  0  0  0  0
 12 38  1  0  0  0  0
 13 22  1  0  0  0  0
 13 14  2  0  0  0  0
 14 15  1  0  0  0  0
 14 39  1  0  0  0  0
 15 16  2  0  0  0  0
 15 40  1  0  0  0  0
 16 17  1  0  0  0  0
 16 41  1  0  0  0  0
 17 18  1  0  0  0  0
 17 22  2  0  0  0  0
 18 19  1  0  0  0  0
 18 20  1  0  0  0  0
 18 21  1  0  0  0  0
 22 42  1  0  0  0  0
 23 24  2  0  0  0  0
 23 43  1  0  0  0  0
M  END
> <s_m_source_file>
AV-unprocessed.smi

> <i_m_source_file_index>
2696

> <i_lp_mmshare_version>
43012

> <i_f3d_flags>
0

> <s_epik_input>
W0NIM11bQ0hdKFtDSDNdKWMxW2NIXWMoPU8pbihbY0hdbjEpW0NIMl1bQ0BAXShbQ0gzXSkoW09IXSljMltjSF1bY0hdW2NIXWMoQyhGKShGKUYpW2NIXTI=

> <s_epik_cmdline>
J2VwaWtfcHl0aG9uJywgJy1waCcsICc3LjAnLCAnLXRuJywgJzgnLCAnLW1hJywgJzIwMCcsICctbWV0YWxfYmluZGluZycsICctaW1hZScsICc8aW5maWxlLm1hZT4nLCAnLW9tYWUnLCAnPG91dGZpbGUubWFlPic=

> <r_lp_tautomer_probability>
1

> <r_epik_Ionization_Penalty>
2.71388e-05

> <r_epik_Ionization_Penalty_Charging>
4.19927e-06

> <r_epik_Ionization_Penalty_Neutral>
2.29395e-05

> <r_epik_State_Penalty>
-0

> <r_epik_Charging_Adjusted_Penalty>
4.19927e-06

> <i_epik_Tot_Q>
0

> <i_epik_Tot_abs_Q>
0

> <r_epik_Metal_State_Penalty>
-0

> <b_epik_Metal_Only>
0

> <s_lp_Force_Field>
OPLS_2005

> <r_lp_Energy>
19.4026

> <b_lp_Chiralities_Consistent>
1

> <s_lp_Variant>
AV-unprocessed.smi:2696-2

> <Gold.Version>
5.8.1

> <Gold.Id.Protein>
6NUR|6NUR_protein|mol2

> <Gold.PLP.Fitness>
52.2035

> <Gold.PLP.PLP>
-47.8074

> <Gold.PLP.part.hbond>
-1.0000

> <Gold.PLP.part.metal>
0.0000

> <Gold.PLP.part.buried>
2.1323

> <Gold.PLP.part.nonpolar>
-48.6510

> <Gold.PLP.part.repulsive>
0.2100

> <Gold.PLP.ligand.clash>
0.0686

> <Gold.PLP.ligand.torsion>
0.6863

> <Gold.PLP.Chemscore.Hbond>
0.8000

> <Gold.PLP.Chemscore.CHOScore>
0.9951

> <Gold.PLP.Chemscore.Metal>
0.0000

> <Gold.Chemscore.Hbonds>
donor molecule, donor type, donor heavy atom, donor atom, acceptor molecule, acceptor atom, score
      P1  H  7989  7998       L1     7  0.90
      L1  C    23    43       P1  8028  0.25

> <Gold.PLP.Chemscore.Internal.Correction>
0.4518

> <Gold.Rescore>
     Score         DG    S(hbond)    S(metal)    S(lipo)     H(rot)  DE(clash)    DE(int)     intcor
     13.95     -14.65       0.45        0.00     114.45       2.23       0.14       0.56       ----

> <Gold.Chemscore.Fitness>
13.9518

> <Gold.Chemscore.DG>
-14.6549

> <Gold.Chemscore.ZeroCoef>
-5.4800

> <Gold.Chemscore.Hbond>
0.4479

> <Gold.Chemscore.Metal>
0.0000

> <Gold.Chemscore.Lipo>
114.4517

> <Gold.Chemscore.Internal_Hbond>
0.0000

> <Gold.Chemscore.DEClash>
0.1428

> <Gold.Chemscore.DEInternal>
0.5602

> <Gold.Chemscore.Rot>
2.2312

> <Gold.Chemscore.Internal.Correction>
   9.000000E+99

> <Gold.Chemscore.Hbonds>
donor molecule, donor type, donor heavy atom, donor atom, acceptor molecule, acceptor atom, score
      P1  H  7989  7998       L1     7  0.17

> <Gold.Chemscore.Hbond.Weighted>
-1.4959

> <Gold.Chemscore.Metal.Weighted>
-0.0000

> <Gold.Chemscore.Lipo.Weighted>
-13.3909

> <Gold.Chemscore.Internal_Hbond.Weighted>
0.0000

> <Gold.Chemscore.DEClash.Weighted>
0.1428

> <Gold.Chemscore.DEInternal.Weighted>
0.5602

> <Gold.Chemscore.Rot.Weighted>
5.7118

> <Gold.Chemscore.Internal.Correction.Weighted>
   9.000000E+99

> <Gold.Protein.RotatedTorsions>
[ 6907 6896 6895 6894 ] final  -76.68 input  -60.11 | X-H torsion
[ 7974 7965 7964 7962 ] final  -62.18 input  175.53 | X-H torsion
[ 8008 7997 7996 7995 ] final  -62.49 input   59.86 | X-H torsion
[ 10167 10162 10161 10158 ] final -115.61 input  -65.29 | X-H torsion
[ 10718 10713 10712 10709 ] final   82.17 input   66.30 | X-H torsion
[ 10763 10752 10751 10750 ] final  -56.26 input  -60.55 | X-H torsion
[ 11005 11000 10999 10996 ] final  135.88 input  -57.11 | X-H torsion

> <Gold.Protein.ActiveResidues>
 VAL166  LYS551  ARG553  GLY616  TRP617  ASP618  TYR619  PRO620  LYS621  CYS622 
 ASP623  PHE694  ASN695  SER759  ASP760  ASP761  ALA762  ILE779  LEU786  VAL792 
 PHE793  MET794  SER795  GLU796  ALA797  LYS798  CYS799  TRP800  GLU811  SER814 

> <Gold.Protein.RotatedAtoms>
  150.7020  134.4535  159.5347 H   0  0  0  0  0  0  0  0  0  0  0  0  # atno 6907 bound_to 6896
  152.2223  134.8398  160.0493 H   0  0  0  0  0  0  0  0  0  0  0  0  # atno 6908 bound_to 6896
  151.9244  133.3559  159.3945 H   0  0  0  0  0  0  0  0  0  0  0  0  # atno 6909 bound_to 6896
  145.7944  140.8691  143.0264 H   0  0  0  0  0  0  0  0  0  0  0  0  # atno 7974 bound_to 7965
  154.4502  140.0995  156.6595 H   0  0  0  0  0  0  0  0  0  0  0  0  # atno 8008 bound_to 7997
  155.5309  140.3481  155.4407 H   0  0  0  0  0  0  0  0  0  0  0  0  # atno 8009 bound_to 7997
  156.0665  140.1339  156.9869 H   0  0  0  0  0  0  0  0  0  0  0  0  # atno 8010 bound_to 7997
  140.0882  143.4724  152.1885 H   0  0  0  0  0  0  0  0  0  0  0  0  # atno 10167 bound_to 10162
  157.6851  131.0036  150.2334 H   0  0  0  0  0  0  0  0  0  0  0  0  # atno 10718 bound_to 10713
  154.2038  135.6406  153.5095 H   0  0  0  0  0  0  0  0  0  0  0  0  # atno 10763 bound_to 10752
  153.0005  135.5458  154.6287 H   0  0  0  0  0  0  0  0  0  0  0  0  # atno 10764 bound_to 10752
  154.5707  135.2916  155.0803 H   0  0  0  0  0  0  0  0  0  0  0  0  # atno 10765 bound_to 10752
  140.0009  134.9479  157.0070 H   0  0  0  0  0  0  0  0  0  0  0  0  # atno 11005 bound_to 11000
  144.6777  140.0169  143.7484 LP  0  0  0  0  0  0  0  0  0  0  0  0  # atno 17320 bound_to 7965
  145.9943  139.3040  143.0966 LP  0  0  0  0  0  0  0  0  0  0  0  0  # atno 17321 bound_to 7965
  139.5740  144.7478  151.3815 LP  0  0  0  0  0  0  0  0  0  0  0  0  # atno 17342 bound_to 10162
  140.7042  143.7555  150.7454 LP  0  0  0  0  0  0  0  0  0  0  0  0  # atno 17343 bound_to 10162
  156.2963  130.3752  149.7793 LP  0  0  0  0  0  0  0  0  0  0  0  0  # atno 17370 bound_to 10713
  156.5437  130.8311  151.3277 LP  0  0  0  0  0  0  0  0  0  0  0  0  # atno 17371 bound_to 10713
  140.4730  134.1367  155.7205 LP  0  0  0  0  0  0  0  0  0  0  0  0  # atno 17394 bound_to 11000
  141.1641  133.8737  157.1765 LP  0  0  0  0  0  0  0  0  0  0  0  0  # atno 17395 bound_to 11000

$$$$
