AV-unprocessed.smi:254|AV-procd|sdf|1945|dock6
  -GOLD-   2262021 73D 1   1.00000     0.00000
 Structure written by MMmdl.
 50 53  0  0  0  0  0  0  0  0  1 V2000
  150.9725  132.5099  157.4600 O   0  0  0  0  0  0  0  0  0  0  0  0
  150.5243  133.4761  156.8450 C   0  0  0  0  0  0  0  0  0  0  0  0
  151.1428  134.8602  156.9120 C   0  0  0  0  0  0  0  0  0  0  0  0
  150.2771  135.6061  156.0066 N   0  0  0  0  0  0  0  0  0  0  0  0
  150.4467  136.9262  155.7365 C   0  0  0  0  0  0  0  0  0  0  0  0
  150.2288  137.3518  154.4643 N   0  0  0  0  0  0  0  0  0  0  0  0
  150.3840  138.6380  154.1420 C   0  0  0  0  0  0  0  0  0  0  0  0
  150.7434  139.6546  154.9255 N   0  0  0  0  0  0  0  0  0  0  0  0
  150.9586  139.2431  156.2068 C   0  0  0  0  0  0  0  0  0  0  0  0
  150.8399  137.9086  156.6945 C   0  0  0  0  0  0  0  0  0  0  0  0
  151.1526  137.8817  158.0489 N   0  0  0  0  0  0  0  0  0  0  0  0
  151.4390  139.1196  158.3414 C   0  0  0  0  0  0  0  0  0  0  0  0
  151.3313  140.0109  157.2981 N   0  0  0  0  0  0  0  0  0  0  0  0
  151.5891  141.4448  157.3492 C   0  0  0  0  0  0  0  0  0  0  0  0
  150.5411  142.2564  158.1570 C   0  0  2  0  0  0  0  0  0  0  0  0
  149.1155  142.0038  157.6092 C   0  0  0  0  0  0  0  0  0  0  0  0
  149.0337  142.2356  156.2186 O   0  0  0  0  0  0  0  0  0  0  0  0
  150.9005  143.7669  158.2243 C   0  0  2  0  0  0  0  0  0  0  0  0
  152.2713  144.0618  158.8124 C   0  0  0  0  0  0  0  0  0  0  0  0
  152.1721  145.5468  159.1433 C   0  0  0  0  0  0  0  0  0  0  0  0
  150.8040  145.7808  159.4562 O   0  0  0  0  0  0  0  0  0  0  0  0
  150.0367  144.6188  159.1600 C   0  0  0  0  0  0  0  0  0  0  0  0
  149.2219  134.7810  155.4355 C   0  0  0  0  0  0  0  0  0  0  0  0
  149.4604  133.4776  156.0337 N   0  0  0  0  0  0  0  0  0  0  0  0
  148.6140  132.3342  155.7000 C   0  0  0  0  0  0  0  0  0  0  0  0
  149.0264  131.6633  154.3775 C   0  0  0  0  0  0  0  0  0  0  0  0
  148.1298  130.7273  154.0696 F   0  0  0  0  0  0  0  0  0  0  0  0
  149.0731  132.5472  153.3811 F   0  0  0  0  0  0  0  0  0  0  0  0
  150.2195  131.0824  154.5048 F   0  0  0  0  0  0  0  0  0  0  0  0
  151.0993  135.2553  157.9277 H   0  0  0  0  0  0  0  0  0  0  0  0
  152.1758  134.8435  156.5627 H   0  0  0  0  0  0  0  0  0  0  0  0
  150.1918  138.8883  153.1091 H   0  0  0  0  0  0  0  0  0  0  0  0
  151.7344  139.4175  159.3368 H   0  0  0  0  0  0  0  0  0  0  0  0
  152.5767  141.5885  157.7893 H   0  0  0  0  0  0  0  0  0  0  0  0
  151.6693  141.8208  156.3294 H   0  0  0  0  0  0  0  0  0  0  0  0
  150.5719  141.8615  159.1738 H   0  0  0  0  0  0  0  0  0  0  0  0
  148.7834  140.9889  157.8305 H   0  0  0  0  0  0  0  0  0  0  0  0
  148.4046  142.6835  158.0792 H   0  0  0  0  0  0  0  0  0  0  0  0
  148.6943  143.1063  156.0775 H   0  0  0  0  0  0  0  0  0  0  0  0
  150.8423  144.2029  157.2261 H   0  0  0  0  0  0  0  0  0  0  0  0
  152.4228  143.4874  159.7274 H   0  0  0  0  0  0  0  0  0  0  0  0
  153.0996  143.8442  158.1404 H   0  0  0  0  0  0  0  0  0  0  0  0
  152.8257  145.8345  159.9669 H   0  0  0  0  0  0  0  0  0  0  0  0
  152.4358  146.1489  158.2731 H   0  0  0  0  0  0  0  0  0  0  0  0
  149.0779  144.8888  158.7171 H   0  0  0  0  0  0  0  0  0  0  0  0
  149.8434  144.0921  160.0956 H   0  0  0  0  0  0  0  0  0  0  0  0
  148.2344  135.1543  155.7105 H   0  0  0  0  0  0  0  0  0  0  0  0
  149.3053  134.7269  154.3491 H   0  0  0  0  0  0  0  0  0  0  0  0
  148.6669  131.6064  156.5107 H   0  0  0  0  0  0  0  0  0  0  0  0
  147.5724  132.6550  155.6477 H   0  0  0  0  0  0  0  0  0  0  0  0
  1  2  2  0  0  0  0
  2 24  1  0  0  0  0
  2  3  1  0  0  0  0
  3  4  1  0  0  0  0
  3 30  1  0  0  0  0
  3 31  1  0  0  0  0
  4  5  1  0  0  0  0
  4 23  1  0  0  0  0
  5 10  1  0  0  0  0
  5  6  2  0  0  0  0
  6  7  1  0  0  0  0
  7  8  2  0  0  0  0
  7 32  1  0  0  0  0
  8  9  1  0  0  0  0
  9 13  1  0  0  0  0
  9 10  2  0  0  0  0
 10 11  1  0  0  0  0
 11 12  2  0  0  0  0
 12 13  1  0  0  0  0
 12 33  1  0  0  0  0
 13 14  1  0  0  0  0
 14 15  1  0  0  0  0
 14 34  1  0  0  0  0
 14 35  1  0  0  0  0
 15 16  1  0  0  0  0
 15 18  1  0  0  0  0
 15 36  1  0  0  0  0
 16 17  1  0  0  0  0
 16 37  1  0  0  0  0
 16 38  1  0  0  0  0
 17 39  1  0  0  0  0
 18 22  1  0  0  0  0
 18 19  1  0  0  0  0
 18 40  1  0  0  0  0
 19 20  1  0  0  0  0
 19 41  1  0  0  0  0
 19 42  1  0  0  0  0
 20 21  1  0  0  0  0
 20 43  1  0  0  0  0
 20 44  1  0  0  0  0
 21 22  1  0  0  0  0
 22 45  1  0  0  0  0
 22 46  1  0  0  0  0
 23 24  1  0  0  0  0
 23 47  1  0  0  0  0
 23 48  1  0  0  0  0
 24 25  1  0  0  0  0
 25 26  1  0  0  0  0
 25 49  1  0  0  0  0
 25 50  1  0  0  0  0
 26 27  1  0  0  0  0
 26 28  1  0  0  0  0
 26 29  1  0  0  0  0
M  END
> <s_m_source_file>
AV-unprocessed.smi

> <i_m_source_file_index>
254

> <i_lp_mmshare_version>
43012

> <i_f3d_flags>
0

> <s_epik_input>
RkMoRikoRilbQ0gyXU4xW0NIMl1OKFtDSDJdQzE9TyljKG5bY0hdbjIpYyhjMjMpbltjSF1uM1tDSDJdW0NASF0oW0NIMl1bT0hdKVtDQEBIXTRbQ0gyXVtDSDJdT1tDSDJdNA==

> <s_epik_cmdline>
J2VwaWtfcHl0aG9uJywgJy1waCcsICc3LjAnLCAnLXRuJywgJzgnLCAnLW1hJywgJzIwMCcsICctbWV0YWxfYmluZGluZycsICctaW1hZScsICc8aW5maWxlLm1hZT4nLCAnLW9tYWUnLCAnPG91dGZpbGUubWFlPic=

> <r_lp_tautomer_probability>
1

> <r_epik_Ionization_Penalty>
0.000292924

> <r_epik_Ionization_Penalty_Charging>
0

> <r_epik_Ionization_Penalty_Neutral>
0.000292924

> <r_epik_State_Penalty>
-0

> <r_epik_Charging_Adjusted_Penalty>
0

> <i_epik_Tot_Q>
0

> <i_epik_Tot_abs_Q>
0

> <r_epik_Metal_State_Penalty>
-0

> <b_epik_Metal_Only>
0

> <s_epik_Chemistry_Notes>
This compound contains an acetal/aminal-like group ( X-CH(R)-Y where X, Y are N, S, or O) that may be acid/base labile, releasing an aldehyde.

> <s_lp_Force_Field>
OPLS_2005

> <r_lp_Energy>
38.7096

> <b_lp_Chiralities_Consistent>
1

> <s_lp_Variant>
AV-unprocessed.smi:254-1

> <Gold.Version>
5.8.1

> <Gold.Id.Protein>
6NUR|6NUR_protein|mol2

> <Gold.PLP.Fitness>
51.9979

> <Gold.PLP.PLP>
-42.2260

> <Gold.PLP.part.hbond>
-4.9877

> <Gold.PLP.part.metal>
0.0000

> <Gold.PLP.part.buried>
-5.3444

> <Gold.PLP.part.nonpolar>
-32.6611

> <Gold.PLP.part.repulsive>
0.8067

> <Gold.PLP.ligand.clash>
0.0000

> <Gold.PLP.ligand.torsion>
1.0970

> <Gold.PLP.Chemscore.Hbond>
2.8750

> <Gold.PLP.Chemscore.CHOScore>
1.0000

> <Gold.PLP.Chemscore.Metal>
0.0000

> <Gold.Chemscore.Hbonds>
donor molecule, donor type, donor heavy atom, donor atom, acceptor molecule, acceptor atom, score
      L1  H    17    39       P1  8028  1.00
      P1  H  6896  6907       L1     1  1.00
      P1  H  7989  7998       L1     8  0.85
      L1  C     7    32       P1  7957  1.00

> <Gold.PLP.Chemscore.Internal.Correction>
0.3408

> <Gold.Rescore>
     Score         DG    S(hbond)    S(metal)    S(lipo)     H(rot)  DE(clash)    DE(int)     intcor
      8.94     -11.29       1.47        0.00      79.92       3.30       1.33       1.01       ----

> <Gold.Chemscore.Fitness>
8.9437

> <Gold.Chemscore.DG>
-11.2866

> <Gold.Chemscore.ZeroCoef>
-5.4800

> <Gold.Chemscore.Hbond>
1.4664

> <Gold.Chemscore.Metal>
0.0000

> <Gold.Chemscore.Lipo>
79.9154

> <Gold.Chemscore.Internal_Hbond>
0.0000

> <Gold.Chemscore.DEClash>
1.3310

> <Gold.Chemscore.DEInternal>
1.0119

> <Gold.Chemscore.Rot>
3.2974

> <Gold.Chemscore.Internal.Correction>
   9.000000E+99

> <Gold.Chemscore.Hbonds>
donor molecule, donor type, donor heavy atom, donor atom, acceptor molecule, acceptor atom, score
      L1  H    17    39       P1  8028  0.96
      P1  H  6896  6907       L1     1  0.29
      P1  H  7989  7998       L1     8  0.18

> <Gold.Chemscore.Hbond.Weighted>
-4.8979

> <Gold.Chemscore.Metal.Weighted>
-0.0000

> <Gold.Chemscore.Lipo.Weighted>
-9.3501

> <Gold.Chemscore.Internal_Hbond.Weighted>
0.0000

> <Gold.Chemscore.DEClash.Weighted>
1.3310

> <Gold.Chemscore.DEInternal.Weighted>
1.0119

> <Gold.Chemscore.Rot.Weighted>
8.4414

> <Gold.Chemscore.Internal.Correction.Weighted>
   9.000000E+99

> <Gold.Protein.RotatedTorsions>
[ 6907 6896 6895 6894 ] final -164.41 input  -60.11 | X-H torsion
[ 7974 7965 7964 7962 ] final    7.41 input  175.53 | X-H torsion
[ 8008 7997 7996 7995 ] final -117.34 input   59.86 | X-H torsion
[ 10167 10162 10161 10158 ] final -149.67 input  -65.29 | X-H torsion
[ 10718 10713 10712 10709 ] final -118.37 input   66.30 | X-H torsion
[ 10763 10752 10751 10750 ] final  166.25 input  -60.55 | X-H torsion
[ 11005 11000 10999 10996 ] final  106.81 input  -57.11 | X-H torsion

> <Gold.Protein.ActiveResidues>
 VAL166  LYS551  ARG553  GLY616  TRP617  ASP618  TYR619  PRO620  LYS621  CYS622 
 ASP623  PHE694  ASN695  SER759  ASP760  ASP761  ALA762  ILE779  LEU786  VAL792 
 PHE793  MET794  SER795  GLU796  ALA797  LYS798  CYS799  TRP800  GLU811  SER814 

> <Gold.Protein.RotatedAtoms>
  151.4113  133.3726  159.2744 H   0  0  0  0  0  0  0  0  0  0  0  0  # atno 6907 bound_to 6896
  150.9361  134.8774  159.7593 H   0  0  0  0  0  0  0  0  0  0  0  0  # atno 6908 bound_to 6896
  152.5050  134.4061  159.9485 H   0  0  0  0  0  0  0  0  0  0  0  0  # atno 6909 bound_to 6896
  146.2427  140.0087  142.8409 H   0  0  0  0  0  0  0  0  0  0  0  0  # atno 7974 bound_to 7965
  155.0821  140.0394  157.2642 H   0  0  0  0  0  0  0  0  0  0  0  0  # atno 8008 bound_to 7997
  154.6898  140.2651  155.6799 H   0  0  0  0  0  0  0  0  0  0  0  0  # atno 8009 bound_to 7997
  156.2725  140.2761  156.1473 H   0  0  0  0  0  0  0  0  0  0  0  0  # atno 8010 bound_to 7997
  139.7421  143.8645  152.2565 H   0  0  0  0  0  0  0  0  0  0  0  0  # atno 10167 bound_to 10162
  156.1101  130.6242  150.9282 H   0  0  0  0  0  0  0  0  0  0  0  0  # atno 10718 bound_to 10713
  154.3362  135.2754  155.2446 H   0  0  0  0  0  0  0  0  0  0  0  0  # atno 10763 bound_to 10752
  154.4737  135.5876  153.6343 H   0  0  0  0  0  0  0  0  0  0  0  0  # atno 10764 bound_to 10752
  152.9862  135.6094  154.3559 H   0  0  0  0  0  0  0  0  0  0  0  0  # atno 10765 bound_to 10752
  139.8819  134.9381  156.5723 H   0  0  0  0  0  0  0  0  0  0  0  0  # atno 11005 bound_to 11000
  145.1348  140.9538  143.4523 LP  0  0  0  0  0  0  0  0  0  0  0  0  # atno 17320 bound_to 7965
  145.0352  139.3306  143.6004 LP  0  0  0  0  0  0  0  0  0  0  0  0  # atno 17321 bound_to 7965
  139.8599  144.7122  150.9112 LP  0  0  0  0  0  0  0  0  0  0  0  0  # atno 17342 bound_to 10162
  140.7787  143.3826  151.1449 LP  0  0  0  0  0  0  0  0  0  0  0  0  # atno 17343 bound_to 10162
  157.6281  131.0923  150.8494 LP  0  0  0  0  0  0  0  0  0  0  0  0  # atno 17370 bound_to 10713
  156.8606  130.5112  149.5304 LP  0  0  0  0  0  0  0  0  0  0  0  0  # atno 17371 bound_to 10713
  140.8089  133.8445  155.8792 LP  0  0  0  0  0  0  0  0  0  0  0  0  # atno 17394 bound_to 11000
  140.9524  134.1761  157.4717 LP  0  0  0  0  0  0  0  0  0  0  0  0  # atno 17395 bound_to 11000

$$$$
