AV-unprocessed.smi:1444|AV-procd|sdf|5881|dock5
  -GOLD-   22720 5563D 1   1.00000     0.00000
 Structure written by MMmdl.
 43 44  0  0  0  0  0  0  0  0  1 V2000
  151.9183  145.0052  158.8370 C   0  0  0  0  0  0  0  0  0  0  0  0
  151.1869  144.0345  158.0959 O   0  0  0  0  0  0  0  0  0  0  0  0
  151.4325  142.6960  158.3379 C   0  0  0  0  0  0  0  0  0  0  0  0
  152.3979  142.3710  159.2342 N   0  0  0  0  0  0  0  0  0  0  0  0
  152.6358  141.0662  159.4780 C   0  0  0  0  0  0  0  0  0  0  0  0
  151.9269  140.0249  158.8528 C   0  0  0  0  0  0  0  0  0  0  0  0
  150.9252  140.3590  157.9223 C   0  0  0  0  0  0  0  0  0  0  0  0
  150.6715  141.7251  157.6448 C   0  0  0  0  0  0  0  0  0  0  0  0
  149.6783  142.1862  156.7349 N   0  0  0  0  0  0  0  0  0  0  0  0
  148.8210  141.4808  155.9771 C   0  0  0  0  0  0  0  0  0  0  0  0
  148.7459  140.2534  155.9335 O   0  0  0  0  0  0  0  0  0  0  0  0
  148.0417  142.2952  155.2504 N   0  0  0  0  0  0  0  0  0  0  0  0
  146.9952  141.8696  154.3233 C   0  0  2  0  0  0  0  0  0  0  0  0
  147.6040  140.8131  153.3877 C   0  0  0  0  0  0  0  0  0  0  0  0
  146.4174  143.1211  153.6164 C   0  0  0  0  0  0  0  0  0  0  0  0
  145.0878  143.5652  154.0461 N   0  0  0  0  0  0  0  0  0  0  0  0
  144.6996  144.8464  153.4554 C   0  0  0  0  0  0  0  0  0  0  0  0
  143.3156  145.3113  153.9419 C   0  0  0  0  0  0  0  0  0  0  0  0
  143.3142  145.4019  155.3623 O   0  0  0  0  0  0  0  0  0  0  0  0
  143.6506  144.1687  155.9878 C   0  0  0  0  0  0  0  0  0  0  0  0
  145.0337  143.7037  155.4995 C   0  0  0  0  0  0  0  0  0  0  0  0
  151.6003  146.0033  158.5365 H   0  0  0  0  0  0  0  0  0  0  0  0
  152.9899  144.9287  158.6480 H   0  0  0  0  0  0  0  0  0  0  0  0
  151.7352  144.9096  159.9083 H   0  0  0  0  0  0  0  0  0  0  0  0
  153.4106  140.8461  160.1974 H   0  0  0  0  0  0  0  0  0  0  0  0
  152.1438  138.9926  159.0845 H   0  0  0  0  0  0  0  0  0  0  0  0
  150.3714  139.5603  157.4562 H   0  0  0  0  0  0  0  0  0  0  0  0
  149.6472  143.1881  156.6146 H   0  0  0  0  0  0  0  0  0  0  0  0
  148.1787  143.2905  155.3487 H   0  0  0  0  0  0  0  0  0  0  0  0
  146.1998  141.3879  154.8951 H   0  0  0  0  0  0  0  0  0  0  0  0
  146.8337  140.2502  152.8638 H   0  0  0  0  0  0  0  0  0  0  0  0
  148.1822  140.0793  153.9509 H   0  0  0  0  0  0  0  0  0  0  0  0
  148.2688  141.2639  152.6502 H   0  0  0  0  0  0  0  0  0  0  0  0
  147.1202  143.9322  153.8143 H   0  0  0  0  0  0  0  0  0  0  0  0
  146.4387  142.9896  152.5335 H   0  0  0  0  0  0  0  0  0  0  0  0
  145.4398  145.6080  153.7057 H   0  0  0  0  0  0  0  0  0  0  0  0
  144.6772  144.7875  152.3720 H   0  0  0  0  0  0  0  0  0  0  0  0
  143.0748  146.2885  153.5230 H   0  0  0  0  0  0  0  0  0  0  0  0
  142.5378  144.6204  153.6129 H   0  0  0  0  0  0  0  0  0  0  0  0
  143.6570  144.3080  157.0688 H   0  0  0  0  0  0  0  0  0  0  0  0
  142.8898  143.4193  155.7645 H   0  0  0  0  0  0  0  0  0  0  0  0
  145.2719  142.7498  155.9715 H   0  0  0  0  0  0  0  0  0  0  0  0
  145.7917  144.4143  155.8329 H   0  0  0  0  0  0  0  0  0  0  0  0
  1  2  1  0  0  0  0
  1 22  1  0  0  0  0
  1 23  1  0  0  0  0
  1 24  1  0  0  0  0
  2  3  1  0  0  0  0
  3  8  1  0  0  0  0
  3  4  2  0  0  0  0
  4  5  1  0  0  0  0
  5  6  2  0  0  0  0
  5 25  1  0  0  0  0
  6  7  1  0  0  0  0
  6 26  1  0  0  0  0
  7  8  2  0  0  0  0
  7 27  1  0  0  0  0
  8  9  1  0  0  0  0
  9 10  1  0  0  0  0
  9 28  1  0  0  0  0
 10 11  2  0  0  0  0
 10 12  1  0  0  0  0
 12 13  1  0  0  0  0
 12 29  1  0  0  0  0
 13 14  1  0  0  0  0
 13 15  1  0  0  0  0
 13 30  1  0  0  0  0
 14 31  1  0  0  0  0
 14 32  1  0  0  0  0
 14 33  1  0  0  0  0
 15 16  1  0  0  0  0
 15 34  1  0  0  0  0
 15 35  1  0  0  0  0
 16 21  1  0  0  0  0
 16 17  1  0  0  0  0
 17 18  1  0  0  0  0
 17 36  1  0  0  0  0
 17 37  1  0  0  0  0
 18 19  1  0  0  0  0
 18 38  1  0  0  0  0
 18 39  1  0  0  0  0
 19 20  1  0  0  0  0
 20 21  1  0  0  0  0
 20 40  1  0  0  0  0
 20 41  1  0  0  0  0
 21 42  1  0  0  0  0
 21 43  1  0  0  0  0
M  END
> <s_m_source_file>
AV-unprocessed.smi

> <i_m_source_file_index>
1444

> <i_lp_mmshare_version>
43012

> <i_f3d_flags>
0

> <s_epik_input>
W0NIM11PYzFuW2NIXVtjSF1bY0hdYzFbTkhdQyg9TylbTkhdW0NASF0oW0NIM10pW0NIMl1OMltDSDJdW0NIMl1PW0NIMl1bQ0gyXTI=

> <s_epik_cmdline>
J2VwaWtfcHl0aG9uJywgJy1waCcsICc3LjAnLCAnLXRuJywgJzgnLCAnLW1hJywgJzIwMCcsICctbWV0YWxfYmluZGluZycsICctaW1hZScsICc8aW5maWxlLm1hZT4nLCAnLW9tYWUnLCAnPG91dGZpbGUubWFlPic=

> <r_lp_tautomer_probability>
1

> <r_epik_Ionization_Penalty>
0.266086

> <r_epik_Ionization_Penalty_Charging>
0

> <r_epik_Ionization_Penalty_Neutral>
0.266086

> <r_epik_State_Penalty>
0.257924

> <r_epik_Charging_Adjusted_Penalty>
0.257924

> <i_epik_Tot_Q>
0

> <i_epik_Tot_abs_Q>
0

> <r_epik_Metal_State_Penalty>
0.25792

> <b_epik_Metal_Only>
0

> <s_lp_Force_Field>
OPLS_2005

> <r_lp_Energy>
29.2367

> <b_lp_Chiralities_Consistent>
1

> <s_lp_Variant>
AV-unprocessed.smi:1444-1

> <Gold.Version>
5.8.1

> <Gold.Id.Protein>
6NUR|6NUR_protein|mol2

> <Gold.PLP.Fitness>
42.3671

> <Gold.PLP.PLP>
-37.8748

> <Gold.PLP.part.hbond>
-2.0000

> <Gold.PLP.part.metal>
0.0000

> <Gold.PLP.part.buried>
-8.3888

> <Gold.PLP.part.nonpolar>
-28.5543

> <Gold.PLP.part.repulsive>
0.5537

> <Gold.PLP.ligand.clash>
0.0000

> <Gold.PLP.ligand.torsion>
0.7518

> <Gold.PLP.Chemscore.Hbond>
1.9760

> <Gold.PLP.Chemscore.CHOScore>
0.0000

> <Gold.PLP.Chemscore.Metal>
0.0000

> <Gold.Chemscore.Hbonds>
donor molecule, donor type, donor heavy atom, donor atom, acceptor molecule, acceptor atom, score
      L1  H     9    28       P1  8028  0.96
      L1  H    12    29       P1  8028  1.00

> <Gold.PLP.Chemscore.Internal.Correction>
0.0680

> <Gold.Rescore>
     Score         DG    S(hbond)    S(metal)    S(lipo)     H(rot)  DE(clash)    DE(int)     intcor
     14.02     -16.97       1.90        0.00      81.47       1.72       0.03       2.91       ----

> <Gold.Chemscore.Fitness>
14.0220

> <Gold.Chemscore.DG>
-16.9654

> <Gold.Chemscore.ZeroCoef>
-5.4800

> <Gold.Chemscore.Hbond>
1.9023

> <Gold.Chemscore.Metal>
0.0000

> <Gold.Chemscore.Lipo>
81.4708

> <Gold.Chemscore.Internal_Hbond>
0.0000

> <Gold.Chemscore.DEClash>
0.0318

> <Gold.Chemscore.DEInternal>
2.9116

> <Gold.Chemscore.Rot>
1.7189

> <Gold.Chemscore.Internal.Correction>
   9.000000E+99

> <Gold.Chemscore.Hbonds>
donor molecule, donor type, donor heavy atom, donor atom, acceptor molecule, acceptor atom, score
      L1  H     9    28       P1  8028  0.91
      L1  H    12    29       P1  8028  0.89

> <Gold.Chemscore.Hbond.Weighted>
-6.3538

> <Gold.Chemscore.Metal.Weighted>
-0.0000

> <Gold.Chemscore.Lipo.Weighted>
-9.5321

> <Gold.Chemscore.Internal_Hbond.Weighted>
0.0000

> <Gold.Chemscore.DEClash.Weighted>
0.0318

> <Gold.Chemscore.DEInternal.Weighted>
2.9116

> <Gold.Chemscore.Rot.Weighted>
4.4004

> <Gold.Chemscore.Internal.Correction.Weighted>
   9.000000E+99

> <Gold.Protein.RotatedTorsions>
[ 6907 6896 6895 6894 ] final   55.14 input  -60.11 | X-H torsion
[ 7974 7965 7964 7962 ] final  -10.61 input  175.53 | X-H torsion
[ 8008 7997 7996 7995 ] final  119.58 input   59.86 | X-H torsion
[ 10167 10162 10161 10158 ] final   37.78 input  -65.29 | X-H torsion
[ 10718 10713 10712 10709 ] final  -19.25 input   66.30 | X-H torsion
[ 10763 10752 10751 10750 ] final  150.62 input  -60.55 | X-H torsion
[ 11005 11000 10999 10996 ] final  151.16 input  -57.11 | X-H torsion

> <Gold.Protein.ActiveResidues>
 VAL166  LYS551  ARG553  GLY616  TRP617  ASP618  TYR619  PRO620  LYS621  CYS622 
 ASP623  PHE694  ASN695  SER759  ASP760  ASP761  ALA762  ILE779  LEU786  VAL792 
 PHE793  MET794  SER795  GLU796  ALA797  LYS798  CYS799  TRP800  GLU811  SER814 

> <Gold.Protein.RotatedAtoms>
  152.3509  134.7007  160.0236 H   0  0  0  0  0  0  0  0  0  0  0  0  # atno 6907 bound_to 6896
  151.7361  133.3314  159.3361 H   0  0  0  0  0  0  0  0  0  0  0  0  # atno 6908 bound_to 6896
  150.7539  134.6253  159.6202 H   0  0  0  0  0  0  0  0  0  0  0  0  # atno 6909 bound_to 6896
  146.2215  140.2789  142.8361 H   0  0  0  0  0  0  0  0  0  0  0  0  # atno 7974 bound_to 7965
  156.2603  140.2849  156.1015 H   0  0  0  0  0  0  0  0  0  0  0  0  # atno 8008 bound_to 7997
  155.1355  140.0394  157.2803 H   0  0  0  0  0  0  0  0  0  0  0  0  # atno 8009 bound_to 7997
  154.6568  140.2557  155.7159 H   0  0  0  0  0  0  0  0  0  0  0  0  # atno 8010 bound_to 7997
  140.4000  144.1737  150.6133 H   0  0  0  0  0  0  0  0  0  0  0  0  # atno 10167 bound_to 10162
  156.5483  130.4695  149.6465 H   0  0  0  0  0  0  0  0  0  0  0  0  # atno 10718 bound_to 10713
  154.0905  135.2853  155.3272 H   0  0  0  0  0  0  0  0  0  0  0  0  # atno 10763 bound_to 10752
  154.6623  135.5330  153.8037 H   0  0  0  0  0  0  0  0  0  0  0  0  # atno 10764 bound_to 10752
  153.0415  135.6537  154.1074 H   0  0  0  0  0  0  0  0  0  0  0  0  # atno 10765 bound_to 10752
  140.1194  134.8873  157.2051 H   0  0  0  0  0  0  0  0  0  0  0  0  # atno 11005 bound_to 11000
  144.9212  140.7870  143.5747 LP  0  0  0  0  0  0  0  0  0  0  0  0  # atno 17320 bound_to 7965
  145.2726  139.1949  143.4833 LP  0  0  0  0  0  0  0  0  0  0  0  0  # atno 17321 bound_to 7965
  140.4750  143.2399  151.9036 LP  0  0  0  0  0  0  0  0  0  0  0  0  # atno 17342 bound_to 10162
  139.4785  144.5330  151.8639 LP  0  0  0  0  0  0  0  0  0  0  0  0  # atno 17343 bound_to 10162
  156.2908  130.7123  151.1971 LP  0  0  0  0  0  0  0  0  0  0  0  0  # atno 17370 bound_to 10713
  157.7392  131.0531  150.5244 LP  0  0  0  0  0  0  0  0  0  0  0  0  # atno 17371 bound_to 10713
  140.2985  134.3159  155.7296 LP  0  0  0  0  0  0  0  0  0  0  0  0  # atno 17394 bound_to 11000
  141.2148  133.7577  156.9606 LP  0  0  0  0  0  0  0  0  0  0  0  0  # atno 17395 bound_to 11000

$$$$
