AV-unprocessed.smi:1829|AV-procd|sdf|7431|dock9
  -GOLD-   22720 9113D 1   1.00000     0.00000
 Structure written by MMmdl.
 46 48  0  0  0  0  0  0  0  0  2 V2000
  149.4045  132.8993  153.7691 C   0  0  0  0  0  0  0  0  0  0  0  0
  150.4101  132.9493  154.9297 C   0  0  0  0  0  0  0  0  0  0  0  0
  150.0798  131.9102  156.0133 C   0  0  0  0  0  0  0  0  0  0  0  0
  150.5229  134.3544  155.5070 C   0  0  0  0  0  0  0  0  0  0  0  0
  149.7340  135.3998  154.9817 C   0  0  0  0  0  0  0  0  0  0  0  0
  149.8197  136.6973  155.5221 C   0  0  0  0  0  0  0  0  0  0  0  0
  150.6987  136.9657  156.5939 C   0  0  0  0  0  0  0  0  0  0  0  0
  150.7666  138.3512  157.2221 C   0  0  1  0  0  0  0  0  0  0  0  0
  151.3258  138.3315  158.5192 O   0  0  0  0  0  0  0  0  0  0  0  0
  151.5676  139.3515  156.3628 C   0  0  0  0  0  0  0  0  0  0  0  0
  151.1346  140.7444  156.5644 N   0  0  0  0  0  0  0  0  0  0  0  0
  150.2752  141.5097  155.8311 C   0  0  0  0  0  0  0  0  0  0  0  0
  149.5228  141.0995  154.6083 C   0  0  0  0  0  0  0  0  0  0  0  0
  150.2600  140.2084  153.8016 O   0  0  0  0  0  0  0  0  0  0  0  0
  150.2174  142.7346  156.4249 N   0  3  0  0  0  0  0  0  0  0  0  0
  151.0477  142.7570  157.5457 C   0  0  0  0  0  0  0  0  0  0  0  0
  151.3204  143.7736  158.4557 C   0  0  0  0  0  0  0  0  0  0  0  0
  152.2278  143.4694  159.4915 C   0  0  0  0  0  0  0  0  0  0  0  0
  152.8221  142.1954  159.5956 C   0  0  0  0  0  0  0  0  0  0  0  0
  152.5326  141.1711  158.6707 C   0  0  0  0  0  0  0  0  0  0  0  0
  151.6379  141.4801  157.6456 C   0  0  0  0  0  0  0  0  0  0  0  0
  151.4951  135.9230  157.1123 C   0  0  0  0  0  0  0  0  0  0  0  0
  151.4053  134.6251  156.5753 C   0  0  0  0  0  0  0  0  0  0  0  0
  149.6800  133.6022  152.9821 H   0  0  0  0  0  0  0  0  0  0  0  0
  148.3956  133.1478  154.0997 H   0  0  0  0  0  0  0  0  0  0  0  0
  149.3703  131.9045  153.3237 H   0  0  0  0  0  0  0  0  0  0  0  0
  151.3850  132.6814  154.5201 H   0  0  0  0  0  0  0  0  0  0  0  0
  150.8287  131.9205  156.8058 H   0  0  0  0  0  0  0  0  0  0  0  0
  150.0582  130.9031  155.5959 H   0  0  0  0  0  0  0  0  0  0  0  0
  149.1076  132.0964  156.4703 H   0  0  0  0  0  0  0  0  0  0  0  0
  149.0522  135.2103  154.1656 H   0  0  0  0  0  0  0  0  0  0  0  0
  149.1966  137.4812  155.1172 H   0  0  0  0  0  0  0  0  0  0  0  0
  149.7471  138.7208  157.3401 H   0  0  0  0  0  0  0  0  0  0  0  0
  151.7974  137.5205  158.6316 H   0  0  0  0  0  0  0  0  0  0  0  0
  152.6239  139.3098  156.6320 H   0  0  0  0  0  0  0  0  0  0  0  0
  151.5179  139.1004  155.3031 H   0  0  0  0  0  0  0  0  0  0  0  0
  148.5878  140.6222  154.9031 H   0  0  0  0  0  0  0  0  0  0  0  0
  149.2605  141.9788  154.0202 H   0  0  0  0  0  0  0  0  0  0  0  0
  149.8720  140.1910  152.9400 H   0  0  0  0  0  0  0  0  0  0  0  0
  150.8664  144.7506  158.3777 H   0  0  0  0  0  0  0  0  0  0  0  0
  152.4729  144.2284  160.2204 H   0  0  0  0  0  0  0  0  0  0  0  0
  153.5152  141.9988  160.4007 H   0  0  0  0  0  0  0  0  0  0  0  0
  152.9988  140.2017  158.7615 H   0  0  0  0  0  0  0  0  0  0  0  0
  152.1655  136.1113  157.9381 H   0  0  0  0  0  0  0  0  0  0  0  0
  152.0134  133.8363  156.9930 H   0  0  0  0  0  0  0  0  0  0  0  0
  149.6470  143.4982  156.0852 H   0  0  0  0  0  0  0  0  0  0  0  0
  1  2  1  0  0  0  0
  1 24  1  0  0  0  0
  1 25  1  0  0  0  0
  1 26  1  0  0  0  0
  2  3  1  0  0  0  0
  2  4  1  0  0  0  0
  2 27  1  0  0  0  0
  3 28  1  0  0  0  0
  3 29  1  0  0  0  0
  3 30  1  0  0  0  0
  4 23  1  0  0  0  0
  4  5  2  0  0  0  0
  5  6  1  0  0  0  0
  5 31  1  0  0  0  0
  6  7  2  0  0  0  0
  6 32  1  0  0  0  0
  7  8  1  0  0  0  0
  7 22  1  0  0  0  0
  8  9  1  0  0  0  0
  8 10  1  0  0  0  0
  8 33  1  0  0  0  0
  9 34  1  0  0  0  0
 10 11  1  0  0  0  0
 10 35  1  0  0  0  0
 10 36  1  0  0  0  0
 11 21  1  0  0  0  0
 11 12  1  0  0  0  0
 12 13  1  0  0  0  0
 12 15  2  0  0  0  0
 13 14  1  0  0  0  0
 13 37  1  0  0  0  0
 13 38  1  0  0  0  0
 14 39  1  0  0  0  0
 15 16  1  0  0  0  0
 15 46  1  0  0  0  0
 16 21  2  0  0  0  0
 16 17  1  0  0  0  0
 17 18  2  0  0  0  0
 17 40  1  0  0  0  0
 18 19  1  0  0  0  0
 18 41  1  0  0  0  0
 19 20  2  0  0  0  0
 19 42  1  0  0  0  0
 20 21  1  0  0  0  0
 20 43  1  0  0  0  0
 22 23  2  0  0  0  0
 22 44  1  0  0  0  0
 23 45  1  0  0  0  0
M  CHG  1  15   1
M  END
> <s_m_source_file>
AV-unprocessed.smi

> <i_m_source_file_index>
1829

> <i_lp_mmshare_version>
43012

> <i_f3d_flags>
0

> <s_epik_input>
W0NIM11bQ0hdKFtDSDNdKWMxW2NIXVtjSF1jKFtjSF1bY0hdMSlbQ0BIXShbT0hdKVtDSDJdbihjKG4yKVtDSDJdW09IXSljKGMyMylbY0hdW2NIXVtjSF1bY0hdMw==

> <s_epik_cmdline>
J2VwaWtfcHl0aG9uJywgJy1waCcsICc3LjAnLCAnLXRuJywgJzgnLCAnLW1hJywgJzIwMCcsICctbWV0YWxfYmluZGluZycsICctaW1hZScsICc8aW5maWxlLm1hZT4nLCAnLW9tYWUnLCAnPG91dGZpbGUubWFlPic=

> <r_epik_Ionization_Penalty>
1.35642

> <r_epik_Ionization_Penalty_Charging>
1.35557

> <r_epik_Ionization_Penalty_Neutral>
0.000856322

> <r_epik_State_Penalty>
1.43401

> <r_epik_Charging_Adjusted_Penalty>
2.78958

> <i_epik_Tot_Q>
1

> <i_epik_Tot_abs_Q>
1

> <r_epik_Metal_State_Penalty>
5.47166

> <b_epik_Metal_Only>
0

> <s_lp_Force_Field>
OPLS_2005

> <r_lp_Energy>
15.3906

> <b_lp_Chiralities_Consistent>
1

> <s_lp_Variant>
AV-unprocessed.smi:1829-4

> <Gold.Version>
5.8.1

> <Gold.Id.Protein>
6NUR|6NUR_protein|mol2

> <Gold.PLP.Fitness>
52.8932

> <Gold.PLP.PLP>
-44.3257

> <Gold.PLP.part.hbond>
-2.8754

> <Gold.PLP.part.metal>
0.0000

> <Gold.PLP.part.buried>
-5.5865

> <Gold.PLP.part.nonpolar>
-35.8851

> <Gold.PLP.part.repulsive>
0.0595

> <Gold.PLP.ligand.clash>
0.0000

> <Gold.PLP.ligand.torsion>
1.4609

> <Gold.PLP.Chemscore.Hbond>
3.8000

> <Gold.PLP.Chemscore.CHOScore>
0.0000

> <Gold.PLP.Chemscore.Metal>
0.0000

> <Gold.Chemscore.Hbonds>
donor molecule, donor type, donor heavy atom, donor atom, acceptor molecule, acceptor atom, score
      L1  H    14    39       P1  7957  1.00
      L1  H    15    46       P1  8028  1.85
      P1  H  7989  7998       L1    14  0.83

> <Gold.PLP.Chemscore.Internal.Correction>
0.0893

> <Gold.Rescore>
     Score         DG    S(hbond)    S(metal)    S(lipo)     H(rot)  DE(clash)    DE(int)     intcor
     18.97     -20.27       2.43        0.00     117.38       2.75       0.06       1.25       ----

> <Gold.Chemscore.Fitness>
18.9700

> <Gold.Chemscore.DG>
-20.2732

> <Gold.Chemscore.ZeroCoef>
-5.4800

> <Gold.Chemscore.Hbond>
2.4289

> <Gold.Chemscore.Metal>
0.0000

> <Gold.Chemscore.Lipo>
117.3780

> <Gold.Chemscore.Internal_Hbond>
0.0000

> <Gold.Chemscore.DEClash>
0.0573

> <Gold.Chemscore.DEInternal>
1.2459

> <Gold.Chemscore.Rot>
2.7550

> <Gold.Chemscore.Internal.Correction>
   9.000000E+99

> <Gold.Chemscore.Hbonds>
donor molecule, donor type, donor heavy atom, donor atom, acceptor molecule, acceptor atom, score
      L1  H    14    39       P1  7957  1.00
      L1  H    15    46       P1  8028  0.89
      P1  H  7989  7998       L1    14  0.13

> <Gold.Chemscore.Hbond.Weighted>
-8.1127

> <Gold.Chemscore.Metal.Weighted>
-0.0000

> <Gold.Chemscore.Lipo.Weighted>
-13.7332

> <Gold.Chemscore.Internal_Hbond.Weighted>
0.0000

> <Gold.Chemscore.DEClash.Weighted>
0.0573

> <Gold.Chemscore.DEInternal.Weighted>
1.2459

> <Gold.Chemscore.Rot.Weighted>
7.0527

> <Gold.Chemscore.Internal.Correction.Weighted>
   9.000000E+99

> <Gold.Protein.RotatedTorsions>
[ 6907 6896 6895 6894 ] final   -9.68 input  -60.11 | X-H torsion
[ 7974 7965 7964 7962 ] final  121.46 input  175.53 | X-H torsion
[ 8008 7997 7996 7995 ] final -143.44 input   59.86 | X-H torsion
[ 10167 10162 10161 10158 ] final -178.98 input  -65.29 | X-H torsion
[ 10718 10713 10712 10709 ] final  -75.09 input   66.30 | X-H torsion
[ 10763 10752 10751 10750 ] final   65.41 input  -60.55 | X-H torsion
[ 11005 11000 10999 10996 ] final   81.94 input  -57.11 | X-H torsion

> <Gold.Protein.ActiveResidues>
 VAL166  LYS551  ARG553  GLY616  TRP617  ASP618  TYR619  PRO620  LYS621  CYS622 
 ASP623  PHE694  ASN695  SER759  ASP760  ASP761  ALA762  ILE779  LEU786  VAL792 
 PHE793  MET794  SER795  GLU796  ALA797  LYS798  CYS799  TRP800  GLU811  SER814 

> <Gold.Protein.RotatedAtoms>
  151.4140  135.0989  159.9593 H   0  0  0  0  0  0  0  0  0  0  0  0  # atno 6907 bound_to 6896
  152.5010  133.8770  159.7338 H   0  0  0  0  0  0  0  0  0  0  0  0  # atno 6908 bound_to 6896
  150.9272  133.6753  159.2847 H   0  0  0  0  0  0  0  0  0  0  0  0  # atno 6909 bound_to 6896
  145.1190  139.3402  143.4724 H   0  0  0  0  0  0  0  0  0  0  0  0  # atno 7974 bound_to 7965
  155.5106  140.0583  157.2924 H   0  0  0  0  0  0  0  0  0  0  0  0  # atno 8008 bound_to 7997
  154.4553  140.1970  156.0345 H   0  0  0  0  0  0  0  0  0  0  0  0  # atno 8009 bound_to 7997
  156.0787  140.3250  155.7670 H   0  0  0  0  0  0  0  0  0  0  0  0  # atno 8010 bound_to 7997
  139.5407  144.2370  152.0889 H   0  0  0  0  0  0  0  0  0  0  0  0  # atno 10167 bound_to 10162
  156.0219  130.4432  150.2990 H   0  0  0  0  0  0  0  0  0  0  0  0  # atno 10718 bound_to 10713
  153.0095  135.5357  154.6663 H   0  0  0  0  0  0  0  0  0  0  0  0  # atno 10763 bound_to 10752
  154.5859  135.2854  155.0687 H   0  0  0  0  0  0  0  0  0  0  0  0  # atno 10764 bound_to 10752
  154.1798  135.6518  153.5084 H   0  0  0  0  0  0  0  0  0  0  0  0  # atno 10765 bound_to 10752
  139.9081  134.8034  156.2108 H   0  0  0  0  0  0  0  0  0  0  0  0  # atno 11005 bound_to 11000
  146.3522  140.1141  142.8602 LP  0  0  0  0  0  0  0  0  0  0  0  0  # atno 17320 bound_to 7965
  145.0762  140.9189  143.4853 LP  0  0  0  0  0  0  0  0  0  0  0  0  # atno 17321 bound_to 7965
  140.1848  144.4809  150.6509 LP  0  0  0  0  0  0  0  0  0  0  0  0  # atno 17342 bound_to 10162
  140.6636  143.2260  151.5797 LP  0  0  0  0  0  0  0  0  0  0  0  0  # atno 17343 bound_to 10162
  157.1093  131.0217  151.3054 LP  0  0  0  0  0  0  0  0  0  0  0  0  # atno 17370 bound_to 10713
  157.4717  130.7713  149.7330 LP  0  0  0  0  0  0  0  0  0  0  0  0  # atno 17371 bound_to 10713
  141.0467  133.6910  156.1695 LP  0  0  0  0  0  0  0  0  0  0  0  0  # atno 17394 bound_to 11000
  140.6874  134.4703  157.5589 LP  0  0  0  0  0  0  0  0  0  0  0  0  # atno 17395 bound_to 11000

$$$$
