AV-unprocessed.smi:2614|AV-procd|sdf|10214|dock6
  -GOLD-   2272014223D 1   1.00000     0.00000
 Structure written by MMmdl.
 24 25  0  0  0  0  0  0  0  0  2 V2000
  153.7827  141.1357  161.0318 C   0  0  0  0  0  0  0  0  0  0  0  0
  152.9564  142.1404  160.3039 C   0  0  0  0  0  0  0  0  0  0  0  0
  152.9190  143.4609  160.6470 N   0  0  0  0  0  0  0  0  0  0  0  0
  152.0691  143.9173  159.7337 C   0  0  0  0  0  0  0  0  0  0  0  0
  151.6299  145.3408  159.6246 C   0  0  0  0  0  0  0  0  0  0  0  0
  151.6328  142.9604  158.9029 N   0  0  0  0  0  0  0  0  0  0  0  0
  150.7105  143.0285  157.8039 C   0  0  0  0  0  0  0  0  0  0  0  0
  149.3977  142.2417  157.7900 C   0  0  0  0  0  0  0  0  0  0  0  0
  149.5653  142.1085  156.3487 N   0  3  0  0  0  0  0  0  0  0  0  0
  151.0040  142.2903  156.4997 C   0  0  0  0  0  0  0  0  0  0  0  0
  152.2005  141.7864  159.2673 N   0  0  0  0  0  0  0  0  0  0  0  0
  154.3943  141.6182  161.7948 H   0  0  0  0  0  0  0  0  0  0  0  0
  154.4441  140.6156  160.3386 H   0  0  0  0  0  0  0  0  0  0  0  0
  153.1406  140.4008  161.5177 H   0  0  0  0  0  0  0  0  0  0  0  0
  152.1067  145.9469  160.3956 H   0  0  0  0  0  0  0  0  0  0  0  0
  150.5490  145.4112  159.7480 H   0  0  0  0  0  0  0  0  0  0  0  0
  151.9013  145.7447  158.6493 H   0  0  0  0  0  0  0  0  0  0  0  0
  150.5236  144.0891  157.6201 H   0  0  0  0  0  0  0  0  0  0  0  0
  149.4482  141.2736  158.2924 H   0  0  0  0  0  0  0  0  0  0  0  0
  148.5163  142.8121  158.0841 H   0  0  0  0  0  0  0  0  0  0  0  0
  149.3004  141.2037  155.9860 H   0  0  0  0  0  0  0  0  0  0  0  0
  151.4604  142.8988  155.7185 H   0  0  0  0  0  0  0  0  0  0  0  0
  151.5271  141.3426  156.6428 H   0  0  0  0  0  0  0  0  0  0  0  0
  149.1434  142.8821  155.8551 H   0  0  0  0  0  0  0  0  0  0  0  0
  1  2  1  0  0  0  0
  1 12  1  0  0  0  0
  1 13  1  0  0  0  0
  1 14  1  0  0  0  0
  2 11  2  0  0  0  0
  2  3  1  0  0  0  0
  3  4  2  0  0  0  0
  4  5  1  0  0  0  0
  4  6  1  0  0  0  0
  5 15  1  0  0  0  0
  5 16  1  0  0  0  0
  5 17  1  0  0  0  0
  6  7  1  0  0  0  0
  6 11  1  0  0  0  0
  7 10  1  0  0  0  0
  7  8  1  0  0  0  0
  7 18  1  0  0  0  0
  8  9  1  0  0  0  0
  8 19  1  0  0  0  0
  8 20  1  0  0  0  0
  9 10  1  0  0  0  0
  9 21  1  0  0  0  0
  9 24  1  0  0  0  0
 10 22  1  0  0  0  0
 10 23  1  0  0  0  0
M  CHG  1   9   1
M  END
> <s_m_source_file>
AV-unprocessed.smi

> <i_m_source_file_index>
2614

> <i_lp_mmshare_version>
43012

> <i_f3d_flags>
0

> <s_epik_input>
W0NIM11jMW5jKFtDSDNdKW4objEpW0NIXTJbQ0gyXVtOSF1bQ0gyXTI=

> <s_epik_cmdline>
J2VwaWtfcHl0aG9uJywgJy1waCcsICc3LjAnLCAnLXRuJywgJzgnLCAnLW1hJywgJzIwMCcsICctbWV0YWxfYmluZGluZycsICctaW1hZScsICc8aW5maWxlLm1hZT4nLCAnLW9tYWUnLCAnPG91dGZpbGUubWFlPic=

> <r_lp_tautomer_probability>
1

> <r_epik_Ionization_Penalty>
0.00796611

> <r_epik_Ionization_Penalty_Charging>
0.00792139

> <r_epik_Ionization_Penalty_Neutral>
4.47227e-05

> <r_epik_State_Penalty>
0.00594323

> <r_epik_Charging_Adjusted_Penalty>
0.0138646

> <i_epik_Tot_Q>
1

> <i_epik_Tot_abs_Q>
1

> <r_epik_Metal_State_Penalty>
-0

> <b_epik_Metal_Only>
0

> <s_lp_Force_Field>
OPLS_2005

> <r_lp_Energy>
14.7939

> <b_lp_Chiralities_Consistent>
1

> <s_lp_Variant>
AV-unprocessed.smi:2614-1

> <Gold.Version>
5.8.1

> <Gold.Id.Protein>
6NUR|6NUR_protein|mol2

> <Gold.PLP.Fitness>
31.6431

> <Gold.PLP.PLP>
-25.8423

> <Gold.PLP.part.hbond>
-1.0000

> <Gold.PLP.part.metal>
0.0000

> <Gold.PLP.part.buried>
-3.0784

> <Gold.PLP.part.nonpolar>
-21.5316

> <Gold.PLP.part.repulsive>
0.0893

> <Gold.PLP.ligand.clash>
0.0000

> <Gold.PLP.ligand.torsion>
0.2212

> <Gold.PLP.Chemscore.Hbond>
2.0000

> <Gold.PLP.Chemscore.CHOScore>
0.0000

> <Gold.PLP.Chemscore.Metal>
0.0000

> <Gold.Chemscore.Hbonds>
donor molecule, donor type, donor heavy atom, donor atom, acceptor molecule, acceptor atom, score
      L1  H     9    24       P1  8028  2.00

> <Gold.PLP.Chemscore.Internal.Correction>
0.2431

> <Gold.Rescore>
     Score         DG    S(hbond)    S(metal)    S(lipo)     H(rot)  DE(clash)    DE(int)     intcor
     11.08     -11.29       1.00        0.00      43.09       1.00       0.00       0.20       ----

> <Gold.Chemscore.Fitness>
11.0828

> <Gold.Chemscore.DG>
-11.2891

> <Gold.Chemscore.ZeroCoef>
-5.4800

> <Gold.Chemscore.Hbond>
0.9961

> <Gold.Chemscore.Metal>
0.0000

> <Gold.Chemscore.Lipo>
43.0946

> <Gold.Chemscore.Internal_Hbond>
0.0000

> <Gold.Chemscore.DEClash>
0.0015

> <Gold.Chemscore.DEInternal>
0.2048

> <Gold.Chemscore.Rot>
1.0000

> <Gold.Chemscore.Internal.Correction>
   9.000000E+99

> <Gold.Chemscore.Hbonds>
donor molecule, donor type, donor heavy atom, donor atom, acceptor molecule, acceptor atom, score
      L1  H     9    24       P1  8028  0.94

> <Gold.Chemscore.Hbond.Weighted>
-3.3270

> <Gold.Chemscore.Metal.Weighted>
-0.0000

> <Gold.Chemscore.Lipo.Weighted>
-5.0421

> <Gold.Chemscore.Internal_Hbond.Weighted>
0.0000

> <Gold.Chemscore.DEClash.Weighted>
0.0015

> <Gold.Chemscore.DEInternal.Weighted>
0.2048

> <Gold.Chemscore.Rot.Weighted>
2.5600

> <Gold.Chemscore.Internal.Correction.Weighted>
   9.000000E+99

> <Gold.Protein.RotatedTorsions>
[ 6907 6896 6895 6894 ] final  -93.37 input  -60.11 | X-H torsion
[ 7974 7965 7964 7962 ] final  -27.84 input  175.53 | X-H torsion
[ 8008 7997 7996 7995 ] final  173.03 input   59.86 | X-H torsion
[ 10167 10162 10161 10158 ] final  -16.56 input  -65.29 | X-H torsion
[ 10718 10713 10712 10709 ] final  137.68 input   66.30 | X-H torsion
[ 10763 10752 10751 10750 ] final  174.87 input  -60.55 | X-H torsion
[ 11005 11000 10999 10996 ] final -153.91 input  -57.11 | X-H torsion

> <Gold.Protein.ActiveResidues>
 VAL166  LYS551  ARG553  GLY616  TRP617  ASP618  TYR619  PRO620  LYS621  CYS622 
 ASP623  PHE694  ASN695  SER759  ASP760  ASP761  ALA762  ILE779  LEU786  VAL792 
 PHE793  MET794  SER795  GLU796  ALA797  LYS798  CYS799  TRP800  GLU811  SER814 

> <Gold.Protein.RotatedAtoms>
  150.6921  134.1978  159.4310 H   0  0  0  0  0  0  0  0  0  0  0  0  # atno 6907 bound_to 6896
  151.9946  134.9958  160.0572 H   0  0  0  0  0  0  0  0  0  0  0  0  # atno 6908 bound_to 6896
  152.1635  133.4562  159.4910 H   0  0  0  0  0  0  0  0  0  0  0  0  # atno 6909 bound_to 6896
  146.1330  140.5204  142.8685 H   0  0  0  0  0  0  0  0  0  0  0  0  # atno 7974 bound_to 7965
  156.1116  140.1471  156.9330 H   0  0  0  0  0  0  0  0  0  0  0  0  # atno 8008 bound_to 7997
  154.4771  140.0891  156.7332 H   0  0  0  0  0  0  0  0  0  0  0  0  # atno 8009 bound_to 7997
  155.4586  140.3437  155.4312 H   0  0  0  0  0  0  0  0  0  0  0  0  # atno 8010 bound_to 7997
  140.7235  143.5104  150.9757 H   0  0  0  0  0  0  0  0  0  0  0  0  # atno 10167 bound_to 10162
  157.4335  131.1051  151.0223 H   0  0  0  0  0  0  0  0  0  0  0  0  # atno 10718 bound_to 10713
  154.4599  135.2767  155.1721 H   0  0  0  0  0  0  0  0  0  0  0  0  # atno 10763 bound_to 10752
  154.3513  135.6149  153.5648 H   0  0  0  0  0  0  0  0  0  0  0  0  # atno 10764 bound_to 10752
  152.9854  135.5812  154.4959 H   0  0  0  0  0  0  0  0  0  0  0  0  # atno 10765 bound_to 10752
  140.7031  134.3915  157.5207 H   0  0  0  0  0  0  0  0  0  0  0  0  # atno 11005 bound_to 11000
  144.7710  140.5637  143.6670 LP  0  0  0  0  0  0  0  0  0  0  0  0  # atno 17320 bound_to 7965
  145.5219  139.1476  143.3547 LP  0  0  0  0  0  0  0  0  0  0  0  0  # atno 17321 bound_to 7965
  139.8818  143.7063  152.3156 LP  0  0  0  0  0  0  0  0  0  0  0  0  # atno 17342 bound_to 10162
  139.7348  144.7574  151.0745 LP  0  0  0  0  0  0  0  0  0  0  0  0  # atno 17343 bound_to 10162
  157.1112  130.6022  149.5482 LP  0  0  0  0  0  0  0  0  0  0  0  0  # atno 17370 bound_to 10713
  155.9922  130.4979  150.7330 LP  0  0  0  0  0  0  0  0  0  0  0  0  # atno 17371 bound_to 10713
  139.8891  134.8838  156.2437 LP  0  0  0  0  0  0  0  0  0  0  0  0  # atno 17394 bound_to 11000
  141.0147  133.7075  156.1169 LP  0  0  0  0  0  0  0  0  0  0  0  0  # atno 17395 bound_to 11000

$$$$
