AV-unprocessed.smi:3333|AV-procd|sdf|12834|dock5
  -GOLD-   2272019213D 1   1.00000     0.00000
 Structure written by MMmdl.
 41 43  0  0  0  0  0  0  0  0  1 V2000
  144.4034  143.2093  155.5536 C   0  0  0  0  0  0  0  0  0  0  0  0
  145.1803  142.0831  156.2436 C   0  0  0  0  0  0  0  0  0  0  0  0
  146.3852  141.6619  155.4714 C   0  0  0  0  0  0  0  0  0  0  0  0
  147.2321  140.7155  155.8854 N   0  0  0  0  0  0  0  0  0  0  0  0
  148.3031  140.5281  155.0051 C   0  0  0  0  0  0  0  0  0  0  0  0
  149.3539  139.4993  155.3095 C   0  0  0  0  0  0  0  0  0  0  0  0
  150.6690  140.1687  155.7205 C   0  0  0  0  0  0  0  0  0  0  0  0
  151.5861  140.2897  154.9074 O   0  0  0  0  0  0  0  0  0  0  0  0
  150.7545  140.5890  156.9922 N   0  0  0  0  0  0  0  0  0  0  0  0
  151.9239  141.2251  157.5900 C   0  0  0  0  0  0  0  0  0  0  0  0
  151.5385  142.3158  158.6134 C   0  0  1  0  0  0  0  0  0  0  0  0
  152.7627  143.0544  159.1986 C   0  0  0  0  0  0  0  0  0  0  0  0
  152.4345  144.5356  158.9373 C   0  0  2  0  0  0  0  0  0  0  0  0
  151.2599  144.9718  159.8334 C   0  0  0  0  0  0  0  0  0  0  0  0
  150.0563  144.2628  159.1838 C   0  0  0  0  0  0  0  0  0  0  0  0
  150.7072  143.4825  158.0262 C   0  0  1  0  0  0  0  0  0  0  0  0
  151.7778  144.4665  157.5649 C   0  0  0  0  0  0  0  0  0  0  0  0
  148.2520  141.3543  153.9092 C   0  0  0  0  0  0  0  0  0  0  0  0
  146.8689  142.4117  153.9549 S   0  0  0  0  0  0  0  0  0  0  0  0
  143.5260  143.4892  156.1365 H   0  0  0  0  0  0  0  0  0  0  0  0
  144.0628  142.9030  154.5641 H   0  0  0  0  0  0  0  0  0  0  0  0
  145.0228  144.0988  155.4350 H   0  0  0  0  0  0  0  0  0  0  0  0
  145.4918  142.3996  157.2397 H   0  0  0  0  0  0  0  0  0  0  0  0
  144.5335  141.2159  156.3793 H   0  0  0  0  0  0  0  0  0  0  0  0
  149.0127  138.8256  156.0970 H   0  0  0  0  0  0  0  0  0  0  0  0
  149.5437  138.8771  154.4344 H   0  0  0  0  0  0  0  0  0  0  0  0
  149.9544  140.4507  157.5923 H   0  0  0  0  0  0  0  0  0  0  0  0
  152.5479  140.4667  158.0659 H   0  0  0  0  0  0  0  0  0  0  0  0
  152.5224  141.6518  156.7849 H   0  0  0  0  0  0  0  0  0  0  0  0
  150.9839  141.8425  159.4249 H   0  0  0  0  0  0  0  0  0  0  0  0
  152.9069  142.8419  160.2585 H   0  0  0  0  0  0  0  0  0  0  0  0
  153.6804  142.7742  158.6791 H   0  0  0  0  0  0  0  0  0  0  0  0
  153.3019  145.1930  159.0011 H   0  0  0  0  0  0  0  0  0  0  0  0
  151.4034  144.6792  160.8741 H   0  0  0  0  0  0  0  0  0  0  0  0
  151.1280  146.0540  159.8038 H   0  0  0  0  0  0  0  0  0  0  0  0
  149.5265  143.6132  159.8815 H   0  0  0  0  0  0  0  0  0  0  0  0
  149.3424  144.9939  158.8023 H   0  0  0  0  0  0  0  0  0  0  0  0
  149.9942  143.1858  157.2568 H   0  0  0  0  0  0  0  0  0  0  0  0
  151.3718  145.4234  157.2314 H   0  0  0  0  0  0  0  0  0  0  0  0
  152.4342  144.0689  156.7894 H   0  0  0  0  0  0  0  0  0  0  0  0
  148.9500  141.4124  153.0872 H   0  0  0  0  0  0  0  0  0  0  0  0
  1  2  1  0  0  0  0
  1 20  1  0  0  0  0
  1 21  1  0  0  0  0
  1 22  1  0  0  0  0
  2  3  1  0  0  0  0
  2 23  1  0  0  0  0
  2 24  1  0  0  0  0
  3 19  1  0  0  0  0
  3  4  2  0  0  0  0
  4  5  1  0  0  0  0
  5  6  1  0  0  0  0
  5 18  2  0  0  0  0
  6  7  1  0  0  0  0
  6 25  1  0  0  0  0
  6 26  1  0  0  0  0
  7  8  2  0  0  0  0
  7  9  1  0  0  0  0
  9 10  1  0  0  0  0
  9 27  1  0  0  0  0
 10 11  1  0  0  0  0
 10 28  1  0  0  0  0
 10 29  1  0  0  0  0
 11 16  1  0  0  0  0
 11 12  1  0  0  0  0
 11 30  1  0  0  0  0
 12 13  1  0  0  0  0
 12 31  1  0  0  0  0
 12 32  1  0  0  0  0
 13 17  1  0  0  0  0
 13 14  1  0  0  0  0
 13 33  1  0  0  0  0
 14 15  1  0  0  0  0
 14 34  1  0  0  0  0
 14 35  1  0  0  0  0
 15 16  1  0  0  0  0
 15 36  1  0  0  0  0
 15 37  1  0  0  0  0
 16 17  1  0  0  0  0
 16 38  1  0  0  0  0
 17 39  1  0  0  0  0
 17 40  1  0  0  0  0
 18 19  1  0  0  0  0
 18 41  1  0  0  0  0
M  END
> <s_m_source_file>
AV-unprocessed.smi

> <i_m_source_file_index>
3333

> <i_lp_mmshare_version>
43012

> <i_f3d_flags>
0

> <s_epik_input>
W0NIM11bQ0gyXWMxbmMoW2NIXXMxKVtDSDJdQyg9TylbTkhdW0NIMl1bQ0BIXShbQ0gyXVtDQEBIXTIzKVtDQEBIXShbQ0gyXTMpW0NIMl1bQ0gyXTI=

> <s_epik_cmdline>
J2VwaWtfcHl0aG9uJywgJy1waCcsICc3LjAnLCAnLXRuJywgJzgnLCAnLW1hJywgJzIwMCcsICctbWV0YWxfYmluZGluZycsICctaW1hZScsICc8aW5maWxlLm1hZT4nLCAnLW9tYWUnLCAnPG91dGZpbGUubWFlPic=

> <r_lp_tautomer_probability>
1

> <r_epik_Ionization_Penalty>
6.68371e-05

> <r_epik_Ionization_Penalty_Charging>
0

> <r_epik_Ionization_Penalty_Neutral>
6.68371e-05

> <r_epik_State_Penalty>
-0

> <r_epik_Charging_Adjusted_Penalty>
0

> <i_epik_Tot_Q>
0

> <i_epik_Tot_abs_Q>
0

> <r_epik_Metal_State_Penalty>
-0

> <b_epik_Metal_Only>
0

> <s_lp_Force_Field>
OPLS_2005

> <r_lp_Energy>
43.9975

> <b_lp_Chiralities_Consistent>
1

> <s_lp_Variant>
AV-unprocessed.smi:3333-4

> <Gold.Version>
5.8.1

> <Gold.Id.Protein>
6NUR|6NUR_protein|mol2

> <Gold.PLP.Fitness>
46.3503

> <Gold.PLP.PLP>
-41.4992

> <Gold.PLP.part.hbond>
-1.0000

> <Gold.PLP.part.metal>
0.0000

> <Gold.PLP.part.buried>
-6.2053

> <Gold.PLP.part.nonpolar>
-34.5842

> <Gold.PLP.part.repulsive>
0.1263

> <Gold.PLP.ligand.clash>
0.0000

> <Gold.PLP.ligand.torsion>
0.5928

> <Gold.PLP.Chemscore.Hbond>
1.0000

> <Gold.PLP.Chemscore.CHOScore>
1.0000

> <Gold.PLP.Chemscore.Metal>
0.0000

> <Gold.Chemscore.Hbonds>
donor molecule, donor type, donor heavy atom, donor atom, acceptor molecule, acceptor atom, score
      P1  H  7989  7998       L1     8  0.94
      L1  C    18    41       P1  7957  1.00

> <Gold.PLP.Chemscore.Internal.Correction>
0.0367

> <Gold.Rescore>
     Score         DG    S(hbond)    S(metal)    S(lipo)     H(rot)  DE(clash)    DE(int)     intcor
     18.44     -19.05       0.99        0.00     118.76       1.42       0.10       0.51       ----

> <Gold.Chemscore.Fitness>
18.4406

> <Gold.Chemscore.DG>
-19.0495

> <Gold.Chemscore.ZeroCoef>
-5.4800

> <Gold.Chemscore.Hbond>
0.9930

> <Gold.Chemscore.Metal>
0.0000

> <Gold.Chemscore.Lipo>
118.7620

> <Gold.Chemscore.Internal_Hbond>
0.0000

> <Gold.Chemscore.DEClash>
0.0958

> <Gold.Chemscore.DEInternal>
0.5131

> <Gold.Chemscore.Rot>
1.4227

> <Gold.Chemscore.Internal.Correction>
   9.000000E+99

> <Gold.Chemscore.Hbonds>
donor molecule, donor type, donor heavy atom, donor atom, acceptor molecule, acceptor atom, score
      P1  H  7989  7998       L1     8  0.85

> <Gold.Chemscore.Hbond.Weighted>
-3.3165

> <Gold.Chemscore.Metal.Weighted>
-0.0000

> <Gold.Chemscore.Lipo.Weighted>
-13.8951

> <Gold.Chemscore.Internal_Hbond.Weighted>
0.0000

> <Gold.Chemscore.DEClash.Weighted>
0.0958

> <Gold.Chemscore.DEInternal.Weighted>
0.5131

> <Gold.Chemscore.Rot.Weighted>
3.6421

> <Gold.Chemscore.Internal.Correction.Weighted>
   9.000000E+99

> <Gold.Protein.RotatedTorsions>
[ 6907 6896 6895 6894 ] final -179.34 input  -60.11 | X-H torsion
[ 7974 7965 7964 7962 ] final  158.91 input  175.53 | X-H torsion
[ 8008 7997 7996 7995 ] final  -77.05 input   59.86 | X-H torsion
[ 10167 10162 10161 10158 ] final  150.06 input  -65.29 | X-H torsion
[ 10718 10713 10712 10709 ] final  -47.98 input   66.30 | X-H torsion
[ 10763 10752 10751 10750 ] final   49.40 input  -60.55 | X-H torsion
[ 11005 11000 10999 10996 ] final -140.49 input  -57.11 | X-H torsion

> <Gold.Protein.ActiveResidues>
 VAL166  LYS551  ARG553  GLY616  TRP617  ASP618  TYR619  PRO620  LYS621  CYS622 
 ASP623  PHE694  ASN695  SER759  ASP760  ASP761  ALA762  ILE779  LEU786  VAL792 
 PHE793  MET794  SER795  GLU796  ALA797  LYS798  CYS799  TRP800  GLU811  SER814 

> <Gold.Protein.RotatedAtoms>
  151.6519  133.3320  159.3153 H   0  0  0  0  0  0  0  0  0  0  0  0  # atno 6907 bound_to 6896
  150.7956  134.7017  159.6563 H   0  0  0  0  0  0  0  0  0  0  0  0  # atno 6908 bound_to 6896
  152.4042  134.6238  160.0109 H   0  0  0  0  0  0  0  0  0  0  0  0  # atno 6909 bound_to 6896
  144.7819  139.7543  143.6256 H   0  0  0  0  0  0  0  0  0  0  0  0  # atno 7974 bound_to 7965
  154.5561  140.0717  156.8745 H   0  0  0  0  0  0  0  0  0  0  0  0  # atno 8008 bound_to 7997
  155.2900  140.3377  155.4235 H   0  0  0  0  0  0  0  0  0  0  0  0  # atno 8009 bound_to 7997
  156.2003  140.1719  156.7899 H   0  0  0  0  0  0  0  0  0  0  0  0  # atno 8010 bound_to 7997
  139.4854  144.5552  151.7329 H   0  0  0  0  0  0  0  0  0  0  0  0  # atno 10167 bound_to 10162
  156.2032  130.4157  149.9213 H   0  0  0  0  0  0  0  0  0  0  0  0  # atno 10718 bound_to 10713
  152.9787  135.5913  154.4082 H   0  0  0  0  0  0  0  0  0  0  0  0  # atno 10763 bound_to 10752
  154.3721  135.2767  155.2262 H   0  0  0  0  0  0  0  0  0  0  0  0  # atno 10764 bound_to 10752
  154.4213  135.6058  153.6066 H   0  0  0  0  0  0  0  0  0  0  0  0  # atno 10765 bound_to 10752
  140.8417  134.2394  157.4806 H   0  0  0  0  0  0  0  0  0  0  0  0  # atno 11005 bound_to 11000
  146.2032  139.5340  142.9729 LP  0  0  0  0  0  0  0  0  0  0  0  0  # atno 17320 bound_to 7965
  145.6026  141.0353  143.2010 LP  0  0  0  0  0  0  0  0  0  0  0  0  # atno 17321 bound_to 7965
  140.5113  144.1021  150.5996 LP  0  0  0  0  0  0  0  0  0  0  0  0  # atno 17342 bound_to 10162
  140.3947  143.2734  152.0018 LP  0  0  0  0  0  0  0  0  0  0  0  0  # atno 17343 bound_to 10162
  156.6915  130.8897  151.3589 LP  0  0  0  0  0  0  0  0  0  0  0  0  # atno 17370 bound_to 10713
  157.6998  130.9320  150.0750 LP  0  0  0  0  0  0  0  0  0  0  0  0  # atno 17371 bound_to 10713
  139.8703  134.9639  156.4476 LP  0  0  0  0  0  0  0  0  0  0  0  0  # atno 17394 bound_to 11000
  140.8888  133.7864  155.9548 LP  0  0  0  0  0  0  0  0  0  0  0  0  # atno 17395 bound_to 11000

$$$$
