AV-unprocessed.smi:1410|AV-procd|sdf|5732|dock7
  -GOLD-   22720 5363D 1   1.00000     0.00000
 Structure written by MMmdl.
 40 41  0  0  0  0  0  0  0  0  2 V2000
  142.4894  132.8622  147.8498 N   0  0  0  0  0  0  0  0  0  0  0  0
  143.6377  132.5805  148.4702 C   0  0  0  0  0  0  0  0  0  0  0  0
  144.6446  132.2272  147.8600 O   0  0  0  0  0  0  0  0  0  0  0  0
  143.6627  132.7217  149.9971 C   0  0  0  0  0  0  0  0  0  0  0  0
  144.6190  133.7318  150.5051 N   0  0  0  0  0  0  0  0  0  0  0  0
  145.3116  133.1913  151.6793 C   0  0  0  0  0  0  0  0  0  0  0  0
  146.4092  134.1589  152.1544 C   0  0  0  0  0  0  0  0  0  0  0  0
  145.8220  135.5350  152.4965 C   0  0  0  0  0  0  0  0  0  0  0  0
  146.8963  136.4632  152.8365 N   0  0  0  0  0  0  0  0  0  0  0  0
  146.7227  137.7266  153.2500 C   0  0  0  0  0  0  0  0  0  0  0  0
  145.6175  138.2524  153.3809 O   0  0  0  0  0  0  0  0  0  0  0  0
  147.9022  138.3309  153.4762 N   0  0  0  0  0  0  0  0  0  0  0  0
  148.1478  139.6534  153.9365 C   0  0  0  0  0  0  0  0  0  0  0  0
  149.3106  139.8705  154.7089 C   0  0  0  0  0  0  0  0  0  0  0  0
  149.5883  141.1619  155.2016 C   0  0  0  0  0  0  0  0  0  0  0  0
  148.7383  142.1782  154.9408 N   0  3  0  0  0  0  0  0  0  0  0  0
  147.6080  142.0173  154.2197 C   0  0  0  0  0  0  0  0  0  0  0  0
  147.2775  140.7487  153.7009 C   0  0  0  0  0  0  0  0  0  0  0  0
  145.0138  136.0446  151.2919 C   0  0  0  0  0  0  0  0  0  0  0  0
  143.9697  135.0080  150.8403 C   0  0  0  0  0  0  0  0  0  0  0  0
  142.4321  132.7841  146.8447 H   0  0  0  0  0  0  0  0  0  0  0  0
  141.6843  133.1541  148.3846 H   0  0  0  0  0  0  0  0  0  0  0  0
  142.6594  132.9480  150.3640 H   0  0  0  0  0  0  0  0  0  0  0  0
  143.9244  131.7424  150.4006 H   0  0  0  0  0  0  0  0  0  0  0  0
  144.6012  132.9999  152.4859 H   0  0  0  0  0  0  0  0  0  0  0  0
  145.7721  132.2344  151.4294 H   0  0  0  0  0  0  0  0  0  0  0  0
  146.9155  133.7415  153.0257 H   0  0  0  0  0  0  0  0  0  0  0  0
  147.1661  134.2578  151.3743 H   0  0  0  0  0  0  0  0  0  0  0  0
  145.1559  135.4216  153.3540 H   0  0  0  0  0  0  0  0  0  0  0  0
  147.8396  136.1137  152.7499 H   0  0  0  0  0  0  0  0  0  0  0  0
  148.7245  137.7941  153.2421 H   0  0  0  0  0  0  0  0  0  0  0  0
  149.9902  139.0572  154.9196 H   0  0  0  0  0  0  0  0  0  0  0  0
  150.4571  141.4097  155.7938 H   0  0  0  0  0  0  0  0  0  0  0  0
  147.0016  142.9011  154.0847 H   0  0  0  0  0  0  0  0  0  0  0  0
  146.3589  140.6406  153.1450 H   0  0  0  0  0  0  0  0  0  0  0  0
  144.5133  136.9804  151.5430 H   0  0  0  0  0  0  0  0  0  0  0  0
  145.6841  136.2672  150.4600 H   0  0  0  0  0  0  0  0  0  0  0  0
  143.4429  135.4166  149.9780 H   0  0  0  0  0  0  0  0  0  0  0  0
  143.2238  134.8566  151.6227 H   0  0  0  0  0  0  0  0  0  0  0  0
  148.9567  143.1050  155.3075 H   0  0  0  0  0  0  0  0  0  0  0  0
  1  2  1  0  0  0  0
  1 21  1  0  0  0  0
  1 22  1  0  0  0  0
  2  3  2  0  0  0  0
  2  4  1  0  0  0  0
  4  5  1  0  0  0  0
  4 23  1  0  0  0  0
  4 24  1  0  0  0  0
  5 20  1  0  0  0  0
  5  6  1  0  0  0  0
  6  7  1  0  0  0  0
  6 25  1  0  0  0  0
  6 26  1  0  0  0  0
  7  8  1  0  0  0  0
  7 27  1  0  0  0  0
  7 28  1  0  0  0  0
  8  9  1  0  0  0  0
  8 19  1  0  0  0  0
  8 29  1  0  0  0  0
  9 10  1  0  0  0  0
  9 30  1  0  0  0  0
 10 11  2  0  0  0  0
 10 12  1  0  0  0  0
 12 13  1  0  0  0  0
 12 31  1  0  0  0  0
 13 18  1  0  0  0  0
 13 14  2  0  0  0  0
 14 15  1  0  0  0  0
 14 32  1  0  0  0  0
 15 16  2  0  0  0  0
 15 33  1  0  0  0  0
 16 17  1  0  0  0  0
 16 40  1  0  0  0  0
 17 18  2  0  0  0  0
 17 34  1  0  0  0  0
 18 35  1  0  0  0  0
 19 20  1  0  0  0  0
 19 36  1  0  0  0  0
 19 37  1  0  0  0  0
 20 38  1  0  0  0  0
 20 39  1  0  0  0  0
M  CHG  1  16   1
M  END
> <s_m_source_file>
AV-unprocessed.smi

> <i_m_source_file_index>
1410

> <i_lp_mmshare_version>
43012

> <i_f3d_flags>
0

> <s_epik_input>
W05IMl1DKD1PKVtDSDJdTjFbQ0gyXVtDSDJdW0NIXShbQ0gyXVtDSDJdMSlbTkhdQyg9TylbTkhdYzJbY0hdW2NIXW5bY0hdW2NIXTI=

> <s_epik_cmdline>
J2VwaWtfcHl0aG9uJywgJy1waCcsICc3LjAnLCAnLXRuJywgJzgnLCAnLW1hJywgJzIwMCcsICctbWV0YWxfYmluZGluZycsICctaW1hZScsICc8aW5maWxlLm1hZT4nLCAnLW9tYWUnLCAnPG91dGZpbGUubWFlPic=

> <r_epik_Ionization_Penalty>
1.15133

> <r_epik_Ionization_Penalty_Charging>
0.995513

> <r_epik_Ionization_Penalty_Neutral>
0.155816

> <r_epik_State_Penalty>
1.22158

> <r_epik_Charging_Adjusted_Penalty>
2.2171

> <i_epik_Tot_Q>
1

> <i_epik_Tot_abs_Q>
1

> <r_epik_Metal_State_Penalty>
1.3359

> <b_epik_Metal_Only>
0

> <s_lp_Force_Field>
OPLS_2005

> <r_lp_Energy>
21.9587

> <b_lp_Chiralities_Consistent>
1

> <s_lp_Variant>
AV-unprocessed.smi:1410-4

> <Gold.Version>
5.8.1

> <Gold.Id.Protein>
6NUR|6NUR_protein|mol2

> <Gold.PLP.Fitness>
49.9408

> <Gold.PLP.PLP>
-36.5459

> <Gold.PLP.part.hbond>
-7.1481

> <Gold.PLP.part.metal>
0.0000

> <Gold.PLP.part.buried>
-0.4987

> <Gold.PLP.part.nonpolar>
-29.5465

> <Gold.PLP.part.repulsive>
1.2803

> <Gold.PLP.ligand.clash>
0.0000

> <Gold.PLP.ligand.torsion>
0.7800

> <Gold.PLP.Chemscore.Hbond>
4.9829

> <Gold.PLP.Chemscore.CHOScore>
0.0000

> <Gold.PLP.Chemscore.Metal>
0.0000

> <Gold.Chemscore.Hbonds>
donor molecule, donor type, donor heavy atom, donor atom, acceptor molecule, acceptor atom, score
      L1  H     1    21       P1 10195  0.93
      L1  H     1    22       P1 10186  0.93
      L1  H     9    30       P1  7948  0.57
      L1  H    12    31       P1  7948  0.53
      L1  H    16    40       P1  8028  2.00

> <Gold.PLP.Chemscore.Internal.Correction>
0.0062

> <Gold.Rescore>
     Score         DG    S(hbond)    S(metal)    S(lipo)     H(rot)  DE(clash)    DE(int)     intcor
     19.55     -21.83       4.10        0.00      65.65       1.96       0.46       1.81       ----

> <Gold.Chemscore.Fitness>
19.5503

> <Gold.Chemscore.DG>
-21.8271

> <Gold.Chemscore.ZeroCoef>
-5.4800

> <Gold.Chemscore.Hbond>
4.1006

> <Gold.Chemscore.Metal>
0.0000

> <Gold.Chemscore.Lipo>
65.6539

> <Gold.Chemscore.Internal_Hbond>
0.0000

> <Gold.Chemscore.DEClash>
0.4631

> <Gold.Chemscore.DEInternal>
1.8138

> <Gold.Chemscore.Rot>
1.9650

> <Gold.Chemscore.Internal.Correction>
   9.000000E+99

> <Gold.Chemscore.Hbonds>
donor molecule, donor type, donor heavy atom, donor atom, acceptor molecule, acceptor atom, score
      L1  H     1    21       P1 10195  0.85
      L1  H     1    22       P1 10186  0.91
      L1  H     9    30       P1  7948  0.57
      L1  H    12    31       P1  7948  0.51
      L1  H    16    40       P1  8028  0.99
      P1  H  7918  7932       L1     3  0.04

> <Gold.Chemscore.Hbond.Weighted>
-13.6959

> <Gold.Chemscore.Metal.Weighted>
-0.0000

> <Gold.Chemscore.Lipo.Weighted>
-7.6815

> <Gold.Chemscore.Internal_Hbond.Weighted>
0.0000

> <Gold.Chemscore.DEClash.Weighted>
0.4631

> <Gold.Chemscore.DEInternal.Weighted>
1.8138

> <Gold.Chemscore.Rot.Weighted>
5.0303

> <Gold.Chemscore.Internal.Correction.Weighted>
   9.000000E+99

> <Gold.Protein.RotatedTorsions>
[ 6907 6896 6895 6894 ] final  -56.76 input  -60.11 | X-H torsion
[ 7974 7965 7964 7962 ] final  123.61 input  175.53 | X-H torsion
[ 8008 7997 7996 7995 ] final -169.89 input   59.86 | X-H torsion
[ 10167 10162 10161 10158 ] final   85.64 input  -65.29 | X-H torsion
[ 10718 10713 10712 10709 ] final -178.29 input   66.30 | X-H torsion
[ 10763 10752 10751 10750 ] final -144.96 input  -60.55 | X-H torsion
[ 11005 11000 10999 10996 ] final   49.46 input  -57.11 | X-H torsion

> <Gold.Protein.ActiveResidues>
 VAL166  LYS551  ARG553  GLY616  TRP617  ASP618  TYR619  PRO620  LYS621  CYS622 
 ASP623  PHE694  ASN695  SER759  ASP760  ASP761  ALA762  ILE779  LEU786  VAL792 
 PHE793  MET794  SER795  GLU796  ALA797  LYS798  CYS799  TRP800  GLU811  SER814 

> <Gold.Protein.RotatedAtoms>
  150.8141  134.7312  159.6713 H   0  0  0  0  0  0  0  0  0  0  0  0  # atno 6907 bound_to 6896
  152.4260  134.5864  159.9972 H   0  0  0  0  0  0  0  0  0  0  0  0  # atno 6908 bound_to 6896
  151.6066  133.3314  159.3094 H   0  0  0  0  0  0  0  0  0  0  0  0  # atno 6909 bound_to 6896
  145.0939  139.3567  143.4846 H   0  0  0  0  0  0  0  0  0  0  0  0  # atno 7974 bound_to 7965
  155.9111  140.1057  157.1279 H   0  0  0  0  0  0  0  0  0  0  0  0  # atno 8008 bound_to 7997
  154.4039  140.1274  156.4623 H   0  0  0  0  0  0  0  0  0  0  0  0  # atno 8009 bound_to 7997
  155.7309  140.3468  155.5061 H   0  0  0  0  0  0  0  0  0  0  0  0  # atno 8010 bound_to 7997
  139.8956  144.6360  150.8691 H   0  0  0  0  0  0  0  0  0  0  0  0  # atno 10167 bound_to 10162
  156.8421  130.9690  151.3099 H   0  0  0  0  0  0  0  0  0  0  0  0  # atno 10718 bound_to 10713
  154.8405  135.3426  154.6429 H   0  0  0  0  0  0  0  0  0  0  0  0  # atno 10763 bound_to 10752
  153.7040  135.6968  153.5060 H   0  0  0  0  0  0  0  0  0  0  0  0  # atno 10764 bound_to 10752
  153.2501  135.4356  155.0743 H   0  0  0  0  0  0  0  0  0  0  0  0  # atno 10765 bound_to 10752
  140.1101  134.4966  155.8685 H   0  0  0  0  0  0  0  0  0  0  0  0  # atno 11005 bound_to 11000
  146.3531  140.0786  142.8619 LP  0  0  0  0  0  0  0  0  0  0  0  0  # atno 17320 bound_to 7965
  145.1033  140.9360  143.4699 LP  0  0  0  0  0  0  0  0  0  0  0  0  # atno 17321 bound_to 7965
  140.7717  143.3476  151.2080 LP  0  0  0  0  0  0  0  0  0  0  0  0  # atno 17342 bound_to 10162
  139.7070  143.9438  152.2931 LP  0  0  0  0  0  0  0  0  0  0  0  0  # atno 17343 bound_to 10162
  157.6350  130.8759  149.9342 LP  0  0  0  0  0  0  0  0  0  0  0  0  # atno 17370 bound_to 10713
  156.0875  130.3666  150.0459 LP  0  0  0  0  0  0  0  0  0  0  0  0  # atno 17371 bound_to 10713
  141.2128  133.6724  156.6688 LP  0  0  0  0  0  0  0  0  0  0  0  0  # atno 17394 bound_to 11000
  140.3102  134.8092  157.4170 LP  0  0  0  0  0  0  0  0  0  0  0  0  # atno 17395 bound_to 11000

$$$$
