AV-unprocessed.smi:2276|AV-procd|sdf|9172|dock7
  -GOLD-   2272012383D 1   1.00000     0.00000
 Structure written by MMmdl.
 53 54  0  0  0  0  0  0  0  0  2 V2000
  151.7328  145.7666  160.1823 C   0  0  0  0  0  0  0  0  0  0  0  0
  151.8916  144.3275  159.7388 C   0  0  0  0  0  0  0  0  0  0  0  0
  151.2149  143.8417  158.6036 C   0  0  0  0  0  0  0  0  0  0  0  0
  151.4042  142.4937  158.2426 C   0  0  0  0  0  0  0  0  0  0  0  0
  150.7048  141.9059  157.0352 C   0  0  0  0  0  0  0  0  0  0  0  0
  152.1985  141.6505  158.9362 N   0  0  0  0  0  0  0  0  0  0  0  0
  152.8620  142.1094  160.0268 C   0  0  0  0  0  0  0  0  0  0  0  0
  153.7029  141.2963  160.8316 N   0  0  0  0  0  0  0  0  0  0  0  0
  154.3735  140.1925  160.4596 C   0  0  0  0  0  0  0  0  0  0  0  0
  154.5728  139.8447  159.2951 O   0  0  0  0  0  0  0  0  0  0  0  0
  154.7856  139.4899  161.5251 N   0  0  0  0  0  0  0  0  0  0  0  0
  155.4132  138.1698  161.4889 C   0  0  0  0  0  0  0  0  0  0  0  0
  155.3034  137.4412  162.8480 C   0  0  2  0  0  0  0  0  0  0  0  0
  154.0199  136.5980  162.9035 C   0  0  0  0  0  0  0  0  0  0  0  0
  155.3471  138.4278  164.0422 C   0  0  0  0  0  0  0  0  0  0  0  0
  156.6378  139.1022  164.2106 N   0  0  0  0  0  0  0  0  0  0  0  0
  156.6370  140.5347  163.8827 C   0  0  0  0  0  0  0  0  0  0  0  0
  155.7981  141.3709  164.8732 C   0  0  0  0  0  0  0  0  0  0  0  0
  156.2785  141.1764  166.2603 N   0  3  0  0  0  0  0  0  0  0  0  0
  155.5157  141.9794  167.2393 C   0  0  0  0  0  0  0  0  0  0  0  0
  156.3155  139.7367  166.6085 C   0  0  0  0  0  0  0  0  0  0  0  0
  157.1512  138.9473  165.5753 C   0  0  0  0  0  0  0  0  0  0  0  0
  152.7239  143.4471  160.4593 C   0  0  0  0  0  0  0  0  0  0  0  0
  150.9905  146.2883  159.5776 H   0  0  0  0  0  0  0  0  0  0  0  0
  152.6813  146.2961  160.0916 H   0  0  0  0  0  0  0  0  0  0  0  0
  151.4136  145.8087  161.2238 H   0  0  0  0  0  0  0  0  0  0  0  0
  150.5690  144.4853  158.0241 H   0  0  0  0  0  0  0  0  0  0  0  0
  150.2977  142.6898  156.3960 H   0  0  0  0  0  0  0  0  0  0  0  0
  149.8840  141.2618  157.3502 H   0  0  0  0  0  0  0  0  0  0  0  0
  151.3997  141.3120  156.4406 H   0  0  0  0  0  0  0  0  0  0  0  0
  153.7095  141.5190  161.8160 H   0  0  0  0  0  0  0  0  0  0  0  0
  154.5933  139.8684  162.4411 H   0  0  0  0  0  0  0  0  0  0  0  0
  155.0005  137.5553  160.6869 H   0  0  0  0  0  0  0  0  0  0  0  0
  156.4630  138.3271  161.2399 H   0  0  0  0  0  0  0  0  0  0  0  0
  156.1409  136.7470  162.8954 H   0  0  0  0  0  0  0  0  0  0  0  0
  153.1299  137.2216  162.8150 H   0  0  0  0  0  0  0  0  0  0  0  0
  153.9506  136.0498  163.8435 H   0  0  0  0  0  0  0  0  0  0  0  0
  153.9938  135.8660  162.0958 H   0  0  0  0  0  0  0  0  0  0  0  0
  154.5669  139.1754  163.9579 H   0  0  0  0  0  0  0  0  0  0  0  0
  155.1105  137.8755  164.9527 H   0  0  0  0  0  0  0  0  0  0  0  0
  157.6691  140.8872  163.9000 H   0  0  0  0  0  0  0  0  0  0  0  0
  156.2878  140.7032  162.8657 H   0  0  0  0  0  0  0  0  0  0  0  0
  155.8826  142.4265  164.6128 H   0  0  0  0  0  0  0  0  0  0  0  0
  154.7391  141.1248  164.8047 H   0  0  0  0  0  0  0  0  0  0  0  0
  154.4687  141.6755  167.2599 H   0  0  0  0  0  0  0  0  0  0  0  0
  155.5582  143.0387  166.9845 H   0  0  0  0  0  0  0  0  0  0  0  0
  155.9272  141.8589  168.2417 H   0  0  0  0  0  0  0  0  0  0  0  0
  156.7628  139.6211  167.5963 H   0  0  0  0  0  0  0  0  0  0  0  0
  155.3014  139.3418  166.6827 H   0  0  0  0  0  0  0  0  0  0  0  0
  157.1780  137.8896  165.8399 H   0  0  0  0  0  0  0  0  0  0  0  0
  158.1853  139.2935  165.6008 H   0  0  0  0  0  0  0  0  0  0  0  0
  153.2510  143.7989  161.3344 H   0  0  0  0  0  0  0  0  0  0  0  0
  157.2329  141.5059  166.2862 H   0  0  0  0  0  0  0  0  0  0  0  0
  1  2  1  0  0  0  0
  1 24  1  0  0  0  0
  1 25  1  0  0  0  0
  1 26  1  0  0  0  0
  2 23  1  0  0  0  0
  2  3  2  0  0  0  0
  3  4  1  0  0  0  0
  3 27  1  0  0  0  0
  4  5  1  0  0  0  0
  4  6  2  0  0  0  0
  5 28  1  0  0  0  0
  5 29  1  0  0  0  0
  5 30  1  0  0  0  0
  6  7  1  0  0  0  0
  7  8  1  0  0  0  0
  7 23  2  0  0  0  0
  8  9  1  0  0  0  0
  8 31  1  0  0  0  0
  9 10  2  0  0  0  0
  9 11  1  0  0  0  0
 11 12  1  0  0  0  0
 11 32  1  0  0  0  0
 12 13  1  0  0  0  0
 12 33  1  0  0  0  0
 12 34  1  0  0  0  0
 13 14  1  0  0  0  0
 13 15  1  0  0  0  0
 13 35  1  0  0  0  0
 14 36  1  0  0  0  0
 14 37  1  0  0  0  0
 14 38  1  0  0  0  0
 15 16  1  0  0  0  0
 15 39  1  0  0  0  0
 15 40  1  0  0  0  0
 16 22  1  0  0  0  0
 16 17  1  0  0  0  0
 17 18  1  0  0  0  0
 17 41  1  0  0  0  0
 17 42  1  0  0  0  0
 18 19  1  0  0  0  0
 18 43  1  0  0  0  0
 18 44  1  0  0  0  0
 19 20  1  0  0  0  0
 19 21  1  0  0  0  0
 19 53  1  0  0  0  0
 20 45  1  0  0  0  0
 20 46  1  0  0  0  0
 20 47  1  0  0  0  0
 21 22  1  0  0  0  0
 21 48  1  0  0  0  0
 21 49  1  0  0  0  0
 22 50  1  0  0  0  0
 22 51  1  0  0  0  0
 23 52  1  0  0  0  0
M  CHG  1  19   1
M  END
> <s_m_source_file>
AV-unprocessed.smi

> <i_m_source_file_index>
2276

> <i_lp_mmshare_version>
43012

> <i_f3d_flags>
0

> <s_epik_input>
W0NIM11jMVtjSF1jKFtDSDNdKW5jKFtjSF0xKVtOSF1DKD1PKVtOSF1bQ0gyXVtDQEhdKFtDSDNdKVtDSDJdTjJbQ0gyXVtDSDJdTihbQ0gzXSlbQ0gyXVtDSDJdMg==

> <s_epik_cmdline>
J2VwaWtfcHl0aG9uJywgJy1waCcsICc3LjAnLCAnLXRuJywgJzgnLCAnLW1hJywgJzIwMCcsICctbWV0YWxfYmluZGluZycsICctaW1hZScsICc8aW5maWxlLm1hZT4nLCAnLW9tYWUnLCAnPG91dGZpbGUubWFlPic=

> <r_epik_Ionization_Penalty>
0.0247364

> <r_epik_Ionization_Penalty_Charging>
0.0230248

> <r_epik_Ionization_Penalty_Neutral>
0.00171164

> <r_epik_State_Penalty>
0.239056

> <r_epik_Charging_Adjusted_Penalty>
0.262081

> <i_epik_Tot_Q>
1

> <i_epik_Tot_abs_Q>
1

> <r_epik_Metal_State_Penalty>
0.239048

> <b_epik_Metal_Only>
0

> <s_lp_Force_Field>
OPLS_2005

> <r_lp_Energy>
20.3682

> <b_lp_Chiralities_Consistent>
1

> <s_lp_Variant>
AV-unprocessed.smi:2276-1

> <Gold.Version>
5.8.1

> <Gold.Id.Protein>
6NUR|6NUR_protein|mol2

> <Gold.PLP.Fitness>
45.2837

> <Gold.PLP.PLP>
-45.0215

> <Gold.PLP.part.hbond>
-1.0000

> <Gold.PLP.part.metal>
0.0000

> <Gold.PLP.part.buried>
-5.6223

> <Gold.PLP.part.nonpolar>
-37.9010

> <Gold.PLP.part.repulsive>
0.0825

> <Gold.PLP.ligand.clash>
0.0000

> <Gold.PLP.ligand.torsion>
1.3847

> <Gold.PLP.Chemscore.Hbond>
1.0000

> <Gold.PLP.Chemscore.CHOScore>
0.0000

> <Gold.PLP.Chemscore.Metal>
0.0000

> <Gold.Chemscore.Hbonds>
donor molecule, donor type, donor heavy atom, donor atom, acceptor molecule, acceptor atom, score
      P1  H  7997  8008       L1    10  0.98

> <Gold.PLP.Chemscore.Internal.Correction>
0.0316

> <Gold.Rescore>
     Score         DG    S(hbond)    S(metal)    S(lipo)     H(rot)  DE(clash)    DE(int)     intcor
     16.03     -18.59       0.98        0.00     119.61       1.63       0.13       2.44       ----

> <Gold.Chemscore.Fitness>
16.0258

> <Gold.Chemscore.DG>
-18.5904

> <Gold.Chemscore.ZeroCoef>
-5.4800

> <Gold.Chemscore.Hbond>
0.9833

> <Gold.Chemscore.Metal>
0.0000

> <Gold.Chemscore.Lipo>
119.6093

> <Gold.Chemscore.Internal_Hbond>
0.0000

> <Gold.Chemscore.DEClash>
0.1283

> <Gold.Chemscore.DEInternal>
2.4363

> <Gold.Chemscore.Rot>
1.6282

> <Gold.Chemscore.Internal.Correction>
   9.000000E+99

> <Gold.Chemscore.Hbonds>
donor molecule, donor type, donor heavy atom, donor atom, acceptor molecule, acceptor atom, score
      P1  H  7997  8008       L1    10  0.89

> <Gold.Chemscore.Hbond.Weighted>
-3.2842

> <Gold.Chemscore.Metal.Weighted>
-0.0000

> <Gold.Chemscore.Lipo.Weighted>
-13.9943

> <Gold.Chemscore.Internal_Hbond.Weighted>
0.0000

> <Gold.Chemscore.DEClash.Weighted>
0.1283

> <Gold.Chemscore.DEInternal.Weighted>
2.4363

> <Gold.Chemscore.Rot.Weighted>
4.1682

> <Gold.Chemscore.Internal.Correction.Weighted>
   9.000000E+99

> <Gold.Protein.RotatedTorsions>
[ 6907 6896 6895 6894 ] final -175.37 input  -60.11 | X-H torsion
[ 7974 7965 7964 7962 ] final  135.93 input  175.53 | X-H torsion
[ 8008 7997 7996 7995 ] final -125.24 input   59.86 | X-H torsion
[ 10167 10162 10161 10158 ] final   71.55 input  -65.29 | X-H torsion
[ 10718 10713 10712 10709 ] final   92.78 input   66.30 | X-H torsion
[ 10763 10752 10751 10750 ] final -178.33 input  -60.55 | X-H torsion
[ 11005 11000 10999 10996 ] final -168.57 input  -57.11 | X-H torsion

> <Gold.Protein.ActiveResidues>
 VAL166  LYS551  ARG553  GLY616  TRP617  ASP618  TYR619  PRO620  LYS621  CYS622 
 ASP623  PHE694  ASN695  SER759  ASP760  ASP761  ALA762  ILE779  LEU786  VAL792 
 PHE793  MET794  SER795  GLU796  ALA797  LYS798  CYS799  TRP800  GLU811  SER814 

> <Gold.Protein.RotatedAtoms>
  151.5875  133.3370  159.3020 H   0  0  0  0  0  0  0  0  0  0  0  0  # atno 6907 bound_to 6896
  150.8278  134.7521  159.6839 H   0  0  0  0  0  0  0  0  0  0  0  0  # atno 6908 bound_to 6896
  152.4366  134.5681  159.9965 H   0  0  0  0  0  0  0  0  0  0  0  0  # atno 6909 bound_to 6896
  144.9615  139.4705  143.5477 H   0  0  0  0  0  0  0  0  0  0  0  0  # atno 7974 bound_to 7965
  155.2100  140.0418  157.2932 H   0  0  0  0  0  0  0  0  0  0  0  0  # atno 8008 bound_to 7997
  154.6018  140.2454  155.7754 H   0  0  0  0  0  0  0  0  0  0  0  0  # atno 8009 bound_to 7997
  156.2325  140.2933  156.0236 H   0  0  0  0  0  0  0  0  0  0  0  0  # atno 8010 bound_to 7997
  140.0449  144.5359  150.7406 H   0  0  0  0  0  0  0  0  0  0  0  0  # atno 10167 bound_to 10162
  157.6957  131.0455  150.3933 H   0  0  0  0  0  0  0  0  0  0  0  0  # atno 10718 bound_to 10713
  154.5490  135.2811  155.1026 H   0  0  0  0  0  0  0  0  0  0  0  0  # atno 10763 bound_to 10752
  154.2478  135.6345  153.5233 H   0  0  0  0  0  0  0  0  0  0  0  0  # atno 10764 bound_to 10752
  152.9998  135.5575  154.6051 H   0  0  0  0  0  0  0  0  0  0  0  0  # atno 10765 bound_to 10752
  140.5405  134.5527  157.5098 H   0  0  0  0  0  0  0  0  0  0  0  0  # atno 11005 bound_to 11000
  146.3354  139.8768  142.8831 LP  0  0  0  0  0  0  0  0  0  0  0  0  # atno 17320 bound_to 7965
  145.2693  141.0103  143.3781 LP  0  0  0  0  0  0  0  0  0  0  0  0  # atno 17321 bound_to 7965
  140.7243  143.2620  151.4172 LP  0  0  0  0  0  0  0  0  0  0  0  0  # atno 17342 bound_to 10162
  139.5990  144.1336  152.2177 LP  0  0  0  0  0  0  0  0  0  0  0  0  # atno 17343 bound_to 10162
  156.4334  130.3977  149.6745 LP  0  0  0  0  0  0  0  0  0  0  0  0  # atno 17370 bound_to 10713
  156.3954  130.7648  151.2652 LP  0  0  0  0  0  0  0  0  0  0  0  0  # atno 17371 bound_to 10713
  139.9506  134.7623  156.0456 LP  0  0  0  0  0  0  0  0  0  0  0  0  # atno 17394 bound_to 11000
  141.1230  133.6607  156.3263 LP  0  0  0  0  0  0  0  0  0  0  0  0  # atno 17395 bound_to 11000

$$$$
