AV-unprocessed.smi:1410|AV-procd|sdf|5734|dock10
  -GOLD-   22720 5363D 1   1.00000     0.00000
 Structure written by MMmdl.
 41 42  0  0  0  0  0  0  0  0  3 V2000
  142.4538  139.9415  154.7779 N   0  0  0  0  0  0  0  0  0  0  0  0
  142.9087  140.5572  155.8714 C   0  0  0  0  0  0  0  0  0  0  0  0
  142.6284  140.1719  157.0053 O   0  0  0  0  0  0  0  0  0  0  0  0
  143.8233  141.7672  155.6539 C   0  0  0  0  0  0  0  0  0  0  0  0
  145.0585  141.4321  154.8993 N   0  3  2  0  0  0  0  0  0  0  0  0
  146.0162  140.6071  155.6830 C   0  0  0  0  0  0  0  0  0  0  0  0
  147.2034  140.1608  154.8121 C   0  0  0  0  0  0  0  0  0  0  0  0
  147.9245  141.3566  154.1574 C   0  0  2  0  0  0  0  0  0  0  0  0
  148.6802  142.1447  155.1317 N   0  0  0  0  0  0  0  0  0  0  0  0
  149.6369  141.6645  155.9402 C   0  0  0  0  0  0  0  0  0  0  0  0
  149.9633  140.4788  155.9715 O   0  0  0  0  0  0  0  0  0  0  0  0
  150.1633  142.6374  156.7048 N   0  0  0  0  0  0  0  0  0  0  0  0
  151.1851  142.5407  157.6898 C   0  0  0  0  0  0  0  0  0  0  0  0
  151.4899  141.2538  158.1871 C   0  0  0  0  0  0  0  0  0  0  0  0
  152.4870  141.1056  159.1727 C   0  0  0  0  0  0  0  0  0  0  0  0
  153.1367  142.1927  159.6404 N   0  3  0  0  0  0  0  0  0  0  0  0
  152.8714  143.4436  159.2071 C   0  0  0  0  0  0  0  0  0  0  0  0
  151.8839  143.6542  158.2230 C   0  0  0  0  0  0  0  0  0  0  0  0
  146.9020  142.2416  153.4230 C   0  0  0  0  0  0  0  0  0  0  0  0
  145.7169  142.6328  154.3252 C   0  0  0  0  0  0  0  0  0  0  0  0
  141.8503  139.1364  154.8710 H   0  0  0  0  0  0  0  0  0  0  0  0
  142.7135  140.2751  153.8608 H   0  0  0  0  0  0  0  0  0  0  0  0
  143.2392  142.4998  155.0953 H   0  0  0  0  0  0  0  0  0  0  0  0
  144.0799  142.2326  156.6072 H   0  0  0  0  0  0  0  0  0  0  0  0
  146.3715  141.1752  156.5440 H   0  0  0  0  0  0  0  0  0  0  0  0
  145.5143  139.7233  156.0779 H   0  0  0  0  0  0  0  0  0  0  0  0
  147.8996  139.5660  155.4044 H   0  0  0  0  0  0  0  0  0  0  0  0
  146.8355  139.4961  154.0292 H   0  0  0  0  0  0  0  0  0  0  0  0
  148.6316  140.9764  153.4178 H   0  0  0  0  0  0  0  0  0  0  0  0
  148.4771  143.1327  155.1730 H   0  0  0  0  0  0  0  0  0  0  0  0
  149.7425  143.5500  156.6093 H   0  0  0  0  0  0  0  0  0  0  0  0
  150.9700  140.3828  157.8150 H   0  0  0  0  0  0  0  0  0  0  0  0
  152.7809  140.1574  159.5987 H   0  0  0  0  0  0  0  0  0  0  0  0
  153.4496  144.2352  159.6612 H   0  0  0  0  0  0  0  0  0  0  0  0
  151.6777  144.6655  157.9086 H   0  0  0  0  0  0  0  0  0  0  0  0
  147.3868  143.1364  153.0307 H   0  0  0  0  0  0  0  0  0  0  0  0
  146.5214  141.7004  152.5556 H   0  0  0  0  0  0  0  0  0  0  0  0
  144.9959  143.2011  153.7361 H   0  0  0  0  0  0  0  0  0  0  0  0
  146.0503  143.2871  155.1321 H   0  0  0  0  0  0  0  0  0  0  0  0
  144.7593  140.8696  154.1149 H   0  0  0  0  0  0  0  0  0  0  0  0
  153.8547  142.0643  160.3539 H   0  0  0  0  0  0  0  0  0  0  0  0
  1  2  1  0  0  0  0
  1 21  1  0  0  0  0
  1 22  1  0  0  0  0
  2  3  2  0  0  0  0
  2  4  1  0  0  0  0
  4  5  1  0  0  0  0
  4 23  1  0  0  0  0
  4 24  1  0  0  0  0
  5 20  1  0  0  0  0
  5  6  1  0  0  0  0
  5 40  1  0  0  0  0
  6  7  1  0  0  0  0
  6 25  1  0  0  0  0
  6 26  1  0  0  0  0
  7  8  1  0  0  0  0
  7 27  1  0  0  0  0
  7 28  1  0  0  0  0
  8  9  1  0  0  0  0
  8 19  1  0  0  0  0
  8 29  1  0  0  0  0
  9 10  1  0  0  0  0
  9 30  1  0  0  0  0
 10 11  2  0  0  0  0
 10 12  1  0  0  0  0
 12 13  1  0  0  0  0
 12 31  1  0  0  0  0
 13 18  1  0  0  0  0
 13 14  2  0  0  0  0
 14 15  1  0  0  0  0
 14 32  1  0  0  0  0
 15 16  2  0  0  0  0
 15 33  1  0  0  0  0
 16 17  1  0  0  0  0
 16 41  1  0  0  0  0
 17 18  2  0  0  0  0
 17 34  1  0  0  0  0
 18 35  1  0  0  0  0
 19 20  1  0  0  0  0
 19 36  1  0  0  0  0
 19 37  1  0  0  0  0
 20 38  1  0  0  0  0
 20 39  1  0  0  0  0
M  CHG  1   5   1
M  CHG  1  16   1
M  END
> <s_m_source_file>
AV-unprocessed.smi

> <i_m_source_file_index>
1410

> <i_lp_mmshare_version>
43012

> <i_f3d_flags>
0

> <s_epik_input>
W05IMl1DKD1PKVtDSDJdTjFbQ0gyXVtDSDJdW0NIXShbQ0gyXVtDSDJdMSlbTkhdQyg9TylbTkhdYzJbY0hdW2NIXW5bY0hdW2NIXTI=

> <s_epik_cmdline>
J2VwaWtfcHl0aG9uJywgJy1waCcsICc3LjAnLCAnLXRuJywgJzgnLCAnLW1hJywgJzIwMCcsICctbWV0YWxfYmluZGluZycsICctaW1hZScsICc8aW5maWxlLm1hZT4nLCAnLW9tYWUnLCAnPG91dGZpbGUubWFlPic=

> <r_epik_Ionization_Penalty>
1.97414

> <r_epik_Ionization_Penalty_Charging>
1.97408

> <r_epik_Ionization_Penalty_Neutral>
5.94508e-05

> <r_epik_State_Penalty>
2.00676

> <r_epik_Charging_Adjusted_Penalty>
3.98084

> <i_epik_Tot_Q>
2

> <i_epik_Tot_abs_Q>
2

> <r_epik_Metal_State_Penalty>
2.12108

> <b_epik_Metal_Only>
0

> <s_lp_Force_Field>
OPLS_2005

> <r_lp_Energy>
26.1476

> <b_lp_Chiralities_Consistent>
1

> <s_lp_Variant>
AV-unprocessed.smi:1410-6

> <Gold.Version>
5.8.1

> <Gold.Id.Protein>
6NUR|6NUR_protein|mol2

> <Gold.PLP.Fitness>
46.3071

> <Gold.PLP.PLP>
-31.6427

> <Gold.PLP.part.hbond>
-4.0000

> <Gold.PLP.part.metal>
0.0000

> <Gold.PLP.part.buried>
-6.2405

> <Gold.PLP.part.nonpolar>
-22.6539

> <Gold.PLP.part.repulsive>
0.3462

> <Gold.PLP.ligand.clash>
0.0000

> <Gold.PLP.ligand.torsion>
0.1685

> <Gold.PLP.Chemscore.Hbond>
4.9920

> <Gold.PLP.Chemscore.CHOScore>
0.0000

> <Gold.PLP.Chemscore.Metal>
0.0000

> <Gold.Chemscore.Hbonds>
donor molecule, donor type, donor heavy atom, donor atom, acceptor molecule, acceptor atom, score
      L1  H     1    22       P1 10175  1.00
      L1  H     5    40       P1 10175  2.00
      L1  H     9    30       P1  8028  1.00
      L1  H    12    31       P1  8028  1.00

> <Gold.PLP.Chemscore.Internal.Correction>
0.0255

> <Gold.Rescore>
     Score         DG    S(hbond)    S(metal)    S(lipo)     H(rot)  DE(clash)    DE(int)     intcor
     19.54     -22.36       3.80        0.00      79.40       1.99       1.31       1.51       ----

> <Gold.Chemscore.Fitness>
19.5390

> <Gold.Chemscore.DG>
-22.3628

> <Gold.Chemscore.ZeroCoef>
-5.4800

> <Gold.Chemscore.Hbond>
3.7981

> <Gold.Chemscore.Metal>
0.0000

> <Gold.Chemscore.Lipo>
79.3990

> <Gold.Chemscore.Internal_Hbond>
0.0000

> <Gold.Chemscore.DEClash>
1.3105

> <Gold.Chemscore.DEInternal>
1.5132

> <Gold.Chemscore.Rot>
1.9894

> <Gold.Chemscore.Internal.Correction>
   9.000000E+99

> <Gold.Chemscore.Hbonds>
donor molecule, donor type, donor heavy atom, donor atom, acceptor molecule, acceptor atom, score
      L1  H     1    22       P1 10175  0.94
      L1  H     5    40       P1 10175  0.91
      L1  H     9    30       P1  8028  0.96
      L1  H    12    31       P1  8028  0.95

> <Gold.Chemscore.Hbond.Weighted>
-12.6858

> <Gold.Chemscore.Metal.Weighted>
-0.0000

> <Gold.Chemscore.Lipo.Weighted>
-9.2897

> <Gold.Chemscore.Internal_Hbond.Weighted>
0.0000

> <Gold.Chemscore.DEClash.Weighted>
1.3105

> <Gold.Chemscore.DEInternal.Weighted>
1.5132

> <Gold.Chemscore.Rot.Weighted>
5.0927

> <Gold.Chemscore.Internal.Correction.Weighted>
   9.000000E+99

> <Gold.Protein.RotatedTorsions>
[ 6907 6896 6895 6894 ] final -164.14 input  -60.11 | X-H torsion
[ 7974 7965 7964 7962 ] final  -60.04 input  175.53 | X-H torsion
[ 8008 7997 7996 7995 ] final   23.12 input   59.86 | X-H torsion
[ 10167 10162 10161 10158 ] final   33.38 input  -65.29 | X-H torsion
[ 10718 10713 10712 10709 ] final   39.87 input   66.30 | X-H torsion
[ 10763 10752 10751 10750 ] final  -52.13 input  -60.55 | X-H torsion
[ 11005 11000 10999 10996 ] final -167.90 input  -57.11 | X-H torsion

> <Gold.Protein.ActiveResidues>
 VAL166  LYS551  ARG553  GLY616  TRP617  ASP618  TYR619  PRO620  LYS621  CYS622 
 ASP623  PHE694  ASN695  SER759  ASP760  ASP761  ALA762  ILE779  LEU786  VAL792 
 PHE793  MET794  SER795  GLU796  ALA797  LYS798  CYS799  TRP800  GLU811  SER814 

> <Gold.Protein.RotatedAtoms>
  151.4072  133.3739  159.2739 H   0  0  0  0  0  0  0  0  0  0  0  0  # atno 6907 bound_to 6896
  150.9390  134.8802  159.7610 H   0  0  0  0  0  0  0  0  0  0  0  0  # atno 6908 bound_to 6896
  152.5063  134.4021  159.9472 H   0  0  0  0  0  0  0  0  0  0  0  0  # atno 6909 bound_to 6896
  145.8202  140.8544  143.0136 H   0  0  0  0  0  0  0  0  0  0  0  0  # atno 7974 bound_to 7965
  154.9761  140.3096  155.4966 H   0  0  0  0  0  0  0  0  0  0  0  0  # atno 8008 bound_to 7997
  156.2959  140.2275  156.4796 H   0  0  0  0  0  0  0  0  0  0  0  0  # atno 8009 bound_to 7997
  154.7832  140.0444  157.1132 H   0  0  0  0  0  0  0  0  0  0  0  0  # atno 8010 bound_to 7997
  140.4412  144.1184  150.6174 H   0  0  0  0  0  0  0  0  0  0  0  0  # atno 10167 bound_to 10162
  157.3756  130.7725  149.7153 H   0  0  0  0  0  0  0  0  0  0  0  0  # atno 10718 bound_to 10713
  154.1377  135.6510  153.4935 H   0  0  0  0  0  0  0  0  0  0  0  0  # atno 10763 bound_to 10752
  153.0175  135.5308  154.6936 H   0  0  0  0  0  0  0  0  0  0  0  0  # atno 10764 bound_to 10752
  154.6189  135.2962  155.0319 H   0  0  0  0  0  0  0  0  0  0  0  0  # atno 10765 bound_to 10752
  140.5480  134.5456  157.5116 H   0  0  0  0  0  0  0  0  0  0  0  0  # atno 11005 bound_to 11000
  144.6748  140.0523  143.7478 LP  0  0  0  0  0  0  0  0  0  0  0  0  # atno 17320 bound_to 7965
  145.9683  139.2850  143.1114 LP  0  0  0  0  0  0  0  0  0  0  0  0  # atno 17321 bound_to 7965
  140.4316  143.2566  151.9589 LP  0  0  0  0  0  0  0  0  0  0  0  0  # atno 17342 bound_to 10162
  139.4790  144.5739  151.8044 LP  0  0  0  0  0  0  0  0  0  0  0  0  # atno 17343 bound_to 10162
  155.9764  130.4075  150.3778 LP  0  0  0  0  0  0  0  0  0  0  0  0  # atno 17370 bound_to 10713
  157.1875  131.0407  151.2717 LP  0  0  0  0  0  0  0  0  0  0  0  0  # atno 17371 bound_to 10713
  139.9469  134.7685  156.0540 LP  0  0  0  0  0  0  0  0  0  0  0  0  # atno 17394 bound_to 11000
  141.1188  133.6619  156.3162 LP  0  0  0  0  0  0  0  0  0  0  0  0  # atno 17395 bound_to 11000

$$$$
