AV-unprocessed.smi:2656|AV-procd|sdf|10306|dock3
  -GOLD-   2272014323D 1   1.00000     0.00000
 Structure written by MMmdl.
 44 45  0  0  0  0  0  0  0  0  2 V2000
  150.5917  132.0937  157.0390 C   0  0  0  0  0  0  0  0  0  0  0  0
  150.3380  131.3336  155.8118 N   0  0  0  0  0  0  0  0  0  0  0  0
  150.8904  129.9739  155.8397 C   0  0  0  0  0  0  0  0  0  0  0  0
  149.6822  131.7663  154.7005 C   0  0  0  0  0  0  0  0  0  0  0  0
  149.5127  130.9938  153.7538 O   0  0  0  0  0  0  0  0  0  0  0  0
  149.1420  133.2329  154.5603 C   0  0  0  0  0  0  0  0  0  0  0  0
  150.2166  134.3226  154.8718 C   0  0  0  0  0  0  0  0  0  0  0  0
  149.8800  135.6456  154.3437 N   0  0  0  0  0  0  0  0  0  0  0  0
  149.9796  136.8031  155.0125 C   0  0  0  0  0  0  0  0  0  0  0  0
  150.4074  136.8900  156.1632 O   0  0  0  0  0  0  0  0  0  0  0  0
  149.5312  137.8319  154.2727 N   0  0  0  0  0  0  0  0  0  0  0  0
  149.4359  139.2029  154.6356 C   0  0  0  0  0  0  0  0  0  0  0  0
  148.3530  139.9443  154.1129 C   0  0  0  0  0  0  0  0  0  0  0  0
  148.2242  141.3101  154.4376 C   0  0  0  0  0  0  0  0  0  0  0  0
  149.1401  141.9012  155.2344 N   0  3  0  0  0  0  0  0  0  0  0  0
  150.2008  141.2386  155.7439 C   0  0  0  0  0  0  0  0  0  0  0  0
  150.3821  139.8708  155.4545 C   0  0  0  0  0  0  0  0  0  0  0  0
  148.5857  133.4838  153.1294 C   0  0  0  0  0  0  0  0  0  0  0  0
  147.1634  132.9130  153.0783 C   0  0  0  0  0  0  0  0  0  0  0  0
  146.6955  132.8433  154.5336 C   0  0  0  0  0  0  0  0  0  0  0  0
  147.8403  133.4226  155.3745 C   0  0  0  0  0  0  0  0  0  0  0  0
  149.8118  132.8096  157.2814 H   0  0  0  0  0  0  0  0  0  0  0  0
  151.5383  132.6283  156.9573 H   0  0  0  0  0  0  0  0  0  0  0  0
  150.6616  131.4368  157.9067 H   0  0  0  0  0  0  0  0  0  0  0  0
  150.0861  129.2370  155.8423 H   0  0  0  0  0  0  0  0  0  0  0  0
  151.5114  129.7869  156.7165 H   0  0  0  0  0  0  0  0  0  0  0  0
  151.5191  129.7892  154.9669 H   0  0  0  0  0  0  0  0  0  0  0  0
  150.3834  134.3911  155.9482 H   0  0  0  0  0  0  0  0  0  0  0  0
  151.1942  134.0466  154.4856 H   0  0  0  0  0  0  0  0  0  0  0  0
  149.5186  135.6736  153.4015 H   0  0  0  0  0  0  0  0  0  0  0  0
  149.1376  137.5919  153.3746 H   0  0  0  0  0  0  0  0  0  0  0  0
  147.6204  139.4712  153.4747 H   0  0  0  0  0  0  0  0  0  0  0  0
  147.4223  141.9428  154.0858 H   0  0  0  0  0  0  0  0  0  0  0  0
  150.8719  141.8194  156.3600 H   0  0  0  0  0  0  0  0  0  0  0  0
  151.2471  139.3654  155.8562 H   0  0  0  0  0  0  0  0  0  0  0  0
  148.5181  134.5556  152.9384 H   0  0  0  0  0  0  0  0  0  0  0  0
  149.2164  133.0819  152.3351 H   0  0  0  0  0  0  0  0  0  0  0  0
  146.5090  133.5381  152.4697 H   0  0  0  0  0  0  0  0  0  0  0  0
  147.1637  131.9159  152.6368 H   0  0  0  0  0  0  0  0  0  0  0  0
  145.7655  133.3901  154.6922 H   0  0  0  0  0  0  0  0  0  0  0  0
  146.5147  131.8042  154.8115 H   0  0  0  0  0  0  0  0  0  0  0  0
  147.8520  132.9580  156.3585 H   0  0  0  0  0  0  0  0  0  0  0  0
  147.6617  134.4870  155.5345 H   0  0  0  0  0  0  0  0  0  0  0  0
  149.0288  142.8909  155.4572 H   0  0  0  0  0  0  0  0  0  0  0  0
  1  2  1  0  0  0  0
  1 22  1  0  0  0  0
  1 23  1  0  0  0  0
  1 24  1  0  0  0  0
  2  3  1  0  0  0  0
  2  4  1  0  0  0  0
  3 25  1  0  0  0  0
  3 26  1  0  0  0  0
  3 27  1  0  0  0  0
  4  5  2  0  0  0  0
  4  6  1  0  0  0  0
  6 21  1  0  0  0  0
  6  7  1  0  0  0  0
  6 18  1  0  0  0  0
  7  8  1  0  0  0  0
  7 28  1  0  0  0  0
  7 29  1  0  0  0  0
  8  9  1  0  0  0  0
  8 30  1  0  0  0  0
  9 10  2  0  0  0  0
  9 11  1  0  0  0  0
 11 12  1  0  0  0  0
 11 31  1  0  0  0  0
 12 17  1  0  0  0  0
 12 13  2  0  0  0  0
 13 14  1  0  0  0  0
 13 32  1  0  0  0  0
 14 15  2  0  0  0  0
 14 33  1  0  0  0  0
 15 16  1  0  0  0  0
 15 44  1  0  0  0  0
 16 17  2  0  0  0  0
 16 34  1  0  0  0  0
 17 35  1  0  0  0  0
 18 19  1  0  0  0  0
 18 36  1  0  0  0  0
 18 37  1  0  0  0  0
 19 20  1  0  0  0  0
 19 38  1  0  0  0  0
 19 39  1  0  0  0  0
 20 21  1  0  0  0  0
 20 40  1  0  0  0  0
 20 41  1  0  0  0  0
 21 42  1  0  0  0  0
 21 43  1  0  0  0  0
M  CHG  1  15   1
M  END
> <s_m_source_file>
AV-unprocessed.smi

> <i_m_source_file_index>
2656

> <i_lp_mmshare_version>
43012

> <i_f3d_flags>
0

> <s_epik_input>
W0NIMl0xW0NIMl1bQ0gyXVtDSDJdQzEoQyg9TylOKFtDSDNdKVtDSDNdKVtDSDJdW05IXUMoPU8pW05IXWMyW2NIXVtjSF1uW2NIXVtjSF0y

> <s_epik_cmdline>
J2VwaWtfcHl0aG9uJywgJy1waCcsICc3LjAnLCAnLXRuJywgJzgnLCAnLW1hJywgJzIwMCcsICctbWV0YWxfYmluZGluZycsICctaW1hZScsICc8aW5maWxlLm1hZT4nLCAnLW9tYWUnLCAnPG91dGZpbGUubWFlPic=

> <r_epik_Ionization_Penalty>
1.05774

> <r_epik_Ionization_Penalty_Charging>
1.05772

> <r_epik_Ionization_Penalty_Neutral>
1.88023e-05

> <r_epik_State_Penalty>
1.11116

> <r_epik_Charging_Adjusted_Penalty>
2.16887

> <i_epik_Tot_Q>
1

> <i_epik_Tot_abs_Q>
1

> <r_epik_Metal_State_Penalty>
1.20442

> <b_epik_Metal_Only>
0

> <s_lp_Force_Field>
OPLS_2005

> <r_lp_Energy>
45.9804

> <b_lp_Chiralities_Consistent>
1

> <s_lp_Variant>
AV-unprocessed.smi:2656-2

> <Gold.Version>
5.8.1

> <Gold.Id.Protein>
6NUR|6NUR_protein|mol2

> <Gold.PLP.Fitness>
42.0205

> <Gold.PLP.PLP>
-31.9422

> <Gold.PLP.part.hbond>
-3.6851

> <Gold.PLP.part.metal>
0.0000

> <Gold.PLP.part.buried>
-1.4290

> <Gold.PLP.part.nonpolar>
-27.4427

> <Gold.PLP.part.repulsive>
0.3833

> <Gold.PLP.ligand.clash>
0.0000

> <Gold.PLP.ligand.torsion>
0.8875

> <Gold.PLP.Chemscore.Hbond>
3.8940

> <Gold.PLP.Chemscore.CHOScore>
0.0000

> <Gold.PLP.Chemscore.Metal>
0.0000

> <Gold.Chemscore.Hbonds>
donor molecule, donor type, donor heavy atom, donor atom, acceptor molecule, acceptor atom, score
      L1  H     8    30       P1  7948  0.85
      L1  H    11    31       P1  7948  0.96
      L1  H    15    44       P1  8028  2.00

> <Gold.PLP.Chemscore.Internal.Correction>
0.1714

> <Gold.Rescore>
     Score         DG    S(hbond)    S(metal)    S(lipo)     H(rot)  DE(clash)    DE(int)     intcor
     15.80     -17.13       2.37        0.00      65.56       1.54       0.07       1.26       ----

> <Gold.Chemscore.Fitness>
15.7994

> <Gold.Chemscore.DG>
-17.1330

> <Gold.Chemscore.ZeroCoef>
-5.4800

> <Gold.Chemscore.Hbond>
2.3732

> <Gold.Chemscore.Metal>
0.0000

> <Gold.Chemscore.Lipo>
65.5602

> <Gold.Chemscore.Internal_Hbond>
0.0000

> <Gold.Chemscore.DEClash>
0.0725

> <Gold.Chemscore.DEInternal>
1.2611

> <Gold.Chemscore.Rot>
1.5406

> <Gold.Chemscore.Internal.Correction>
   9.000000E+99

> <Gold.Chemscore.Hbonds>
donor molecule, donor type, donor heavy atom, donor atom, acceptor molecule, acceptor atom, score
      L1  H     8    30       P1  7948  0.15
      L1  H    11    31       P1  7948  0.87
      L1  H    15    44       P1  8028  1.00

> <Gold.Chemscore.Hbond.Weighted>
-7.9264

> <Gold.Chemscore.Metal.Weighted>
-0.0000

> <Gold.Chemscore.Lipo.Weighted>
-7.6705

> <Gold.Chemscore.Internal_Hbond.Weighted>
0.0000

> <Gold.Chemscore.DEClash.Weighted>
0.0725

> <Gold.Chemscore.DEInternal.Weighted>
1.2611

> <Gold.Chemscore.Rot.Weighted>
3.9440

> <Gold.Chemscore.Internal.Correction.Weighted>
   9.000000E+99

> <Gold.Protein.RotatedTorsions>
[ 6907 6896 6895 6894 ] final    1.78 input  -60.11 | X-H torsion
[ 7974 7965 7964 7962 ] final  132.96 input  175.53 | X-H torsion
[ 8008 7997 7996 7995 ] final  112.62 input   59.86 | X-H torsion
[ 10167 10162 10161 10158 ] final -104.88 input  -65.29 | X-H torsion
[ 10718 10713 10712 10709 ] final -160.02 input   66.30 | X-H torsion
[ 10763 10752 10751 10750 ] final  -97.39 input  -60.55 | X-H torsion
[ 11005 11000 10999 10996 ] final -101.90 input  -57.11 | X-H torsion

> <Gold.Protein.ActiveResidues>
 VAL166  LYS551  ARG553  GLY616  TRP617  ASP618  TYR619  PRO620  LYS621  CYS622 
 ASP623  PHE694  ASN695  SER759  ASP760  ASP761  ALA762  ILE779  LEU786  VAL792 
 PHE793  MET794  SER795  GLU796  ALA797  LYS798  CYS799  TRP800  GLU811  SER814 

> <Gold.Protein.RotatedAtoms>
  151.5982  135.1049  160.0054 H   0  0  0  0  0  0  0  0  0  0  0  0  # atno 6907 bound_to 6896
  152.4271  133.7210  159.6544 H   0  0  0  0  0  0  0  0  0  0  0  0  # atno 6908 bound_to 6896
  150.8161  133.8263  159.3182 H   0  0  0  0  0  0  0  0  0  0  0  0  # atno 6909 bound_to 6896
  144.9914  139.4403  143.5337 H   0  0  0  0  0  0  0  0  0  0  0  0  # atno 7974 bound_to 7965
  156.2204  140.2996  155.9940 H   0  0  0  0  0  0  0  0  0  0  0  0  # atno 8008 bound_to 7997
  155.2495  140.0425  157.3002 H   0  0  0  0  0  0  0  0  0  0  0  0  # atno 8009 bound_to 7997
  154.5832  140.2381  155.8031 H   0  0  0  0  0  0  0  0  0  0  0  0  # atno 8010 bound_to 7997
  140.2046  143.3793  152.1101 H   0  0  0  0  0  0  0  0  0  0  0  0  # atno 10167 bound_to 10162
  156.5763  130.8710  151.2852 H   0  0  0  0  0  0  0  0  0  0  0  0  # atno 10718 bound_to 10713
  154.7323  135.5048  153.8985 H   0  0  0  0  0  0  0  0  0  0  0  0  # atno 10763 bound_to 10752
  153.0962  135.6673  153.9767 H   0  0  0  0  0  0  0  0  0  0  0  0  # atno 10764 bound_to 10752
  153.9565  135.3052  155.3415 H   0  0  0  0  0  0  0  0  0  0  0  0  # atno 10765 bound_to 10752
  141.1212  133.8515  157.1291 H   0  0  0  0  0  0  0  0  0  0  0  0  # atno 11005 bound_to 11000
  146.3432  139.9248  142.8761 LP  0  0  0  0  0  0  0  0  0  0  0  0  # atno 17320 bound_to 7965
  145.2280  140.9962  143.4007 LP  0  0  0  0  0  0  0  0  0  0  0  0  # atno 17321 bound_to 7965
  139.5204  144.7032  151.5432 LP  0  0  0  0  0  0  0  0  0  0  0  0  # atno 17342 bound_to 10162
  140.6366  143.8971  150.6653 LP  0  0  0  0  0  0  0  0  0  0  0  0  # atno 17343 bound_to 10162
  157.7337  130.9734  150.1989 LP  0  0  0  0  0  0  0  0  0  0  0  0  # atno 17370 bound_to 10713
  156.2670  130.3717  149.8071 LP  0  0  0  0  0  0  0  0  0  0  0  0  # atno 17371 bound_to 10713
  140.0170  134.9963  157.0514 LP  0  0  0  0  0  0  0  0  0  0  0  0  # atno 17394 bound_to 11000
  140.4503  134.1589  155.7181 LP  0  0  0  0  0  0  0  0  0  0  0  0  # atno 17395 bound_to 11000

$$$$
