AV-unprocessed.smi:102|AV-procd|sdf|974|dock10
  -GOLD-   2262017533D 1   1.00000     0.00000
 Structure written by MMmdl.
 43 44  0  0  0  0  0  0  0  0  2 V2000
  147.7482  141.9051  153.7689 C   0  0  0  0  0  0  0  0  0  0  0  0
  148.6789  140.7590  154.1462 C   0  0  0  0  0  0  0  0  0  0  0  0
  148.3214  139.5848  154.0503 O   0  0  0  0  0  0  0  0  0  0  0  0
  149.8744  141.1867  154.5764 O   0  0  0  0  0  0  0  0  0  0  0  0
  150.5988  140.4201  155.5260 C   0  0  0  0  0  0  0  0  0  0  0  0
  149.9363  140.5006  156.9102 C   0  0  1  0  0  0  0  0  0  0  0  0
  150.3768  139.4027  157.7078 O   0  0  0  0  0  0  0  0  0  0  0  0
  150.9360  139.8778  158.8912 C   0  0  1  0  0  0  0  0  0  0  0  0
  152.0880  138.9702  159.2699 N   0  0  0  0  0  0  0  0  0  0  0  0
  153.3650  139.4893  159.4092 C   0  0  0  0  0  0  0  0  0  0  0  0
  154.4247  138.6970  159.6678 C   0  0  0  0  0  0  0  0  0  0  0  0
  155.6490  139.2373  159.7953 F   0  0  0  0  0  0  0  0  0  0  0  0
  154.2345  137.2538  159.7856 C   0  0  0  0  0  0  0  0  0  0  0  0
  155.1979  136.5372  160.0523 O   0  0  0  0  0  0  0  0  0  0  0  0
  152.9790  136.7604  159.5837 N   0  5  0  0  0  0  0  0  0  0  0  0
  151.9062  137.5580  159.3044 C   0  0  0  0  0  0  0  0  0  0  0  0
  150.7831  137.1043  159.0864 O   0  0  0  0  0  0  0  0  0  0  0  0
  151.3460  141.3335  158.6593 C   0  0  2  0  0  0  0  0  0  0  0  0
  151.3719  142.0603  159.8816 O   0  0  0  0  0  0  0  0  0  0  0  0
  151.9945  143.2487  159.9431 C   0  0  0  0  0  0  0  0  0  0  0  0
  152.0106  143.8229  161.3532 C   0  0  0  0  0  0  0  0  0  0  0  0
  152.5027  143.8509  158.9971 O   0  0  0  0  0  0  0  0  0  0  0  0
  150.2619  141.7882  157.6904 C   0  0  2  0  0  0  0  0  0  0  0  0
  149.1062  142.2262  158.4007 O   0  0  0  0  0  0  0  0  0  0  0  0
  147.9352  142.3879  157.7611 C   0  0  0  0  0  0  0  0  0  0  0  0
  146.8774  143.0353  158.6445 C   0  0  0  0  0  0  0  0  0  0  0  0
  147.6919  142.0619  156.5991 O   0  0  0  0  0  0  0  0  0  0  0  0
  148.2959  142.8444  153.6882 H   0  0  0  0  0  0  0  0  0  0  0  0
  146.9718  142.0227  154.5246 H   0  0  0  0  0  0  0  0  0  0  0  0
  147.2704  141.7037  152.8101 H   0  0  0  0  0  0  0  0  0  0  0  0
  150.6317  139.3818  155.1934 H   0  0  0  0  0  0  0  0  0  0  0  0
  151.6287  140.7744  155.5873 H   0  0  0  0  0  0  0  0  0  0  0  0
  148.8594  140.4011  156.7700 H   0  0  0  0  0  0  0  0  0  0  0  0
  150.1812  139.8199  159.6754 H   0  0  0  0  0  0  0  0  0  0  0  0
  153.5384  140.5465  159.2933 H   0  0  0  0  0  0  0  0  0  0  0  0
  152.3111  141.3734  158.1587 H   0  0  0  0  0  0  0  0  0  0  0  0
  152.3008  143.0570  162.0728 H   0  0  0  0  0  0  0  0  0  0  0  0
  151.0206  144.1926  161.6199 H   0  0  0  0  0  0  0  0  0  0  0  0
  152.7193  144.6484  161.4229 H   0  0  0  0  0  0  0  0  0  0  0  0
  150.6355  142.5847  157.0448 H   0  0  0  0  0  0  0  0  0  0  0  0
  147.2710  143.9418  159.1052 H   0  0  0  0  0  0  0  0  0  0  0  0
  146.5737  142.3481  159.4344 H   0  0  0  0  0  0  0  0  0  0  0  0
  145.9972  143.3001  158.0584 H   0  0  0  0  0  0  0  0  0  0  0  0
  1  2  1  0  0  0  0
  1 28  1  0  0  0  0
  1 29  1  0  0  0  0
  1 30  1  0  0  0  0
  2  3  2  0  0  0  0
  2  4  1  0  0  0  0
  4  5  1  0  0  0  0
  5  6  1  0  0  0  0
  5 31  1  0  0  0  0
  5 32  1  0  0  0  0
  6 23  1  0  0  0  0
  6  7  1  0  0  0  0
  6 33  1  0  0  0  0
  7  8  1  0  0  0  0
  8  9  1  0  0  0  0
  8 18  1  0  0  0  0
  8 34  1  0  0  0  0
  9 16  1  0  0  0  0
  9 10  1  0  0  0  0
 10 11  2  0  0  0  0
 10 35  1  0  0  0  0
 11 12  1  0  0  0  0
 11 13  1  0  0  0  0
 13 14  2  0  0  0  0
 13 15  1  0  0  0  0
 15 16  1  0  0  0  0
 16 17  2  0  0  0  0
 18 19  1  0  0  0  0
 18 23  1  0  0  0  0
 18 36  1  0  0  0  0
 19 20  1  0  0  0  0
 20 21  1  0  0  0  0
 20 22  2  0  0  0  0
 21 37  1  0  0  0  0
 21 38  1  0  0  0  0
 21 39  1  0  0  0  0
 23 24  1  0  0  0  0
 23 40  1  0  0  0  0
 24 25  1  0  0  0  0
 25 26  1  0  0  0  0
 25 27  2  0  0  0  0
 26 41  1  0  0  0  0
 26 42  1  0  0  0  0
 26 43  1  0  0  0  0
M  CHG  1  15  -1
M  END
> <s_m_source_file>
AV-unprocessed.smi

> <i_m_source_file_index>
102

> <i_lp_mmshare_version>
43012

> <i_f3d_flags>
0

> <s_epik_input>
W0NIM11DKD1PKU9bQ0gyXVtDQEBIXTFPW0NASF0oW0NAQEhdKE9DKD1PKVtDSDNdKVtDQEhdMU9DKD1PKVtDSDNdKW4yW2NIXWMoRiljKD1PKVtuSF1jMj1P

> <s_epik_cmdline>
J2VwaWtfcHl0aG9uJywgJy1waCcsICc3LjAnLCAnLXRuJywgJzgnLCAnLW1hJywgJzIwMCcsICctbWV0YWxfYmluZGluZycsICctaW1hZScsICc8aW5maWxlLm1hZT4nLCAnLW9tYWUnLCAnPG91dGZpbGUubWFlPic=

> <r_epik_Ionization_Penalty>
1.40304

> <r_epik_Ionization_Penalty_Charging>
1.43915e-08

> <r_epik_Ionization_Penalty_Neutral>
1.40304

> <r_epik_State_Penalty>
1.48536

> <r_epik_Charging_Adjusted_Penalty>
1.48536

> <i_epik_Tot_Q>
-1

> <i_epik_Tot_abs_Q>
1

> <r_epik_Metal_State_Penalty>
0.00663881

> <b_epik_Metal_Only>
0

> <s_epik_Chemistry_Notes>
This compound has an ester and may undergo hydrolysis at high or low pH. This compound contains an acetal/aminal-like group ( X-CH(R)-Y where X, Y are N, S, or O) that may be acid/base labile, releasing an aldehyde.

> <s_lp_Force_Field>
OPLS_2005

> <r_lp_Energy>
27.5776

> <b_lp_Chiralities_Consistent>
1

> <s_lp_Variant>
AV-unprocessed.smi:102-30

> <Gold.Version>
5.8.1

> <Gold.Id.Protein>
6NUR|6NUR_protein|mol2

> <Gold.PLP.Fitness>
41.9463

> <Gold.PLP.PLP>
-37.7503

> <Gold.PLP.part.hbond>
-3.8682

> <Gold.PLP.part.metal>
0.0000

> <Gold.PLP.part.buried>
-6.6614

> <Gold.PLP.part.nonpolar>
-27.4706

> <Gold.PLP.part.repulsive>
0.5457

> <Gold.PLP.ligand.clash>
0.0000

> <Gold.PLP.ligand.torsion>
1.0081

> <Gold.PLP.Chemscore.Hbond>
2.0000

> <Gold.PLP.Chemscore.CHOScore>
0.0000

> <Gold.PLP.Chemscore.Metal>
0.0000

> <Gold.Chemscore.Hbonds>
donor molecule, donor type, donor heavy atom, donor atom, acceptor molecule, acceptor atom, score
      P1  H  6896  6907       L1    15  2.00

> <Gold.PLP.Chemscore.Internal.Correction>
0.2122

> <Gold.Rescore>
     Score         DG    S(hbond)    S(metal)    S(lipo)     H(rot)  DE(clash)    DE(int)     intcor
     -0.38      -3.27       0.57        0.00      52.35       4.00       0.09       3.56       ----

> <Gold.Chemscore.Fitness>
-0.3822

> <Gold.Chemscore.DG>
-3.2691

> <Gold.Chemscore.ZeroCoef>
-5.4800

> <Gold.Chemscore.Hbond>
0.5665

> <Gold.Chemscore.Metal>
0.0000

> <Gold.Chemscore.Lipo>
52.3459

> <Gold.Chemscore.Internal_Hbond>
0.0000

> <Gold.Chemscore.DEClash>
0.0950

> <Gold.Chemscore.DEInternal>
3.5563

> <Gold.Chemscore.Rot>
3.9951

> <Gold.Chemscore.Internal.Correction>
   9.000000E+99

> <Gold.Chemscore.Hbonds>
donor molecule, donor type, donor heavy atom, donor atom, acceptor molecule, acceptor atom, score
      P1  H  6896  6907       L1    15  0.42

> <Gold.Chemscore.Hbond.Weighted>
-1.8921

> <Gold.Chemscore.Metal.Weighted>
-0.0000

> <Gold.Chemscore.Lipo.Weighted>
-6.1245

> <Gold.Chemscore.Internal_Hbond.Weighted>
0.0000

> <Gold.Chemscore.DEClash.Weighted>
0.0950

> <Gold.Chemscore.DEInternal.Weighted>
3.5563

> <Gold.Chemscore.Rot.Weighted>
10.2274

> <Gold.Chemscore.Internal.Correction.Weighted>
   9.000000E+99

> <Gold.Protein.RotatedTorsions>
[ 6907 6896 6895 6894 ] final   35.37 input  -60.11 | X-H torsion
[ 7974 7965 7964 7962 ] final  -53.20 input  175.53 | X-H torsion
[ 8008 7997 7996 7995 ] final  -27.60 input   59.86 | X-H torsion
[ 10167 10162 10161 10158 ] final   71.75 input  -65.29 | X-H torsion
[ 10718 10713 10712 10709 ] final    5.01 input   66.30 | X-H torsion
[ 10763 10752 10751 10750 ] final   40.38 input  -60.55 | X-H torsion
[ 11005 11000 10999 10996 ] final   14.14 input  -57.11 | X-H torsion

> <Gold.Protein.ActiveResidues>
 VAL166  LYS551  ARG553  GLY616  TRP617  ASP618  TYR619  PRO620  LYS621  CYS622 
 ASP623  PHE694  ASN695  SER759  ASP760  ASP761  ALA762  ILE779  LEU786  VAL792 
 PHE793  MET794  SER795  GLU796  ALA797  LYS798  CYS799  TRP800  GLU811  SER814 

> <Gold.Protein.RotatedAtoms>
  152.1151  134.9246  160.0564 H   0  0  0  0  0  0  0  0  0  0  0  0  # atno 6907 bound_to 6896
  152.0408  133.3972  159.4344 H   0  0  0  0  0  0  0  0  0  0  0  0  # atno 6908 bound_to 6896
  150.6845  134.3337  159.4882 H   0  0  0  0  0  0  0  0  0  0  0  0  # atno 6909 bound_to 6896
  145.8995  140.8006  142.9750 H   0  0  0  0  0  0  0  0  0  0  0  0  # atno 7974 bound_to 7965
  154.4370  140.1868  156.0957 H   0  0  0  0  0  0  0  0  0  0  0  0  # atno 8008 bound_to 7997
  156.0331  140.3328  155.7135 H   0  0  0  0  0  0  0  0  0  0  0  0  # atno 8009 bound_to 7997
  155.5810  140.0621  157.2774 H   0  0  0  0  0  0  0  0  0  0  0  0  # atno 8010 bound_to 7997
  140.0427  144.5376  150.7422 H   0  0  0  0  0  0  0  0  0  0  0  0  # atno 10167 bound_to 10162
  156.9010  130.5722  149.5648 H   0  0  0  0  0  0  0  0  0  0  0  0  # atno 10718 bound_to 10713
  152.9938  135.6193  154.2617 H   0  0  0  0  0  0  0  0  0  0  0  0  # atno 10763 bound_to 10752
  154.2353  135.2790  155.2876 H   0  0  0  0  0  0  0  0  0  0  0  0  # atno 10764 bound_to 10752
  154.5415  135.5759  153.6901 H   0  0  0  0  0  0  0  0  0  0  0  0  # atno 10765 bound_to 10752
  140.4728  134.1013  155.7736 H   0  0  0  0  0  0  0  0  0  0  0  0  # atno 11005 bound_to 11000
  144.6735  140.1654  143.7419 LP  0  0  0  0  0  0  0  0  0  0  0  0  # atno 17320 bound_to 7965
  145.8809  139.2322  143.1606 LP  0  0  0  0  0  0  0  0  0  0  0  0  # atno 17321 bound_to 7965
  140.7253  143.2629  151.4142 LP  0  0  0  0  0  0  0  0  0  0  0  0  # atno 17342 bound_to 10162
  139.6003  144.1309  152.2191 LP  0  0  0  0  0  0  0  0  0  0  0  0  # atno 17343 bound_to 10162
  156.0582  130.5639  150.9136 LP  0  0  0  0  0  0  0  0  0  0  0  0  # atno 17370 bound_to 10713
  157.6026  131.0940  150.8934 LP  0  0  0  0  0  0  0  0  0  0  0  0  # atno 17371 bound_to 10713
  141.1569  133.8866  157.1954 LP  0  0  0  0  0  0  0  0  0  0  0  0  # atno 17394 bound_to 11000
  139.9874  135.0077  156.9895 LP  0  0  0  0  0  0  0  0  0  0  0  0  # atno 17395 bound_to 11000

$$$$
