AV-unprocessed.smi:992|AV-procd|sdf|4332|dock2
  -GOLD-   22720 2233D 1   1.00000     0.00000
 Structure written by MMmdl.
 33 34  0  0  0  0  0  0  0  0  2 V2000
  148.4194  126.4849  150.6610 C   0  0  0  0  0  0  0  0  0  0  0  0
  147.6751  127.4217  151.6181 C   0  0  2  0  0  0  0  0  0  0  0  0
  147.0835  128.6399  150.8870 C   0  0  0  0  0  0  0  0  0  0  0  0
  146.4781  129.5510  151.8476 N   0  0  0  0  0  0  0  0  0  0  0  0
  145.7906  130.6129  151.2456 C   0  0  0  0  0  0  0  0  0  0  0  0
  144.4125  130.8638  151.4453 C   0  0  0  0  0  0  0  0  0  0  0  0
  143.8090  131.9618  150.7977 C   0  0  0  0  0  0  0  0  0  0  0  0
  144.5918  132.7873  149.9633 C   0  0  0  0  0  0  0  0  0  0  0  0
  144.0224  133.8803  149.3129 N   0  0  0  0  0  0  0  0  0  0  0  0
  145.9602  132.4907  149.7974 C   0  0  0  0  0  0  0  0  0  0  0  0
  146.5004  131.4296  150.4356 N   0  3  0  0  0  0  0  0  0  0  0  0
  147.4199  129.9845  152.8714 C   0  0  0  0  0  0  0  0  0  0  0  0
  148.0569  128.7709  153.5776 C   0  0  1  0  0  0  0  0  0  0  0  0
  147.1093  128.0620  154.5619 C   0  0  0  0  0  0  0  0  0  0  0  0
  148.6003  127.8692  152.6093 O   0  0  0  0  0  0  0  0  0  0  0  0
  147.7536  126.1078  149.8842 H   0  0  0  0  0  0  0  0  0  0  0  0
  148.8266  125.6260  151.1951 H   0  0  0  0  0  0  0  0  0  0  0  0
  149.2489  126.9967  150.1720 H   0  0  0  0  0  0  0  0  0  0  0  0
  146.8741  126.8536  152.0918 H   0  0  0  0  0  0  0  0  0  0  0  0
  147.8668  129.1574  150.3315 H   0  0  0  0  0  0  0  0  0  0  0  0
  146.3343  128.3158  150.1632 H   0  0  0  0  0  0  0  0  0  0  0  0
  143.8212  130.2266  152.0862 H   0  0  0  0  0  0  0  0  0  0  0  0
  142.7578  132.1652  150.9426 H   0  0  0  0  0  0  0  0  0  0  0  0
  143.0441  134.1087  149.4202 H   0  0  0  0  0  0  0  0  0  0  0  0
  144.5562  134.4545  148.6758 H   0  0  0  0  0  0  0  0  0  0  0  0
  146.6366  133.0640  149.1798 H   0  0  0  0  0  0  0  0  0  0  0  0
  148.2039  130.5838  152.4062 H   0  0  0  0  0  0  0  0  0  0  0  0
  146.9176  130.6258  153.5972 H   0  0  0  0  0  0  0  0  0  0  0  0
  148.9022  129.1344  154.1626 H   0  0  0  0  0  0  0  0  0  0  0  0
  146.8067  128.7385  155.3614 H   0  0  0  0  0  0  0  0  0  0  0  0
  147.6008  127.2059  155.0246 H   0  0  0  0  0  0  0  0  0  0  0  0
  146.2001  127.7049  154.0793 H   0  0  0  0  0  0  0  0  0  0  0  0
  147.4931  131.2368  150.3004 H   0  0  0  0  0  0  0  0  0  0  0  0
  1  2  1  0  0  0  0
  1 16  1  0  0  0  0
  1 17  1  0  0  0  0
  1 18  1  0  0  0  0
  2 15  1  0  0  0  0
  2  3  1  0  0  0  0
  2 19  1  0  0  0  0
  3  4  1  0  0  0  0
  3 20  1  0  0  0  0
  3 21  1  0  0  0  0
  4  5  1  0  0  0  0
  4 12  1  0  0  0  0
  5 11  1  0  0  0  0
  5  6  2  0  0  0  0
  6  7  1  0  0  0  0
  6 22  1  0  0  0  0
  7  8  2  0  0  0  0
  7 23  1  0  0  0  0
  8  9  1  0  0  0  0
  8 10  1  0  0  0  0
  9 24  1  0  0  0  0
  9 25  1  0  0  0  0
 10 11  2  0  0  0  0
 10 26  1  0  0  0  0
 11 33  1  0  0  0  0
 12 13  1  0  0  0  0
 12 27  1  0  0  0  0
 12 28  1  0  0  0  0
 13 14  1  0  0  0  0
 13 15  1  0  0  0  0
 13 29  1  0  0  0  0
 14 30  1  0  0  0  0
 14 31  1  0  0  0  0
 14 32  1  0  0  0  0
M  CHG  1  11   1
M  END
> <s_m_source_file>
AV-unprocessed.smi

> <i_m_source_file_index>
992

> <i_lp_mmshare_version>
43012

> <i_f3d_flags>
0

> <s_epik_input>
W0NIM11bQ0BASF0xW0NIMl1OKFtDSDJdW0NASF0oTzEpW0NIM10pYzJbY0hdW2NIXWMoW05IMl0pW2NIXW4y

> <s_epik_cmdline>
J2VwaWtfcHl0aG9uJywgJy1waCcsICc3LjAnLCAnLXRuJywgJzgnLCAnLW1hJywgJzIwMCcsICctbWV0YWxfYmluZGluZycsICctaW1hZScsICc8aW5maWxlLm1hZT4nLCAnLW9tYWUnLCAnPG91dGZpbGUubWFlPic=

> <r_lp_tautomer_probability>
0.999846

> <r_epik_Ionization_Penalty>
2.28753

> <r_epik_Ionization_Penalty_Charging>
2.28753

> <r_epik_Ionization_Penalty_Neutral>
1.09395e-07

> <r_epik_State_Penalty>
2.43729

> <r_epik_Charging_Adjusted_Penalty>
4.72482

> <i_epik_Tot_Q>
1

> <i_epik_Tot_abs_Q>
1

> <r_epik_Metal_State_Penalty>
6.52028

> <b_epik_Metal_Only>
0

> <s_lp_Force_Field>
OPLS_2005

> <r_lp_Energy>
28.0969

> <b_lp_Chiralities_Consistent>
1

> <s_lp_Variant>
AV-unprocessed.smi:992-4

> <Gold.Version>
5.8.1

> <Gold.Id.Protein>
6NUR|6NUR_protein|mol2

> <Gold.PLP.Fitness>
37.2314

> <Gold.PLP.PLP>
-28.5051

> <Gold.PLP.part.hbond>
-2.8790

> <Gold.PLP.part.metal>
0.0000

> <Gold.PLP.part.buried>
-3.2055

> <Gold.PLP.part.nonpolar>
-23.6315

> <Gold.PLP.part.repulsive>
0.4859

> <Gold.PLP.ligand.clash>
0.0000

> <Gold.PLP.ligand.torsion>
0.0954

> <Gold.PLP.Chemscore.Hbond>
2.9425

> <Gold.PLP.Chemscore.CHOScore>
0.0000

> <Gold.PLP.Chemscore.Metal>
0.0000

> <Gold.Chemscore.Hbonds>
donor molecule, donor type, donor heavy atom, donor atom, acceptor molecule, acceptor atom, score
      L1  H     9    24       P1 10186  0.93
      L1  H     9    25       P1  7921  1.00
      L1  H    11    33       P1 10747  0.98

> <Gold.PLP.Chemscore.Internal.Correction>
0.0897

> <Gold.Rescore>
     Score         DG    S(hbond)    S(metal)    S(lipo)     H(rot)  DE(clash)    DE(int)     intcor
     21.75     -22.20       2.87        0.00      83.00       1.00       0.21       0.24       ----

> <Gold.Chemscore.Fitness>
21.7478

> <Gold.Chemscore.DG>
-22.2022

> <Gold.Chemscore.ZeroCoef>
-5.4800

> <Gold.Chemscore.Hbond>
2.8656

> <Gold.Chemscore.Metal>
0.0000

> <Gold.Chemscore.Lipo>
83.0015

> <Gold.Chemscore.Internal_Hbond>
0.0000

> <Gold.Chemscore.DEClash>
0.2119

> <Gold.Chemscore.DEInternal>
0.2425

> <Gold.Chemscore.Rot>
1.0000

> <Gold.Chemscore.Internal.Correction>
   9.000000E+99

> <Gold.Chemscore.Hbonds>
donor molecule, donor type, donor heavy atom, donor atom, acceptor molecule, acceptor atom, score
      L1  H     9    24       P1 10186  0.89
      L1  H     9    25       P1  7921  0.96
      L1  H    11    33       P1 10747  0.92

> <Gold.Chemscore.Hbond.Weighted>
-9.5710

> <Gold.Chemscore.Metal.Weighted>
-0.0000

> <Gold.Chemscore.Lipo.Weighted>
-9.7112

> <Gold.Chemscore.Internal_Hbond.Weighted>
0.0000

> <Gold.Chemscore.DEClash.Weighted>
0.2119

> <Gold.Chemscore.DEInternal.Weighted>
0.2425

> <Gold.Chemscore.Rot.Weighted>
2.5600

> <Gold.Chemscore.Internal.Correction.Weighted>
   9.000000E+99

> <Gold.Protein.RotatedTorsions>
[ 6907 6896 6895 6894 ] final  -50.62 input  -60.11 | X-H torsion
[ 7974 7965 7964 7962 ] final  -86.90 input  175.53 | X-H torsion
[ 8008 7997 7996 7995 ] final -111.24 input   59.86 | X-H torsion
[ 10167 10162 10161 10158 ] final  103.21 input  -65.29 | X-H torsion
[ 10718 10713 10712 10709 ] final   22.37 input   66.30 | X-H torsion
[ 10763 10752 10751 10750 ] final -134.45 input  -60.55 | X-H torsion
[ 11005 11000 10999 10996 ] final  155.72 input  -57.11 | X-H torsion

> <Gold.Protein.ActiveResidues>
 VAL166  LYS551  ARG553  GLY616  TRP617  ASP618  TYR619  PRO620  LYS621  CYS622 
 ASP623  PHE694  ASN695  SER759  ASP760  ASP761  ALA762  ILE779  LEU786  VAL792 
 PHE793  MET794  SER795  GLU796  ALA797  LYS798  CYS799  TRP800  GLU811  SER814 

> <Gold.Protein.RotatedAtoms>
  150.8689  134.8059  159.7139 H   0  0  0  0  0  0  0  0  0  0  0  0  # atno 6907 bound_to 6896
  152.4701  134.4978  159.9725 H   0  0  0  0  0  0  0  0  0  0  0  0  # atno 6908 bound_to 6896
  151.5070  133.3454  159.2914 H   0  0  0  0  0  0  0  0  0  0  0  0  # atno 6909 bound_to 6896
  145.4737  140.9559  143.1903 H   0  0  0  0  0  0  0  0  0  0  0  0  # atno 7974 bound_to 7965
  154.9867  140.0395  157.2302 H   0  0  0  0  0  0  0  0  0  0  0  0  # atno 8008 bound_to 7997
  154.7665  140.2794  155.6149 H   0  0  0  0  0  0  0  0  0  0  0  0  # atno 8009 bound_to 7997
  156.2913  140.2618  156.2456 H   0  0  0  0  0  0  0  0  0  0  0  0  # atno 8010 bound_to 7997
  139.7283  144.7042  151.0762 H   0  0  0  0  0  0  0  0  0  0  0  0  # atno 10167 bound_to 10162
  157.1514  130.6676  149.6013 H   0  0  0  0  0  0  0  0  0  0  0  0  # atno 10718 bound_to 10713
  154.8719  135.3734  154.4737 H   0  0  0  0  0  0  0  0  0  0  0  0  # atno 10763 bound_to 10752
  153.5396  135.7026  153.5648 H   0  0  0  0  0  0  0  0  0  0  0  0  # atno 10764 bound_to 10752
  153.3816  135.3995  155.1825 H   0  0  0  0  0  0  0  0  0  0  0  0  # atno 10765 bound_to 10752
  140.1608  134.8611  157.2572 H   0  0  0  0  0  0  0  0  0  0  0  0  # atno 11005 bound_to 11000
  144.7930  139.6290  143.7105 LP  0  0  0  0  0  0  0  0  0  0  0  0  # atno 17320 bound_to 7965
  146.2382  139.5947  142.9509 LP  0  0  0  0  0  0  0  0  0  0  0  0  # atno 17321 bound_to 7965
  140.7766  143.5076  150.9692 LP  0  0  0  0  0  0  0  0  0  0  0  0  # atno 17342 bound_to 10162
  139.8764  143.7127  152.3161 LP  0  0  0  0  0  0  0  0  0  0  0  0  # atno 17343 bound_to 10162
  155.9770  130.4743  150.6564 LP  0  0  0  0  0  0  0  0  0  0  0  0  # atno 17370 bound_to 10713
  157.4217  131.0837  151.1124 LP  0  0  0  0  0  0  0  0  0  0  0  0  # atno 17371 bound_to 10713
  140.2492  134.3703  155.7449 LP  0  0  0  0  0  0  0  0  0  0  0  0  # atno 17394 bound_to 11000
  141.2209  133.7307  156.8909 LP  0  0  0  0  0  0  0  0  0  0  0  0  # atno 17395 bound_to 11000

$$$$
