AV-unprocessed.smi:2321|AV-procd|sdf|9281|dock6
  -GOLD-   2272012503D 1   1.00000     0.00000
 Structure written by MMmdl.
 36 37  0  0  0  0  0  0  0  0  1 V2000
  149.8828  140.4737  156.7628 O   0  0  0  0  0  0  0  0  0  0  0  0
  149.6483  141.6685  156.5961 C   0  0  0  0  0  0  0  0  0  0  0  0
  150.3490  142.6752  157.1539 N   0  0  0  0  0  0  0  0  0  0  0  0
  151.4800  142.6116  158.0113 C   0  0  0  0  0  0  0  0  0  0  0  0
  152.1543  141.4141  158.3516 C   0  0  0  0  0  0  0  0  0  0  0  0
  153.2545  141.4865  159.2295 C   0  0  0  0  0  0  0  0  0  0  0  0
  153.6996  142.6398  159.7719 N   0  0  0  0  0  0  0  0  0  0  0  0
  153.0457  143.7774  159.4552 C   0  0  0  0  0  0  0  0  0  0  0  0
  151.9344  143.8157  158.5897 C   0  0  0  0  0  0  0  0  0  0  0  0
  151.3199  144.9923  158.3173 F   0  0  0  0  0  0  0  0  0  0  0  0
  148.6487  142.0730  155.7908 N   0  0  0  0  0  0  0  0  0  0  0  0
  147.6972  141.2551  155.0304 C   0  0  2  0  0  0  0  0  0  0  0  0
  147.1304  142.0632  153.8473 C   0  0  0  0  0  0  0  0  0  0  0  0
  146.1694  143.1723  154.3075 C   0  0  0  0  0  0  0  0  0  0  0  0
  145.0403  142.6070  155.1827 C   0  0  0  0  0  0  0  0  0  0  0  0
  145.5943  141.8352  156.3987 C   0  0  1  0  0  0  0  0  0  0  0  0
  144.4675  141.2805  157.2944 C   0  0  0  0  0  0  0  0  0  0  0  0
  144.9705  140.6823  158.3746 F   0  0  0  0  0  0  0  0  0  0  0  0
  143.6663  142.2719  157.6845 F   0  0  0  0  0  0  0  0  0  0  0  0
  143.7358  140.3980  156.6144 F   0  0  0  0  0  0  0  0  0  0  0  0
  146.5562  140.7215  155.9264 C   0  0  0  0  0  0  0  0  0  0  0  0
  150.0844  143.6055  156.8643 H   0  0  0  0  0  0  0  0  0  0  0  0
  151.8473  140.4516  157.9728 H   0  0  0  0  0  0  0  0  0  0  0  0
  153.7889  140.5905  159.5084 H   0  0  0  0  0  0  0  0  0  0  0  0
  153.4181  144.6849  159.9069 H   0  0  0  0  0  0  0  0  0  0  0  0
  148.5467  143.0715  155.6786 H   0  0  0  0  0  0  0  0  0  0  0  0
  148.2367  140.4057  154.6079 H   0  0  0  0  0  0  0  0  0  0  0  0
  147.9416  142.4915  153.2570 H   0  0  0  0  0  0  0  0  0  0  0  0
  146.5951  141.3874  153.1790 H   0  0  0  0  0  0  0  0  0  0  0  0
  146.7189  143.9317  154.8650 H   0  0  0  0  0  0  0  0  0  0  0  0
  145.7460  143.6770  153.4388 H   0  0  0  0  0  0  0  0  0  0  0  0
  144.4004  143.4242  155.5165 H   0  0  0  0  0  0  0  0  0  0  0  0
  144.4105  141.9493  154.5823 H   0  0  0  0  0  0  0  0  0  0  0  0
  146.1680  142.5394  157.0035 H   0  0  0  0  0  0  0  0  0  0  0  0
  145.9910  139.9767  155.3650 H   0  0  0  0  0  0  0  0  0  0  0  0
  146.9673  140.1926  156.7864 H   0  0  0  0  0  0  0  0  0  0  0  0
  1  2  2  0  0  0  0
  2  3  1  0  0  0  0
  2 11  1  0  0  0  0
  3  4  1  0  0  0  0
  3 22  1  0  0  0  0
  4  9  1  0  0  0  0
  4  5  2  0  0  0  0
  5  6  1  0  0  0  0
  5 23  1  0  0  0  0
  6  7  2  0  0  0  0
  6 24  1  0  0  0  0
  7  8  1  0  0  0  0
  8  9  2  0  0  0  0
  8 25  1  0  0  0  0
  9 10  1  0  0  0  0
 11 12  1  0  0  0  0
 11 26  1  0  0  0  0
 12 21  1  0  0  0  0
 12 13  1  0  0  0  0
 12 27  1  0  0  0  0
 13 14  1  0  0  0  0
 13 28  1  0  0  0  0
 13 29  1  0  0  0  0
 14 15  1  0  0  0  0
 14 30  1  0  0  0  0
 14 31  1  0  0  0  0
 15 16  1  0  0  0  0
 15 32  1  0  0  0  0
 15 33  1  0  0  0  0
 16 17  1  0  0  0  0
 16 21  1  0  0  0  0
 16 34  1  0  0  0  0
 17 18  1  0  0  0  0
 17 19  1  0  0  0  0
 17 20  1  0  0  0  0
 21 35  1  0  0  0  0
 21 36  1  0  0  0  0
M  END
> <s_m_source_file>
AV-unprocessed.smi

> <i_m_source_file_index>
2321

> <i_lp_mmshare_version>
43012

> <i_f3d_flags>
0

> <s_epik_input>
RkMoRikoRilbQ0BASF0oW0NIMl0xKVtDSDJdW0NIMl1bQ0gyXVtDQEhdMVtOSF1DKD1PKVtOSF1jMltjSF1bY0hdbltjSF1jMkY=

> <s_epik_cmdline>
J2VwaWtfcHl0aG9uJywgJy1waCcsICc3LjAnLCAnLXRuJywgJzgnLCAnLW1hJywgJzIwMCcsICctbWV0YWxfYmluZGluZycsICctaW1hZScsICc8aW5maWxlLm1hZT4nLCAnLW9tYWUnLCAnPG91dGZpbGUubWFlPic=

> <r_epik_Ionization_Penalty>
0.00319438

> <r_epik_Ionization_Penalty_Charging>
0

> <r_epik_Ionization_Penalty_Neutral>
0.00319438

> <r_epik_State_Penalty>
0.00222511

> <r_epik_Charging_Adjusted_Penalty>
0.00222511

> <i_epik_Tot_Q>
0

> <i_epik_Tot_abs_Q>
0

> <r_epik_Metal_State_Penalty>
-0

> <b_epik_Metal_Only>
0

> <s_lp_Force_Field>
OPLS_2005

> <r_lp_Energy>
25.9848

> <b_lp_Chiralities_Consistent>
1

> <s_lp_Variant>
AV-unprocessed.smi:2321-1

> <Gold.Version>
5.8.1

> <Gold.Id.Protein>
6NUR|6NUR_protein|mol2

> <Gold.PLP.Fitness>
40.5709

> <Gold.PLP.PLP>
-35.3532

> <Gold.PLP.part.hbond>
-2.0000

> <Gold.PLP.part.metal>
0.0000

> <Gold.PLP.part.buried>
-6.8777

> <Gold.PLP.part.nonpolar>
-26.5032

> <Gold.PLP.part.repulsive>
0.1302

> <Gold.PLP.ligand.clash>
0.0000

> <Gold.PLP.ligand.torsion>
0.3181

> <Gold.PLP.Chemscore.Hbond>
1.9440

> <Gold.PLP.Chemscore.CHOScore>
0.0000

> <Gold.PLP.Chemscore.Metal>
0.0000

> <Gold.Chemscore.Hbonds>
donor molecule, donor type, donor heavy atom, donor atom, acceptor molecule, acceptor atom, score
      L1  H     3    22       P1  8028  0.94
      L1  H    11    26       P1  8028  1.00

> <Gold.PLP.Chemscore.Internal.Correction>
0.0219

> <Gold.Rescore>
     Score         DG    S(hbond)    S(metal)    S(lipo)     H(rot)  DE(clash)    DE(int)     intcor
     17.57     -19.19       1.96        0.00      83.22       1.00       0.03       1.60       ----

> <Gold.Chemscore.Fitness>
17.5664

> <Gold.Chemscore.DG>
-19.1891

> <Gold.Chemscore.ZeroCoef>
-5.4800

> <Gold.Chemscore.Hbond>
1.9558

> <Gold.Chemscore.Metal>
0.0000

> <Gold.Chemscore.Lipo>
83.2202

> <Gold.Chemscore.Internal_Hbond>
0.0000

> <Gold.Chemscore.DEClash>
0.0273

> <Gold.Chemscore.DEInternal>
1.5954

> <Gold.Chemscore.Rot>
1.0000

> <Gold.Chemscore.Internal.Correction>
   9.000000E+99

> <Gold.Chemscore.Hbonds>
donor molecule, donor type, donor heavy atom, donor atom, acceptor molecule, acceptor atom, score
      L1  H     3    22       P1  8028  0.86
      L1  H    11    26       P1  8028  0.99

> <Gold.Chemscore.Hbond.Weighted>
-6.5323

> <Gold.Chemscore.Metal.Weighted>
-0.0000

> <Gold.Chemscore.Lipo.Weighted>
-9.7368

> <Gold.Chemscore.Internal_Hbond.Weighted>
0.0000

> <Gold.Chemscore.DEClash.Weighted>
0.0273

> <Gold.Chemscore.DEInternal.Weighted>
1.5954

> <Gold.Chemscore.Rot.Weighted>
2.5600

> <Gold.Chemscore.Internal.Correction.Weighted>
   9.000000E+99

> <Gold.Protein.RotatedTorsions>
[ 6907 6896 6895 6894 ] final -103.79 input  -60.11 | X-H torsion
[ 7974 7965 7964 7962 ] final   -2.93 input  175.53 | X-H torsion
[ 8008 7997 7996 7995 ] final  -57.51 input   59.86 | X-H torsion
[ 10167 10162 10161 10158 ] final   -5.37 input  -65.29 | X-H torsion
[ 10718 10713 10712 10709 ] final -108.04 input   66.30 | X-H torsion
[ 10763 10752 10751 10750 ] final -132.16 input  -60.55 | X-H torsion
[ 11005 11000 10999 10996 ] final -161.17 input  -57.11 | X-H torsion

> <Gold.Protein.ActiveResidues>
 VAL166  LYS551  ARG553  GLY616  TRP617  ASP618  TYR619  PRO620  LYS621  CYS622 
 ASP623  PHE694  ASN695  SER759  ASP760  ASP761  ALA762  ILE779  LEU786  VAL792 
 PHE793  MET794  SER795  GLU796  ALA797  LYS798  CYS799  TRP800  GLU811  SER814 

> <Gold.Protein.RotatedAtoms>
  150.7256  134.0376  159.3754 H   0  0  0  0  0  0  0  0  0  0  0  0  # atno 6907 bound_to 6896
  151.8348  135.0607  160.0450 H   0  0  0  0  0  0  0  0  0  0  0  0  # atno 6908 bound_to 6896
  152.2907  133.5522  159.5592 H   0  0  0  0  0  0  0  0  0  0  0  0  # atno 6909 bound_to 6896
  146.2397  140.1645  142.8332 H   0  0  0  0  0  0  0  0  0  0  0  0  # atno 7974 bound_to 7965
  154.4271  140.1105  156.5809 H   0  0  0  0  0  0  0  0  0  0  0  0  # atno 8008 bound_to 7997
  155.6113  140.3494  155.4604 H   0  0  0  0  0  0  0  0  0  0  0  0  # atno 8009 bound_to 7997
  156.0097  140.1216  157.0456 H   0  0  0  0  0  0  0  0  0  0  0  0  # atno 8010 bound_to 7997
  140.6961  143.6316  150.8518 H   0  0  0  0  0  0  0  0  0  0  0  0  # atno 10167 bound_to 10162
  156.0466  130.5693  150.7905 H   0  0  0  0  0  0  0  0  0  0  0  0  # atno 10718 bound_to 10713
  154.8745  135.3807  154.4365 H   0  0  0  0  0  0  0  0  0  0  0  0  # atno 10763 bound_to 10752
  153.5054  135.7030  153.5814 H   0  0  0  0  0  0  0  0  0  0  0  0  # atno 10764 bound_to 10752
  153.4128  135.3920  155.2027 H   0  0  0  0  0  0  0  0  0  0  0  0  # atno 10765 bound_to 10752
  140.6233  134.4727  157.5225 H   0  0  0  0  0  0  0  0  0  0  0  0  # atno 11005 bound_to 11000
  145.0062  140.8675  143.5252 LP  0  0  0  0  0  0  0  0  0  0  0  0  # atno 17320 bound_to 7965
  145.1672  139.2425  143.5361 LP  0  0  0  0  0  0  0  0  0  0  0  0  # atno 17321 bound_to 7965
  140.0034  143.5720  152.2867 LP  0  0  0  0  0  0  0  0  0  0  0  0  # atno 17342 bound_to 10162
  139.6417  144.7655  151.2325 LP  0  0  0  0  0  0  0  0  0  0  0  0  # atno 17343 bound_to 10162
  157.5347  131.0938  150.9908 LP  0  0  0  0  0  0  0  0  0  0  0  0  # atno 17370 bound_to 10713
  157.0205  130.5672  149.5331 LP  0  0  0  0  0  0  0  0  0  0  0  0  # atno 17371 bound_to 10713
  139.9145  134.8276  156.1415 LP  0  0  0  0  0  0  0  0  0  0  0  0  # atno 17394 bound_to 11000
  141.0727  133.6789  156.2173 LP  0  0  0  0  0  0  0  0  0  0  0  0  # atno 17395 bound_to 11000

$$$$
