AV-unprocessed.smi:1434|AV-procd|sdf|5854|dock8
  -GOLD-   22720 5523D 1   1.00000     0.00000
 Structure written by MMmdl.
 43 44  0  0  0  0  0  0  0  0  2 V2000
  147.6288  134.2990  161.1710 C   0  0  0  0  0  0  0  0  0  0  0  0
  147.7351  135.8453  160.1722 S   0  0  0  0  0  0  0  0  0  0  0  0
  146.4883  135.9186  159.3910 O   0  0  0  0  0  0  0  0  0  0  0  0
  147.9659  136.9162  161.1533 O   0  0  0  0  0  0  0  0  0  0  0  0
  149.0644  135.5781  159.2728 N   0  5  0  0  0  0  0  0  0  0  0  0
  148.9994  135.5762  157.8176 C   0  0  1  0  0  0  0  0  0  0  0  0
  149.7800  136.7819  157.2313 C   0  0  0  0  0  0  0  0  0  0  0  0
  149.9619  136.7128  155.6892 C   0  0  0  0  0  0  0  0  0  0  0  0
  150.5022  135.3430  155.2148 C   0  0  0  0  0  0  0  0  0  0  0  0
  149.5985  134.3073  155.7616 N   0  0  0  0  0  0  0  0  0  0  0  0
  148.7560  133.5284  155.0330 C   0  0  0  0  0  0  0  0  0  0  0  0
  147.7415  133.0101  155.5015 O   0  0  0  0  0  0  0  0  0  0  0  0
  149.0562  133.4583  153.7236 N   0  0  0  0  0  0  0  0  0  0  0  0
  148.1867  132.9207  152.6796 C   0  0  0  0  0  0  0  0  0  0  0  0
  146.7794  133.5511  152.7225 C   0  0  0  0  0  0  0  0  0  0  0  0
  145.8651  133.0887  151.5987 C   0  0  0  0  0  0  0  0  0  0  0  0
  146.3876  132.4040  150.4798 C   0  0  0  0  0  0  0  0  0  0  0  0
  145.5065  132.0394  149.4436 C   0  0  0  0  0  0  0  0  0  0  0  0
  144.1435  132.3685  149.5668 C   0  0  0  0  0  0  0  0  0  0  0  0
  143.7201  133.0482  150.7262 C   0  0  0  0  0  0  0  0  0  0  0  0
  144.5560  133.4007  151.7271 N   0  0  0  0  0  0  0  0  0  0  0  0
  149.6105  134.2689  157.2419 C   0  0  0  0  0  0  0  0  0  0  0  0
  146.8070  134.3865  161.8807 H   0  0  0  0  0  0  0  0  0  0  0  0
  148.5618  134.1534  161.7147 H   0  0  0  0  0  0  0  0  0  0  0  0
  147.4501  133.4444  160.5196 H   0  0  0  0  0  0  0  0  0  0  0  0
  147.9696  135.6341  157.4641 H   0  0  0  0  0  0  0  0  0  0  0  0
  149.2838  137.7148  157.5009 H   0  0  0  0  0  0  0  0  0  0  0  0
  150.7703  136.8222  157.6876 H   0  0  0  0  0  0  0  0  0  0  0  0
  149.0093  136.9141  155.1956 H   0  0  0  0  0  0  0  0  0  0  0  0
  150.6374  137.5052  155.3665 H   0  0  0  0  0  0  0  0  0  0  0  0
  150.6048  135.3245  154.1297 H   0  0  0  0  0  0  0  0  0  0  0  0
  151.5070  135.1815  155.6080 H   0  0  0  0  0  0  0  0  0  0  0  0
  149.9009  133.9174  153.4160 H   0  0  0  0  0  0  0  0  0  0  0  0
  148.6479  133.1185  151.7119 H   0  0  0  0  0  0  0  0  0  0  0  0
  148.1097  131.8353  152.7613 H   0  0  0  0  0  0  0  0  0  0  0  0
  146.3070  133.3176  153.6776 H   0  0  0  0  0  0  0  0  0  0  0  0
  146.8624  134.6382  152.6872 H   0  0  0  0  0  0  0  0  0  0  0  0
  147.4413  132.1794  150.4063 H   0  0  0  0  0  0  0  0  0  0  0  0
  145.8712  131.5263  148.5659 H   0  0  0  0  0  0  0  0  0  0  0  0
  143.4410  132.1108  148.7881 H   0  0  0  0  0  0  0  0  0  0  0  0
  142.6820  133.3166  150.8526 H   0  0  0  0  0  0  0  0  0  0  0  0
  150.6407  134.1514  157.5824 H   0  0  0  0  0  0  0  0  0  0  0  0
  149.0712  133.4072  157.6383 H   0  0  0  0  0  0  0  0  0  0  0  0
  1  2  1  0  0  0  0
  1 23  1  0  0  0  0
  1 24  1  0  0  0  0
  1 25  1  0  0  0  0
  2  3  2  0  0  0  0
  2  4  2  0  0  0  0
  2  5  1  0  0  0  0
  5  6  1  0  0  0  0
  6 22  1  0  0  0  0
  6  7  1  0  0  0  0
  6 26  1  0  0  0  0
  7  8  1  0  0  0  0
  7 27  1  0  0  0  0
  7 28  1  0  0  0  0
  8  9  1  0  0  0  0
  8 29  1  0  0  0  0
  8 30  1  0  0  0  0
  9 10  1  0  0  0  0
  9 31  1  0  0  0  0
  9 32  1  0  0  0  0
 10 11  1  0  0  0  0
 10 22  1  0  0  0  0
 11 12  2  0  0  0  0
 11 13  1  0  0  0  0
 13 14  1  0  0  0  0
 13 33  1  0  0  0  0
 14 15  1  0  0  0  0
 14 34  1  0  0  0  0
 14 35  1  0  0  0  0
 15 16  1  0  0  0  0
 15 36  1  0  0  0  0
 15 37  1  0  0  0  0
 16 21  1  0  0  0  0
 16 17  2  0  0  0  0
 17 18  1  0  0  0  0
 17 38  1  0  0  0  0
 18 19  2  0  0  0  0
 18 39  1  0  0  0  0
 19 20  1  0  0  0  0
 19 40  1  0  0  0  0
 20 21  2  0  0  0  0
 20 41  1  0  0  0  0
 22 42  1  0  0  0  0
 22 43  1  0  0  0  0
M  CHG  1   5  -1
M  END
> <s_m_source_file>
AV-unprocessed.smi

> <i_m_source_file_index>
1434

> <i_lp_mmshare_version>
43012

> <i_f3d_flags>
0

> <s_epik_input>
W0NIM11TKD1PKSg9TylbTkhdW0NAQEhdMVtDSDJdW0NIMl1bQ0gyXU4oW0NIMl0xKUMoPU8pW05IXVtDSDJdW0NIMl1jMltjSF1bY0hdW2NIXVtjSF1uMg==

> <s_epik_cmdline>
J2VwaWtfcHl0aG9uJywgJy1waCcsICc3LjAnLCAnLXRuJywgJzgnLCAnLW1hJywgJzIwMCcsICctbWV0YWxfYmluZGluZycsICctaW1hZScsICc8aW5maWxlLm1hZT4nLCAnLW9tYWUnLCAnPG91dGZpbGUubWFlPic=

> <r_epik_Ionization_Penalty>
6.57847

> <r_epik_Ionization_Penalty_Charging>
6.53351

> <r_epik_Ionization_Penalty_Neutral>
0.0449527

> <r_epik_State_Penalty>
6.57157

> <r_epik_Charging_Adjusted_Penalty>
13.1051

> <i_epik_Tot_Q>
-1

> <i_epik_Tot_abs_Q>
1

> <r_epik_Metal_State_Penalty>
2.53928

> <b_epik_Metal_Only>
1

> <s_lp_Force_Field>
OPLS_2005

> <r_lp_Energy>
21.2682

> <b_lp_Chiralities_Consistent>
1

> <s_lp_Variant>
AV-unprocessed.smi:1434-6

> <Gold.Version>
5.8.1

> <Gold.Id.Protein>
6NUR|6NUR_protein|mol2

> <Gold.PLP.Fitness>
46.6875

> <Gold.PLP.PLP>
-33.2878

> <Gold.PLP.part.hbond>
-3.7830

> <Gold.PLP.part.metal>
0.0000

> <Gold.PLP.part.buried>
-3.1172

> <Gold.PLP.part.nonpolar>
-27.2751

> <Gold.PLP.part.repulsive>
0.1134

> <Gold.PLP.ligand.clash>
0.0000

> <Gold.PLP.ligand.torsion>
0.9162

> <Gold.PLP.Chemscore.Hbond>
3.7454

> <Gold.PLP.Chemscore.CHOScore>
1.0000

> <Gold.PLP.Chemscore.Metal>
0.0000

> <Gold.Chemscore.Hbonds>
donor molecule, donor type, donor heavy atom, donor atom, acceptor molecule, acceptor atom, score
      P1  H  6896  6907       L1     5  2.00
      P1  H  6931  6943       L1     4  1.00
      P1  H  6934  6947       L1     4  0.34
      L1  C    20    41       P1 10186  1.00

> <Gold.PLP.Chemscore.Internal.Correction>
0.9960

> <Gold.Rescore>
     Score         DG    S(hbond)    S(metal)    S(lipo)     H(rot)  DE(clash)    DE(int)     intcor
     16.17     -17.11       1.89        0.00      82.30       1.68       0.11       0.84       ----

> <Gold.Chemscore.Fitness>
16.1672

> <Gold.Chemscore.DG>
-17.1142

> <Gold.Chemscore.ZeroCoef>
-5.4800

> <Gold.Chemscore.Hbond>
1.8891

> <Gold.Chemscore.Metal>
0.0000

> <Gold.Chemscore.Lipo>
82.2974

> <Gold.Chemscore.Internal_Hbond>
0.0000

> <Gold.Chemscore.DEClash>
0.1051

> <Gold.Chemscore.DEInternal>
0.8419

> <Gold.Chemscore.Rot>
1.6813

> <Gold.Chemscore.Internal.Correction>
   9.000000E+99

> <Gold.Chemscore.Hbonds>
donor molecule, donor type, donor heavy atom, donor atom, acceptor molecule, acceptor atom, score
      P1  H  6896  6907       L1     5  0.40
      P1  H  6931  6943       L1     4  0.98
      P1  H  6934  6947       L1     4  0.34

> <Gold.Chemscore.Hbond.Weighted>
-6.3097

> <Gold.Chemscore.Metal.Weighted>
-0.0000

> <Gold.Chemscore.Lipo.Weighted>
-9.6288

> <Gold.Chemscore.Internal_Hbond.Weighted>
0.0000

> <Gold.Chemscore.DEClash.Weighted>
0.1051

> <Gold.Chemscore.DEInternal.Weighted>
0.8419

> <Gold.Chemscore.Rot.Weighted>
4.3042

> <Gold.Chemscore.Internal.Correction.Weighted>
   9.000000E+99

> <Gold.Protein.RotatedTorsions>
[ 6907 6896 6895 6894 ] final  -59.47 input  -60.11 | X-H torsion
[ 7974 7965 7964 7962 ] final  -95.19 input  175.53 | X-H torsion
[ 8008 7997 7996 7995 ] final -169.84 input   59.86 | X-H torsion
[ 10167 10162 10161 10158 ] final  149.00 input  -65.29 | X-H torsion
[ 10718 10713 10712 10709 ] final   38.13 input   66.30 | X-H torsion
[ 10763 10752 10751 10750 ] final  154.47 input  -60.55 | X-H torsion
[ 11005 11000 10999 10996 ] final  174.53 input  -57.11 | X-H torsion

> <Gold.Protein.ActiveResidues>
 VAL166  LYS551  ARG553  GLY616  TRP617  ASP618  TYR619  PRO620  LYS621  CYS622 
 ASP623  PHE694  ASN695  SER759  ASP760  ASP761  ALA762  ILE779  LEU786  VAL792 
 PHE793  MET794  SER795  GLU796  ALA797  LYS798  CYS799  TRP800  GLU811  SER814 

> <Gold.Protein.RotatedAtoms>
  150.7928  134.6964  159.6525 H   0  0  0  0  0  0  0  0  0  0  0  0  # atno 6907 bound_to 6896
  152.4036  134.6241  160.0068 H   0  0  0  0  0  0  0  0  0  0  0  0  # atno 6908 bound_to 6896
  151.6505  133.3284  159.3187 H   0  0  0  0  0  0  0  0  0  0  0  0  # atno 6909 bound_to 6896
  145.3634  140.9495  143.2488 H   0  0  0  0  0  0  0  0  0  0  0  0  # atno 7974 bound_to 7965
  155.9104  140.1056  157.1283 H   0  0  0  0  0  0  0  0  0  0  0  0  # atno 8008 bound_to 7997
  154.4038  140.1275  156.4615 H   0  0  0  0  0  0  0  0  0  0  0  0  # atno 8009 bound_to 7997
  155.7317  140.3468  155.5064 H   0  0  0  0  0  0  0  0  0  0  0  0  # atno 8010 bound_to 7997
  139.4867  144.5636  151.7186 H   0  0  0  0  0  0  0  0  0  0  0  0  # atno 10167 bound_to 10162
  157.3551  130.7619  149.7007 H   0  0  0  0  0  0  0  0  0  0  0  0  # atno 10718 bound_to 10713
  154.1528  135.2814  155.3131 H   0  0  0  0  0  0  0  0  0  0  0  0  # atno 10763 bound_to 10752
  154.6205  135.5469  153.7573 H   0  0  0  0  0  0  0  0  0  0  0  0  # atno 10764 bound_to 10752
  153.0216  135.6438  154.1671 H   0  0  0  0  0  0  0  0  0  0  0  0  # atno 10765 bound_to 10752
  140.3523  134.7185  157.4276 H   0  0  0  0  0  0  0  0  0  0  0  0  # atno 11005 bound_to 11000
  144.8630  139.5149  143.6803 LP  0  0  0  0  0  0  0  0  0  0  0  0  # atno 17320 bound_to 7965
  146.2917  139.7160  142.9156 LP  0  0  0  0  0  0  0  0  0  0  0  0  # atno 17321 bound_to 7965
  140.5210  144.0879  150.6022 LP  0  0  0  0  0  0  0  0  0  0  0  0  # atno 17342 bound_to 10162
  140.3837  143.2789  152.0141 LP  0  0  0  0  0  0  0  0  0  0  0  0  # atno 17343 bound_to 10162
  155.9728  130.4129  150.4057 LP  0  0  0  0  0  0  0  0  0  0  0  0  # atno 17370 bound_to 10713
  157.2126  131.0464  151.2591 LP  0  0  0  0  0  0  0  0  0  0  0  0  # atno 17371 bound_to 10713
  140.0693  134.5885  155.8659 LP  0  0  0  0  0  0  0  0  0  0  0  0  # atno 17394 bound_to 11000
  141.2008  133.6615  156.5919 LP  0  0  0  0  0  0  0  0  0  0  0  0  # atno 17395 bound_to 11000

$$$$
