AV-unprocessed.smi:2507|AV-procd|sdf|9864|dock5
  -GOLD-   2272013493D 1   1.00000     0.00000
 Structure written by MMmdl.
 44 45  0  0  0  0  0  0  0  0  1 V2000
  145.2211  133.0398  150.4211 C   0  0  0  0  0  0  0  0  0  0  0  0
  146.3356  133.6571  151.2730 C   0  0  0  0  0  0  0  0  0  0  0  0
  146.9036  132.6709  152.2563 C   0  0  0  0  0  0  0  0  0  0  0  0
  146.4430  131.4277  152.2877 N   0  0  0  0  0  0  0  0  0  0  0  0
  147.1551  130.8088  153.2595 N   0  0  0  0  0  0  0  0  0  0  0  0
  146.8898  129.4172  153.5545 C   0  0  0  0  0  0  0  0  0  0  0  0
  148.0753  131.6501  153.8507 C   0  0  0  0  0  0  0  0  0  0  0  0
  147.9329  132.8536  153.2196 C   0  0  0  0  0  0  0  0  0  0  0  0
  148.6370  134.0662  153.4342 N   0  0  0  0  0  0  0  0  0  0  0  0
  149.4370  134.3756  154.4677 C   0  0  0  0  0  0  0  0  0  0  0  0
  149.6940  133.6295  155.4126 O   0  0  0  0  0  0  0  0  0  0  0  0
  149.9291  135.6165  154.3462 N   0  0  0  0  0  0  0  0  0  0  0  0
  150.8247  136.2611  155.2996 C   0  0  0  0  0  0  0  0  0  0  0  0
  151.2834  137.6427  154.8019 C   0  0  0  0  0  0  0  0  0  0  0  0
  150.9145  138.7794  155.7681 C   0  0  1  0  0  0  0  0  0  0  0  0
  151.6592  138.6559  157.1120 C   0  0  0  0  0  0  0  0  0  0  0  0
  151.3312  139.8443  158.0230 C   0  0  0  0  0  0  0  0  0  0  0  0
  151.5943  141.1559  157.2763 C   0  0  0  0  0  0  0  0  0  0  0  0
  150.8613  141.1568  155.9255 C   0  0  0  0  0  0  0  0  0  0  0  0
  151.2558  140.0231  155.1588 O   0  0  0  0  0  0  0  0  0  0  0  0
  144.8246  133.7676  149.7130 H   0  0  0  0  0  0  0  0  0  0  0  0
  144.3943  132.6955  151.0431 H   0  0  0  0  0  0  0  0  0  0  0  0
  145.5901  132.1868  149.8509 H   0  0  0  0  0  0  0  0  0  0  0  0
  147.1244  134.0307  150.6201 H   0  0  0  0  0  0  0  0  0  0  0  0
  145.9466  134.5287  151.8012 H   0  0  0  0  0  0  0  0  0  0  0  0
  147.5614  129.0660  154.3384 H   0  0  0  0  0  0  0  0  0  0  0  0
  147.0435  128.8137  152.6593 H   0  0  0  0  0  0  0  0  0  0  0  0
  145.8595  129.3018  153.8922 H   0  0  0  0  0  0  0  0  0  0  0  0
  148.7288  131.3194  154.6441 H   0  0  0  0  0  0  0  0  0  0  0  0
  148.5157  134.7750  152.7258 H   0  0  0  0  0  0  0  0  0  0  0  0
  149.6643  136.1559  153.5351 H   0  0  0  0  0  0  0  0  0  0  0  0
  150.3372  136.3429  156.2726 H   0  0  0  0  0  0  0  0  0  0  0  0
  151.6889  135.6118  155.4402 H   0  0  0  0  0  0  0  0  0  0  0  0
  152.3654  137.6281  154.6655 H   0  0  0  0  0  0  0  0  0  0  0  0
  150.8531  137.8467  153.8206 H   0  0  0  0  0  0  0  0  0  0  0  0
  149.8384  138.7512  155.9486 H   0  0  0  0  0  0  0  0  0  0  0  0
  151.3920  137.7227  157.6088 H   0  0  0  0  0  0  0  0  0  0  0  0
  152.7352  138.6192  156.9349 H   0  0  0  0  0  0  0  0  0  0  0  0
  150.2843  139.7969  158.3255 H   0  0  0  0  0  0  0  0  0  0  0  0
  151.9250  139.7995  158.9365 H   0  0  0  0  0  0  0  0  0  0  0  0
  151.2754  142.0056  157.8804 H   0  0  0  0  0  0  0  0  0  0  0  0
  152.6657  141.2737  157.1089 H   0  0  0  0  0  0  0  0  0  0  0  0
  149.7799  141.1534  156.0697 H   0  0  0  0  0  0  0  0  0  0  0  0
  151.1044  142.0611  155.3678 H   0  0  0  0  0  0  0  0  0  0  0  0
  1  2  1  0  0  0  0
  1 21  1  0  0  0  0
  1 22  1  0  0  0  0
  1 23  1  0  0  0  0
  2  3  1  0  0  0  0
  2 24  1  0  0  0  0
  2 25  1  0  0  0  0
  3  8  1  0  0  0  0
  3  4  2  0  0  0  0
  4  5  1  0  0  0  0
  5  6  1  0  0  0  0
  5  7  1  0  0  0  0
  6 26  1  0  0  0  0
  6 27  1  0  0  0  0
  6 28  1  0  0  0  0
  7  8  2  0  0  0  0
  7 29  1  0  0  0  0
  8  9  1  0  0  0  0
  9 10  1  0  0  0  0
  9 30  1  0  0  0  0
 10 11  2  0  0  0  0
 10 12  1  0  0  0  0
 12 13  1  0  0  0  0
 12 31  1  0  0  0  0
 13 14  1  0  0  0  0
 13 32  1  0  0  0  0
 13 33  1  0  0  0  0
 14 15  1  0  0  0  0
 14 34  1  0  0  0  0
 14 35  1  0  0  0  0
 15 20  1  0  0  0  0
 15 16  1  0  0  0  0
 15 36  1  0  0  0  0
 16 17  1  0  0  0  0
 16 37  1  0  0  0  0
 16 38  1  0  0  0  0
 17 18  1  0  0  0  0
 17 39  1  0  0  0  0
 17 40  1  0  0  0  0
 18 19  1  0  0  0  0
 18 41  1  0  0  0  0
 18 42  1  0  0  0  0
 19 20  1  0  0  0  0
 19 43  1  0  0  0  0
 19 44  1  0  0  0  0
M  END
> <s_m_source_file>
AV-unprocessed.smi

> <i_m_source_file_index>
2507

> <i_lp_mmshare_version>
43012

> <i_f3d_flags>
0

> <s_epik_input>
W0NIM11bQ0gyXWMxbm4oW0NIM10pW2NIXWMxW05IXUMoPU8pW05IXVtDSDJdW0NIMl1bQ0BASF0yW0NIMl1bQ0gyXVtDSDJdW0NIMl1PMg==

> <s_epik_cmdline>
J2VwaWtfcHl0aG9uJywgJy1waCcsICc3LjAnLCAnLXRuJywgJzgnLCAnLW1hJywgJzIwMCcsICctbWV0YWxfYmluZGluZycsICctaW1hZScsICc8aW5maWxlLm1hZT4nLCAnLW9tYWUnLCAnPG91dGZpbGUubWFlPic=

> <r_lp_tautomer_probability>
1

> <r_epik_Ionization_Penalty>
0.00072031

> <r_epik_Ionization_Penalty_Charging>
0

> <r_epik_Ionization_Penalty_Neutral>
0.00072031

> <r_epik_State_Penalty>
-0

> <r_epik_Charging_Adjusted_Penalty>
0

> <i_epik_Tot_Q>
0

> <i_epik_Tot_abs_Q>
0

> <r_epik_Metal_State_Penalty>
-0

> <b_epik_Metal_Only>
0

> <s_lp_Force_Field>
OPLS_2005

> <r_lp_Energy>
7.2839

> <b_lp_Chiralities_Consistent>
1

> <s_lp_Variant>
AV-unprocessed.smi:2507-2

> <Gold.Version>
5.8.1

> <Gold.Id.Protein>
6NUR|6NUR_protein|mol2

> <Gold.PLP.Fitness>
40.8073

> <Gold.PLP.PLP>
-32.6396

> <Gold.PLP.part.hbond>
-3.7874

> <Gold.PLP.part.metal>
0.0000

> <Gold.PLP.part.buried>
-3.1138

> <Gold.PLP.part.nonpolar>
-25.7883

> <Gold.PLP.part.repulsive>
0.2733

> <Gold.PLP.ligand.clash>
0.0000

> <Gold.PLP.ligand.torsion>
0.4393

> <Gold.PLP.Chemscore.Hbond>
2.9920

> <Gold.PLP.Chemscore.CHOScore>
0.0000

> <Gold.PLP.Chemscore.Metal>
0.0000

> <Gold.Chemscore.Hbonds>
donor molecule, donor type, donor heavy atom, donor atom, acceptor molecule, acceptor atom, score
      L1  H     9    30       P1  7948  1.00
      L1  H    12    31       P1  7948  0.99
      P1  H  7989  7998       L1    20  1.00

> <Gold.PLP.Chemscore.Internal.Correction>
0.0704

> <Gold.Rescore>
     Score         DG    S(hbond)    S(metal)    S(lipo)     H(rot)  DE(clash)    DE(int)     intcor
     15.88     -17.46       2.17        0.00      73.40       1.50       0.03       1.54       ----

> <Gold.Chemscore.Fitness>
15.8843

> <Gold.Chemscore.DG>
-17.4585

> <Gold.Chemscore.ZeroCoef>
-5.4800

> <Gold.Chemscore.Hbond>
2.1680

> <Gold.Chemscore.Metal>
0.0000

> <Gold.Chemscore.Lipo>
73.4025

> <Gold.Chemscore.Internal_Hbond>
0.0000

> <Gold.Chemscore.DEClash>
0.0309

> <Gold.Chemscore.DEInternal>
1.5433

> <Gold.Chemscore.Rot>
1.5042

> <Gold.Chemscore.Internal.Correction>
   9.000000E+99

> <Gold.Chemscore.Hbonds>
donor molecule, donor type, donor heavy atom, donor atom, acceptor molecule, acceptor atom, score
      L1  H     9    30       P1  7948  0.25
      L1  H    12    31       P1  7948  0.28
      P1  H  7989  7998       L1    20  0.25

> <Gold.Chemscore.Hbond.Weighted>
-7.2411

> <Gold.Chemscore.Metal.Weighted>
-0.0000

> <Gold.Chemscore.Lipo.Weighted>
-8.5881

> <Gold.Chemscore.Internal_Hbond.Weighted>
0.0000

> <Gold.Chemscore.DEClash.Weighted>
0.0309

> <Gold.Chemscore.DEInternal.Weighted>
1.5433

> <Gold.Chemscore.Rot.Weighted>
3.8507

> <Gold.Chemscore.Internal.Correction.Weighted>
   9.000000E+99

> <Gold.Protein.RotatedTorsions>
[ 6907 6896 6895 6894 ] final   60.40 input  -60.11 | X-H torsion
[ 7974 7965 7964 7962 ] final  -88.93 input  175.53 | X-H torsion
[ 8008 7997 7996 7995 ] final -102.29 input   59.86 | X-H torsion
[ 10167 10162 10161 10158 ] final   65.94 input  -65.29 | X-H torsion
[ 10718 10713 10712 10709 ] final  148.17 input   66.30 | X-H torsion
[ 10763 10752 10751 10750 ] final   45.10 input  -60.55 | X-H torsion
[ 11005 11000 10999 10996 ] final  -44.23 input  -57.11 | X-H torsion

> <Gold.Protein.ActiveResidues>
 VAL166  LYS551  ARG553  GLY616  TRP617  ASP618  TYR619  PRO620  LYS621  CYS622 
 ASP623  PHE694  ASN695  SER759  ASP760  ASP761  ALA762  ILE779  LEU786  VAL792 
 PHE793  MET794  SER795  GLU796  ALA797  LYS798  CYS799  TRP800  GLU811  SER814 

> <Gold.Protein.RotatedAtoms>
  152.3999  134.6303  160.0073 H   0  0  0  0  0  0  0  0  0  0  0  0  # atno 6907 bound_to 6896
  151.6511  133.3315  159.3160 H   0  0  0  0  0  0  0  0  0  0  0  0  # atno 6908 bound_to 6896
  150.7901  134.6961  159.6568 H   0  0  0  0  0  0  0  0  0  0  0  0  # atno 6909 bound_to 6896
  145.4466  140.9560  143.2045 H   0  0  0  0  0  0  0  0  0  0  0  0  # atno 7974 bound_to 7965
  154.8546  140.0429  157.1626 H   0  0  0  0  0  0  0  0  0  0  0  0  # atno 8008 bound_to 7997
  154.8905  140.2986  155.5352 H   0  0  0  0  0  0  0  0  0  0  0  0  # atno 8009 bound_to 7997
  156.2997  140.2394  156.3920 H   0  0  0  0  0  0  0  0  0  0  0  0  # atno 8010 bound_to 7997
  140.1058  144.4863  150.7008 H   0  0  0  0  0  0  0  0  0  0  0  0  # atno 10167 bound_to 10162
  157.3119  131.0889  151.1309 H   0  0  0  0  0  0  0  0  0  0  0  0  # atno 10718 bound_to 10713
  152.9830  135.6050  154.3381 H   0  0  0  0  0  0  0  0  0  0  0  0  # atno 10763 bound_to 10752
  154.3080  135.2771  155.2581 H   0  0  0  0  0  0  0  0  0  0  0  0  # atno 10764 bound_to 10752
  154.4804  135.5918  153.6441 H   0  0  0  0  0  0  0  0  0  0  0  0  # atno 10765 bound_to 10752
  141.0436  133.6770  156.2843 H   0  0  0  0  0  0  0  0  0  0  0  0  # atno 11005 bound_to 11000
  144.8088  139.6001  143.7039 LP  0  0  0  0  0  0  0  0  0  0  0  0  # atno 17320 bound_to 7965
  146.2527  139.6235  142.9416 LP  0  0  0  0  0  0  0  0  0  0  0  0  # atno 17321 bound_to 7965
  140.6953  143.2400  151.5019 LP  0  0  0  0  0  0  0  0  0  0  0  0  # atno 17342 bound_to 10162
  139.5646  144.2073  152.1745 LP  0  0  0  0  0  0  0  0  0  0  0  0  # atno 17343 bound_to 10162
  157.2628  130.6667  149.5982 LP  0  0  0  0  0  0  0  0  0  0  0  0  # atno 17370 bound_to 10713
  155.9678  130.4503  150.5693 LP  0  0  0  0  0  0  0  0  0  0  0  0  # atno 17371 bound_to 10713
  140.6188  134.5383  157.5544 LP  0  0  0  0  0  0  0  0  0  0  0  0  # atno 17394 bound_to 11000
  139.9295  134.7992  156.0972 LP  0  0  0  0  0  0  0  0  0  0  0  0  # atno 17395 bound_to 11000

$$$$
