AV-unprocessed.smi:2451|AV-procd|sdf|9675|dock3
  -GOLD-   2272013313D 1   1.00000     0.00000
 Structure written by MMmdl.
 38 39  0  0  0  0  0  0  0  0  1 V2000
  150.8045  145.3150  160.3963 C   0  0  0  0  0  0  0  0  0  0  0  0
  151.2415  143.8712  160.0988 C   0  0  2  0  0  0  0  0  0  0  0  0
  152.5414  143.5007  160.8448 C   0  0  0  0  0  0  0  0  0  0  0  0
  152.9231  142.0267  160.6262 C   0  0  0  0  0  0  0  0  0  0  0  0
  153.0073  141.6756  159.1326 C   0  0  0  0  0  0  0  0  0  0  0  0
  151.7034  142.0551  158.4087 C   0  0  2  0  0  0  0  0  0  0  0  0
  151.7751  141.6843  156.9926 N   0  0  0  0  0  0  0  0  0  0  0  0
  151.6693  140.0174  156.5670 S   0  0  0  0  0  0  0  0  0  0  0  0
  151.5076  139.9454  155.1067 O   0  0  0  0  0  0  0  0  0  0  0  0
  152.7910  139.3212  157.2162 O   0  0  0  0  0  0  0  0  0  0  0  0
  150.1013  139.4947  157.3797 C   0  0  0  0  0  0  0  0  0  0  0  0
  150.0162  137.9952  157.3927 C   0  0  0  0  0  0  0  0  0  0  0  0
  150.0857  137.0950  156.2934 C   0  0  0  0  0  0  0  0  0  0  0  0
  149.9531  135.8681  156.8771 C   0  0  0  0  0  0  0  0  0  0  0  0
  149.8182  135.9937  158.2214 O   0  0  0  0  0  0  0  0  0  0  0  0
  149.8613  137.3554  158.5412 N   0  0  0  0  0  0  0  0  0  0  0  0
  151.3431  143.5518  158.5829 C   0  0  2  0  0  0  0  0  0  0  0  0
  152.3006  144.4994  157.8226 C   0  0  0  0  0  0  0  0  0  0  0  0
  151.5731  146.0376  160.1220 H   0  0  0  0  0  0  0  0  0  0  0  0
  150.6021  145.4463  161.4597 H   0  0  0  0  0  0  0  0  0  0  0  0
  149.8926  145.5701  159.8559 H   0  0  0  0  0  0  0  0  0  0  0  0
  150.4534  143.2325  160.5010 H   0  0  0  0  0  0  0  0  0  0  0  0
  153.3593  144.1441  160.5193 H   0  0  0  0  0  0  0  0  0  0  0  0
  152.4202  143.6846  161.9128 H   0  0  0  0  0  0  0  0  0  0  0  0
  153.8747  141.8126  161.1133 H   0  0  0  0  0  0  0  0  0  0  0  0
  152.1811  141.3868  161.1053 H   0  0  0  0  0  0  0  0  0  0  0  0
  153.8566  142.1884  158.6802 H   0  0  0  0  0  0  0  0  0  0  0  0
  153.1993  140.6079  159.0202 H   0  0  0  0  0  0  0  0  0  0  0  0
  150.9025  141.4697  158.8636 H   0  0  0  0  0  0  0  0  0  0  0  0
  152.5644  142.1364  156.5315 H   0  0  0  0  0  0  0  0  0  0  0  0
  150.0860  139.8985  158.3917 H   0  0  0  0  0  0  0  0  0  0  0  0
  149.2679  139.9359  156.8322 H   0  0  0  0  0  0  0  0  0  0  0  0
  150.2076  137.3158  155.2435 H   0  0  0  0  0  0  0  0  0  0  0  0
  149.9359  134.8599  156.4905 H   0  0  0  0  0  0  0  0  0  0  0  0
  150.3515  143.6976  158.1515 H   0  0  0  0  0  0  0  0  0  0  0  0
  153.3221  144.4426  158.1968 H   0  0  0  0  0  0  0  0  0  0  0  0
  151.9788  145.5375  157.8997 H   0  0  0  0  0  0  0  0  0  0  0  0
  152.3298  144.2673  156.7580 H   0  0  0  0  0  0  0  0  0  0  0  0
  1  2  1  0  0  0  0
  1 19  1  0  0  0  0
  1 20  1  0  0  0  0
  1 21  1  0  0  0  0
  2 17  1  0  0  0  0
  2  3  1  0  0  0  0
  2 22  1  0  0  0  0
  3  4  1  0  0  0  0
  3 23  1  0  0  0  0
  3 24  1  0  0  0  0
  4  5  1  0  0  0  0
  4 25  1  0  0  0  0
  4 26  1  0  0  0  0
  5  6  1  0  0  0  0
  5 27  1  0  0  0  0
  5 28  1  0  0  0  0
  6  7  1  0  0  0  0
  6 17  1  0  0  0  0
  6 29  1  0  0  0  0
  7  8  1  0  0  0  0
  7 30  1  0  0  0  0
  8  9  2  0  0  0  0
  8 10  2  0  0  0  0
  8 11  1  0  0  0  0
 11 12  1  0  0  0  0
 11 31  1  0  0  0  0
 11 32  1  0  0  0  0
 12 16  2  0  0  0  0
 12 13  1  0  0  0  0
 13 14  2  0  0  0  0
 13 33  1  0  0  0  0
 14 15  1  0  0  0  0
 14 34  1  0  0  0  0
 15 16  1  0  0  0  0
 17 18  1  0  0  0  0
 17 35  1  0  0  0  0
 18 36  1  0  0  0  0
 18 37  1  0  0  0  0
 18 38  1  0  0  0  0
M  END
> <s_m_source_file>
AV-unprocessed.smi

> <i_m_source_file_index>
2451

> <i_lp_mmshare_version>
43012

> <i_f3d_flags>
0

> <s_epik_input>
W0NIM11bQ0BASF0xW0NIMl1bQ0gyXVtDSDJdW0NASF0oW0NASF0xW0NIM10pW05IXVMoPU8pKD1PKVtDSDJdYzJbY0hdW2NIXW9uMg==

> <s_epik_cmdline>
J2VwaWtfcHl0aG9uJywgJy1waCcsICc3LjAnLCAnLXRuJywgJzgnLCAnLW1hJywgJzIwMCcsICctbWV0YWxfYmluZGluZycsICctaW1hZScsICc8aW5maWxlLm1hZT4nLCAnLW9tYWUnLCAnPG91dGZpbGUubWFlPic=

> <r_lp_tautomer_probability>
1

> <r_epik_Ionization_Penalty>
8.73668e-05

> <r_epik_Ionization_Penalty_Charging>
0

> <r_epik_Ionization_Penalty_Neutral>
8.73668e-05

> <r_epik_State_Penalty>
-0

> <r_epik_Charging_Adjusted_Penalty>
0

> <i_epik_Tot_Q>
0

> <i_epik_Tot_abs_Q>
0

> <r_epik_Metal_State_Penalty>
0.0716439

> <b_epik_Metal_Only>
0

> <s_lp_Force_Field>
OPLS_2005

> <r_lp_Energy>
8.89421

> <b_lp_Chiralities_Consistent>
1

> <s_lp_Variant>
AV-unprocessed.smi:2451-7

> <Gold.Version>
5.8.1

> <Gold.Id.Protein>
6NUR|6NUR_protein|mol2

> <Gold.PLP.Fitness>
38.8331

> <Gold.PLP.PLP>
-30.5825

> <Gold.PLP.part.hbond>
-3.0000

> <Gold.PLP.part.metal>
0.0000

> <Gold.PLP.part.buried>
-2.3124

> <Gold.PLP.part.nonpolar>
-25.8873

> <Gold.PLP.part.repulsive>
0.0238

> <Gold.PLP.ligand.clash>
0.0000

> <Gold.PLP.ligand.torsion>
0.4524

> <Gold.PLP.Chemscore.Hbond>
3.0000

> <Gold.PLP.Chemscore.CHOScore>
0.0000

> <Gold.PLP.Chemscore.Metal>
0.0000

> <Gold.Chemscore.Hbonds>
donor molecule, donor type, donor heavy atom, donor atom, acceptor molecule, acceptor atom, score
      P1  H  6896  6907       L1    15  0.83
      P1  H  7989  7998       L1     9  1.00
      P1  H  7997  8008       L1    10  0.98

> <Gold.PLP.Chemscore.Internal.Correction>
0.1553

> <Gold.Rescore>
     Score         DG    S(hbond)    S(metal)    S(lipo)     H(rot)  DE(clash)    DE(int)     intcor
     20.50     -22.57       2.82        0.00     101.85       1.66       1.51       0.56       ----

> <Gold.Chemscore.Fitness>
20.4979

> <Gold.Chemscore.DG>
-22.5697

> <Gold.Chemscore.ZeroCoef>
-5.4800

> <Gold.Chemscore.Hbond>
2.8202

> <Gold.Chemscore.Metal>
0.0000

> <Gold.Chemscore.Lipo>
101.8537

> <Gold.Chemscore.Internal_Hbond>
0.0000

> <Gold.Chemscore.DEClash>
1.5083

> <Gold.Chemscore.DEInternal>
0.5635

> <Gold.Chemscore.Rot>
1.6588

> <Gold.Chemscore.Internal.Correction>
   9.000000E+99

> <Gold.Chemscore.Hbonds>
donor molecule, donor type, donor heavy atom, donor atom, acceptor molecule, acceptor atom, score
      P1  H  6896  6907       L1    15  0.73
      P1  H  7989  7998       L1     9  0.98
      P1  H  7997  8008       L1    10  0.90

> <Gold.Chemscore.Hbond.Weighted>
-9.4194

> <Gold.Chemscore.Metal.Weighted>
-0.0000

> <Gold.Chemscore.Lipo.Weighted>
-11.9169

> <Gold.Chemscore.Internal_Hbond.Weighted>
0.0000

> <Gold.Chemscore.DEClash.Weighted>
1.5083

> <Gold.Chemscore.DEInternal.Weighted>
0.5635

> <Gold.Chemscore.Rot.Weighted>
4.2466

> <Gold.Chemscore.Internal.Correction.Weighted>
   9.000000E+99

> <Gold.Protein.RotatedTorsions>
[ 6907 6896 6895 6894 ] final  -63.27 input  -60.11 | X-H torsion
[ 7974 7965 7964 7962 ] final  157.33 input  175.53 | X-H torsion
[ 8008 7997 7996 7995 ] final  -86.60 input   59.86 | X-H torsion
[ 10167 10162 10161 10158 ] final   57.22 input  -65.29 | X-H torsion
[ 10718 10713 10712 10709 ] final  -19.49 input   66.30 | X-H torsion
[ 10763 10752 10751 10750 ] final  167.18 input  -60.55 | X-H torsion
[ 11005 11000 10999 10996 ] final -172.10 input  -57.11 | X-H torsion

> <Gold.Protein.ActiveResidues>
 VAL166  LYS551  ARG553  GLY616  TRP617  ASP618  TYR619  PRO620  LYS621  CYS622 
 ASP623  PHE694  ASN695  SER759  ASP760  ASP761  ALA762  ILE779  LEU786  VAL792 
 PHE793  MET794  SER795  GLU796  ALA797  LYS798  CYS799  TRP800  GLU811  SER814 

> <Gold.Protein.RotatedAtoms>
  150.7660  134.6457  159.6260 H   0  0  0  0  0  0  0  0  0  0  0  0  # atno 6907 bound_to 6896
  152.3691  134.6757  160.0191 H   0  0  0  0  0  0  0  0  0  0  0  0  # atno 6908 bound_to 6896
  151.7122  133.3276  159.3330 H   0  0  0  0  0  0  0  0  0  0  0  0  # atno 6909 bound_to 6896
  144.7910  139.7326  143.6221 H   0  0  0  0  0  0  0  0  0  0  0  0  # atno 7974 bound_to 7965
  154.6537  140.0576  156.9984 H   0  0  0  0  0  0  0  0  0  0  0  0  # atno 8008 bound_to 7997
  155.1333  140.3258  155.4450 H   0  0  0  0  0  0  0  0  0  0  0  0  # atno 8009 bound_to 7997
  156.2587  140.1977  156.6451 H   0  0  0  0  0  0  0  0  0  0  0  0  # atno 8010 bound_to 7997
  140.2003  144.3994  150.6532 H   0  0  0  0  0  0  0  0  0  0  0  0  # atno 10167 bound_to 10162
  156.5449  130.4687  149.6480 H   0  0  0  0  0  0  0  0  0  0  0  0  # atno 10718 bound_to 10713
  154.3501  135.2753  155.2376 H   0  0  0  0  0  0  0  0  0  0  0  0  # atno 10763 bound_to 10752
  154.4610  135.5907  153.6259 H   0  0  0  0  0  0  0  0  0  0  0  0  # atno 10764 bound_to 10752
  152.9850  135.6065  154.3710 H   0  0  0  0  0  0  0  0  0  0  0  0  # atno 10765 bound_to 10752
  140.5008  134.5895  157.4987 H   0  0  0  0  0  0  0  0  0  0  0  0  # atno 11005 bound_to 11000
  146.2161  139.5552  142.9649 LP  0  0  0  0  0  0  0  0  0  0  0  0  # atno 17320 bound_to 7965
  145.5795  141.0384  143.2130 LP  0  0  0  0  0  0  0  0  0  0  0  0  # atno 17321 bound_to 7965
  140.6395  143.2201  151.6322 LP  0  0  0  0  0  0  0  0  0  0  0  0  # atno 17342 bound_to 10162
  139.5220  144.3177  152.0938 LP  0  0  0  0  0  0  0  0  0  0  0  0  # atno 17343 bound_to 10162
  156.2937  130.7138  151.1994 LP  0  0  0  0  0  0  0  0  0  0  0  0  # atno 17370 bound_to 10713
  157.7398  131.0524  150.5205 LP  0  0  0  0  0  0  0  0  0  0  0  0  # atno 17371 bound_to 10713
  139.9714  134.7286  156.0033 LP  0  0  0  0  0  0  0  0  0  0  0  0  # atno 17394 bound_to 11000
  141.1436  133.6560  156.3803 LP  0  0  0  0  0  0  0  0  0  0  0  0  # atno 17395 bound_to 11000

$$$$
