AV-unprocessed.smi:709|AV-procd|sdf|3459|dock4
  -GOLD-   22720 0443D 1   1.00000     0.00000
 Structure written by MMmdl.
 48 50  0  0  0  0  0  0  0  0  1 V2000
  146.7158  129.2139  151.6484 C   0  0  0  0  0  0  0  0  0  0  0  0
  146.4667  130.3045  152.6924 C   0  0  0  0  0  0  0  0  0  0  0  0
  146.0660  131.4897  152.0266 O   0  0  0  0  0  0  0  0  0  0  0  0
  145.6199  132.4999  152.9167 C   0  0  1  0  0  0  0  0  0  0  0  0
  146.7356  133.1851  153.7135 C   0  0  0  0  0  0  0  0  0  0  0  0
  145.9173  134.4650  153.5371 C   0  0  1  0  0  0  0  0  0  0  0  0
  146.7489  135.6500  153.3585 N   0  0  0  0  0  0  0  0  0  0  0  0
  146.5408  136.8195  153.9775 C   0  0  0  0  0  0  0  0  0  0  0  0
  145.6373  136.9979  154.7941 O   0  0  0  0  0  0  0  0  0  0  0  0
  147.4437  137.7375  153.5874 N   0  0  0  0  0  0  0  0  0  0  0  0
  147.5477  139.0913  153.9510 C   0  0  0  0  0  0  0  0  0  0  0  0
  146.7539  140.0804  153.4683 C   0  0  0  0  0  0  0  0  0  0  0  0
  146.9368  141.4494  153.8867 C   0  0  0  0  0  0  0  0  0  0  0  0
  147.9195  141.7240  154.7557 C   0  0  0  0  0  0  0  0  0  0  0  0
  148.7622  140.7178  155.2582 N   0  0  0  0  0  0  0  0  0  0  0  0
  149.8090  141.1188  156.2017 C   0  0  0  0  0  0  0  0  0  0  0  0
  148.6328  139.4052  154.9010 C   0  0  0  0  0  0  0  0  0  0  0  0
  149.3881  138.5427  155.3566 O   0  0  0  0  0  0  0  0  0  0  0  0
  145.3474  133.8577  152.2252 C   0  0  0  0  0  0  0  0  0  0  0  0
  143.9039  134.1983  151.8689 C   0  0  0  0  0  0  0  0  0  0  0  0
  143.9364  135.3324  150.8384 C   0  0  0  0  0  0  0  0  0  0  0  0
  145.3427  135.3171  150.2323 C   0  0  0  0  0  0  0  0  0  0  0  0
  146.0702  134.1483  150.9009 C   0  0  0  0  0  0  0  0  0  0  0  0
  147.0199  128.2813  152.1237 H   0  0  0  0  0  0  0  0  0  0  0  0
  147.5038  129.5095  150.9554 H   0  0  0  0  0  0  0  0  0  0  0  0
  145.8151  129.0155  151.0671 H   0  0  0  0  0  0  0  0  0  0  0  0
  145.6899  129.9833  153.3880 H   0  0  0  0  0  0  0  0  0  0  0  0
  147.3753  130.4811  153.2698 H   0  0  0  0  0  0  0  0  0  0  0  0
  144.7820  132.1834  153.5430 H   0  0  0  0  0  0  0  0  0  0  0  0
  146.8367  132.8440  154.7440 H   0  0  0  0  0  0  0  0  0  0  0  0
  147.6938  133.1946  153.1904 H   0  0  0  0  0  0  0  0  0  0  0  0
  145.1622  134.5643  154.3213 H   0  0  0  0  0  0  0  0  0  0  0  0
  147.5160  135.5798  152.7061 H   0  0  0  0  0  0  0  0  0  0  0  0
  148.1708  137.4144  152.9657 H   0  0  0  0  0  0  0  0  0  0  0  0
  145.9760  139.8851  152.7479 H   0  0  0  0  0  0  0  0  0  0  0  0
  146.2962  142.2330  153.5097 H   0  0  0  0  0  0  0  0  0  0  0  0
  148.1192  142.7221  155.1175 H   0  0  0  0  0  0  0  0  0  0  0  0
  150.7953  140.8535  155.8173 H   0  0  0  0  0  0  0  0  0  0  0  0
  149.6715  140.6177  157.1610 H   0  0  0  0  0  0  0  0  0  0  0  0
  149.8146  142.1923  156.3939 H   0  0  0  0  0  0  0  0  0  0  0  0
  143.4171  133.3261  151.4309 H   0  0  0  0  0  0  0  0  0  0  0  0
  143.3159  134.4788  152.7434 H   0  0  0  0  0  0  0  0  0  0  0  0
  143.1654  135.1982  150.0792 H   0  0  0  0  0  0  0  0  0  0  0  0
  143.7524  136.2918  151.3232 H   0  0  0  0  0  0  0  0  0  0  0  0
  145.3201  135.2063  149.1477 H   0  0  0  0  0  0  0  0  0  0  0  0
  145.8520  136.2556  150.4529 H   0  0  0  0  0  0  0  0  0  0  0  0
  147.1327  134.3575  151.0268 H   0  0  0  0  0  0  0  0  0  0  0  0
  146.0055  133.2818  150.2419 H   0  0  0  0  0  0  0  0  0  0  0  0
  1  2  1  0  0  0  0
  1 24  1  0  0  0  0
  1 25  1  0  0  0  0
  1 26  1  0  0  0  0
  2  3  1  0  0  0  0
  2 27  1  0  0  0  0
  2 28  1  0  0  0  0
  3  4  1  0  0  0  0
  4 19  1  0  0  0  0
  4  5  1  0  0  0  0
  4 29  1  0  0  0  0
  5  6  1  0  0  0  0
  5 30  1  0  0  0  0
  5 31  1  0  0  0  0
  6  7  1  0  0  0  0
  6 19  1  0  0  0  0
  6 32  1  0  0  0  0
  7  8  1  0  0  0  0
  7 33  1  0  0  0  0
  8  9  2  0  0  0  0
  8 10  1  0  0  0  0
 10 11  1  0  0  0  0
 10 34  1  0  0  0  0
 11 17  1  0  0  0  0
 11 12  2  0  0  0  0
 12 13  1  0  0  0  0
 12 35  1  0  0  0  0
 13 14  2  0  0  0  0
 13 36  1  0  0  0  0
 14 15  1  0  0  0  0
 14 37  1  0  0  0  0
 15 16  1  0  0  0  0
 15 17  1  0  0  0  0
 16 38  1  0  0  0  0
 16 39  1  0  0  0  0
 16 40  1  0  0  0  0
 17 18  2  0  0  0  0
 19 23  1  0  0  0  0
 19 20  1  0  0  0  0
 20 21  1  0  0  0  0
 20 41  1  0  0  0  0
 20 42  1  0  0  0  0
 21 22  1  0  0  0  0
 21 43  1  0  0  0  0
 21 44  1  0  0  0  0
 22 23  1  0  0  0  0
 22 45  1  0  0  0  0
 22 46  1  0  0  0  0
 23 47  1  0  0  0  0
 23 48  1  0  0  0  0
M  END
> <s_m_source_file>
AV-unprocessed.smi

> <i_m_source_file_index>
709

> <i_lp_mmshare_version>
43012

> <i_f3d_flags>
0

> <s_epik_input>
W0NIMl0xW0NIMl1bQ0gyXVtDSDJdQzEyW0NASF0oT1tDSDJdW0NIM10pW0NIMl1bQ0BIXTJbTkhdQyg9TylbTkhdYzNbY0hdW2NIXVtjSF1uKFtDSDNdKWMzPU8=

> <s_epik_cmdline>
J2VwaWtfcHl0aG9uJywgJy1waCcsICc3LjAnLCAnLXRuJywgJzgnLCAnLW1hJywgJzIwMCcsICctbWV0YWxfYmluZGluZycsICctaW1hZScsICc8aW5maWxlLm1hZT4nLCAnLW9tYWUnLCAnPG91dGZpbGUubWFlPic=

> <r_lp_tautomer_probability>
1

> <r_epik_Ionization_Penalty>
2.50859e-05

> <r_epik_Ionization_Penalty_Charging>
5.10493e-06

> <r_epik_Ionization_Penalty_Neutral>
1.9981e-05

> <r_epik_State_Penalty>
-0

> <r_epik_Charging_Adjusted_Penalty>
5.10493e-06

> <i_epik_Tot_Q>
0

> <i_epik_Tot_abs_Q>
0

> <r_epik_Metal_State_Penalty>
-0

> <b_epik_Metal_Only>
0

> <s_lp_Force_Field>
OPLS_2005

> <r_lp_Energy>
49.4881

> <b_lp_Chiralities_Consistent>
1

> <s_lp_Variant>
AV-unprocessed.smi:709-2

> <Gold.Version>
5.8.1

> <Gold.Id.Protein>
6NUR|6NUR_protein|mol2

> <Gold.PLP.Fitness>
44.4248

> <Gold.PLP.PLP>
-37.0429

> <Gold.PLP.part.hbond>
-1.8389

> <Gold.PLP.part.metal>
0.0000

> <Gold.PLP.part.buried>
-1.2285

> <Gold.PLP.part.nonpolar>
-32.8057

> <Gold.PLP.part.repulsive>
0.3574

> <Gold.PLP.ligand.clash>
0.0000

> <Gold.PLP.ligand.torsion>
0.8949

> <Gold.PLP.Chemscore.Hbond>
1.9440

> <Gold.PLP.Chemscore.CHOScore>
1.0000

> <Gold.PLP.Chemscore.Metal>
0.0000

> <Gold.Chemscore.Hbonds>
donor molecule, donor type, donor heavy atom, donor atom, acceptor molecule, acceptor atom, score
      L1  H     7    33       P1  7948  1.00
      L1  H    10    34       P1  7948  1.00
      L1  C    14    37       P1  8028  1.00

> <Gold.PLP.Chemscore.Internal.Correction>
0.3397

> <Gold.Rescore>
     Score         DG    S(hbond)    S(metal)    S(lipo)     H(rot)  DE(clash)    DE(int)     intcor
     16.99     -18.25       1.85        0.00      85.98       1.36       0.11       1.15       ----

> <Gold.Chemscore.Fitness>
16.9857

> <Gold.Chemscore.DG>
-18.2475

> <Gold.Chemscore.ZeroCoef>
-5.4800

> <Gold.Chemscore.Hbond>
1.8529

> <Gold.Chemscore.Metal>
0.0000

> <Gold.Chemscore.Lipo>
85.9846

> <Gold.Chemscore.Internal_Hbond>
0.0000

> <Gold.Chemscore.DEClash>
0.1084

> <Gold.Chemscore.DEInternal>
1.1534

> <Gold.Chemscore.Rot>
1.3599

> <Gold.Chemscore.Internal.Correction>
   9.000000E+99

> <Gold.Chemscore.Hbonds>
donor molecule, donor type, donor heavy atom, donor atom, acceptor molecule, acceptor atom, score
      L1  H     7    33       P1  7948  0.98
      L1  H    10    34       P1  7948  0.98

> <Gold.Chemscore.Hbond.Weighted>
-6.1885

> <Gold.Chemscore.Metal.Weighted>
-0.0000

> <Gold.Chemscore.Lipo.Weighted>
-10.0602

> <Gold.Chemscore.Internal_Hbond.Weighted>
0.0000

> <Gold.Chemscore.DEClash.Weighted>
0.1084

> <Gold.Chemscore.DEInternal.Weighted>
1.1534

> <Gold.Chemscore.Rot.Weighted>
3.4813

> <Gold.Chemscore.Internal.Correction.Weighted>
   9.000000E+99

> <Gold.Protein.RotatedTorsions>
[ 6907 6896 6895 6894 ] final  175.52 input  -60.11 | X-H torsion
[ 7974 7965 7964 7962 ] final  161.97 input  175.53 | X-H torsion
[ 8008 7997 7996 7995 ] final  -96.15 input   59.86 | X-H torsion
[ 10167 10162 10161 10158 ] final  101.82 input  -65.29 | X-H torsion
[ 10718 10713 10712 10709 ] final  -29.73 input   66.30 | X-H torsion
[ 10763 10752 10751 10750 ] final   16.95 input  -60.55 | X-H torsion
[ 11005 11000 10999 10996 ] final  141.78 input  -57.11 | X-H torsion

> <Gold.Protein.ActiveResidues>
 VAL166  LYS551  ARG553  GLY616  TRP617  ASP618  TYR619  PRO620  LYS621  CYS622 
 ASP623  PHE694  ASN695  SER759  ASP760  ASP761  ALA762  ILE779  LEU786  VAL792 
 PHE793  MET794  SER795  GLU796  ALA797  LYS798  CYS799  TRP800  GLU811  SER814 

> <Gold.Protein.RotatedAtoms>
  151.7348  133.3319  159.3349 H   0  0  0  0  0  0  0  0  0  0  0  0  # atno 6907 bound_to 6896
  150.7597  134.6331  159.6206 H   0  0  0  0  0  0  0  0  0  0  0  0  # atno 6908 bound_to 6896
  152.3568  134.6930  160.0271 H   0  0  0  0  0  0  0  0  0  0  0  0  # atno 6909 bound_to 6896
  144.7659  139.7973  143.6315 H   0  0  0  0  0  0  0  0  0  0  0  0  # atno 7974 bound_to 7965
  154.7707  140.0474  157.1049 H   0  0  0  0  0  0  0  0  0  0  0  0  # atno 8008 bound_to 7997
  154.9824  140.3103  155.4921 H   0  0  0  0  0  0  0  0  0  0  0  0  # atno 8009 bound_to 7997
  156.2920  140.2233  156.4923 H   0  0  0  0  0  0  0  0  0  0  0  0  # atno 8010 bound_to 7997
  139.7404  144.7013  151.0584 H   0  0  0  0  0  0  0  0  0  0  0  0  # atno 10167 bound_to 10162
  156.4087  130.4404  149.7268 H   0  0  0  0  0  0  0  0  0  0  0  0  # atno 10718 bound_to 10713
  153.1383  135.6755  153.9067 H   0  0  0  0  0  0  0  0  0  0  0  0  # atno 10763 bound_to 10752
  153.8532  135.3090  155.3435 H   0  0  0  0  0  0  0  0  0  0  0  0  # atno 10764 bound_to 10752
  154.7766  135.4911  153.9841 H   0  0  0  0  0  0  0  0  0  0  0  0  # atno 10765 bound_to 10752
  140.0427  134.9296  157.0873 H   0  0  0  0  0  0  0  0  0  0  0  0  # atno 11005 bound_to 11000
  146.1767  139.4940  142.9893 LP  0  0  0  0  0  0  0  0  0  0  0  0  # atno 17320 bound_to 7965
  145.6470  141.0271  143.1781 LP  0  0  0  0  0  0  0  0  0  0  0  0  # atno 17321 bound_to 7965
  140.7785  143.4932  150.9867 LP  0  0  0  0  0  0  0  0  0  0  0  0  # atno 17342 bound_to 10162
  139.8620  143.7302  152.3173 LP  0  0  0  0  0  0  0  0  0  0  0  0  # atno 17343 bound_to 10162
  156.4255  130.7790  151.2808 LP  0  0  0  0  0  0  0  0  0  0  0  0  # atno 17370 bound_to 10713
  157.7506  131.0170  150.3566 LP  0  0  0  0  0  0  0  0  0  0  0  0  # atno 17371 bound_to 10713
  140.4043  134.2049  155.7163 LP  0  0  0  0  0  0  0  0  0  0  0  0  # atno 17394 bound_to 11000
  141.1891  133.8245  157.0969 LP  0  0  0  0  0  0  0  0  0  0  0  0  # atno 17395 bound_to 11000

$$$$
