AV-unprocessed.smi:559|AV-procd|sdf|2924|dock8
  -GOLD-   2262023413D 1   1.00000     0.00000
 Structure written by MMmdl.
 41 42  0  0  0  0  0  0  0  0  1 V2000
  153.0603  138.1361  155.6133 C   0  0  0  0  0  0  0  0  0  0  0  0
  152.0785  139.2648  155.7453 C   0  0  0  0  0  0  0  0  0  0  0  0
  152.3830  140.3039  156.5048 N   0  0  0  0  0  0  0  0  0  0  0  0
  151.3101  141.1160  156.4237 N   0  0  0  0  0  0  0  0  0  0  0  0
  151.3045  142.3644  157.1607 C   0  0  0  0  0  0  0  0  0  0  0  0
  150.3272  140.5904  155.6085 C   0  0  0  0  0  0  0  0  0  0  0  0
  149.0334  141.2981  155.3651 C   0  0  0  0  0  0  0  0  0  0  0  0
  150.7865  139.3827  155.1537 C   0  0  0  0  0  0  0  0  0  0  0  0
  150.0920  138.3853  154.2581 C   0  0  0  0  0  0  0  0  0  0  0  0
  149.3835  137.3382  155.1179 C   0  0  0  0  0  0  0  0  0  0  0  0
  149.4039  137.4334  156.3446 O   0  0  0  0  0  0  0  0  0  0  0  0
  148.7952  136.3260  154.4606 N   0  0  0  0  0  0  0  0  0  0  0  0
  148.2347  135.1282  155.0763 C   0  0  0  0  0  0  0  0  0  0  0  0
  149.2755  134.4258  155.9698 C   0  0  2  0  0  0  0  0  0  0  0  0
  150.6891  134.4432  155.3571 C   0  0  0  0  0  0  0  0  0  0  0  0
  151.5895  133.5146  156.1785 C   0  0  0  0  0  0  0  0  0  0  0  0
  150.5085  132.1463  156.7385 S   0  0  0  0  0  0  0  0  0  0  0  0
  150.6999  130.9792  155.8642 O   0  0  0  0  0  0  0  0  0  0  0  0
  150.6097  132.0223  158.2004 O   0  0  0  0  0  0  0  0  0  0  0  0
  148.9286  132.9631  156.3015 C   0  0  0  0  0  0  0  0  0  0  0  0
  152.6914  137.2404  156.1130 H   0  0  0  0  0  0  0  0  0  0  0  0
  154.0273  138.3869  156.0509 H   0  0  0  0  0  0  0  0  0  0  0  0
  153.2289  137.8867  154.5656 H   0  0  0  0  0  0  0  0  0  0  0  0
  151.1350  143.1952  156.4758 H   0  0  0  0  0  0  0  0  0  0  0  0
  152.2573  142.5167  157.6695 H   0  0  0  0  0  0  0  0  0  0  0  0
  150.5072  142.3454  157.9037 H   0  0  0  0  0  0  0  0  0  0  0  0
  148.4048  140.7450  154.6676 H   0  0  0  0  0  0  0  0  0  0  0  0
  149.2053  142.2891  154.9451 H   0  0  0  0  0  0  0  0  0  0  0  0
  148.4767  141.4153  156.2951 H   0  0  0  0  0  0  0  0  0  0  0  0
  149.3626  138.8758  153.6123 H   0  0  0  0  0  0  0  0  0  0  0  0
  150.7931  137.8791  153.5944 H   0  0  0  0  0  0  0  0  0  0  0  0
  148.8257  136.3434  153.4514 H   0  0  0  0  0  0  0  0  0  0  0  0
  147.3345  135.3619  155.6472 H   0  0  0  0  0  0  0  0  0  0  0  0
  147.9224  134.4555  154.2773 H   0  0  0  0  0  0  0  0  0  0  0  0
  149.3315  134.9659  156.9162 H   0  0  0  0  0  0  0  0  0  0  0  0
  150.6408  134.0714  154.3328 H   0  0  0  0  0  0  0  0  0  0  0  0
  151.0976  135.4530  155.3108 H   0  0  0  0  0  0  0  0  0  0  0  0
  152.4334  133.1227  155.6103 H   0  0  0  0  0  0  0  0  0  0  0  0
  151.9699  134.0268  157.0623 H   0  0  0  0  0  0  0  0  0  0  0  0
  148.2212  132.8705  157.1255 H   0  0  0  0  0  0  0  0  0  0  0  0
  148.5179  132.4492  155.4320 H   0  0  0  0  0  0  0  0  0  0  0  0
  1  2  1  0  0  0  0
  1 21  1  0  0  0  0
  1 22  1  0  0  0  0
  1 23  1  0  0  0  0
  2  8  1  0  0  0  0
  2  3  2  0  0  0  0
  3  4  1  0  0  0  0
  4  5  1  0  0  0  0
  4  6  1  0  0  0  0
  5 24  1  0  0  0  0
  5 25  1  0  0  0  0
  5 26  1  0  0  0  0
  6  7  1  0  0  0  0
  6  8  2  0  0  0  0
  7 27  1  0  0  0  0
  7 28  1  0  0  0  0
  7 29  1  0  0  0  0
  8  9  1  0  0  0  0
  9 10  1  0  0  0  0
  9 30  1  0  0  0  0
  9 31  1  0  0  0  0
 10 11  2  0  0  0  0
 10 12  1  0  0  0  0
 12 13  1  0  0  0  0
 12 32  1  0  0  0  0
 13 14  1  0  0  0  0
 13 33  1  0  0  0  0
 13 34  1  0  0  0  0
 14 20  1  0  0  0  0
 14 15  1  0  0  0  0
 14 35  1  0  0  0  0
 15 16  1  0  0  0  0
 15 36  1  0  0  0  0
 15 37  1  0  0  0  0
 16 17  1  0  0  0  0
 16 38  1  0  0  0  0
 16 39  1  0  0  0  0
 17 18  2  0  0  0  0
 17 19  2  0  0  0  0
 17 20  1  0  0  0  0
 20 40  1  0  0  0  0
 20 41  1  0  0  0  0
M  END
> <s_m_source_file>
AV-unprocessed.smi

> <i_m_source_file_index>
559

> <i_lp_mmshare_version>
43012

> <i_f3d_flags>
0

> <s_epik_input>
W0NIM11jMW5uKFtDSDNdKWMoW0NIM10pYzFbQ0gyXUMoPU8pW05IXVtDSDJdW0NAQEhdKFtDSDJdMilbQ0gyXVtDSDJdUzIoPU8pPU8=

> <s_epik_cmdline>
J2VwaWtfcHl0aG9uJywgJy1waCcsICc3LjAnLCAnLXRuJywgJzgnLCAnLW1hJywgJzIwMCcsICctbWV0YWxfYmluZGluZycsICctaW1hZScsICc8aW5maWxlLm1hZT4nLCAnLW9tYWUnLCAnPG91dGZpbGUubWFlPic=

> <r_lp_tautomer_probability>
1

> <r_epik_Ionization_Penalty>
0.00301269

> <r_epik_Ionization_Penalty_Charging>
0

> <r_epik_Ionization_Penalty_Neutral>
0.00301269

> <r_epik_State_Penalty>
0.00211587

> <r_epik_Charging_Adjusted_Penalty>
0.00211587

> <i_epik_Tot_Q>
0

> <i_epik_Tot_abs_Q>
0

> <r_epik_Metal_State_Penalty>
-0

> <b_epik_Metal_Only>
0

> <s_lp_Force_Field>
OPLS_2005

> <r_lp_Energy>
-3.01738

> <b_lp_Chiralities_Consistent>
1

> <s_lp_Variant>
AV-unprocessed.smi:559-1

> <Gold.Version>
5.8.1

> <Gold.Id.Protein>
6NUR|6NUR_protein|mol2

> <Gold.PLP.Fitness>
35.6267

> <Gold.PLP.PLP>
-27.7257

> <Gold.PLP.part.hbond>
-3.0000

> <Gold.PLP.part.metal>
0.0000

> <Gold.PLP.part.buried>
-2.6589

> <Gold.PLP.part.nonpolar>
-22.5720

> <Gold.PLP.part.repulsive>
0.0182

> <Gold.PLP.ligand.clash>
0.0000

> <Gold.PLP.ligand.torsion>
0.5566

> <Gold.PLP.Chemscore.Hbond>
3.0000

> <Gold.PLP.Chemscore.CHOScore>
0.0000

> <Gold.PLP.Chemscore.Metal>
0.0000

> <Gold.Chemscore.Hbonds>
donor molecule, donor type, donor heavy atom, donor atom, acceptor molecule, acceptor atom, score
      L1  H    12    32       P1  7948  1.00
      P1  H  6896  6908       L1    19  1.00
      P1  H  7997  8009       L1     3  0.94

> <Gold.PLP.Chemscore.Internal.Correction>
0.0142

> <Gold.Rescore>
     Score         DG    S(hbond)    S(metal)    S(lipo)     H(rot)  DE(clash)    DE(int)     intcor
     16.62     -18.66       2.74        0.00      70.40       1.64       0.43       1.61       ----

> <Gold.Chemscore.Fitness>
16.6178

> <Gold.Chemscore.DG>
-18.6619

> <Gold.Chemscore.ZeroCoef>
-5.4800

> <Gold.Chemscore.Hbond>
2.7372

> <Gold.Chemscore.Metal>
0.0000

> <Gold.Chemscore.Lipo>
70.4028

> <Gold.Chemscore.Internal_Hbond>
0.0000

> <Gold.Chemscore.DEClash>
0.4349

> <Gold.Chemscore.DEInternal>
1.6092

> <Gold.Chemscore.Rot>
1.6396

> <Gold.Chemscore.Internal.Correction>
   9.000000E+99

> <Gold.Chemscore.Hbonds>
donor molecule, donor type, donor heavy atom, donor atom, acceptor molecule, acceptor atom, score
      L1  H    12    32       P1  7948  0.98
      P1  H  6896  6908       L1    19  0.98
      P1  H  7997  8009       L1     3  0.20

> <Gold.Chemscore.Hbond.Weighted>
-9.1422

> <Gold.Chemscore.Metal.Weighted>
-0.0000

> <Gold.Chemscore.Lipo.Weighted>
-8.2371

> <Gold.Chemscore.Internal_Hbond.Weighted>
0.0000

> <Gold.Chemscore.DEClash.Weighted>
0.4349

> <Gold.Chemscore.DEInternal.Weighted>
1.6092

> <Gold.Chemscore.Rot.Weighted>
4.1974

> <Gold.Chemscore.Internal.Correction.Weighted>
   9.000000E+99

> <Gold.Protein.RotatedTorsions>
[ 6907 6896 6895 6894 ] final   85.69 input  -60.11 | X-H torsion
[ 7974 7965 7964 7962 ] final -145.95 input  175.53 | X-H torsion
[ 8008 7997 7996 7995 ] final -173.96 input   59.86 | X-H torsion
[ 10167 10162 10161 10158 ] final   77.45 input  -65.29 | X-H torsion
[ 10718 10713 10712 10709 ] final -161.61 input   66.30 | X-H torsion
[ 10763 10752 10751 10750 ] final -159.70 input  -60.55 | X-H torsion
[ 11005 11000 10999 10996 ] final    2.96 input  -57.11 | X-H torsion

> <Gold.Protein.ActiveResidues>
 VAL166  LYS551  ARG553  GLY616  TRP617  ASP618  TYR619  PRO620  LYS621  CYS622 
 ASP623  PHE694  ASN695  SER759  ASP760  ASP761  ALA762  ILE779  LEU786  VAL792 
 PHE793  MET794  SER795  GLU796  ALA797  LYS798  CYS799  TRP800  GLU811  SER814 

> <Gold.Protein.RotatedAtoms>
  152.5380  134.2546  159.8911 H   0  0  0  0  0  0  0  0  0  0  0  0  # atno 6907 bound_to 6896
  151.2508  133.4344  159.2619 H   0  0  0  0  0  0  0  0  0  0  0  0  # atno 6908 bound_to 6896
  151.0540  134.9706  159.8283 H   0  0  0  0  0  0  0  0  0  0  0  0  # atno 6909 bound_to 6896
  144.8192  140.5518  143.5590 H   0  0  0  0  0  0  0  0  0  0  0  0  # atno 7974 bound_to 7965
  155.9641  140.1150  157.0870 H   0  0  0  0  0  0  0  0  0  0  0  0  # atno 8008 bound_to 7997
  154.4139  140.1176  156.5285 H   0  0  0  0  0  0  0  0  0  0  0  0  # atno 8009 bound_to 7997
  155.6683  140.3473  155.4811 H   0  0  0  0  0  0  0  0  0  0  0  0  # atno 8010 bound_to 7997
  139.9814  144.5823  150.7897 H   0  0  0  0  0  0  0  0  0  0  0  0  # atno 10167 bound_to 10162
  156.5987  130.8801  151.2908 H   0  0  0  0  0  0  0  0  0  0  0  0  # atno 10718 bound_to 10713
  154.7452  135.3078  154.8657 H   0  0  0  0  0  0  0  0  0  0  0  0  # atno 10763 bound_to 10752
  153.9459  135.6769  153.4748 H   0  0  0  0  0  0  0  0  0  0  0  0  # atno 10764 bound_to 10752
  153.1049  135.4894  154.8860 H   0  0  0  0  0  0  0  0  0  0  0  0  # atno 10765 bound_to 10752
  140.5985  133.9858  155.8121 H   0  0  0  0  0  0  0  0  0  0  0  0  # atno 11005 bound_to 11000
  145.5144  139.1478  143.3587 LP  0  0  0  0  0  0  0  0  0  0  0  0  # atno 17320 bound_to 7965
  146.2497  140.5284  142.8899 LP  0  0  0  0  0  0  0  0  0  0  0  0  # atno 17321 bound_to 7965
  140.7487  143.2927  151.3286 LP  0  0  0  0  0  0  0  0  0  0  0  0  # atno 17342 bound_to 10162
  139.6407  144.0545  152.2552 LP  0  0  0  0  0  0  0  0  0  0  0  0  # atno 17343 bound_to 10162
  157.7285  130.9658  150.1746 LP  0  0  0  0  0  0  0  0  0  0  0  0  # atno 17370 bound_to 10713
  156.2488  130.3698  149.8255 LP  0  0  0  0  0  0  0  0  0  0  0  0  # atno 17371 bound_to 10713
  141.0888  133.9949  157.3270 LP  0  0  0  0  0  0  0  0  0  0  0  0  # atno 17394 bound_to 11000
  139.9243  135.0201  156.8177 LP  0  0  0  0  0  0  0  0  0  0  0  0  # atno 17395 bound_to 11000

$$$$
