AV-unprocessed.smi:1003|AV-procd|sdf|4360|dock10
  -GOLD-   22720 2263D 1   1.00000     0.00000
 Structure written by MMmdl.
 43 44  0  0  0  0  0  0  0  0  1 V2000
  144.1921  145.6808  157.0993 C   0  0  0  0  0  0  0  0  0  0  0  0
  143.9682  144.1848  156.8519 C   0  0  0  0  0  0  0  0  0  0  0  0
  144.8361  143.6553  155.7484 C   0  0  0  0  0  0  0  0  0  0  0  0
  145.7283  142.6133  156.0189 N   0  0  0  0  0  0  0  0  0  0  0  0
  146.4303  142.2440  154.9459 C   0  0  0  0  0  0  0  0  0  0  0  0
  147.4715  141.1766  154.9688 C   0  0  0  0  0  0  0  0  0  0  0  0
  148.8745  141.7206  154.6557 C   0  0  0  0  0  0  0  0  0  0  0  0
  149.5134  142.2725  155.8443 N   0  0  0  0  0  0  0  0  0  0  0  0
  150.4216  141.6329  156.5976 C   0  0  0  0  0  0  0  0  0  0  0  0
  150.8163  140.4921  156.3533 O   0  0  0  0  0  0  0  0  0  0  0  0
  150.9636  142.3962  157.8137 C   0  0  0  0  0  0  0  0  0  0  0  0
  151.5924  143.7406  157.3885 C   0  0  0  0  0  0  0  0  0  0  0  0
  152.1529  144.5045  158.5995 C   0  0  0  0  0  0  0  0  0  0  0  0
  153.1687  143.6504  159.3746 C   0  0  0  0  0  0  0  0  0  0  0  0
  152.5558  142.3059  159.7970 C   0  0  0  0  0  0  0  0  0  0  0  0
  151.9949  141.5443  158.5848 C   0  0  0  0  0  0  0  0  0  0  0  0
  146.0557  143.1933  153.5149 S   0  0  0  0  0  0  0  0  0  0  0  0
  144.8848  144.0927  154.4450 C   0  0  0  0  0  0  0  0  0  0  0  0
  144.0878  145.1860  153.8144 C   0  0  0  0  0  0  0  0  0  0  0  0
  143.5513  146.0422  157.9037 H   0  0  0  0  0  0  0  0  0  0  0  0
  143.9673  146.2642  156.2060 H   0  0  0  0  0  0  0  0  0  0  0  0
  145.2259  145.8829  157.3810 H   0  0  0  0  0  0  0  0  0  0  0  0
  144.1641  143.6377  157.7747 H   0  0  0  0  0  0  0  0  0  0  0  0
  142.9162  144.0114  156.6239 H   0  0  0  0  0  0  0  0  0  0  0  0
  147.4636  140.6997  155.9499 H   0  0  0  0  0  0  0  0  0  0  0  0
  147.1906  140.4087  154.2472 H   0  0  0  0  0  0  0  0  0  0  0  0
  149.5011  140.9387  154.2230 H   0  0  0  0  0  0  0  0  0  0  0  0
  148.8073  142.5128  153.9093 H   0  0  0  0  0  0  0  0  0  0  0  0
  149.2455  143.2078  156.1148 H   0  0  0  0  0  0  0  0  0  0  0  0
  150.1295  142.6094  158.4852 H   0  0  0  0  0  0  0  0  0  0  0  0
  152.3962  143.5703  156.6702 H   0  0  0  0  0  0  0  0  0  0  0  0
  150.8510  144.3583  156.8797 H   0  0  0  0  0  0  0  0  0  0  0  0
  152.6223  145.4314  158.2693 H   0  0  0  0  0  0  0  0  0  0  0  0
  151.3352  144.7908  159.2621 H   0  0  0  0  0  0  0  0  0  0  0  0
  154.0463  143.4721  158.7516 H   0  0  0  0  0  0  0  0  0  0  0  0
  153.5183  144.1933  160.2532 H   0  0  0  0  0  0  0  0  0  0  0  0
  153.3065  141.6982  160.3030 H   0  0  0  0  0  0  0  0  0  0  0  0
  151.7586  142.4788  160.5210 H   0  0  0  0  0  0  0  0  0  0  0  0
  151.5373  140.6129  158.9206 H   0  0  0  0  0  0  0  0  0  0  0  0
  152.8186  141.2620  157.9268 H   0  0  0  0  0  0  0  0  0  0  0  0
  144.0676  146.0699  154.4522 H   0  0  0  0  0  0  0  0  0  0  0  0
  143.0594  144.8657  153.6470 H   0  0  0  0  0  0  0  0  0  0  0  0
  144.5103  145.4784  152.8528 H   0  0  0  0  0  0  0  0  0  0  0  0
  1  2  1  0  0  0  0
  1 20  1  0  0  0  0
  1 21  1  0  0  0  0
  1 22  1  0  0  0  0
  2  3  1  0  0  0  0
  2 23  1  0  0  0  0
  2 24  1  0  0  0  0
  3 18  2  0  0  0  0
  3  4  1  0  0  0  0
  4  5  2  0  0  0  0
  5  6  1  0  0  0  0
  5 17  1  0  0  0  0
  6  7  1  0  0  0  0
  6 25  1  0  0  0  0
  6 26  1  0  0  0  0
  7  8  1  0  0  0  0
  7 27  1  0  0  0  0
  7 28  1  0  0  0  0
  8  9  1  0  0  0  0
  8 29  1  0  0  0  0
  9 10  2  0  0  0  0
  9 11  1  0  0  0  0
 11 16  1  0  0  0  0
 11 12  1  0  0  0  0
 11 30  1  0  0  0  0
 12 13  1  0  0  0  0
 12 31  1  0  0  0  0
 12 32  1  0  0  0  0
 13 14  1  0  0  0  0
 13 33  1  0  0  0  0
 13 34  1  0  0  0  0
 14 15  1  0  0  0  0
 14 35  1  0  0  0  0
 14 36  1  0  0  0  0
 15 16  1  0  0  0  0
 15 37  1  0  0  0  0
 15 38  1  0  0  0  0
 16 39  1  0  0  0  0
 16 40  1  0  0  0  0
 17 18  1  0  0  0  0
 18 19  1  0  0  0  0
 19 41  1  0  0  0  0
 19 42  1  0  0  0  0
 19 43  1  0  0  0  0
M  END
> <s_m_source_file>
AV-unprocessed.smi

> <i_m_source_file_index>
1003

> <i_lp_mmshare_version>
43012

> <i_f3d_flags>
0

> <s_epik_input>
W0NIM11bQ0gyXWMxbmMoc2MxW0NIM10pW0NIMl1bQ0gyXVtOSF1DKD1PKVtDSF0yW0NIMl1bQ0gyXVtDSDJdW0NIMl1bQ0gyXTI=

> <s_epik_cmdline>
J2VwaWtfcHl0aG9uJywgJy1waCcsICc3LjAnLCAnLXRuJywgJzgnLCAnLW1hJywgJzIwMCcsICctbWV0YWxfYmluZGluZycsICctaW1hZScsICc8aW5maWxlLm1hZT4nLCAnLW9tYWUnLCAnPG91dGZpbGUubWFlPic=

> <r_epik_Ionization_Penalty>
0.00242092

> <r_epik_Ionization_Penalty_Charging>
0

> <r_epik_Ionization_Penalty_Neutral>
0.00242092

> <r_epik_State_Penalty>
0.00167523

> <r_epik_Charging_Adjusted_Penalty>
0.00167523

> <i_epik_Tot_Q>
0

> <i_epik_Tot_abs_Q>
0

> <r_epik_Metal_State_Penalty>
-0

> <b_epik_Metal_Only>
0

> <s_lp_Force_Field>
OPLS_2005

> <r_lp_Energy>
0.647585

> <b_lp_Chiralities_Consistent>
1

> <s_lp_Variant>
AV-unprocessed.smi:1003-1

> <Gold.Version>
5.8.1

> <Gold.Id.Protein>
6NUR|6NUR_protein|mol2

> <Gold.PLP.Fitness>
45.4675

> <Gold.PLP.PLP>
-43.1101

> <Gold.PLP.part.hbond>
-1.0000

> <Gold.PLP.part.metal>
0.0000

> <Gold.PLP.part.buried>
-6.0819

> <Gold.PLP.part.nonpolar>
-36.5572

> <Gold.PLP.part.repulsive>
0.2781

> <Gold.PLP.ligand.clash>
0.0000

> <Gold.PLP.ligand.torsion>
0.2965

> <Gold.PLP.Chemscore.Hbond>
0.9760

> <Gold.PLP.Chemscore.CHOScore>
0.0000

> <Gold.PLP.Chemscore.Metal>
0.0000

> <Gold.Chemscore.Hbonds>
donor molecule, donor type, donor heavy atom, donor atom, acceptor molecule, acceptor atom, score
      L1  H     8    29       P1  8028  0.96

> <Gold.PLP.Chemscore.Internal.Correction>
0.0224

> <Gold.Rescore>
     Score         DG    S(hbond)    S(metal)    S(lipo)     H(rot)  DE(clash)    DE(int)     intcor
     18.12     -18.54       0.97        0.00     114.56       1.40       0.07       0.35       ----

> <Gold.Chemscore.Fitness>
18.1198

> <Gold.Chemscore.DG>
-18.5403

> <Gold.Chemscore.ZeroCoef>
-5.4800

> <Gold.Chemscore.Hbond>
0.9694

> <Gold.Chemscore.Metal>
0.0000

> <Gold.Chemscore.Lipo>
114.5603

> <Gold.Chemscore.Internal_Hbond>
0.0000

> <Gold.Chemscore.DEClash>
0.0723

> <Gold.Chemscore.DEInternal>
0.3482

> <Gold.Chemscore.Rot>
1.3988

> <Gold.Chemscore.Internal.Correction>
   9.000000E+99

> <Gold.Chemscore.Hbonds>
donor molecule, donor type, donor heavy atom, donor atom, acceptor molecule, acceptor atom, score
      L1  H     8    29       P1  8028  0.91

> <Gold.Chemscore.Hbond.Weighted>
-3.2377

> <Gold.Chemscore.Metal.Weighted>
-0.0000

> <Gold.Chemscore.Lipo.Weighted>
-13.4036

> <Gold.Chemscore.Internal_Hbond.Weighted>
0.0000

> <Gold.Chemscore.DEClash.Weighted>
0.0723

> <Gold.Chemscore.DEInternal.Weighted>
0.3482

> <Gold.Chemscore.Rot.Weighted>
3.5810

> <Gold.Chemscore.Internal.Correction.Weighted>
   9.000000E+99

> <Gold.Protein.RotatedTorsions>
[ 6907 6896 6895 6894 ] final  -41.47 input  -60.11 | X-H torsion
[ 7974 7965 7964 7962 ] final  164.39 input  175.53 | X-H torsion
[ 8008 7997 7996 7995 ] final  120.01 input   59.86 | X-H torsion
[ 10167 10162 10161 10158 ] final -118.09 input  -65.29 | X-H torsion
[ 10718 10713 10712 10709 ] final   81.59 input   66.30 | X-H torsion
[ 10763 10752 10751 10750 ] final -160.42 input  -60.55 | X-H torsion
[ 11005 11000 10999 10996 ] final  -42.86 input  -57.11 | X-H torsion

> <Gold.Protein.ActiveResidues>
 VAL166  LYS551  ARG553  GLY616  TRP617  ASP618  TYR619  PRO620  LYS621  CYS622 
 ASP623  PHE694  ASN695  SER759  ASP760  ASP761  ALA762  ILE779  LEU786  VAL792 
 PHE793  MET794  SER795  GLU796  ALA797  LYS798  CYS799  TRP800  GLU811  SER814 

> <Gold.Protein.RotatedAtoms>
  150.9663  134.9043  159.7760 H   0  0  0  0  0  0  0  0  0  0  0  0  # atno 6907 bound_to 6896
  152.5174  134.3602  159.9292 H   0  0  0  0  0  0  0  0  0  0  0  0  # atno 6908 bound_to 6896
  151.3613  133.3848  159.2724 H   0  0  0  0  0  0  0  0  0  0  0  0  # atno 6909 bound_to 6896
  144.7547  139.8319  143.6354 H   0  0  0  0  0  0  0  0  0  0  0  0  # atno 7974 bound_to 7965
  156.2623  140.2840  156.1082 H   0  0  0  0  0  0  0  0  0  0  0  0  # atno 8008 bound_to 7997
  155.1286  140.0393  157.2786 H   0  0  0  0  0  0  0  0  0  0  0  0  # atno 8009 bound_to 7997
  154.6617  140.2568  155.7108 H   0  0  0  0  0  0  0  0  0  0  0  0  # atno 8010 bound_to 7997
  140.0612  143.4966  152.2030 H   0  0  0  0  0  0  0  0  0  0  0  0  # atno 10167 bound_to 10162
  157.6837  131.0011  150.2249 H   0  0  0  0  0  0  0  0  0  0  0  0  # atno 10718 bound_to 10713
  154.7392  135.3064  154.8758 H   0  0  0  0  0  0  0  0  0  0  0  0  # atno 10763 bound_to 10752
  153.9578  135.6756  153.4749 H   0  0  0  0  0  0  0  0  0  0  0  0  # atno 10764 bound_to 10752
  153.0992  135.4920  154.8759 H   0  0  0  0  0  0  0  0  0  0  0  0  # atno 10765 bound_to 10752
  141.0345  133.6806  156.2654 H   0  0  0  0  0  0  0  0  0  0  0  0  # atno 11005 bound_to 11000
  146.1543  139.4636  143.0029 LP  0  0  0  0  0  0  0  0  0  0  0  0  # atno 17320 bound_to 7965
  145.6819  141.0188  143.1601 LP  0  0  0  0  0  0  0  0  0  0  0  0  # atno 17321 bound_to 7965
  139.5892  144.7543  151.3442 LP  0  0  0  0  0  0  0  0  0  0  0  0  # atno 17342 bound_to 10162
  140.7171  143.7238  150.7676 LP  0  0  0  0  0  0  0  0  0  0  0  0  # atno 17343 bound_to 10162
  156.2893  130.3743  149.7857 LP  0  0  0  0  0  0  0  0  0  0  0  0  # atno 17370 bound_to 10713
  156.5521  130.8346  151.3303 LP  0  0  0  0  0  0  0  0  0  0  0  0  # atno 17371 bound_to 10713
  140.6347  134.5227  157.5563 LP  0  0  0  0  0  0  0  0  0  0  0  0  # atno 17394 bound_to 11000
  139.9231  134.8110  156.1151 LP  0  0  0  0  0  0  0  0  0  0  0  0  # atno 17395 bound_to 11000

$$$$
