AV-unprocessed.smi:3281|AV-procd|sdf|12558|dock1
  -GOLD-   2272018473D 1   1.00000     0.00000
 Structure written by MMmdl.
 36 37  0  0  0  0  0  0  0  0  1 V2000
  149.3771  134.8731  154.9335 C   0  0  0  0  0  0  0  0  0  0  0  0
  150.7361  135.5653  155.0842 C   0  0  0  0  0  0  0  0  0  0  0  0
  150.6456  137.0546  155.0284 C   0  0  0  0  0  0  0  0  0  0  0  0
  151.2883  137.9008  154.1589 C   0  0  0  0  0  0  0  0  0  0  0  0
  151.0031  139.2514  154.3702 N   0  0  0  0  0  0  0  0  0  0  0  0
  150.1444  139.4407  155.3754 C   0  0  0  0  0  0  0  0  0  0  0  0
  149.6979  140.7888  155.8429 C   0  0  0  0  0  0  0  0  0  0  0  0
  150.8157  141.5966  156.5213 C   0  0  0  0  0  0  0  0  0  0  0  0
  150.2700  142.7839  157.1656 N   0  0  0  0  0  0  0  0  0  0  0  0
  151.2285  143.4192  158.0604 C   0  0  2  0  0  0  0  0  0  0  0  0
  151.5489  142.4184  159.1876 C   0  0  0  0  0  0  0  0  0  0  0  0
  152.5988  142.9565  160.1727 C   0  0  0  0  0  0  0  0  0  0  0  0
  152.1310  144.2333  160.8844 C   0  0  0  0  0  0  0  0  0  0  0  0
  151.8384  145.5745  159.7000 S   0  0  0  0  0  0  0  0  0  0  0  0
  150.6459  144.7327  158.6237 C   0  0  0  0  0  0  0  0  0  0  0  0
  149.6467  137.9421  156.1510 S   0  0  0  0  0  0  0  0  0  0  0  0
  149.4853  133.7896  154.9845 H   0  0  0  0  0  0  0  0  0  0  0  0
  148.9137  135.1164  153.9769 H   0  0  0  0  0  0  0  0  0  0  0  0
  148.6915  135.1772  155.7248 H   0  0  0  0  0  0  0  0  0  0  0  0
  151.1904  135.2628  156.0282 H   0  0  0  0  0  0  0  0  0  0  0  0
  151.4085  135.2152  154.3005 H   0  0  0  0  0  0  0  0  0  0  0  0
  151.9686  137.6286  153.3655 H   0  0  0  0  0  0  0  0  0  0  0  0
  149.2894  141.3431  154.9965 H   0  0  0  0  0  0  0  0  0  0  0  0
  148.8745  140.6500  156.5438 H   0  0  0  0  0  0  0  0  0  0  0  0
  151.3117  140.9823  157.2735 H   0  0  0  0  0  0  0  0  0  0  0  0
  151.5672  141.8674  155.7803 H   0  0  0  0  0  0  0  0  0  0  0  0
  149.9532  143.4465  156.4715 H   0  0  0  0  0  0  0  0  0  0  0  0
  152.1480  143.6249  157.5098 H   0  0  0  0  0  0  0  0  0  0  0  0
  150.6386  142.1612  159.7314 H   0  0  0  0  0  0  0  0  0  0  0  0
  151.9186  141.4874  158.7554 H   0  0  0  0  0  0  0  0  0  0  0  0
  152.8183  142.1908  160.9174 H   0  0  0  0  0  0  0  0  0  0  0  0
  153.5351  143.1488  159.6472 H   0  0  0  0  0  0  0  0  0  0  0  0
  151.2131  144.0440  161.4416 H   0  0  0  0  0  0  0  0  0  0  0  0
  152.8811  144.5604  161.6047 H   0  0  0  0  0  0  0  0  0  0  0  0
  150.3773  145.4249  157.8262 H   0  0  0  0  0  0  0  0  0  0  0  0
  149.7363  144.5365  159.1926 H   0  0  0  0  0  0  0  0  0  0  0  0
  1  2  1  0  0  0  0
  1 17  1  0  0  0  0
  1 18  1  0  0  0  0
  1 19  1  0  0  0  0
  2  3  1  0  0  0  0
  2 20  1  0  0  0  0
  2 21  1  0  0  0  0
  3 16  1  0  0  0  0
  3  4  2  0  0  0  0
  4  5  1  0  0  0  0
  4 22  1  0  0  0  0
  5  6  2  0  0  0  0
  6  7  1  0  0  0  0
  6 16  1  0  0  0  0
  7  8  1  0  0  0  0
  7 23  1  0  0  0  0
  7 24  1  0  0  0  0
  8  9  1  0  0  0  0
  8 25  1  0  0  0  0
  8 26  1  0  0  0  0
  9 10  1  0  0  0  0
  9 27  1  0  0  0  0
 10 15  1  0  0  0  0
 10 11  1  0  0  0  0
 10 28  1  0  0  0  0
 11 12  1  0  0  0  0
 11 29  1  0  0  0  0
 11 30  1  0  0  0  0
 12 13  1  0  0  0  0
 12 31  1  0  0  0  0
 12 32  1  0  0  0  0
 13 14  1  0  0  0  0
 13 33  1  0  0  0  0
 13 34  1  0  0  0  0
 14 15  1  0  0  0  0
 15 35  1  0  0  0  0
 15 36  1  0  0  0  0
M  END
> <s_m_source_file>
AV-unprocessed.smi

> <i_m_source_file_index>
3281

> <i_lp_mmshare_version>
43012

> <i_f3d_flags>
0

> <s_epik_input>
W0NIM11bQ0gyXWMxW2NIXW5jKHMxKVtDSDJdW0NIMl1bTkhdW0NAQEhdMltDSDJdW0NIMl1bQ0gyXVNbQ0gyXTI=

> <s_epik_cmdline>
J2VwaWtfcHl0aG9uJywgJy1waCcsICc3LjAnLCAnLXRuJywgJzgnLCAnLW1hJywgJzIwMCcsICctbWV0YWxfYmluZGluZycsICctaW1hZScsICc8aW5maWxlLm1hZT4nLCAnLW9tYWUnLCAnPG91dGZpbGUubWFlPic=

> <r_epik_Ionization_Penalty>
2.53829

> <r_epik_Ionization_Penalty_Charging>
0

> <r_epik_Ionization_Penalty_Neutral>
2.53829

> <r_epik_State_Penalty>
2.70274

> <r_epik_Charging_Adjusted_Penalty>
2.70274

> <i_epik_Tot_Q>
0

> <i_epik_Tot_abs_Q>
0

> <r_epik_Metal_State_Penalty>
2.69977

> <b_epik_Metal_Only>
0

> <s_lp_Force_Field>
OPLS_2005

> <r_lp_Energy>
0.229732

> <b_lp_Chiralities_Consistent>
1

> <s_lp_Variant>
AV-unprocessed.smi:3281-3

> <Gold.Version>
5.8.1

> <Gold.Id.Protein>
6NUR|6NUR_protein|mol2

> <Gold.PLP.Fitness>
44.1935

> <Gold.PLP.PLP>
-36.0631

> <Gold.PLP.part.hbond>
-2.0000

> <Gold.PLP.part.metal>
0.0000

> <Gold.PLP.part.buried>
-3.8980

> <Gold.PLP.part.nonpolar>
-30.9601

> <Gold.PLP.part.repulsive>
0.1535

> <Gold.PLP.ligand.clash>
0.0000

> <Gold.PLP.ligand.torsion>
0.1739

> <Gold.PLP.Chemscore.Hbond>
2.0000

> <Gold.PLP.Chemscore.CHOScore>
0.7829

> <Gold.PLP.Chemscore.Metal>
0.0000

> <Gold.Chemscore.Hbonds>
donor molecule, donor type, donor heavy atom, donor atom, acceptor molecule, acceptor atom, score
      L1  H     9    27       P1  8028  1.00
      P1  H  7989  7998       L1     5  1.00
      L1  C     4    22       P1  7949  0.64

> <Gold.PLP.Chemscore.Internal.Correction>
0.1295

> <Gold.Rescore>
     Score         DG    S(hbond)    S(metal)    S(lipo)     H(rot)  DE(clash)    DE(int)     intcor
     21.75     -22.01       1.98        0.00     113.18       1.30       0.07       0.19       ----

> <Gold.Chemscore.Fitness>
21.7476

> <Gold.Chemscore.DG>
-22.0082

> <Gold.Chemscore.ZeroCoef>
-5.4800

> <Gold.Chemscore.Hbond>
1.9783

> <Gold.Chemscore.Metal>
0.0000

> <Gold.Chemscore.Lipo>
113.1762

> <Gold.Chemscore.Internal_Hbond>
0.0000

> <Gold.Chemscore.DEClash>
0.0700

> <Gold.Chemscore.DEInternal>
0.1907

> <Gold.Chemscore.Rot>
1.2972

> <Gold.Chemscore.Internal.Correction>
   9.000000E+99

> <Gold.Chemscore.Hbonds>
donor molecule, donor type, donor heavy atom, donor atom, acceptor molecule, acceptor atom, score
      L1  H     9    27       P1  8028  0.99
      P1  H  7989  7998       L1     5  0.92

> <Gold.Chemscore.Hbond.Weighted>
-6.6074

> <Gold.Chemscore.Metal.Weighted>
-0.0000

> <Gold.Chemscore.Lipo.Weighted>
-13.2416

> <Gold.Chemscore.Internal_Hbond.Weighted>
0.0000

> <Gold.Chemscore.DEClash.Weighted>
0.0700

> <Gold.Chemscore.DEInternal.Weighted>
0.1907

> <Gold.Chemscore.Rot.Weighted>
3.3208

> <Gold.Chemscore.Internal.Correction.Weighted>
   9.000000E+99

> <Gold.Protein.RotatedTorsions>
[ 6907 6896 6895 6894 ] final  124.14 input  -60.11 | X-H torsion
[ 7974 7965 7964 7962 ] final  -74.29 input  175.53 | X-H torsion
[ 8008 7997 7996 7995 ] final  164.75 input   59.86 | X-H torsion
[ 10167 10162 10161 10158 ] final -120.84 input  -65.29 | X-H torsion
[ 10718 10713 10712 10709 ] final -131.36 input   66.30 | X-H torsion
[ 10763 10752 10751 10750 ] final  -65.43 input  -60.55 | X-H torsion
[ 11005 11000 10999 10996 ] final  -33.28 input  -57.11 | X-H torsion

> <Gold.Protein.ActiveResidues>
 VAL166  LYS551  ARG553  GLY616  TRP617  ASP618  TYR619  PRO620  LYS621  CYS622 
 ASP623  PHE694  ASN695  SER759  ASP760  ASP761  ALA762  ILE779  LEU786  VAL792 
 PHE793  MET794  SER795  GLU796  ALA797  LYS798  CYS799  TRP800  GLU811  SER814 

> <Gold.Protein.RotatedAtoms>
  152.4103  133.6952  159.6391 H   0  0  0  0  0  0  0  0  0  0  0  0  # atno 6907 bound_to 6896
  150.7984  133.8636  159.3247 H   0  0  0  0  0  0  0  0  0  0  0  0  # atno 6908 bound_to 6896
  151.6380  135.1017  160.0187 H   0  0  0  0  0  0  0  0  0  0  0  0  # atno 6909 bound_to 6896
  145.6410  140.9311  143.1036 H   0  0  0  0  0  0  0  0  0  0  0  0  # atno 7974 bound_to 7965
  156.1855  140.1688  156.8193 H   0  0  0  0  0  0  0  0  0  0  0  0  # atno 8008 bound_to 7997
  154.5409  140.0737  156.8540 H   0  0  0  0  0  0  0  0  0  0  0  0  # atno 8009 bound_to 7997
  155.3217  140.3374  155.4243 H   0  0  0  0  0  0  0  0  0  0  0  0  # atno 8010 bound_to 7997
  140.0314  143.5244  152.2174 H   0  0  0  0  0  0  0  0  0  0  0  0  # atno 10167 bound_to 10162
  156.2237  130.6994  151.0784 H   0  0  0  0  0  0  0  0  0  0  0  0  # atno 10718 bound_to 10713
  154.3449  135.6149  153.5614 H   0  0  0  0  0  0  0  0  0  0  0  0  # atno 10763 bound_to 10752
  152.9802  135.5778  154.4810 H   0  0  0  0  0  0  0  0  0  0  0  0  # atno 10764 bound_to 10752
  154.4521  135.2853  155.1751 H   0  0  0  0  0  0  0  0  0  0  0  0  # atno 10765 bound_to 10752
  140.9622  133.7158  156.1387 H   0  0  0  0  0  0  0  0  0  0  0  0  # atno 11005 bound_to 11000
  144.7157  139.8204  143.7399 LP  0  0  0  0  0  0  0  0  0  0  0  0  # atno 17320 bound_to 7965
  146.1281  139.4311  143.0186 LP  0  0  0  0  0  0  0  0  0  0  0  0  # atno 17321 bound_to 7965
  139.6073  144.7599  151.3032 LP  0  0  0  0  0  0  0  0  0  0  0  0  # atno 17342 bound_to 10162
  140.7300  143.6892  150.7936 LP  0  0  0  0  0  0  0  0  0  0  0  0  # atno 17343 bound_to 10162
  157.7100  131.0739  150.6534 LP  0  0  0  0  0  0  0  0  0  0  0  0  # atno 17370 bound_to 10713
  156.6599  130.4509  149.5691 LP  0  0  0  0  0  0  0  0  0  0  0  0  # atno 17371 bound_to 10713
  140.7451  134.4107  157.5549 LP  0  0  0  0  0  0  0  0  0  0  0  0  # atno 17394 bound_to 11000
  139.8882  134.8863  156.2487 LP  0  0  0  0  0  0  0  0  0  0  0  0  # atno 17395 bound_to 11000

$$$$
