AV-unprocessed.smi:746|AV-procd|sdf|3576|dock7
  -GOLD-   22720 0573D 1   1.00000     0.00000
 Structure written by MMmdl.
 48 50  0  0  0  0  0  0  0  0  1 V2000
  151.1691  131.3400  156.9075 C   0  0  0  0  0  0  0  0  0  0  0  0
  151.9307  132.1283  157.8052 O   0  0  0  0  0  0  0  0  0  0  0  0
  153.2519  132.3544  157.3429 C   0  0  0  0  0  0  0  0  0  0  0  0
  153.7817  133.6515  157.9600 C   0  0  0  0  0  0  0  0  0  0  0  0
  153.3648  134.7476  157.1513 O   0  0  0  0  0  0  0  0  0  0  0  0
  153.3280  136.0062  157.7159 C   0  0  0  0  0  0  0  0  0  0  0  0
  152.9790  137.1009  156.9002 C   0  0  0  0  0  0  0  0  0  0  0  0
  152.9412  138.3892  157.4674 C   0  0  0  0  0  0  0  0  0  0  0  0
  153.2640  138.5426  158.8367 C   0  0  0  0  0  0  0  0  0  0  0  0
  153.2439  139.7820  159.5308 N   0  0  0  0  0  0  0  0  0  0  0  0
  152.9311  141.0070  159.0631 C   0  0  0  0  0  0  0  0  0  0  0  0
  152.4789  141.2044  157.9360 O   0  0  0  0  0  0  0  0  0  0  0  0
  153.0578  141.9825  159.9984 N   0  0  0  0  0  0  0  0  0  0  0  0
  153.7788  141.7855  161.2766 C   0  0  0  0  0  0  0  0  0  0  0  0
  152.9492  142.3152  162.4658 C   0  0  0  0  0  0  0  0  0  0  0  0
  152.5534  143.7898  162.2648 C   0  0  0  0  0  0  0  0  0  0  0  0
  151.8985  143.9536  160.8879 C   0  0  1  0  0  0  0  0  0  0  0  0
  151.5706  145.3772  160.4343 C   0  0  0  0  0  0  0  0  0  0  0  0
  151.5383  145.2968  158.8963 C   0  0  0  0  0  0  0  0  0  0  0  0
  152.0486  143.8928  158.5245 C   0  0  0  0  0  0  0  0  0  0  0  0
  152.8057  143.4217  159.7774 C   0  0  2  0  0  0  0  0  0  0  0  0
  153.5829  137.3815  159.5701 C   0  0  0  0  0  0  0  0  0  0  0  0
  153.6223  136.1443  159.0323 N   0  0  0  0  0  0  0  0  0  0  0  0
  150.1653  131.1961  157.3071 H   0  0  0  0  0  0  0  0  0  0  0  0
  151.6195  130.3564  156.7670 H   0  0  0  0  0  0  0  0  0  0  0  0
  151.0776  131.8259  155.9352 H   0  0  0  0  0  0  0  0  0  0  0  0
  153.8960  131.5188  157.6212 H   0  0  0  0  0  0  0  0  0  0  0  0
  153.2595  132.4296  156.2543 H   0  0  0  0  0  0  0  0  0  0  0  0
  153.3944  133.7589  158.9747 H   0  0  0  0  0  0  0  0  0  0  0  0
  154.8710  133.6136  158.0153 H   0  0  0  0  0  0  0  0  0  0  0  0
  152.7395  136.9548  155.8573 H   0  0  0  0  0  0  0  0  0  0  0  0
  152.6529  139.2242  156.8482 H   0  0  0  0  0  0  0  0  0  0  0  0
  153.6182  139.7575  160.4682 H   0  0  0  0  0  0  0  0  0  0  0  0
  154.0541  140.7482  161.4689 H   0  0  0  0  0  0  0  0  0  0  0  0
  154.7264  142.3240  161.2260 H   0  0  0  0  0  0  0  0  0  0  0  0
  152.0496  141.7080  162.5763 H   0  0  0  0  0  0  0  0  0  0  0  0
  153.5118  142.2050  163.3933 H   0  0  0  0  0  0  0  0  0  0  0  0
  151.8744  144.1143  163.0537 H   0  0  0  0  0  0  0  0  0  0  0  0
  153.4414  144.4198  162.3323 H   0  0  0  0  0  0  0  0  0  0  0  0
  150.9701  143.3781  160.8815 H   0  0  0  0  0  0  0  0  0  0  0  0
  150.6286  145.7337  160.8526 H   0  0  0  0  0  0  0  0  0  0  0  0
  152.3552  146.0660  160.7501 H   0  0  0  0  0  0  0  0  0  0  0  0
  150.5326  145.4583  158.5068 H   0  0  0  0  0  0  0  0  0  0  0  0
  152.1811  146.0670  158.4687 H   0  0  0  0  0  0  0  0  0  0  0  0
  151.1938  143.2450  158.3244 H   0  0  0  0  0  0  0  0  0  0  0  0
  152.6768  143.9082  157.6333 H   0  0  0  0  0  0  0  0  0  0  0  0
  153.7643  143.9442  159.8056 H   0  0  0  0  0  0  0  0  0  0  0  0
  153.8208  137.4459  160.6218 H   0  0  0  0  0  0  0  0  0  0  0  0
  1  2  1  0  0  0  0
  1 24  1  0  0  0  0
  1 25  1  0  0  0  0
  1 26  1  0  0  0  0
  2  3  1  0  0  0  0
  3  4  1  0  0  0  0
  3 27  1  0  0  0  0
  3 28  1  0  0  0  0
  4  5  1  0  0  0  0
  4 29  1  0  0  0  0
  4 30  1  0  0  0  0
  5  6  1  0  0  0  0
  6 23  1  0  0  0  0
  6  7  2  0  0  0  0
  7  8  1  0  0  0  0
  7 31  1  0  0  0  0
  8  9  2  0  0  0  0
  8 32  1  0  0  0  0
  9 10  1  0  0  0  0
  9 22  1  0  0  0  0
 10 11  1  0  0  0  0
 10 33  1  0  0  0  0
 11 12  2  0  0  0  0
 11 13  1  0  0  0  0
 13 21  1  0  0  0  0
 13 14  1  0  0  0  0
 14 15  1  0  0  0  0
 14 34  1  0  0  0  0
 14 35  1  0  0  0  0
 15 16  1  0  0  0  0
 15 36  1  0  0  0  0
 15 37  1  0  0  0  0
 16 17  1  0  0  0  0
 16 38  1  0  0  0  0
 16 39  1  0  0  0  0
 17 21  1  0  0  0  0
 17 18  1  0  0  0  0
 17 40  1  0  0  0  0
 18 19  1  0  0  0  0
 18 41  1  0  0  0  0
 18 42  1  0  0  0  0
 19 20  1  0  0  0  0
 19 43  1  0  0  0  0
 19 44  1  0  0  0  0
 20 21  1  0  0  0  0
 20 45  1  0  0  0  0
 20 46  1  0  0  0  0
 21 47  1  0  0  0  0
 22 23  2  0  0  0  0
 22 48  1  0  0  0  0
M  END
> <s_m_source_file>
AV-unprocessed.smi

> <i_m_source_file_index>
746

> <i_lp_mmshare_version>
43012

> <i_f3d_flags>
0

> <s_epik_input>
W0NIM11PW0NIMl1bQ0gyXU9jMVtjSF1bY0hdYyhbY0hdbjEpW05IXUMoPU8pTihbQ0gyXVtDSDJdW0NIMl0yKVtDQEhdKFtDQEBIXTIzKVtDSDJdW0NIMl1bQ0gyXTM=

> <s_epik_cmdline>
J2VwaWtfcHl0aG9uJywgJy1waCcsICc3LjAnLCAnLXRuJywgJzgnLCAnLW1hJywgJzIwMCcsICctbWV0YWxfYmluZGluZycsICctaW1hZScsICc8aW5maWxlLm1hZT4nLCAnLW9tYWUnLCAnPG91dGZpbGUubWFlPic=

> <r_lp_tautomer_probability>
1

> <r_epik_Ionization_Penalty>
8.29966e-05

> <r_epik_Ionization_Penalty_Charging>
0

> <r_epik_Ionization_Penalty_Neutral>
8.29966e-05

> <r_epik_State_Penalty>
-0

> <r_epik_Charging_Adjusted_Penalty>
0

> <i_epik_Tot_Q>
0

> <i_epik_Tot_abs_Q>
0

> <r_epik_Metal_State_Penalty>
-0

> <b_epik_Metal_Only>
0

> <s_lp_Force_Field>
OPLS_2005

> <r_lp_Energy>
59.0162

> <b_lp_Chiralities_Consistent>
1

> <s_lp_Variant>
AV-unprocessed.smi:746-1

> <Gold.Version>
5.8.1

> <Gold.Id.Protein>
6NUR|6NUR_protein|mol2

> <Gold.PLP.Fitness>
50.1546

> <Gold.PLP.PLP>
-44.0107

> <Gold.PLP.part.hbond>
-3.3405

> <Gold.PLP.part.metal>
0.0000

> <Gold.PLP.part.buried>
1.4243

> <Gold.PLP.part.nonpolar>
-42.6911

> <Gold.PLP.part.repulsive>
0.0894

> <Gold.PLP.ligand.clash>
1.4178

> <Gold.PLP.ligand.torsion>
0.4402

> <Gold.PLP.Chemscore.Hbond>
2.7080

> <Gold.PLP.Chemscore.CHOScore>
0.0000

> <Gold.PLP.Chemscore.Metal>
0.0000

> <Gold.Chemscore.Hbonds>
donor molecule, donor type, donor heavy atom, donor atom, acceptor molecule, acceptor atom, score
      P1  H  6896  6908       L1    23  0.81
      P1  H  6896  6909       L1     2  1.00
      P1  H 10752 10764       L1     5  0.85

> <Gold.PLP.Chemscore.Internal.Correction>
0.3182

> <Gold.Rescore>
     Score         DG    S(hbond)    S(metal)    S(lipo)     H(rot)  DE(clash)    DE(int)     intcor
     17.95     -21.11       1.58        0.00     121.76       1.52       0.07       3.08       ----

> <Gold.Chemscore.Fitness>
17.9533

> <Gold.Chemscore.DG>
-21.1101

> <Gold.Chemscore.ZeroCoef>
-5.4800

> <Gold.Chemscore.Hbond>
1.5773

> <Gold.Chemscore.Metal>
0.0000

> <Gold.Chemscore.Lipo>
121.7603

> <Gold.Chemscore.Internal_Hbond>
0.0000

> <Gold.Chemscore.DEClash>
0.0736

> <Gold.Chemscore.DEInternal>
3.0832

> <Gold.Chemscore.Rot>
1.5172

> <Gold.Chemscore.Internal.Correction>
   9.000000E+99

> <Gold.Chemscore.Hbonds>
donor molecule, donor type, donor heavy atom, donor atom, acceptor molecule, acceptor atom, score
      P1  H  6896  6908       L1    23  0.32
      P1  H  6896  6909       L1     2  0.40
      P1  H 10752 10764       L1     5  0.14

> <Gold.Chemscore.Hbond.Weighted>
-5.2683

> <Gold.Chemscore.Metal.Weighted>
-0.0000

> <Gold.Chemscore.Lipo.Weighted>
-14.2460

> <Gold.Chemscore.Internal_Hbond.Weighted>
0.0000

> <Gold.Chemscore.DEClash.Weighted>
0.0736

> <Gold.Chemscore.DEInternal.Weighted>
3.0832

> <Gold.Chemscore.Rot.Weighted>
3.8841

> <Gold.Chemscore.Internal.Correction.Weighted>
   9.000000E+99

> <Gold.Protein.RotatedTorsions>
[ 6907 6896 6895 6894 ] final  -67.78 input  -60.11 | X-H torsion
[ 7974 7965 7964 7962 ] final   71.02 input  175.53 | X-H torsion
[ 8008 7997 7996 7995 ] final   72.55 input   59.86 | X-H torsion
[ 10167 10162 10161 10158 ] final -162.96 input  -65.29 | X-H torsion
[ 10718 10713 10712 10709 ] final  110.93 input   66.30 | X-H torsion
[ 10763 10752 10751 10750 ] final   14.50 input  -60.55 | X-H torsion
[ 11005 11000 10999 10996 ] final -108.39 input  -57.11 | X-H torsion

> <Gold.Protein.ActiveResidues>
 VAL166  LYS551  ARG553  GLY616  TRP617  ASP618  TYR619  PRO620  LYS621  CYS622 
 ASP623  PHE694  ASN695  SER759  ASP760  ASP761  ALA762  ILE779  LEU786  VAL792 
 PHE793  MET794  SER795  GLU796  ALA797  LYS798  CYS799  TRP800  GLU811  SER814 

> <Gold.Protein.RotatedAtoms>
  150.7391  134.5832  159.5949 H   0  0  0  0  0  0  0  0  0  0  0  0  # atno 6907 bound_to 6896
  152.3240  134.7341  160.0315 H   0  0  0  0  0  0  0  0  0  0  0  0  # atno 6908 bound_to 6896
  151.7847  133.3317  159.3518 H   0  0  0  0  0  0  0  0  0  0  0  0  # atno 6909 bound_to 6896
  145.7709  139.2843  143.1321 H   0  0  0  0  0  0  0  0  0  0  0  0  # atno 7974 bound_to 7965
  155.7705  140.3484  155.5244 H   0  0  0  0  0  0  0  0  0  0  0  0  # atno 8008 bound_to 7997
  155.8827  140.1004  157.1495 H   0  0  0  0  0  0  0  0  0  0  0  0  # atno 8009 bound_to 7997
  154.4026  140.1319  156.4203 H   0  0  0  0  0  0  0  0  0  0  0  0  # atno 8010 bound_to 7997
  139.6354  144.0359  152.2050 H   0  0  0  0  0  0  0  0  0  0  0  0  # atno 10167 bound_to 10162
  157.6470  131.0942  150.6674 H   0  0  0  0  0  0  0  0  0  0  0  0  # atno 10718 bound_to 10713
  153.1616  135.6797  153.8734 H   0  0  0  0  0  0  0  0  0  0  0  0  # atno 10763 bound_to 10752
  153.8128  135.3140  155.3403 H   0  0  0  0  0  0  0  0  0  0  0  0  # atno 10764 bound_to 10752
  154.7936  135.4820  154.0199 H   0  0  0  0  0  0  0  0  0  0  0  0  # atno 10765 bound_to 10752
  141.0904  133.9065  157.2089 H   0  0  0  0  0  0  0  0  0  0  0  0  # atno 11005 bound_to 11000
  146.0170  140.8383  142.9942 LP  0  0  0  0  0  0  0  0  0  0  0  0  # atno 17320 bound_to 7965
  144.6813  140.2573  143.7323 LP  0  0  0  0  0  0  0  0  0  0  0  0  # atno 17321 bound_to 7965
  140.0035  144.6276  150.7709 LP  0  0  0  0  0  0  0  0  0  0  0  0  # atno 17342 bound_to 10162
  140.7462  143.2888  151.3389 LP  0  0  0  0  0  0  0  0  0  0  0  0  # atno 17343 bound_to 10162
  156.6990  130.4618  149.5578 LP  0  0  0  0  0  0  0  0  0  0  0  0  # atno 17370 bound_to 10713
  156.1808  130.6498  151.0949 LP  0  0  0  0  0  0  0  0  0  0  0  0  # atno 17371 bound_to 10713
  139.9729  135.0123  156.9557 LP  0  0  0  0  0  0  0  0  0  0  0  0  # atno 17394 bound_to 11000
  140.5265  134.0855  155.7305 LP  0  0  0  0  0  0  0  0  0  0  0  0  # atno 17395 bound_to 11000

$$$$
