AV-unprocessed.smi:635|AV-procd|sdf|3139|dock3
  -GOLD-   22720 0 63D 1   1.00000     0.00000
 Structure written by MMmdl.
 37 38  0  0  0  0  0  0  0  0  1 V2000
  154.4973  132.3847  165.1444 C   0  0  0  0  0  0  0  0  0  0  0  0
  153.7745  133.7151  164.9071 C   0  0  0  0  0  0  0  0  0  0  0  0
  154.4848  134.5956  163.8672 C   0  0  0  0  0  0  0  0  0  0  0  0
  153.8570  135.9885  163.7313 C   0  0  0  0  0  0  0  0  0  0  0  0
  154.6213  136.7565  162.8088 O   0  0  0  0  0  0  0  0  0  0  0  0
  154.4125  136.4296  161.4379 C   0  0  0  0  0  0  0  0  0  0  0  0
  153.5862  137.5054  160.7241 C   0  0  0  0  0  0  0  0  0  0  0  0
  152.5823  137.1744  160.0940 O   0  0  0  0  0  0  0  0  0  0  0  0
  154.0414  138.7676  160.8352 N   0  0  0  0  0  0  0  0  0  0  0  0
  153.4946  139.9505  160.2734 C   0  0  0  0  0  0  0  0  0  0  0  0
  153.6458  141.1160  161.0533 C   0  0  0  0  0  0  0  0  0  0  0  0
  153.1321  142.3243  160.5528 C   0  0  0  0  0  0  0  0  0  0  0  0
  152.4959  142.2878  159.2980 C   0  0  0  0  0  0  0  0  0  0  0  0
  151.9220  143.5111  158.6539 C   0  0  0  0  0  0  0  0  0  0  0  0
  152.8138  144.5984  158.0964 C   0  0  0  0  0  0  0  0  0  0  0  0
  152.0001  144.8556  159.3404 C   0  0  0  0  0  0  0  0  0  0  0  0
  152.3816  141.1454  158.5849 N   0  0  0  0  0  0  0  0  0  0  0  0
  152.8702  139.9985  159.0681 N   0  0  0  0  0  0  0  0  0  0  0  0
  153.9687  131.7823  165.8835 H   0  0  0  0  0  0  0  0  0  0  0  0
  155.5113  132.5471  165.5108 H   0  0  0  0  0  0  0  0  0  0  0  0
  154.5615  131.8019  164.2249 H   0  0  0  0  0  0  0  0  0  0  0  0
  152.7532  133.5131  164.5827 H   0  0  0  0  0  0  0  0  0  0  0  0
  153.6966  134.2545  165.8515 H   0  0  0  0  0  0  0  0  0  0  0  0
  155.5322  134.7065  164.1501 H   0  0  0  0  0  0  0  0  0  0  0  0
  154.4805  134.0994  162.8960 H   0  0  0  0  0  0  0  0  0  0  0  0
  152.8239  135.9044  163.3911 H   0  0  0  0  0  0  0  0  0  0  0  0
  153.8384  136.4710  164.7091 H   0  0  0  0  0  0  0  0  0  0  0  0
  155.3839  136.3636  160.9474 H   0  0  0  0  0  0  0  0  0  0  0  0
  153.9404  135.4505  161.3413 H   0  0  0  0  0  0  0  0  0  0  0  0
  154.8709  138.8931  161.3969 H   0  0  0  0  0  0  0  0  0  0  0  0
  154.1438  141.0885  162.0116 H   0  0  0  0  0  0  0  0  0  0  0  0
  153.2255  143.2440  161.1111 H   0  0  0  0  0  0  0  0  0  0  0  0
  151.0126  143.2740  158.1050 H   0  0  0  0  0  0  0  0  0  0  0  0
  153.8901  144.4972  158.2208 H   0  0  0  0  0  0  0  0  0  0  0  0
  152.4927  145.1037  157.1877 H   0  0  0  0  0  0  0  0  0  0  0  0
  151.1482  145.5253  159.2426 H   0  0  0  0  0  0  0  0  0  0  0  0
  152.5374  144.9142  160.2850 H   0  0  0  0  0  0  0  0  0  0  0  0
  1  2  1  0  0  0  0
  1 19  1  0  0  0  0
  1 20  1  0  0  0  0
  1 21  1  0  0  0  0
  2  3  1  0  0  0  0
  2 22  1  0  0  0  0
  2 23  1  0  0  0  0
  3  4  1  0  0  0  0
  3 24  1  0  0  0  0
  3 25  1  0  0  0  0
  4  5  1  0  0  0  0
  4 26  1  0  0  0  0
  4 27  1  0  0  0  0
  5  6  1  0  0  0  0
  6  7  1  0  0  0  0
  6 28  1  0  0  0  0
  6 29  1  0  0  0  0
  7  8  2  0  0  0  0
  7  9  1  0  0  0  0
  9 10  1  0  0  0  0
  9 30  1  0  0  0  0
 10 18  1  0  0  0  0
 10 11  2  0  0  0  0
 11 12  1  0  0  0  0
 11 31  1  0  0  0  0
 12 13  2  0  0  0  0
 12 32  1  0  0  0  0
 13 14  1  0  0  0  0
 13 17  1  0  0  0  0
 14 16  1  0  0  0  0
 14 15  1  0  0  0  0
 14 33  1  0  0  0  0
 15 16  1  0  0  0  0
 15 34  1  0  0  0  0
 15 35  1  0  0  0  0
 16 36  1  0  0  0  0
 16 37  1  0  0  0  0
 17 18  2  0  0  0  0
M  END
> <s_m_source_file>
AV-unprocessed.smi

> <i_m_source_file_index>
635

> <i_lp_mmshare_version>
43012

> <i_f3d_flags>
0

> <s_epik_input>
W0NIM11bQ0gyXVtDSDJdW0NIMl1PW0NIMl1DKD1PKVtOSF1jMVtjSF1bY0hdYyhubjEpW0NIXTJbQ0gyXVtDSDJdMg==

> <s_epik_cmdline>
J2VwaWtfcHl0aG9uJywgJy1waCcsICc3LjAnLCAnLXRuJywgJzgnLCAnLW1hJywgJzIwMCcsICctbWV0YWxfYmluZGluZycsICctaW1hZScsICc8aW5maWxlLm1hZT4nLCAnLW9tYWUnLCAnPG91dGZpbGUubWFlPic=

> <r_lp_tautomer_probability>
1

> <r_epik_Ionization_Penalty>
0.00559584

> <r_epik_Ionization_Penalty_Charging>
0

> <r_epik_Ionization_Penalty_Neutral>
0.00559584

> <r_epik_State_Penalty>
-0

> <r_epik_Charging_Adjusted_Penalty>
0

> <i_epik_Tot_Q>
0

> <i_epik_Tot_abs_Q>
0

> <r_epik_Metal_State_Penalty>
-0

> <b_epik_Metal_Only>
0

> <s_lp_Force_Field>
OPLS_2005

> <r_lp_Energy>
16.6483

> <b_lp_Chiralities_Consistent>
1

> <s_lp_Variant>
AV-unprocessed.smi:635-1

> <Gold.Version>
5.8.1

> <Gold.Id.Protein>
6NUR|6NUR_protein|mol2

> <Gold.PLP.Fitness>
43.9765

> <Gold.PLP.PLP>
-43.4198

> <Gold.PLP.part.hbond>
-0.4500

> <Gold.PLP.part.metal>
0.0000

> <Gold.PLP.part.buried>
-5.1478

> <Gold.PLP.part.nonpolar>
-38.3933

> <Gold.PLP.part.repulsive>
0.0169

> <Gold.PLP.ligand.clash>
0.0000

> <Gold.PLP.ligand.torsion>
0.8106

> <Gold.PLP.Chemscore.Hbond>
0.6175

> <Gold.PLP.Chemscore.CHOScore>
0.0000

> <Gold.PLP.Chemscore.Metal>
0.0000

> <Gold.Chemscore.Hbonds>
donor molecule, donor type, donor heavy atom, donor atom, acceptor molecule, acceptor atom, score
      P1  H  6896  6908       L1     8  0.65

> <Gold.PLP.Chemscore.Internal.Correction>
0.3254

> <Gold.Rescore>
     Score         DG    S(hbond)    S(metal)    S(lipo)     H(rot)  DE(clash)    DE(int)     intcor
     15.32     -16.96       0.95        0.00     110.63       1.82       0.01       1.63       ----

> <Gold.Chemscore.Fitness>
15.3179

> <Gold.Chemscore.DG>
-16.9599

> <Gold.Chemscore.ZeroCoef>
-5.4800

> <Gold.Chemscore.Hbond>
0.9530

> <Gold.Chemscore.Metal>
0.0000

> <Gold.Chemscore.Lipo>
110.6319

> <Gold.Chemscore.Internal_Hbond>
0.0000

> <Gold.Chemscore.DEClash>
0.0077

> <Gold.Chemscore.DEInternal>
1.6343

> <Gold.Chemscore.Rot>
1.8153

> <Gold.Chemscore.Internal.Correction>
   9.000000E+99

> <Gold.Chemscore.Hbonds>
donor molecule, donor type, donor heavy atom, donor atom, acceptor molecule, acceptor atom, score
      P1  H  6896  6908       L1     8  0.64

> <Gold.Chemscore.Hbond.Weighted>
-3.1832

> <Gold.Chemscore.Metal.Weighted>
-0.0000

> <Gold.Chemscore.Lipo.Weighted>
-12.9439

> <Gold.Chemscore.Internal_Hbond.Weighted>
0.0000

> <Gold.Chemscore.DEClash.Weighted>
0.0077

> <Gold.Chemscore.DEInternal.Weighted>
1.6343

> <Gold.Chemscore.Rot.Weighted>
4.6472

> <Gold.Chemscore.Internal.Correction.Weighted>
   9.000000E+99

> <Gold.Protein.RotatedTorsions>
[ 6907 6896 6895 6894 ] final -101.84 input  -60.11 | X-H torsion
[ 7974 7965 7964 7962 ] final  122.31 input  175.53 | X-H torsion
[ 8008 7997 7996 7995 ] final  153.43 input   59.86 | X-H torsion
[ 10167 10162 10161 10158 ] final   55.64 input  -65.29 | X-H torsion
[ 10718 10713 10712 10709 ] final  169.22 input   66.30 | X-H torsion
[ 10763 10752 10751 10750 ] final  137.60 input  -60.55 | X-H torsion
[ 11005 11000 10999 10996 ] final   19.20 input  -57.11 | X-H torsion

> <Gold.Protein.ActiveResidues>
 VAL166  LYS551  ARG553  GLY616  TRP617  ASP618  TYR619  PRO620  LYS621  CYS622 
 ASP623  PHE694  ASN695  SER759  ASP760  ASP761  ALA762  ILE779  LEU786  VAL792 
 PHE793  MET794  SER795  GLU796  ALA797  LYS798  CYS799  TRP800  GLU811  SER814 

> <Gold.Protein.RotatedAtoms>
  150.7171  134.0673  159.3851 H   0  0  0  0  0  0  0  0  0  0  0  0  # atno 6907 bound_to 6896
  151.8654  135.0507  160.0483 H   0  0  0  0  0  0  0  0  0  0  0  0  # atno 6908 bound_to 6896
  152.2685  133.5325  159.5461 H   0  0  0  0  0  0  0  0  0  0  0  0  # atno 6909 bound_to 6896
  145.1090  139.3465  143.4773 H   0  0  0  0  0  0  0  0  0  0  0  0  # atno 7974 bound_to 7965
  156.2582  140.1994  156.6489 H   0  0  0  0  0  0  0  0  0  0  0  0  # atno 8008 bound_to 7997
  154.6552  140.0567  157.0025 H   0  0  0  0  0  0  0  0  0  0  0  0  # atno 8009 bound_to 7997
  155.1359  140.3238  155.4466 H   0  0  0  0  0  0  0  0  0  0  0  0  # atno 8010 bound_to 7997
  140.2173  144.3826  150.6464 H   0  0  0  0  0  0  0  0  0  0  0  0  # atno 10167 bound_to 10162
  157.0258  131.0245  151.2760 H   0  0  0  0  0  0  0  0  0  0  0  0  # atno 10718 bound_to 10713
  153.8757  135.3050  155.3443 H   0  0  0  0  0  0  0  0  0  0  0  0  # atno 10763 bound_to 10752
  154.7785  135.4848  153.9797 H   0  0  0  0  0  0  0  0  0  0  0  0  # atno 10764 bound_to 10752
  153.1380  135.6818  153.9168 H   0  0  0  0  0  0  0  0  0  0  0  0  # atno 10765 bound_to 10752
  140.4164  134.1565  155.7670 H   0  0  0  0  0  0  0  0  0  0  0  0  # atno 11005 bound_to 11000
  146.3527  140.1001  142.8608 LP  0  0  0  0  0  0  0  0  0  0  0  0  # atno 17320 bound_to 7965
  145.0868  140.9258  143.4792 LP  0  0  0  0  0  0  0  0  0  0  0  0  # atno 17321 bound_to 7965
  140.6280  143.2184  151.6555 LP  0  0  0  0  0  0  0  0  0  0  0  0  # atno 17342 bound_to 10162
  139.5157  144.3369  152.0775 LP  0  0  0  0  0  0  0  0  0  0  0  0  # atno 17343 bound_to 10162
  157.5215  130.8001  149.7815 LP  0  0  0  0  0  0  0  0  0  0  0  0  # atno 17370 bound_to 10713
  156.0086  130.3843  150.2341 LP  0  0  0  0  0  0  0  0  0  0  0  0  # atno 17371 bound_to 10713
  141.1801  133.8431  157.1287 LP  0  0  0  0  0  0  0  0  0  0  0  0  # atno 17394 bound_to 11000
  140.0231  134.9936  157.0632 LP  0  0  0  0  0  0  0  0  0  0  0  0  # atno 17395 bound_to 11000

$$$$
