AV-unprocessed.smi:2204|AV-procd|sdf|8940|dock5
  -GOLD-   2272012153D 1   1.00000     0.00000
 Structure written by MMmdl.
 39 40  0  0  0  0  0  0  0  0  1 V2000
  154.0197  141.0119  160.6108 C   0  0  0  0  0  0  0  0  0  0  0  0
  153.0639  142.0881  160.1883 C   0  0  0  0  0  0  0  0  0  0  0  0
  152.6515  143.2367  160.9197 C   0  0  0  0  0  0  0  0  0  0  0  0
  151.7760  143.8723  160.0851 C   0  0  0  0  0  0  0  0  0  0  0  0
  150.9959  145.1302  160.2835 C   0  0  0  0  0  0  0  0  0  0  0  0
  151.7012  143.1145  158.9297 N   0  0  0  0  0  0  0  0  0  0  0  0
  150.8906  143.3321  157.7401 C   0  0  0  0  0  0  0  0  0  0  0  0
  150.4873  142.0008  157.1036 C   0  0  0  0  0  0  0  0  0  0  0  0
  150.0796  141.0777  157.8077 O   0  0  0  0  0  0  0  0  0  0  0  0
  150.6282  141.9150  155.7721 N   0  0  0  0  0  0  0  0  0  0  0  0
  150.4541  140.7094  154.9686 C   0  0  1  0  0  0  0  0  0  0  0  0
  151.1990  139.5324  155.6172 C   0  0  0  0  0  0  0  0  0  0  0  0
  148.9494  140.4240  154.8031 C   0  0  1  0  0  0  0  0  0  0  0  0
  148.1221  141.6144  154.3070 C   0  0  0  0  0  0  0  0  0  0  0  0
  146.9499  140.9696  153.5825 C   0  0  0  0  0  0  0  0  0  0  0  0
  147.3399  139.4932  153.4766 C   0  0  0  0  0  0  0  0  0  0  0  0
  148.7245  139.4577  153.7888 O   0  0  0  0  0  0  0  0  0  0  0  0
  152.4950  142.0229  158.9961 N   0  0  0  0  0  0  0  0  0  0  0  0
  154.2062  141.0510  161.6842 H   0  0  0  0  0  0  0  0  0  0  0  0
  154.9783  141.1198  160.1028 H   0  0  0  0  0  0  0  0  0  0  0  0
  153.6276  140.0211  160.3792 H   0  0  0  0  0  0  0  0  0  0  0  0
  152.9497  143.5450  161.9107 H   0  0  0  0  0  0  0  0  0  0  0  0
  151.2113  145.5724  161.2562 H   0  0  0  0  0  0  0  0  0  0  0  0
  149.9243  144.9354  160.2346 H   0  0  0  0  0  0  0  0  0  0  0  0
  151.2435  145.8664  159.5187 H   0  0  0  0  0  0  0  0  0  0  0  0
  150.0042  143.9061  158.0124 H   0  0  0  0  0  0  0  0  0  0  0  0
  151.4504  143.9311  157.0199 H   0  0  0  0  0  0  0  0  0  0  0  0
  150.9629  142.7351  155.2863 H   0  0  0  0  0  0  0  0  0  0  0  0
  150.8740  140.8805  153.9755 H   0  0  0  0  0  0  0  0  0  0  0  0
  151.0925  138.6254  155.0216 H   0  0  0  0  0  0  0  0  0  0  0  0
  150.8160  139.3212  156.6162 H   0  0  0  0  0  0  0  0  0  0  0  0
  152.2656  139.7417  155.7056 H   0  0  0  0  0  0  0  0  0  0  0  0
  148.5287  140.0534  155.7404 H   0  0  0  0  0  0  0  0  0  0  0  0
  147.8076  142.2717  155.1186 H   0  0  0  0  0  0  0  0  0  0  0  0
  148.7012  142.2116  153.6010 H   0  0  0  0  0  0  0  0  0  0  0  0
  146.0165  141.0876  154.1337 H   0  0  0  0  0  0  0  0  0  0  0  0
  146.8171  141.4179  152.5971 H   0  0  0  0  0  0  0  0  0  0  0  0
  146.7932  138.8986  154.2099 H   0  0  0  0  0  0  0  0  0  0  0  0
  147.1455  139.0769  152.4880 H   0  0  0  0  0  0  0  0  0  0  0  0
  1  2  1  0  0  0  0
  1 19  1  0  0  0  0
  1 20  1  0  0  0  0
  1 21  1  0  0  0  0
  2 18  2  0  0  0  0
  2  3  1  0  0  0  0
  3  4  2  0  0  0  0
  3 22  1  0  0  0  0
  4  5  1  0  0  0  0
  4  6  1  0  0  0  0
  5 23  1  0  0  0  0
  5 24  1  0  0  0  0
  5 25  1  0  0  0  0
  6  7  1  0  0  0  0
  6 18  1  0  0  0  0
  7  8  1  0  0  0  0
  7 26  1  0  0  0  0
  7 27  1  0  0  0  0
  8  9  2  0  0  0  0
  8 10  1  0  0  0  0
 10 11  1  0  0  0  0
 10 28  1  0  0  0  0
 11 12  1  0  0  0  0
 11 13  1  0  0  0  0
 11 29  1  0  0  0  0
 12 30  1  0  0  0  0
 12 31  1  0  0  0  0
 12 32  1  0  0  0  0
 13 17  1  0  0  0  0
 13 14  1  0  0  0  0
 13 33  1  0  0  0  0
 14 15  1  0  0  0  0
 14 34  1  0  0  0  0
 14 35  1  0  0  0  0
 15 16  1  0  0  0  0
 15 36  1  0  0  0  0
 15 37  1  0  0  0  0
 16 17  1  0  0  0  0
 16 38  1  0  0  0  0
 16 39  1  0  0  0  0
M  END
> <s_m_source_file>
AV-unprocessed.smi

> <i_m_source_file_index>
2204

> <i_lp_mmshare_version>
43012

> <i_f3d_flags>
0

> <s_epik_input>
W0NIM11jMVtjSF1jKFtDSDNdKW4objEpW0NIMl1DKD1PKVtOSF1bQ0BIXShbQ0gzXSlbQ0BASF0yW0NIMl1bQ0gyXVtDSDJdTzI=

> <s_epik_cmdline>
J2VwaWtfcHl0aG9uJywgJy1waCcsICc3LjAnLCAnLXRuJywgJzgnLCAnLW1hJywgJzIwMCcsICctbWV0YWxfYmluZGluZycsICctaW1hZScsICc8aW5maWxlLm1hZT4nLCAnLW9tYWUnLCAnPG91dGZpbGUubWFlPic=

> <r_lp_tautomer_probability>
1

> <r_epik_Ionization_Penalty>
0.000433354

> <r_epik_Ionization_Penalty_Charging>
0

> <r_epik_Ionization_Penalty_Neutral>
0.000433354

> <r_epik_State_Penalty>
-0

> <r_epik_Charging_Adjusted_Penalty>
0

> <i_epik_Tot_Q>
0

> <i_epik_Tot_abs_Q>
0

> <r_epik_Metal_State_Penalty>
-0

> <b_epik_Metal_Only>
0

> <s_lp_Force_Field>
OPLS_2005

> <r_lp_Energy>
15.4652

> <b_lp_Chiralities_Consistent>
1

> <s_lp_Variant>
AV-unprocessed.smi:2204-4

> <Gold.Version>
5.8.1

> <Gold.Id.Protein>
6NUR|6NUR_protein|mol2

> <Gold.PLP.Fitness>
34.7569

> <Gold.PLP.PLP>
-36.4151

> <Gold.PLP.part.hbond>
-0.0967

> <Gold.PLP.part.metal>
0.0000

> <Gold.PLP.part.buried>
-1.6303

> <Gold.PLP.part.nonpolar>
-37.0474

> <Gold.PLP.part.repulsive>
2.2063

> <Gold.PLP.ligand.clash>
0.0000

> <Gold.PLP.ligand.torsion>
0.8466

> <Gold.PLP.Chemscore.Hbond>
0.0000

> <Gold.PLP.Chemscore.CHOScore>
0.0000

> <Gold.PLP.Chemscore.Metal>
0.0000

> <Gold.PLP.Chemscore.Internal.Correction>
0.0350

> <Gold.Rescore>
     Score         DG    S(hbond)    S(metal)    S(lipo)     H(rot)  DE(clash)    DE(int)     intcor
     10.10     -13.74       0.00        0.00     103.39       1.50       0.03       3.61       ----

> <Gold.Chemscore.Fitness>
10.0996

> <Gold.Chemscore.DG>
-13.7354

> <Gold.Chemscore.ZeroCoef>
-5.4800

> <Gold.Chemscore.Hbond>
0.0000

> <Gold.Chemscore.Metal>
0.0000

> <Gold.Chemscore.Lipo>
103.3900

> <Gold.Chemscore.Internal_Hbond>
0.0000

> <Gold.Chemscore.DEClash>
0.0292

> <Gold.Chemscore.DEInternal>
3.6066

> <Gold.Chemscore.Rot>
1.5005

> <Gold.Chemscore.Internal.Correction>
   9.000000E+99

> <Gold.Chemscore.Hbond.Weighted>
-0.0000

> <Gold.Chemscore.Metal.Weighted>
-0.0000

> <Gold.Chemscore.Lipo.Weighted>
-12.0966

> <Gold.Chemscore.Internal_Hbond.Weighted>
0.0000

> <Gold.Chemscore.DEClash.Weighted>
0.0292

> <Gold.Chemscore.DEInternal.Weighted>
3.6066

> <Gold.Chemscore.Rot.Weighted>
3.8412

> <Gold.Chemscore.Internal.Correction.Weighted>
   9.000000E+99

> <Gold.Protein.RotatedTorsions>
[ 6907 6896 6895 6894 ] final  117.07 input  -60.11 | X-H torsion
[ 7974 7965 7964 7962 ] final   68.65 input  175.53 | X-H torsion
[ 8008 7997 7996 7995 ] final  -44.20 input   59.86 | X-H torsion
[ 10167 10162 10161 10158 ] final  127.37 input  -65.29 | X-H torsion
[ 10718 10713 10712 10709 ] final -167.14 input   66.30 | X-H torsion
[ 10763 10752 10751 10750 ] final -156.18 input  -60.55 | X-H torsion
[ 11005 11000 10999 10996 ] final  -55.70 input  -57.11 | X-H torsion

> <Gold.Protein.ActiveResidues>
 VAL166  LYS551  ARG553  GLY616  TRP617  ASP618  TYR619  PRO620  LYS621  CYS622 
 ASP623  PHE694  ASN695  SER759  ASP760  ASP761  ALA762  ILE779  LEU786  VAL792 
 PHE793  MET794  SER795  GLU796  ALA797  LYS798  CYS799  TRP800  GLU811  SER814 

> <Gold.Protein.RotatedAtoms>
  152.4636  133.7875  159.6883 H   0  0  0  0  0  0  0  0  0  0  0  0  # atno 6907 bound_to 6896
  150.8590  133.7662  159.3005 H   0  0  0  0  0  0  0  0  0  0  0  0  # atno 6908 bound_to 6896
  151.5233  135.1070  159.9936 H   0  0  0  0  0  0  0  0  0  0  0  0  # atno 6909 bound_to 6896
  145.8000  139.2977  143.1160 H   0  0  0  0  0  0  0  0  0  0  0  0  # atno 7974 bound_to 7965
  154.3997  140.1428  156.3645 H   0  0  0  0  0  0  0  0  0  0  0  0  # atno 8008 bound_to 7997
  155.8150  140.3471  155.5459 H   0  0  0  0  0  0  0  0  0  0  0  0  # atno 8009 bound_to 7997
  155.8347  140.0917  157.1762 H   0  0  0  0  0  0  0  0  0  0  0  0  # atno 8010 bound_to 7997
  139.5582  144.6863  151.4120 H   0  0  0  0  0  0  0  0  0  0  0  0  # atno 10167 bound_to 10162
  156.6781  130.9111  151.3053 H   0  0  0  0  0  0  0  0  0  0  0  0  # atno 10718 bound_to 10713
  154.7732  135.3151  154.8146 H   0  0  0  0  0  0  0  0  0  0  0  0  # atno 10763 bound_to 10752
  153.8876  135.6828  153.4767 H   0  0  0  0  0  0  0  0  0  0  0  0  # atno 10764 bound_to 10752
  153.1350  135.4763  154.9343 H   0  0  0  0  0  0  0  0  0  0  0  0  # atno 10765 bound_to 10752
  141.1086  133.6611  156.4509 H   0  0  0  0  0  0  0  0  0  0  0  0  # atno 11005 bound_to 11000
  145.9888  140.8620  143.0077 LP  0  0  0  0  0  0  0  0  0  0  0  0  # atno 17320 bound_to 7965
  144.6770  140.2185  143.7369 LP  0  0  0  0  0  0  0  0  0  0  0  0  # atno 17321 bound_to 7965
  140.6858  143.7977  150.7184 LP  0  0  0  0  0  0  0  0  0  0  0  0  # atno 17342 bound_to 10162
  140.1444  143.4413  152.2172 LP  0  0  0  0  0  0  0  0  0  0  0  0  # atno 17343 bound_to 10162
  157.7053  130.9378  150.0913 LP  0  0  0  0  0  0  0  0  0  0  0  0  # atno 17370 bound_to 10713
  156.1888  130.3653  149.8937 LP  0  0  0  0  0  0  0  0  0  0  0  0  # atno 17371 bound_to 10713
  140.4836  134.6642  157.5181 LP  0  0  0  0  0  0  0  0  0  0  0  0  # atno 17394 bound_to 11000
  139.9968  134.6898  155.9596 LP  0  0  0  0  0  0  0  0  0  0  0  0  # atno 17395 bound_to 11000

$$$$
