AV-unprocessed.smi:763|AV-procd|sdf|3639|dock5
  -GOLD-   22720 1 33D 1   1.00000     0.00000
 Structure written by MMmdl.
 43 44  0  0  0  0  0  0  0  0  2 V2000
  144.9699  142.2847  160.8084 C   0  0  0  0  0  0  0  0  0  0  0  0
  145.9975  142.0430  159.8640 O   0  0  0  0  0  0  0  0  0  0  0  0
  145.4967  141.8775  158.5475 C   0  0  0  0  0  0  0  0  0  0  0  0
  146.6542  141.5234  157.6094 C   0  0  0  0  0  0  0  0  0  0  0  0
  147.0982  140.2063  157.9171 O   0  0  0  0  0  0  0  0  0  0  0  0
  148.3671  139.8178  157.5282 C   0  0  0  0  0  0  0  0  0  0  0  0
  149.1333  140.7203  156.8636 N   0  0  0  0  0  0  0  0  0  0  0  0
  150.3712  140.3537  156.4798 C   0  0  0  0  0  0  0  0  0  0  0  0
  150.9055  139.0799  156.7336 C   0  0  0  0  0  0  0  0  0  0  0  0
  150.1076  138.1490  157.4224 C   0  0  0  0  0  0  0  0  0  0  0  0
  148.8020  138.5051  157.8417 C   0  0  0  0  0  0  0  0  0  0  0  0
  147.9906  137.6659  158.5080 N   0  5  0  0  0  0  0  0  0  0  0  0
  148.4468  136.4611  159.4873 S   0  0  0  0  0  0  0  0  0  0  0  0
  148.9827  135.3247  158.7215 O   0  0  0  0  0  0  0  0  0  0  0  0
  149.2757  136.9586  160.5954 O   0  0  0  0  0  0  0  0  0  0  0  0
  146.7878  135.9317  160.1797 C   0  0  1  0  0  0  0  0  0  0  0  0
  146.5520  134.4195  159.9799 C   0  0  0  0  0  0  0  0  0  0  0  0
  147.4208  133.5707  160.9240 C   0  0  0  0  0  0  0  0  0  0  0  0
  147.1461  133.9306  162.3928 C   0  0  0  0  0  0  0  0  0  0  0  0
  147.3635  135.4292  162.6577 C   0  0  0  0  0  0  0  0  0  0  0  0
  146.5575  136.2989  161.6696 C   0  0  1  0  0  0  0  0  0  0  0  0
  146.7935  137.6707  161.9133 O   0  0  0  0  0  0  0  0  0  0  0  0
  145.4052  142.4087  161.7998 H   0  0  0  0  0  0  0  0  0  0  0  0
  144.2701  141.4488  160.8505 H   0  0  0  0  0  0  0  0  0  0  0  0
  144.4169  143.1933  160.5673 H   0  0  0  0  0  0  0  0  0  0  0  0
  144.7293  141.1025  158.5135 H   0  0  0  0  0  0  0  0  0  0  0  0
  145.0352  142.8108  158.2212 H   0  0  0  0  0  0  0  0  0  0  0  0
  146.3006  141.5568  156.5778 H   0  0  0  0  0  0  0  0  0  0  0  0
  147.4617  142.2502  157.7135 H   0  0  0  0  0  0  0  0  0  0  0  0
  150.9525  141.0972  155.9548 H   0  0  0  0  0  0  0  0  0  0  0  0
  151.9025  138.8218  156.4099 H   0  0  0  0  0  0  0  0  0  0  0  0
  150.5117  137.1673  157.6204 H   0  0  0  0  0  0  0  0  0  0  0  0
  146.0381  136.4476  159.5790 H   0  0  0  0  0  0  0  0  0  0  0  0
  145.5020  134.1948  160.1712 H   0  0  0  0  0  0  0  0  0  0  0  0
  146.7273  134.1343  158.9426 H   0  0  0  0  0  0  0  0  0  0  0  0
  147.2180  132.5122  160.7598 H   0  0  0  0  0  0  0  0  0  0  0  0
  148.4773  133.7203  160.6990 H   0  0  0  0  0  0  0  0  0  0  0  0
  146.1195  133.6628  162.6452 H   0  0  0  0  0  0  0  0  0  0  0  0
  147.7887  133.3414  163.0474 H   0  0  0  0  0  0  0  0  0  0  0  0
  147.0649  135.6629  163.6801 H   0  0  0  0  0  0  0  0  0  0  0  0
  148.4271  135.6526  162.6045 H   0  0  0  0  0  0  0  0  0  0  0  0
  145.5002  136.1362  161.8824 H   0  0  0  0  0  0  0  0  0  0  0  0
  146.0833  138.0104  162.4363 H   0  0  0  0  0  0  0  0  0  0  0  0
  1  2  1  0  0  0  0
  1 23  1  0  0  0  0
  1 24  1  0  0  0  0
  1 25  1  0  0  0  0
  2  3  1  0  0  0  0
  3  4  1  0  0  0  0
  3 26  1  0  0  0  0
  3 27  1  0  0  0  0
  4  5  1  0  0  0  0
  4 28  1  0  0  0  0
  4 29  1  0  0  0  0
  5  6  1  0  0  0  0
  6 11  1  0  0  0  0
  6  7  2  0  0  0  0
  7  8  1  0  0  0  0
  8  9  2  0  0  0  0
  8 30  1  0  0  0  0
  9 10  1  0  0  0  0
  9 31  1  0  0  0  0
 10 11  2  0  0  0  0
 10 32  1  0  0  0  0
 11 12  1  0  0  0  0
 12 13  1  0  0  0  0
 13 14  2  0  0  0  0
 13 15  2  0  0  0  0
 13 16  1  0  0  0  0
 16 21  1  0  0  0  0
 16 17  1  0  0  0  0
 16 33  1  0  0  0  0
 17 18  1  0  0  0  0
 17 34  1  0  0  0  0
 17 35  1  0  0  0  0
 18 19  1  0  0  0  0
 18 36  1  0  0  0  0
 18 37  1  0  0  0  0
 19 20  1  0  0  0  0
 19 38  1  0  0  0  0
 19 39  1  0  0  0  0
 20 21  1  0  0  0  0
 20 40  1  0  0  0  0
 20 41  1  0  0  0  0
 21 22  1  0  0  0  0
 21 42  1  0  0  0  0
 22 43  1  0  0  0  0
M  CHG  1  12  -1
M  END
> <s_m_source_file>
AV-unprocessed.smi

> <i_m_source_file_index>
763

> <i_lp_mmshare_version>
43012

> <i_f3d_flags>
0

> <s_epik_input>
W0NIM11PW0NIMl1bQ0gyXU9jMW5bY0hdW2NIXVtjSF1jMVtOSF1TKD1PKSg9TylbQ0BASF0yW0NIMl1bQ0gyXVtDSDJdW0NIMl1bQ0BIXTJbT0hd

> <s_epik_cmdline>
J2VwaWtfcHl0aG9uJywgJy1waCcsICc3LjAnLCAnLXRuJywgJzgnLCAnLW1hJywgJzIwMCcsICctbWV0YWxfYmluZGluZycsICctaW1hZScsICc8aW5maWxlLm1hZT4nLCAnLW9tYWUnLCAnPG91dGZpbGUubWFlPic=

> <r_epik_Ionization_Penalty>
0.985866

> <r_epik_Ionization_Penalty_Charging>
0.984689

> <r_epik_Ionization_Penalty_Neutral>
0.00117669

> <r_epik_State_Penalty>
1.03185

> <r_epik_Charging_Adjusted_Penalty>
2.01654

> <i_epik_Tot_Q>
-1

> <i_epik_Tot_abs_Q>
1

> <r_epik_Metal_State_Penalty>
0.379327

> <b_epik_Metal_Only>
0

> <s_lp_Force_Field>
OPLS_2005

> <r_lp_Energy>
9.05773

> <b_lp_Chiralities_Consistent>
1

> <s_lp_Variant>
AV-unprocessed.smi:763-6

> <Gold.Version>
5.8.1

> <Gold.Id.Protein>
6NUR|6NUR_protein|mol2

> <Gold.PLP.Fitness>
38.4824

> <Gold.PLP.PLP>
-29.7066

> <Gold.PLP.part.hbond>
-5.7712

> <Gold.PLP.part.metal>
0.0000

> <Gold.PLP.part.buried>
-3.0709

> <Gold.PLP.part.nonpolar>
-21.1455

> <Gold.PLP.part.repulsive>
0.0489

> <Gold.PLP.ligand.clash>
0.0000

> <Gold.PLP.ligand.torsion>
1.1714

> <Gold.PLP.Chemscore.Hbond>
3.3120

> <Gold.PLP.Chemscore.CHOScore>
0.0000

> <Gold.PLP.Chemscore.Metal>
0.0000

> <Gold.Chemscore.Hbonds>
donor molecule, donor type, donor heavy atom, donor atom, acceptor molecule, acceptor atom, score
      P1  H  6896  6908       L1    14  0.98
      P1  H  6931  6943       L1    15  0.66
      P1  H  6934  6946       L1     2  1.00
      P1  H  6934  6947       L1    22  0.77

> <Gold.PLP.Chemscore.Internal.Correction>
1.1827

> <Gold.Rescore>
     Score         DG    S(hbond)    S(metal)    S(lipo)     H(rot)  DE(clash)    DE(int)     intcor
     16.58     -17.88       3.71        0.00      51.49       2.35       0.01       1.29       ----

> <Gold.Chemscore.Fitness>
16.5813

> <Gold.Chemscore.DG>
-17.8799

> <Gold.Chemscore.ZeroCoef>
-5.4800

> <Gold.Chemscore.Hbond>
3.7108

> <Gold.Chemscore.Metal>
0.0000

> <Gold.Chemscore.Lipo>
51.4870

> <Gold.Chemscore.Internal_Hbond>
0.0000

> <Gold.Chemscore.DEClash>
0.0089

> <Gold.Chemscore.DEInternal>
1.2897

> <Gold.Chemscore.Rot>
2.3509

> <Gold.Chemscore.Internal.Correction>
   9.000000E+99

> <Gold.Chemscore.Hbonds>
donor molecule, donor type, donor heavy atom, donor atom, acceptor molecule, acceptor atom, score
      P1  H  6896  6908       L1    14  0.87
      P1  H  6931  6943       L1    15  0.66
      P1  H  6934  6946       L1     2  0.25
      P1  H  6934  6947       L1    22  0.23

> <Gold.Chemscore.Hbond.Weighted>
-12.3941

> <Gold.Chemscore.Metal.Weighted>
-0.0000

> <Gold.Chemscore.Lipo.Weighted>
-6.0240

> <Gold.Chemscore.Internal_Hbond.Weighted>
0.0000

> <Gold.Chemscore.DEClash.Weighted>
0.0089

> <Gold.Chemscore.DEInternal.Weighted>
1.2897

> <Gold.Chemscore.Rot.Weighted>
6.0182

> <Gold.Chemscore.Internal.Correction.Weighted>
   9.000000E+99

> <Gold.Protein.RotatedTorsions>
[ 6907 6896 6895 6894 ] final  155.64 input  -60.11 | X-H torsion
[ 7974 7965 7964 7962 ] final  -60.49 input  175.53 | X-H torsion
[ 8008 7997 7996 7995 ] final   -8.57 input   59.86 | X-H torsion
[ 10167 10162 10161 10158 ] final -122.27 input  -65.29 | X-H torsion
[ 10718 10713 10712 10709 ] final  -80.01 input   66.30 | X-H torsion
[ 10763 10752 10751 10750 ] final -159.37 input  -60.55 | X-H torsion
[ 11005 11000 10999 10996 ] final   57.33 input  -57.11 | X-H torsion

> <Gold.Protein.ActiveResidues>
 VAL166  LYS551  ARG553  GLY616  TRP617  ASP618  TYR619  PRO620  LYS621  CYS622 
 ASP623  PHE694  ASN695  SER759  ASP760  ASP761  ALA762  ILE779  LEU786  VAL792 
 PHE793  MET794  SER795  GLU796  ALA797  LYS798  CYS799  TRP800  GLU811  SER814 

> <Gold.Protein.RotatedAtoms>
  152.0412  133.3978  159.4337 H   0  0  0  0  0  0  0  0  0  0  0  0  # atno 6907 bound_to 6896
  150.6875  134.3412  159.4878 H   0  0  0  0  0  0  0  0  0  0  0  0  # atno 6908 bound_to 6896
  152.1211  134.9204  160.0613 H   0  0  0  0  0  0  0  0  0  0  0  0  # atno 6909 bound_to 6896
  145.8149  140.8576  143.0163 H   0  0  0  0  0  0  0  0  0  0  0  0  # atno 7974 bound_to 7965
  154.5729  140.2378  155.8165 H   0  0  0  0  0  0  0  0  0  0  0  0  # atno 8008 bound_to 7997
  156.2121  140.3023  155.9713 H   0  0  0  0  0  0  0  0  0  0  0  0  # atno 8009 bound_to 7997
  155.2680  140.0417  157.2994 H   0  0  0  0  0  0  0  0  0  0  0  0  # atno 8010 bound_to 7997
  140.0161  143.5392  152.2241 H   0  0  0  0  0  0  0  0  0  0  0  0  # atno 10167 bound_to 10162
  156.0079  130.4562  150.3736 H   0  0  0  0  0  0  0  0  0  0  0  0  # atno 10718 bound_to 10713
  154.7480  135.3085  154.8609 H   0  0  0  0  0  0  0  0  0  0  0  0  # atno 10763 bound_to 10752
  153.9404  135.6775  153.4748 H   0  0  0  0  0  0  0  0  0  0  0  0  # atno 10764 bound_to 10752
  153.1076  135.4881  154.8906 H   0  0  0  0  0  0  0  0  0  0  0  0  # atno 10765 bound_to 10752
  140.0461  134.5804  155.9321 H   0  0  0  0  0  0  0  0  0  0  0  0  # atno 11005 bound_to 11000
  144.6753  140.0449  143.7480 LP  0  0  0  0  0  0  0  0  0  0  0  0  # atno 17320 bound_to 7965
  145.9738  139.2889  143.1083 LP  0  0  0  0  0  0  0  0  0  0  0  0  # atno 17321 bound_to 7965
  139.6171  144.7622  151.2821 LP  0  0  0  0  0  0  0  0  0  0  0  0  # atno 17342 bound_to 10162
  140.7362  143.6716  150.8077 LP  0  0  0  0  0  0  0  0  0  0  0  0  # atno 17343 bound_to 10162
  157.1819  131.0394  151.2744 LP  0  0  0  0  0  0  0  0  0  0  0  0  # atno 17370 bound_to 10713
  157.4138  130.7400  149.6860 LP  0  0  0  0  0  0  0  0  0  0  0  0  # atno 17371 bound_to 10713
  141.1907  133.6569  156.5426 LP  0  0  0  0  0  0  0  0  0  0  0  0  # atno 17394 bound_to 11000
  140.3991  134.7372  157.4769 LP  0  0  0  0  0  0  0  0  0  0  0  0  # atno 17395 bound_to 11000

$$$$
