AV-unprocessed.smi:219|AV-procd|sdf|1679|dock1
  -GOLD-   2262020113D 1   1.00000     0.00000
 Structure written by MMmdl.
 50 53  0  0  0  0  0  0  0  0  1 V2000
  149.0122  139.9657  153.7605 N   0  0  0  0  0  0  0  0  0  0  0  0
  149.0645  141.1314  154.4096 C   0  0  0  0  0  0  0  0  0  0  0  0
  149.2535  142.1980  153.8286 O   0  0  0  0  0  0  0  0  0  0  0  0
  148.9174  141.0871  155.9352 C   0  0  0  0  0  0  0  0  0  0  0  0
  150.2206  141.3857  156.7338 C   0  0  1  0  0  0  0  0  0  0  0  0
  149.8550  142.2064  157.9926 C   0  0  0  0  0  0  0  0  0  0  0  0
  151.0813  142.5204  158.8589 C   0  0  0  0  0  0  0  0  0  0  0  0
  151.8031  141.2201  159.2249 C   0  0  0  0  0  0  0  0  0  0  0  0
  152.1703  140.4448  157.9534 C   0  0  0  0  0  0  0  0  0  0  0  0
  150.9912  140.1880  157.1230 N   0  0  0  0  0  0  0  0  0  0  0  0
  151.2838  139.3183  156.1300 C   0  0  0  0  0  0  0  0  0  0  0  0
  152.0740  139.7092  155.0947 N   0  0  0  0  0  0  0  0  0  0  0  0
  152.3459  138.8523  154.1058 C   0  0  0  0  0  0  0  0  0  0  0  0
  151.9378  137.5898  153.9585 N   0  0  0  0  0  0  0  0  0  0  0  0
  151.1416  137.2002  154.9956 C   0  0  0  0  0  0  0  0  0  0  0  0
  150.7756  137.9935  156.1182 C   0  0  0  0  0  0  0  0  0  0  0  0
  149.9618  137.2655  156.9755 N   0  0  0  0  0  0  0  0  0  0  0  0
  149.8480  136.1049  156.3891 C   0  0  0  0  0  0  0  0  0  0  0  0
  150.5130  135.9822  155.1890 N   0  0  0  0  0  0  0  0  0  0  0  0
  150.5501  134.8107  154.3268 C   0  0  0  0  0  0  0  0  0  0  0  0
  149.1591  134.3746  153.8070 C   0  0  1  0  0  0  0  0  0  0  0  0
  148.4702  135.5088  153.3101 O   0  0  0  0  0  0  0  0  0  0  0  0
  149.2465  133.3431  152.6881 C   0  0  0  0  0  0  0  0  0  0  0  0
  147.9633  132.5428  152.8637 C   0  0  0  0  0  0  0  0  0  0  0  0
  147.8463  132.4453  154.2726 O   0  0  0  0  0  0  0  0  0  0  0  0
  148.2620  133.6782  154.8528 C   0  0  0  0  0  0  0  0  0  0  0  0
  149.0994  139.9488  152.7548 H   0  0  0  0  0  0  0  0  0  0  0  0
  148.8807  139.1068  154.2747 H   0  0  0  0  0  0  0  0  0  0  0  0
  148.1552  141.8264  156.1849 H   0  0  0  0  0  0  0  0  0  0  0  0
  148.4991  140.1264  156.2393 H   0  0  0  0  0  0  0  0  0  0  0  0
  150.8752  142.0062  156.1194 H   0  0  0  0  0  0  0  0  0  0  0  0
  149.3719  143.1408  157.7042 H   0  0  0  0  0  0  0  0  0  0  0  0
  149.1270  141.6544  158.5892 H   0  0  0  0  0  0  0  0  0  0  0  0
  151.7588  143.1808  158.3163 H   0  0  0  0  0  0  0  0  0  0  0  0
  150.7798  143.0519  159.7619 H   0  0  0  0  0  0  0  0  0  0  0  0
  152.7009  141.4384  159.8034 H   0  0  0  0  0  0  0  0  0  0  0  0
  151.1626  140.6065  159.8599 H   0  0  0  0  0  0  0  0  0  0  0  0
  152.9043  141.0146  157.3812 H   0  0  0  0  0  0  0  0  0  0  0  0
  152.6439  139.5006  158.2273 H   0  0  0  0  0  0  0  0  0  0  0  0
  152.9774  139.2337  153.3171 H   0  0  0  0  0  0  0  0  0  0  0  0
  149.2669  135.3020  156.8188 H   0  0  0  0  0  0  0  0  0  0  0  0
  151.2151  135.0230  153.4887 H   0  0  0  0  0  0  0  0  0  0  0  0
  151.0136  133.9961  154.8848 H   0  0  0  0  0  0  0  0  0  0  0  0
  148.8588  135.7594  152.4861 H   0  0  0  0  0  0  0  0  0  0  0  0
  149.3478  133.7798  151.6935 H   0  0  0  0  0  0  0  0  0  0  0  0
  150.0997  132.6823  152.8480 H   0  0  0  0  0  0  0  0  0  0  0  0
  147.1052  133.0819  152.4590 H   0  0  0  0  0  0  0  0  0  0  0  0
  148.0091  131.5601  152.3941 H   0  0  0  0  0  0  0  0  0  0  0  0
  148.7935  133.4552  155.7771 H   0  0  0  0  0  0  0  0  0  0  0  0
  147.3902  134.2801  155.1147 H   0  0  0  0  0  0  0  0  0  0  0  0
  1  2  1  0  0  0  0
  1 27  1  0  0  0  0
  1 28  1  0  0  0  0
  2  3  2  0  0  0  0
  2  4  1  0  0  0  0
  4  5  1  0  0  0  0
  4 29  1  0  0  0  0
  4 30  1  0  0  0  0
  5 10  1  0  0  0  0
  5  6  1  0  0  0  0
  5 31  1  0  0  0  0
  6  7  1  0  0  0  0
  6 32  1  0  0  0  0
  6 33  1  0  0  0  0
  7  8  1  0  0  0  0
  7 34  1  0  0  0  0
  7 35  1  0  0  0  0
  8  9  1  0  0  0  0
  8 36  1  0  0  0  0
  8 37  1  0  0  0  0
  9 10  1  0  0  0  0
  9 38  1  0  0  0  0
  9 39  1  0  0  0  0
 10 11  1  0  0  0  0
 11 16  1  0  0  0  0
 11 12  2  0  0  0  0
 12 13  1  0  0  0  0
 13 14  2  0  0  0  0
 13 40  1  0  0  0  0
 14 15  1  0  0  0  0
 15 19  1  0  0  0  0
 15 16  2  0  0  0  0
 16 17  1  0  0  0  0
 17 18  2  0  0  0  0
 18 19  1  0  0  0  0
 18 41  1  0  0  0  0
 19 20  1  0  0  0  0
 20 21  1  0  0  0  0
 20 42  1  0  0  0  0
 20 43  1  0  0  0  0
 21 26  1  0  0  0  0
 21 22  1  0  0  0  0
 21 23  1  0  0  0  0
 22 44  1  0  0  0  0
 23 24  1  0  0  0  0
 23 45  1  0  0  0  0
 23 46  1  0  0  0  0
 24 25  1  0  0  0  0
 24 47  1  0  0  0  0
 24 48  1  0  0  0  0
 25 26  1  0  0  0  0
 26 49  1  0  0  0  0
 26 50  1  0  0  0  0
M  END
> <s_m_source_file>
AV-unprocessed.smi

> <i_m_source_file_index>
219

> <i_lp_mmshare_version>
43012

> <i_f3d_flags>
0

> <s_epik_input>
W05IMl1DKD1PKVtDSDJdW0NAQEhdMVtDSDJdW0NIMl1bQ0gyXVtDSDJdTjFjKG5bY0hdbjIpYyhjMjMpbltjSF1uM1tDSDJdW0NAQF00KFtPSF0pW0NIMl1bQ0gyXU9bQ0gyXTQ=

> <s_epik_cmdline>
J2VwaWtfcHl0aG9uJywgJy1waCcsICc3LjAnLCAnLXRuJywgJzgnLCAnLW1hJywgJzIwMCcsICctbWV0YWxfYmluZGluZycsICctaW1hZScsICc8aW5maWxlLm1hZT4nLCAnLW9tYWUnLCAnPG91dGZpbGUubWFlPic=

> <r_lp_tautomer_probability>
1

> <r_epik_Ionization_Penalty>
0.00228532

> <r_epik_Ionization_Penalty_Charging>
0

> <r_epik_Ionization_Penalty_Neutral>
0.00228532

> <r_epik_State_Penalty>
0.00140978

> <r_epik_Charging_Adjusted_Penalty>
0.00140978

> <i_epik_Tot_Q>
0

> <i_epik_Tot_abs_Q>
0

> <r_epik_Metal_State_Penalty>
-0

> <b_epik_Metal_Only>
0

> <s_lp_Force_Field>
OPLS_2005

> <r_lp_Energy>
37.1625

> <b_lp_Chiralities_Consistent>
1

> <s_lp_Variant>
AV-unprocessed.smi:219-2

> <Gold.Version>
5.8.1

> <Gold.Id.Protein>
6NUR|6NUR_protein|mol2

> <Gold.PLP.Fitness>
45.9891

> <Gold.PLP.PLP>
-36.0836

> <Gold.PLP.part.hbond>
-5.1382

> <Gold.PLP.part.metal>
0.0000

> <Gold.PLP.part.buried>
-6.9731

> <Gold.PLP.part.nonpolar>
-24.9409

> <Gold.PLP.part.repulsive>
0.6268

> <Gold.PLP.ligand.clash>
0.0000

> <Gold.PLP.ligand.torsion>
0.8292

> <Gold.PLP.Chemscore.Hbond>
3.7547

> <Gold.PLP.Chemscore.CHOScore>
0.0000

> <Gold.PLP.Chemscore.Metal>
0.0000

> <Gold.Chemscore.Hbonds>
donor molecule, donor type, donor heavy atom, donor atom, acceptor molecule, acceptor atom, score
      L1  H     1    27       P1  7957  1.00
      P1  H  8011  8017       L1     3  0.32
      P1  H 10752 10764       L1    14  0.07

> <Gold.PLP.Chemscore.Internal.Correction>
0.2998

> <Gold.Rescore>
     Score         DG    S(hbond)    S(metal)    S(lipo)     H(rot)  DE(clash)    DE(int)     intcor
     13.67     -14.87       3.14        0.00      64.48       3.37       0.07       1.14       ----

> <Gold.Chemscore.Fitness>
13.6688

> <Gold.Chemscore.DG>
-14.8736

> <Gold.Chemscore.ZeroCoef>
-5.4800

> <Gold.Chemscore.Hbond>
3.1365

> <Gold.Chemscore.Metal>
0.0000

> <Gold.Chemscore.Lipo>
64.4781

> <Gold.Chemscore.Internal_Hbond>
0.0000

> <Gold.Chemscore.DEClash>
0.0650

> <Gold.Chemscore.DEInternal>
1.1398

> <Gold.Chemscore.Rot>
3.3697

> <Gold.Chemscore.Internal.Correction>
   9.000000E+99

> <Gold.Chemscore.Hbonds>
donor molecule, donor type, donor heavy atom, donor atom, acceptor molecule, acceptor atom, score
      L1  H     1    27       P1  7957  1.00
      P1  H  8011  8017       L1     3  0.31

> <Gold.Chemscore.Hbond.Weighted>
-10.4760

> <Gold.Chemscore.Metal.Weighted>
-0.0000

> <Gold.Chemscore.Lipo.Weighted>
-7.5439

> <Gold.Chemscore.Internal_Hbond.Weighted>
0.0000

> <Gold.Chemscore.DEClash.Weighted>
0.0650

> <Gold.Chemscore.DEInternal.Weighted>
1.1398

> <Gold.Chemscore.Rot.Weighted>
8.6264

> <Gold.Chemscore.Internal.Correction.Weighted>
   9.000000E+99

> <Gold.Protein.RotatedTorsions>
[ 6907 6896 6895 6894 ] final   88.14 input  -60.11 | X-H torsion
[ 7974 7965 7964 7962 ] final  142.58 input  175.53 | X-H torsion
[ 8008 7997 7996 7995 ] final  128.05 input   59.86 | X-H torsion
[ 10167 10162 10161 10158 ] final   89.16 input  -65.29 | X-H torsion
[ 10718 10713 10712 10709 ] final   73.40 input   66.30 | X-H torsion
[ 10763 10752 10751 10750 ] final  -72.47 input  -60.55 | X-H torsion
[ 11005 11000 10999 10996 ] final -130.45 input  -57.11 | X-H torsion

> <Gold.Protein.ActiveResidues>
 VAL166  LYS551  ARG553  GLY616  TRP617  ASP618  TYR619  PRO620  LYS621  CYS622 
 ASP623  PHE694  ASN695  SER759  ASP760  ASP761  ALA762  ILE779  LEU786  VAL792 
 PHE793  MET794  SER795  GLU796  ALA797  LYS798  CYS799  TRP800  GLU811  SER814 

> <Gold.Protein.RotatedAtoms>
  152.5421  134.2167  159.8771 H   0  0  0  0  0  0  0  0  0  0  0  0  # atno 6907 bound_to 6896
  151.2147  133.4529  159.2606 H   0  0  0  0  0  0  0  0  0  0  0  0  # atno 6908 bound_to 6896
  151.0863  134.9902  159.8437 H   0  0  0  0  0  0  0  0  0  0  0  0  # atno 6909 bound_to 6896
  144.8995  139.5443  143.5760 H   0  0  0  0  0  0  0  0  0  0  0  0  # atno 7974 bound_to 7965
  156.2906  140.2654  156.2373 H   0  0  0  0  0  0  0  0  0  0  0  0  # atno 8008 bound_to 7997
  155.0012  140.0388  157.2379 H   0  0  0  0  0  0  0  0  0  0  0  0  # atno 8009 bound_to 7997
  154.7600  140.2759  155.6227 H   0  0  0  0  0  0  0  0  0  0  0  0  # atno 8010 bound_to 7997
  139.8600  144.6549  150.9069 H   0  0  0  0  0  0  0  0  0  0  0  0  # atno 10167 bound_to 10162
  157.6546  130.9627  150.1065 H   0  0  0  0  0  0  0  0  0  0  0  0  # atno 10718 bound_to 10713
  154.4462  135.5929  153.6161 H   0  0  0  0  0  0  0  0  0  0  0  0  # atno 10763 bound_to 10752
  152.9809  135.6010  154.3662 H   0  0  0  0  0  0  0  0  0  0  0  0  # atno 10764 bound_to 10752
  154.3517  135.2841  155.2347 H   0  0  0  0  0  0  0  0  0  0  0  0  # atno 10765 bound_to 10752
  140.9344  134.1276  157.4206 H   0  0  0  0  0  0  0  0  0  0  0  0  # atno 11005 bound_to 11000
  146.3100  139.7714  142.9027 LP  0  0  0  0  0  0  0  0  0  0  0  0  # atno 17320 bound_to 7965
  145.3641  141.0331  143.3268 LP  0  0  0  0  0  0  0  0  0  0  0  0  # atno 17321 bound_to 7965
  140.7776  143.3752  151.1576 LP  0  0  0  0  0  0  0  0  0  0  0  0  # atno 17342 bound_to 10162
  139.7383  143.8965  152.3042 LP  0  0  0  0  0  0  0  0  0  0  0  0  # atno 17343 bound_to 10162
  156.1973  130.3658  149.8833 LP  0  0  0  0  0  0  0  0  0  0  0  0  # atno 17370 bound_to 10713
  156.6746  130.8834  151.3567 LP  0  0  0  0  0  0  0  0  0  0  0  0  # atno 17371 bound_to 10713
  139.8804  135.0016  156.6077 LP  0  0  0  0  0  0  0  0  0  0  0  0  # atno 17394 bound_to 11000
  140.7818  133.8653  155.8574 LP  0  0  0  0  0  0  0  0  0  0  0  0  # atno 17395 bound_to 11000

$$$$
