AV-unprocessed.smi:3336|AV-procd|sdf|12860|dock3
  -GOLD-   2272019253D 1   1.00000     0.00000
 Structure written by MMmdl.
 41 42  0  0  0  0  0  0  0  0  1 V2000
  147.2108  134.6955  154.5151 C   0  0  0  0  0  0  0  0  0  0  0  0
  148.4908  133.9119  154.1825 C   0  0  1  0  0  0  0  0  0  0  0  0
  148.4251  133.2271  152.7930 C   0  0  0  0  0  0  0  0  0  0  0  0
  147.2798  132.3480  152.6167 N   0  0  0  0  0  0  0  0  0  0  0  0
  146.3058  132.3928  151.6410 C   0  0  0  0  0  0  0  0  0  0  0  0
  145.4343  131.3710  151.8877 C   0  0  0  0  0  0  0  0  0  0  0  0
  145.9624  130.7511  153.0544 C   0  0  0  0  0  0  0  0  0  0  0  0
  147.0630  131.3410  153.4912 N   0  0  0  0  0  0  0  0  0  0  0  0
  149.6128  134.8471  154.3111 N   0  0  0  0  0  0  0  0  0  0  0  0
  149.7907  135.5038  155.6237 C   0  0  1  0  0  0  0  0  0  0  0  0
  149.8158  134.4314  156.7244 C   0  0  0  0  0  0  0  0  0  0  0  0
  151.0571  136.3871  155.7175 C   0  0  0  0  0  0  0  0  0  0  0  0
  151.9732  136.0074  156.4498 O   0  0  0  0  0  0  0  0  0  0  0  0
  151.1405  137.5455  155.0150 N   0  0  0  0  0  0  0  0  0  0  0  0
  150.0724  138.1889  154.2393 C   0  0  0  0  0  0  0  0  0  0  0  0
  149.7436  139.5453  154.8899 C   0  0  0  0  0  0  0  0  0  0  0  0
  150.9152  140.3538  154.9468 O   0  0  0  0  0  0  0  0  0  0  0  0
  151.9737  139.7441  155.6798 C   0  0  0  0  0  0  0  0  0  0  0  0
  152.3356  138.3967  155.0320 C   0  0  0  0  0  0  0  0  0  0  0  0
  146.3299  134.0588  154.4289 H   0  0  0  0  0  0  0  0  0  0  0  0
  147.0709  135.5481  153.8497 H   0  0  0  0  0  0  0  0  0  0  0  0
  147.2385  135.0768  155.5364 H   0  0  0  0  0  0  0  0  0  0  0  0
  148.5814  133.1301  154.9357 H   0  0  0  0  0  0  0  0  0  0  0  0
  148.4401  133.9586  151.9848 H   0  0  0  0  0  0  0  0  0  0  0  0
  149.3248  132.6274  152.6504 H   0  0  0  0  0  0  0  0  0  0  0  0
  146.3163  133.1386  150.8597 H   0  0  0  0  0  0  0  0  0  0  0  0
  144.5535  131.1070  151.3215 H   0  0  0  0  0  0  0  0  0  0  0  0
  145.5800  129.8975  153.5946 H   0  0  0  0  0  0  0  0  0  0  0  0
  149.5621  135.5310  153.5695 H   0  0  0  0  0  0  0  0  0  0  0  0
  148.9067  136.1144  155.7812 H   0  0  0  0  0  0  0  0  0  0  0  0
  149.8964  134.8749  157.7170 H   0  0  0  0  0  0  0  0  0  0  0  0
  150.6562  133.7476  156.5975 H   0  0  0  0  0  0  0  0  0  0  0  0
  148.9012  133.8377  156.7095 H   0  0  0  0  0  0  0  0  0  0  0  0
  150.4126  138.3360  153.2133 H   0  0  0  0  0  0  0  0  0  0  0  0
  149.1531  137.6139  154.1700 H   0  0  0  0  0  0  0  0  0  0  0  0
  148.9834  140.0675  154.3090 H   0  0  0  0  0  0  0  0  0  0  0  0
  149.3389  139.4057  155.8936 H   0  0  0  0  0  0  0  0  0  0  0  0
  152.8362  140.4106  155.6734 H   0  0  0  0  0  0  0  0  0  0  0  0
  151.6797  139.6092  156.7219 H   0  0  0  0  0  0  0  0  0  0  0  0
  153.1754  137.9484  155.5640 H   0  0  0  0  0  0  0  0  0  0  0  0
  152.6803  138.5535  154.0086 H   0  0  0  0  0  0  0  0  0  0  0  0
  1  2  1  0  0  0  0
  1 20  1  0  0  0  0
  1 21  1  0  0  0  0
  1 22  1  0  0  0  0
  2  3  1  0  0  0  0
  2  9  1  0  0  0  0
  2 23  1  0  0  0  0
  3  4  1  0  0  0  0
  3 24  1  0  0  0  0
  3 25  1  0  0  0  0
  4  8  1  0  0  0  0
  4  5  1  0  0  0  0
  5  6  2  0  0  0  0
  5 26  1  0  0  0  0
  6  7  1  0  0  0  0
  6 27  1  0  0  0  0
  7  8  2  0  0  0  0
  7 28  1  0  0  0  0
  9 10  1  0  0  0  0
  9 29  1  0  0  0  0
 10 11  1  0  0  0  0
 10 12  1  0  0  0  0
 10 30  1  0  0  0  0
 11 31  1  0  0  0  0
 11 32  1  0  0  0  0
 11 33  1  0  0  0  0
 12 13  2  0  0  0  0
 12 14  1  0  0  0  0
 14 19  1  0  0  0  0
 14 15  1  0  0  0  0
 15 16  1  0  0  0  0
 15 34  1  0  0  0  0
 15 35  1  0  0  0  0
 16 17  1  0  0  0  0
 16 36  1  0  0  0  0
 16 37  1  0  0  0  0
 17 18  1  0  0  0  0
 18 19  1  0  0  0  0
 18 38  1  0  0  0  0
 18 39  1  0  0  0  0
 19 40  1  0  0  0  0
 19 41  1  0  0  0  0
M  END
> <s_m_source_file>
AV-unprocessed.smi

> <i_m_source_file_index>
3336

> <i_lp_mmshare_version>
43012

> <i_f3d_flags>
0

> <s_epik_input>
bjFbY0hdW2NIXVtjSF1uMVtDSDJdW0NAQEhdKFtDSDNdKVtOSF1bQ0BIXShbQ0gzXSlDKD1PKU4yW0NIMl1bQ0gyXU9bQ0gyXVtDSDJdMg==

> <s_epik_cmdline>
J2VwaWtfcHl0aG9uJywgJy1waCcsICc3LjAnLCAnLXRuJywgJzgnLCAnLW1hJywgJzIwMCcsICctbWV0YWxfYmluZGluZycsICctaW1hZScsICc8aW5maWxlLm1hZT4nLCAnLW9tYWUnLCAnPG91dGZpbGUubWFlPic=

> <r_lp_tautomer_probability>
1

> <r_epik_Ionization_Penalty>
0.739958

> <r_epik_Ionization_Penalty_Charging>
0

> <r_epik_Ionization_Penalty_Neutral>
0.739958

> <r_epik_State_Penalty>
0.765967

> <r_epik_Charging_Adjusted_Penalty>
0.765967

> <i_epik_Tot_Q>
0

> <i_epik_Tot_abs_Q>
0

> <r_epik_Metal_State_Penalty>
0.765947

> <b_epik_Metal_Only>
0

> <s_lp_Force_Field>
OPLS_2005

> <r_lp_Energy>
28.3858

> <b_lp_Chiralities_Consistent>
1

> <s_lp_Variant>
AV-unprocessed.smi:3336-8

> <Gold.Version>
5.8.1

> <Gold.Id.Protein>
6NUR|6NUR_protein|mol2

> <Gold.PLP.Fitness>
42.4466

> <Gold.PLP.PLP>
-31.3767

> <Gold.PLP.part.hbond>
-3.0000

> <Gold.PLP.part.metal>
0.0000

> <Gold.PLP.part.buried>
-1.6778

> <Gold.PLP.part.nonpolar>
-28.1686

> <Gold.PLP.part.repulsive>
0.1908

> <Gold.PLP.ligand.clash>
0.0000

> <Gold.PLP.ligand.torsion>
0.2701

> <Gold.PLP.Chemscore.Hbond>
2.8500

> <Gold.PLP.Chemscore.CHOScore>
1.0000

> <Gold.PLP.Chemscore.Metal>
0.0000

> <Gold.Chemscore.Hbonds>
donor molecule, donor type, donor heavy atom, donor atom, acceptor molecule, acceptor atom, score
      L1  H     9    29       P1  7948  0.85
      P1  H  7989  7998       L1    17  1.00
      P1  H 10752 10763       L1    13  1.00
      L1  C     7    28       P1 10956  0.81

> <Gold.PLP.Chemscore.Internal.Correction>
0.0602

> <Gold.Rescore>
     Score         DG    S(hbond)    S(metal)    S(lipo)     H(rot)  DE(clash)    DE(int)     intcor
     15.65     -16.24       2.04        0.00      73.04       1.79       0.16       0.43       ----

> <Gold.Chemscore.Fitness>
15.6461

> <Gold.Chemscore.DG>
-16.2370

> <Gold.Chemscore.ZeroCoef>
-5.4800

> <Gold.Chemscore.Hbond>
2.0368

> <Gold.Chemscore.Metal>
0.0000

> <Gold.Chemscore.Lipo>
73.0371

> <Gold.Chemscore.Internal_Hbond>
0.0000

> <Gold.Chemscore.DEClash>
0.1593

> <Gold.Chemscore.DEInternal>
0.4316

> <Gold.Chemscore.Rot>
1.7935

> <Gold.Chemscore.Internal.Correction>
   9.000000E+99

> <Gold.Chemscore.Hbonds>
donor molecule, donor type, donor heavy atom, donor atom, acceptor molecule, acceptor atom, score
      L1  H     9    29       P1  7948  0.14
      P1  H  7989  7998       L1    17  0.48
      P1  H 10752 10763       L1    13  0.58

> <Gold.Chemscore.Hbond.Weighted>
-6.8029

> <Gold.Chemscore.Metal.Weighted>
-0.0000

> <Gold.Chemscore.Lipo.Weighted>
-8.5453

> <Gold.Chemscore.Internal_Hbond.Weighted>
0.0000

> <Gold.Chemscore.DEClash.Weighted>
0.1593

> <Gold.Chemscore.DEInternal.Weighted>
0.4316

> <Gold.Chemscore.Rot.Weighted>
4.5912

> <Gold.Chemscore.Internal.Correction.Weighted>
   9.000000E+99

> <Gold.Protein.RotatedTorsions>
[ 6907 6896 6895 6894 ] final   96.20 input  -60.11 | X-H torsion
[ 7974 7965 7964 7962 ] final  -97.27 input  175.53 | X-H torsion
[ 8008 7997 7996 7995 ] final   -0.69 input   59.86 | X-H torsion
[ 10167 10162 10161 10158 ] final   69.46 input  -65.29 | X-H torsion
[ 10718 10713 10712 10709 ] final   80.16 input   66.30 | X-H torsion
[ 10763 10752 10751 10750 ] final  112.30 input  -60.55 | X-H torsion
[ 11005 11000 10999 10996 ] final  103.97 input  -57.11 | X-H torsion

> <Gold.Protein.ActiveResidues>
 VAL166  LYS551  ARG553  GLY616  TRP617  ASP618  TYR619  PRO620  LYS621  CYS622 
 ASP623  PHE694  ASN695  SER759  ASP760  ASP761  ALA762  ILE779  LEU786  VAL792 
 PHE793  MET794  SER795  GLU796  ALA797  LYS798  CYS799  TRP800  GLU811  SER814 

> <Gold.Protein.RotatedAtoms>
  152.5437  134.0922  159.8281 H   0  0  0  0  0  0  0  0  0  0  0  0  # atno 6907 bound_to 6896
  151.1010  133.5236  159.2617 H   0  0  0  0  0  0  0  0  0  0  0  0  # atno 6908 bound_to 6896
  151.1991  135.0444  159.8919 H   0  0  0  0  0  0  0  0  0  0  0  0  # atno 6909 bound_to 6896
  145.3359  140.9450  143.2635 H   0  0  0  0  0  0  0  0  0  0  0  0  # atno 7974 bound_to 7965
  154.6552  140.2578  155.7169 H   0  0  0  0  0  0  0  0  0  0  0  0  # atno 8008 bound_to 7997
  156.2594  140.2860  156.0924 H   0  0  0  0  0  0  0  0  0  0  0  0  # atno 8009 bound_to 7997
  155.1390  140.0380  157.2784 H   0  0  0  0  0  0  0  0  0  0  0  0  # atno 8010 bound_to 7997
  140.0676  144.5180  150.7250 H   0  0  0  0  0  0  0  0  0  0  0  0  # atno 10167 bound_to 10162
  157.6798  130.9947  150.2038 H   0  0  0  0  0  0  0  0  0  0  0  0  # atno 10718 bound_to 10713
  153.4759  135.3690  155.2416 H   0  0  0  0  0  0  0  0  0  0  0  0  # atno 10763 bound_to 10752
  154.8756  135.3942  154.3757 H   0  0  0  0  0  0  0  0  0  0  0  0  # atno 10764 bound_to 10752
  153.4353  135.7083  153.6269 H   0  0  0  0  0  0  0  0  0  0  0  0  # atno 10765 bound_to 10752
  139.8788  134.9283  156.5291 H   0  0  0  0  0  0  0  0  0  0  0  0  # atno 11005 bound_to 11000
  144.8828  139.4880  143.6715 LP  0  0  0  0  0  0  0  0  0  0  0  0  # atno 17320 bound_to 7965
  146.3027  139.7478  142.9079 LP  0  0  0  0  0  0  0  0  0  0  0  0  # atno 17321 bound_to 7965
  140.7141  143.2530  151.4488 LP  0  0  0  0  0  0  0  0  0  0  0  0  # atno 17342 bound_to 10162
  139.5855  144.1613  152.2024 LP  0  0  0  0  0  0  0  0  0  0  0  0  # atno 17343 bound_to 10162
  156.2723  130.3723  149.8019 LP  0  0  0  0  0  0  0  0  0  0  0  0  # atno 17370 bound_to 10713
  156.5732  130.8434  151.3362 LP  0  0  0  0  0  0  0  0  0  0  0  0  # atno 17371 bound_to 10713
  140.8394  133.8217  155.9060 LP  0  0  0  0  0  0  0  0  0  0  0  0  # atno 17394 bound_to 11000
  140.9252  134.2091  157.4900 LP  0  0  0  0  0  0  0  0  0  0  0  0  # atno 17395 bound_to 11000

$$$$
