AV-unprocessed.smi:3254|AV-procd|sdf|12456|dock9
  -GOLD-   2272018353D 1   1.00000     0.00000
 Structure written by MMmdl.
 36 37  0  0  0  0  0  0  0  0  1 V2000
  152.5844  142.6383  160.4846 C   0  0  0  0  0  0  0  0  0  0  0  0
  152.9005  141.4341  159.5870 C   0  0  0  0  0  0  0  0  0  0  0  0
  152.0552  141.4106  158.3958 N   0  0  0  0  0  0  0  0  0  0  0  0
  151.0194  142.4113  158.2016 C   0  0  0  0  0  0  0  0  0  0  0  0
  150.2186  141.9494  156.9644 C   0  0  2  0  0  0  0  0  0  0  0  0
  148.8018  141.4797  157.3300 C   0  0  0  0  0  0  0  0  0  0  0  0
  148.6410  140.4739  158.0223 O   0  0  0  0  0  0  0  0  0  0  0  0
  147.7850  142.2205  156.8632 N   0  0  0  0  0  0  0  0  0  0  0  0
  146.3735  141.9472  157.1042 C   0  0  0  0  0  0  0  0  0  0  0  0
  145.6710  143.1419  157.7703 C   0  0  0  0  0  0  0  0  0  0  0  0
  145.9768  143.2160  159.1841 N   0  0  0  0  0  0  0  0  0  0  0  0
  145.1925  142.7586  160.2347 C   0  0  0  0  0  0  0  0  0  0  0  0
  145.8814  143.0443  161.3921 C   0  0  0  0  0  0  0  0  0  0  0  0
  147.0835  143.6746  161.0788 N   0  0  0  0  0  0  0  0  0  0  0  0
  147.0701  143.7413  159.7537 C   0  0  0  0  0  0  0  0  0  0  0  0
  151.0530  140.8084  156.3488 C   0  0  0  0  0  0  0  0  0  0  0  0
  152.1183  140.5257  157.3948 C   0  0  0  0  0  0  0  0  0  0  0  0
  152.9102  139.5889  157.3030 O   0  0  0  0  0  0  0  0  0  0  0  0
  153.2065  142.6265  161.3797 H   0  0  0  0  0  0  0  0  0  0  0  0
  151.5420  142.6275  160.8042 H   0  0  0  0  0  0  0  0  0  0  0  0
  152.7679  143.5807  159.9681 H   0  0  0  0  0  0  0  0  0  0  0  0
  153.9494  141.4558  159.2876 H   0  0  0  0  0  0  0  0  0  0  0  0
  152.7618  140.5110  160.1509 H   0  0  0  0  0  0  0  0  0  0  0  0
  150.4030  142.5051  159.0977 H   0  0  0  0  0  0  0  0  0  0  0  0
  151.4856  143.3806  158.0212 H   0  0  0  0  0  0  0  0  0  0  0  0
  150.1465  142.7732  156.2522 H   0  0  0  0  0  0  0  0  0  0  0  0
  148.0046  143.0305  156.3014 H   0  0  0  0  0  0  0  0  0  0  0  0
  145.9036  141.7263  156.1454 H   0  0  0  0  0  0  0  0  0  0  0  0
  146.2678  141.0494  157.7160 H   0  0  0  0  0  0  0  0  0  0  0  0
  145.9764  144.0802  157.3056 H   0  0  0  0  0  0  0  0  0  0  0  0
  144.5895  143.0653  157.6495 H   0  0  0  0  0  0  0  0  0  0  0  0
  144.2359  142.2824  160.0763 H   0  0  0  0  0  0  0  0  0  0  0  0
  145.6059  142.8472  162.4177 H   0  0  0  0  0  0  0  0  0  0  0  0
  147.8739  144.1843  159.1843 H   0  0  0  0  0  0  0  0  0  0  0  0
  150.4773  139.9058  156.1369 H   0  0  0  0  0  0  0  0  0  0  0  0
  151.5307  141.1275  155.4221 H   0  0  0  0  0  0  0  0  0  0  0  0
  1  2  1  0  0  0  0
  1 19  1  0  0  0  0
  1 20  1  0  0  0  0
  1 21  1  0  0  0  0
  2  3  1  0  0  0  0
  2 22  1  0  0  0  0
  2 23  1  0  0  0  0
  3 17  1  0  0  0  0
  3  4  1  0  0  0  0
  4  5  1  0  0  0  0
  4 24  1  0  0  0  0
  4 25  1  0  0  0  0
  5  6  1  0  0  0  0
  5 16  1  0  0  0  0
  5 26  1  0  0  0  0
  6  7  2  0  0  0  0
  6  8  1  0  0  0  0
  8  9  1  0  0  0  0
  8 27  1  0  0  0  0
  9 10  1  0  0  0  0
  9 28  1  0  0  0  0
  9 29  1  0  0  0  0
 10 11  1  0  0  0  0
 10 30  1  0  0  0  0
 10 31  1  0  0  0  0
 11 15  1  0  0  0  0
 11 12  1  0  0  0  0
 12 13  2  0  0  0  0
 12 32  1  0  0  0  0
 13 14  1  0  0  0  0
 13 33  1  0  0  0  0
 14 15  2  0  0  0  0
 15 34  1  0  0  0  0
 16 17  1  0  0  0  0
 16 35  1  0  0  0  0
 16 36  1  0  0  0  0
 17 18  2  0  0  0  0
M  END
> <s_m_source_file>
AV-unprocessed.smi

> <i_m_source_file_index>
3254

> <i_lp_mmshare_version>
43012

> <i_f3d_flags>
0

> <s_epik_input>
W0NIM11bQ0gyXU4xW0NIMl1bQ0BIXShbQ0gyXUMxPU8pQyg9TylbTkhdW0NIMl1bQ0gyXW4yW2NIXVtjSF1uW2NIXTI=

> <s_epik_cmdline>
J2VwaWtfcHl0aG9uJywgJy1waCcsICc3LjAnLCAnLXRuJywgJzgnLCAnLW1hJywgJzIwMCcsICctbWV0YWxfYmluZGluZycsICctaW1hZScsICc8aW5maWxlLm1hZT4nLCAnLW9tYWUnLCAnPG91dGZpbGUubWFlPic=

> <r_lp_tautomer_probability>
1

> <r_epik_Ionization_Penalty>
0.587394

> <r_epik_Ionization_Penalty_Charging>
0.587394

> <r_epik_Ionization_Penalty_Neutral>
3.11583e-08

> <r_epik_State_Penalty>
0.600671

> <r_epik_Charging_Adjusted_Penalty>
1.18807

> <i_epik_Tot_Q>
0

> <i_epik_Tot_abs_Q>
0

> <r_epik_Metal_State_Penalty>
0.297665

> <b_epik_Metal_Only>
0

> <s_lp_Force_Field>
OPLS_2005

> <r_lp_Energy>
13.3235

> <b_lp_Chiralities_Consistent>
1

> <s_lp_Variant>
AV-unprocessed.smi:3254-4

> <Gold.Version>
5.8.1

> <Gold.Id.Protein>
6NUR|6NUR_protein|mol2

> <Gold.PLP.Fitness>
42.2338

> <Gold.PLP.PLP>
-31.1935

> <Gold.PLP.part.hbond>
-3.5182

> <Gold.PLP.part.metal>
0.0000

> <Gold.PLP.part.buried>
-5.2781

> <Gold.PLP.part.nonpolar>
-22.3958

> <Gold.PLP.part.repulsive>
0.1076

> <Gold.PLP.ligand.clash>
0.0000

> <Gold.PLP.ligand.torsion>
0.4873

> <Gold.PLP.Chemscore.Hbond>
3.0000

> <Gold.PLP.Chemscore.CHOScore>
1.0000

> <Gold.PLP.Chemscore.Metal>
0.0000

> <Gold.Chemscore.Hbonds>
donor molecule, donor type, donor heavy atom, donor atom, acceptor molecule, acceptor atom, score
      L1  H     8    27       P1  8028  1.00
      P1  H  6933  6944       L1    14  1.00
      P1  H  7997  8010       L1    18  1.00
      L1  C    15    34       P1  8029  0.84

> <Gold.PLP.Chemscore.Internal.Correction>
0.0149

> <Gold.Rescore>
     Score         DG    S(hbond)    S(metal)    S(lipo)     H(rot)  DE(clash)    DE(int)     intcor
     14.17     -14.70       2.62        0.00      52.16       2.20       0.01       0.52       ----

> <Gold.Chemscore.Fitness>
14.1681

> <Gold.Chemscore.DG>
-14.7022

> <Gold.Chemscore.ZeroCoef>
-5.4800

> <Gold.Chemscore.Hbond>
2.6166

> <Gold.Chemscore.Metal>
0.0000

> <Gold.Chemscore.Lipo>
52.1580

> <Gold.Chemscore.Internal_Hbond>
0.0000

> <Gold.Chemscore.DEClash>
0.0148

> <Gold.Chemscore.DEInternal>
0.5193

> <Gold.Chemscore.Rot>
2.1952

> <Gold.Chemscore.Internal.Correction>
   9.000000E+99

> <Gold.Chemscore.Hbonds>
donor molecule, donor type, donor heavy atom, donor atom, acceptor molecule, acceptor atom, score
      L1  H     8    27       P1  8028  0.38
      P1  H  6933  6944       L1    14  0.24
      P1  H  7997  8010       L1    18  0.85

> <Gold.Chemscore.Hbond.Weighted>
-8.7394

> <Gold.Chemscore.Metal.Weighted>
-0.0000

> <Gold.Chemscore.Lipo.Weighted>
-6.1025

> <Gold.Chemscore.Internal_Hbond.Weighted>
0.0000

> <Gold.Chemscore.DEClash.Weighted>
0.0148

> <Gold.Chemscore.DEInternal.Weighted>
0.5193

> <Gold.Chemscore.Rot.Weighted>
5.6197

> <Gold.Chemscore.Internal.Correction.Weighted>
   9.000000E+99

> <Gold.Protein.RotatedTorsions>
[ 6907 6896 6895 6894 ] final  139.40 input  -60.11 | X-H torsion
[ 7974 7965 7964 7962 ] final   -9.36 input  175.53 | X-H torsion
[ 8008 7997 7996 7995 ] final   51.31 input   59.86 | X-H torsion
[ 10167 10162 10161 10158 ] final  169.30 input  -65.29 | X-H torsion
[ 10718 10713 10712 10709 ] final -125.85 input   66.30 | X-H torsion
[ 10763 10752 10751 10750 ] final -122.64 input  -60.55 | X-H torsion
[ 11005 11000 10999 10996 ] final   80.96 input  -57.11 | X-H torsion

> <Gold.Protein.ActiveResidues>
 VAL166  LYS551  ARG553  GLY616  TRP617  ASP618  TYR619  PRO620  LYS621  CYS622 
 ASP623  PHE694  ASN695  SER759  ASP760  ASP761  ALA762  ILE779  LEU786  VAL792 
 PHE793  MET794  SER795  GLU796  ALA797  LYS798  CYS799  TRP800  GLU811  SER814 

> <Gold.Protein.RotatedAtoms>
  152.2553  133.5250  159.5349 H   0  0  0  0  0  0  0  0  0  0  0  0  # atno 6907 bound_to 6896
  150.7107  134.0904  159.3938 H   0  0  0  0  0  0  0  0  0  0  0  0  # atno 6908 bound_to 6896
  151.8823  135.0449  160.0540 H   0  0  0  0  0  0  0  0  0  0  0  0  # atno 6909 bound_to 6896
  146.2254  140.2605  142.8351 H   0  0  0  0  0  0  0  0  0  0  0  0  # atno 7974 bound_to 7965
  155.4331  140.3451  155.4282 H   0  0  0  0  0  0  0  0  0  0  0  0  # atno 8008 bound_to 7997
  156.1324  140.1518  156.9076 H   0  0  0  0  0  0  0  0  0  0  0  0  # atno 8009 bound_to 7997
  154.4905  140.0842  156.7563 H   0  0  0  0  0  0  0  0  0  0  0  0  # atno 8010 bound_to 7997
  139.4989  144.3721  151.9713 H   0  0  0  0  0  0  0  0  0  0  0  0  # atno 10167 bound_to 10162
  156.1712  130.6669  151.0182 H   0  0  0  0  0  0  0  0  0  0  0  0  # atno 10718 bound_to 10713
  154.8693  135.4126  154.2814 H   0  0  0  0  0  0  0  0  0  0  0  0  # atno 10763 bound_to 10752
  153.3706  135.7007  153.6646 H   0  0  0  0  0  0  0  0  0  0  0  0  # atno 10764 bound_to 10752
  153.5510  135.3629  155.2731 H   0  0  0  0  0  0  0  0  0  0  0  0  # atno 10765 bound_to 10752
  139.9115  134.7960  156.1978 H   0  0  0  0  0  0  0  0  0  0  0  0  # atno 11005 bound_to 11000
  144.9343  140.8009  143.5670 LP  0  0  0  0  0  0  0  0  0  0  0  0  # atno 17320 bound_to 7965
  145.2551  139.2015  143.4922 LP  0  0  0  0  0  0  0  0  0  0  0  0  # atno 17321 bound_to 7965
  140.3157  144.3486  150.6022 LP  0  0  0  0  0  0  0  0  0  0  0  0  # atno 17342 bound_to 10162
  140.5763  143.2176  151.7509 LP  0  0  0  0  0  0  0  0  0  0  0  0  # atno 17343 bound_to 10162
  157.6804  131.0839  150.7385 LP  0  0  0  0  0  0  0  0  0  0  0  0  # atno 17370 bound_to 10713
  156.7444  130.4749  149.5470 LP  0  0  0  0  0  0  0  0  0  0  0  0  # atno 17371 bound_to 10713
  141.0544  133.6873  156.1832 LP  0  0  0  0  0  0  0  0  0  0  0  0  # atno 17394 bound_to 11000
  140.6760  134.4817  157.5588 LP  0  0  0  0  0  0  0  0  0  0  0  0  # atno 17395 bound_to 11000

$$$$
