AV-unprocessed.smi:3204|AV-procd|sdf|12250|dock8
  -GOLD-   2272018 83D 1   1.00000     0.00000
 Structure written by MMmdl.
 30 31  0  0  0  0  0  0  0  0  1 V2000
  152.3523  144.9627  158.5071 C   0  0  0  0  0  0  0  0  0  0  0  0
  152.2139  144.1581  159.8044 C   0  0  0  0  0  0  0  0  0  0  0  0
  152.6637  142.7180  159.6415 C   0  0  0  0  0  0  0  0  0  0  0  0
  153.6670  142.3000  160.4455 N   0  0  0  0  0  0  0  0  0  0  0  0
  154.0614  141.0321  160.3050 C   0  0  0  0  0  0  0  0  0  0  0  0
  153.5655  140.1307  159.4534 N   0  0  0  0  0  0  0  0  0  0  0  0
  152.5558  140.5321  158.6444 C   0  0  0  0  0  0  0  0  0  0  0  0
  151.9989  139.6266  157.7300 N   0  0  0  0  0  0  0  0  0  0  0  0
  152.0102  139.8854  156.2944 C   0  0  2  0  0  0  0  0  0  0  0  0
  150.5921  140.0811  155.7555 C   0  0  0  0  0  0  0  0  0  0  0  0
  150.6891  139.6730  154.4032 O   0  0  0  0  0  0  0  0  0  0  0  0
  151.4751  138.4917  154.3839 C   0  0  0  0  0  0  0  0  0  0  0  0
  152.5383  138.7076  155.4685 C   0  0  1  0  0  0  0  0  0  0  0  0
  153.7674  139.0440  154.8581 O   0  0  0  0  0  0  0  0  0  0  0  0
  152.0576  141.8515  158.7051 C   0  0  0  0  0  0  0  0  0  0  0  0
  151.0447  142.2645  157.9045 F   0  0  0  0  0  0  0  0  0  0  0  0
  152.0247  145.9923  158.6523 H   0  0  0  0  0  0  0  0  0  0  0  0
  151.7486  144.5308  157.7084 H   0  0  0  0  0  0  0  0  0  0  0  0
  153.3887  144.9873  158.1693 H   0  0  0  0  0  0  0  0  0  0  0  0
  152.7907  144.6337  160.5981 H   0  0  0  0  0  0  0  0  0  0  0  0
  151.1746  144.1701  160.1356 H   0  0  0  0  0  0  0  0  0  0  0  0
  154.8645  140.7008  160.9464 H   0  0  0  0  0  0  0  0  0  0  0  0
  151.6460  138.7406  158.0620 H   0  0  0  0  0  0  0  0  0  0  0  0
  152.5846  140.7886  156.0811 H   0  0  0  0  0  0  0  0  0  0  0  0
  149.8748  139.4359  156.2667 H   0  0  0  0  0  0  0  0  0  0  0  0
  150.2477  141.1118  155.8430 H   0  0  0  0  0  0  0  0  0  0  0  0
  150.8371  137.6465  154.6465 H   0  0  0  0  0  0  0  0  0  0  0  0
  151.8892  138.3009  153.3931 H   0  0  0  0  0  0  0  0  0  0  0  0
  152.6687  137.8003  156.0602 H   0  0  0  0  0  0  0  0  0  0  0  0
  153.9600  138.3924  154.2008 H   0  0  0  0  0  0  0  0  0  0  0  0
  1  2  1  0  0  0  0
  1 17  1  0  0  0  0
  1 18  1  0  0  0  0
  1 19  1  0  0  0  0
  2  3  1  0  0  0  0
  2 20  1  0  0  0  0
  2 21  1  0  0  0  0
  3 15  1  0  0  0  0
  3  4  2  0  0  0  0
  4  5  1  0  0  0  0
  5  6  2  0  0  0  0
  5 22  1  0  0  0  0
  6  7  1  0  0  0  0
  7  8  1  0  0  0  0
  7 15  2  0  0  0  0
  8  9  1  0  0  0  0
  8 23  1  0  0  0  0
  9 13  1  0  0  0  0
  9 10  1  0  0  0  0
  9 24  1  0  0  0  0
 10 11  1  0  0  0  0
 10 25  1  0  0  0  0
 10 26  1  0  0  0  0
 11 12  1  0  0  0  0
 12 13  1  0  0  0  0
 12 27  1  0  0  0  0
 12 28  1  0  0  0  0
 13 14  1  0  0  0  0
 13 29  1  0  0  0  0
 14 30  1  0  0  0  0
 15 16  1  0  0  0  0
M  END
> <s_m_source_file>
AV-unprocessed.smi

> <i_m_source_file_index>
3204

> <i_lp_mmshare_version>
43012

> <i_f3d_flags>
0

> <s_epik_input>
W0NIM11bQ0gyXWMxbltjSF1uYyhjMUYpW05IXVtDQEBIXTJbQ0gyXU9bQ0gyXVtDQEhdMltPSF0=

> <s_epik_cmdline>
J2VwaWtfcHl0aG9uJywgJy1waCcsICc3LjAnLCAnLXRuJywgJzgnLCAnLW1hJywgJzIwMCcsICctbWV0YWxfYmluZGluZycsICctaW1hZScsICc8aW5maWxlLm1hZT4nLCAnLW9tYWUnLCAnPG91dGZpbGUubWFlPic=

> <r_lp_tautomer_probability>
1

> <r_epik_Ionization_Penalty>
0.000484964

> <r_epik_Ionization_Penalty_Charging>
0

> <r_epik_Ionization_Penalty_Neutral>
0.000484964

> <r_epik_State_Penalty>
-0

> <r_epik_Charging_Adjusted_Penalty>
0

> <i_epik_Tot_Q>
0

> <i_epik_Tot_abs_Q>
0

> <r_epik_Metal_State_Penalty>
-0

> <b_epik_Metal_Only>
0

> <s_lp_Force_Field>
OPLS_2005

> <r_lp_Energy>
13.6654

> <b_lp_Chiralities_Consistent>
1

> <s_lp_Variant>
AV-unprocessed.smi:3204-1

> <Gold.Version>
5.8.1

> <Gold.Id.Protein>
6NUR|6NUR_protein|mol2

> <Gold.PLP.Fitness>
42.2089

> <Gold.PLP.PLP>
-37.4405

> <Gold.PLP.part.hbond>
-2.0000

> <Gold.PLP.part.metal>
0.0000

> <Gold.PLP.part.buried>
-6.5822

> <Gold.PLP.part.nonpolar>
-29.2239

> <Gold.PLP.part.repulsive>
0.1942

> <Gold.PLP.ligand.clash>
0.0000

> <Gold.PLP.ligand.torsion>
0.6208

> <Gold.PLP.Chemscore.Hbond>
2.0000

> <Gold.PLP.Chemscore.CHOScore>
0.0000

> <Gold.PLP.Chemscore.Metal>
0.0000

> <Gold.Chemscore.Hbonds>
donor molecule, donor type, donor heavy atom, donor atom, acceptor molecule, acceptor atom, score
      P1  H  7989  7998       L1    11  1.00
      P1  H  7997  8010       L1    14  1.00

> <Gold.PLP.Chemscore.Internal.Correction>
0.0100

> <Gold.Rescore>
     Score         DG    S(hbond)    S(metal)    S(lipo)     H(rot)  DE(clash)    DE(int)     intcor
     13.51     -14.19       1.34        0.00      76.24       1.83       0.05       0.64       ----

> <Gold.Chemscore.Fitness>
13.5094

> <Gold.Chemscore.DG>
-14.1928

> <Gold.Chemscore.ZeroCoef>
-5.4800

> <Gold.Chemscore.Hbond>
1.3435

> <Gold.Chemscore.Metal>
0.0000

> <Gold.Chemscore.Lipo>
76.2375

> <Gold.Chemscore.Internal_Hbond>
0.0000

> <Gold.Chemscore.DEClash>
0.0460

> <Gold.Chemscore.DEInternal>
0.6374

> <Gold.Chemscore.Rot>
1.8337

> <Gold.Chemscore.Internal.Correction>
   9.000000E+99

> <Gold.Chemscore.Hbonds>
donor molecule, donor type, donor heavy atom, donor atom, acceptor molecule, acceptor atom, score
      P1  H  7989  7998       L1    11  0.37
      P1  H  7997  8010       L1    14  0.84

> <Gold.Chemscore.Hbond.Weighted>
-4.4872

> <Gold.Chemscore.Metal.Weighted>
-0.0000

> <Gold.Chemscore.Lipo.Weighted>
-8.9198

> <Gold.Chemscore.Internal_Hbond.Weighted>
0.0000

> <Gold.Chemscore.DEClash.Weighted>
0.0460

> <Gold.Chemscore.DEInternal.Weighted>
0.6374

> <Gold.Chemscore.Rot.Weighted>
4.6942

> <Gold.Chemscore.Internal.Correction.Weighted>
   9.000000E+99

> <Gold.Protein.RotatedTorsions>
[ 6907 6896 6895 6894 ] final  103.98 input  -60.11 | X-H torsion
[ 7974 7965 7964 7962 ] final  152.75 input  175.53 | X-H torsion
[ 8008 7997 7996 7995 ] final  121.12 input   59.86 | X-H torsion
[ 10167 10162 10161 10158 ] final   65.21 input  -65.29 | X-H torsion
[ 10718 10713 10712 10709 ] final   77.80 input   66.30 | X-H torsion
[ 10763 10752 10751 10750 ] final  124.73 input  -60.55 | X-H torsion
[ 11005 11000 10999 10996 ] final   -4.34 input  -57.11 | X-H torsion

> <Gold.Protein.ActiveResidues>
 VAL166  LYS551  ARG553  GLY616  TRP617  ASP618  TYR619  PRO620  LYS621  CYS622 
 ASP623  PHE694  ASN695  SER759  ASP760  ASP761  ALA762  ILE779  LEU786  VAL792 
 PHE793  MET794  SER795  GLU796  ALA797  LYS798  CYS799  TRP800  GLU811  SER814 

> <Gold.Protein.RotatedAtoms>
  152.5279  133.9745  159.7777 H   0  0  0  0  0  0  0  0  0  0  0  0  # atno 6907 bound_to 6896
  151.0010  133.6048  159.2702 H   0  0  0  0  0  0  0  0  0  0  0  0  # atno 6908 bound_to 6896
  151.3157  135.0812  159.9341 H   0  0  0  0  0  0  0  0  0  0  0  0  # atno 6909 bound_to 6896
  144.8201  139.6710  143.6104 H   0  0  0  0  0  0  0  0  0  0  0  0  # atno 7974 bound_to 7965
  156.2672  140.2815  156.1257 H   0  0  0  0  0  0  0  0  0  0  0  0  # atno 8008 bound_to 7997
  155.1108  140.0391  157.2741 H   0  0  0  0  0  0  0  0  0  0  0  0  # atno 8009 bound_to 7997
  154.6744  140.2595  155.6979 H   0  0  0  0  0  0  0  0  0  0  0  0  # atno 8010 bound_to 7997
  140.1137  144.4795  150.6962 H   0  0  0  0  0  0  0  0  0  0  0  0  # atno 10167 bound_to 10162
  157.6723  130.9838  150.1694 H   0  0  0  0  0  0  0  0  0  0  0  0  # atno 10718 bound_to 10713
  153.6660  135.3338  155.3140 H   0  0  0  0  0  0  0  0  0  0  0  0  # atno 10763 bound_to 10752
  154.8503  135.4375  154.1754 H   0  0  0  0  0  0  0  0  0  0  0  0  # atno 10764 bound_to 10752
  153.2733  135.7002  153.7534 H   0  0  0  0  0  0  0  0  0  0  0  0  # atno 10765 bound_to 10752
  140.6791  133.9169  155.8544 H   0  0  0  0  0  0  0  0  0  0  0  0  # atno 11005 bound_to 11000
  146.2506  139.6191  142.9430 LP  0  0  0  0  0  0  0  0  0  0  0  0  # atno 17320 bound_to 7965
  145.5125  141.0435  143.2480 LP  0  0  0  0  0  0  0  0  0  0  0  0  # atno 17321 bound_to 7965
  140.6911  143.2376  151.5128 LP  0  0  0  0  0  0  0  0  0  0  0  0  # atno 17342 bound_to 10162
  139.5605  144.2168  152.1684 LP  0  0  0  0  0  0  0  0  0  0  0  0  # atno 17343 bound_to 10162
  156.2451  130.3695  149.8293 LP  0  0  0  0  0  0  0  0  0  0  0  0  # atno 17370 bound_to 10713
  156.6082  130.8575  151.3448 LP  0  0  0  0  0  0  0  0  0  0  0  0  # atno 17371 bound_to 10713
  141.0331  134.0727  157.3990 LP  0  0  0  0  0  0  0  0  0  0  0  0  # atno 17394 bound_to 11000
  139.8957  135.0142  156.7016 LP  0  0  0  0  0  0  0  0  0  0  0  0  # atno 17395 bound_to 11000

$$$$
