AV-unprocessed.smi:374|AV-procd|sdf|2451|dock2
  -GOLD-   2262022393D 1   1.00000     0.00000
 Structure written by MMmdl.
 37 38  0  0  0  0  0  0  0  0  1 V2000
  153.5841  136.5630  157.4030 C   0  0  0  0  0  0  0  0  0  0  0  0
  153.3199  138.0664  157.1996 C   0  0  2  0  0  0  0  0  0  0  0  0
  152.7432  138.7470  158.4505 C   0  0  0  0  0  0  0  0  0  0  0  0
  152.1593  138.0917  159.3145 O   0  0  0  0  0  0  0  0  0  0  0  0
  152.9106  140.0750  158.5289 N   0  0  0  0  0  0  0  0  0  0  0  0
  152.4152  140.9085  159.6159 C   0  0  0  0  0  0  0  0  0  0  0  0
  152.4484  142.4030  159.2431 C   0  0  0  0  0  0  0  0  0  0  0  0
  152.0753  143.2789  160.4565 C   0  0  0  0  0  0  0  0  0  0  0  0
  152.1131  144.7766  160.1122 C   0  0  0  0  0  0  0  0  0  0  0  0
  151.2008  145.0957  158.9183 C   0  0  0  0  0  0  0  0  0  0  0  0
  151.5647  144.2337  157.7002 C   0  0  0  0  0  0  0  0  0  0  0  0
  151.5307  142.7355  158.0446 C   0  0  0  0  0  0  0  0  0  0  0  0
  152.4477  138.2938  156.0557 N   0  0  0  0  0  0  0  0  0  0  0  0
  151.9254  139.4202  155.5620 C   0  0  0  0  0  0  0  0  0  0  0  0
  151.1698  139.2365  154.4884 N   0  0  0  0  0  0  0  0  0  0  0  0
  151.2763  137.8801  154.3647 C   0  0  0  0  0  0  0  0  0  0  0  0
  152.0303  137.2668  155.2771 N   0  0  0  0  0  0  0  0  0  0  0  0
  154.2428  136.3888  158.2544 H   0  0  0  0  0  0  0  0  0  0  0  0
  154.0656  136.1325  156.5246 H   0  0  0  0  0  0  0  0  0  0  0  0
  152.6606  136.0090  157.5770 H   0  0  0  0  0  0  0  0  0  0  0  0
  154.2812  138.5400  156.9907 H   0  0  0  0  0  0  0  0  0  0  0  0
  153.3979  140.5410  157.7770 H   0  0  0  0  0  0  0  0  0  0  0  0
  151.3972  140.6077  159.8694 H   0  0  0  0  0  0  0  0  0  0  0  0
  153.0293  140.7313  160.5003 H   0  0  0  0  0  0  0  0  0  0  0  0
  153.4726  142.6509  158.9596 H   0  0  0  0  0  0  0  0  0  0  0  0
  151.0778  143.0137  160.8093 H   0  0  0  0  0  0  0  0  0  0  0  0
  152.7570  143.0799  161.2841 H   0  0  0  0  0  0  0  0  0  0  0  0
  151.8098  145.3646  160.9786 H   0  0  0  0  0  0  0  0  0  0  0  0
  153.1368  145.0731  159.8803 H   0  0  0  0  0  0  0  0  0  0  0  0
  150.1608  144.9177  159.1949 H   0  0  0  0  0  0  0  0  0  0  0  0
  151.2771  146.1531  158.6633 H   0  0  0  0  0  0  0  0  0  0  0  0
  150.8774  144.4417  156.8796 H   0  0  0  0  0  0  0  0  0  0  0  0
  152.5601  144.5045  157.3457 H   0  0  0  0  0  0  0  0  0  0  0  0
  151.8272  142.1632  157.1651 H   0  0  0  0  0  0  0  0  0  0  0  0
  150.5061  142.4386  158.2724 H   0  0  0  0  0  0  0  0  0  0  0  0
  152.1032  140.3934  155.9964 H   0  0  0  0  0  0  0  0  0  0  0  0
  150.7842  137.3279  153.5777 H   0  0  0  0  0  0  0  0  0  0  0  0
  1  2  1  0  0  0  0
  1 18  1  0  0  0  0
  1 19  1  0  0  0  0
  1 20  1  0  0  0  0
  2  3  1  0  0  0  0
  2 13  1  0  0  0  0
  2 21  1  0  0  0  0
  3  4  2  0  0  0  0
  3  5  1  0  0  0  0
  5  6  1  0  0  0  0
  5 22  1  0  0  0  0
  6  7  1  0  0  0  0
  6 23  1  0  0  0  0
  6 24  1  0  0  0  0
  7 12  1  0  0  0  0
  7  8  1  0  0  0  0
  7 25  1  0  0  0  0
  8  9  1  0  0  0  0
  8 26  1  0  0  0  0
  8 27  1  0  0  0  0
  9 10  1  0  0  0  0
  9 28  1  0  0  0  0
  9 29  1  0  0  0  0
 10 11  1  0  0  0  0
 10 30  1  0  0  0  0
 10 31  1  0  0  0  0
 11 12  1  0  0  0  0
 11 32  1  0  0  0  0
 11 33  1  0  0  0  0
 12 34  1  0  0  0  0
 12 35  1  0  0  0  0
 13 17  1  0  0  0  0
 13 14  1  0  0  0  0
 14 15  2  0  0  0  0
 14 36  1  0  0  0  0
 15 16  1  0  0  0  0
 16 17  2  0  0  0  0
 16 37  1  0  0  0  0
M  END
> <s_m_source_file>
AV-unprocessed.smi

> <i_m_source_file_index>
374

> <i_lp_mmshare_version>
43012

> <i_f3d_flags>
0

> <s_epik_input>
bjFbY0hdbltjSF1uMVtDQEhdKFtDSDNdKUMoPU8pW05IXVtDSDJdW0NIXTJbQ0gyXVtDSDJdW0NIMl1bQ0gyXVtDSDJdMg==

> <s_epik_cmdline>
J2VwaWtfcHl0aG9uJywgJy1waCcsICc3LjAnLCAnLXRuJywgJzgnLCAnLW1hJywgJzIwMCcsICctbWV0YWxfYmluZGluZycsICctaW1hZScsICc8aW5maWxlLm1hZT4nLCAnLW9tYWUnLCAnPG91dGZpbGUubWFlPic=

> <r_lp_tautomer_probability>
1

> <r_epik_Ionization_Penalty>
1.24899e-05

> <r_epik_Ionization_Penalty_Charging>
0

> <r_epik_Ionization_Penalty_Neutral>
1.24899e-05

> <r_epik_State_Penalty>
-0

> <r_epik_Charging_Adjusted_Penalty>
0

> <i_epik_Tot_Q>
0

> <i_epik_Tot_abs_Q>
0

> <r_epik_Metal_State_Penalty>
-0

> <b_epik_Metal_Only>
0

> <s_lp_Force_Field>
OPLS_2005

> <r_lp_Energy>
16.088

> <b_lp_Chiralities_Consistent>
1

> <s_lp_Variant>
AV-unprocessed.smi:374-1

> <Gold.Version>
5.8.1

> <Gold.Id.Protein>
6NUR|6NUR_protein|mol2

> <Gold.PLP.Fitness>
44.4878

> <Gold.PLP.PLP>
-36.8746

> <Gold.PLP.part.hbond>
-2.0000

> <Gold.PLP.part.metal>
0.0000

> <Gold.PLP.part.buried>
-5.0288

> <Gold.PLP.part.nonpolar>
-30.5585

> <Gold.PLP.part.repulsive>
0.2870

> <Gold.PLP.ligand.clash>
0.0000

> <Gold.PLP.ligand.torsion>
0.7459

> <Gold.PLP.Chemscore.Hbond>
1.8960

> <Gold.PLP.Chemscore.CHOScore>
1.1165

> <Gold.PLP.Chemscore.Metal>
0.0000

> <Gold.Chemscore.Hbonds>
donor molecule, donor type, donor heavy atom, donor atom, acceptor molecule, acceptor atom, score
      P1  H  7989  7998       L1    15  0.95
      P1  H 10752 10765       L1    17  0.90
      L1  C    16    37       P1  7948  0.27
      L1  C    16    37       P1  7949  0.84

> <Gold.PLP.Chemscore.Internal.Correction>
0.0676

> <Gold.Rescore>
     Score         DG    S(hbond)    S(metal)    S(lipo)     H(rot)  DE(clash)    DE(int)     intcor
     14.61     -15.31       1.65        0.00      83.71       2.14       0.01       0.69       ----

> <Gold.Chemscore.Fitness>
14.6136

> <Gold.Chemscore.DG>
-15.3144

> <Gold.Chemscore.ZeroCoef>
-5.4800

> <Gold.Chemscore.Hbond>
1.6511

> <Gold.Chemscore.Metal>
0.0000

> <Gold.Chemscore.Lipo>
83.7070

> <Gold.Chemscore.Internal_Hbond>
0.0000

> <Gold.Chemscore.DEClash>
0.0127

> <Gold.Chemscore.DEInternal>
0.6881

> <Gold.Chemscore.Rot>
2.1383

> <Gold.Chemscore.Internal.Correction>
   9.000000E+99

> <Gold.Chemscore.Hbonds>
donor molecule, donor type, donor heavy atom, donor atom, acceptor molecule, acceptor atom, score
      P1  H  7989  7998       L1    15  0.21
      P1  H 10752 10765       L1    17  0.76

> <Gold.Chemscore.Hbond.Weighted>
-5.5148

> <Gold.Chemscore.Metal.Weighted>
-0.0000

> <Gold.Chemscore.Lipo.Weighted>
-9.7937

> <Gold.Chemscore.Internal_Hbond.Weighted>
0.0000

> <Gold.Chemscore.DEClash.Weighted>
0.0127

> <Gold.Chemscore.DEInternal.Weighted>
0.6881

> <Gold.Chemscore.Rot.Weighted>
5.4741

> <Gold.Chemscore.Internal.Correction.Weighted>
   9.000000E+99

> <Gold.Protein.RotatedTorsions>
[ 6907 6896 6895 6894 ] final   60.45 input  -60.11 | X-H torsion
[ 7974 7965 7964 7962 ] final  -46.64 input  175.53 | X-H torsion
[ 8008 7997 7996 7995 ] final   21.27 input   59.86 | X-H torsion
[ 10167 10162 10161 10158 ] final -147.34 input  -65.29 | X-H torsion
[ 10718 10713 10712 10709 ] final  -25.74 input   66.30 | X-H torsion
[ 10763 10752 10751 10750 ] final -177.17 input  -60.55 | X-H torsion
[ 11005 11000 10999 10996 ] final    8.00 input  -57.11 | X-H torsion

> <Gold.Protein.ActiveResidues>
 VAL166  LYS551  ARG553  GLY616  TRP617  ASP618  TYR619  PRO620  LYS621  CYS622 
 ASP623  PHE694  ASN695  SER759  ASP760  ASP761  ALA762  ILE779  LEU786  VAL792 
 PHE793  MET794  SER795  GLU796  ALA797  LYS798  CYS799  TRP800  GLU811  SER814 

> <Gold.Protein.RotatedAtoms>
  152.4004  134.6295  160.0071 H   0  0  0  0  0  0  0  0  0  0  0  0  # atno 6907 bound_to 6896
  151.6502  133.3316  159.3158 H   0  0  0  0  0  0  0  0  0  0  0  0  # atno 6908 bound_to 6896
  150.7905  134.6968  159.6572 H   0  0  0  0  0  0  0  0  0  0  0  0  # atno 6909 bound_to 6896
  145.9698  140.7394  142.9416 H   0  0  0  0  0  0  0  0  0  0  0  0  # atno 7974 bound_to 7965
  154.9480  140.3062  155.5088 H   0  0  0  0  0  0  0  0  0  0  0  0  # atno 8008 bound_to 7997
  156.2990  140.2324  156.4493 H   0  0  0  0  0  0  0  0  0  0  0  0  # atno 8009 bound_to 7997
  154.8081  140.0430  157.1311 H   0  0  0  0  0  0  0  0  0  0  0  0  # atno 8010 bound_to 7997
  139.7631  143.8348  152.2611 H   0  0  0  0  0  0  0  0  0  0  0  0  # atno 10167 bound_to 10162
  156.4604  130.4502  149.6933 H   0  0  0  0  0  0  0  0  0  0  0  0  # atno 10718 bound_to 10713
  154.5634  135.2822  155.0897 H   0  0  0  0  0  0  0  0  0  0  0  0  # atno 10763 bound_to 10752
  154.2297  135.6376  153.5175 H   0  0  0  0  0  0  0  0  0  0  0  0  # atno 10764 bound_to 10752
  153.0036  135.5534  154.6236 H   0  0  0  0  0  0  0  0  0  0  0  0  # atno 10765 bound_to 10752
  140.5419  134.0366  155.7907 H   0  0  0  0  0  0  0  0  0  0  0  0  # atno 11005 bound_to 11000
  144.6834  140.2730  143.7303 LP  0  0  0  0  0  0  0  0  0  0  0  0  # atno 17320 bound_to 7965
  145.7922  139.1931  143.2096 LP  0  0  0  0  0  0  0  0  0  0  0  0  # atno 17321 bound_to 7965
  139.8360  144.7232  150.9391 LP  0  0  0  0  0  0  0  0  0  0  0  0  # atno 17342 bound_to 10162
  140.7809  143.4027  151.1123 LP  0  0  0  0  0  0  0  0  0  0  0  0  # atno 17343 bound_to 10162
  156.3723  130.7537  151.2521 LP  0  0  0  0  0  0  0  0  0  0  0  0  # atno 17370 bound_to 10713
  157.7498  131.0319  150.4204 LP  0  0  0  0  0  0  0  0  0  0  0  0  # atno 17371 bound_to 10713
  141.1222  133.9442  157.2706 LP  0  0  0  0  0  0  0  0  0  0  0  0  # atno 17394 bound_to 11000
  139.9500  135.0177  156.8965 LP  0  0  0  0  0  0  0  0  0  0  0  0  # atno 17395 bound_to 11000

$$$$
