AV-unprocessed.smi:1523|AV-procd|sdf|6138|dock5
  -GOLD-   22720 6283D 1   1.00000     0.00000
 Structure written by MMmdl.
 37 38  0  0  0  0  0  0  0  0  1 V2000
  152.4253  132.0812  156.9072 C   0  0  0  0  0  0  0  0  0  0  0  0
  151.8391  131.1376  155.9138 C   0  0  0  0  0  0  0  0  0  0  0  0
  150.6981  131.3710  155.2604 N   0  0  0  0  0  0  0  0  0  0  0  0
  150.3583  130.3361  154.3831 C   0  0  0  0  0  0  0  0  0  0  0  0
  149.1099  130.4334  153.5598 C   0  0  0  0  0  0  0  0  0  0  0  0
  148.3500  131.7460  153.8113 C   0  0  0  0  0  0  0  0  0  0  0  0
  147.6772  132.2152  152.6056 N   0  0  0  0  0  0  0  0  0  0  0  0
  146.7624  133.1986  152.5567 C   0  0  0  0  0  0  0  0  0  0  0  0
  146.4025  133.8059  153.5662 O   0  0  0  0  0  0  0  0  0  0  0  0
  146.2742  133.4605  151.3170 N   0  0  0  0  0  0  0  0  0  0  0  0
  146.5297  132.6796  150.0931 C   0  0  0  0  0  0  0  0  0  0  0  0
  145.2483  131.9138  149.7166 C   0  0  0  0  0  0  0  0  0  0  0  0
  144.0655  132.8871  149.5394 C   0  0  0  0  0  0  0  0  0  0  0  0
  142.8699  132.1600  149.3529 O   0  0  0  0  0  0  0  0  0  0  0  0
  143.9215  133.8302  150.7507 C   0  0  0  0  0  0  0  0  0  0  0  0
  145.2667  134.5041  151.0811 C   0  0  0  0  0  0  0  0  0  0  0  0
  151.2667  129.3070  154.3831 C   0  0  0  0  0  0  0  0  0  0  0  0
  152.5812  129.6002  155.4881 S   0  0  0  0  0  0  0  0  0  0  0  0
  152.1803  133.1108  156.6445 H   0  0  0  0  0  0  0  0  0  0  0  0
  153.5102  131.9770  156.9307 H   0  0  0  0  0  0  0  0  0  0  0  0
  152.0309  131.8682  157.9009 H   0  0  0  0  0  0  0  0  0  0  0  0
  149.3598  130.3517  152.5012 H   0  0  0  0  0  0  0  0  0  0  0  0
  148.4567  129.5873  153.7777 H   0  0  0  0  0  0  0  0  0  0  0  0
  147.5919  131.5958  154.5804 H   0  0  0  0  0  0  0  0  0  0  0  0
  149.0269  132.5143  154.1892 H   0  0  0  0  0  0  0  0  0  0  0  0
  147.9232  131.7570  151.7405 H   0  0  0  0  0  0  0  0  0  0  0  0
  146.8037  133.3616  149.2868 H   0  0  0  0  0  0  0  0  0  0  0  0
  147.3661  131.9856  150.1754 H   0  0  0  0  0  0  0  0  0  0  0  0
  145.4081  131.3448  148.8002 H   0  0  0  0  0  0  0  0  0  0  0  0
  145.0207  131.1876  150.4988 H   0  0  0  0  0  0  0  0  0  0  0  0
  144.2339  133.4882  148.6448 H   0  0  0  0  0  0  0  0  0  0  0  0
  142.1433  132.7641  149.3745 H   0  0  0  0  0  0  0  0  0  0  0  0
  143.1622  134.5870  150.5509 H   0  0  0  0  0  0  0  0  0  0  0  0
  143.5785  133.2684  151.6211 H   0  0  0  0  0  0  0  0  0  0  0  0
  145.1448  135.1765  151.9314 H   0  0  0  0  0  0  0  0  0  0  0  0
  145.5854  135.1347  150.2500 H   0  0  0  0  0  0  0  0  0  0  0  0
  151.2429  128.3977  153.8008 H   0  0  0  0  0  0  0  0  0  0  0  0
  1  2  1  0  0  0  0
  1 19  1  0  0  0  0
  1 20  1  0  0  0  0
  1 21  1  0  0  0  0
  2 18  1  0  0  0  0
  2  3  2  0  0  0  0
  3  4  1  0  0  0  0
  4  5  1  0  0  0  0
  4 17  2  0  0  0  0
  5  6  1  0  0  0  0
  5 22  1  0  0  0  0
  5 23  1  0  0  0  0
  6  7  1  0  0  0  0
  6 24  1  0  0  0  0
  6 25  1  0  0  0  0
  7  8  1  0  0  0  0
  7 26  1  0  0  0  0
  8  9  2  0  0  0  0
  8 10  1  0  0  0  0
 10 16  1  0  0  0  0
 10 11  1  0  0  0  0
 11 12  1  0  0  0  0
 11 27  1  0  0  0  0
 11 28  1  0  0  0  0
 12 13  1  0  0  0  0
 12 29  1  0  0  0  0
 12 30  1  0  0  0  0
 13 14  1  0  0  0  0
 13 15  1  0  0  0  0
 13 31  1  0  0  0  0
 14 32  1  0  0  0  0
 15 16  1  0  0  0  0
 15 33  1  0  0  0  0
 15 34  1  0  0  0  0
 16 35  1  0  0  0  0
 16 36  1  0  0  0  0
 17 18  1  0  0  0  0
 17 37  1  0  0  0  0
M  END
> <s_m_source_file>
AV-unprocessed.smi

> <i_m_source_file_index>
1523

> <i_lp_mmshare_version>
43012

> <i_f3d_flags>
0

> <s_epik_input>
W0NIM11jMW5jKFtjSF1zMSlbQ0gyXVtDSDJdW05IXUMoPU8pTjJbQ0gyXVtDSDJdW0NIXShbT0hdKVtDSDJdW0NIMl0y

> <s_epik_cmdline>
J2VwaWtfcHl0aG9uJywgJy1waCcsICc3LjAnLCAnLXRuJywgJzgnLCAnLW1hJywgJzIwMCcsICctbWV0YWxfYmluZGluZycsICctaW1hZScsICc8aW5maWxlLm1hZT4nLCAnLW9tYWUnLCAnPG91dGZpbGUubWFlPic=

> <r_epik_Ionization_Penalty>
0.00204564

> <r_epik_Ionization_Penalty_Charging>
0

> <r_epik_Ionization_Penalty_Neutral>
0.00204564

> <r_epik_State_Penalty>
0.00135655

> <r_epik_Charging_Adjusted_Penalty>
0.00135655

> <i_epik_Tot_Q>
0

> <i_epik_Tot_abs_Q>
0

> <r_epik_Metal_State_Penalty>
-0

> <b_epik_Metal_Only>
0

> <s_lp_Force_Field>
OPLS_2005

> <r_lp_Energy>
24.1717

> <b_lp_Chiralities_Consistent>
1

> <s_lp_Variant>
AV-unprocessed.smi:1523-1

> <Gold.Version>
5.8.1

> <Gold.Id.Protein>
6NUR|6NUR_protein|mol2

> <Gold.PLP.Fitness>
46.8444

> <Gold.PLP.PLP>
-36.0016

> <Gold.PLP.part.hbond>
-3.9288

> <Gold.PLP.part.metal>
0.0000

> <Gold.PLP.part.buried>
-3.1579

> <Gold.PLP.part.nonpolar>
-28.0249

> <Gold.PLP.part.repulsive>
0.0869

> <Gold.PLP.ligand.clash>
0.0000

> <Gold.PLP.ligand.torsion>
0.2938

> <Gold.PLP.Chemscore.Hbond>
2.8038

> <Gold.PLP.Chemscore.CHOScore>
1.0000

> <Gold.PLP.Chemscore.Metal>
0.0000

> <Gold.Chemscore.Hbonds>
donor molecule, donor type, donor heavy atom, donor atom, acceptor molecule, acceptor atom, score
      L1  H     7    26       P1 10747  1.00
      L1  H    14    32       P1 10186  1.00
      P1  H 10785 10796       L1    14  0.75
      L1  C    17    37       P1 10737  1.00

> <Gold.PLP.Chemscore.Internal.Correction>
0.0191

> <Gold.Rescore>
     Score         DG    S(hbond)    S(metal)    S(lipo)     H(rot)  DE(clash)    DE(int)     intcor
     18.65     -19.18       2.62        0.00      82.90       1.86       0.20       0.32       ----

> <Gold.Chemscore.Fitness>
18.6511

> <Gold.Chemscore.DG>
-19.1759

> <Gold.Chemscore.ZeroCoef>
-5.4800

> <Gold.Chemscore.Hbond>
2.6226

> <Gold.Chemscore.Metal>
0.0000

> <Gold.Chemscore.Lipo>
82.9034

> <Gold.Chemscore.Internal_Hbond>
0.0000

> <Gold.Chemscore.DEClash>
0.2050

> <Gold.Chemscore.DEInternal>
0.3198

> <Gold.Chemscore.Rot>
1.8607

> <Gold.Chemscore.Internal.Correction>
   9.000000E+99

> <Gold.Chemscore.Hbonds>
donor molecule, donor type, donor heavy atom, donor atom, acceptor molecule, acceptor atom, score
      L1  H     7    26       P1 10747  0.95
      L1  H    14    32       P1 10186  0.96
      P1  H 10785 10796       L1    14  0.66

> <Gold.Chemscore.Hbond.Weighted>
-8.7595

> <Gold.Chemscore.Metal.Weighted>
-0.0000

> <Gold.Chemscore.Lipo.Weighted>
-9.6997

> <Gold.Chemscore.Internal_Hbond.Weighted>
0.0000

> <Gold.Chemscore.DEClash.Weighted>
0.2050

> <Gold.Chemscore.DEInternal.Weighted>
0.3198

> <Gold.Chemscore.Rot.Weighted>
4.7633

> <Gold.Chemscore.Internal.Correction.Weighted>
   9.000000E+99

> <Gold.Protein.RotatedTorsions>
[ 6907 6896 6895 6894 ] final   99.94 input  -60.11 | X-H torsion
[ 7974 7965 7964 7962 ] final  -10.49 input  175.53 | X-H torsion
[ 8008 7997 7996 7995 ] final   19.76 input   59.86 | X-H torsion
[ 10167 10162 10161 10158 ] final  -88.99 input  -65.29 | X-H torsion
[ 10718 10713 10712 10709 ] final  -14.93 input   66.30 | X-H torsion
[ 10763 10752 10751 10750 ] final   97.71 input  -60.55 | X-H torsion
[ 11005 11000 10999 10996 ] final   43.70 input  -57.11 | X-H torsion

> <Gold.Protein.ActiveResidues>
 VAL166  LYS551  ARG553  GLY616  TRP617  ASP618  TYR619  PRO620  LYS621  CYS622 
 ASP623  PHE694  ASN695  SER759  ASP760  ASP761  ALA762  ILE779  LEU786  VAL792 
 PHE793  MET794  SER795  GLU796  ALA797  LYS798  CYS799  TRP800  GLU811  SER814 

> <Gold.Protein.RotatedAtoms>
  152.5382  134.0352  159.8042 H   0  0  0  0  0  0  0  0  0  0  0  0  # atno 6907 bound_to 6896
  151.0516  133.5611  159.2649 H   0  0  0  0  0  0  0  0  0  0  0  0  # atno 6908 bound_to 6896
  151.2543  135.0640  159.9128 H   0  0  0  0  0  0  0  0  0  0  0  0  # atno 6909 bound_to 6896
  146.2219  140.2772  142.8360 H   0  0  0  0  0  0  0  0  0  0  0  0  # atno 7974 bound_to 7965
  154.9256  140.3033  155.5194 H   0  0  0  0  0  0  0  0  0  0  0  0  # atno 8008 bound_to 7997
  156.3007  140.2363  156.4247 H   0  0  0  0  0  0  0  0  0  0  0  0  # atno 8009 bound_to 7997
  154.8288  140.0419  157.1451 H   0  0  0  0  0  0  0  0  0  0  0  0  # atno 8010 bound_to 7997
  140.3692  143.2803  151.9521 H   0  0  0  0  0  0  0  0  0  0  0  0  # atno 10167 bound_to 10162
  156.6090  130.4844  149.6209 H   0  0  0  0  0  0  0  0  0  0  0  0  # atno 10718 bound_to 10713
  153.2802  135.4173  155.1072 H   0  0  0  0  0  0  0  0  0  0  0  0  # atno 10763 bound_to 10752
  154.8487  135.3493  154.6122 H   0  0  0  0  0  0  0  0  0  0  0  0  # atno 10764 bound_to 10752
  153.6543  135.7051  153.5256 H   0  0  0  0  0  0  0  0  0  0  0  0  # atno 10765 bound_to 10752
  140.1620  134.4329  155.8311 H   0  0  0  0  0  0  0  0  0  0  0  0  # atno 11005 bound_to 11000
  144.9224  140.7883  143.5740 LP  0  0  0  0  0  0  0  0  0  0  0  0  # atno 17320 bound_to 7965
  145.2709  139.1955  143.4842 LP  0  0  0  0  0  0  0  0  0  0  0  0  # atno 17321 bound_to 7965
  139.4805  144.5922  151.7751 LP  0  0  0  0  0  0  0  0  0  0  0  0  # atno 17342 bound_to 10162
  140.5050  144.1111  150.5980 LP  0  0  0  0  0  0  0  0  0  0  0  0  # atno 17343 bound_to 10162
  156.2406  130.6849  151.1552 LP  0  0  0  0  0  0  0  0  0  0  0  0  # atno 17370 bound_to 10713
  157.7259  131.0650  150.5931 LP  0  0  0  0  0  0  0  0  0  0  0  0  # atno 17371 bound_to 10713
  141.2210  133.6918  156.7612 LP  0  0  0  0  0  0  0  0  0  0  0  0  # atno 17394 bound_to 11000
  140.2478  134.8564  157.3637 LP  0  0  0  0  0  0  0  0  0  0  0  0  # atno 17395 bound_to 11000

$$$$
