AV-unprocessed.smi:173|AV-procd|sdf|1424|dock3
  -GOLD-   2262019193D 1   1.00000     0.00000
 Structure written by MMmdl.
 60 64  0  0  0  0  0  0  0  0  1 V2000
  148.2151  135.6982  153.9208 O   0  0  0  0  0  0  0  0  0  0  0  0
  148.7933  134.5553  154.5254 C   0  0  0  0  0  0  0  0  0  0  0  0
  150.0538  135.0753  155.2625 C   0  0  0  0  0  0  0  0  0  0  0  0
  149.9675  136.4603  155.6980 N   0  0  0  0  0  0  0  0  0  0  0  0
  149.0391  136.9959  156.5619 C   0  0  0  0  0  0  0  0  0  0  0  0
  149.1725  138.2713  156.8017 N   0  0  0  0  0  0  0  0  0  0  0  0
  150.2688  138.6484  156.0351 C   0  0  0  0  0  0  0  0  0  0  0  0
  150.9663  139.8723  155.8268 C   0  0  0  0  0  0  0  0  0  0  0  0
  150.6494  141.0513  156.4122 N   0  0  0  0  0  0  0  0  0  0  0  0
  149.2169  141.2211  156.6598 C   0  0  0  0  0  0  0  0  0  0  0  0
  148.4888  141.9467  155.5166 C   0  0  1  0  0  0  0  0  0  0  0  0
  148.4095  141.1238  154.2345 C   0  0  0  0  0  0  0  0  0  0  0  0
  147.2682  141.7877  153.4892 C   0  0  0  0  0  0  0  0  0  0  0  0
  146.3998  142.3669  154.6094 C   0  0  0  0  0  0  0  0  0  0  0  0
  147.1136  142.1340  155.8192 O   0  0  0  0  0  0  0  0  0  0  0  0
  151.6021  141.5971  157.3913 C   0  0  0  0  0  0  0  0  0  0  0  0
  151.6579  140.9095  158.7623 C   0  0  0  0  0  0  0  0  0  0  0  0
  152.4728  141.8827  159.6182 C   0  0  0  0  0  0  0  0  0  0  0  0
  152.2192  143.2811  159.0289 C   0  0  0  0  0  0  0  0  0  0  0  0
  151.3952  143.0727  157.7509 C   0  0  0  0  0  0  0  0  0  0  0  0
  152.0151  139.8656  154.9659 N   0  0  0  0  0  0  0  0  0  0  0  0
  152.3747  138.7319  154.3571 C   0  0  0  0  0  0  0  0  0  0  0  0
  151.8302  137.5180  154.4634 N   0  0  0  0  0  0  0  0  0  0  0  0
  150.7710  137.5232  155.3231 C   0  0  0  0  0  0  0  0  0  0  0  0
  147.7516  133.9332  155.4811 C   0  0  0  0  0  0  0  0  0  0  0  0
  146.5538  133.3396  154.7174 C   0  0  0  0  0  0  0  0  0  0  0  0
  147.0081  132.3873  153.7630 O   0  0  0  0  0  0  0  0  0  0  0  0
  147.8463  132.9622  152.7672 C   0  0  0  0  0  0  0  0  0  0  0  0
  149.1203  133.5310  153.4170 C   0  0  0  0  0  0  0  0  0  0  0  0
  148.7385  135.9385  153.1714 H   0  0  0  0  0  0  0  0  0  0  0  0
  150.2591  134.4587  156.1391 H   0  0  0  0  0  0  0  0  0  0  0  0
  150.9289  134.9827  154.6170 H   0  0  0  0  0  0  0  0  0  0  0  0
  148.2597  136.4037  157.0193 H   0  0  0  0  0  0  0  0  0  0  0  0
  148.7661  140.2337  156.7750 H   0  0  0  0  0  0  0  0  0  0  0  0
  149.0542  141.7454  157.6019 H   0  0  0  0  0  0  0  0  0  0  0  0
  148.9563  142.9106  155.3050 H   0  0  0  0  0  0  0  0  0  0  0  0
  149.3425  141.1214  153.6706 H   0  0  0  0  0  0  0  0  0  0  0  0
  148.1484  140.0899  154.4652 H   0  0  0  0  0  0  0  0  0  0  0  0
  147.6474  142.5920  152.8578 H   0  0  0  0  0  0  0  0  0  0  0  0
  146.7253  141.0876  152.8537 H   0  0  0  0  0  0  0  0  0  0  0  0
  146.2455  143.4370  154.4673 H   0  0  0  0  0  0  0  0  0  0  0  0
  145.4228  141.8859  154.6596 H   0  0  0  0  0  0  0  0  0  0  0  0
  152.5979  141.4951  156.9606 H   0  0  0  0  0  0  0  0  0  0  0  0
  150.6650  140.8165  159.2039 H   0  0  0  0  0  0  0  0  0  0  0  0
  152.1018  139.9146  158.7184 H   0  0  0  0  0  0  0  0  0  0  0  0
  152.2006  141.8225  160.6722 H   0  0  0  0  0  0  0  0  0  0  0  0
  153.5336  141.6406  159.5407 H   0  0  0  0  0  0  0  0  0  0  0  0
  151.6881  143.9234  159.7323 H   0  0  0  0  0  0  0  0  0  0  0  0
  153.1686  143.7661  158.7986 H   0  0  0  0  0  0  0  0  0  0  0  0
  151.6961  143.7462  156.9479 H   0  0  0  0  0  0  0  0  0  0  0  0
  150.3467  143.2689  157.9728 H   0  0  0  0  0  0  0  0  0  0  0  0
  153.2212  138.8082  153.6907 H   0  0  0  0  0  0  0  0  0  0  0  0
  148.2088  133.1280  156.0556 H   0  0  0  0  0  0  0  0  0  0  0  0
  147.4066  134.6714  156.2063 H   0  0  0  0  0  0  0  0  0  0  0  0
  145.8794  132.8413  155.4140 H   0  0  0  0  0  0  0  0  0  0  0  0
  145.9740  134.1198  154.2221 H   0  0  0  0  0  0  0  0  0  0  0  0
  148.1108  132.1900  152.0447 H   0  0  0  0  0  0  0  0  0  0  0  0
  147.3037  133.7336  152.2188 H   0  0  0  0  0  0  0  0  0  0  0  0
  149.7633  133.9779  152.6579 H   0  0  0  0  0  0  0  0  0  0  0  0
  149.6773  132.6942  153.8380 H   0  0  0  0  0  0  0  0  0  0  0  0
  1  2  1  0  0  0  0
  1 30  1  0  0  0  0
  2 29  1  0  0  0  0
  2  3  1  0  0  0  0
  2 25  1  0  0  0  0
  3  4  1  0  0  0  0
  3 31  1  0  0  0  0
  3 32  1  0  0  0  0
  4 24  1  0  0  0  0
  4  5  1  0  0  0  0
  5  6  2  0  0  0  0
  5 33  1  0  0  0  0
  6  7  1  0  0  0  0
  7 24  2  0  0  0  0
  7  8  1  0  0  0  0
  8  9  1  0  0  0  0
  8 21  2  0  0  0  0
  9 10  1  0  0  0  0
  9 16  1  0  0  0  0
 10 11  1  0  0  0  0
 10 34  1  0  0  0  0
 10 35  1  0  0  0  0
 11 15  1  0  0  0  0
 11 12  1  0  0  0  0
 11 36  1  0  0  0  0
 12 13  1  0  0  0  0
 12 37  1  0  0  0  0
 12 38  1  0  0  0  0
 13 14  1  0  0  0  0
 13 39  1  0  0  0  0
 13 40  1  0  0  0  0
 14 15  1  0  0  0  0
 14 41  1  0  0  0  0
 14 42  1  0  0  0  0
 16 20  1  0  0  0  0
 16 17  1  0  0  0  0
 16 43  1  0  0  0  0
 17 18  1  0  0  0  0
 17 44  1  0  0  0  0
 17 45  1  0  0  0  0
 18 19  1  0  0  0  0
 18 46  1  0  0  0  0
 18 47  1  0  0  0  0
 19 20  1  0  0  0  0
 19 48  1  0  0  0  0
 19 49  1  0  0  0  0
 20 50  1  0  0  0  0
 20 51  1  0  0  0  0
 21 22  1  0  0  0  0
 22 23  2  0  0  0  0
 22 52  1  0  0  0  0
 23 24  1  0  0  0  0
 25 26  1  0  0  0  0
 25 53  1  0  0  0  0
 25 54  1  0  0  0  0
 26 27  1  0  0  0  0
 26 55  1  0  0  0  0
 26 56  1  0  0  0  0
 27 28  1  0  0  0  0
 28 29  1  0  0  0  0
 28 57  1  0  0  0  0
 28 58  1  0  0  0  0
 29 59  1  0  0  0  0
 29 60  1  0  0  0  0
M  END
> <s_m_source_file>
AV-unprocessed.smi

> <i_m_source_file_index>
173

> <i_lp_mmshare_version>
43012

> <i_f3d_flags>
0

> <s_epik_input>
W0NIMl0xW0NIMl1PW0NIMl1bQ0gyXUMxKFtPSF0pW0NIMl1uKFtjSF1uMiljKGMyMyluW2NIXW5jM04oW0NIMl1bQ0BASF00W0NIMl1bQ0gyXVtDSDJdTzQpW0NIXTVbQ0gyXVtDSDJdW0NIMl1bQ0gyXTU=

> <s_epik_cmdline>
J2VwaWtfcHl0aG9uJywgJy1waCcsICc3LjAnLCAnLXRuJywgJzgnLCAnLW1hJywgJzIwMCcsICctbWV0YWxfYmluZGluZycsICctaW1hZScsICc8aW5maWxlLm1hZT4nLCAnLW9tYWUnLCAnPG91dGZpbGUubWFlPic=

> <r_lp_tautomer_probability>
1

> <r_epik_Ionization_Penalty>
0.0053129

> <r_epik_Ionization_Penalty_Charging>
0

> <r_epik_Ionization_Penalty_Neutral>
0.0053129

> <r_epik_State_Penalty>
0.00367355

> <r_epik_Charging_Adjusted_Penalty>
0.00367355

> <i_epik_Tot_Q>
0

> <i_epik_Tot_abs_Q>
0

> <r_epik_Metal_State_Penalty>
-0

> <b_epik_Metal_Only>
0

> <s_lp_Force_Field>
OPLS_2005

> <r_lp_Energy>
59.0129

> <b_lp_Chiralities_Consistent>
1

> <s_lp_Variant>
AV-unprocessed.smi:173-2

> <Gold.Version>
5.8.1

> <Gold.Id.Protein>
6NUR|6NUR_protein|mol2

> <Gold.PLP.Fitness>
52.3673

> <Gold.PLP.PLP>
-46.5336

> <Gold.PLP.part.hbond>
-2.9256

> <Gold.PLP.part.metal>
0.0000

> <Gold.PLP.part.buried>
-8.2669

> <Gold.PLP.part.nonpolar>
-35.6767

> <Gold.PLP.part.repulsive>
0.3618

> <Gold.PLP.ligand.clash>
0.0000

> <Gold.PLP.ligand.torsion>
1.7922

> <Gold.PLP.Chemscore.Hbond>
2.7520

> <Gold.PLP.Chemscore.CHOScore>
0.0000

> <Gold.PLP.Chemscore.Metal>
0.0000

> <Gold.Chemscore.Hbonds>
donor molecule, donor type, donor heavy atom, donor atom, acceptor molecule, acceptor atom, score
      L1  H     1    30       P1  7948  0.54
      P1  H  7989  7998       L1    21  0.82
      P1  H 10752 10763       L1    23  0.63

> <Gold.PLP.Chemscore.Internal.Correction>
1.1620

> <Gold.Rescore>
     Score         DG    S(hbond)    S(metal)    S(lipo)     H(rot)  DE(clash)    DE(int)     intcor
     14.25     -18.48       2.32        0.00     101.48       2.59       1.27       2.96       ----

> <Gold.Chemscore.Fitness>
14.2481

> <Gold.Chemscore.DG>
-18.4757

> <Gold.Chemscore.ZeroCoef>
-5.4800

> <Gold.Chemscore.Hbond>
2.3226

> <Gold.Chemscore.Metal>
0.0000

> <Gold.Chemscore.Lipo>
101.4761

> <Gold.Chemscore.Internal_Hbond>
0.0000

> <Gold.Chemscore.DEClash>
1.2682

> <Gold.Chemscore.DEInternal>
2.9595

> <Gold.Chemscore.Rot>
2.5916

> <Gold.Chemscore.Internal.Correction>
   9.000000E+99

> <Gold.Chemscore.Hbonds>
donor molecule, donor type, donor heavy atom, donor atom, acceptor molecule, acceptor atom, score
      L1  H     1    30       P1  7948  0.53
      P1  H  7989  7998       L1    21  0.15
      P1  H 10752 10763       L1    23  0.56

> <Gold.Chemscore.Hbond.Weighted>
-7.7576

> <Gold.Chemscore.Metal.Weighted>
-0.0000

> <Gold.Chemscore.Lipo.Weighted>
-11.8727

> <Gold.Chemscore.Internal_Hbond.Weighted>
0.0000

> <Gold.Chemscore.DEClash.Weighted>
1.2682

> <Gold.Chemscore.DEInternal.Weighted>
2.9595

> <Gold.Chemscore.Rot.Weighted>
6.6346

> <Gold.Chemscore.Internal.Correction.Weighted>
   9.000000E+99

> <Gold.Protein.RotatedTorsions>
[ 6907 6896 6895 6894 ] final   31.68 input  -60.11 | X-H torsion
[ 7974 7965 7964 7962 ] final  147.57 input  175.53 | X-H torsion
[ 8008 7997 7996 7995 ] final  -15.05 input   59.86 | X-H torsion
[ 10167 10162 10161 10158 ] final  -98.54 input  -65.29 | X-H torsion
[ 10718 10713 10712 10709 ] final   56.47 input   66.30 | X-H torsion
[ 10763 10752 10751 10750 ] final   44.28 input  -60.55 | X-H torsion
[ 11005 11000 10999 10996 ] final -166.09 input  -57.11 | X-H torsion

> <Gold.Protein.ActiveResidues>
 VAL166  LYS551  ARG553  GLY616  TRP617  ASP618  TYR619  PRO620  LYS621  CYS622 
 ASP623  PHE694  ASN695  SER759  ASP760  ASP761  ALA762  ILE779  LEU786  VAL792 
 PHE793  MET794  SER795  GLU796  ALA797  LYS798  CYS799  TRP800  GLU811  SER814 

> <Gold.Protein.RotatedAtoms>
  152.0637  134.9578  160.0574 H   0  0  0  0  0  0  0  0  0  0  0  0  # atno 6907 bound_to 6896
  152.0931  133.4206  159.4561 H   0  0  0  0  0  0  0  0  0  0  0  0  # atno 6908 bound_to 6896
  150.6837  134.2768  159.4654 H   0  0  0  0  0  0  0  0  0  0  0  0  # atno 6909 bound_to 6896
  144.8581  139.6045  143.5943 H   0  0  0  0  0  0  0  0  0  0  0  0  # atno 7974 bound_to 7965
  154.5161  140.2207  155.9063 H   0  0  0  0  0  0  0  0  0  0  0  0  # atno 8008 bound_to 7997
  156.1609  140.3142  155.8771 H   0  0  0  0  0  0  0  0  0  0  0  0  # atno 8009 bound_to 7997
  155.3753  140.0469  157.3035 H   0  0  0  0  0  0  0  0  0  0  0  0  # atno 8010 bound_to 7997
  140.2719  143.3338  152.0526 H   0  0  0  0  0  0  0  0  0  0  0  0  # atno 10167 bound_to 10162
  157.5433  130.8713  149.8854 H   0  0  0  0  0  0  0  0  0  0  0  0  # atno 10718 bound_to 10713
  152.9844  135.6075  154.3249 H   0  0  0  0  0  0  0  0  0  0  0  0  # atno 10763 bound_to 10752
  154.2956  135.2774  155.2636 H   0  0  0  0  0  0  0  0  0  0  0  0  # atno 10764 bound_to 10752
  154.4912  135.5891  153.6517 H   0  0  0  0  0  0  0  0  0  0  0  0  # atno 10765 bound_to 10752
  140.5684  134.5262  157.5157 H   0  0  0  0  0  0  0  0  0  0  0  0  # atno 11005 bound_to 11000
  146.2839  139.6951  142.9209 LP  0  0  0  0  0  0  0  0  0  0  0  0  # atno 17320 bound_to 7965
  145.4366  141.0419  143.2881 LP  0  0  0  0  0  0  0  0  0  0  0  0  # atno 17321 bound_to 7965
  139.4986  144.6650  151.6376 LP  0  0  0  0  0  0  0  0  0  0  0  0  # atno 17342 bound_to 10162
  140.5882  143.9826  150.6308 LP  0  0  0  0  0  0  0  0  0  0  0  0  # atno 17343 bound_to 10162
  156.0515  130.3717  150.1191 LP  0  0  0  0  0  0  0  0  0  0  0  0  # atno 17370 bound_to 10713
  156.9369  130.9732  151.3523 LP  0  0  0  0  0  0  0  0  0  0  0  0  # atno 17371 bound_to 10713
  139.9373  134.7851  156.0768 LP  0  0  0  0  0  0  0  0  0  0  0  0  # atno 17394 bound_to 11000
  141.1071  133.6656  156.2890 LP  0  0  0  0  0  0  0  0  0  0  0  0  # atno 17395 bound_to 11000

$$$$
