AV-unprocessed.smi:1843|AV-procd|sdf|7502|dock5
  -GOLD-   22720 9203D 1   1.00000     0.00000
 Structure written by MMmdl.
 37 39  0  0  0  0  0  0  0  0  1 V2000
  146.5773  139.3010  154.0762 O   0  0  0  0  0  0  0  0  0  0  0  0
  147.3812  138.5808  153.4838 C   0  0  0  0  0  0  0  0  0  0  0  0
  148.7195  138.6592  153.5865 N   0  0  0  0  0  0  0  0  0  0  0  0
  149.4904  139.5540  154.3750 C   0  0  0  0  0  0  0  0  0  0  0  0
  150.8296  139.5408  154.4223 N   0  0  0  0  0  0  0  0  0  0  0  0
  151.3275  140.5208  155.2695 N   0  0  0  0  0  0  0  0  0  0  0  0
  150.3551  141.2453  155.8357 C   0  0  0  0  0  0  0  0  0  0  0  0
  150.6429  142.3613  156.7839 C   0  0  0  0  0  0  0  0  0  0  0  0
  151.4915  142.1527  158.0194 C   0  0  0  0  0  0  0  0  0  0  0  0
  150.0097  142.3923  158.1560 C   0  0  0  0  0  0  0  0  0  0  0  0
  148.7222  140.7755  155.3740 S   0  0  0  0  0  0  0  0  0  0  0  0
  147.0159  137.6045  152.6403 N   0  0  0  0  0  0  0  0  0  0  0  0
  145.6377  137.2462  152.3101 C   0  0  2  0  0  0  0  0  0  0  0  0
  144.8416  136.9300  153.5909 C   0  0  0  0  0  0  0  0  0  0  0  0
  143.3841  136.5686  153.2621 C   0  0  0  0  0  0  0  0  0  0  0  0
  143.3080  135.3994  152.2675 C   0  0  0  0  0  0  0  0  0  0  0  0
  144.1121  135.6933  150.9875 C   0  0  0  0  0  0  0  0  0  0  0  0
  145.5725  136.0813  151.2917 C   0  0  2  0  0  0  0  0  0  0  0  0
  146.2601  134.9442  151.7807 O   0  0  0  0  0  0  0  0  0  0  0  0
  149.2506  137.9980  153.0395 H   0  0  0  0  0  0  0  0  0  0  0  0
  150.7475  143.3030  156.2487 H   0  0  0  0  0  0  0  0  0  0  0  0
  151.8537  141.1492  158.2337 H   0  0  0  0  0  0  0  0  0  0  0  0
  152.1597  142.9607  158.3101 H   0  0  0  0  0  0  0  0  0  0  0  0
  149.6885  143.3590  158.5387 H   0  0  0  0  0  0  0  0  0  0  0  0
  149.3895  141.5464  158.4461 H   0  0  0  0  0  0  0  0  0  0  0  0
  147.7421  137.0625  152.1956 H   0  0  0  0  0  0  0  0  0  0  0  0
  145.1683  138.1189  151.8509 H   0  0  0  0  0  0  0  0  0  0  0  0
  145.3094  136.1053  154.1304 H   0  0  0  0  0  0  0  0  0  0  0  0
  144.8609  137.7881  154.2636 H   0  0  0  0  0  0  0  0  0  0  0  0
  142.8496  136.3129  154.1774 H   0  0  0  0  0  0  0  0  0  0  0  0
  142.8786  137.4391  152.8418 H   0  0  0  0  0  0  0  0  0  0  0  0
  143.6879  134.4933  152.7409 H   0  0  0  0  0  0  0  0  0  0  0  0
  142.2675  135.1977  152.0119 H   0  0  0  0  0  0  0  0  0  0  0  0
  144.0807  134.8317  150.3195 H   0  0  0  0  0  0  0  0  0  0  0  0
  143.6324  136.5114  150.4485 H   0  0  0  0  0  0  0  0  0  0  0  0
  146.0581  136.3780  150.3612 H   0  0  0  0  0  0  0  0  0  0  0  0
  147.1780  135.1584  151.8485 H   0  0  0  0  0  0  0  0  0  0  0  0
  1  2  2  0  0  0  0
  2  3  1  0  0  0  0
  2 12  1  0  0  0  0
  3  4  1  0  0  0  0
  3 20  1  0  0  0  0
  4 11  1  0  0  0  0
  4  5  2  0  0  0  0
  5  6  1  0  0  0  0
  6  7  2  0  0  0  0
  7  8  1  0  0  0  0
  7 11  1  0  0  0  0
  8 10  1  0  0  0  0
  8  9  1  0  0  0  0
  8 21  1  0  0  0  0
  9 10  1  0  0  0  0
  9 22  1  0  0  0  0
  9 23  1  0  0  0  0
 10 24  1  0  0  0  0
 10 25  1  0  0  0  0
 12 13  1  0  0  0  0
 12 26  1  0  0  0  0
 13 18  1  0  0  0  0
 13 14  1  0  0  0  0
 13 27  1  0  0  0  0
 14 15  1  0  0  0  0
 14 28  1  0  0  0  0
 14 29  1  0  0  0  0
 15 16  1  0  0  0  0
 15 30  1  0  0  0  0
 15 31  1  0  0  0  0
 16 17  1  0  0  0  0
 16 32  1  0  0  0  0
 16 33  1  0  0  0  0
 17 18  1  0  0  0  0
 17 34  1  0  0  0  0
 17 35  1  0  0  0  0
 18 19  1  0  0  0  0
 18 36  1  0  0  0  0
 19 37  1  0  0  0  0
M  END
> <s_m_source_file>
AV-unprocessed.smi

> <i_m_source_file_index>
1843

> <i_lp_mmshare_version>
43012

> <i_f3d_flags>
0

> <s_epik_input>
W09IXVtDQEBIXTFbQ0gyXVtDSDJdW0NIMl1bQ0gyXVtDQEhdMVtOSF1DKD1PKVtOSF1jMm5uYyhzMilbQ0hdM1tDSDJdW0NIMl0z

> <s_epik_cmdline>
J2VwaWtfcHl0aG9uJywgJy1waCcsICc3LjAnLCAnLXRuJywgJzgnLCAnLW1hJywgJzIwMCcsICctbWV0YWxfYmluZGluZycsICctaW1hZScsICc8aW5maWxlLm1hZT4nLCAnLW9tYWUnLCAnPG91dGZpbGUubWFlPic=

> <r_lp_tautomer_probability>
1

> <r_epik_Ionization_Penalty>
0.000257313

> <r_epik_Ionization_Penalty_Charging>
0

> <r_epik_Ionization_Penalty_Neutral>
0.000257313

> <r_epik_State_Penalty>
-0

> <r_epik_Charging_Adjusted_Penalty>
0

> <i_epik_Tot_Q>
0

> <i_epik_Tot_abs_Q>
0

> <r_epik_Metal_State_Penalty>
0.147479

> <b_epik_Metal_Only>
0

> <s_lp_Force_Field>
OPLS_2005

> <r_lp_Energy>
10.7354

> <b_lp_Chiralities_Consistent>
1

> <s_lp_Variant>
AV-unprocessed.smi:1843-3

> <Gold.Version>
5.8.1

> <Gold.Id.Protein>
6NUR|6NUR_protein|mol2

> <Gold.PLP.Fitness>
39.3779

> <Gold.PLP.PLP>
-31.6629

> <Gold.PLP.part.hbond>
-5.8388

> <Gold.PLP.part.metal>
0.0000

> <Gold.PLP.part.buried>
-4.0732

> <Gold.PLP.part.nonpolar>
-22.5579

> <Gold.PLP.part.repulsive>
0.4046

> <Gold.PLP.ligand.clash>
0.0000

> <Gold.PLP.ligand.torsion>
0.0742

> <Gold.PLP.Chemscore.Hbond>
2.5745

> <Gold.PLP.Chemscore.CHOScore>
0.0000

> <Gold.PLP.Chemscore.Metal>
0.0000

> <Gold.Chemscore.Hbonds>
donor molecule, donor type, donor heavy atom, donor atom, acceptor molecule, acceptor atom, score
      L1  H     3    20       P1  7948  0.66
      L1  H    12    26       P1  7948  0.91
      L1  H    19    37       P1  7948  0.99

> <Gold.PLP.Chemscore.Internal.Correction>
0.1400

> <Gold.Rescore>
     Score         DG    S(hbond)    S(metal)    S(lipo)     H(rot)  DE(clash)    DE(int)     intcor
     15.21     -16.89       2.57        0.00      62.33       1.74       0.28       1.40       ----

> <Gold.Chemscore.Fitness>
15.2144

> <Gold.Chemscore.DG>
-16.8940

> <Gold.Chemscore.ZeroCoef>
-5.4800

> <Gold.Chemscore.Hbond>
2.5679

> <Gold.Chemscore.Metal>
0.0000

> <Gold.Chemscore.Lipo>
62.3299

> <Gold.Chemscore.Internal_Hbond>
0.0000

> <Gold.Chemscore.DEClash>
0.2759

> <Gold.Chemscore.DEInternal>
1.4037

> <Gold.Chemscore.Rot>
1.7404

> <Gold.Chemscore.Internal.Correction>
   9.000000E+99

> <Gold.Chemscore.Hbonds>
donor molecule, donor type, donor heavy atom, donor atom, acceptor molecule, acceptor atom, score
      L1  H     3    20       P1  7948  0.63
      L1  H    12    26       P1  7948  0.87
      L1  H    19    37       P1  7948  0.90

> <Gold.Chemscore.Hbond.Weighted>
-8.5769

> <Gold.Chemscore.Metal.Weighted>
-0.0000

> <Gold.Chemscore.Lipo.Weighted>
-7.2926

> <Gold.Chemscore.Internal_Hbond.Weighted>
0.0000

> <Gold.Chemscore.DEClash.Weighted>
0.2759

> <Gold.Chemscore.DEInternal.Weighted>
1.4037

> <Gold.Chemscore.Rot.Weighted>
4.4555

> <Gold.Chemscore.Internal.Correction.Weighted>
   9.000000E+99

> <Gold.Protein.RotatedTorsions>
[ 6907 6896 6895 6894 ] final   91.74 input  -60.11 | X-H torsion
[ 7974 7965 7964 7962 ] final -106.86 input  175.53 | X-H torsion
[ 8008 7997 7996 7995 ] final  119.32 input   59.86 | X-H torsion
[ 10167 10162 10161 10158 ] final -133.14 input  -65.29 | X-H torsion
[ 10718 10713 10712 10709 ] final  131.49 input   66.30 | X-H torsion
[ 10763 10752 10751 10750 ] final -176.73 input  -60.55 | X-H torsion
[ 11005 11000 10999 10996 ] final  163.95 input  -57.11 | X-H torsion

> <Gold.Protein.ActiveResidues>
 VAL166  LYS551  ARG553  GLY616  TRP617  ASP618  TYR619  PRO620  LYS621  CYS622 
 ASP623  PHE694  ASN695  SER759  ASP760  ASP761  ALA762  ILE779  LEU786  VAL792 
 PHE793  MET794  SER795  GLU796  ALA797  LYS798  CYS799  TRP800  GLU811  SER814 

> <Gold.Protein.RotatedAtoms>
  152.5451  134.1609  159.8557 H   0  0  0  0  0  0  0  0  0  0  0  0  # atno 6907 bound_to 6896
  151.1627  133.4827  159.2601 H   0  0  0  0  0  0  0  0  0  0  0  0  # atno 6908 bound_to 6896
  151.1356  135.0164  159.8657 H   0  0  0  0  0  0  0  0  0  0  0  0  # atno 6909 bound_to 6896
  145.2126  140.9102  143.3306 H   0  0  0  0  0  0  0  0  0  0  0  0  # atno 7974 bound_to 7965
  156.2590  140.2855  156.0973 H   0  0  0  0  0  0  0  0  0  0  0  0  # atno 8008 bound_to 7997
  155.1398  140.0395  157.2813 H   0  0  0  0  0  0  0  0  0  0  0  0  # atno 8009 bound_to 7997
  154.6538  140.2551  155.7190 H   0  0  0  0  0  0  0  0  0  0  0  0  # atno 8010 bound_to 7997
  139.9013  143.6604  152.2594 H   0  0  0  0  0  0  0  0  0  0  0  0  # atno 10167 bound_to 10162
  157.4962  131.1092  150.9489 H   0  0  0  0  0  0  0  0  0  0  0  0  # atno 10718 bound_to 10713
  154.5687  135.2826  155.0848 H   0  0  0  0  0  0  0  0  0  0  0  0  # atno 10763 bound_to 10752
  154.2229  135.6388  153.5154 H   0  0  0  0  0  0  0  0  0  0  0  0  # atno 10764 bound_to 10752
  153.0051  135.5519  154.6304 H   0  0  0  0  0  0  0  0  0  0  0  0  # atno 10765 bound_to 10752
  140.2410  134.8051  157.3410 H   0  0  0  0  0  0  0  0  0  0  0  0  # atno 11005 bound_to 11000
  144.9842  139.3753  143.6247 LP  0  0  0  0  0  0  0  0  0  0  0  0  # atno 17320 bound_to 7965
  146.3394  139.8996  142.8796 LP  0  0  0  0  0  0  0  0  0  0  0  0  # atno 17321 bound_to 7965
  139.7023  144.7633  151.1252 LP  0  0  0  0  0  0  0  0  0  0  0  0  # atno 17342 bound_to 10162
  140.7706  143.5441  150.9279 LP  0  0  0  0  0  0  0  0  0  0  0  0  # atno 17343 bound_to 10162
  157.0174  130.5660  149.5327 LP  0  0  0  0  0  0  0  0  0  0  0  0  # atno 17370 bound_to 10713
  156.0202  130.5297  150.8253 LP  0  0  0  0  0  0  0  0  0  0  0  0  # atno 17371 bound_to 10713
  140.1654  134.4676  155.7867 LP  0  0  0  0  0  0  0  0  0  0  0  0  # atno 17394 bound_to 11000
  141.2210  133.6919  156.7615 LP  0  0  0  0  0  0  0  0  0  0  0  0  # atno 17395 bound_to 11000

$$$$
