AV-unprocessed.smi:332|AV-procd|sdf|2356|dock1
  -GOLD-   2262022263D 1   1.00000     0.00000
 Structure written by MMmdl.
 42 44  0  0  0  0  0  0  0  0  1 V2000
  152.9405  140.5307  159.8069 C   0  0  0  0  0  0  0  0  0  0  0  0
  152.0002  141.4893  159.0567 C   0  0  2  0  0  0  0  0  0  0  0  0
  151.8493  141.0596  157.6711 N   0  0  0  0  0  0  0  0  0  0  0  0
  150.6938  140.7572  157.0563 C   0  0  0  0  0  0  0  0  0  0  0  0
  149.6130  140.7218  157.6428 O   0  0  0  0  0  0  0  0  0  0  0  0
  150.7400  140.4709  155.5453 C   0  0  0  0  0  0  0  0  0  0  0  0
  149.4199  140.4349  154.8881 N   0  0  0  0  0  0  0  0  0  0  0  0
  148.7312  141.6580  154.7641 C   0  0  0  0  0  0  0  0  0  0  0  0
  147.5164  141.7342  154.1981 C   0  0  0  0  0  0  0  0  0  0  0  0
  146.9141  140.5174  153.7071 C   0  0  0  0  0  0  0  0  0  0  0  0
  147.5620  139.3414  153.8247 C   0  0  0  0  0  0  0  0  0  0  0  0
  148.8880  139.2523  154.4466 C   0  0  0  0  0  0  0  0  0  0  0  0
  149.4797  138.1801  154.5731 O   0  0  0  0  0  0  0  0  0  0  0  0
  152.5160  142.9471  159.0824 C   0  0  2  0  0  0  0  0  0  0  0  0
  152.6727  143.5533  160.4947 C   0  0  0  0  0  0  0  0  0  0  0  0
  151.9271  144.8961  160.3786 C   0  0  2  0  0  0  0  0  0  0  0  0
  150.4108  144.6290  160.3397 C   0  0  0  0  0  0  0  0  0  0  0  0
  150.2066  144.0403  158.9320 C   0  0  0  0  0  0  0  0  0  0  0  0
  151.6406  144.0077  158.3658 C   0  0  1  0  0  0  0  0  0  0  0  0
  152.2137  145.3002  158.9368 C   0  0  0  0  0  0  0  0  0  0  0  0
  153.0517  140.8235  160.8511 H   0  0  0  0  0  0  0  0  0  0  0  0
  153.9345  140.5162  159.3585 H   0  0  0  0  0  0  0  0  0  0  0  0
  152.5557  139.5106  159.7962 H   0  0  0  0  0  0  0  0  0  0  0  0
  151.0239  141.4538  159.5428 H   0  0  0  0  0  0  0  0  0  0  0  0
  152.6893  141.0554  157.1105 H   0  0  0  0  0  0  0  0  0  0  0  0
  151.3749  141.2257  155.0796 H   0  0  0  0  0  0  0  0  0  0  0  0
  151.2628  139.5262  155.3859 H   0  0  0  0  0  0  0  0  0  0  0  0
  149.2473  142.5192  155.1633 H   0  0  0  0  0  0  0  0  0  0  0  0
  147.0016  142.6801  154.1162 H   0  0  0  0  0  0  0  0  0  0  0  0
  145.9391  140.5500  153.2436 H   0  0  0  0  0  0  0  0  0  0  0  0
  147.0950  138.4408  153.4532 H   0  0  0  0  0  0  0  0  0  0  0  0
  153.4939  142.9610  158.5970 H   0  0  0  0  0  0  0  0  0  0  0  0
  152.2515  142.9246  161.2802 H   0  0  0  0  0  0  0  0  0  0  0  0
  153.7268  143.7100  160.7274 H   0  0  0  0  0  0  0  0  0  0  0  0
  152.2227  145.6272  161.1314 H   0  0  0  0  0  0  0  0  0  0  0  0
  150.0902  143.9451  161.1266 H   0  0  0  0  0  0  0  0  0  0  0  0
  149.8475  145.5560  160.4529 H   0  0  0  0  0  0  0  0  0  0  0  0
  149.7236  143.0636  158.9464 H   0  0  0  0  0  0  0  0  0  0  0  0
  149.5784  144.7012  158.3334 H   0  0  0  0  0  0  0  0  0  0  0  0
  151.6768  143.9436  157.2779 H   0  0  0  0  0  0  0  0  0  0  0  0
  151.6710  146.1927  158.6203 H   0  0  0  0  0  0  0  0  0  0  0  0
  153.2763  145.4351  158.7272 H   0  0  0  0  0  0  0  0  0  0  0  0
  1  2  1  0  0  0  0
  1 21  1  0  0  0  0
  1 22  1  0  0  0  0
  1 23  1  0  0  0  0
  2  3  1  0  0  0  0
  2 14  1  0  0  0  0
  2 24  1  0  0  0  0
  3  4  1  0  0  0  0
  3 25  1  0  0  0  0
  4  5  2  0  0  0  0
  4  6  1  0  0  0  0
  6  7  1  0  0  0  0
  6 26  1  0  0  0  0
  6 27  1  0  0  0  0
  7 12  1  0  0  0  0
  7  8  1  0  0  0  0
  8  9  2  0  0  0  0
  8 28  1  0  0  0  0
  9 10  1  0  0  0  0
  9 29  1  0  0  0  0
 10 11  2  0  0  0  0
 10 30  1  0  0  0  0
 11 12  1  0  0  0  0
 11 31  1  0  0  0  0
 12 13  2  0  0  0  0
 14 19  1  0  0  0  0
 14 15  1  0  0  0  0
 14 32  1  0  0  0  0
 15 16  1  0  0  0  0
 15 33  1  0  0  0  0
 15 34  1  0  0  0  0
 16 20  1  0  0  0  0
 16 17  1  0  0  0  0
 16 35  1  0  0  0  0
 17 18  1  0  0  0  0
 17 36  1  0  0  0  0
 17 37  1  0  0  0  0
 18 19  1  0  0  0  0
 18 38  1  0  0  0  0
 18 39  1  0  0  0  0
 19 20  1  0  0  0  0
 19 40  1  0  0  0  0
 20 41  1  0  0  0  0
 20 42  1  0  0  0  0
M  END
> <s_m_source_file>
AV-unprocessed.smi

> <i_m_source_file_index>
332

> <i_lp_mmshare_version>
43012

> <i_f3d_flags>
0

> <s_epik_input>
W0NIMl0xW0NIMl1bQ0BIXShbQ0gyXTIpW0NAQEhdKFtDSDJdW0NAQEhdMTIpW0NASF0oW0NIM10pW05IXUMoPU8pW0NIMl1uM1tjSF1bY0hdW2NIXVtjSF1jMz1P

> <s_epik_cmdline>
J2VwaWtfcHl0aG9uJywgJy1waCcsICc3LjAnLCAnLXRuJywgJzgnLCAnLW1hJywgJzIwMCcsICctbWV0YWxfYmluZGluZycsICctaW1hZScsICc8aW5maWxlLm1hZT4nLCAnLW9tYWUnLCAnPG91dGZpbGUubWFlPic=

> <r_lp_tautomer_probability>
1

> <r_epik_Ionization_Penalty>
4.05802e-07

> <r_epik_Ionization_Penalty_Charging>
3.84175e-07

> <r_epik_Ionization_Penalty_Neutral>
2.16269e-08

> <r_epik_State_Penalty>
-0

> <r_epik_Charging_Adjusted_Penalty>
3.84175e-07

> <i_epik_Tot_Q>
0

> <i_epik_Tot_abs_Q>
0

> <r_epik_Metal_State_Penalty>
-0

> <b_epik_Metal_Only>
0

> <s_lp_Force_Field>
OPLS_2005

> <r_lp_Energy>
59.3935

> <b_lp_Chiralities_Consistent>
1

> <s_lp_Variant>
AV-unprocessed.smi:332-5

> <Gold.Version>
5.8.1

> <Gold.Id.Protein>
6NUR|6NUR_protein|mol2

> <Gold.PLP.Fitness>
50.1659

> <Gold.PLP.PLP>
-47.6050

> <Gold.PLP.part.hbond>
0.0000

> <Gold.PLP.part.metal>
0.0000

> <Gold.PLP.part.buried>
-4.3160

> <Gold.PLP.part.nonpolar>
-44.6686

> <Gold.PLP.part.repulsive>
0.3104

> <Gold.PLP.ligand.clash>
0.0000

> <Gold.PLP.ligand.torsion>
0.2517

> <Gold.PLP.Chemscore.Hbond>
0.0000

> <Gold.PLP.Chemscore.CHOScore>
1.0000

> <Gold.PLP.Chemscore.Metal>
0.0000

> <Gold.Chemscore.Hbonds>
donor molecule, donor type, donor heavy atom, donor atom, acceptor molecule, acceptor atom, score
      L1  C     8    28       P1  8028  1.00

> <Gold.PLP.Chemscore.Internal.Correction>
0.0642

> <Gold.Rescore>
     Score         DG    S(hbond)    S(metal)    S(lipo)     H(rot)  DE(clash)    DE(int)     intcor
     16.53     -16.93       0.00        0.00     131.59       1.54       0.12       0.29       ----

> <Gold.Chemscore.Fitness>
16.5255

> <Gold.Chemscore.DG>
-16.9339

> <Gold.Chemscore.ZeroCoef>
-5.4800

> <Gold.Chemscore.Hbond>
0.0000

> <Gold.Chemscore.Metal>
0.0000

> <Gold.Chemscore.Lipo>
131.5880

> <Gold.Chemscore.Internal_Hbond>
0.0000

> <Gold.Chemscore.DEClash>
0.1210

> <Gold.Chemscore.DEInternal>
0.2874

> <Gold.Chemscore.Rot>
1.5398

> <Gold.Chemscore.Internal.Correction>
   9.000000E+99

> <Gold.Chemscore.Hbond.Weighted>
-0.0000

> <Gold.Chemscore.Metal.Weighted>
-0.0000

> <Gold.Chemscore.Lipo.Weighted>
-15.3958

> <Gold.Chemscore.Internal_Hbond.Weighted>
0.0000

> <Gold.Chemscore.DEClash.Weighted>
0.1210

> <Gold.Chemscore.DEInternal.Weighted>
0.2874

> <Gold.Chemscore.Rot.Weighted>
3.9419

> <Gold.Chemscore.Internal.Correction.Weighted>
   9.000000E+99

> <Gold.Protein.RotatedTorsions>
[ 6907 6896 6895 6894 ] final   48.86 input  -60.11 | X-H torsion
[ 7974 7965 7964 7962 ] final    0.55 input  175.53 | X-H torsion
[ 8008 7997 7996 7995 ] final -143.75 input   59.86 | X-H torsion
[ 10167 10162 10161 10158 ] final -113.02 input  -65.29 | X-H torsion
[ 10718 10713 10712 10709 ] final -104.62 input   66.30 | X-H torsion
[ 10763 10752 10751 10750 ] final -176.34 input  -60.55 | X-H torsion
[ 11005 11000 10999 10996 ] final   73.92 input  -57.11 | X-H torsion

> <Gold.Protein.ActiveResidues>
 VAL166  LYS551  ARG553  GLY616  TRP617  ASP618  TYR619  PRO620  LYS621  CYS622 
 ASP623  PHE694  ASN695  SER759  ASP760  ASP761  ALA762  ILE779  LEU786  VAL792 
 PHE793  MET794  SER795  GLU796  ALA797  LYS798  CYS799  TRP800  GLU811  SER814 

> <Gold.Protein.RotatedAtoms>
  152.2842  134.7794  160.0390 H   0  0  0  0  0  0  0  0  0  0  0  0  # atno 6907 bound_to 6896
  151.8362  133.3411  159.3637 H   0  0  0  0  0  0  0  0  0  0  0  0  # atno 6908 bound_to 6896
  150.7202  134.5363  159.5769 H   0  0  0  0  0  0  0  0  0  0  0  0  # atno 6909 bound_to 6896
  146.2435  140.1121  142.8343 H   0  0  0  0  0  0  0  0  0  0  0  0  # atno 7974 bound_to 7965
  155.5156  140.0587  157.2916 H   0  0  0  0  0  0  0  0  0  0  0  0  # atno 8008 bound_to 7997
  154.4536  140.1961  156.0393 H   0  0  0  0  0  0  0  0  0  0  0  0  # atno 8009 bound_to 7997
  156.0754  140.3254  155.7631 H   0  0  0  0  0  0  0  0  0  0  0  0  # atno 8010 bound_to 7997
  140.1164  143.4482  152.1719 H   0  0  0  0  0  0  0  0  0  0  0  0  # atno 10167 bound_to 10162
  156.0312  130.5524  150.7422 H   0  0  0  0  0  0  0  0  0  0  0  0  # atno 10718 bound_to 10713
  154.5735  135.2830  155.0803 H   0  0  0  0  0  0  0  0  0  0  0  0  # atno 10763 bound_to 10752
  154.2166  135.6398  153.5135 H   0  0  0  0  0  0  0  0  0  0  0  0  # atno 10764 bound_to 10752
  153.0065  135.5504  154.6367 H   0  0  0  0  0  0  0  0  0  0  0  0  # atno 10765 bound_to 10752
  139.9416  134.7388  156.1085 H   0  0  0  0  0  0  0  0  0  0  0  0  # atno 11005 bound_to 11000
  145.0478  140.8994  143.5014 LP  0  0  0  0  0  0  0  0  0  0  0  0  # atno 17320 bound_to 7965
  145.1214  139.2691  143.5587 LP  0  0  0  0  0  0  0  0  0  0  0  0  # atno 17321 bound_to 7965
  139.5592  144.7394  151.4205 LP  0  0  0  0  0  0  0  0  0  0  0  0  # atno 17342 bound_to 10162
  140.6897  143.7891  150.7237 LP  0  0  0  0  0  0  0  0  0  0  0  0  # atno 17343 bound_to 10162
  157.4988  131.0917  151.0339 LP  0  0  0  0  0  0  0  0  0  0  0  0  # atno 17370 bound_to 10713
  157.0726  130.5870  149.5405 LP  0  0  0  0  0  0  0  0  0  0  0  0  # atno 17371 bound_to 10713
  141.1053  133.6662  156.2848 LP  0  0  0  0  0  0  0  0  0  0  0  0  # atno 17394 bound_to 11000
  140.5937  134.5625  157.5504 LP  0  0  0  0  0  0  0  0  0  0  0  0  # atno 17395 bound_to 11000

$$$$
