AV-unprocessed.smi:1518|AV-procd|sdf|6126|dock4
  -GOLD-   22720 6263D 1   1.00000     0.00000
 Structure written by MMmdl.
 46 48  0  0  0  0  0  0  0  0  2 V2000
  150.8557  130.4314  156.7161 C   0  0  0  0  0  0  0  0  0  0  0  0
  151.3065  131.8150  157.1818 C   0  0  0  0  0  0  0  0  0  0  0  0
  152.0249  131.8963  158.1776 O   0  0  0  0  0  0  0  0  0  0  0  0
  150.8487  132.9994  156.3995 C   0  0  0  0  0  0  0  0  0  0  0  0
  149.8585  132.8288  155.4058 C   0  0  0  0  0  0  0  0  0  0  0  0
  149.4092  133.9272  154.6512 C   0  0  0  0  0  0  0  0  0  0  0  0
  149.9434  135.2070  154.8832 C   0  0  0  0  0  0  0  0  0  0  0  0
  150.9294  135.4061  155.8692 C   0  0  0  0  0  0  0  0  0  0  0  0
  151.3938  136.6938  156.0312 O   0  0  0  0  0  0  0  0  0  0  0  0
  151.3537  137.5744  154.9159 C   0  0  0  0  0  0  0  0  0  0  0  0
  151.8907  138.9457  155.3498 C   0  0  2  0  0  0  0  0  0  0  0  0
  153.3035  138.9018  155.3360 O   0  0  0  0  0  0  0  0  0  0  0  0
  151.3848  139.3588  156.7468 C   0  0  0  0  0  0  0  0  0  0  0  0
  151.0966  140.7985  156.8462 N   0  0  0  0  0  0  0  0  0  0  0  0
  150.2614  141.5754  156.0979 C   0  0  0  0  0  0  0  0  0  0  0  0
  149.4046  141.1311  154.9585 C   0  0  0  0  0  0  0  0  0  0  0  0
  148.7504  142.2096  154.3279 O   0  0  0  0  0  0  0  0  0  0  0  0
  150.3400  142.8436  156.5902 N   0  3  0  0  0  0  0  0  0  0  0  0
  151.2345  142.8805  157.6604 C   0  0  0  0  0  0  0  0  0  0  0  0
  151.6403  143.9363  158.4711 C   0  0  0  0  0  0  0  0  0  0  0  0
  152.5751  143.6344  159.4828 C   0  0  0  0  0  0  0  0  0  0  0  0
  153.0697  142.3257  159.6579 C   0  0  0  0  0  0  0  0  0  0  0  0
  152.6507  141.2633  158.8300 C   0  0  0  0  0  0  0  0  0  0  0  0
  151.7252  141.5695  157.8320 C   0  0  0  0  0  0  0  0  0  0  0  0
  151.3795  134.2930  156.6243 C   0  0  0  0  0  0  0  0  0  0  0  0
  151.1989  130.2386  155.6994 H   0  0  0  0  0  0  0  0  0  0  0  0
  149.7685  130.3552  156.7409 H   0  0  0  0  0  0  0  0  0  0  0  0
  151.2655  129.6580  157.3660 H   0  0  0  0  0  0  0  0  0  0  0  0
  149.4334  131.8545  155.2110 H   0  0  0  0  0  0  0  0  0  0  0  0
  148.6530  133.7876  153.8928 H   0  0  0  0  0  0  0  0  0  0  0  0
  149.5918  136.0448  154.2990 H   0  0  0  0  0  0  0  0  0  0  0  0
  151.9510  137.1842  154.0899 H   0  0  0  0  0  0  0  0  0  0  0  0
  150.3223  137.6745  154.5727 H   0  0  0  0  0  0  0  0  0  0  0  0
  151.5844  139.6914  154.6155 H   0  0  0  0  0  0  0  0  0  0  0  0
  153.5896  138.6933  154.4601 H   0  0  0  0  0  0  0  0  0  0  0  0
  150.4576  138.8328  156.9771 H   0  0  0  0  0  0  0  0  0  0  0  0
  152.0916  139.0740  157.5261 H   0  0  0  0  0  0  0  0  0  0  0  0
  150.0185  140.6090  154.2242 H   0  0  0  0  0  0  0  0  0  0  0  0
  148.6589  140.4206  155.3147 H   0  0  0  0  0  0  0  0  0  0  0  0
  148.6824  142.9224  154.9451 H   0  0  0  0  0  0  0  0  0  0  0  0
  151.2634  144.9398  158.3383 H   0  0  0  0  0  0  0  0  0  0  0  0
  152.9202  144.4224  160.1365 H   0  0  0  0  0  0  0  0  0  0  0  0
  153.7862  142.1321  160.4431 H   0  0  0  0  0  0  0  0  0  0  0  0
  153.0400  140.2668  158.9732 H   0  0  0  0  0  0  0  0  0  0  0  0
  152.1365  134.4292  157.3798 H   0  0  0  0  0  0  0  0  0  0  0  0
  149.8142  143.6251  156.2205 H   0  0  0  0  0  0  0  0  0  0  0  0
  1  2  1  0  0  0  0
  1 26  1  0  0  0  0
  1 27  1  0  0  0  0
  1 28  1  0  0  0  0
  2  3  2  0  0  0  0
  2  4  1  0  0  0  0
  4 25  1  0  0  0  0
  4  5  2  0  0  0  0
  5  6  1  0  0  0  0
  5 29  1  0  0  0  0
  6  7  2  0  0  0  0
  6 30  1  0  0  0  0
  7  8  1  0  0  0  0
  7 31  1  0  0  0  0
  8  9  1  0  0  0  0
  8 25  2  0  0  0  0
  9 10  1  0  0  0  0
 10 11  1  0  0  0  0
 10 32  1  0  0  0  0
 10 33  1  0  0  0  0
 11 12  1  0  0  0  0
 11 13  1  0  0  0  0
 11 34  1  0  0  0  0
 12 35  1  0  0  0  0
 13 14  1  0  0  0  0
 13 36  1  0  0  0  0
 13 37  1  0  0  0  0
 14 24  1  0  0  0  0
 14 15  1  0  0  0  0
 15 16  1  0  0  0  0
 15 18  2  0  0  0  0
 16 17  1  0  0  0  0
 16 38  1  0  0  0  0
 16 39  1  0  0  0  0
 17 40  1  0  0  0  0
 18 19  1  0  0  0  0
 18 46  1  0  0  0  0
 19 24  2  0  0  0  0
 19 20  1  0  0  0  0
 20 21  2  0  0  0  0
 20 41  1  0  0  0  0
 21 22  1  0  0  0  0
 21 42  1  0  0  0  0
 22 23  2  0  0  0  0
 22 43  1  0  0  0  0
 23 24  1  0  0  0  0
 23 44  1  0  0  0  0
 25 45  1  0  0  0  0
M  CHG  1  18   1
M  END
> <s_m_source_file>
AV-unprocessed.smi

> <i_m_source_file_index>
1518

> <i_lp_mmshare_version>
43012

> <i_f3d_flags>
0

> <s_epik_input>
W0NIM11DKD1PKWMxW2NIXVtjSF1bY0hdYyhbY0hdMSlPW0NIMl1bQ0BIXShbT0hdKVtDSDJdbihjKG4yKVtDSDJdW09IXSljKGMyMylbY0hdW2NIXVtjSF1bY0hdMw==

> <s_epik_cmdline>
J2VwaWtfcHl0aG9uJywgJy1waCcsICc3LjAnLCAnLXRuJywgJzgnLCAnLW1hJywgJzIwMCcsICctbWV0YWxfYmluZGluZycsICctaW1hZScsICc8aW5maWxlLm1hZT4nLCAnLW9tYWUnLCAnPG91dGZpbGUubWFlPic=

> <r_lp_tautomer_probability>
0.99995

> <r_epik_Ionization_Penalty>
1.40416

> <r_epik_Ionization_Penalty_Charging>
1.4033

> <r_epik_Ionization_Penalty_Neutral>
0.000858184

> <r_epik_State_Penalty>
1.48564

> <r_epik_Charging_Adjusted_Penalty>
2.88894

> <i_epik_Tot_Q>
1

> <i_epik_Tot_abs_Q>
1

> <r_epik_Metal_State_Penalty>
5.52809

> <b_epik_Metal_Only>
0

> <s_lp_Force_Field>
OPLS_2005

> <r_lp_Energy>
23.9778

> <b_lp_Chiralities_Consistent>
1

> <s_lp_Variant>
AV-unprocessed.smi:1518-3

> <Gold.Version>
5.8.1

> <Gold.Id.Protein>
6NUR|6NUR_protein|mol2

> <Gold.PLP.Fitness>
66.4231

> <Gold.PLP.PLP>
-52.8739

> <Gold.PLP.part.hbond>
-5.4077

> <Gold.PLP.part.metal>
0.0000

> <Gold.PLP.part.buried>
-4.1989

> <Gold.PLP.part.nonpolar>
-42.8696

> <Gold.PLP.part.repulsive>
0.1097

> <Gold.PLP.ligand.clash>
0.0000

> <Gold.PLP.ligand.torsion>
1.1492

> <Gold.PLP.Chemscore.Hbond>
5.2279

> <Gold.PLP.Chemscore.CHOScore>
0.0000

> <Gold.PLP.Chemscore.Metal>
0.0000

> <Gold.Chemscore.Hbonds>
donor molecule, donor type, donor heavy atom, donor atom, acceptor molecule, acceptor atom, score
      L1  H    17    40       P1  8028  1.00
      L1  H    18    46       P1  8028  2.00
      P1  H  6896  6908       L1     3  1.00
      P1  H  7997  8010       L1    12  1.00
      P1  H  8011  8017       L1    17  0.12

> <Gold.PLP.Chemscore.Internal.Correction>
0.1636

> <Gold.Rescore>
     Score         DG    S(hbond)    S(metal)    S(lipo)     H(rot)  DE(clash)    DE(int)     intcor
     24.02     -25.12       3.96        0.00     127.81       3.34       0.13       0.98       ----

> <Gold.Chemscore.Fitness>
24.0156

> <Gold.Chemscore.DG>
-25.1233

> <Gold.Chemscore.ZeroCoef>
-5.4800

> <Gold.Chemscore.Hbond>
3.9632

> <Gold.Chemscore.Metal>
0.0000

> <Gold.Chemscore.Lipo>
127.8067

> <Gold.Chemscore.Internal_Hbond>
0.0000

> <Gold.Chemscore.DEClash>
0.1283

> <Gold.Chemscore.DEInternal>
0.9794

> <Gold.Chemscore.Rot>
3.3387

> <Gold.Chemscore.Internal.Correction>
   9.000000E+99

> <Gold.Chemscore.Hbonds>
donor molecule, donor type, donor heavy atom, donor atom, acceptor molecule, acceptor atom, score
      L1  H    17    40       P1  8028  0.99
      L1  H    18    46       P1  8028  0.93
      P1  H  6896  6908       L1     3  0.98
      P1  H  7997  8010       L1    12  0.49
      P1  H  8011  8017       L1    17  0.06

> <Gold.Chemscore.Hbond.Weighted>
-13.2370

> <Gold.Chemscore.Metal.Weighted>
-0.0000

> <Gold.Chemscore.Lipo.Weighted>
-14.9534

> <Gold.Chemscore.Internal_Hbond.Weighted>
0.0000

> <Gold.Chemscore.DEClash.Weighted>
0.1283

> <Gold.Chemscore.DEInternal.Weighted>
0.9794

> <Gold.Chemscore.Rot.Weighted>
8.5471

> <Gold.Chemscore.Internal.Correction.Weighted>
   9.000000E+99

> <Gold.Protein.RotatedTorsions>
[ 6907 6896 6895 6894 ] final   46.61 input  -60.11 | X-H torsion
[ 7974 7965 7964 7962 ] final   57.35 input  175.53 | X-H torsion
[ 8008 7997 7996 7995 ] final  102.34 input   59.86 | X-H torsion
[ 10167 10162 10161 10158 ] final  157.29 input  -65.29 | X-H torsion
[ 10718 10713 10712 10709 ] final   24.26 input   66.30 | X-H torsion
[ 10763 10752 10751 10750 ] final   62.38 input  -60.55 | X-H torsion
[ 11005 11000 10999 10996 ] final   18.34 input  -57.11 | X-H torsion

> <Gold.Protein.ActiveResidues>
 VAL166  LYS551  ARG553  GLY616  TRP617  ASP618  TYR619  PRO620  LYS621  CYS622 
 ASP623  PHE694  ASN695  SER759  ASP760  ASP761  ALA762  ILE779  LEU786  VAL792 
 PHE793  MET794  SER795  GLU796  ALA797  LYS798  CYS799  TRP800  GLU811  SER814 

> <Gold.Protein.RotatedAtoms>
  152.2584  134.8060  160.0434 H   0  0  0  0  0  0  0  0  0  0  0  0  # atno 6907 bound_to 6896
  151.8715  133.3471  159.3744 H   0  0  0  0  0  0  0  0  0  0  0  0  # atno 6908 bound_to 6896
  150.7108  134.5035  159.5617 H   0  0  0  0  0  0  0  0  0  0  0  0  # atno 6909 bound_to 6896
  145.9300  139.3799  143.0427 H   0  0  0  0  0  0  0  0  0  0  0  0  # atno 7974 bound_to 7965
  156.1383  140.3183  155.8456 H   0  0  0  0  0  0  0  0  0  0  0  0  # atno 8008 bound_to 7997
  155.4202  140.0512  157.3043 H   0  0  0  0  0  0  0  0  0  0  0  0  # atno 8009 bound_to 7997
  154.4955  140.2109  155.9468 H   0  0  0  0  0  0  0  0  0  0  0  0  # atno 8010 bound_to 7997
  139.4823  144.4931  151.8280 H   0  0  0  0  0  0  0  0  0  0  0  0  # atno 10167 bound_to 10162
  157.1774  130.6787  149.6100 H   0  0  0  0  0  0  0  0  0  0  0  0  # atno 10718 bound_to 10713
  152.9981  135.5467  154.6183 H   0  0  0  0  0  0  0  0  0  0  0  0  # atno 10763 bound_to 10752
  154.5488  135.2825  155.1030 H   0  0  0  0  0  0  0  0  0  0  0  0  # atno 10764 bound_to 10752
  154.2278  135.6439  153.5218 H   0  0  0  0  0  0  0  0  0  0  0  0  # atno 10765 bound_to 10752
  140.4259  134.1470  155.7676 H   0  0  0  0  0  0  0  0  0  0  0  0  # atno 11005 bound_to 11000
  145.8439  140.9566  143.0785 LP  0  0  0  0  0  0  0  0  0  0  0  0  # atno 17320 bound_to 7965
  144.6763  140.0320  143.7482 LP  0  0  0  0  0  0  0  0  0  0  0  0  # atno 17321 bound_to 7965
  140.4417  144.1978  150.5892 LP  0  0  0  0  0  0  0  0  0  0  0  0  # atno 17342 bound_to 10162
  140.4677  143.2425  151.9133 LP  0  0  0  0  0  0  0  0  0  0  0  0  # atno 17343 bound_to 10162
  155.9729  130.4658  150.6268 LP  0  0  0  0  0  0  0  0  0  0  0  0  # atno 17370 bound_to 10713
  157.3986  131.0806  151.1329 LP  0  0  0  0  0  0  0  0  0  0  0  0  # atno 17371 bound_to 10713
  141.1765  133.8502  157.1402 LP  0  0  0  0  0  0  0  0  0  0  0  0  # atno 17394 bound_to 11000
  140.0168  134.9964  157.0509 LP  0  0  0  0  0  0  0  0  0  0  0  0  # atno 17395 bound_to 11000

$$$$
