AV-unprocessed.smi:3236|AV-procd|sdf|12361|dock5
  -GOLD-   2272018223D 1   1.00000     0.00000
 Structure written by MMmdl.
 41 42  0  0  0  0  0  0  0  0  2 V2000
  151.6377  139.6550  159.7403 C   0  0  0  0  0  0  0  0  0  0  0  0
  151.5614  140.0801  158.2677 C   0  0  0  0  0  0  0  0  0  0  0  0
  150.4042  141.0725  158.0203 C   0  0  0  0  0  0  0  0  0  0  0  0
  150.2635  141.4072  156.5239 C   0  0  0  0  0  0  0  0  0  0  0  0
  150.0817  140.1569  155.7763 N   0  0  0  0  0  0  0  0  0  0  0  0
  148.9070  139.8162  155.1923 C   0  0  0  0  0  0  0  0  0  0  0  0
  147.9280  140.5651  155.1973 O   0  0  0  0  0  0  0  0  0  0  0  0
  148.7876  138.4489  154.5019 C   0  0  0  0  0  0  0  0  0  0  0  0
  148.4846  138.5688  153.0610 N   0  3  0  0  0  0  0  0  0  0  0  0
  147.0635  138.8350  152.7618 C   0  0  0  0  0  0  0  0  0  0  0  0
  146.7029  138.4221  151.3240 C   0  0  0  0  0  0  0  0  0  0  0  0
  145.8804  137.2252  151.2664 N   0  0  0  0  0  0  0  0  0  0  0  0
  145.9408  136.1887  150.3582 C   0  0  0  0  0  0  0  0  0  0  0  0
  144.9890  135.2776  150.7163 C   0  0  0  0  0  0  0  0  0  0  0  0
  144.3984  135.8445  151.8800 C   0  0  0  0  0  0  0  0  0  0  0  0
  144.9373  137.0075  152.2089 N   0  0  0  0  0  0  0  0  0  0  0  0
  151.2719  139.3007  155.8642 C   0  0  0  0  0  0  0  0  0  0  0  0
  151.4548  138.8597  157.3275 C   0  0  0  0  0  0  0  0  0  0  0  0
  150.7351  139.1256  160.0471 H   0  0  0  0  0  0  0  0  0  0  0  0
  151.7541  140.5207  160.3929 H   0  0  0  0  0  0  0  0  0  0  0  0
  152.4872  138.9942  159.9147 H   0  0  0  0  0  0  0  0  0  0  0  0
  152.4917  140.5969  158.0273 H   0  0  0  0  0  0  0  0  0  0  0  0
  149.4676  140.6469  158.3837 H   0  0  0  0  0  0  0  0  0  0  0  0
  150.5687  141.9877  158.5901 H   0  0  0  0  0  0  0  0  0  0  0  0
  149.4445  142.1129  156.3775 H   0  0  0  0  0  0  0  0  0  0  0  0
  151.1596  141.9163  156.1667 H   0  0  0  0  0  0  0  0  0  0  0  0
  149.7236  137.9020  154.6230 H   0  0  0  0  0  0  0  0  0  0  0  0
  147.9931  137.8716  154.9770 H   0  0  0  0  0  0  0  0  0  0  0  0
  149.0381  139.3257  152.6847 H   0  0  0  0  0  0  0  0  0  0  0  0
  146.4438  138.2799  153.4669 H   0  0  0  0  0  0  0  0  0  0  0  0
  146.8488  139.8931  152.9192 H   0  0  0  0  0  0  0  0  0  0  0  0
  146.1756  139.2337  150.8206 H   0  0  0  0  0  0  0  0  0  0  0  0
  147.6118  138.2361  150.7505 H   0  0  0  0  0  0  0  0  0  0  0  0
  146.6464  136.1850  149.5403 H   0  0  0  0  0  0  0  0  0  0  0  0
  144.7542  134.3445  150.2255 H   0  0  0  0  0  0  0  0  0  0  0  0
  143.6016  135.4475  152.4918 H   0  0  0  0  0  0  0  0  0  0  0  0
  151.2357  138.4275  155.2151 H   0  0  0  0  0  0  0  0  0  0  0  0
  152.1450  139.8668  155.5357 H   0  0  0  0  0  0  0  0  0  0  0  0
  152.3473  138.2398  157.4188 H   0  0  0  0  0  0  0  0  0  0  0  0
  150.6118  138.2344  157.6256 H   0  0  0  0  0  0  0  0  0  0  0  0
  148.7606  137.7120  152.6030 H   0  0  0  0  0  0  0  0  0  0  0  0
  1  2  1  0  0  0  0
  1 19  1  0  0  0  0
  1 20  1  0  0  0  0
  1 21  1  0  0  0  0
  2 18  1  0  0  0  0
  2  3  1  0  0  0  0
  2 22  1  0  0  0  0
  3  4  1  0  0  0  0
  3 23  1  0  0  0  0
  3 24  1  0  0  0  0
  4  5  1  0  0  0  0
  4 25  1  0  0  0  0
  4 26  1  0  0  0  0
  5  6  1  0  0  0  0
  5 17  1  0  0  0  0
  6  7  2  0  0  0  0
  6  8  1  0  0  0  0
  8  9  1  0  0  0  0
  8 27  1  0  0  0  0
  8 28  1  0  0  0  0
  9 10  1  0  0  0  0
  9 29  1  0  0  0  0
  9 41  1  0  0  0  0
 10 11  1  0  0  0  0
 10 30  1  0  0  0  0
 10 31  1  0  0  0  0
 11 12  1  0  0  0  0
 11 32  1  0  0  0  0
 11 33  1  0  0  0  0
 12 16  1  0  0  0  0
 12 13  1  0  0  0  0
 13 14  2  0  0  0  0
 13 34  1  0  0  0  0
 14 15  1  0  0  0  0
 14 35  1  0  0  0  0
 15 16  2  0  0  0  0
 15 36  1  0  0  0  0
 17 18  1  0  0  0  0
 17 37  1  0  0  0  0
 17 38  1  0  0  0  0
 18 39  1  0  0  0  0
 18 40  1  0  0  0  0
M  CHG  1   9   1
M  END
> <s_m_source_file>
AV-unprocessed.smi

> <i_m_source_file_index>
3236

> <i_lp_mmshare_version>
43012

> <i_f3d_flags>
0

> <s_epik_input>
W0NIM11bQ0hdMVtDSDJdW0NIMl1OKFtDSDJdW0NIMl0xKUMoPU8pW0NIMl1bTkhdW0NIMl1bQ0gyXW4yW2NIXVtjSF1bY0hdbjI=

> <s_epik_cmdline>
J2VwaWtfcHl0aG9uJywgJy1waCcsICc3LjAnLCAnLXRuJywgJzgnLCAnLW1hJywgJzIwMCcsICctbWV0YWxfYmluZGluZycsICctaW1hZScsICc8aW5maWxlLm1hZT4nLCAnLW9tYWUnLCAnPG91dGZpbGUubWFlPic=

> <r_lp_tautomer_probability>
1

> <r_epik_Ionization_Penalty>
0.186057

> <r_epik_Ionization_Penalty_Charging>
0.186055

> <r_epik_Ionization_Penalty_Neutral>
2.36809e-06

> <r_epik_State_Penalty>
0.175633

> <r_epik_Charging_Adjusted_Penalty>
0.361687

> <i_epik_Tot_Q>
1

> <i_epik_Tot_abs_Q>
1

> <r_epik_Metal_State_Penalty>
0.176075

> <b_epik_Metal_Only>
0

> <s_lp_Force_Field>
OPLS_2005

> <r_lp_Energy>
21.8815

> <b_lp_Chiralities_Consistent>
1

> <s_lp_Variant>
AV-unprocessed.smi:3236-1

> <Gold.Version>
5.8.1

> <Gold.Id.Protein>
6NUR|6NUR_protein|mol2

> <Gold.PLP.Fitness>
45.5042

> <Gold.PLP.PLP>
-35.2183

> <Gold.PLP.part.hbond>
-1.9508

> <Gold.PLP.part.metal>
0.0000

> <Gold.PLP.part.buried>
1.4077

> <Gold.PLP.part.nonpolar>
-34.0966

> <Gold.PLP.part.repulsive>
0.3722

> <Gold.PLP.ligand.clash>
0.0000

> <Gold.PLP.ligand.torsion>
0.8626

> <Gold.PLP.Chemscore.Hbond>
3.0000

> <Gold.PLP.Chemscore.CHOScore>
0.9938

> <Gold.PLP.Chemscore.Metal>
0.0000

> <Gold.Chemscore.Hbonds>
donor molecule, donor type, donor heavy atom, donor atom, acceptor molecule, acceptor atom, score
      L1  H     9    29       P1  7957  0.83
      L1  H     9    41       P1  7948  2.00
      L1  C    13    34       P1  7921  0.78

> <Gold.PLP.Chemscore.Internal.Correction>
0.0296

> <Gold.Rescore>
     Score         DG    S(hbond)    S(metal)    S(lipo)     H(rot)  DE(clash)    DE(int)     intcor
     15.59     -16.81       1.96        0.00      80.16       1.80       0.32       0.90       ----

> <Gold.Chemscore.Fitness>
15.5860

> <Gold.Chemscore.DG>
-16.8090

> <Gold.Chemscore.ZeroCoef>
-5.4800

> <Gold.Chemscore.Hbond>
1.9608

> <Gold.Chemscore.Metal>
0.0000

> <Gold.Chemscore.Lipo>
80.1563

> <Gold.Chemscore.Internal_Hbond>
0.0000

> <Gold.Chemscore.DEClash>
0.3230

> <Gold.Chemscore.DEInternal>
0.9000

> <Gold.Chemscore.Rot>
1.7963

> <Gold.Chemscore.Internal.Correction>
   9.000000E+99

> <Gold.Chemscore.Hbonds>
donor molecule, donor type, donor heavy atom, donor atom, acceptor molecule, acceptor atom, score
      L1  H     9    29       P1  7957  0.83
      L1  H     9    41       P1  7948  1.00

> <Gold.Chemscore.Hbond.Weighted>
-6.5492

> <Gold.Chemscore.Metal.Weighted>
-0.0000

> <Gold.Chemscore.Lipo.Weighted>
-9.3783

> <Gold.Chemscore.Internal_Hbond.Weighted>
0.0000

> <Gold.Chemscore.DEClash.Weighted>
0.3230

> <Gold.Chemscore.DEInternal.Weighted>
0.9000

> <Gold.Chemscore.Rot.Weighted>
4.5985

> <Gold.Chemscore.Internal.Correction.Weighted>
   9.000000E+99

> <Gold.Protein.RotatedTorsions>
[ 6907 6896 6895 6894 ] final  113.00 input  -60.11 | X-H torsion
[ 7974 7965 7964 7962 ] final   10.99 input  175.53 | X-H torsion
[ 8008 7997 7996 7995 ] final -156.92 input   59.86 | X-H torsion
[ 10167 10162 10161 10158 ] final  -61.59 input  -65.29 | X-H torsion
[ 10718 10713 10712 10709 ] final -171.13 input   66.30 | X-H torsion
[ 10763 10752 10751 10750 ] final  147.78 input  -60.55 | X-H torsion
[ 11005 11000 10999 10996 ] final  147.23 input  -57.11 | X-H torsion

> <Gold.Protein.ActiveResidues>
 VAL166  LYS551  ARG553  GLY616  TRP617  ASP618  TYR619  PRO620  LYS621  CYS622 
 ASP623  PHE694  ASN695  SER759  ASP760  ASP761  ALA762  ILE779  LEU786  VAL792 
 PHE793  MET794  SER795  GLU796  ALA797  LYS798  CYS799  TRP800  GLU811  SER814 

> <Gold.Protein.RotatedAtoms>
  152.4885  133.8436  159.7165 H   0  0  0  0  0  0  0  0  0  0  0  0  # atno 6907 bound_to 6896
  150.8993  133.7130  159.2890 H   0  0  0  0  0  0  0  0  0  0  0  0  # atno 6908 bound_to 6896
  151.4577  135.1039  159.9768 H   0  0  0  0  0  0  0  0  0  0  0  0  # atno 6909 bound_to 6896
  146.2379  139.9551  142.8465 H   0  0  0  0  0  0  0  0  0  0  0  0  # atno 7974 bound_to 7965
  155.7245  140.0794  157.2316 H   0  0  0  0  0  0  0  0  0  0  0  0  # atno 8008 bound_to 7997
  154.4041  140.1606  156.2494 H   0  0  0  0  0  0  0  0  0  0  0  0  # atno 8009 bound_to 7997
  155.9166  140.3400  155.6143 H   0  0  0  0  0  0  0  0  0  0  0  0  # atno 8010 bound_to 7997
  140.5996  143.2358  151.5959 H   0  0  0  0  0  0  0  0  0  0  0  0  # atno 10167 bound_to 10162
  156.7363  130.9325  151.3107 H   0  0  0  0  0  0  0  0  0  0  0  0  # atno 10718 bound_to 10713
  154.0440  135.2887  155.3351 H   0  0  0  0  0  0  0  0  0  0  0  0  # atno 10763 bound_to 10752
  154.6911  135.5226  153.8397 H   0  0  0  0  0  0  0  0  0  0  0  0  # atno 10764 bound_to 10752
  153.0588  135.6606  154.0642 H   0  0  0  0  0  0  0  0  0  0  0  0  # atno 10765 bound_to 10752
  140.0858  134.9070  157.1573 H   0  0  0  0  0  0  0  0  0  0  0  0  # atno 11005 bound_to 11000
  145.1824  140.9773  143.4258 LP  0  0  0  0  0  0  0  0  0  0  0  0  # atno 17320 bound_to 7965
  144.9930  139.3671  143.6205 LP  0  0  0  0  0  0  0  0  0  0  0  0  # atno 17321 bound_to 7965
  139.5282  144.2996  152.1084 LP  0  0  0  0  0  0  0  0  0  0  0  0  # atno 17342 bound_to 10162
  140.2174  144.4501  150.6357 LP  0  0  0  0  0  0  0  0  0  0  0  0  # atno 17343 bound_to 10162
  157.6837  130.9165  150.0332 LP  0  0  0  0  0  0  0  0  0  0  0  0  # atno 17370 bound_to 10713
  156.1494  130.3642  149.9461 LP  0  0  0  0  0  0  0  0  0  0  0  0  # atno 17371 bound_to 10713
  140.3422  134.2691  155.7210 LP  0  0  0  0  0  0  0  0  0  0  0  0  # atno 17394 bound_to 11000
  141.2062  133.7839  157.0190 LP  0  0  0  0  0  0  0  0  0  0  0  0  # atno 17395 bound_to 11000

$$$$
