AV-unprocessed.smi:2252|AV-procd|sdf|9103|dock9
  -GOLD-   2272012303D 1   1.00000     0.00000
 Structure written by MMmdl.
 46 48  0  0  0  0  0  0  0  0  3 V2000
  152.9286  142.1787  159.7596 C   0  0  0  0  0  0  0  0  0  0  0  0
  152.1605  143.2476  159.1184 N   0  0  0  0  0  0  0  0  0  0  0  0
  151.8801  144.4818  159.6464 C   0  0  0  0  0  0  0  0  0  0  0  0
  151.1465  145.1549  158.7048 C   0  0  0  0  0  0  0  0  0  0  0  0
  151.0090  144.3043  157.6417 N   0  3  0  0  0  0  0  0  0  0  0  0
  151.6199  143.1405  157.8933 C   0  0  0  0  0  0  0  0  0  0  0  0
  151.6892  141.9771  156.9539 C   0  0  0  0  0  0  0  0  0  0  0  0
  150.8741  140.7705  157.4482 C   0  0  0  0  0  0  0  0  0  0  0  0
  150.0895  140.1681  156.3770 N   0  0  0  0  0  0  0  0  0  0  0  0
  150.5694  139.8221  155.1720 C   0  0  0  0  0  0  0  0  0  0  0  0
  151.7435  139.9910  154.8409 O   0  0  0  0  0  0  0  0  0  0  0  0
  149.5779  139.1716  154.1951 C   0  0  2  0  0  0  0  0  0  0  0  0
  148.2179  139.8913  154.3197 C   0  0  0  0  0  0  0  0  0  0  0  0
  147.3131  140.0726  153.1202 C   0  0  0  0  0  0  0  0  0  0  0  0
  148.0080  141.2668  153.7220 C   0  0  0  0  0  0  0  0  0  0  0  0
  149.4437  137.7065  154.4377 N   0  3  0  0  0  0  0  0  0  0  0  0
  150.7055  136.9980  154.7413 C   0  0  0  0  0  0  0  0  0  0  0  0
  150.3065  135.6890  155.4307 C   0  0  0  0  0  0  0  0  0  0  0  0
  148.8546  135.8839  155.8781 C   0  0  0  0  0  0  0  0  0  0  0  0
  148.5155  137.3331  155.5274 C   0  0  0  0  0  0  0  0  0  0  0  0
  153.3501  142.5438  160.6966 H   0  0  0  0  0  0  0  0  0  0  0  0
  153.7379  141.8654  159.0994 H   0  0  0  0  0  0  0  0  0  0  0  0
  152.2691  141.3349  159.9646 H   0  0  0  0  0  0  0  0  0  0  0  0
  152.2162  144.7838  160.6280 H   0  0  0  0  0  0  0  0  0  0  0  0
  150.7250  146.1496  158.7107 H   0  0  0  0  0  0  0  0  0  0  0  0
  151.3428  142.3148  155.9770 H   0  0  0  0  0  0  0  0  0  0  0  0
  152.7451  141.7238  156.8505 H   0  0  0  0  0  0  0  0  0  0  0  0
  151.5311  140.0202  157.8915 H   0  0  0  0  0  0  0  0  0  0  0  0
  150.1858  141.0831  158.2338 H   0  0  0  0  0  0  0  0  0  0  0  0
  149.1153  139.9863  156.5729 H   0  0  0  0  0  0  0  0  0  0  0  0
  149.9554  139.3090  153.1797 H   0  0  0  0  0  0  0  0  0  0  0  0
  147.7190  139.7202  155.2724 H   0  0  0  0  0  0  0  0  0  0  0  0
  147.6701  139.7229  152.1537 H   0  0  0  0  0  0  0  0  0  0  0  0
  146.2414  139.9786  153.2829 H   0  0  0  0  0  0  0  0  0  0  0  0
  147.3993  141.9719  154.2846 H   0  0  0  0  0  0  0  0  0  0  0  0
  148.8241  141.7073  153.1528 H   0  0  0  0  0  0  0  0  0  0  0  0
  151.2981  136.8233  153.8428 H   0  0  0  0  0  0  0  0  0  0  0  0
  151.3035  137.5995  155.4280 H   0  0  0  0  0  0  0  0  0  0  0  0
  150.3735  134.8513  154.7354 H   0  0  0  0  0  0  0  0  0  0  0  0
  150.9656  135.4705  156.2718 H   0  0  0  0  0  0  0  0  0  0  0  0
  148.2051  135.2045  155.3245 H   0  0  0  0  0  0  0  0  0  0  0  0
  148.7154  135.6798  156.9404 H   0  0  0  0  0  0  0  0  0  0  0  0
  148.6964  137.9704  156.3945 H   0  0  0  0  0  0  0  0  0  0  0  0
  147.4705  137.4482  155.2378 H   0  0  0  0  0  0  0  0  0  0  0  0
  149.0781  137.2921  153.5921 H   0  0  0  0  0  0  0  0  0  0  0  0
  150.5168  144.5233  156.7845 H   0  0  0  0  0  0  0  0  0  0  0  0
  1  2  1  0  0  0  0
  1 21  1  0  0  0  0
  1 22  1  0  0  0  0
  1 23  1  0  0  0  0
  2  6  1  0  0  0  0
  2  3  1  0  0  0  0
  3  4  2  0  0  0  0
  3 24  1  0  0  0  0
  4  5  1  0  0  0  0
  4 25  1  0  0  0  0
  5  6  2  0  0  0  0
  5 46  1  0  0  0  0
  6  7  1  0  0  0  0
  7  8  1  0  0  0  0
  7 26  1  0  0  0  0
  7 27  1  0  0  0  0
  8  9  1  0  0  0  0
  8 28  1  0  0  0  0
  8 29  1  0  0  0  0
  9 10  1  0  0  0  0
  9 30  1  0  0  0  0
 10 11  2  0  0  0  0
 10 12  1  0  0  0  0
 12 13  1  0  0  0  0
 12 16  1  0  0  0  0
 12 31  1  0  0  0  0
 13 15  1  0  0  0  0
 13 14  1  0  0  0  0
 13 32  1  0  0  0  0
 14 15  1  0  0  0  0
 14 33  1  0  0  0  0
 14 34  1  0  0  0  0
 15 35  1  0  0  0  0
 15 36  1  0  0  0  0
 16 20  1  0  0  0  0
 16 17  1  0  0  0  0
 16 45  1  0  0  0  0
 17 18  1  0  0  0  0
 17 37  1  0  0  0  0
 17 38  1  0  0  0  0
 18 19  1  0  0  0  0
 18 39  1  0  0  0  0
 18 40  1  0  0  0  0
 19 20  1  0  0  0  0
 19 41  1  0  0  0  0
 19 42  1  0  0  0  0
 20 43  1  0  0  0  0
 20 44  1  0  0  0  0
M  CHG  1   5   1
M  CHG  1  16   1
M  END
> <s_m_source_file>
AV-unprocessed.smi

> <i_m_source_file_index>
2252

> <i_lp_mmshare_version>
43012

> <i_f3d_flags>
0

> <s_epik_input>
W0NIM11uMVtjSF1bY0hdbmMxW0NIMl1bQ0gyXVtOSF1DKD1PKVtDQEhdKFtDSF0yW0NIMl1bQ0gyXTIpTjNbQ0gyXVtDSDJdW0NIMl1bQ0gyXTM=

> <s_epik_cmdline>
J2VwaWtfcHl0aG9uJywgJy1waCcsICc3LjAnLCAnLXRuJywgJzgnLCAnLW1hJywgJzIwMCcsICctbWV0YWxfYmluZGluZycsICctaW1hZScsICc8aW5maWxlLm1hZT4nLCAnLW9tYWUnLCAnPG91dGZpbGUubWFlPic=

> <r_lp_tautomer_probability>
1

> <r_epik_Ionization_Penalty>
0.116886

> <r_epik_Ionization_Penalty_Charging>
0.00955009

> <r_epik_Ionization_Penalty_Neutral>
0.107336

> <r_epik_State_Penalty>
0.0956868

> <r_epik_Charging_Adjusted_Penalty>
0.105237

> <i_epik_Tot_Q>
2

> <i_epik_Tot_abs_Q>
2

> <r_epik_Metal_State_Penalty>
0.438836

> <b_epik_Metal_Only>
0

> <s_lp_Force_Field>
OPLS_2005

> <r_lp_Energy>
40.5803

> <b_lp_Chiralities_Consistent>
1

> <s_lp_Variant>
AV-unprocessed.smi:2252-1

> <Gold.Version>
5.8.1

> <Gold.Id.Protein>
6NUR|6NUR_protein|mol2

> <Gold.PLP.Fitness>
51.8226

> <Gold.PLP.PLP>
-39.6386

> <Gold.PLP.part.hbond>
-2.9696

> <Gold.PLP.part.metal>
0.0000

> <Gold.PLP.part.buried>
-4.9386

> <Gold.PLP.part.nonpolar>
-32.4063

> <Gold.PLP.part.repulsive>
0.1310

> <Gold.PLP.ligand.clash>
0.0000

> <Gold.PLP.ligand.torsion>
1.9955

> <Gold.PLP.Chemscore.Hbond>
5.0000

> <Gold.PLP.Chemscore.CHOScore>
0.0000

> <Gold.PLP.Chemscore.Metal>
0.0000

> <Gold.Chemscore.Hbonds>
donor molecule, donor type, donor heavy atom, donor atom, acceptor molecule, acceptor atom, score
      L1  H     5    46       P1  8028  2.00
      L1  H    16    45       P1  7948  2.00
      P1  H  7989  7998       L1    11  1.00

> <Gold.PLP.Chemscore.Internal.Correction>
1.1751

> <Gold.Rescore>
     Score         DG    S(hbond)    S(metal)    S(lipo)     H(rot)  DE(clash)    DE(int)     intcor
     16.21     -19.65       2.88        0.00      83.80       2.05       0.14       3.30       ----

> <Gold.Chemscore.Fitness>
16.2091

> <Gold.Chemscore.DG>
-19.6529

> <Gold.Chemscore.ZeroCoef>
-5.4800

> <Gold.Chemscore.Hbond>
2.8756

> <Gold.Chemscore.Metal>
0.0000

> <Gold.Chemscore.Lipo>
83.8043

> <Gold.Chemscore.Internal_Hbond>
0.0000

> <Gold.Chemscore.DEClash>
0.1403

> <Gold.Chemscore.DEInternal>
3.3035

> <Gold.Chemscore.Rot>
2.0456

> <Gold.Chemscore.Internal.Correction>
   9.000000E+99

> <Gold.Chemscore.Hbonds>
donor molecule, donor type, donor heavy atom, donor atom, acceptor molecule, acceptor atom, score
      L1  H     5    46       P1  8028  0.89
      L1  H    16    45       P1  7948  0.94
      P1  H  7989  7998       L1    11  0.47

> <Gold.Chemscore.Hbond.Weighted>
-9.6047

> <Gold.Chemscore.Metal.Weighted>
-0.0000

> <Gold.Chemscore.Lipo.Weighted>
-9.8051

> <Gold.Chemscore.Internal_Hbond.Weighted>
0.0000

> <Gold.Chemscore.DEClash.Weighted>
0.1403

> <Gold.Chemscore.DEInternal.Weighted>
3.3035

> <Gold.Chemscore.Rot.Weighted>
5.2368

> <Gold.Chemscore.Internal.Correction.Weighted>
   9.000000E+99

> <Gold.Protein.RotatedTorsions>
[ 6907 6896 6895 6894 ] final    5.52 input  -60.11 | X-H torsion
[ 7974 7965 7964 7962 ] final   24.09 input  175.53 | X-H torsion
[ 8008 7997 7996 7995 ] final   50.71 input   59.86 | X-H torsion
[ 10167 10162 10161 10158 ] final  -57.08 input  -65.29 | X-H torsion
[ 10718 10713 10712 10709 ] final   -3.83 input   66.30 | X-H torsion
[ 10763 10752 10751 10750 ] final   43.95 input  -60.55 | X-H torsion
[ 11005 11000 10999 10996 ] final    5.15 input  -57.11 | X-H torsion

> <Gold.Protein.ActiveResidues>
 VAL166  LYS551  ARG553  GLY616  TRP617  ASP618  TYR619  PRO620  LYS621  CYS622 
 ASP623  PHE694  ASN695  SER759  ASP760  ASP761  ALA762  ILE779  LEU786  VAL792 
 PHE793  MET794  SER795  GLU796  ALA797  LYS798  CYS799  TRP800  GLU811  SER814 

> <Gold.Protein.RotatedAtoms>
  151.6588  135.0992  160.0175 H   0  0  0  0  0  0  0  0  0  0  0  0  # atno 6907 bound_to 6896
  152.3958  133.6741  159.6284 H   0  0  0  0  0  0  0  0  0  0  0  0  # atno 6908 bound_to 6896
  150.7866  133.8792  159.3322 H   0  0  0  0  0  0  0  0  0  0  0  0  # atno 6909 bound_to 6896
  146.1954  139.7654  142.8801 H   0  0  0  0  0  0  0  0  0  0  0  0  # atno 7974 bound_to 7965
  155.4233  140.3447  155.4273 H   0  0  0  0  0  0  0  0  0  0  0  0  # atno 8008 bound_to 7997
  156.1380  140.1533  156.8996 H   0  0  0  0  0  0  0  0  0  0  0  0  # atno 8009 bound_to 7997
  154.4947  140.0831  156.7652 H   0  0  0  0  0  0  0  0  0  0  0  0  # atno 8010 bound_to 7997
  140.6279  143.2446  151.5316 H   0  0  0  0  0  0  0  0  0  0  0  0  # atno 10167 bound_to 10162
  156.7703  130.5298  149.5768 H   0  0  0  0  0  0  0  0  0  0  0  0  # atno 10718 bound_to 10713
  152.9850  135.6086  154.3194 H   0  0  0  0  0  0  0  0  0  0  0  0  # atno 10763 bound_to 10752
  154.2905  135.2775  155.2659 H   0  0  0  0  0  0  0  0  0  0  0  0  # atno 10764 bound_to 10752
  154.4957  135.5880  153.6549 H   0  0  0  0  0  0  0  0  0  0  0  0  # atno 10765 bound_to 10752
  140.5740  134.0075  155.8020 H   0  0  0  0  0  0  0  0  0  0  0  0  # atno 11005 bound_to 11000
  145.3660  141.0334  143.3258 LP  0  0  0  0  0  0  0  0  0  0  0  0  # atno 17320 bound_to 7965
  144.8570  139.5235  143.6830 LP  0  0  0  0  0  0  0  0  0  0  0  0  # atno 17321 bound_to 7965
  139.5497  144.2428  152.1508 LP  0  0  0  0  0  0  0  0  0  0  0  0  # atno 17342 bound_to 10162
  140.1664  144.4977  150.6604 LP  0  0  0  0  0  0  0  0  0  0  0  0  # atno 17343 bound_to 10162
  156.1282  130.6159  151.0295 LP  0  0  0  0  0  0  0  0  0  0  0  0  # atno 17370 bound_to 10713
  157.6694  131.0864  150.7649 LP  0  0  0  0  0  0  0  0  0  0  0  0  # atno 17371 bound_to 10713
  141.1038  133.9726  157.3032 LP  0  0  0  0  0  0  0  0  0  0  0  0  # atno 17394 bound_to 11000
  139.9348  135.0197  156.8521 LP  0  0  0  0  0  0  0  0  0  0  0  0  # atno 17395 bound_to 11000

$$$$
