AV-unprocessed.smi:260|AV-procd|sdf|1979|dock1
  -GOLD-   2262021153D 1   1.00000     0.00000
 Structure written by MMmdl.
 53 56  0  0  0  0  0  0  0  0  1 V2000
  150.5521  129.6291  155.8869 C   0  0  0  0  0  0  0  0  0  0  0  0
  149.8504  130.8693  155.5943 N   0  0  0  0  0  0  0  0  0  0  0  0
  150.0730  132.0337  156.2246 C   0  0  0  0  0  0  0  0  0  0  0  0
  150.9140  132.1414  157.1184 O   0  0  0  0  0  0  0  0  0  0  0  0
  149.2269  133.2546  155.7744 C   0  0  1  0  0  0  0  0  0  0  0  0
  148.3060  132.8798  154.5920 C   0  0  0  0  0  0  0  0  0  0  0  0
  148.4128  133.8507  156.9452 C   0  0  0  0  0  0  0  0  0  0  0  0
  149.3709  134.8122  157.6623 C   0  0  0  0  0  0  0  0  0  0  0  0
  150.4210  135.1102  156.6998 N   0  0  0  0  0  0  0  0  0  0  0  0
  151.1239  136.2714  156.7559 C   0  0  0  0  0  0  0  0  0  0  0  0
  151.7156  136.7311  155.6210 N   0  0  0  0  0  0  0  0  0  0  0  0
  152.4136  137.8702  155.6315 C   0  0  0  0  0  0  0  0  0  0  0  0
  152.6482  138.6951  156.6528 N   0  0  0  0  0  0  0  0  0  0  0  0
  152.0698  138.2365  157.7988 C   0  0  0  0  0  0  0  0  0  0  0  0
  151.3002  137.0456  157.9412 C   0  0  0  0  0  0  0  0  0  0  0  0
  150.8912  136.9123  159.2644 N   0  0  0  0  0  0  0  0  0  0  0  0
  151.3797  137.9634  159.8630 C   0  0  0  0  0  0  0  0  0  0  0  0
  152.1004  138.8126  159.0559 N   0  0  0  0  0  0  0  0  0  0  0  0
  152.7506  140.0495  159.4514 C   0  0  0  0  0  0  0  0  0  0  0  0
  151.9236  141.2968  159.0827 C   0  0  2  0  0  0  0  0  0  0  0  0
  151.8035  141.3775  157.6749 O   0  0  0  0  0  0  0  0  0  0  0  0
  152.5692  142.5952  159.6012 C   0  0  1  0  0  0  0  0  0  0  0  0
  152.0436  143.8718  158.9474 C   0  0  0  0  0  0  0  0  0  0  0  0
  152.4402  144.9332  159.9534 C   0  0  0  0  0  0  0  0  0  0  0  0
  152.4202  144.1828  161.2878 C   0  0  0  0  0  0  0  0  0  0  0  0
  152.2426  142.8059  160.9679 O   0  0  0  0  0  0  0  0  0  0  0  0
  150.1470  134.4413  155.4346 C   0  0  0  0  0  0  0  0  0  0  0  0
  150.1772  128.8302  155.2472 H   0  0  0  0  0  0  0  0  0  0  0  0
  150.4017  129.3334  156.9259 H   0  0  0  0  0  0  0  0  0  0  0  0
  151.6223  129.7371  155.7065 H   0  0  0  0  0  0  0  0  0  0  0  0
  149.1504  130.8441  154.8673 H   0  0  0  0  0  0  0  0  0  0  0  0
  147.6511  133.7087  154.3210 H   0  0  0  0  0  0  0  0  0  0  0  0
  147.6683  132.0300  154.8393 H   0  0  0  0  0  0  0  0  0  0  0  0
  148.8749  132.6242  153.6973 H   0  0  0  0  0  0  0  0  0  0  0  0
  147.5688  134.4235  156.5583 H   0  0  0  0  0  0  0  0  0  0  0  0
  147.9960  133.1018  157.6201 H   0  0  0  0  0  0  0  0  0  0  0  0
  148.8471  135.7106  157.9906 H   0  0  0  0  0  0  0  0  0  0  0  0
  149.8159  134.3348  158.5359 H   0  0  0  0  0  0  0  0  0  0  0  0
  152.8449  138.1625  154.6856 H   0  0  0  0  0  0  0  0  0  0  0  0
  151.2294  138.1473  160.9168 H   0  0  0  0  0  0  0  0  0  0  0  0
  152.9196  140.0120  160.5282 H   0  0  0  0  0  0  0  0  0  0  0  0
  153.7353  140.0912  158.9841 H   0  0  0  0  0  0  0  0  0  0  0  0
  150.9203  141.2007  159.5004 H   0  0  0  0  0  0  0  0  0  0  0  0
  151.0637  140.8547  157.4065 H   0  0  0  0  0  0  0  0  0  0  0  0
  153.6560  142.5493  159.5049 H   0  0  0  0  0  0  0  0  0  0  0  0
  152.4635  144.0487  157.9567 H   0  0  0  0  0  0  0  0  0  0  0  0
  150.9570  143.8327  158.8558 H   0  0  0  0  0  0  0  0  0  0  0  0
  153.4493  145.2896  159.7422 H   0  0  0  0  0  0  0  0  0  0  0  0
  151.7693  145.7926  159.9410 H   0  0  0  0  0  0  0  0  0  0  0  0
  153.3554  144.3257  161.8305 H   0  0  0  0  0  0  0  0  0  0  0  0
  151.6028  144.5157  161.9280 H   0  0  0  0  0  0  0  0  0  0  0  0
  151.0738  134.1185  154.9576 H   0  0  0  0  0  0  0  0  0  0  0  0
  149.6485  135.1361  154.7570 H   0  0  0  0  0  0  0  0  0  0  0  0
  1  2  1  0  0  0  0
  1 28  1  0  0  0  0
  1 29  1  0  0  0  0
  1 30  1  0  0  0  0
  2  3  1  0  0  0  0
  2 31  1  0  0  0  0
  3  4  2  0  0  0  0
  3  5  1  0  0  0  0
  5 27  1  0  0  0  0
  5  6  1  0  0  0  0
  5  7  1  0  0  0  0
  6 32  1  0  0  0  0
  6 33  1  0  0  0  0
  6 34  1  0  0  0  0
  7  8  1  0  0  0  0
  7 35  1  0  0  0  0
  7 36  1  0  0  0  0
  8  9  1  0  0  0  0
  8 37  1  0  0  0  0
  8 38  1  0  0  0  0
  9 10  1  0  0  0  0
  9 27  1  0  0  0  0
 10 15  1  0  0  0  0
 10 11  2  0  0  0  0
 11 12  1  0  0  0  0
 12 13  2  0  0  0  0
 12 39  1  0  0  0  0
 13 14  1  0  0  0  0
 14 18  1  0  0  0  0
 14 15  2  0  0  0  0
 15 16  1  0  0  0  0
 16 17  2  0  0  0  0
 17 18  1  0  0  0  0
 17 40  1  0  0  0  0
 18 19  1  0  0  0  0
 19 20  1  0  0  0  0
 19 41  1  0  0  0  0
 19 42  1  0  0  0  0
 20 21  1  0  0  0  0
 20 22  1  0  0  0  0
 20 43  1  0  0  0  0
 21 44  1  0  0  0  0
 22 26  1  0  0  0  0
 22 23  1  0  0  0  0
 22 45  1  0  0  0  0
 23 24  1  0  0  0  0
 23 46  1  0  0  0  0
 23 47  1  0  0  0  0
 24 25  1  0  0  0  0
 24 48  1  0  0  0  0
 24 49  1  0  0  0  0
 25 26  1  0  0  0  0
 25 50  1  0  0  0  0
 25 51  1  0  0  0  0
 27 52  1  0  0  0  0
 27 53  1  0  0  0  0
M  END
> <s_m_source_file>
AV-unprocessed.smi

> <i_m_source_file_index>
260

> <i_lp_mmshare_version>
43012

> <i_f3d_flags>
0

> <s_epik_input>
W0NIM11bTkhdQyg9TylbQ0BAXTEoW0NIM10pW0NIMl1bQ0gyXU4oW0NIMl0xKWMobltjSF1uMiljKGMyMyluW2NIXW4zW0NIMl1bQ0BIXShbT0hdKVtDQEBIXTRbQ0gyXVtDSDJdW0NIMl1PNA==

> <s_epik_cmdline>
J2VwaWtfcHl0aG9uJywgJy1waCcsICc3LjAnLCAnLXRuJywgJzgnLCAnLW1hJywgJzIwMCcsICctbWV0YWxfYmluZGluZycsICctaW1hZScsICc8aW5maWxlLm1hZT4nLCAnLW9tYWUnLCAnPG91dGZpbGUubWFlPic=

> <r_lp_tautomer_probability>
1

> <r_epik_Ionization_Penalty>
0.00115068

> <r_epik_Ionization_Penalty_Charging>
0

> <r_epik_Ionization_Penalty_Neutral>
0.00115068

> <r_epik_State_Penalty>
0.000668876

> <r_epik_Charging_Adjusted_Penalty>
0.000668876

> <i_epik_Tot_Q>
0

> <i_epik_Tot_abs_Q>
0

> <r_epik_Metal_State_Penalty>
-0

> <b_epik_Metal_Only>
0

> <s_lp_Force_Field>
OPLS_2005

> <r_lp_Energy>
50.4513

> <b_lp_Chiralities_Consistent>
1

> <s_lp_Variant>
AV-unprocessed.smi:260-5

> <Gold.Version>
5.8.1

> <Gold.Id.Protein>
6NUR|6NUR_protein|mol2

> <Gold.PLP.Fitness>
52.7967

> <Gold.PLP.PLP>
-46.3457

> <Gold.PLP.part.hbond>
-3.5450

> <Gold.PLP.part.metal>
0.0000

> <Gold.PLP.part.buried>
-7.5392

> <Gold.PLP.part.nonpolar>
-34.7617

> <Gold.PLP.part.repulsive>
0.1706

> <Gold.PLP.ligand.clash>
0.8618

> <Gold.PLP.ligand.torsion>
0.8700

> <Gold.PLP.Chemscore.Hbond>
2.8862

> <Gold.PLP.Chemscore.CHOScore>
0.0000

> <Gold.PLP.Chemscore.Metal>
0.0000

> <Gold.Chemscore.Hbonds>
donor molecule, donor type, donor heavy atom, donor atom, acceptor molecule, acceptor atom, score
      P1  H  6896  6908       L1    16  1.00
      P1  H  7997  8009       L1    13  0.36
      P1  H 10752 10765       L1    11  0.87

> <Gold.PLP.Chemscore.Internal.Correction>
0.3941

> <Gold.Rescore>
     Score         DG    S(hbond)    S(metal)    S(lipo)     H(rot)  DE(clash)    DE(int)     intcor
     14.56     -17.34       2.15        0.00      95.18       2.53       0.20       2.58       ----

> <Gold.Chemscore.Fitness>
14.5604

> <Gold.Chemscore.DG>
-17.3382

> <Gold.Chemscore.ZeroCoef>
-5.4800

> <Gold.Chemscore.Hbond>
2.1522

> <Gold.Chemscore.Metal>
0.0000

> <Gold.Chemscore.Lipo>
95.1800

> <Gold.Chemscore.Internal_Hbond>
0.0000

> <Gold.Chemscore.DEClash>
0.1982

> <Gold.Chemscore.DEInternal>
2.5796

> <Gold.Chemscore.Rot>
2.5259

> <Gold.Chemscore.Internal.Correction>
   9.000000E+99

> <Gold.Chemscore.Hbonds>
donor molecule, donor type, donor heavy atom, donor atom, acceptor molecule, acceptor atom, score
      P1  H  6896  6907       L1     4  0.04
      P1  H  6896  6908       L1    16  0.73
      P1  H  7997  8009       L1    13  0.27
      P1  H 10752 10765       L1    11  0.18

> <Gold.Chemscore.Hbond.Weighted>
-7.1885

> <Gold.Chemscore.Metal.Weighted>
-0.0000

> <Gold.Chemscore.Lipo.Weighted>
-11.1361

> <Gold.Chemscore.Internal_Hbond.Weighted>
0.0000

> <Gold.Chemscore.DEClash.Weighted>
0.1982

> <Gold.Chemscore.DEInternal.Weighted>
2.5796

> <Gold.Chemscore.Rot.Weighted>
6.4663

> <Gold.Chemscore.Internal.Correction.Weighted>
   9.000000E+99

> <Gold.Protein.RotatedTorsions>
[ 6907 6896 6895 6894 ] final -149.70 input  -60.11 | X-H torsion
[ 7974 7965 7964 7962 ] final  -20.12 input  175.53 | X-H torsion
[ 8008 7997 7996 7995 ] final -152.44 input   59.86 | X-H torsion
[ 10167 10162 10161 10158 ] final  103.91 input  -65.29 | X-H torsion
[ 10718 10713 10712 10709 ] final  138.52 input   66.30 | X-H torsion
[ 10763 10752 10751 10750 ] final  170.14 input  -60.55 | X-H torsion
[ 11005 11000 10999 10996 ] final    9.37 input  -57.11 | X-H torsion

> <Gold.Protein.ActiveResidues>
 VAL166  LYS551  ARG553  GLY616  TRP617  ASP618  TYR619  PRO620  LYS621  CYS622 
 ASP623  PHE694  ASN695  SER759  ASP760  ASP761  ALA762  ILE779  LEU786  VAL792 
 PHE793  MET794  SER795  GLU796  ALA797  LYS798  CYS799  TRP800  GLU811  SER814 

> <Gold.Protein.RotatedAtoms>
  151.1879  133.4685  159.2594 H   0  0  0  0  0  0  0  0  0  0  0  0  # atno 6907 bound_to 6896
  151.1193  135.0070  159.8541 H   0  0  0  0  0  0  0  0  0  0  0  0  # atno 6908 bound_to 6896
  152.5455  134.1792  159.8681 H   0  0  0  0  0  0  0  0  0  0  0  0  # atno 6909 bound_to 6896
  146.1805  140.4157  142.8496 H   0  0  0  0  0  0  0  0  0  0  0  0  # atno 7974 bound_to 7965
  155.6551  140.0716  157.2573 H   0  0  0  0  0  0  0  0  0  0  0  0  # atno 8008 bound_to 7997
  154.4154  140.1726  156.1767 H   0  0  0  0  0  0  0  0  0  0  0  0  # atno 8009 bound_to 7997
  155.9744  140.3359  155.6608 H   0  0  0  0  0  0  0  0  0  0  0  0  # atno 8010 bound_to 7997
  139.7222  144.7055  151.0854 H   0  0  0  0  0  0  0  0  0  0  0  0  # atno 10167 bound_to 10162
  157.4245  131.1042  151.0318 H   0  0  0  0  0  0  0  0  0  0  0  0  # atno 10718 bound_to 10713
  154.3932  135.2754  155.2142 H   0  0  0  0  0  0  0  0  0  0  0  0  # atno 10763 bound_to 10752
  154.4199  135.6002  153.6007 H   0  0  0  0  0  0  0  0  0  0  0  0  # atno 10764 bound_to 10752
  152.9832  135.5970  154.4190 H   0  0  0  0  0  0  0  0  0  0  0  0  # atno 10765 bound_to 10752
  140.5265  134.0508  155.7860 H   0  0  0  0  0  0  0  0  0  0  0  0  # atno 11005 bound_to 11000
  144.8308  140.6703  143.6292 LP  0  0  0  0  0  0  0  0  0  0  0  0  # atno 17320 bound_to 7965
  145.4089  139.1584  143.4137 LP  0  0  0  0  0  0  0  0  0  0  0  0  # atno 17321 bound_to 7965
  140.7756  143.5151  150.9604 LP  0  0  0  0  0  0  0  0  0  0  0  0  # atno 17342 bound_to 10162
  139.8838  143.7038  152.3154 LP  0  0  0  0  0  0  0  0  0  0  0  0  # atno 17343 bound_to 10162
  157.1237  130.6072  149.5511 LP  0  0  0  0  0  0  0  0  0  0  0  0  # atno 17370 bound_to 10713
  155.9891  130.4938  150.7202 LP  0  0  0  0  0  0  0  0  0  0  0  0  # atno 17371 bound_to 10713
  141.1305  133.9310  157.2545 LP  0  0  0  0  0  0  0  0  0  0  0  0  # atno 17394 bound_to 11000
  139.9577  135.0161  156.9175 LP  0  0  0  0  0  0  0  0  0  0  0  0  # atno 17395 bound_to 11000

$$$$
