AV-unprocessed.smi:1207|AV-procd|sdf|5051|dock7
  -GOLD-   22720 4 83D 1   1.00000     0.00000
 Structure written by MMmdl.
 52 54  0  0  0  0  0  0  0  0  2 V2000
  152.2441  144.0304  161.5049 C   0  0  0  0  0  0  0  0  0  0  0  0
  152.1417  143.0956  160.3125 C   0  0  0  0  0  0  0  0  0  0  0  0
  152.4262  141.7228  160.4895 C   0  0  0  0  0  0  0  0  0  0  0  0
  152.3408  140.8203  159.4072 C   0  0  0  0  0  0  0  0  0  0  0  0
  152.5752  139.4572  159.3538 N   0  0  0  0  0  0  0  0  0  0  0  0
  152.3288  139.1926  158.0745 C   0  0  0  0  0  0  0  0  0  0  0  0
  151.9742  140.2273  157.2878 N   0  0  0  0  0  0  0  0  0  0  0  0
  151.6702  140.1810  155.8687 C   0  0  0  0  0  0  0  0  0  0  0  0
  152.1107  138.8614  155.2005 C   0  0  2  0  0  0  0  0  0  0  0  0
  153.4930  138.9696  154.9245 O   0  0  0  0  0  0  0  0  0  0  0  0
  151.3425  138.5524  153.8939 C   0  0  0  0  0  0  0  0  0  0  0  0
  149.9600  138.0395  154.1060 N   0  3  1  0  0  0  0  0  0  0  0  0
  149.8138  137.2607  155.3596 C   0  0  0  0  0  0  0  0  0  0  0  0
  148.9261  139.1035  154.0130 C   0  0  0  0  0  0  0  0  0  0  0  0
  147.5247  138.5462  154.0367 C   0  0  0  0  0  0  0  0  0  0  0  0
  146.6313  138.3835  152.9389 C   0  0  0  0  0  0  0  0  0  0  0  0
  146.8539  138.7195  151.4923 C   0  0  0  0  0  0  0  0  0  0  0  0
  145.4758  137.8645  153.3151 N   0  0  0  0  0  0  0  0  0  0  0  0
  145.5771  137.6621  154.6946 O   0  0  0  0  0  0  0  0  0  0  0  0
  146.8053  138.0715  155.1005 C   0  0  0  0  0  0  0  0  0  0  0  0
  147.0999  137.9358  156.5569 C   0  0  0  0  0  0  0  0  0  0  0  0
  151.9593  141.3323  158.1323 C   0  0  0  0  0  0  0  0  0  0  0  0
  151.6717  142.6957  157.9443 C   0  0  0  0  0  0  0  0  0  0  0  0
  151.7650  143.5844  159.0356 C   0  0  0  0  0  0  0  0  0  0  0  0
  151.4590  145.0563  158.8214 C   0  0  0  0  0  0  0  0  0  0  0  0
  152.5298  143.4925  162.4092 H   0  0  0  0  0  0  0  0  0  0  0  0
  151.2860  144.5149  161.6941 H   0  0  0  0  0  0  0  0  0  0  0  0
  152.9931  144.8014  161.3234 H   0  0  0  0  0  0  0  0  0  0  0  0
  152.7127  141.3501  161.4622 H   0  0  0  0  0  0  0  0  0  0  0  0
  152.4213  138.1895  157.6839 H   0  0  0  0  0  0  0  0  0  0  0  0
  150.5946  140.3215  155.7481 H   0  0  0  0  0  0  0  0  0  0  0  0
  152.1511  141.0326  155.3857 H   0  0  0  0  0  0  0  0  0  0  0  0
  151.9696  138.0572  155.9212 H   0  0  0  0  0  0  0  0  0  0  0  0
  153.8113  138.1349  154.6169 H   0  0  0  0  0  0  0  0  0  0  0  0
  151.2800  139.4420  153.2655 H   0  0  0  0  0  0  0  0  0  0  0  0
  151.9303  137.8257  153.3346 H   0  0  0  0  0  0  0  0  0  0  0  0
  150.0905  137.8614  156.2271 H   0  0  0  0  0  0  0  0  0  0  0  0
  150.4310  136.3633  155.3501 H   0  0  0  0  0  0  0  0  0  0  0  0
  148.7842  136.9274  155.4941 H   0  0  0  0  0  0  0  0  0  0  0  0
  149.0519  139.7931  154.8485 H   0  0  0  0  0  0  0  0  0  0  0  0
  149.1061  139.6959  153.1149 H   0  0  0  0  0  0  0  0  0  0  0  0
  147.4978  139.5924  151.3844 H   0  0  0  0  0  0  0  0  0  0  0  0
  145.9148  138.9396  150.9829 H   0  0  0  0  0  0  0  0  0  0  0  0
  147.3288  137.8890  150.9694 H   0  0  0  0  0  0  0  0  0  0  0  0
  148.1519  138.1260  156.7682 H   0  0  0  0  0  0  0  0  0  0  0  0
  146.8637  136.9308  156.9069 H   0  0  0  0  0  0  0  0  0  0  0  0
  146.5075  138.6439  157.1366 H   0  0  0  0  0  0  0  0  0  0  0  0
  151.3807  143.0556  156.9686 H   0  0  0  0  0  0  0  0  0  0  0  0
  151.1826  145.2593  157.7863 H   0  0  0  0  0  0  0  0  0  0  0  0
  152.3305  145.6662  159.0604 H   0  0  0  0  0  0  0  0  0  0  0  0
  150.6308  145.3711  159.4565 H   0  0  0  0  0  0  0  0  0  0  0  0
  149.7700  137.4007  153.3472 H   0  0  0  0  0  0  0  0  0  0  0  0
  1  2  1  0  0  0  0
  1 26  1  0  0  0  0
  1 27  1  0  0  0  0
  1 28  1  0  0  0  0
  2 24  1  0  0  0  0
  2  3  2  0  0  0  0
  3  4  1  0  0  0  0
  3 29  1  0  0  0  0
  4 22  2  0  0  0  0
  4  5  1  0  0  0  0
  5  6  2  0  0  0  0
  6  7  1  0  0  0  0
  6 30  1  0  0  0  0
  7  8  1  0  0  0  0
  7 22  1  0  0  0  0
  8  9  1  0  0  0  0
  8 31  1  0  0  0  0
  8 32  1  0  0  0  0
  9 10  1  0  0  0  0
  9 11  1  0  0  0  0
  9 33  1  0  0  0  0
 10 34  1  0  0  0  0
 11 12  1  0  0  0  0
 11 35  1  0  0  0  0
 11 36  1  0  0  0  0
 12 13  1  0  0  0  0
 12 14  1  0  0  0  0
 12 52  1  0  0  0  0
 13 37  1  0  0  0  0
 13 38  1  0  0  0  0
 13 39  1  0  0  0  0
 14 15  1  0  0  0  0
 14 40  1  0  0  0  0
 14 41  1  0  0  0  0
 15 20  2  0  0  0  0
 15 16  1  0  0  0  0
 16 17  1  0  0  0  0
 16 18  2  0  0  0  0
 17 42  1  0  0  0  0
 17 43  1  0  0  0  0
 17 44  1  0  0  0  0
 18 19  1  0  0  0  0
 19 20  1  0  0  0  0
 20 21  1  0  0  0  0
 21 45  1  0  0  0  0
 21 46  1  0  0  0  0
 21 47  1  0  0  0  0
 22 23  1  0  0  0  0
 23 24  2  0  0  0  0
 23 48  1  0  0  0  0
 24 25  1  0  0  0  0
 25 49  1  0  0  0  0
 25 50  1  0  0  0  0
 25 51  1  0  0  0  0
M  CHG  1  12   1
M  END
> <s_m_source_file>
AV-unprocessed.smi

> <i_m_source_file_index>
1207

> <i_lp_mmshare_version>
43012

> <i_f3d_flags>
0

> <s_epik_input>
W0NIM11jKFtjSF0xKWMoW0NIM10pW2NIXWMoYzEyKW4oW2NIXW4yKVtDSDJdW0NASF0oW09IXSlbQ0gyXU4oW0NIM10pW0NIMl1jM2MoW0NIM10pbm9jM1tDSDNd

> <s_epik_cmdline>
J2VwaWtfcHl0aG9uJywgJy1waCcsICc3LjAnLCAnLXRuJywgJzgnLCAnLW1hJywgJzIwMCcsICctbWV0YWxfYmluZGluZycsICctaW1hZScsICc8aW5maWxlLm1hZT4nLCAnLW9tYWUnLCAnPG91dGZpbGUubWFlPic=

> <r_epik_Ionization_Penalty>
0.646518

> <r_epik_Ionization_Penalty_Charging>
0.559419

> <r_epik_Ionization_Penalty_Neutral>
0.0870981

> <r_epik_State_Penalty>
0.661677

> <r_epik_Charging_Adjusted_Penalty>
1.2211

> <i_epik_Tot_Q>
1

> <i_epik_Tot_abs_Q>
1

> <r_epik_Metal_State_Penalty>
0.649158

> <b_epik_Metal_Only>
0

> <s_lp_Force_Field>
OPLS_2005

> <r_lp_Energy>
10.0626

> <b_lp_Chiralities_Consistent>
1

> <s_lp_Variant>
AV-unprocessed.smi:1207-3

> <Gold.Version>
5.8.1

> <Gold.Id.Protein>
6NUR|6NUR_protein|mol2

> <Gold.PLP.Fitness>
53.4296

> <Gold.PLP.PLP>
-46.5522

> <Gold.PLP.part.hbond>
-1.9980

> <Gold.PLP.part.metal>
0.0000

> <Gold.PLP.part.buried>
-5.7929

> <Gold.PLP.part.nonpolar>
-38.8126

> <Gold.PLP.part.repulsive>
0.2501

> <Gold.PLP.ligand.clash>
0.0000

> <Gold.PLP.ligand.torsion>
1.1756

> <Gold.PLP.Chemscore.Hbond>
3.0000

> <Gold.PLP.Chemscore.CHOScore>
0.0000

> <Gold.PLP.Chemscore.Metal>
0.0000

> <Gold.Chemscore.Hbonds>
donor molecule, donor type, donor heavy atom, donor atom, acceptor molecule, acceptor atom, score
      L1  H    12    52       P1  7948  2.00
      P1  H  7997  8008       L1    10  1.00

> <Gold.PLP.Chemscore.Internal.Correction>
0.2286

> <Gold.Rescore>
     Score         DG    S(hbond)    S(metal)    S(lipo)     H(rot)  DE(clash)    DE(int)     intcor
     18.62     -20.74       1.75        0.00     134.11       2.46       0.65       1.48       ----

> <Gold.Chemscore.Fitness>
18.6185

> <Gold.Chemscore.DG>
-20.7435

> <Gold.Chemscore.ZeroCoef>
-5.4800

> <Gold.Chemscore.Hbond>
1.7548

> <Gold.Chemscore.Metal>
0.0000

> <Gold.Chemscore.Lipo>
134.1118

> <Gold.Chemscore.Internal_Hbond>
0.0000

> <Gold.Chemscore.DEClash>
0.6489

> <Gold.Chemscore.DEInternal>
1.4762

> <Gold.Chemscore.Rot>
2.4565

> <Gold.Chemscore.Internal.Correction>
   9.000000E+99

> <Gold.Chemscore.Hbonds>
donor molecule, donor type, donor heavy atom, donor atom, acceptor molecule, acceptor atom, score
      L1  H    12    52       P1  7948  0.62
      P1  H  7997  8008       L1    10  0.93

> <Gold.Chemscore.Hbond.Weighted>
-5.8611

> <Gold.Chemscore.Metal.Weighted>
-0.0000

> <Gold.Chemscore.Lipo.Weighted>
-15.6911

> <Gold.Chemscore.Internal_Hbond.Weighted>
0.0000

> <Gold.Chemscore.DEClash.Weighted>
0.6489

> <Gold.Chemscore.DEInternal.Weighted>
1.4762

> <Gold.Chemscore.Rot.Weighted>
6.2887

> <Gold.Chemscore.Internal.Correction.Weighted>
   9.000000E+99

> <Gold.Protein.RotatedTorsions>
[ 6907 6896 6895 6894 ] final -158.71 input  -60.11 | X-H torsion
[ 7974 7965 7964 7962 ] final  -88.63 input  175.53 | X-H torsion
[ 8008 7997 7996 7995 ] final  -17.27 input   59.86 | X-H torsion
[ 10167 10162 10161 10158 ] final  178.86 input  -65.29 | X-H torsion
[ 10718 10713 10712 10709 ] final -179.14 input   66.30 | X-H torsion
[ 10763 10752 10751 10750 ] final  -98.85 input  -60.55 | X-H torsion
[ 11005 11000 10999 10996 ] final -109.36 input  -57.11 | X-H torsion

> <Gold.Protein.ActiveResidues>
 VAL166  LYS551  ARG553  GLY616  TRP617  ASP618  TYR619  PRO620  LYS621  CYS622 
 ASP623  PHE694  ASN695  SER759  ASP760  ASP761  ALA762  ILE779  LEU786  VAL792 
 PHE793  MET794  SER795  GLU796  ALA797  LYS798  CYS799  TRP800  GLU811  SER814 

> <Gold.Protein.RotatedAtoms>
  151.3224  133.4034  159.2655 H   0  0  0  0  0  0  0  0  0  0  0  0  # atno 6907 bound_to 6896
  151.0023  134.9333  159.7971 H   0  0  0  0  0  0  0  0  0  0  0  0  # atno 6908 bound_to 6896
  152.5278  134.3189  159.9193 H   0  0  0  0  0  0  0  0  0  0  0  0  # atno 6909 bound_to 6896
  145.4506  140.9560  143.2024 H   0  0  0  0  0  0  0  0  0  0  0  0  # atno 7974 bound_to 7965
  154.4991  140.2147  155.9385 H   0  0  0  0  0  0  0  0  0  0  0  0  # atno 8008 bound_to 7997
  156.1409  140.3180  155.8462 H   0  0  0  0  0  0  0  0  0  0  0  0  # atno 8009 bound_to 7997
  155.4121  140.0491  157.3022 H   0  0  0  0  0  0  0  0  0  0  0  0  # atno 8010 bound_to 7997
  139.5312  144.2629  152.0692 H   0  0  0  0  0  0  0  0  0  0  0  0  # atno 10167 bound_to 10162
  156.8546  130.9731  151.3089 H   0  0  0  0  0  0  0  0  0  0  0  0  # atno 10718 bound_to 10713
  154.7449  135.4994  153.9186 H   0  0  0  0  0  0  0  0  0  0  0  0  # atno 10763 bound_to 10752
  153.1081  135.6702  153.9558 H   0  0  0  0  0  0  0  0  0  0  0  0  # atno 10764 bound_to 10752
  153.9325  135.3076  155.3424 H   0  0  0  0  0  0  0  0  0  0  0  0  # atno 10765 bound_to 10752
  141.0852  133.9151  157.2201 H   0  0  0  0  0  0  0  0  0  0  0  0  # atno 11005 bound_to 11000
  144.8064  139.6044  143.7049 LP  0  0  0  0  0  0  0  0  0  0  0  0  # atno 17320 bound_to 7965
  146.2506  139.6192  142.9429 LP  0  0  0  0  0  0  0  0  0  0  0  0  # atno 17321 bound_to 7965
  140.2093  144.4579  150.6393 LP  0  0  0  0  0  0  0  0  0  0  0  0  # atno 17342 bound_to 10162
  140.6491  143.2220  151.6119 LP  0  0  0  0  0  0  0  0  0  0  0  0  # atno 17343 bound_to 10162
  157.6284  130.8710  149.9230 LP  0  0  0  0  0  0  0  0  0  0  0  0  # atno 17370 bound_to 10713
  156.0809  130.3673  150.0582 LP  0  0  0  0  0  0  0  0  0  0  0  0  # atno 17371 bound_to 10713
  139.9669  135.0139  156.9411 LP  0  0  0  0  0  0  0  0  0  0  0  0  # atno 17394 bound_to 11000
  140.5379  134.0749  155.7333 LP  0  0  0  0  0  0  0  0  0  0  0  0  # atno 17395 bound_to 11000

$$$$
