AV-unprocessed.smi:2089|AV-procd|sdf|8529|dock6
  -GOLD-   2272011253D 1   1.00000     0.00000
 Structure written by MMmdl.
 39 40  0  0  0  0  0  0  0  0  1 V2000
  155.4086  138.0548  159.1674 C   0  0  0  0  0  0  0  0  0  0  0  0
  154.9090  136.7877  160.4033 S   0  0  0  0  0  0  0  0  0  0  0  0
  153.5094  136.4035  160.1644 O   0  0  0  0  0  0  0  0  0  0  0  0
  155.9548  135.7543  160.4472 O   0  0  0  0  0  0  0  0  0  0  0  0
  154.9671  137.6624  161.8977 N   0  0  0  0  0  0  0  0  0  0  0  0
  154.5780  136.9611  163.1291 C   0  0  0  0  0  0  0  0  0  0  0  0
  155.7783  137.0737  164.0632 C   0  0  0  0  0  0  0  0  0  0  0  0
  156.3831  138.4155  163.6810 C   0  0  0  0  0  0  0  0  0  0  0  0
  156.1553  138.4936  162.1619 C   0  0  2  0  0  0  0  0  0  0  0  0
  156.0219  139.9328  161.6485 C   0  0  0  0  0  0  0  0  0  0  0  0
  156.9610  140.7224  161.7550 O   0  0  0  0  0  0  0  0  0  0  0  0
  154.8397  140.2686  161.1128 N   0  0  0  0  0  0  0  0  0  0  0  0
  154.5168  141.5925  160.6005 C   0  0  0  0  0  0  0  0  0  0  0  0
  153.0995  141.6178  160.0120 C   0  0  0  0  0  0  0  0  0  0  0  0
  152.6736  143.0165  159.6080 C   0  0  0  0  0  0  0  0  0  0  0  0
  152.2022  143.2783  158.3039 C   0  0  0  0  0  0  0  0  0  0  0  0
  151.8067  144.5918  157.9848 C   0  0  0  0  0  0  0  0  0  0  0  0
  151.8961  145.5872  158.9770 C   0  0  0  0  0  0  0  0  0  0  0  0
  152.3803  145.2235  160.2493 C   0  0  0  0  0  0  0  0  0  0  0  0
  152.7626  143.9673  160.5654 N   0  0  0  0  0  0  0  0  0  0  0  0
  155.4455  137.5991  158.1781 H   0  0  0  0  0  0  0  0  0  0  0  0
  156.3941  138.4436  159.4234 H   0  0  0  0  0  0  0  0  0  0  0  0
  154.6867  138.8709  159.1605 H   0  0  0  0  0  0  0  0  0  0  0  0
  153.7099  137.4640  163.5565 H   0  0  0  0  0  0  0  0  0  0  0  0
  154.3075  135.9224  162.9383 H   0  0  0  0  0  0  0  0  0  0  0  0
  155.5029  137.0159  165.1164 H   0  0  0  0  0  0  0  0  0  0  0  0
  156.4881  136.2726  163.8533 H   0  0  0  0  0  0  0  0  0  0  0  0
  155.8614  139.2136  164.2117 H   0  0  0  0  0  0  0  0  0  0  0  0
  157.4392  138.4764  163.9457 H   0  0  0  0  0  0  0  0  0  0  0  0
  157.0079  138.0160  161.6748 H   0  0  0  0  0  0  0  0  0  0  0  0
  154.1132  139.5683  161.0755 H   0  0  0  0  0  0  0  0  0  0  0  0
  154.5985  142.3199  161.4098 H   0  0  0  0  0  0  0  0  0  0  0  0
  155.2442  141.8742  159.8372 H   0  0  0  0  0  0  0  0  0  0  0  0
  153.0446  140.9658  159.1389 H   0  0  0  0  0  0  0  0  0  0  0  0
  152.3872  141.2209  160.7367 H   0  0  0  0  0  0  0  0  0  0  0  0
  152.1410  142.4921  157.5657 H   0  0  0  0  0  0  0  0  0  0  0  0
  151.4398  144.8312  156.9978 H   0  0  0  0  0  0  0  0  0  0  0  0
  151.5999  146.6046  158.7687 H   0  0  0  0  0  0  0  0  0  0  0  0
  152.4618  145.9607  161.0343 H   0  0  0  0  0  0  0  0  0  0  0  0
  1  2  1  0  0  0  0
  1 21  1  0  0  0  0
  1 22  1  0  0  0  0
  1 23  1  0  0  0  0
  2  3  2  0  0  0  0
  2  4  2  0  0  0  0
  2  5  1  0  0  0  0
  5  9  1  0  0  0  0
  5  6  1  0  0  0  0
  6  7  1  0  0  0  0
  6 24  1  0  0  0  0
  6 25  1  0  0  0  0
  7  8  1  0  0  0  0
  7 26  1  0  0  0  0
  7 27  1  0  0  0  0
  8  9  1  0  0  0  0
  8 28  1  0  0  0  0
  8 29  1  0  0  0  0
  9 10  1  0  0  0  0
  9 30  1  0  0  0  0
 10 11  2  0  0  0  0
 10 12  1  0  0  0  0
 12 13  1  0  0  0  0
 12 31  1  0  0  0  0
 13 14  1  0  0  0  0
 13 32  1  0  0  0  0
 13 33  1  0  0  0  0
 14 15  1  0  0  0  0
 14 34  1  0  0  0  0
 14 35  1  0  0  0  0
 15 20  1  0  0  0  0
 15 16  2  0  0  0  0
 16 17  1  0  0  0  0
 16 36  1  0  0  0  0
 17 18  2  0  0  0  0
 17 37  1  0  0  0  0
 18 19  1  0  0  0  0
 18 38  1  0  0  0  0
 19 20  2  0  0  0  0
 19 39  1  0  0  0  0
M  END
> <s_m_source_file>
AV-unprocessed.smi

> <i_m_source_file_index>
2089

> <i_lp_mmshare_version>
43012

> <i_f3d_flags>
0

> <s_epik_input>
W0NIM11TKD1PKSg9TylOMVtDSDJdW0NIMl1bQ0gyXVtDQEhdMUMoPU8pW05IXVtDSDJdW0NIMl1jMltjSF1bY0hdW2NIXVtjSF1uMg==

> <s_epik_cmdline>
J2VwaWtfcHl0aG9uJywgJy1waCcsICc3LjAnLCAnLXRuJywgJzgnLCAnLW1hJywgJzIwMCcsICctbWV0YWxfYmluZGluZycsICctaW1hZScsICc8aW5maWxlLm1hZT4nLCAnLW9tYWUnLCAnPG91dGZpbGUubWFlPic=

> <r_epik_Ionization_Penalty>
0.0244371

> <r_epik_Ionization_Penalty_Charging>
0

> <r_epik_Ionization_Penalty_Neutral>
0.0244371

> <r_epik_State_Penalty>
0.0198365

> <r_epik_Charging_Adjusted_Penalty>
0.0198365

> <i_epik_Tot_Q>
0

> <i_epik_Tot_abs_Q>
0

> <r_epik_Metal_State_Penalty>
0.0190441

> <b_epik_Metal_Only>
0

> <s_lp_Force_Field>
OPLS_2005

> <r_lp_Energy>
5.6995

> <b_lp_Chiralities_Consistent>
1

> <s_lp_Variant>
AV-unprocessed.smi:2089-2

> <Gold.Version>
5.8.1

> <Gold.Id.Protein>
6NUR|6NUR_protein|mol2

> <Gold.PLP.Fitness>
47.4399

> <Gold.PLP.PLP>
-44.6791

> <Gold.PLP.part.hbond>
-2.0000

> <Gold.PLP.part.metal>
0.0000

> <Gold.PLP.part.buried>
-4.8003

> <Gold.PLP.part.nonpolar>
-38.5557

> <Gold.PLP.part.repulsive>
0.0967

> <Gold.PLP.ligand.clash>
0.0000

> <Gold.PLP.ligand.torsion>
0.3358

> <Gold.PLP.Chemscore.Hbond>
1.0000

> <Gold.PLP.Chemscore.CHOScore>
0.0000

> <Gold.PLP.Chemscore.Metal>
0.0000

> <Gold.Chemscore.Hbonds>
donor molecule, donor type, donor heavy atom, donor atom, acceptor molecule, acceptor atom, score
      P1  H  6896  6907       L1     3  1.00

> <Gold.PLP.Chemscore.Internal.Correction>
0.4324

> <Gold.Rescore>
     Score         DG    S(hbond)    S(metal)    S(lipo)     H(rot)  DE(clash)    DE(int)     intcor
     14.91     -16.78       1.00        0.00     109.57       1.90       0.09       1.78       ----

> <Gold.Chemscore.Fitness>
14.9142

> <Gold.Chemscore.DG>
-16.7787

> <Gold.Chemscore.ZeroCoef>
-5.4800

> <Gold.Chemscore.Hbond>
1.0000

> <Gold.Chemscore.Metal>
0.0000

> <Gold.Chemscore.Lipo>
109.5730

> <Gold.Chemscore.Internal_Hbond>
0.0000

> <Gold.Chemscore.DEClash>
0.0871

> <Gold.Chemscore.DEInternal>
1.7774

> <Gold.Chemscore.Rot>
1.8990

> <Gold.Chemscore.Internal.Correction>
   9.000000E+99

> <Gold.Chemscore.Hbonds>
donor molecule, donor type, donor heavy atom, donor atom, acceptor molecule, acceptor atom, score
      P1  H  6896  6907       L1     3  0.98

> <Gold.Chemscore.Hbond.Weighted>
-3.3400

> <Gold.Chemscore.Metal.Weighted>
-0.0000

> <Gold.Chemscore.Lipo.Weighted>
-12.8200

> <Gold.Chemscore.Internal_Hbond.Weighted>
0.0000

> <Gold.Chemscore.DEClash.Weighted>
0.0871

> <Gold.Chemscore.DEInternal.Weighted>
1.7774

> <Gold.Chemscore.Rot.Weighted>
4.8613

> <Gold.Chemscore.Internal.Correction.Weighted>
   9.000000E+99

> <Gold.Protein.RotatedTorsions>
[ 6907 6896 6895 6894 ] final   48.41 input  -60.11 | X-H torsion
[ 7974 7965 7964 7962 ] final  147.93 input  175.53 | X-H torsion
[ 8008 7997 7996 7995 ] final   57.39 input   59.86 | X-H torsion
[ 10167 10162 10161 10158 ] final  -71.63 input  -65.29 | X-H torsion
[ 10718 10713 10712 10709 ] final  113.21 input   66.30 | X-H torsion
[ 10763 10752 10751 10750 ] final  115.23 input  -60.55 | X-H torsion
[ 11005 11000 10999 10996 ] final   14.95 input  -57.11 | X-H torsion

> <Gold.Protein.ActiveResidues>
 VAL166  LYS551  ARG553  GLY616  TRP617  ASP618  TYR619  PRO620  LYS621  CYS622 
 ASP623  PHE694  ASN695  SER759  ASP760  ASP761  ALA762  ILE779  LEU786  VAL792 
 PHE793  MET794  SER795  GLU796  ALA797  LYS798  CYS799  TRP800  GLU811  SER814 

> <Gold.Protein.RotatedAtoms>
  152.2792  134.7847  160.0399 H   0  0  0  0  0  0  0  0  0  0  0  0  # atno 6907 bound_to 6896
  151.8433  133.3422  159.3658 H   0  0  0  0  0  0  0  0  0  0  0  0  # atno 6908 bound_to 6896
  150.7183  134.5299  159.5739 H   0  0  0  0  0  0  0  0  0  0  0  0  # atno 6909 bound_to 6896
  144.8553  139.6091  143.5955 H   0  0  0  0  0  0  0  0  0  0  0  0  # atno 7974 bound_to 7965
  155.5330  140.3482  155.4430 H   0  0  0  0  0  0  0  0  0  0  0  0  # atno 8008 bound_to 7997
  156.0705  140.1362  156.9861 H   0  0  0  0  0  0  0  0  0  0  0  0  # atno 8009 bound_to 7997
  154.4526  140.0966  156.6637 H   0  0  0  0  0  0  0  0  0  0  0  0  # atno 8010 bound_to 7997
  140.5258  143.2326  151.7350 H   0  0  0  0  0  0  0  0  0  0  0  0  # atno 10167 bound_to 10162
  157.6351  131.0980  150.7007 H   0  0  0  0  0  0  0  0  0  0  0  0  # atno 10718 bound_to 10713
  153.5192  135.3601  155.2623 H   0  0  0  0  0  0  0  0  0  0  0  0  # atno 10763 bound_to 10752
  154.8736  135.4041  154.3280 H   0  0  0  0  0  0  0  0  0  0  0  0  # atno 10764 bound_to 10752
  153.3947  135.7073  153.6536 H   0  0  0  0  0  0  0  0  0  0  0  0  # atno 10765 bound_to 10752
  140.4638  134.1100  155.7721 H   0  0  0  0  0  0  0  0  0  0  0  0  # atno 11005 bound_to 11000
  146.2818  139.6896  142.9224 LP  0  0  0  0  0  0  0  0  0  0  0  0  # atno 17320 bound_to 7965
  145.4419  141.0423  143.2852 LP  0  0  0  0  0  0  0  0  0  0  0  0  # atno 17321 bound_to 7965
  139.4937  144.4188  152.0000 LP  0  0  0  0  0  0  0  0  0  0  0  0  # atno 17342 bound_to 10162
  140.3287  144.3342  150.5992 LP  0  0  0  0  0  0  0  0  0  0  0  0  # atno 17343 bound_to 10162
  156.7340  130.4718  149.5493 LP  0  0  0  0  0  0  0  0  0  0  0  0  # atno 17370 bound_to 10713
  156.1583  130.6357  151.0686 LP  0  0  0  0  0  0  0  0  0  0  0  0  # atno 17371 bound_to 10713
  141.1609  133.8795  157.1850 LP  0  0  0  0  0  0  0  0  0  0  0  0  # atno 17394 bound_to 11000
  139.9928  135.0058  157.0015 LP  0  0  0  0  0  0  0  0  0  0  0  0  # atno 17395 bound_to 11000

$$$$
