AV-unprocessed.smi:72|AV-procd|sdf|720|dock2
  -GOLD-   2262017 43D 1   1.00000     0.00000
 Structure written by MMmdl.
 28 29  0  0  0  0  0  0  0  0  2 V2000
  148.5076  136.6683  160.9163 N   0  0  0  0  0  0  0  0  0  0  0  0
  148.6180  136.7597  159.6640 C   0  0  0  0  0  0  0  0  0  0  0  0
  147.9400  137.8192  158.9508 N   0  0  0  0  0  0  0  0  0  0  0  0
  148.1115  137.8905  157.6666 C   0  0  0  0  0  0  0  0  0  0  0  0
  148.9756  136.9582  156.9498 N   0  0  0  0  0  0  0  0  0  0  0  0
  149.1804  137.0221  155.4426 C   0  0  1  0  0  0  0  0  0  0  0  0
  148.3747  138.0179  154.8824 O   0  0  0  0  0  0  0  0  0  0  0  0
  149.1432  139.1992  154.7105 C   0  0  2  0  0  0  0  0  0  0  0  0
  148.4480  140.1703  153.7396 C   0  0  0  0  0  0  0  0  0  0  0  0
  149.2441  141.3013  153.4511 O   0  0  0  0  0  0  0  0  0  0  0  0
  150.5336  138.6925  154.3207 C   0  0  1  0  0  0  0  0  0  0  0  0
  151.5242  139.6079  154.7447 O   0  0  0  0  0  0  0  0  0  0  0  0
  150.6468  137.3773  155.0918 C   0  0  2  0  0  0  0  0  0  0  0  0
  151.2392  136.3859  154.2777 O   0  0  0  0  0  0  0  0  0  0  0  0
  149.5832  135.8956  157.6730 C   0  0  0  0  0  0  0  0  0  0  0  0
  150.2576  135.0784  157.0454 O   0  0  0  0  0  0  0  0  0  0  0  0
  149.3943  135.8229  159.0199 N   0  5  0  0  0  0  0  0  0  0  0  0
  148.8525  136.0464  155.0791 H   0  0  0  0  0  0  0  0  0  0  0  0
  149.2032  139.6827  155.6870 H   0  0  0  0  0  0  0  0  0  0  0  0
  150.6093  138.5197  153.2466 H   0  0  0  0  0  0  0  0  0  0  0  0
  151.2310  137.5017  156.0054 H   0  0  0  0  0  0  0  0  0  0  0  0
  149.0261  135.8868  161.2907 H   0  0  0  0  0  0  0  0  0  0  0  0
  147.6182  138.6471  157.0574 H   0  0  0  0  0  0  0  0  0  0  0  0
  148.1880  139.6607  152.8115 H   0  0  0  0  0  0  0  0  0  0  0  0
  147.5162  140.5235  154.1813 H   0  0  0  0  0  0  0  0  0  0  0  0
  149.7906  141.4832  154.2002 H   0  0  0  0  0  0  0  0  0  0  0  0
  151.9801  139.2304  155.4815 H   0  0  0  0  0  0  0  0  0  0  0  0
  151.0360  136.5860  153.3760 H   0  0  0  0  0  0  0  0  0  0  0  0
  1  2  2  0  0  0  0
  1 22  1  0  0  0  0
  2 17  1  0  0  0  0
  2  3  1  0  0  0  0
  3  4  2  0  0  0  0
  4  5  1  0  0  0  0
  4 23  1  0  0  0  0
  5  6  1  0  0  0  0
  5 15  1  0  0  0  0
  6 18  1  0  0  0  0
  6 13  1  0  0  0  0
  6  7  1  0  0  0  0
  7  8  1  0  0  0  0
  8 19  1  0  0  0  0
  8  9  1  0  0  0  0
  8 11  1  0  0  0  0
  9 10  1  0  0  0  0
  9 24  1  0  0  0  0
  9 25  1  0  0  0  0
 10 26  1  0  0  0  0
 11 20  1  0  0  0  0
 11 12  1  0  0  0  0
 11 13  1  0  0  0  0
 12 27  1  0  0  0  0
 13 21  1  0  0  0  0
 13 14  1  0  0  0  0
 14 28  1  0  0  0  0
 15 16  2  0  0  0  0
 15 17  1  0  0  0  0
M  CHG  1  17  -1
M  END
> <s_m_source_file>
AV-unprocessed.smi

> <i_m_source_file_index>
72

> <i_lp_mmshare_version>
43012

> <i_f3d_flags>
0

> <s_epik_input>
W05IMl1jMW5bY0hdbihjKD1PKW4xKVtDQEBIXTJPW0NASF0oW0NIMl1bT0hdKVtDQEBIXShbT0hdKVtDQEhdMltPSF0=

> <s_epik_cmdline>
J2VwaWtfcHl0aG9uJywgJy1waCcsICc3LjAnLCAnLXRuJywgJzgnLCAnLW1hJywgJzIwMCcsICctbWV0YWxfYmluZGluZycsICctaW1hZScsICc8aW5maWxlLm1hZT4nLCAnLW9tYWUnLCAnPG91dGZpbGUubWFlPic=

> <r_lp_tautomer_probability>
7.17554e-07

> <r_epik_Ionization_Penalty>
12.8705

> <r_epik_Ionization_Penalty_Charging>
5.64144

> <r_epik_Ionization_Penalty_Neutral>
7.22905

> <r_epik_State_Penalty>
3.30104

> <r_epik_Charging_Adjusted_Penalty>
8.94249

> <i_epik_Tot_Q>
-1

> <i_epik_Tot_abs_Q>
1

> <r_epik_Metal_State_Penalty>
0.529074

> <b_epik_Metal_Only>
1

> <s_epik_Chemistry_Notes>
This compound contains an acetal/aminal-like group ( X-CH(R)-Y where X, Y are N, S, or O) that may be acid/base labile, releasing an aldehyde.

> <s_lp_Force_Field>
OPLS_2005

> <r_lp_Energy>
31.8888

> <b_lp_Chiralities_Consistent>
1

> <s_lp_Variant>
AV-unprocessed.smi:72-58

> <Gold.Version>
5.8.1

> <Gold.Id.Protein>
6NUR|6NUR_protein|mol2

> <Gold.PLP.Fitness>
44.1518

> <Gold.PLP.PLP>
-23.3363

> <Gold.PLP.part.hbond>
-9.4392

> <Gold.PLP.part.metal>
0.0000

> <Gold.PLP.part.buried>
-3.1798

> <Gold.PLP.part.nonpolar>
-11.5578

> <Gold.PLP.part.repulsive>
0.1073

> <Gold.PLP.ligand.clash>
0.0000

> <Gold.PLP.ligand.torsion>
0.1022

> <Gold.PLP.Chemscore.Hbond>
7.0001

> <Gold.PLP.Chemscore.CHOScore>
0.0000

> <Gold.PLP.Chemscore.Metal>
0.0000

> <Gold.Chemscore.Hbonds>
donor molecule, donor type, donor heavy atom, donor atom, acceptor molecule, acceptor atom, score
      L1  H    14    28       P1  7949  0.91
      P1  H  6896  6907       L1    17  2.00
      P1  H  6931  6943       L1     1  1.00
      P1  H  6934  6947       L1     3  0.02
      P1  H  7989  7998       L1    12  1.00
      P1  H  8011  8017       L1    10  0.98
      P1  H 10752 10765       L1    14  1.00

> <Gold.PLP.Chemscore.Internal.Correction>
0.0198

> <Gold.Rescore>
     Score         DG    S(hbond)    S(metal)    S(lipo)     H(rot)  DE(clash)    DE(int)     intcor
      9.74     -10.38       3.67        0.00      25.61       4.04       0.41       0.23       ----

> <Gold.Chemscore.Fitness>
9.7417

> <Gold.Chemscore.DG>
-10.3758

> <Gold.Chemscore.ZeroCoef>
-5.4800

> <Gold.Chemscore.Hbond>
3.6653

> <Gold.Chemscore.Metal>
0.0000

> <Gold.Chemscore.Lipo>
25.6121

> <Gold.Chemscore.Internal_Hbond>
0.0000

> <Gold.Chemscore.DEClash>
0.4087

> <Gold.Chemscore.DEInternal>
0.2253

> <Gold.Chemscore.Rot>
4.0403

> <Gold.Chemscore.Internal.Correction>
   9.000000E+99

> <Gold.Chemscore.Hbonds>
donor molecule, donor type, donor heavy atom, donor atom, acceptor molecule, acceptor atom, score
      L1  H    14    28       P1  7949  0.26
      P1  H  6896  6907       L1    17  0.40
      P1  H  6931  6943       L1     1  0.53
      P1  H  6934  6947       L1     3  0.01
      P1  H  7989  7998       L1    12  0.60
      P1  H  8011  8017       L1    10  0.32
      P1  H 10752 10765       L1    14  0.40

> <Gold.Chemscore.Hbond.Weighted>
-12.2423

> <Gold.Chemscore.Metal.Weighted>
-0.0000

> <Gold.Chemscore.Lipo.Weighted>
-2.9966

> <Gold.Chemscore.Internal_Hbond.Weighted>
0.0000

> <Gold.Chemscore.DEClash.Weighted>
0.4087

> <Gold.Chemscore.DEInternal.Weighted>
0.2253

> <Gold.Chemscore.Rot.Weighted>
10.3431

> <Gold.Chemscore.Internal.Correction.Weighted>
   9.000000E+99

> <Gold.Protein.RotatedTorsions>
[ 6907 6896 6895 6894 ] final  -72.09 input  -60.11 | X-H torsion
[ 7974 7965 7964 7962 ] final   33.08 input  175.53 | X-H torsion
[ 8008 7997 7996 7995 ] final   63.60 input   59.86 | X-H torsion
[ 10167 10162 10161 10158 ] final  170.11 input  -65.29 | X-H torsion
[ 10718 10713 10712 10709 ] final  -29.53 input   66.30 | X-H torsion
[ 10763 10752 10751 10750 ] final  155.13 input  -60.55 | X-H torsion
[ 11005 11000 10999 10996 ] final   94.59 input  -57.11 | X-H torsion

> <Gold.Protein.ActiveResidues>
 VAL166  LYS551  ARG553  GLY616  TRP617  ASP618  TYR619  PRO620  LYS621  CYS622 
 ASP623  PHE694  ASN695  SER759  ASP760  ASP761  ALA762  ILE779  LEU786  VAL792 
 PHE793  MET794  SER795  GLU796  ALA797  LYS798  CYS799  TRP800  GLU811  SER814 

> <Gold.Protein.RotatedAtoms>
  150.7184  134.5213  159.5654 H   0  0  0  0  0  0  0  0  0  0  0  0  # atno 6907 bound_to 6896
  152.2767  134.7870  160.0413 H   0  0  0  0  0  0  0  0  0  0  0  0  # atno 6908 bound_to 6896
  151.8531  133.3408  159.3716 H   0  0  0  0  0  0  0  0  0  0  0  0  # atno 6909 bound_to 6896
  146.1444  139.6443  142.9141 H   0  0  0  0  0  0  0  0  0  0  0  0  # atno 7974 bound_to 7965
  155.6328  140.3496  155.4688 H   0  0  0  0  0  0  0  0  0  0  0  0  # atno 8008 bound_to 7997
  155.9990  140.1209  157.0590 H   0  0  0  0  0  0  0  0  0  0  0  0  # atno 8009 bound_to 7997
  154.4242  140.1104  156.5656 H   0  0  0  0  0  0  0  0  0  0  0  0  # atno 8010 bound_to 7997
  139.5010  144.3633  151.9802 H   0  0  0  0  0  0  0  0  0  0  0  0  # atno 10167 bound_to 10162
  156.4113  130.4408  149.7250 H   0  0  0  0  0  0  0  0  0  0  0  0  # atno 10718 bound_to 10713
  154.1634  135.2808  155.3102 H   0  0  0  0  0  0  0  0  0  0  0  0  # atno 10763 bound_to 10752
  154.6129  135.5492  153.7496 H   0  0  0  0  0  0  0  0  0  0  0  0  # atno 10764 bound_to 10752
  153.0185  135.6420  154.1776 H   0  0  0  0  0  0  0  0  0  0  0  0  # atno 10765 bound_to 10752
  139.8797  134.8853  156.3886 H   0  0  0  0  0  0  0  0  0  0  0  0  # atno 11005 bound_to 11000
  145.4971  141.0438  143.2561 LP  0  0  0  0  0  0  0  0  0  0  0  0  # atno 17320 bound_to 7965
  144.7829  139.6487  143.7146 LP  0  0  0  0  0  0  0  0  0  0  0  0  # atno 17321 bound_to 7965
  140.3069  144.3583  150.6044 LP  0  0  0  0  0  0  0  0  0  0  0  0  # atno 17342 bound_to 10162
  140.5829  143.2171  151.7395 LP  0  0  0  0  0  0  0  0  0  0  0  0  # atno 17343 bound_to 10162
  156.4227  130.7777  151.2794 LP  0  0  0  0  0  0  0  0  0  0  0  0  # atno 17370 bound_to 10713
  157.7507  131.0178  150.3599 LP  0  0  0  0  0  0  0  0  0  0  0  0  # atno 17371 bound_to 10713
  140.9349  133.7554  156.0071 LP  0  0  0  0  0  0  0  0  0  0  0  0  # atno 17394 bound_to 11000
  140.8288  134.3203  157.5356 LP  0  0  0  0  0  0  0  0  0  0  0  0  # atno 17395 bound_to 11000

$$$$
