AV-unprocessed.smi:35|AV-procd|sdf|262|dock1
  -GOLD-   2262016 23D 1   1.00000     0.00000
 Structure written by MMmdl.
 29 30  0  0  0  0  0  0  0  0  1 V2000
  151.5654  136.5338  159.3886 O   0  0  0  0  0  0  0  0  0  0  0  0
  151.2471  137.3612  158.5375 C   0  0  0  0  0  0  0  0  0  0  0  0
  152.2273  138.0039  157.7769 N   0  0  0  0  0  0  0  0  0  0  0  0
  151.9886  138.9614  156.7895 C   0  0  0  0  0  0  0  0  0  0  0  0
  152.9313  139.4514  156.1687 O   0  0  0  0  0  0  0  0  0  0  0  0
  150.6446  139.3274  156.5487 N   0  0  0  0  0  0  0  0  0  0  0  0
  150.3671  140.3560  155.4654 C   0  0  1  0  0  0  0  0  0  0  0  0
  149.5439  139.7932  154.4865 O   0  0  0  0  0  0  0  0  0  0  0  0
  148.1880  140.1470  154.7401 C   0  0  2  0  0  0  0  0  0  0  0  0
  147.3041  139.8993  153.5059 C   0  0  0  0  0  0  0  0  0  0  0  0
  147.7678  138.7659  152.8035 O   0  0  0  0  0  0  0  0  0  0  0  0
  148.3262  141.6067  155.1817 C   0  0  2  0  0  0  0  0  0  0  0  0
  148.4527  142.4573  154.0532 O   0  0  0  0  0  0  0  0  0  0  0  0
  149.5928  141.5669  156.0370 C   0  0  2  0  0  0  0  0  0  0  0  0
  150.3215  142.7800  155.9877 O   0  0  0  0  0  0  0  0  0  0  0  0
  149.6337  138.6919  157.2637 C   0  0  0  0  0  0  0  0  0  0  0  0
  149.8824  137.7613  158.2153 C   0  0  0  0  0  0  0  0  0  0  0  0
  148.3047  136.9797  159.1236 Br  0  0  0  0  0  0  0  0  0  0  0  0
  153.1885  137.7502  157.9534 H   0  0  0  0  0  0  0  0  0  0  0  0
  151.3414  140.5943  155.0341 H   0  0  0  0  0  0  0  0  0  0  0  0
  147.8124  139.5714  155.5884 H   0  0  0  0  0  0  0  0  0  0  0  0
  146.2779  139.6962  153.8134 H   0  0  0  0  0  0  0  0  0  0  0  0
  147.2825  140.7688  152.8483 H   0  0  0  0  0  0  0  0  0  0  0  0
  148.4005  139.0491  152.1613 H   0  0  0  0  0  0  0  0  0  0  0  0
  147.4622  141.9369  155.7596 H   0  0  0  0  0  0  0  0  0  0  0  0
  148.5441  143.3465  154.3610 H   0  0  0  0  0  0  0  0  0  0  0  0
  149.3132  141.3627  157.0718 H   0  0  0  0  0  0  0  0  0  0  0  0
  149.7091  143.4972  156.0542 H   0  0  0  0  0  0  0  0  0  0  0  0
  148.5976  138.9262  157.0728 H   0  0  0  0  0  0  0  0  0  0  0  0
  1  2  2  0  0  0  0
  2 17  1  0  0  0  0
  2  3  1  0  0  0  0
  3 19  1  0  0  0  0
  3  4  1  0  0  0  0
  4  5  2  0  0  0  0
  4  6  1  0  0  0  0
  6  7  1  0  0  0  0
  6 16  1  0  0  0  0
  7 14  1  0  0  0  0
  7  8  1  0  0  0  0
  7 20  1  0  0  0  0
  8  9  1  0  0  0  0
  9 10  1  0  0  0  0
  9 12  1  0  0  0  0
  9 21  1  0  0  0  0
 10 11  1  0  0  0  0
 10 22  1  0  0  0  0
 10 23  1  0  0  0  0
 11 24  1  0  0  0  0
 12 13  1  0  0  0  0
 12 14  1  0  0  0  0
 12 25  1  0  0  0  0
 13 26  1  0  0  0  0
 14 15  1  0  0  0  0
 14 27  1  0  0  0  0
 15 28  1  0  0  0  0
 16 17  2  0  0  0  0
 16 29  1  0  0  0  0
 17 18  1  0  0  0  0
M  END
> <s_m_source_file>
AV-unprocessed.smi

> <i_m_source_file_index>
35

> <i_lp_mmshare_version>
43012

> <i_f3d_flags>
0

> <s_epik_input>
Tz1jMVtuSF1jKD1PKW4oW2NIXWMxQnIpW0NAQEhdMk9bQ0BASF0oW0NIMl1bT0hdKVtDQEBIXShbT0hdKVtDQEhdMltPSF0=

> <s_epik_cmdline>
J2VwaWtfcHl0aG9uJywgJy1waCcsICc3LjAnLCAnLXRuJywgJzgnLCAnLW1hJywgJzIwMCcsICctbWV0YWxfYmluZGluZycsICctaW1hZScsICc8aW5maWxlLm1hZT4nLCAnLW9tYWUnLCAnPG91dGZpbGUubWFlPic=

> <r_lp_tautomer_probability>
0.999537

> <r_epik_Ionization_Penalty>
0.10812

> <r_epik_Ionization_Penalty_Charging>
0.108119

> <r_epik_Ionization_Penalty_Neutral>
4.93006e-07

> <r_epik_State_Penalty>
0.0979238

> <r_epik_Charging_Adjusted_Penalty>
0.206043

> <i_epik_Tot_Q>
0

> <i_epik_Tot_abs_Q>
0

> <r_epik_Metal_State_Penalty>
3.07911

> <b_epik_Metal_Only>
0

> <s_epik_Chemistry_Notes>
This compound contains an acetal/aminal-like group ( X-CH(R)-Y where X, Y are N, S, or O) that may be acid/base labile, releasing an aldehyde.

> <s_lp_Force_Field>
OPLS_2005

> <r_lp_Energy>
32.933

> <b_lp_Chiralities_Consistent>
1

> <s_lp_Variant>
AV-unprocessed.smi:35-16

> <Gold.Version>
5.8.1

> <Gold.Id.Protein>
6NUR|6NUR_protein|mol2

> <Gold.PLP.Fitness>
38.3491

> <Gold.PLP.PLP>
-23.8131

> <Gold.PLP.part.hbond>
-6.4827

> <Gold.PLP.part.metal>
0.0000

> <Gold.PLP.part.buried>
-3.3610

> <Gold.PLP.part.nonpolar>
-14.6709

> <Gold.PLP.part.repulsive>
0.2103

> <Gold.PLP.ligand.clash>
0.0000

> <Gold.PLP.ligand.torsion>
0.3470

> <Gold.PLP.Chemscore.Hbond>
5.0680

> <Gold.PLP.Chemscore.CHOScore>
0.0000

> <Gold.PLP.Chemscore.Metal>
0.0000

> <Gold.Chemscore.Hbonds>
donor molecule, donor type, donor heavy atom, donor atom, acceptor molecule, acceptor atom, score
      L1  H    11    24       P1  7957  1.00
      L1  H    13    26       P1  8028  1.00
      L1  H    15    28       P1  8028  0.99
      P1  H  6896  6908       L1     1  0.93
      P1  H  7997  8010       L1     5  0.94
      P1  H  8011  8017       L1    13  0.12

> <Gold.PLP.Chemscore.Internal.Correction>
0.0259

> <Gold.Rescore>
     Score         DG    S(hbond)    S(metal)    S(lipo)     H(rot)  DE(clash)    DE(int)     intcor
     15.70     -16.17       4.86        0.00      32.80       3.67       0.04       0.43       ----

> <Gold.Chemscore.Fitness>
15.7027

> <Gold.Chemscore.DG>
-16.1671

> <Gold.Chemscore.ZeroCoef>
-5.4800

> <Gold.Chemscore.Hbond>
4.8638

> <Gold.Chemscore.Metal>
0.0000

> <Gold.Chemscore.Lipo>
32.7988

> <Gold.Chemscore.Internal_Hbond>
0.0000

> <Gold.Chemscore.DEClash>
0.0383

> <Gold.Chemscore.DEInternal>
0.4261

> <Gold.Chemscore.Rot>
3.6701

> <Gold.Chemscore.Internal.Correction>
   9.000000E+99

> <Gold.Chemscore.Hbonds>
donor molecule, donor type, donor heavy atom, donor atom, acceptor molecule, acceptor atom, score
      L1  H    11    24       P1  7957  0.99
      L1  H    13    26       P1  8028  0.99
      L1  H    15    28       P1  8028  0.92
      P1  H  6896  6908       L1     1  0.84
      P1  H  7997  8010       L1     5  0.91
      P1  H  8011  8017       L1    13  0.03

> <Gold.Chemscore.Hbond.Weighted>
-16.2451

> <Gold.Chemscore.Metal.Weighted>
-0.0000

> <Gold.Chemscore.Lipo.Weighted>
-3.8375

> <Gold.Chemscore.Internal_Hbond.Weighted>
0.0000

> <Gold.Chemscore.DEClash.Weighted>
0.0383

> <Gold.Chemscore.DEInternal.Weighted>
0.4261

> <Gold.Chemscore.Rot.Weighted>
9.3955

> <Gold.Chemscore.Internal.Correction.Weighted>
   9.000000E+99

> <Gold.Protein.RotatedTorsions>
[ 6907 6896 6895 6894 ] final -114.45 input  -60.11 | X-H torsion
[ 7974 7965 7964 7962 ] final  -94.72 input  175.53 | X-H torsion
[ 8008 7997 7996 7995 ] final  100.34 input   59.86 | X-H torsion
[ 10167 10162 10161 10158 ] final  -61.88 input  -65.29 | X-H torsion
[ 10718 10713 10712 10709 ] final  -70.21 input   66.30 | X-H torsion
[ 10763 10752 10751 10750 ] final   65.01 input  -60.55 | X-H torsion
[ 11005 11000 10999 10996 ] final   62.09 input  -57.11 | X-H torsion

> <Gold.Protein.ActiveResidues>
 VAL166  LYS551  ARG553  GLY616  TRP617  ASP618  TYR619  PRO620  LYS621  CYS622 
 ASP623  PHE694  ASN695  SER759  ASP760  ASP761  ALA762  ILE779  LEU786  VAL792 
 PHE793  MET794  SER795  GLU796  ALA797  LYS798  CYS799  TRP800  GLU811  SER814 

> <Gold.Protein.RotatedAtoms>
  150.7903  133.8799  159.3282 H   0  0  0  0  0  0  0  0  0  0  0  0  # atno 6907 bound_to 6896
  151.6638  135.0984  160.0194 H   0  0  0  0  0  0  0  0  0  0  0  0  # atno 6908 bound_to 6896
  152.3976  133.6731  159.6324 H   0  0  0  0  0  0  0  0  0  0  0  0  # atno 6909 bound_to 6896
  145.3695  140.9503  143.2455 H   0  0  0  0  0  0  0  0  0  0  0  0  # atno 7974 bound_to 7965
  156.1193  140.3215  155.8185 H   0  0  0  0  0  0  0  0  0  0  0  0  # atno 8008 bound_to 7997
  155.4533  140.0534  157.3016 H   0  0  0  0  0  0  0  0  0  0  0  0  # atno 8009 bound_to 7997
  154.4816  140.2055  155.9765 H   0  0  0  0  0  0  0  0  0  0  0  0  # atno 8010 bound_to 7997
  140.5976  143.2354  151.6000 H   0  0  0  0  0  0  0  0  0  0  0  0  # atno 10167 bound_to 10162
  156.0418  130.4327  150.2262 H   0  0  0  0  0  0  0  0  0  0  0  0  # atno 10718 bound_to 10713
  153.0079  135.5372  154.6600 H   0  0  0  0  0  0  0  0  0  0  0  0  # atno 10763 bound_to 10752
  154.5811  135.2850  155.0733 H   0  0  0  0  0  0  0  0  0  0  0  0  # atno 10764 bound_to 10752
  154.1862  135.6508  153.5100 H   0  0  0  0  0  0  0  0  0  0  0  0  # atno 10765 bound_to 10752
  140.0116  134.6287  155.9772 H   0  0  0  0  0  0  0  0  0  0  0  0  # atno 11005 bound_to 11000
  144.8586  139.5211  143.6822 LP  0  0  0  0  0  0  0  0  0  0  0  0  # atno 17320 bound_to 7965
  146.2891  139.7089  142.9174 LP  0  0  0  0  0  0  0  0  0  0  0  0  # atno 17321 bound_to 7965
  139.5269  144.3033  152.1055 LP  0  0  0  0  0  0  0  0  0  0  0  0  # atno 17342 bound_to 10162
  140.2208  144.4468  150.6343 LP  0  0  0  0  0  0  0  0  0  0  0  0  # atno 17343 bound_to 10162
  157.0356  131.0020  151.3299 LP  0  0  0  0  0  0  0  0  0  0  0  0  # atno 17370 bound_to 10713
  157.5246  130.8019  149.7847 LP  0  0  0  0  0  0  0  0  0  0  0  0  # atno 17371 bound_to 10713
  141.1715  133.6537  156.4669 LP  0  0  0  0  0  0  0  0  0  0  0  0  # atno 17394 bound_to 11000
  140.4544  134.6899  157.5055 LP  0  0  0  0  0  0  0  0  0  0  0  0  # atno 17395 bound_to 11000

$$$$
