AV-unprocessed.smi:2812|AV-procd|sdf|10835|dock9
  -GOLD-   2272015273D 1   1.00000     0.00000
 Structure written by MMmdl.
 55 56  0  0  0  0  0  0  0  0  2 V2000
  146.9461  132.5391  159.4999 C   0  0  0  0  0  0  0  0  0  0  0  0
  147.0943  133.7061  160.4634 C   0  0  0  0  0  0  0  0  0  0  0  0
  147.0848  133.4502  161.8888 C   0  0  0  0  0  0  0  0  0  0  0  0
  147.1990  134.4757  162.7432 C   0  0  0  0  0  0  0  0  0  0  0  0
  147.3428  135.7964  162.2941 N   0  0  0  0  0  0  0  0  0  0  0  0
  147.4783  136.8456  163.3080 C   0  0  0  0  0  0  0  0  0  0  0  0
  147.3919  136.1146  160.9684 C   0  0  0  0  0  0  0  0  0  0  0  0
  147.5913  137.2757  160.6038 O   0  0  0  0  0  0  0  0  0  0  0  0
  147.2116  134.9863  160.0230 C   0  0  0  0  0  0  0  0  0  0  0  0
  147.2345  135.2286  158.6409 N   0  0  0  0  0  0  0  0  0  0  0  0
  148.1981  135.8829  157.9693 C   0  0  0  0  0  0  0  0  0  0  0  0
  149.2306  136.3282  158.4722 O   0  0  0  0  0  0  0  0  0  0  0  0
  147.8793  136.0316  156.6757 N   0  0  0  0  0  0  0  0  0  0  0  0
  148.6897  136.7421  155.6897 C   0  0  0  0  0  0  0  0  0  0  0  0
  147.8760  137.7660  154.8444 C   0  0  2  0  0  0  0  0  0  0  0  0
  146.6086  137.0847  154.2637 C   0  0  0  0  0  0  0  0  0  0  0  0
  145.7567  138.0465  153.4342 C   0  0  0  0  0  0  0  0  0  0  0  0
  146.6164  138.6582  152.3320 C   0  0  0  0  0  0  0  0  0  0  0  0
  147.8472  139.3449  152.9354 C   0  0  0  0  0  0  0  0  0  0  0  0
  148.6786  138.4044  153.7437 N   0  3  1  0  0  0  0  0  0  0  0  0
  149.9526  139.0456  154.1920 C   0  0  0  0  0  0  0  0  0  0  0  0
  149.7665  140.2024  155.2039 C   0  0  0  0  0  0  0  0  0  0  0  0
  149.2291  141.4772  154.5315 C   0  0  0  0  0  0  0  0  0  0  0  0
  151.0896  140.4986  155.9262 C   0  0  0  0  0  0  0  0  0  0  0  0
  146.8524  131.5942  160.0358 H   0  0  0  0  0  0  0  0  0  0  0  0
  147.8150  132.4689  158.8451 H   0  0  0  0  0  0  0  0  0  0  0  0
  146.0559  132.6646  158.8827 H   0  0  0  0  0  0  0  0  0  0  0  0
  146.9801  132.4435  162.2663 H   0  0  0  0  0  0  0  0  0  0  0  0
  147.1968  134.3470  163.8158 H   0  0  0  0  0  0  0  0  0  0  0  0
  146.7638  137.6512  163.1315 H   0  0  0  0  0  0  0  0  0  0  0  0
  148.4831  137.2695  163.2832 H   0  0  0  0  0  0  0  0  0  0  0  0
  147.3013  136.4778  164.3193 H   0  0  0  0  0  0  0  0  0  0  0  0
  146.3829  135.0141  158.1431 H   0  0  0  0  0  0  0  0  0  0  0  0
  147.0087  135.6358  156.3516 H   0  0  0  0  0  0  0  0  0  0  0  0
  149.4933  137.2176  156.2499 H   0  0  0  0  0  0  0  0  0  0  0  0
  149.1543  136.0025  155.0371 H   0  0  0  0  0  0  0  0  0  0  0  0
  147.5529  138.5711  155.5064 H   0  0  0  0  0  0  0  0  0  0  0  0
  146.9007  136.2336  153.6468 H   0  0  0  0  0  0  0  0  0  0  0  0
  145.9812  136.6834  155.0596 H   0  0  0  0  0  0  0  0  0  0  0  0
  144.9045  137.5213  153.0020 H   0  0  0  0  0  0  0  0  0  0  0  0
  145.3523  138.8327  154.0733 H   0  0  0  0  0  0  0  0  0  0  0  0
  146.9299  137.8843  151.6298 H   0  0  0  0  0  0  0  0  0  0  0  0
  146.0303  139.3782  151.7601 H   0  0  0  0  0  0  0  0  0  0  0  0
  148.4172  139.7617  152.1082 H   0  0  0  0  0  0  0  0  0  0  0  0
  147.5390  140.1856  153.5592 H   0  0  0  0  0  0  0  0  0  0  0  0
  150.6099  138.2793  154.6062 H   0  0  0  0  0  0  0  0  0  0  0  0
  150.4857  139.4822  153.3531 H   0  0  0  0  0  0  0  0  0  0  0  0
  149.0639  139.9070  155.9811 H   0  0  0  0  0  0  0  0  0  0  0  0
  149.8984  141.8222  153.7425 H   0  0  0  0  0  0  0  0  0  0  0  0
  149.1240  142.2869  155.2543 H   0  0  0  0  0  0  0  0  0  0  0  0
  148.2472  141.3127  154.0875 H   0  0  0  0  0  0  0  0  0  0  0  0
  151.8600  140.8276  155.2277 H   0  0  0  0  0  0  0  0  0  0  0  0
  151.4638  139.6134  156.4414 H   0  0  0  0  0  0  0  0  0  0  0  0
  150.9637  141.2830  156.6734 H   0  0  0  0  0  0  0  0  0  0  0  0
  148.9475  137.6526  153.1254 H   0  0  0  0  0  0  0  0  0  0  0  0
  1  2  1  0  0  0  0
  1 25  1  0  0  0  0
  1 26  1  0  0  0  0
  1 27  1  0  0  0  0
  2  9  2  0  0  0  0
  2  3  1  0  0  0  0
  3  4  2  0  0  0  0
  3 28  1  0  0  0  0
  4  5  1  0  0  0  0
  4 29  1  0  0  0  0
  5  6  1  0  0  0  0
  5  7  1  0  0  0  0
  6 30  1  0  0  0  0
  6 31  1  0  0  0  0
  6 32  1  0  0  0  0
  7  8  2  0  0  0  0
  7  9  1  0  0  0  0
  9 10  1  0  0  0  0
 10 11  1  0  0  0  0
 10 33  1  0  0  0  0
 11 12  2  0  0  0  0
 11 13  1  0  0  0  0
 13 14  1  0  0  0  0
 13 34  1  0  0  0  0
 14 15  1  0  0  0  0
 14 35  1  0  0  0  0
 14 36  1  0  0  0  0
 15 20  1  0  0  0  0
 15 16  1  0  0  0  0
 15 37  1  0  0  0  0
 16 17  1  0  0  0  0
 16 38  1  0  0  0  0
 16 39  1  0  0  0  0
 17 18  1  0  0  0  0
 17 40  1  0  0  0  0
 17 41  1  0  0  0  0
 18 19  1  0  0  0  0
 18 42  1  0  0  0  0
 18 43  1  0  0  0  0
 19 20  1  0  0  0  0
 19 44  1  0  0  0  0
 19 45  1  0  0  0  0
 20 21  1  0  0  0  0
 20 55  1  0  0  0  0
 21 22  1  0  0  0  0
 21 46  1  0  0  0  0
 21 47  1  0  0  0  0
 22 23  1  0  0  0  0
 22 24  1  0  0  0  0
 22 48  1  0  0  0  0
 23 49  1  0  0  0  0
 23 50  1  0  0  0  0
 23 51  1  0  0  0  0
 24 52  1  0  0  0  0
 24 53  1  0  0  0  0
 24 54  1  0  0  0  0
M  CHG  1  20   1
M  END
> <s_m_source_file>
AV-unprocessed.smi

> <i_m_source_file_index>
2812

> <i_lp_mmshare_version>
43012

> <i_f3d_flags>
0

> <s_epik_input>
W0NIM11jMVtjSF1bY0hdbihbQ0gzXSljKD1PKWMxW05IXUMoPU8pW05IXVtDSDJdW0NAQEhdMltDSDJdW0NIMl1bQ0gyXVtDSDJdTjJbQ0gyXVtDSF0oW0NIM10pW0NIM10=

> <s_epik_cmdline>
J2VwaWtfcHl0aG9uJywgJy1waCcsICc3LjAnLCAnLXRuJywgJzgnLCAnLW1hJywgJzIwMCcsICctbWV0YWxfYmluZGluZycsICctaW1hZScsICc8aW5maWxlLm1hZT4nLCAnLW9tYWUnLCAnPG91dGZpbGUubWFlPic=

> <r_lp_tautomer_probability>
1

> <r_epik_Ionization_Penalty>
0.0010902

> <r_epik_Ionization_Penalty_Charging>
0.00107091

> <r_epik_Ionization_Penalty_Neutral>
1.92854e-05

> <r_epik_State_Penalty>
0.000697184

> <r_epik_Charging_Adjusted_Penalty>
0.0017681

> <i_epik_Tot_Q>
1

> <i_epik_Tot_abs_Q>
1

> <r_epik_Metal_State_Penalty>
-0

> <b_epik_Metal_Only>
0

> <s_lp_Force_Field>
OPLS_2005

> <r_lp_Energy>
39.8559

> <b_lp_Chiralities_Consistent>
1

> <s_lp_Variant>
AV-unprocessed.smi:2812-3

> <Gold.Version>
5.8.1

> <Gold.Id.Protein>
6NUR|6NUR_protein|mol2

> <Gold.PLP.Fitness>
51.3096

> <Gold.PLP.PLP>
-41.1031

> <Gold.PLP.part.hbond>
-3.3235

> <Gold.PLP.part.metal>
0.0000

> <Gold.PLP.part.buried>
1.4893

> <Gold.PLP.part.nonpolar>
-38.9031

> <Gold.PLP.part.repulsive>
0.0505

> <Gold.PLP.ligand.clash>
0.0000

> <Gold.PLP.ligand.torsion>
0.7129

> <Gold.PLP.Chemscore.Hbond>
3.6254

> <Gold.PLP.Chemscore.CHOScore>
0.0000

> <Gold.PLP.Chemscore.Metal>
0.0000

> <Gold.Chemscore.Hbonds>
donor molecule, donor type, donor heavy atom, donor atom, acceptor molecule, acceptor atom, score
      L1  H    20    55       P1  7948  2.00
      P1  H  6931  6943       L1     8  0.48
      P1  H  6934  6947       L1     8  0.98

> <Gold.PLP.Chemscore.Internal.Correction>
0.7560

> <Gold.Rescore>
     Score         DG    S(hbond)    S(metal)    S(lipo)     H(rot)  DE(clash)    DE(int)     intcor
     18.31     -23.19       3.20        0.00      93.36       1.52       1.15       3.74       ----

> <Gold.Chemscore.Fitness>
18.3101

> <Gold.Chemscore.DG>
-23.1942

> <Gold.Chemscore.ZeroCoef>
-5.4800

> <Gold.Chemscore.Hbond>
3.1951

> <Gold.Chemscore.Metal>
0.0000

> <Gold.Chemscore.Lipo>
93.3570

> <Gold.Chemscore.Internal_Hbond>
0.0000

> <Gold.Chemscore.DEClash>
1.1489

> <Gold.Chemscore.DEInternal>
3.7352

> <Gold.Chemscore.Rot>
1.5157

> <Gold.Chemscore.Internal.Correction>
   9.000000E+99

> <Gold.Chemscore.Hbonds>
donor molecule, donor type, donor heavy atom, donor atom, acceptor molecule, acceptor atom, score
      L1  H    20    55       P1  7948  1.00
      P1  H  6896  6908       L1    12  0.01
      P1  H  6931  6943       L1     8  0.37
      P1  H  6934  6947       L1     8  0.93

> <Gold.Chemscore.Hbond.Weighted>
-10.6717

> <Gold.Chemscore.Metal.Weighted>
-0.0000

> <Gold.Chemscore.Lipo.Weighted>
-10.9228

> <Gold.Chemscore.Internal_Hbond.Weighted>
0.0000

> <Gold.Chemscore.DEClash.Weighted>
1.1489

> <Gold.Chemscore.DEInternal.Weighted>
3.7352

> <Gold.Chemscore.Rot.Weighted>
3.8803

> <Gold.Chemscore.Internal.Correction.Weighted>
   9.000000E+99

> <Gold.Protein.RotatedTorsions>
[ 6907 6896 6895 6894 ] final -163.78 input  -60.11 | X-H torsion
[ 7974 7965 7964 7962 ] final   32.23 input  175.53 | X-H torsion
[ 8008 7997 7996 7995 ] final -120.16 input   59.86 | X-H torsion
[ 10167 10162 10161 10158 ] final  140.73 input  -65.29 | X-H torsion
[ 10718 10713 10712 10709 ] final  161.48 input   66.30 | X-H torsion
[ 10763 10752 10751 10750 ] final -177.74 input  -60.55 | X-H torsion
[ 11005 11000 10999 10996 ] final -138.34 input  -57.11 | X-H torsion

> <Gold.Protein.ActiveResidues>
 VAL166  LYS551  ARG553  GLY616  TRP617  ASP618  TYR619  PRO620  LYS621  CYS622 
 ASP623  PHE694  ASN695  SER759  ASP760  ASP761  ALA762  ILE779  LEU786  VAL792 
 PHE793  MET794  SER795  GLU796  ALA797  LYS798  CYS799  TRP800  GLU811  SER814 

> <Gold.Protein.RotatedAtoms>
  151.4015  133.3756  159.2732 H   0  0  0  0  0  0  0  0  0  0  0  0  # atno 6907 bound_to 6896
  150.9430  134.8839  159.7635 H   0  0  0  0  0  0  0  0  0  0  0  0  # atno 6908 bound_to 6896
  152.5079  134.3966  159.9454 H   0  0  0  0  0  0  0  0  0  0  0  0  # atno 6909 bound_to 6896
  146.1499  139.6553  142.9105 H   0  0  0  0  0  0  0  0  0  0  0  0  # atno 7974 bound_to 7965
  155.1273  140.0399  157.2765 H   0  0  0  0  0  0  0  0  0  0  0  0  # atno 8008 bound_to 7997
  154.6569  140.2582  155.7126 H   0  0  0  0  0  0  0  0  0  0  0  0  # atno 8009 bound_to 7997
  156.2602  140.2825  156.1025 H   0  0  0  0  0  0  0  0  0  0  0  0  # atno 8010 bound_to 7997
  139.5040  144.6216  151.6038 H   0  0  0  0  0  0  0  0  0  0  0  0  # atno 10167 bound_to 10162
  157.1360  131.0528  151.2349 H   0  0  0  0  0  0  0  0  0  0  0  0  # atno 10718 bound_to 10713
  154.5563  135.2816  155.0961 H   0  0  0  0  0  0  0  0  0  0  0  0  # atno 10763 bound_to 10752
  154.2387  135.6361  153.5203 H   0  0  0  0  0  0  0  0  0  0  0  0  # atno 10764 bound_to 10752
  153.0017  135.5554  154.6144 H   0  0  0  0  0  0  0  0  0  0  0  0  # atno 10765 bound_to 10752
  140.8625  134.2151  157.4699 H   0  0  0  0  0  0  0  0  0  0  0  0  # atno 11005 bound_to 11000
  145.4847  141.0438  143.2626 LP  0  0  0  0  0  0  0  0  0  0  0  0  # atno 17320 bound_to 7965
  144.7892  139.6364  143.7121 LP  0  0  0  0  0  0  0  0  0  0  0  0  # atno 17321 bound_to 7965
  140.5919  143.9764  150.6330 LP  0  0  0  0  0  0  0  0  0  0  0  0  # atno 17342 bound_to 10162
  140.2947  143.3300  152.1029 LP  0  0  0  0  0  0  0  0  0  0  0  0  # atno 17343 bound_to 10162
  157.4350  130.7512  149.7021 LP  0  0  0  0  0  0  0  0  0  0  0  0  # atno 17370 bound_to 10713
  155.9798  130.4036  150.3565 LP  0  0  0  0  0  0  0  0  0  0  0  0  # atno 17371 bound_to 10713
  139.8707  134.9736  156.4816 LP  0  0  0  0  0  0  0  0  0  0  0  0  # atno 17394 bound_to 11000
  140.8667  133.8019  155.9321 LP  0  0  0  0  0  0  0  0  0  0  0  0  # atno 17395 bound_to 11000

$$$$
