AV-unprocessed.smi:2027|AV-procd|sdf|8209|dock2
  -GOLD-   2272010473D 1   1.00000     0.00000
 Structure written by MMmdl.
 49 51  0  0  0  0  0  0  0  0  1 V2000
  153.2254  142.9698  160.9651 C   0  0  0  0  0  0  0  0  0  0  0  0
  152.5305  142.6077  159.6645 C   0  0  0  0  0  0  0  0  0  0  0  0
  152.8555  141.3883  159.0284 C   0  0  0  0  0  0  0  0  0  0  0  0
  152.2280  141.0113  157.8209 C   0  0  0  0  0  0  0  0  0  0  0  0
  152.3887  139.8796  157.0399 N   0  0  0  0  0  0  0  0  0  0  0  0
  151.5230  140.1078  156.0564 C   0  0  0  0  0  0  0  0  0  0  0  0
  150.8185  141.2547  156.1084 N   0  0  0  0  0  0  0  0  0  0  0  0
  149.8165  141.7146  155.1622 C   0  0  0  0  0  0  0  0  0  0  0  0
  149.0037  140.5489  154.5691 C   0  0  2  0  0  0  0  0  0  0  0  0
  149.7829  139.8881  153.5901 O   0  0  0  0  0  0  0  0  0  0  0  0
  147.6909  141.0286  153.9147 C   0  0  0  0  0  0  0  0  0  0  0  0
  146.6109  140.0355  153.7924 N   0  0  0  0  0  0  0  0  0  0  0  0
  146.1895  139.6105  155.1226 C   0  0  0  0  0  0  0  0  0  0  0  0
  146.9835  138.8478  153.0101 C   0  0  0  0  0  0  0  0  0  0  0  0
  146.0226  137.6931  153.1005 C   0  0  0  0  0  0  0  0  0  0  0  0
  146.2765  136.3967  153.6321 C   0  0  0  0  0  0  0  0  0  0  0  0
  145.2299  135.5926  153.5509 N   0  0  0  0  0  0  0  0  0  0  0  0
  144.2730  136.3444  152.9706 N   0  0  0  0  0  0  0  0  0  0  0  0
  142.9767  135.7613  152.7010 C   0  0  0  0  0  0  0  0  0  0  0  0
  144.7141  137.6239  152.7092 C   0  0  0  0  0  0  0  0  0  0  0  0
  151.2585  141.8946  157.2625 C   0  0  0  0  0  0  0  0  0  0  0  0
  150.9318  143.1135  157.8825 C   0  0  0  0  0  0  0  0  0  0  0  0
  151.5679  143.4751  159.0882 C   0  0  0  0  0  0  0  0  0  0  0  0
  151.2026  144.7913  159.7513 C   0  0  0  0  0  0  0  0  0  0  0  0
  153.8692  142.1606  161.3113 H   0  0  0  0  0  0  0  0  0  0  0  0
  152.4936  143.1720  161.7476 H   0  0  0  0  0  0  0  0  0  0  0  0
  153.8444  143.8571  160.8308 H   0  0  0  0  0  0  0  0  0  0  0  0
  153.5901  140.7281  159.4655 H   0  0  0  0  0  0  0  0  0  0  0  0
  151.3884  139.3968  155.2542 H   0  0  0  0  0  0  0  0  0  0  0  0
  149.1549  142.4077  155.6832 H   0  0  0  0  0  0  0  0  0  0  0  0
  150.3091  142.2831  154.3719 H   0  0  0  0  0  0  0  0  0  0  0  0
  148.8130  139.8509  155.3760 H   0  0  0  0  0  0  0  0  0  0  0  0
  149.2788  139.1704  153.2386 H   0  0  0  0  0  0  0  0  0  0  0  0
  147.3130  141.8982  154.4548 H   0  0  0  0  0  0  0  0  0  0  0  0
  147.9534  141.4025  152.9235 H   0  0  0  0  0  0  0  0  0  0  0  0
  145.3565  138.9089  155.0627 H   0  0  0  0  0  0  0  0  0  0  0  0
  145.8525  140.4617  155.7151 H   0  0  0  0  0  0  0  0  0  0  0  0
  147.0059  139.1244  155.6588 H   0  0  0  0  0  0  0  0  0  0  0  0
  147.1359  139.1365  151.9690 H   0  0  0  0  0  0  0  0  0  0  0  0
  147.9601  138.4995  153.3487 H   0  0  0  0  0  0  0  0  0  0  0  0
  147.1912  136.0145  154.0609 H   0  0  0  0  0  0  0  0  0  0  0  0
  142.3432  136.4814  152.1825 H   0  0  0  0  0  0  0  0  0  0  0  0
  142.4982  135.4758  153.6382 H   0  0  0  0  0  0  0  0  0  0  0  0
  143.0941  134.8772  152.0728 H   0  0  0  0  0  0  0  0  0  0  0  0
  144.0780  138.3646  152.2473 H   0  0  0  0  0  0  0  0  0  0  0  0
  150.1930  143.7628  157.4369 H   0  0  0  0  0  0  0  0  0  0  0  0
  150.5618  145.3949  159.1081 H   0  0  0  0  0  0  0  0  0  0  0  0
  152.0957  145.3770  159.9696 H   0  0  0  0  0  0  0  0  0  0  0  0
  150.6682  144.6094  160.6840 H   0  0  0  0  0  0  0  0  0  0  0  0
  1  2  1  0  0  0  0
  1 25  1  0  0  0  0
  1 26  1  0  0  0  0
  1 27  1  0  0  0  0
  2 23  1  0  0  0  0
  2  3  2  0  0  0  0
  3  4  1  0  0  0  0
  3 28  1  0  0  0  0
  4 21  2  0  0  0  0
  4  5  1  0  0  0  0
  5  6  2  0  0  0  0
  6  7  1  0  0  0  0
  6 29  1  0  0  0  0
  7  8  1  0  0  0  0
  7 21  1  0  0  0  0
  8  9  1  0  0  0  0
  8 30  1  0  0  0  0
  8 31  1  0  0  0  0
  9 10  1  0  0  0  0
  9 11  1  0  0  0  0
  9 32  1  0  0  0  0
 10 33  1  0  0  0  0
 11 12  1  0  0  0  0
 11 34  1  0  0  0  0
 11 35  1  0  0  0  0
 12 13  1  0  0  0  0
 12 14  1  0  0  0  0
 13 36  1  0  0  0  0
 13 37  1  0  0  0  0
 13 38  1  0  0  0  0
 14 15  1  0  0  0  0
 14 39  1  0  0  0  0
 14 40  1  0  0  0  0
 15 20  2  0  0  0  0
 15 16  1  0  0  0  0
 16 17  2  0  0  0  0
 16 41  1  0  0  0  0
 17 18  1  0  0  0  0
 18 19  1  0  0  0  0
 18 20  1  0  0  0  0
 19 42  1  0  0  0  0
 19 43  1  0  0  0  0
 19 44  1  0  0  0  0
 20 45  1  0  0  0  0
 21 22  1  0  0  0  0
 22 23  2  0  0  0  0
 22 46  1  0  0  0  0
 23 24  1  0  0  0  0
 24 47  1  0  0  0  0
 24 48  1  0  0  0  0
 24 49  1  0  0  0  0
M  END
> <s_m_source_file>
AV-unprocessed.smi

> <i_m_source_file_index>
2027

> <i_lp_mmshare_version>
43012

> <i_f3d_flags>
0

> <s_epik_input>
W0NIM11jKFtjSF0xKWMoW0NIM10pW2NIXWMoYzEyKW4oW2NIXW4yKVtDSDJdW0NASF0oW09IXSlbQ0gyXU4oW0NIM10pW0NIMl1jM1tjSF1ubihbQ0gzXSlbY0hdMw==

> <s_epik_cmdline>
J2VwaWtfcHl0aG9uJywgJy1waCcsICc3LjAnLCAnLXRuJywgJzgnLCAnLW1hJywgJzIwMCcsICctbWV0YWxfYmluZGluZycsICctaW1hZScsICc8aW5maWxlLm1hZT4nLCAnLW9tYWUnLCAnPG91dGZpbGUubWFlPic=

> <r_lp_tautomer_probability>
1

> <r_epik_Ionization_Penalty>
0.374241

> <r_epik_Ionization_Penalty_Charging>
0

> <r_epik_Ionization_Penalty_Neutral>
0.374241

> <r_epik_State_Penalty>
0.350767

> <r_epik_Charging_Adjusted_Penalty>
0.350767

> <i_epik_Tot_Q>
0

> <i_epik_Tot_abs_Q>
0

> <r_epik_Metal_State_Penalty>
0.343203

> <b_epik_Metal_Only>
0

> <s_lp_Force_Field>
OPLS_2005

> <r_lp_Energy>
16.8083

> <b_lp_Chiralities_Consistent>
1

> <s_lp_Variant>
AV-unprocessed.smi:2027-1

> <Gold.Version>
5.8.1

> <Gold.Id.Protein>
6NUR|6NUR_protein|mol2

> <Gold.PLP.Fitness>
54.5703

> <Gold.PLP.PLP>
-44.0222

> <Gold.PLP.part.hbond>
-2.6093

> <Gold.PLP.part.metal>
0.0000

> <Gold.PLP.part.buried>
-2.5148

> <Gold.PLP.part.nonpolar>
-38.3013

> <Gold.PLP.part.repulsive>
0.2265

> <Gold.PLP.ligand.clash>
0.0000

> <Gold.PLP.ligand.torsion>
0.8323

> <Gold.PLP.Chemscore.Hbond>
1.7040

> <Gold.PLP.Chemscore.CHOScore>
2.3423

> <Gold.PLP.Chemscore.Metal>
0.0000

> <Gold.Chemscore.Hbonds>
donor molecule, donor type, donor heavy atom, donor atom, acceptor molecule, acceptor atom, score
      P1  H  7989  7998       L1    10  0.63
      P1  H  7997  8010       L1     5  0.94
      L1  C    16    41       P1  7948  0.11
      L1  C    20    45       P1 10171  0.87
      L1  C    20    45       P1 10175  1.00

> <Gold.PLP.Chemscore.Internal.Correction>
0.0739

> <Gold.Rescore>
     Score         DG    S(hbond)    S(metal)    S(lipo)     H(rot)  DE(clash)    DE(int)     intcor
     15.90     -18.09       1.45        0.00     119.42       2.42       0.34       1.84       ----

> <Gold.Chemscore.Fitness>
15.9040

> <Gold.Chemscore.DG>
-18.0857

> <Gold.Chemscore.ZeroCoef>
-5.4800

> <Gold.Chemscore.Hbond>
1.4455

> <Gold.Chemscore.Metal>
0.0000

> <Gold.Chemscore.Lipo>
119.4222

> <Gold.Chemscore.Internal_Hbond>
0.0000

> <Gold.Chemscore.DEClash>
0.3426

> <Gold.Chemscore.DEInternal>
1.8391

> <Gold.Chemscore.Rot>
2.4198

> <Gold.Chemscore.Internal.Correction>
   9.000000E+99

> <Gold.Chemscore.Hbonds>
donor molecule, donor type, donor heavy atom, donor atom, acceptor molecule, acceptor atom, score
      P1  H  7989  7998       L1    10  0.40
      P1  H  7997  8010       L1     5  0.18

> <Gold.Chemscore.Hbond.Weighted>
-4.8281

> <Gold.Chemscore.Metal.Weighted>
-0.0000

> <Gold.Chemscore.Lipo.Weighted>
-13.9724

> <Gold.Chemscore.Internal_Hbond.Weighted>
0.0000

> <Gold.Chemscore.DEClash.Weighted>
0.3426

> <Gold.Chemscore.DEInternal.Weighted>
1.8391

> <Gold.Chemscore.Rot.Weighted>
6.1948

> <Gold.Chemscore.Internal.Correction.Weighted>
   9.000000E+99

> <Gold.Protein.RotatedTorsions>
[ 6907 6896 6895 6894 ] final   10.56 input  -60.11 | X-H torsion
[ 7974 7965 7964 7962 ] final   83.42 input  175.53 | X-H torsion
[ 8008 7997 7996 7995 ] final   66.37 input   59.86 | X-H torsion
[ 10167 10162 10161 10158 ] final  173.41 input  -65.29 | X-H torsion
[ 10718 10713 10712 10709 ] final -117.18 input   66.30 | X-H torsion
[ 10763 10752 10751 10750 ] final   93.45 input  -60.55 | X-H torsion
[ 11005 11000 10999 10996 ] final   20.18 input  -57.11 | X-H torsion

> <Gold.Protein.ActiveResidues>
 VAL166  LYS551  ARG553  GLY616  TRP617  ASP618  TYR619  PRO620  LYS621  CYS622 
 ASP623  PHE694  ASN695  SER759  ASP760  ASP761  ALA762  ILE779  LEU786  VAL792 
 PHE793  MET794  SER795  GLU796  ALA797  LYS798  CYS799  TRP800  GLU811  SER814 

> <Gold.Protein.RotatedAtoms>
  151.7401  135.0856  160.0314 H   0  0  0  0  0  0  0  0  0  0  0  0  # atno 6907 bound_to 6896
  152.3485  133.6146  159.5936 H   0  0  0  0  0  0  0  0  0  0  0  0  # atno 6908 bound_to 6896
  150.7524  133.9528  159.3533 H   0  0  0  0  0  0  0  0  0  0  0  0  # atno 6909 bound_to 6896
  145.6121  139.2370  143.2186 H   0  0  0  0  0  0  0  0  0  0  0  0  # atno 7974 bound_to 7965
  155.6762  140.3497  155.4837 H   0  0  0  0  0  0  0  0  0  0  0  0  # atno 8008 bound_to 7997
  155.9646  140.1144  157.0889 H   0  0  0  0  0  0  0  0  0  0  0  0  # atno 8009 bound_to 7997
  154.4151  140.1169  156.5210 H   0  0  0  0  0  0  0  0  0  0  0  0  # atno 8010 bound_to 7997
  139.5107  144.3263  152.0154 H   0  0  0  0  0  0  0  0  0  0  0  0  # atno 10167 bound_to 10162
  156.1016  130.6176  150.9131 H   0  0  0  0  0  0  0  0  0  0  0  0  # atno 10718 bound_to 10713
  153.2305  135.4325  155.0589 H   0  0  0  0  0  0  0  0  0  0  0  0  # atno 10763 bound_to 10752
  154.8294  135.3378  154.6795 H   0  0  0  0  0  0  0  0  0  0  0  0  # atno 10764 bound_to 10752
  153.7222  135.7016  153.5066 H   0  0  0  0  0  0  0  0  0  0  0  0  # atno 10765 bound_to 10752
  140.4055  134.1673  155.7665 H   0  0  0  0  0  0  0  0  0  0  0  0  # atno 11005 bound_to 11000
  146.1496  140.6944  142.9328 LP  0  0  0  0  0  0  0  0  0  0  0  0  # atno 17320 bound_to 7965
  144.7265  140.4541  143.6969 LP  0  0  0  0  0  0  0  0  0  0  0  0  # atno 17321 bound_to 7965
  140.2704  144.3970  150.6153 LP  0  0  0  0  0  0  0  0  0  0  0  0  # atno 17342 bound_to 10162
  140.6093  143.2169  151.6919 LP  0  0  0  0  0  0  0  0  0  0  0  0  # atno 17343 bound_to 10162
  157.6186  131.0931  150.8663 LP  0  0  0  0  0  0  0  0  0  0  0  0  # atno 17370 bound_to 10713
  156.8790  130.5173  149.5292 LP  0  0  0  0  0  0  0  0  0  0  0  0  # atno 17371 bound_to 10713
  141.1841  133.8351  157.1152 LP  0  0  0  0  0  0  0  0  0  0  0  0  # atno 17394 bound_to 11000
  140.0305  134.9903  157.0771 LP  0  0  0  0  0  0  0  0  0  0  0  0  # atno 17395 bound_to 11000

$$$$
