AV-unprocessed.smi:2638|AV-procd|sdf|10262|dock2
  -GOLD-   2272014273D 1   1.00000     0.00000
 Structure written by MMmdl.
 43 44  0  0  0  0  0  0  0  0  1 V2000
  149.1431  140.6710  157.5743 O   0  0  0  0  0  0  0  0  0  0  0  0
  149.1904  141.7668  157.0142 C   0  0  0  0  0  0  0  0  0  0  0  0
  150.0012  142.7818  157.3606 N   0  0  0  0  0  0  0  0  0  0  0  0
  150.9676  142.8185  158.4006 C   0  0  0  0  0  0  0  0  0  0  0  0
  151.5115  144.0954  158.6667 C   0  0  0  0  0  0  0  0  0  0  0  0
  152.4810  144.2384  159.6781 C   0  0  0  0  0  0  0  0  0  0  0  0
  152.8815  143.0995  160.3992 C   0  0  0  0  0  0  0  0  0  0  0  0
  152.2894  141.8657  160.0723 C   0  0  0  0  0  0  0  0  0  0  0  0
  151.3607  141.7264  159.1029 N   0  0  0  0  0  0  0  0  0  0  0  0
  148.4273  142.0991  155.9616 N   0  0  0  0  0  0  0  0  0  0  0  0
  147.4543  141.2325  155.2915 C   0  0  2  0  0  0  0  0  0  0  0  0
  148.0801  140.6670  153.9900 C   0  0  0  0  0  0  0  0  0  0  0  0
  147.2337  139.6087  153.2543 C   0  0  0  0  0  0  0  0  0  0  0  0
  146.8194  140.0621  151.9819 O   0  0  0  0  0  0  0  0  0  0  0  0
  146.1261  142.0104  155.0553 C   0  0  0  0  0  0  0  0  0  0  0  0
  146.2989  143.1737  154.0442 C   0  0  0  0  0  0  0  0  0  0  0  0
  144.9906  143.9436  153.8055 C   0  0  0  0  0  0  0  0  0  0  0  0
  144.4145  144.4806  155.1210 C   0  0  0  0  0  0  0  0  0  0  0  0
  144.2119  143.3408  156.1267 C   0  0  0  0  0  0  0  0  0  0  0  0
  145.5176  142.5654  156.3674 C   0  0  0  0  0  0  0  0  0  0  0  0
  149.9278  143.6220  156.8063 H   0  0  0  0  0  0  0  0  0  0  0  0
  151.1925  144.9599  158.1026 H   0  0  0  0  0  0  0  0  0  0  0  0
  152.9091  145.2057  159.8957 H   0  0  0  0  0  0  0  0  0  0  0  0
  153.6227  143.1691  161.1816 H   0  0  0  0  0  0  0  0  0  0  0  0
  152.5683  140.9667  160.6017 H   0  0  0  0  0  0  0  0  0  0  0  0
  148.5426  143.0236  155.5731 H   0  0  0  0  0  0  0  0  0  0  0  0
  147.2225  140.3810  155.9338 H   0  0  0  0  0  0  0  0  0  0  0  0
  148.2170  141.4860  153.2861 H   0  0  0  0  0  0  0  0  0  0  0  0
  149.0789  140.2739  154.1857 H   0  0  0  0  0  0  0  0  0  0  0  0
  147.7822  138.6718  153.1533 H   0  0  0  0  0  0  0  0  0  0  0  0
  146.3355  139.3898  153.8319 H   0  0  0  0  0  0  0  0  0  0  0  0
  147.5794  140.1241  151.4232 H   0  0  0  0  0  0  0  0  0  0  0  0
  145.4055  141.3109  154.6283 H   0  0  0  0  0  0  0  0  0  0  0  0
  147.0644  143.8614  154.4064 H   0  0  0  0  0  0  0  0  0  0  0  0
  146.6514  142.8043  153.0817 H   0  0  0  0  0  0  0  0  0  0  0  0
  145.1662  144.7678  153.1135 H   0  0  0  0  0  0  0  0  0  0  0  0
  144.2626  143.2881  153.3261 H   0  0  0  0  0  0  0  0  0  0  0  0
  145.0899  145.2269  155.5411 H   0  0  0  0  0  0  0  0  0  0  0  0
  143.4673  144.9874  154.9348 H   0  0  0  0  0  0  0  0  0  0  0  0
  143.8393  143.7417  157.0697 H   0  0  0  0  0  0  0  0  0  0  0  0
  143.4451  142.6587  155.7572 H   0  0  0  0  0  0  0  0  0  0  0  0
  145.2990  141.7599  157.0664 H   0  0  0  0  0  0  0  0  0  0  0  0
  146.2408  143.2161  156.8609 H   0  0  0  0  0  0  0  0  0  0  0  0
  1  2  2  0  0  0  0
  2  3  1  0  0  0  0
  2 10  1  0  0  0  0
  3  4  1  0  0  0  0
  3 21  1  0  0  0  0
  4  9  1  0  0  0  0
  4  5  2  0  0  0  0
  5  6  1  0  0  0  0
  5 22  1  0  0  0  0
  6  7  2  0  0  0  0
  6 23  1  0  0  0  0
  7  8  1  0  0  0  0
  7 24  1  0  0  0  0
  8  9  2  0  0  0  0
  8 25  1  0  0  0  0
 10 11  1  0  0  0  0
 10 26  1  0  0  0  0
 11 12  1  0  0  0  0
 11 15  1  0  0  0  0
 11 27  1  0  0  0  0
 12 13  1  0  0  0  0
 12 28  1  0  0  0  0
 12 29  1  0  0  0  0
 13 14  1  0  0  0  0
 13 30  1  0  0  0  0
 13 31  1  0  0  0  0
 14 32  1  0  0  0  0
 15 20  1  0  0  0  0
 15 16  1  0  0  0  0
 15 33  1  0  0  0  0
 16 17  1  0  0  0  0
 16 34  1  0  0  0  0
 16 35  1  0  0  0  0
 17 18  1  0  0  0  0
 17 36  1  0  0  0  0
 17 37  1  0  0  0  0
 18 19  1  0  0  0  0
 18 38  1  0  0  0  0
 18 39  1  0  0  0  0
 19 20  1  0  0  0  0
 19 40  1  0  0  0  0
 19 41  1  0  0  0  0
 20 42  1  0  0  0  0
 20 43  1  0  0  0  0
M  END
> <s_m_source_file>
AV-unprocessed.smi

> <i_m_source_file_index>
2638

> <i_lp_mmshare_version>
43012

> <i_f3d_flags>
0

> <s_epik_input>
bjFbY0hdW2NIXVtjSF1bY0hdYzFbTkhdQyg9TylbTkhdW0NASF0oW0NIMl1bQ0gyXVtPSF0pW0NIXTJbQ0gyXVtDSDJdW0NIMl1bQ0gyXVtDSDJdMg==

> <s_epik_cmdline>
J2VwaWtfcHl0aG9uJywgJy1waCcsICc3LjAnLCAnLXRuJywgJzgnLCAnLW1hJywgJzIwMCcsICctbWV0YWxfYmluZGluZycsICctaW1hZScsICc8aW5maWxlLm1hZT4nLCAnLW9tYWUnLCAnPG91dGZpbGUubWFlPic=

> <r_lp_tautomer_probability>
1

> <r_epik_Ionization_Penalty>
5.22449e-05

> <r_epik_Ionization_Penalty_Charging>
0

> <r_epik_Ionization_Penalty_Neutral>
5.22449e-05

> <r_epik_State_Penalty>
-0

> <r_epik_Charging_Adjusted_Penalty>
0

> <i_epik_Tot_Q>
0

> <i_epik_Tot_abs_Q>
0

> <r_epik_Metal_State_Penalty>
-0

> <b_epik_Metal_Only>
0

> <s_lp_Force_Field>
OPLS_2005

> <r_lp_Energy>
19.3621

> <b_lp_Chiralities_Consistent>
1

> <s_lp_Variant>
AV-unprocessed.smi:2638-1

> <Gold.Version>
5.8.1

> <Gold.Id.Protein>
6NUR|6NUR_protein|mol2

> <Gold.PLP.Fitness>
48.8391

> <Gold.PLP.PLP>
-41.1002

> <Gold.PLP.part.hbond>
-3.5497

> <Gold.PLP.part.metal>
0.0000

> <Gold.PLP.part.buried>
-5.9292

> <Gold.PLP.part.nonpolar>
-32.9027

> <Gold.PLP.part.repulsive>
0.1056

> <Gold.PLP.ligand.clash>
0.0000

> <Gold.PLP.ligand.torsion>
0.6413

> <Gold.PLP.Chemscore.Hbond>
2.9920

> <Gold.PLP.Chemscore.CHOScore>
0.0000

> <Gold.PLP.Chemscore.Metal>
0.0000

> <Gold.Chemscore.Hbonds>
donor molecule, donor type, donor heavy atom, donor atom, acceptor molecule, acceptor atom, score
      L1  H     3    21       P1  8028  0.99
      L1  H    10    26       P1  8028  1.00
      L1  H    14    32       P1  7957  1.00

> <Gold.PLP.Chemscore.Internal.Correction>
0.0456

> <Gold.Rescore>
     Score         DG    S(hbond)    S(metal)    S(lipo)     H(rot)  DE(clash)    DE(int)     intcor
     18.31     -20.42       2.94        0.00      93.97       2.30       0.08       2.03       ----

> <Gold.Chemscore.Fitness>
18.3104

> <Gold.Chemscore.DG>
-20.4240

> <Gold.Chemscore.ZeroCoef>
-5.4800

> <Gold.Chemscore.Hbond>
2.9432

> <Gold.Chemscore.Metal>
0.0000

> <Gold.Chemscore.Lipo>
93.9710

> <Gold.Chemscore.Internal_Hbond>
0.0000

> <Gold.Chemscore.DEClash>
0.0804

> <Gold.Chemscore.DEInternal>
2.0332

> <Gold.Chemscore.Rot>
2.2972

> <Gold.Chemscore.Internal.Correction>
   9.000000E+99

> <Gold.Chemscore.Hbonds>
donor molecule, donor type, donor heavy atom, donor atom, acceptor molecule, acceptor atom, score
      L1  H     3    21       P1  8028  0.93
      L1  H    10    26       P1  8028  0.98
      L1  H    14    32       P1  7957  0.92

> <Gold.Chemscore.Hbond.Weighted>
-9.8302

> <Gold.Chemscore.Metal.Weighted>
-0.0000

> <Gold.Chemscore.Lipo.Weighted>
-10.9946

> <Gold.Chemscore.Internal_Hbond.Weighted>
0.0000

> <Gold.Chemscore.DEClash.Weighted>
0.0804

> <Gold.Chemscore.DEInternal.Weighted>
2.0332

> <Gold.Chemscore.Rot.Weighted>
5.8807

> <Gold.Chemscore.Internal.Correction.Weighted>
   9.000000E+99

> <Gold.Protein.RotatedTorsions>
[ 6907 6896 6895 6894 ] final  -39.24 input  -60.11 | X-H torsion
[ 7974 7965 7964 7962 ] final   26.15 input  175.53 | X-H torsion
[ 8008 7997 7996 7995 ] final  129.07 input   59.86 | X-H torsion
[ 10167 10162 10161 10158 ] final  137.87 input  -65.29 | X-H torsion
[ 10718 10713 10712 10709 ] final -157.00 input   66.30 | X-H torsion
[ 10763 10752 10751 10750 ] final   81.81 input  -60.55 | X-H torsion
[ 11005 11000 10999 10996 ] final  -19.85 input  -57.11 | X-H torsion

> <Gold.Protein.ActiveResidues>
 VAL166  LYS551  ARG553  GLY616  TRP617  ASP618  TYR619  PRO620  LYS621  CYS622 
 ASP623  PHE694  ASN695  SER759  ASP760  ASP761  ALA762  ILE779  LEU786  VAL792 
 PHE793  MET794  SER795  GLU796  ALA797  LYS798  CYS799  TRP800  GLU811  SER814 

> <Gold.Protein.RotatedAtoms>
  150.9927  134.9258  159.7908 H   0  0  0  0  0  0  0  0  0  0  0  0  # atno 6907 bound_to 6896
  152.5255  134.3260  159.9175 H   0  0  0  0  0  0  0  0  0  0  0  0  # atno 6908 bound_to 6896
  151.3266  133.3976  159.2693 H   0  0  0  0  0  0  0  0  0  0  0  0  # atno 6909 bound_to 6896
  146.1852  139.7367  142.8872 H   0  0  0  0  0  0  0  0  0  0  0  0  # atno 7974 bound_to 7965
  156.2928  140.2629  156.2538 H   0  0  0  0  0  0  0  0  0  0  0  0  # atno 8008 bound_to 7997
  154.9856  140.0389  157.2315 H   0  0  0  0  0  0  0  0  0  0  0  0  # atno 8009 bound_to 7997
  154.7732  140.2782  155.6126 H   0  0  0  0  0  0  0  0  0  0  0  0  # atno 8010 bound_to 7997
  139.5130  144.6386  151.5631 H   0  0  0  0  0  0  0  0  0  0  0  0  # atno 10167 bound_to 10162
  156.5342  130.8534  151.2727 H   0  0  0  0  0  0  0  0  0  0  0  0  # atno 10718 bound_to 10713
  153.1149  135.4751  154.9098 H   0  0  0  0  0  0  0  0  0  0  0  0  # atno 10763 bound_to 10752
  154.7518  135.3108  154.8546 H   0  0  0  0  0  0  0  0  0  0  0  0  # atno 10764 bound_to 10752
  153.9125  135.6863  153.4804 H   0  0  0  0  0  0  0  0  0  0  0  0  # atno 10765 bound_to 10752
  140.8407  133.7928  155.9858 H   0  0  0  0  0  0  0  0  0  0  0  0  # atno 11005 bound_to 11000
  145.3960  141.0379  143.3097 LP  0  0  0  0  0  0  0  0  0  0  0  0  # atno 17320 bound_to 7965
  144.8384  139.5511  143.6911 LP  0  0  0  0  0  0  0  0  0  0  0  0  # atno 17321 bound_to 7965
  140.6144  143.9377  150.6477 LP  0  0  0  0  0  0  0  0  0  0  0  0  # atno 17342 bound_to 10162
  140.2630  143.3510  152.1306 LP  0  0  0  0  0  0  0  0  0  0  0  0  # atno 17343 bound_to 10162
  157.7416  130.9874  150.2460 LP  0  0  0  0  0  0  0  0  0  0  0  0  # atno 17370 bound_to 10713
  156.3031  130.3761  149.7731 LP  0  0  0  0  0  0  0  0  0  0  0  0  # atno 17371 bound_to 10713
  140.8898  134.2510  157.5100 LP  0  0  0  0  0  0  0  0  0  0  0  0  # atno 17394 bound_to 11000
  139.8703  134.9656  156.4533 LP  0  0  0  0  0  0  0  0  0  0  0  0  # atno 17395 bound_to 11000

$$$$
