AV-unprocessed.smi:285|AV-procd|sdf|2168|dock5
  -GOLD-   2262021533D 1   1.00000     0.00000
 Structure written by MMmdl.
 31 33  0  0  0  0  0  0  0  0  1 V2000
  150.5718  145.1723  158.0825 N   0  0  0  0  0  0  0  0  0  0  0  0
  151.2691  144.3096  158.8348 C   0  0  0  0  0  0  0  0  0  0  0  0
  151.7494  144.7374  160.0258 N   0  0  0  0  0  0  0  0  0  0  0  0
  152.4491  143.8972  160.7954 C   0  0  0  0  0  0  0  0  0  0  0  0
  152.7711  142.6218  160.5629 N   0  0  0  0  0  0  0  0  0  0  0  0
  152.2847  142.1904  159.3613 C   0  0  0  0  0  0  0  0  0  0  0  0
  151.5270  142.9723  158.4409 C   0  0  0  0  0  0  0  0  0  0  0  0
  151.2025  142.2156  157.3216 N   0  0  0  0  0  0  0  0  0  0  0  0
  151.7458  141.0607  157.5882 C   0  0  0  0  0  0  0  0  0  0  0  0
  151.6134  139.6233  156.3458 Br  0  0  0  0  0  0  0  0  0  0  0  0
  152.4163  140.9428  158.7846 N   0  0  0  0  0  0  0  0  0  0  0  0
  153.1258  139.7598  159.3581 C   0  0  1  0  0  0  0  0  0  0  0  0
  152.2497  138.5120  159.3219 C   0  0  0  0  0  0  0  0  0  0  0  0
  153.2721  137.4038  159.0934 C   0  0  2  0  0  0  0  0  0  0  0  0
  153.3545  136.5617  160.2261 O   0  0  0  0  0  0  0  0  0  0  0  0
  154.6090  138.1351  158.8537 C   0  0  1  0  0  0  0  0  0  0  0  0
  155.4159  137.5654  157.6771 C   0  0  0  0  0  0  0  0  0  0  0  0
  156.5969  138.3156  157.4890 O   0  0  0  0  0  0  0  0  0  0  0  0
  154.2247  139.4731  158.5655 O   0  0  0  0  0  0  0  0  0  0  0  0
  150.2030  144.8779  157.1894 H   0  0  0  0  0  0  0  0  0  0  0  0
  150.4147  146.1144  158.4103 H   0  0  0  0  0  0  0  0  0  0  0  0
  152.8011  144.3045  161.7317 H   0  0  0  0  0  0  0  0  0  0  0  0
  153.4426  140.0414  160.3625 H   0  0  0  0  0  0  0  0  0  0  0  0
  151.6749  138.4208  160.2446 H   0  0  0  0  0  0  0  0  0  0  0  0
  151.5574  138.5620  158.4806 H   0  0  0  0  0  0  0  0  0  0  0  0
  152.9794  136.8108  158.2258 H   0  0  0  0  0  0  0  0  0  0  0  0
  154.1542  136.7568  160.6903 H   0  0  0  0  0  0  0  0  0  0  0  0
  155.2028  138.1346  159.7706 H   0  0  0  0  0  0  0  0  0  0  0  0
  155.7144  136.5384  157.8894 H   0  0  0  0  0  0  0  0  0  0  0  0
  154.8237  137.5493  156.7613 H   0  0  0  0  0  0  0  0  0  0  0  0
  157.1858  138.1339  158.2054 H   0  0  0  0  0  0  0  0  0  0  0  0
  1  2  1  0  0  0  0
  1 20  1  0  0  0  0
  1 21  1  0  0  0  0
  2  7  1  0  0  0  0
  2  3  2  0  0  0  0
  3  4  1  0  0  0  0
  4  5  2  0  0  0  0
  4 22  1  0  0  0  0
  5  6  1  0  0  0  0
  6 11  1  0  0  0  0
  6  7  2  0  0  0  0
  7  8  1  0  0  0  0
  8  9  2  0  0  0  0
  9 10  1  0  0  0  0
  9 11  1  0  0  0  0
 11 12  1  0  0  0  0
 12 19  1  0  0  0  0
 12 13  1  0  0  0  0
 12 23  1  0  0  0  0
 13 14  1  0  0  0  0
 13 24  1  0  0  0  0
 13 25  1  0  0  0  0
 14 15  1  0  0  0  0
 14 16  1  0  0  0  0
 14 26  1  0  0  0  0
 15 27  1  0  0  0  0
 16 17  1  0  0  0  0
 16 19  1  0  0  0  0
 16 28  1  0  0  0  0
 17 18  1  0  0  0  0
 17 29  1  0  0  0  0
 17 30  1  0  0  0  0
 18 31  1  0  0  0  0
M  END
> <s_m_source_file>
AV-unprocessed.smi

> <i_m_source_file_index>
285

> <i_lp_mmshare_version>
43012

> <i_f3d_flags>
0

> <s_epik_input>
bjFbY0hdbmMoW05IMl0pYyhjMTIpbmMoQnIpbjJbQ0BASF0zW0NIMl1bQ0BASF0oW09IXSlbQ0BIXShPMylbQ0gyXVtPSF0=

> <s_epik_cmdline>
J2VwaWtfcHl0aG9uJywgJy1waCcsICc3LjAnLCAnLXRuJywgJzgnLCAnLW1hJywgJzIwMCcsICctbWV0YWxfYmluZGluZycsICctaW1hZScsICc8aW5maWxlLm1hZT4nLCAnLW9tYWUnLCAnPG91dGZpbGUubWFlPic=

> <r_lp_tautomer_probability>
1

> <r_epik_Ionization_Penalty>
0.000103242

> <r_epik_Ionization_Penalty_Charging>
0

> <r_epik_Ionization_Penalty_Neutral>
0.000103242

> <r_epik_State_Penalty>
-0

> <r_epik_Charging_Adjusted_Penalty>
0

> <i_epik_Tot_Q>
0

> <i_epik_Tot_abs_Q>
0

> <r_epik_Metal_State_Penalty>
-0

> <b_epik_Metal_Only>
0

> <s_epik_Chemistry_Notes>
This compound contains an acetal/aminal-like group ( X-CH(R)-Y where X, Y are N, S, or O) that may be acid/base labile, releasing an aldehyde.

> <s_lp_Force_Field>
OPLS_2005

> <r_lp_Energy>
33.2332

> <b_lp_Chiralities_Consistent>
1

> <s_lp_Variant>
AV-unprocessed.smi:285-4

> <Gold.Version>
5.8.1

> <Gold.Id.Protein>
6NUR|6NUR_protein|mol2

> <Gold.PLP.Fitness>
39.6068

> <Gold.PLP.PLP>
-29.6872

> <Gold.PLP.part.hbond>
-5.0000

> <Gold.PLP.part.metal>
0.0000

> <Gold.PLP.part.buried>
-4.6847

> <Gold.PLP.part.nonpolar>
-19.3760

> <Gold.PLP.part.repulsive>
0.3104

> <Gold.PLP.ligand.clash>
0.0000

> <Gold.PLP.ligand.torsion>
0.1300

> <Gold.PLP.Chemscore.Hbond>
3.3871

> <Gold.PLP.Chemscore.CHOScore>
0.0000

> <Gold.PLP.Chemscore.Metal>
0.0000

> <Gold.Chemscore.Hbonds>
donor molecule, donor type, donor heavy atom, donor atom, acceptor molecule, acceptor atom, score
      L1  H     1    20       P1  8028  0.95
      P1  H  6896  6908       L1    15  0.75
      P1  H  7997  8009       L1    18  0.41
      P1  H  7997  8010       L1    19  0.99

> <Gold.PLP.Chemscore.Internal.Correction>
0.0185

> <Gold.Rescore>
     Score         DG    S(hbond)    S(metal)    S(lipo)     H(rot)  DE(clash)    DE(int)     intcor
     11.01     -11.17       2.98        0.00      30.62       3.06       0.02       0.14       ----

> <Gold.Chemscore.Fitness>
11.0102

> <Gold.Chemscore.DG>
-11.1691

> <Gold.Chemscore.ZeroCoef>
-5.4800

> <Gold.Chemscore.Hbond>
2.9764

> <Gold.Chemscore.Metal>
0.0000

> <Gold.Chemscore.Lipo>
30.6247

> <Gold.Chemscore.Internal_Hbond>
0.0000

> <Gold.Chemscore.DEClash>
0.0234

> <Gold.Chemscore.DEInternal>
0.1354

> <Gold.Chemscore.Rot>
3.0607

> <Gold.Chemscore.Internal.Correction>
   9.000000E+99

> <Gold.Chemscore.Hbonds>
donor molecule, donor type, donor heavy atom, donor atom, acceptor molecule, acceptor atom, score
      L1  H     1    20       P1  8028  0.21
      P1  H  6896  6908       L1    15  0.66
      P1  H  7997  8009       L1    18  0.34
      P1  H  7997  8010       L1    19  0.87

> <Gold.Chemscore.Hbond.Weighted>
-9.9413

> <Gold.Chemscore.Metal.Weighted>
-0.0000

> <Gold.Chemscore.Lipo.Weighted>
-3.5831

> <Gold.Chemscore.Internal_Hbond.Weighted>
0.0000

> <Gold.Chemscore.DEClash.Weighted>
0.0234

> <Gold.Chemscore.DEInternal.Weighted>
0.1354

> <Gold.Chemscore.Rot.Weighted>
7.8354

> <Gold.Chemscore.Internal.Correction.Weighted>
   9.000000E+99

> <Gold.Protein.RotatedTorsions>
[ 6907 6896 6895 6894 ] final  -58.79 input  -60.11 | X-H torsion
[ 7974 7965 7964 7962 ] final   30.70 input  175.53 | X-H torsion
[ 8008 7997 7996 7995 ] final   32.11 input   59.86 | X-H torsion
[ 10167 10162 10161 10158 ] final  -81.96 input  -65.29 | X-H torsion
[ 10718 10713 10712 10709 ] final  134.67 input   66.30 | X-H torsion
[ 10763 10752 10751 10750 ] final  -32.47 input  -60.55 | X-H torsion
[ 11005 11000 10999 10996 ] final  -41.96 input  -57.11 | X-H torsion

> <Gold.Protein.ActiveResidues>
 VAL166  LYS551  ARG553  GLY616  TRP617  ASP618  TYR619  PRO620  LYS621  CYS622 
 ASP623  PHE694  ASN695  SER759  ASP760  ASP761  ALA762  ILE779  LEU786  VAL792 
 PHE793  MET794  SER795  GLU796  ALA797  LYS798  CYS799  TRP800  GLU811  SER814 

> <Gold.Protein.RotatedAtoms>
  150.7979  134.7052  159.6572 H   0  0  0  0  0  0  0  0  0  0  0  0  # atno 6907 bound_to 6896
  152.4094  134.6148  160.0045 H   0  0  0  0  0  0  0  0  0  0  0  0  # atno 6908 bound_to 6896
  151.6396  133.3290  159.3163 H   0  0  0  0  0  0  0  0  0  0  0  0  # atno 6909 bound_to 6896
  146.1596  139.6754  142.9043 H   0  0  0  0  0  0  0  0  0  0  0  0  # atno 7974 bound_to 7965
  155.1173  140.3245  155.4506 H   0  0  0  0  0  0  0  0  0  0  0  0  # atno 8008 bound_to 7997
  156.2673  140.2033  156.6243 H   0  0  0  0  0  0  0  0  0  0  0  0  # atno 8009 bound_to 7997
  154.6711  140.0536  157.0153 H   0  0  0  0  0  0  0  0  0  0  0  0  # atno 8010 bound_to 7997
  140.4364  143.2530  151.8687 H   0  0  0  0  0  0  0  0  0  0  0  0  # atno 10167 bound_to 10162
  157.4649  131.1076  150.9874 H   0  0  0  0  0  0  0  0  0  0  0  0  # atno 10718 bound_to 10713
  153.8143  135.6879  153.4836 H   0  0  0  0  0  0  0  0  0  0  0  0  # atno 10763 bound_to 10752
  153.1609  135.4580  154.9768 H   0  0  0  0  0  0  0  0  0  0  0  0  # atno 10764 bound_to 10752
  154.7954  135.3317  154.7621 H   0  0  0  0  0  0  0  0  0  0  0  0  # atno 10765 bound_to 10752
  141.0282  133.6832  156.2528 H   0  0  0  0  0  0  0  0  0  0  0  0  # atno 11005 bound_to 11000
  145.4622  141.0433  143.2745 LP  0  0  0  0  0  0  0  0  0  0  0  0  # atno 17320 bound_to 7965
  144.8009  139.6143  143.7072 LP  0  0  0  0  0  0  0  0  0  0  0  0  # atno 17321 bound_to 7965
  139.4787  144.5278  151.8710 LP  0  0  0  0  0  0  0  0  0  0  0  0  # atno 17342 bound_to 10162
  140.4369  144.2040  150.5889 LP  0  0  0  0  0  0  0  0  0  0  0  0  # atno 17343 bound_to 10162
  157.0659  130.5844  149.5394 LP  0  0  0  0  0  0  0  0  0  0  0  0  # atno 17370 bound_to 10713
  156.0046  130.5130  150.7783 LP  0  0  0  0  0  0  0  0  0  0  0  0  # atno 17371 bound_to 10713
  140.6454  134.5123  157.5573 LP  0  0  0  0  0  0  0  0  0  0  0  0  # atno 17394 bound_to 11000
  139.9190  134.8187  156.1272 LP  0  0  0  0  0  0  0  0  0  0  0  0  # atno 17395 bound_to 11000

$$$$
