AV-unprocessed.smi:3355|AV-procd|sdf|12963|dock3
  -GOLD-   2272019403D 1   1.00000     0.00000
 Structure written by MMmdl.
 45 46  0  0  0  0  0  0  0  0  1 V2000
  150.3778  138.4171  155.1118 C   0  0  0  0  0  0  0  0  0  0  0  0
  148.8622  138.3530  155.3308 C   0  0  0  0  0  0  0  0  0  0  0  0
  148.1055  139.2917  154.4404 C   0  0  0  0  0  0  0  0  0  0  0  0
  147.1161  138.8847  153.6351 N   0  0  0  0  0  0  0  0  0  0  0  0
  146.6600  140.0200  152.9975 N   0  0  0  0  0  0  0  0  0  0  0  0
  147.4151  141.0024  153.4852 C   0  0  0  0  0  0  0  0  0  0  0  0
  148.3321  140.6235  154.3886 N   0  0  0  0  0  0  0  0  0  0  0  0
  149.2826  141.4678  155.0918 C   0  0  0  0  0  0  0  0  0  0  0  0
  149.2247  141.2442  156.6089 C   0  0  0  0  0  0  0  0  0  0  0  0
  150.1227  142.1629  157.2932 N   0  0  0  0  0  0  0  0  0  0  0  0
  151.1551  141.7885  158.0673 C   0  0  0  0  0  0  0  0  0  0  0  0
  151.4416  140.6020  158.2378 O   0  0  0  0  0  0  0  0  0  0  0  0
  151.8815  142.8132  158.5886 N   0  0  0  0  0  0  0  0  0  0  0  0
  151.5805  144.2428  158.3612 C   0  0  0  0  0  0  0  0  0  0  0  0
  151.8512  145.1657  159.5679 C   0  0  0  0  0  0  0  0  0  0  0  0
  151.3423  144.6283  160.9192 C   0  0  0  0  0  0  0  0  0  0  0  0
  152.3557  143.7183  161.6451 C   0  0  1  0  0  0  0  0  0  0  0  0
  151.9182  143.4676  163.0966 C   0  0  0  0  0  0  0  0  0  0  0  0
  152.6112  142.3785  160.9258 C   0  0  0  0  0  0  0  0  0  0  0  0
  153.0355  142.5241  159.4531 C   0  0  0  0  0  0  0  0  0  0  0  0
  150.8960  137.7361  155.7871 H   0  0  0  0  0  0  0  0  0  0  0  0
  150.7592  139.4221  155.2952 H   0  0  0  0  0  0  0  0  0  0  0  0
  150.6444  138.1396  154.0924 H   0  0  0  0  0  0  0  0  0  0  0  0
  148.5056  137.3331  155.1968 H   0  0  0  0  0  0  0  0  0  0  0  0
  148.6382  138.6108  156.3666 H   0  0  0  0  0  0  0  0  0  0  0  0
  147.2926  142.0306  153.1772 H   0  0  0  0  0  0  0  0  0  0  0  0
  150.2874  141.2880  154.7118 H   0  0  0  0  0  0  0  0  0  0  0  0
  149.0483  142.5075  154.8590 H   0  0  0  0  0  0  0  0  0  0  0  0
  148.2077  141.3981  156.9734 H   0  0  0  0  0  0  0  0  0  0  0  0
  149.5032  140.2190  156.8533 H   0  0  0  0  0  0  0  0  0  0  0  0
  149.9509  143.1506  157.1741 H   0  0  0  0  0  0  0  0  0  0  0  0
  152.1470  144.5895  157.4961 H   0  0  0  0  0  0  0  0  0  0  0  0
  150.5280  144.3838  158.1116 H   0  0  0  0  0  0  0  0  0  0  0  0
  152.9131  145.4039  159.6371 H   0  0  0  0  0  0  0  0  0  0  0  0
  151.3631  146.1203  159.3678 H   0  0  0  0  0  0  0  0  0  0  0  0
  151.1422  145.4884  161.5595 H   0  0  0  0  0  0  0  0  0  0  0  0
  150.3838  144.1220  160.7953 H   0  0  0  0  0  0  0  0  0  0  0  0
  153.3052  144.2538  161.6909 H   0  0  0  0  0  0  0  0  0  0  0  0
  150.9624  142.9442  163.1375 H   0  0  0  0  0  0  0  0  0  0  0  0
  151.8078  144.4046  163.6434 H   0  0  0  0  0  0  0  0  0  0  0  0
  152.6521  142.8630  163.6307 H   0  0  0  0  0  0  0  0  0  0  0  0
  153.4029  141.8502  161.4584 H   0  0  0  0  0  0  0  0  0  0  0  0
  151.7308  141.7385  160.9990 H   0  0  0  0  0  0  0  0  0  0  0  0
  153.5236  141.6034  159.1283 H   0  0  0  0  0  0  0  0  0  0  0  0
  153.8058  143.2884  159.3452 H   0  0  0  0  0  0  0  0  0  0  0  0
  1  2  1  0  0  0  0
  1 21  1  0  0  0  0
  1 22  1  0  0  0  0
  1 23  1  0  0  0  0
  2  3  1  0  0  0  0
  2 24  1  0  0  0  0
  2 25  1  0  0  0  0
  3  7  1  0  0  0  0
  3  4  2  0  0  0  0
  4  5  1  0  0  0  0
  5  6  2  0  0  0  0
  6  7  1  0  0  0  0
  6 26  1  0  0  0  0
  7  8  1  0  0  0  0
  8  9  1  0  0  0  0
  8 27  1  0  0  0  0
  8 28  1  0  0  0  0
  9 10  1  0  0  0  0
  9 29  1  0  0  0  0
  9 30  1  0  0  0  0
 10 11  1  0  0  0  0
 10 31  1  0  0  0  0
 11 12  2  0  0  0  0
 11 13  1  0  0  0  0
 13 20  1  0  0  0  0
 13 14  1  0  0  0  0
 14 15  1  0  0  0  0
 14 32  1  0  0  0  0
 14 33  1  0  0  0  0
 15 16  1  0  0  0  0
 15 34  1  0  0  0  0
 15 35  1  0  0  0  0
 16 17  1  0  0  0  0
 16 36  1  0  0  0  0
 16 37  1  0  0  0  0
 17 18  1  0  0  0  0
 17 19  1  0  0  0  0
 17 38  1  0  0  0  0
 18 39  1  0  0  0  0
 18 40  1  0  0  0  0
 18 41  1  0  0  0  0
 19 20  1  0  0  0  0
 19 42  1  0  0  0  0
 19 43  1  0  0  0  0
 20 44  1  0  0  0  0
 20 45  1  0  0  0  0
M  END
> <s_m_source_file>
AV-unprocessed.smi

> <i_m_source_file_index>
3355

> <i_lp_mmshare_version>
43012

> <i_f3d_flags>
0

> <s_epik_input>
W0NIM11bQ0gyXWMxbm5bY0hdbjFbQ0gyXVtDSDJdW05IXUMoPU8pTjJbQ0gyXVtDSDJdW0NIMl1bQ0BASF0oW0NIM10pW0NIMl1bQ0gyXTI=

> <s_epik_cmdline>
J2VwaWtfcHl0aG9uJywgJy1waCcsICc3LjAnLCAnLXRuJywgJzgnLCAnLW1hJywgJzIwMCcsICctbWV0YWxfYmluZGluZycsICctaW1hZScsICc8aW5maWxlLm1hZT4nLCAnLW9tYWUnLCAnPG91dGZpbGUubWFlPic=

> <r_lp_tautomer_probability>
1

> <r_epik_Ionization_Penalty>
0.000387734

> <r_epik_Ionization_Penalty_Charging>
0

> <r_epik_Ionization_Penalty_Neutral>
0.000387734

> <r_epik_State_Penalty>
-0

> <r_epik_Charging_Adjusted_Penalty>
0

> <i_epik_Tot_Q>
0

> <i_epik_Tot_abs_Q>
0

> <r_epik_Metal_State_Penalty>
-0

> <b_epik_Metal_Only>
0

> <s_lp_Force_Field>
OPLS_2005

> <r_lp_Energy>
33.7292

> <b_lp_Chiralities_Consistent>
1

> <s_lp_Variant>
AV-unprocessed.smi:3355-1

> <Gold.Version>
5.8.1

> <Gold.Id.Protein>
6NUR|6NUR_protein|mol2

> <Gold.PLP.Fitness>
45.7694

> <Gold.PLP.PLP>
-45.9443

> <Gold.PLP.part.hbond>
0.0000

> <Gold.PLP.part.metal>
0.0000

> <Gold.PLP.part.buried>
-2.1279

> <Gold.PLP.part.nonpolar>
-43.4473

> <Gold.PLP.part.repulsive>
0.8613

> <Gold.PLP.ligand.clash>
0.0000

> <Gold.PLP.ligand.torsion>
0.0956

> <Gold.PLP.Chemscore.Hbond>
0.0000

> <Gold.PLP.Chemscore.CHOScore>
0.0000

> <Gold.PLP.Chemscore.Metal>
0.0000

> <Gold.Chemscore.Hbonds>
donor molecule, donor type, donor heavy atom, donor atom, acceptor molecule, acceptor atom, score
      L1  H    10    31       P1  8028  0.03

> <Gold.PLP.Chemscore.Internal.Correction>
0.0163

> <Gold.Rescore>
     Score         DG    S(hbond)    S(metal)    S(lipo)     H(rot)  DE(clash)    DE(int)     intcor
     12.52     -14.37       0.02        0.00     113.43       1.74       1.63       0.23       ----

> <Gold.Chemscore.Fitness>
12.5168

> <Gold.Chemscore.DG>
-14.3722

> <Gold.Chemscore.ZeroCoef>
-5.4800

> <Gold.Chemscore.Hbond>
0.0197

> <Gold.Chemscore.Metal>
0.0000

> <Gold.Chemscore.Lipo>
113.4253

> <Gold.Chemscore.Internal_Hbond>
0.0000

> <Gold.Chemscore.DEClash>
1.6267

> <Gold.Chemscore.DEInternal>
0.2287

> <Gold.Chemscore.Rot>
1.7360

> <Gold.Chemscore.Internal.Correction>
   9.000000E+99

> <Gold.Chemscore.Hbonds>
donor molecule, donor type, donor heavy atom, donor atom, acceptor molecule, acceptor atom, score
      L1  H    10    31       P1  8028  0.07

> <Gold.Chemscore.Hbond.Weighted>
-0.0658

> <Gold.Chemscore.Metal.Weighted>
-0.0000

> <Gold.Chemscore.Lipo.Weighted>
-13.2708

> <Gold.Chemscore.Internal_Hbond.Weighted>
0.0000

> <Gold.Chemscore.DEClash.Weighted>
1.6267

> <Gold.Chemscore.DEInternal.Weighted>
0.2287

> <Gold.Chemscore.Rot.Weighted>
4.4443

> <Gold.Chemscore.Internal.Correction.Weighted>
   9.000000E+99

> <Gold.Protein.RotatedTorsions>
[ 6907 6896 6895 6894 ] final  -31.62 input  -60.11 | X-H torsion
[ 7974 7965 7964 7962 ] final  166.92 input  175.53 | X-H torsion
[ 8008 7997 7996 7995 ] final  -76.90 input   59.86 | X-H torsion
[ 10167 10162 10161 10158 ] final   53.50 input  -65.29 | X-H torsion
[ 10718 10713 10712 10709 ] final  -42.05 input   66.30 | X-H torsion
[ 10763 10752 10751 10750 ] final -159.23 input  -60.55 | X-H torsion
[ 11005 11000 10999 10996 ] final  140.02 input  -57.11 | X-H torsion

> <Gold.Protein.ActiveResidues>
 VAL166  LYS551  ARG553  GLY616  TRP617  ASP618  TYR619  PRO620  LYS621  CYS622 
 ASP623  PHE694  ASN695  SER759  ASP760  ASP761  ALA762  ILE779  LEU786  VAL792 
 PHE793  MET794  SER795  GLU796  ALA797  LYS798  CYS799  TRP800  GLU811  SER814 

> <Gold.Protein.RotatedAtoms>
  151.0896  134.9908  159.8395 H   0  0  0  0  0  0  0  0  0  0  0  0  # atno 6907 bound_to 6896
  152.5428  134.2082  159.8749 H   0  0  0  0  0  0  0  0  0  0  0  0  # atno 6908 bound_to 6896
  151.2117  133.4508  159.2632 H   0  0  0  0  0  0  0  0  0  0  0  0  # atno 6909 bound_to 6896
  144.7444  139.8686  143.6387 H   0  0  0  0  0  0  0  0  0  0  0  0  # atno 7974 bound_to 7965
  154.5547  140.0719  156.8724 H   0  0  0  0  0  0  0  0  0  0  0  0  # atno 8008 bound_to 7997
  155.2926  140.3379  155.4233 H   0  0  0  0  0  0  0  0  0  0  0  0  # atno 8009 bound_to 7997
  156.1991  140.1715  156.7922 H   0  0  0  0  0  0  0  0  0  0  0  0  # atno 8010 bound_to 7997
  140.2401  144.3592  150.6383 H   0  0  0  0  0  0  0  0  0  0  0  0  # atno 10167 bound_to 10162
  156.2638  130.4199  149.8513 H   0  0  0  0  0  0  0  0  0  0  0  0  # atno 10718 bound_to 10713
  154.7492  135.3088  154.8589 H   0  0  0  0  0  0  0  0  0  0  0  0  # atno 10763 bound_to 10752
  153.9381  135.6778  153.4749 H   0  0  0  0  0  0  0  0  0  0  0  0  # atno 10764 bound_to 10752
  153.1088  135.4876  154.8925 H   0  0  0  0  0  0  0  0  0  0  0  0  # atno 10765 bound_to 10752
  140.0297  134.9358  157.0637 H   0  0  0  0  0  0  0  0  0  0  0  0  # atno 11005 bound_to 11000
  146.1297  139.4329  143.0177 LP  0  0  0  0  0  0  0  0  0  0  0  0  # atno 17320 bound_to 7965
  145.7182  141.0084  143.1417 LP  0  0  0  0  0  0  0  0  0  0  0  0  # atno 17321 bound_to 7965
  140.6120  143.2170  151.6868 LP  0  0  0  0  0  0  0  0  0  0  0  0  # atno 17342 bound_to 10162
  139.5080  144.3626  152.0547 LP  0  0  0  0  0  0  0  0  0  0  0  0  # atno 17343 bound_to 10162
  156.6019  130.8550  151.3434 LP  0  0  0  0  0  0  0  0  0  0  0  0  # atno 17370 bound_to 10713
  157.7260  130.9623  150.1637 LP  0  0  0  0  0  0  0  0  0  0  0  0  # atno 17371 bound_to 10713
  140.4247  134.1843  155.7165 LP  0  0  0  0  0  0  0  0  0  0  0  0  # atno 17394 bound_to 11000
  141.1823  133.8387  157.1212 LP  0  0  0  0  0  0  0  0  0  0  0  0  # atno 17395 bound_to 11000

$$$$
