AV-unprocessed.smi:3330|AV-procd|sdf|12808|dock6
  -GOLD-   2272019173D 1   1.00000     0.00000
 Structure written by MMmdl.
 38 39  0  0  0  0  0  0  0  0  1 V2000
  149.6922  143.7172  158.6162 C   0  0  0  0  0  0  0  0  0  0  0  0
  150.9338  142.9292  158.1557 C   0  0  1  0  0  0  0  0  0  0  0  0
  150.9578  142.8962  156.6964 N   0  0  0  0  0  0  0  0  0  0  0  0
  150.1261  141.8306  156.1567 C   0  0  0  0  0  0  0  0  0  0  0  0
  149.4494  142.3105  154.8613 C   0  0  0  0  0  0  0  0  0  0  0  0
  148.8533  141.1981  154.1109 N   0  0  0  0  0  0  0  0  0  0  0  0
  147.5795  141.1568  153.6973 C   0  0  0  0  0  0  0  0  0  0  0  0
  146.7106  142.0137  153.8561 O   0  0  0  0  0  0  0  0  0  0  0  0
  147.3551  139.8528  152.9631 C   0  0  0  0  0  0  0  0  0  0  0  0
  148.6869  139.2969  153.0600 N   0  0  0  0  0  0  0  0  0  0  0  0
  149.5269  140.0970  153.7293 C   0  0  0  0  0  0  0  0  0  0  0  0
  150.7128  139.8536  153.9475 O   0  0  0  0  0  0  0  0  0  0  0  0
  152.2685  143.5497  158.6524 C   0  0  1  0  0  0  0  0  0  0  0  0
  152.2501  145.0896  158.6609 C   0  0  0  0  0  0  0  0  0  0  0  0
  152.6336  143.0589  159.9785 N   0  0  0  0  0  0  0  0  0  0  0  0
  153.6570  142.1965  160.3136 C   0  0  0  0  0  0  0  0  0  0  0  0
  153.6206  142.0245  161.6675 C   0  0  0  0  0  0  0  0  0  0  0  0
  152.5278  142.8355  162.0819 C   0  0  0  0  0  0  0  0  0  0  0  0
  151.9401  143.4538  161.0713 N   0  0  0  0  0  0  0  0  0  0  0  0
  149.6047  143.7262  159.7020 H   0  0  0  0  0  0  0  0  0  0  0  0
  148.7702  143.2777  158.2363 H   0  0  0  0  0  0  0  0  0  0  0  0
  149.7306  144.7527  158.2764 H   0  0  0  0  0  0  0  0  0  0  0  0
  150.8718  141.9094  158.5386 H   0  0  0  0  0  0  0  0  0  0  0  0
  151.9100  142.7284  156.4034 H   0  0  0  0  0  0  0  0  0  0  0  0
  150.7195  140.9375  155.9560 H   0  0  0  0  0  0  0  0  0  0  0  0
  149.3688  141.5574  156.8913 H   0  0  0  0  0  0  0  0  0  0  0  0
  148.6634  143.0238  155.1147 H   0  0  0  0  0  0  0  0  0  0  0  0
  150.1551  142.8675  154.2422 H   0  0  0  0  0  0  0  0  0  0  0  0
  146.6200  139.2274  153.4702 H   0  0  0  0  0  0  0  0  0  0  0  0
  147.0609  140.0144  151.9262 H   0  0  0  0  0  0  0  0  0  0  0  0
  148.9415  138.4039  152.6633 H   0  0  0  0  0  0  0  0  0  0  0  0
  153.0621  143.2373  157.9714 H   0  0  0  0  0  0  0  0  0  0  0  0
  152.1614  145.4972  157.6545 H   0  0  0  0  0  0  0  0  0  0  0  0
  153.1722  145.4888  159.0846 H   0  0  0  0  0  0  0  0  0  0  0  0
  151.4196  145.4754  159.2529 H   0  0  0  0  0  0  0  0  0  0  0  0
  154.3172  141.7784  159.5679 H   0  0  0  0  0  0  0  0  0  0  0  0
  154.2741  141.4111  162.2699 H   0  0  0  0  0  0  0  0  0  0  0  0
  152.1449  142.9895  163.0797 H   0  0  0  0  0  0  0  0  0  0  0  0
  1  2  1  0  0  0  0
  1 20  1  0  0  0  0
  1 21  1  0  0  0  0
  1 22  1  0  0  0  0
  2  3  1  0  0  0  0
  2 13  1  0  0  0  0
  2 23  1  0  0  0  0
  3  4  1  0  0  0  0
  3 24  1  0  0  0  0
  4  5  1  0  0  0  0
  4 25  1  0  0  0  0
  4 26  1  0  0  0  0
  5  6  1  0  0  0  0
  5 27  1  0  0  0  0
  5 28  1  0  0  0  0
  6 11  1  0  0  0  0
  6  7  1  0  0  0  0
  7  8  2  0  0  0  0
  7  9  1  0  0  0  0
  9 10  1  0  0  0  0
  9 29  1  0  0  0  0
  9 30  1  0  0  0  0
 10 11  1  0  0  0  0
 10 31  1  0  0  0  0
 11 12  2  0  0  0  0
 13 14  1  0  0  0  0
 13 15  1  0  0  0  0
 13 32  1  0  0  0  0
 14 33  1  0  0  0  0
 14 34  1  0  0  0  0
 14 35  1  0  0  0  0
 15 19  1  0  0  0  0
 15 16  1  0  0  0  0
 16 17  2  0  0  0  0
 16 36  1  0  0  0  0
 17 18  1  0  0  0  0
 17 37  1  0  0  0  0
 18 19  2  0  0  0  0
 18 38  1  0  0  0  0
M  END
> <s_m_source_file>
AV-unprocessed.smi

> <i_m_source_file_index>
3330

> <i_lp_mmshare_version>
43012

> <i_f3d_flags>
0

> <s_epik_input>
bjFbY0hdW2NIXVtjSF1uMVtDQEBIXShbQ0gzXSlbQ0BIXShbQ0gzXSlbTkhdW0NIMl1bQ0gyXU4yQyg9TylbQ0gyXVtOSF1DMj1P

> <s_epik_cmdline>
J2VwaWtfcHl0aG9uJywgJy1waCcsICc3LjAnLCAnLXRuJywgJzgnLCAnLW1hJywgJzIwMCcsICctbWV0YWxfYmluZGluZycsICctaW1hZScsICc8aW5maWxlLm1hZT4nLCAnLW9tYWUnLCAnPG91dGZpbGUubWFlPic=

> <r_lp_tautomer_probability>
1

> <r_epik_Ionization_Penalty>
2.2997

> <r_epik_Ionization_Penalty_Charging>
0

> <r_epik_Ionization_Penalty_Neutral>
2.2997

> <r_epik_State_Penalty>
2.44917

> <r_epik_Charging_Adjusted_Penalty>
2.44917

> <i_epik_Tot_Q>
0

> <i_epik_Tot_abs_Q>
0

> <r_epik_Metal_State_Penalty>
2.52438

> <b_epik_Metal_Only>
0

> <s_lp_Force_Field>
OPLS_2005

> <r_lp_Energy>
27.2157

> <b_lp_Chiralities_Consistent>
1

> <s_lp_Variant>
AV-unprocessed.smi:3330-8

> <Gold.Version>
5.8.1

> <Gold.Id.Protein>
6NUR|6NUR_protein|mol2

> <Gold.PLP.Fitness>
49.7516

> <Gold.PLP.PLP>
-46.3017

> <Gold.PLP.part.hbond>
-3.1659

> <Gold.PLP.part.metal>
0.0000

> <Gold.PLP.part.buried>
-2.5986

> <Gold.PLP.part.nonpolar>
-41.2549

> <Gold.PLP.part.repulsive>
0.5064

> <Gold.PLP.ligand.clash>
0.0000

> <Gold.PLP.ligand.torsion>
1.3317

> <Gold.PLP.Chemscore.Hbond>
2.0000

> <Gold.PLP.Chemscore.CHOScore>
0.0000

> <Gold.PLP.Chemscore.Metal>
0.0000

> <Gold.Chemscore.Hbonds>
donor molecule, donor type, donor heavy atom, donor atom, acceptor molecule, acceptor atom, score
      L1  H    10    31       P1  7948  0.37
      P1  H  7989  7998       L1    12  0.76

> <Gold.PLP.Chemscore.Internal.Correction>
0.1134

> <Gold.Rescore>
     Score         DG    S(hbond)    S(metal)    S(lipo)     H(rot)  DE(clash)    DE(int)     intcor
     13.69     -16.69       1.93        0.00      97.46       2.60       0.47       2.53       ----

> <Gold.Chemscore.Fitness>
13.6905

> <Gold.Chemscore.DG>
-16.6921

> <Gold.Chemscore.ZeroCoef>
-5.4800

> <Gold.Chemscore.Hbond>
1.9319

> <Gold.Chemscore.Metal>
0.0000

> <Gold.Chemscore.Lipo>
97.4630

> <Gold.Chemscore.Internal_Hbond>
0.0000

> <Gold.Chemscore.DEClash>
0.4673

> <Gold.Chemscore.DEInternal>
2.5343

> <Gold.Chemscore.Rot>
2.5952

> <Gold.Chemscore.Internal.Correction>
   9.000000E+99

> <Gold.Chemscore.Hbonds>
donor molecule, donor type, donor heavy atom, donor atom, acceptor molecule, acceptor atom, score
      L1  H    10    31       P1  7948  0.37
      P1  H  7989  7998       L1    12  0.65

> <Gold.Chemscore.Hbond.Weighted>
-6.4526

> <Gold.Chemscore.Metal.Weighted>
-0.0000

> <Gold.Chemscore.Lipo.Weighted>
-11.4032

> <Gold.Chemscore.Internal_Hbond.Weighted>
0.0000

> <Gold.Chemscore.DEClash.Weighted>
0.4673

> <Gold.Chemscore.DEInternal.Weighted>
2.5343

> <Gold.Chemscore.Rot.Weighted>
6.6437

> <Gold.Chemscore.Internal.Correction.Weighted>
   9.000000E+99

> <Gold.Protein.RotatedTorsions>
[ 6907 6896 6895 6894 ] final  166.19 input  -60.11 | X-H torsion
[ 7974 7965 7964 7962 ] final  -12.46 input  175.53 | X-H torsion
[ 8008 7997 7996 7995 ] final  132.39 input   59.86 | X-H torsion
[ 10167 10162 10161 10158 ] final  -17.45 input  -65.29 | X-H torsion
[ 10718 10713 10712 10709 ] final   68.73 input   66.30 | X-H torsion
[ 10763 10752 10751 10750 ] final -153.20 input  -60.55 | X-H torsion
[ 11005 11000 10999 10996 ] final  -23.63 input  -57.11 | X-H torsion

> <Gold.Protein.ActiveResidues>
 VAL166  LYS551  ARG553  GLY616  TRP617  ASP618  TYR619  PRO620  LYS621  CYS622 
 ASP623  PHE694  ASN695  SER759  ASP760  ASP761  ALA762  ILE779  LEU786  VAL792 
 PHE793  MET794  SER795  GLU796  ALA797  LYS798  CYS799  TRP800  GLU811  SER814 

> <Gold.Protein.RotatedAtoms>
  151.8828  133.3499  159.3771 H   0  0  0  0  0  0  0  0  0  0  0  0  # atno 6907 bound_to 6896
  150.7123  134.5001  159.5566 H   0  0  0  0  0  0  0  0  0  0  0  0  # atno 6908 bound_to 6896
  152.2556  134.8088  160.0490 H   0  0  0  0  0  0  0  0  0  0  0  0  # atno 6909 bound_to 6896
  146.2151  140.3061  142.8379 H   0  0  0  0  0  0  0  0  0  0  0  0  # atno 7974 bound_to 7965
  156.2982  140.2547  156.3082 H   0  0  0  0  0  0  0  0  0  0  0  0  # atno 8008 bound_to 7997
  154.9352  140.0397  157.2087 H   0  0  0  0  0  0  0  0  0  0  0  0  # atno 8009 bound_to 7997
  154.8180  140.2855  155.5811 H   0  0  0  0  0  0  0  0  0  0  0  0  # atno 8010 bound_to 7997
  140.7247  143.5014  150.9864 H   0  0  0  0  0  0  0  0  0  0  0  0  # atno 10167 bound_to 10162
  157.6306  130.9389  150.0417 H   0  0  0  0  0  0  0  0  0  0  0  0  # atno 10718 bound_to 10713
  154.7943  135.3218  154.7703 H   0  0  0  0  0  0  0  0  0  0  0  0  # atno 10763 bound_to 10752
  153.8385  135.6873  153.4810 H   0  0  0  0  0  0  0  0  0  0  0  0  # atno 10764 bound_to 10752
  153.1627  135.4654  154.9736 H   0  0  0  0  0  0  0  0  0  0  0  0  # atno 10765 bound_to 10752
  140.8770  133.7680  156.0255 H   0  0  0  0  0  0  0  0  0  0  0  0  # atno 11005 bound_to 11000
  144.9022  140.7656  143.5860 LP  0  0  0  0  0  0  0  0  0  0  0  0  # atno 17320 bound_to 7965
  145.2988  139.1858  143.4701 LP  0  0  0  0  0  0  0  0  0  0  0  0  # atno 17321 bound_to 7965
  139.8724  143.7176  152.3165 LP  0  0  0  0  0  0  0  0  0  0  0  0  # atno 17342 bound_to 10162
  139.7429  144.7555  151.0624 LP  0  0  0  0  0  0  0  0  0  0  0  0  # atno 17343 bound_to 10162
  156.1507  130.3642  149.9443 LP  0  0  0  0  0  0  0  0  0  0  0  0  # atno 17370 bound_to 10713
  156.7463  130.9098  151.3635 LP  0  0  0  0  0  0  0  0  0  0  0  0  # atno 17371 bound_to 10713
  140.8506  134.2958  157.5277 LP  0  0  0  0  0  0  0  0  0  0  0  0  # atno 17394 bound_to 11000
  139.8716  134.9466  156.3942 LP  0  0  0  0  0  0  0  0  0  0  0  0  # atno 17395 bound_to 11000

$$$$
