AV-unprocessed.smi:44|AV-procd|sdf|401|dock4
  -GOLD-   2262016253D 1   1.00000     0.00000
 Structure written by MMmdl.
 29 31  0  0  0  0  0  0  0  0  3 V2000
  148.7708  139.0296  154.6633 O   0  0  0  0  0  0  0  0  0  0  0  0
  149.8810  139.3419  155.0890 C   0  0  0  0  0  0  0  0  0  0  0  0
  151.0786  138.7120  154.8640 N   0  5  0  0  0  0  0  0  0  0  0  0
  152.2661  139.1814  155.4141 C   0  0  0  0  0  0  0  0  0  0  0  0
  152.4243  140.2085  156.1709 N   0  0  0  0  0  0  0  0  0  0  0  0
  151.2518  140.9227  156.4614 C   0  0  0  0  0  0  0  0  0  0  0  0
  150.0227  140.5490  155.9693 C   0  0  0  0  0  0  0  0  0  0  0  0
  149.0669  141.4271  156.4042 N   0  3  0  0  0  0  0  0  0  0  0  0
  149.7600  142.2955  157.1408 C   0  0  0  0  0  0  0  0  0  0  0  0
  151.1006  142.0517  157.2297 N   0  0  0  0  0  0  0  0  0  0  0  0
  152.0986  142.8774  157.9705 C   0  0  1  0  0  0  0  0  0  0  0  0
  151.9001  144.3701  157.6808 C   0  0  0  0  0  0  0  0  0  0  0  0
  152.2515  144.9794  159.0198 C   0  0  0  0  0  0  0  0  0  0  0  0
  151.6598  143.9349  159.9680 C   0  0  2  0  0  0  0  0  0  0  0  0
  152.1699  143.9406  161.4192 C   0  0  0  0  0  0  0  0  0  0  0  0
  151.6073  142.8913  162.1791 O   0  0  0  0  0  0  0  0  0  0  0  0
  151.9012  142.6799  159.3397 O   0  0  0  0  0  0  0  0  0  0  0  0
  148.0740  141.4221  156.2086 H   0  0  0  0  0  0  0  0  0  0  0  0
  153.0782  142.5015  157.6725 H   0  0  0  0  0  0  0  0  0  0  0  0
  150.5769  144.0650  159.9899 H   0  0  0  0  0  0  0  0  0  0  0  0
  153.1201  138.5610  155.1309 H   0  0  0  0  0  0  0  0  0  0  0  0
  149.2990  143.1335  157.6320 H   0  0  0  0  0  0  0  0  0  0  0  0
  152.5376  144.7030  156.8616 H   0  0  0  0  0  0  0  0  0  0  0  0
  150.8584  144.5772  157.4311 H   0  0  0  0  0  0  0  0  0  0  0  0
  153.3350  145.0485  159.1192 H   0  0  0  0  0  0  0  0  0  0  0  0
  151.8275  145.9737  159.1626 H   0  0  0  0  0  0  0  0  0  0  0  0
  153.2531  143.8160  161.4284 H   0  0  0  0  0  0  0  0  0  0  0  0
  151.9542  144.8965  161.8974 H   0  0  0  0  0  0  0  0  0  0  0  0
  152.0290  142.8746  163.0247 H   0  0  0  0  0  0  0  0  0  0  0  0
  1  2  2  0  0  0  0
  2  7  1  0  0  0  0
  2  3  1  0  0  0  0
  3  4  1  0  0  0  0
  4 21  1  0  0  0  0
  4  5  2  0  0  0  0
  5  6  1  0  0  0  0
  6 10  1  0  0  0  0
  6  7  2  0  0  0  0
  7  8  1  0  0  0  0
  8  9  2  0  0  0  0
  8 18  1  0  0  0  0
  9 10  1  0  0  0  0
  9 22  1  0  0  0  0
 10 11  1  0  0  0  0
 11 19  1  0  0  0  0
 11 17  1  0  0  0  0
 11 12  1  0  0  0  0
 12 13  1  0  0  0  0
 12 23  1  0  0  0  0
 12 24  1  0  0  0  0
 13 14  1  0  0  0  0
 13 25  1  0  0  0  0
 13 26  1  0  0  0  0
 14 20  1  0  0  0  0
 14 15  1  0  0  0  0
 14 17  1  0  0  0  0
 15 16  1  0  0  0  0
 15 27  1  0  0  0  0
 15 28  1  0  0  0  0
 16 29  1  0  0  0  0
M  CHG  1   3  -1
M  CHG  1   8   1
M  END
> <s_m_source_file>
AV-unprocessed.smi

> <i_m_source_file_index>
44

> <i_lp_mmshare_version>
43012

> <i_f3d_flags>
0

> <s_epik_input>
bjFbY0hdW25IXWMoPU8pYyhjMTIpbltjSF1uMltDQEhdM1tDSDJdW0NIMl1bQ0BIXShPMylbQ0gyXVtPSF0=

> <s_epik_cmdline>
J2VwaWtfcHl0aG9uJywgJy1waCcsICc3LjAnLCAnLXRuJywgJzgnLCAnLW1hJywgJzIwMCcsICctbWV0YWxfYmluZGluZycsICctaW1hZScsICc8aW5maWxlLm1hZT4nLCAnLW9tYWUnLCAnPG91dGZpbGUubWFlPic=

> <r_lp_tautomer_probability>
0.144281

> <r_epik_Ionization_Penalty>
5.63685

> <r_epik_Ionization_Penalty_Charging>
5.58669

> <r_epik_Ionization_Penalty_Neutral>
0.0501585

> <r_epik_State_Penalty>
1.20809

> <r_epik_Charging_Adjusted_Penalty>
6.79478

> <i_epik_Tot_Q>
0

> <i_epik_Tot_abs_Q>
2

> <r_epik_Metal_State_Penalty>
1.52487

> <b_epik_Metal_Only>
0

> <s_epik_Chemistry_Notes>
This compound contains an acetal/aminal-like group ( X-CH(R)-Y where X, Y are N, S, or O) that may be acid/base labile, releasing an aldehyde.

> <s_lp_Force_Field>
OPLS_2005

> <r_lp_Energy>
46.8975

> <b_lp_Chiralities_Consistent>
1

> <s_lp_Variant>
AV-unprocessed.smi:44-7

> <Gold.Version>
5.8.1

> <Gold.Id.Protein>
6NUR|6NUR_protein|mol2

> <Gold.PLP.Fitness>
40.4049

> <Gold.PLP.PLP>
-34.0210

> <Gold.PLP.part.hbond>
-3.0000

> <Gold.PLP.part.metal>
0.0000

> <Gold.PLP.part.buried>
-2.9355

> <Gold.PLP.part.nonpolar>
-27.8562

> <Gold.PLP.part.repulsive>
0.2485

> <Gold.PLP.ligand.clash>
0.0000

> <Gold.PLP.ligand.torsion>
0.2776

> <Gold.PLP.Chemscore.Hbond>
1.8800

> <Gold.PLP.Chemscore.CHOScore>
0.4305

> <Gold.PLP.Chemscore.Metal>
0.0000

> <Gold.Chemscore.Hbonds>
donor molecule, donor type, donor heavy atom, donor atom, acceptor molecule, acceptor atom, score
      P1  H  6933  6945       L1    16  0.88
      P1  H  7997  8009       L1     5  1.00
      L1  C     9    22       P1  8028  0.43

> <Gold.PLP.Chemscore.Internal.Correction>
0.0077

> <Gold.Rescore>
     Score         DG    S(hbond)    S(metal)    S(lipo)     H(rot)  DE(clash)    DE(int)     intcor
     11.29     -12.02       1.73        0.00      56.28       2.27       0.53       0.21       ----

> <Gold.Chemscore.Fitness>
11.2862

> <Gold.Chemscore.DG>
-12.0196

> <Gold.Chemscore.ZeroCoef>
-5.4800

> <Gold.Chemscore.Hbond>
1.7280

> <Gold.Chemscore.Metal>
0.0000

> <Gold.Chemscore.Lipo>
56.2790

> <Gold.Chemscore.Internal_Hbond>
0.0000

> <Gold.Chemscore.DEClash>
0.5270

> <Gold.Chemscore.DEInternal>
0.2063

> <Gold.Chemscore.Rot>
2.2720

> <Gold.Chemscore.Internal.Correction>
   9.000000E+99

> <Gold.Chemscore.Hbonds>
donor molecule, donor type, donor heavy atom, donor atom, acceptor molecule, acceptor atom, score
      P1  H  6933  6945       L1    16  0.60
      P1  H  7997  8009       L1     5  0.24

> <Gold.Chemscore.Hbond.Weighted>
-5.7714

> <Gold.Chemscore.Metal.Weighted>
-0.0000

> <Gold.Chemscore.Lipo.Weighted>
-6.5846

> <Gold.Chemscore.Internal_Hbond.Weighted>
0.0000

> <Gold.Chemscore.DEClash.Weighted>
0.5270

> <Gold.Chemscore.DEInternal.Weighted>
0.2063

> <Gold.Chemscore.Rot.Weighted>
5.8164

> <Gold.Chemscore.Internal.Correction.Weighted>
   9.000000E+99

> <Gold.Protein.RotatedTorsions>
[ 6907 6896 6895 6894 ] final -147.67 input  -60.11 | X-H torsion
[ 7974 7965 7964 7962 ] final  -29.11 input  175.53 | X-H torsion
[ 8008 7997 7996 7995 ] final -171.67 input   59.86 | X-H torsion
[ 10167 10162 10161 10158 ] final -117.08 input  -65.29 | X-H torsion
[ 10718 10713 10712 10709 ] final  105.78 input   66.30 | X-H torsion
[ 10763 10752 10751 10750 ] final   61.79 input  -60.55 | X-H torsion
[ 11005 11000 10999 10996 ] final   27.00 input  -57.11 | X-H torsion

> <Gold.Protein.ActiveResidues>
 VAL166  LYS551  ARG553  GLY616  TRP617  ASP618  TYR619  PRO620  LYS621  CYS622 
 ASP623  PHE694  ASN695  SER759  ASP760  ASP761  ALA762  ILE779  LEU786  VAL792 
 PHE793  MET794  SER795  GLU796  ALA797  LYS798  CYS799  TRP800  GLU811  SER814 

> <Gold.Protein.RotatedAtoms>
  151.1590  133.4858  159.2594 H   0  0  0  0  0  0  0  0  0  0  0  0  # atno 6907 bound_to 6896
  151.1474  135.0210  159.8663 H   0  0  0  0  0  0  0  0  0  0  0  0  # atno 6908 bound_to 6896
  152.5463  134.1477  159.8558 H   0  0  0  0  0  0  0  0  0  0  0  0  # atno 6909 bound_to 6896
  146.1240  140.5370  142.8723 H   0  0  0  0  0  0  0  0  0  0  0  0  # atno 7974 bound_to 7965
  155.9346  140.1097  157.1105 H   0  0  0  0  0  0  0  0  0  0  0  0  # atno 8008 bound_to 7997
  154.4077  140.1231  156.4913 H   0  0  0  0  0  0  0  0  0  0  0  0  # atno 8009 bound_to 7997
  155.7038  140.3471  155.4946 H   0  0  0  0  0  0  0  0  0  0  0  0  # atno 8010 bound_to 7997
  140.0722  143.4866  152.1973 H   0  0  0  0  0  0  0  0  0  0  0  0  # atno 10167 bound_to 10162
  157.6693  131.0835  150.5908 H   0  0  0  0  0  0  0  0  0  0  0  0  # atno 10718 bound_to 10713
  152.9961  135.5488  154.6090 H   0  0  0  0  0  0  0  0  0  0  0  0  # atno 10763 bound_to 10752
  154.5415  135.2820  155.1093 H   0  0  0  0  0  0  0  0  0  0  0  0  # atno 10764 bound_to 10752
  154.2369  135.6423  153.5246 H   0  0  0  0  0  0  0  0  0  0  0  0  # atno 10765 bound_to 10752
  140.3309  134.2438  155.7702 H   0  0  0  0  0  0  0  0  0  0  0  0  # atno 11005 bound_to 11000
  144.7624  140.5453  143.6726 LP  0  0  0  0  0  0  0  0  0  0  0  0  # atno 17320 bound_to 7965
  145.5405  139.1475  143.3449 LP  0  0  0  0  0  0  0  0  0  0  0  0  # atno 17321 bound_to 7965
  139.5829  144.7518  151.3593 LP  0  0  0  0  0  0  0  0  0  0  0  0  # atno 17342 bound_to 10162
  140.7120  143.7366  150.7584 LP  0  0  0  0  0  0  0  0  0  0  0  0  # atno 17343 bound_to 10162
  156.6208  130.4405  149.5823 LP  0  0  0  0  0  0  0  0  0  0  0  0  # atno 17370 bound_to 10713
  156.2357  130.6821  151.1507 LP  0  0  0  0  0  0  0  0  0  0  0  0  # atno 17371 bound_to 10713
  141.2063  133.7836  157.0182 LP  0  0  0  0  0  0  0  0  0  0  0  0  # atno 17394 bound_to 11000
  140.0861  134.9620  157.1702 LP  0  0  0  0  0  0  0  0  0  0  0  0  # atno 17395 bound_to 11000

$$$$
