AV-unprocessed.smi:1395|AV-procd|sdf|5673|dock2
  -GOLD-   22720 5293D 1   1.00000     0.00000
 Structure written by MMmdl.
 42 43  0  0  0  0  0  0  0  0  3 V2000
  151.0537  142.3972  156.9863 C   0  0  0  0  0  0  0  0  0  0  0  0
  151.9261  142.1435  158.2049 C   0  0  0  0  0  0  0  0  0  0  0  0
  152.5470  143.2352  158.8485 C   0  0  0  0  0  0  0  0  0  0  0  0
  153.3542  142.9988  159.9745 C   0  0  0  0  0  0  0  0  0  0  0  0
  153.5075  141.6720  160.4116 C   0  0  0  0  0  0  0  0  0  0  0  0
  152.9176  140.6230  159.8029 N   0  0  0  0  0  0  0  0  0  0  0  0
  152.1365  140.8337  158.7138 C   0  0  0  0  0  0  0  0  0  0  0  0
  151.4777  139.7757  158.0262 N   0  0  0  0  0  0  0  0  0  0  0  0
  151.7248  139.2981  156.7936 C   0  0  0  0  0  0  0  0  0  0  0  0
  152.5499  139.7550  156.0023 O   0  0  0  0  0  0  0  0  0  0  0  0
  150.9457  138.2415  156.5193 N   0  0  0  0  0  0  0  0  0  0  0  0
  150.9601  137.4769  155.2720 C   0  0  2  0  0  0  0  0  0  0  0  0
  150.7960  138.4181  154.0662 C   0  0  0  0  0  0  0  0  0  0  0  0
  149.3740  139.0039  153.9810 C   0  0  0  0  0  0  0  0  0  0  0  0
  148.3441  137.9336  153.9562 N   0  3  2  0  0  0  0  0  0  0  0  0
  146.9774  138.4788  153.7599 C   0  0  0  0  0  0  0  0  0  0  0  0
  146.8556  139.1273  152.3771 C   0  0  0  0  0  0  0  0  0  0  0  0
  146.6214  140.4519  152.4479 N   0  5  0  0  0  0  0  0  0  0  0  0
  146.9581  138.4303  151.3698 O   0  0  0  0  0  0  0  0  0  0  0  0
  148.4509  137.0369  155.1392 C   0  0  0  0  0  0  0  0  0  0  0  0
  149.8508  136.4070  155.2356 C   0  0  0  0  0  0  0  0  0  0  0  0
  150.9935  143.4613  156.7559 H   0  0  0  0  0  0  0  0  0  0  0  0
  150.0402  142.0343  157.1593 H   0  0  0  0  0  0  0  0  0  0  0  0
  151.4617  141.8873  156.1131 H   0  0  0  0  0  0  0  0  0  0  0  0
  152.4082  144.2436  158.4867 H   0  0  0  0  0  0  0  0  0  0  0  0
  153.8431  143.8127  160.4892 H   0  0  0  0  0  0  0  0  0  0  0  0
  154.1184  141.4456  161.2729 H   0  0  0  0  0  0  0  0  0  0  0  0
  150.7446  139.3163  158.5457 H   0  0  0  0  0  0  0  0  0  0  0  0
  150.2911  137.9424  157.2270 H   0  0  0  0  0  0  0  0  0  0  0  0
  151.9311  136.9847  155.1926 H   0  0  0  0  0  0  0  0  0  0  0  0
  151.5309  139.2228  154.1108 H   0  0  0  0  0  0  0  0  0  0  0  0
  151.0080  137.8657  153.1498 H   0  0  0  0  0  0  0  0  0  0  0  0
  149.1853  139.6698  154.8244 H   0  0  0  0  0  0  0  0  0  0  0  0
  149.2938  139.6098  153.0778 H   0  0  0  0  0  0  0  0  0  0  0  0
  146.2283  137.7024  153.9302 H   0  0  0  0  0  0  0  0  0  0  0  0
  146.7814  139.2626  154.4929 H   0  0  0  0  0  0  0  0  0  0  0  0
  145.6566  140.7813  152.5711 H   0  0  0  0  0  0  0  0  0  0  0  0
  148.2251  137.5988  156.0468 H   0  0  0  0  0  0  0  0  0  0  0  0
  147.7120  136.2381  155.0757 H   0  0  0  0  0  0  0  0  0  0  0  0
  150.0079  135.7588  154.3724 H   0  0  0  0  0  0  0  0  0  0  0  0
  149.9079  135.7574  156.1096 H   0  0  0  0  0  0  0  0  0  0  0  0
  148.5361  137.3688  153.1410 H   0  0  0  0  0  0  0  0  0  0  0  0
  1  2  1  0  0  0  0
  1 22  1  0  0  0  0
  1 23  1  0  0  0  0
  1 24  1  0  0  0  0
  2  7  1  0  0  0  0
  2  3  2  0  0  0  0
  3  4  1  0  0  0  0
  3 25  1  0  0  0  0
  4  5  2  0  0  0  0
  4 26  1  0  0  0  0
  5  6  1  0  0  0  0
  5 27  1  0  0  0  0
  6  7  2  0  0  0  0
  7  8  1  0  0  0  0
  8  9  1  0  0  0  0
  8 28  1  0  0  0  0
  9 10  2  0  0  0  0
  9 11  1  0  0  0  0
 11 12  1  0  0  0  0
 11 29  1  0  0  0  0
 12 21  1  0  0  0  0
 12 13  1  0  0  0  0
 12 30  1  0  0  0  0
 13 14  1  0  0  0  0
 13 31  1  0  0  0  0
 13 32  1  0  0  0  0
 14 15  1  0  0  0  0
 14 33  1  0  0  0  0
 14 34  1  0  0  0  0
 15 16  1  0  0  0  0
 15 20  1  0  0  0  0
 15 42  1  0  0  0  0
 16 17  1  0  0  0  0
 16 35  1  0  0  0  0
 16 36  1  0  0  0  0
 17 18  1  0  0  0  0
 17 19  2  0  0  0  0
 18 37  1  0  0  0  0
 20 21  1  0  0  0  0
 20 38  1  0  0  0  0
 20 39  1  0  0  0  0
 21 40  1  0  0  0  0
 21 41  1  0  0  0  0
M  CHG  1  15   1
M  CHG  1  18  -1
M  END
> <s_m_source_file>
AV-unprocessed.smi

> <i_m_source_file_index>
1395

> <i_lp_mmshare_version>
43012

> <i_f3d_flags>
0

> <s_epik_input>
W0NIM11jMVtjSF1bY0hdW2NIXW5jMVtOSF1DKD1PKVtOSF1bQ0hdMltDSDJdW0NIMl1OKFtDSDJdW0NIMl0yKVtDSDJdQyg9TylbTkgyXQ==

> <s_epik_cmdline>
J2VwaWtfcHl0aG9uJywgJy1waCcsICc3LjAnLCAnLXRuJywgJzgnLCAnLW1hJywgJzIwMCcsICctbWV0YWxfYmluZGluZycsICctaW1hZScsICc8aW5maWxlLm1hZT4nLCAnLW9tYWUnLCAnPG91dGZpbGUubWFlPic=

> <r_epik_Ionization_Penalty>
5.72885

> <r_epik_Ionization_Penalty_Charging>
5.7288

> <r_epik_Ionization_Penalty_Neutral>
4.54304e-05

> <r_epik_State_Penalty>
6.54882

> <r_epik_Charging_Adjusted_Penalty>
12.2776

> <i_epik_Tot_Q>
0

> <i_epik_Tot_abs_Q>
2

> <r_epik_Metal_State_Penalty>
2.51297

> <b_epik_Metal_Only>
1

> <s_lp_Force_Field>
OPLS_2005

> <r_lp_Energy>
8.5501

> <b_lp_Chiralities_Consistent>
1

> <s_lp_Variant>
AV-unprocessed.smi:1395-5

> <Gold.Version>
5.8.1

> <Gold.Id.Protein>
6NUR|6NUR_protein|mol2

> <Gold.PLP.Fitness>
50.1504

> <Gold.PLP.PLP>
-36.6018

> <Gold.PLP.part.hbond>
-4.0000

> <Gold.PLP.part.metal>
0.0000

> <Gold.PLP.part.buried>
-5.3286

> <Gold.PLP.part.nonpolar>
-28.7648

> <Gold.PLP.part.repulsive>
1.5343

> <Gold.PLP.ligand.clash>
0.0000

> <Gold.PLP.ligand.torsion>
0.7563

> <Gold.PLP.Chemscore.Hbond>
5.0000

> <Gold.PLP.Chemscore.CHOScore>
0.0000

> <Gold.PLP.Chemscore.Metal>
0.0000

> <Gold.Chemscore.Hbonds>
donor molecule, donor type, donor heavy atom, donor atom, acceptor molecule, acceptor atom, score
      L1  H    15    42       P1  7948  2.00
      L1  H    18    37       P1 10175  1.00
      P1  H  7954  7966       L1    19  1.00
      P1  H  7997  8008       L1    10  1.00

> <Gold.PLP.Chemscore.Internal.Correction>
0.0613

> <Gold.Rescore>
     Score         DG    S(hbond)    S(metal)    S(lipo)     H(rot)  DE(clash)    DE(int)     intcor
     20.92     -23.43       3.95        0.00      83.12       1.93       1.74       0.77       ----

> <Gold.Chemscore.Fitness>
20.9232

> <Gold.Chemscore.DG>
-23.4308

> <Gold.Chemscore.ZeroCoef>
-5.4800

> <Gold.Chemscore.Hbond>
3.9452

> <Gold.Chemscore.Metal>
0.0000

> <Gold.Chemscore.Lipo>
83.1189

> <Gold.Chemscore.Internal_Hbond>
0.0000

> <Gold.Chemscore.DEClash>
1.7400

> <Gold.Chemscore.DEInternal>
0.7676

> <Gold.Chemscore.Rot>
1.9341

> <Gold.Chemscore.Internal.Correction>
   9.000000E+99

> <Gold.Chemscore.Hbonds>
donor molecule, donor type, donor heavy atom, donor atom, acceptor molecule, acceptor atom, score
      L1  H    15    42       P1  7948  1.00
      L1  H    18    37       P1 10175  0.24
      P1  H  7954  7966       L1    19  0.97
      P1  H  7997  8008       L1    10  1.00

> <Gold.Chemscore.Hbond.Weighted>
-13.1771

> <Gold.Chemscore.Metal.Weighted>
-0.0000

> <Gold.Chemscore.Lipo.Weighted>
-9.7249

> <Gold.Chemscore.Internal_Hbond.Weighted>
0.0000

> <Gold.Chemscore.DEClash.Weighted>
1.7400

> <Gold.Chemscore.DEInternal.Weighted>
0.7676

> <Gold.Chemscore.Rot.Weighted>
4.9512

> <Gold.Chemscore.Internal.Correction.Weighted>
   9.000000E+99

> <Gold.Protein.RotatedTorsions>
[ 6907 6896 6895 6894 ] final  120.24 input  -60.11 | X-H torsion
[ 7974 7965 7964 7962 ] final   81.47 input  175.53 | X-H torsion
[ 8008 7997 7996 7995 ] final  -44.98 input   59.86 | X-H torsion
[ 10167 10162 10161 10158 ] final  106.53 input  -65.29 | X-H torsion
[ 10718 10713 10712 10709 ] final -125.73 input   66.30 | X-H torsion
[ 10763 10752 10751 10750 ] final  -55.50 input  -60.55 | X-H torsion
[ 11005 11000 10999 10996 ] final   -4.06 input  -57.11 | X-H torsion

> <Gold.Protein.ActiveResidues>
 VAL166  LYS551  ARG553  GLY616  TRP617  ASP618  TYR619  PRO620  LYS621  CYS622 
 ASP623  PHE694  ASN695  SER759  ASP760  ASP761  ALA762  ILE779  LEU786  VAL792 
 PHE793  MET794  SER795  GLU796  ALA797  LYS798  CYS799  TRP800  GLU811  SER814 

> <Gold.Protein.RotatedAtoms>
  152.4412  133.7452  159.6662 H   0  0  0  0  0  0  0  0  0  0  0  0  # atno 6907 bound_to 6896
  150.8303  133.8091  159.3107 H   0  0  0  0  0  0  0  0  0  0  0  0  # atno 6908 bound_to 6896
  151.5747  135.1063  160.0055 H   0  0  0  0  0  0  0  0  0  0  0  0  # atno 6909 bound_to 6896
  145.6377  139.2418  143.2048 H   0  0  0  0  0  0  0  0  0  0  0  0  # atno 7974 bound_to 7965
  154.3999  140.1408  156.3772 H   0  0  0  0  0  0  0  0  0  0  0  0  # atno 8008 bound_to 7997
  155.8037  140.3475  155.5397 H   0  0  0  0  0  0  0  0  0  0  0  0  # atno 8009 bound_to 7997
  155.8457  140.0933  157.1697 H   0  0  0  0  0  0  0  0  0  0  0  0  # atno 8010 bound_to 7997
  139.7001  144.7095  151.1199 H   0  0  0  0  0  0  0  0  0  0  0  0  # atno 10167 bound_to 10162
  156.1701  130.6662  151.0169 H   0  0  0  0  0  0  0  0  0  0  0  0  # atno 10718 bound_to 10713
  154.1917  135.6426  153.5062 H   0  0  0  0  0  0  0  0  0  0  0  0  # atno 10763 bound_to 10752
  153.0033  135.5430  154.6408 H   0  0  0  0  0  0  0  0  0  0  0  0  # atno 10764 bound_to 10752
  154.5798  135.2924  155.0716 H   0  0  0  0  0  0  0  0  0  0  0  0  # atno 10765 bound_to 10752
  140.6762  133.9193  155.8525 H   0  0  0  0  0  0  0  0  0  0  0  0  # atno 11005 bound_to 11000
  146.1305  140.7191  142.9414 LP  0  0  0  0  0  0  0  0  0  0  0  0  # atno 17320 bound_to 7965
  144.7169  140.4240  143.7037 LP  0  0  0  0  0  0  0  0  0  0  0  0  # atno 17321 bound_to 7965
  140.7707  143.5435  150.9285 LP  0  0  0  0  0  0  0  0  0  0  0  0  # atno 17342 bound_to 10162
  139.9117  143.6712  152.3114 LP  0  0  0  0  0  0  0  0  0  0  0  0  # atno 17343 bound_to 10162
  157.6797  131.0841  150.7403 LP  0  0  0  0  0  0  0  0  0  0  0  0  # atno 17370 bound_to 10713
  156.7462  130.4754  149.5466 LP  0  0  0  0  0  0  0  0  0  0  0  0  # atno 17371 bound_to 10713
  141.0354  134.0697  157.3966 LP  0  0  0  0  0  0  0  0  0  0  0  0  # atno 17394 bound_to 11000
  139.8966  135.0146  156.7059 LP  0  0  0  0  0  0  0  0  0  0  0  0  # atno 17395 bound_to 11000

$$$$
