AV-unprocessed.smi:3303|AV-procd|sdf|12685|dock6
  -GOLD-   2272019 23D 1   1.00000     0.00000
 Structure written by MMmdl.
 44 45  0  0  0  0  0  0  0  0  2 V2000
  146.7429  142.9141  154.3526 C   0  0  0  0  0  0  0  0  0  0  0  0
  147.6279  141.7727  153.8208 C   0  0  2  0  0  0  0  0  0  0  0  0
  146.7471  140.6561  153.2215 C   0  0  0  0  0  0  0  0  0  0  0  0
  147.5641  139.5284  152.7072 N   0  3  2  0  0  0  0  0  0  0  0  0
  146.7685  138.5455  151.9373 C   0  0  0  0  0  0  0  0  0  0  0  0
  148.4494  138.9212  153.7407 C   0  0  2  0  0  0  0  0  0  0  0  0
  147.6874  138.1319  154.8274 C   0  0  0  0  0  0  0  0  0  0  0  0
  149.3667  140.0039  154.3391 C   0  0  0  0  0  0  0  0  0  0  0  0
  148.5730  141.1973  154.9037 C   0  0  1  0  0  0  0  0  0  0  0  0
  149.5400  142.2111  155.3049 N   0  0  0  0  0  0  0  0  0  0  0  0
  150.2258  141.8442  156.5360 C   0  0  0  0  0  0  0  0  0  0  0  0
  151.5267  142.6477  156.7022 C   0  0  0  0  0  0  0  0  0  0  0  0
  152.0856  142.5931  158.1150 C   0  0  0  0  0  0  0  0  0  0  0  0
  152.5682  141.3778  158.6459 C   0  0  0  0  0  0  0  0  0  0  0  0
  153.0570  141.3686  159.9666 C   0  0  0  0  0  0  0  0  0  0  0  0
  153.0420  142.5683  160.7038 C   0  0  0  0  0  0  0  0  0  0  0  0
  152.5384  143.7290  160.0839 C   0  0  0  0  0  0  0  0  0  0  0  0
  152.0684  143.7488  158.8180 N   0  0  0  0  0  0  0  0  0  0  0  0
  146.1334  142.5843  155.1944 H   0  0  0  0  0  0  0  0  0  0  0  0
  146.0691  143.2816  153.5783 H   0  0  0  0  0  0  0  0  0  0  0  0
  147.3402  143.7635  154.6856 H   0  0  0  0  0  0  0  0  0  0  0  0
  148.2386  142.1780  153.0120 H   0  0  0  0  0  0  0  0  0  0  0  0
  146.0315  140.2925  153.9594 H   0  0  0  0  0  0  0  0  0  0  0  0
  146.1586  141.0666  152.3998 H   0  0  0  0  0  0  0  0  0  0  0  0
  145.9774  138.1058  152.5452 H   0  0  0  0  0  0  0  0  0  0  0  0
  147.4025  137.7423  151.5605 H   0  0  0  0  0  0  0  0  0  0  0  0
  146.3004  139.0277  151.0788 H   0  0  0  0  0  0  0  0  0  0  0  0
  149.0951  138.2087  153.2255 H   0  0  0  0  0  0  0  0  0  0  0  0
  148.3835  137.7081  155.5519 H   0  0  0  0  0  0  0  0  0  0  0  0
  147.1274  137.2977  154.4051 H   0  0  0  0  0  0  0  0  0  0  0  0
  146.9871  138.7556  155.3818 H   0  0  0  0  0  0  0  0  0  0  0  0
  149.9991  139.5704  155.1152 H   0  0  0  0  0  0  0  0  0  0  0  0
  150.0448  140.3550  153.5591 H   0  0  0  0  0  0  0  0  0  0  0  0
  147.9891  140.8592  155.7614 H   0  0  0  0  0  0  0  0  0  0  0  0
  150.2193  142.3608  154.5723 H   0  0  0  0  0  0  0  0  0  0  0  0
  149.5786  142.0143  157.3971 H   0  0  0  0  0  0  0  0  0  0  0  0
  150.4505  140.7774  156.5066 H   0  0  0  0  0  0  0  0  0  0  0  0
  152.2799  142.2579  156.0166 H   0  0  0  0  0  0  0  0  0  0  0  0
  151.3681  143.6877  156.4123 H   0  0  0  0  0  0  0  0  0  0  0  0
  152.5605  140.4718  158.0577 H   0  0  0  0  0  0  0  0  0  0  0  0
  153.4344  140.4576  160.4068 H   0  0  0  0  0  0  0  0  0  0  0  0
  153.4072  142.5982  161.7196 H   0  0  0  0  0  0  0  0  0  0  0  0
  152.5107  144.6663  160.6195 H   0  0  0  0  0  0  0  0  0  0  0  0
  148.1939  139.9422  152.0343 H   0  0  0  0  0  0  0  0  0  0  0  0
  1  2  1  0  0  0  0
  1 19  1  0  0  0  0
  1 20  1  0  0  0  0
  1 21  1  0  0  0  0
  2  9  1  0  0  0  0
  2  3  1  0  0  0  0
  2 22  1  0  0  0  0
  3  4  1  0  0  0  0
  3 23  1  0  0  0  0
  3 24  1  0  0  0  0
  4  5  1  0  0  0  0
  4  6  1  0  0  0  0
  4 44  1  0  0  0  0
  5 25  1  0  0  0  0
  5 26  1  0  0  0  0
  5 27  1  0  0  0  0
  6  7  1  0  0  0  0
  6  8  1  0  0  0  0
  6 28  1  0  0  0  0
  7 29  1  0  0  0  0
  7 30  1  0  0  0  0
  7 31  1  0  0  0  0
  8  9  1  0  0  0  0
  8 32  1  0  0  0  0
  8 33  1  0  0  0  0
  9 10  1  0  0  0  0
  9 34  1  0  0  0  0
 10 11  1  0  0  0  0
 10 35  1  0  0  0  0
 11 12  1  0  0  0  0
 11 36  1  0  0  0  0
 11 37  1  0  0  0  0
 12 13  1  0  0  0  0
 12 38  1  0  0  0  0
 12 39  1  0  0  0  0
 13 18  1  0  0  0  0
 13 14  2  0  0  0  0
 14 15  1  0  0  0  0
 14 40  1  0  0  0  0
 15 16  2  0  0  0  0
 15 41  1  0  0  0  0
 16 17  1  0  0  0  0
 16 42  1  0  0  0  0
 17 18  2  0  0  0  0
 17 43  1  0  0  0  0
M  CHG  1   4   1
M  END
> <s_m_source_file>
AV-unprocessed.smi

> <i_m_source_file_index>
3303

> <i_lp_mmshare_version>
43012

> <i_f3d_flags>
0

> <s_epik_input>
W0NIM11bQ0BASF0xW0NIMl1OKFtDSDNdKVtDQEBIXShbQ0gzXSlbQ0gyXVtDQEhdMVtOSF1bQ0gyXVtDSDJdYzJbY0hdW2NIXVtjSF1bY0hdbjI=

> <s_epik_cmdline>
J2VwaWtfcHl0aG9uJywgJy1waCcsICc3LjAnLCAnLXRuJywgJzgnLCAnLW1hJywgJzIwMCcsICctbWV0YWxfYmluZGluZycsICctaW1hZScsICc8aW5maWxlLm1hZT4nLCAnLW9tYWUnLCAnPG91dGZpbGUubWFlPic=

> <r_epik_Ionization_Penalty>
2.31085

> <r_epik_Ionization_Penalty_Charging>
0.000313057

> <r_epik_Ionization_Penalty_Neutral>
2.31054

> <r_epik_State_Penalty>
2.4087

> <r_epik_Charging_Adjusted_Penalty>
2.40902

> <i_epik_Tot_Q>
1

> <i_epik_Tot_abs_Q>
1

> <r_epik_Metal_State_Penalty>
2.30979

> <b_epik_Metal_Only>
0

> <s_lp_Force_Field>
OPLS_2005

> <r_lp_Energy>
26.7889

> <b_lp_Chiralities_Consistent>
1

> <s_lp_Variant>
AV-unprocessed.smi:3303-29

> <Gold.Version>
5.8.1

> <Gold.Id.Protein>
6NUR|6NUR_protein|mol2

> <Gold.PLP.Fitness>
41.8423

> <Gold.PLP.PLP>
-39.4128

> <Gold.PLP.part.hbond>
-1.7118

> <Gold.PLP.part.metal>
0.0000

> <Gold.PLP.part.buried>
-0.6022

> <Gold.PLP.part.nonpolar>
-36.4746

> <Gold.PLP.part.repulsive>
0.1090

> <Gold.PLP.ligand.clash>
0.0000

> <Gold.PLP.ligand.torsion>
0.2890

> <Gold.PLP.Chemscore.Hbond>
1.0000

> <Gold.PLP.Chemscore.CHOScore>
0.0000

> <Gold.PLP.Chemscore.Metal>
0.0000

> <Gold.Chemscore.Hbonds>
donor molecule, donor type, donor heavy atom, donor atom, acceptor molecule, acceptor atom, score
      L1  H     4    44       P1  7957  1.00

> <Gold.PLP.Chemscore.Internal.Correction>
0.0074

> <Gold.Rescore>
     Score         DG    S(hbond)    S(metal)    S(lipo)     H(rot)  DE(clash)    DE(int)     intcor
     19.00     -19.39       0.97        0.00     120.24       1.33       0.10       0.28       ----

> <Gold.Chemscore.Fitness>
19.0033

> <Gold.Chemscore.DG>
-19.3878

> <Gold.Chemscore.ZeroCoef>
-5.4800

> <Gold.Chemscore.Hbond>
0.9692

> <Gold.Chemscore.Metal>
0.0000

> <Gold.Chemscore.Lipo>
120.2409

> <Gold.Chemscore.Internal_Hbond>
0.0000

> <Gold.Chemscore.DEClash>
0.1015

> <Gold.Chemscore.DEInternal>
0.2830

> <Gold.Chemscore.Rot>
1.3272

> <Gold.Chemscore.Internal.Correction>
   9.000000E+99

> <Gold.Chemscore.Hbonds>
donor molecule, donor type, donor heavy atom, donor atom, acceptor molecule, acceptor atom, score
      L1  H     4    44       P1  7957  0.98

> <Gold.Chemscore.Hbond.Weighted>
-3.2373

> <Gold.Chemscore.Metal.Weighted>
-0.0000

> <Gold.Chemscore.Lipo.Weighted>
-14.0682

> <Gold.Chemscore.Internal_Hbond.Weighted>
0.0000

> <Gold.Chemscore.DEClash.Weighted>
0.1015

> <Gold.Chemscore.DEInternal.Weighted>
0.2830

> <Gold.Chemscore.Rot.Weighted>
3.3976

> <Gold.Chemscore.Internal.Correction.Weighted>
   9.000000E+99

> <Gold.Protein.RotatedTorsions>
[ 6907 6896 6895 6894 ] final -116.09 input  -60.11 | X-H torsion
[ 7974 7965 7964 7962 ] final  -73.07 input  175.53 | X-H torsion
[ 8008 7997 7996 7995 ] final   18.75 input   59.86 | X-H torsion
[ 10167 10162 10161 10158 ] final  162.37 input  -65.29 | X-H torsion
[ 10718 10713 10712 10709 ] final  -40.53 input   66.30 | X-H torsion
[ 10763 10752 10751 10750 ] final   57.12 input  -60.55 | X-H torsion
[ 11005 11000 10999 10996 ] final -137.92 input  -57.11 | X-H torsion

> <Gold.Protein.ActiveResidues>
 VAL166  LYS551  ARG553  GLY616  TRP617  ASP618  TYR619  PRO620  LYS621  CYS622 
 ASP623  PHE694  ASN695  SER759  ASP760  ASP761  ALA762  ILE779  LEU786  VAL792 
 PHE793  MET794  SER795  GLU796  ALA797  LYS798  CYS799  TRP800  GLU811  SER814 

> <Gold.Protein.RotatedAtoms>
  150.8028  133.8566  159.3219 H   0  0  0  0  0  0  0  0  0  0  0  0  # atno 6907 bound_to 6896
  151.6373  135.1015  160.0144 H   0  0  0  0  0  0  0  0  0  0  0  0  # atno 6908 bound_to 6896
  152.4117  133.6934  159.6438 H   0  0  0  0  0  0  0  0  0  0  0  0  # atno 6909 bound_to 6896
  145.6569  140.9265  143.0955 H   0  0  0  0  0  0  0  0  0  0  0  0  # atno 7974 bound_to 7965
  154.9106  140.3013  155.5268 H   0  0  0  0  0  0  0  0  0  0  0  0  # atno 8008 bound_to 7997
  156.3015  140.2390  156.4080 H   0  0  0  0  0  0  0  0  0  0  0  0  # atno 8009 bound_to 7997
  154.8429  140.0413  157.1542 H   0  0  0  0  0  0  0  0  0  0  0  0  # atno 8010 bound_to 7997
  139.4860  144.4444  151.8911 H   0  0  0  0  0  0  0  0  0  0  0  0  # atno 10167 bound_to 10162
  156.2803  130.4216  149.8343 H   0  0  0  0  0  0  0  0  0  0  0  0  # atno 10718 bound_to 10713
  152.9844  135.5652  154.5340 H   0  0  0  0  0  0  0  0  0  0  0  0  # atno 10763 bound_to 10752
  154.4806  135.2788  155.1575 H   0  0  0  0  0  0  0  0  0  0  0  0  # atno 10764 bound_to 10752
  154.3085  135.6293  153.5508 H   0  0  0  0  0  0  0  0  0  0  0  0  # atno 10765 bound_to 10752
  140.8665  134.2103  157.4676 H   0  0  0  0  0  0  0  0  0  0  0  0  # atno 11005 bound_to 11000
  144.7103  139.8399  143.7417 LP  0  0  0  0  0  0  0  0  0  0  0  0  # atno 17320 bound_to 7965
  146.1157  139.4168  143.0259 LP  0  0  0  0  0  0  0  0  0  0  0  0  # atno 17321 bound_to 7965
  140.3897  144.2631  150.5901 LP  0  0  0  0  0  0  0  0  0  0  0  0  # atno 17342 bound_to 10162
  140.5157  143.2279  151.8467 LP  0  0  0  0  0  0  0  0  0  0  0  0  # atno 17343 bound_to 10162
  156.5793  130.8458  151.3378 LP  0  0  0  0  0  0  0  0  0  0  0  0  # atno 17370 bound_to 10713
  157.7312  130.9697  150.1870 LP  0  0  0  0  0  0  0  0  0  0  0  0  # atno 17371 bound_to 10713
  139.8709  134.9754  156.4883 LP  0  0  0  0  0  0  0  0  0  0  0  0  # atno 17394 bound_to 11000
  140.8622  133.8051  155.9277 LP  0  0  0  0  0  0  0  0  0  0  0  0  # atno 17395 bound_to 11000

$$$$
