AV-unprocessed.smi:2801|AV-procd|sdf|10802|dock5
  -GOLD-   2272015233D 1   1.00000     0.00000
 Structure written by MMmdl.
 31 31  0  0  0  0  0  0  0  0  2 V2000
  148.2172  141.6968  153.8083 C   0  0  0  0  0  0  0  0  0  0  0  0
  149.1083  140.4857  154.0920 C   0  0  0  0  0  0  0  0  0  0  0  0
  150.2732  140.9296  154.7775 O   0  0  0  0  0  0  0  0  0  0  0  0
  150.6394  140.1610  155.9217 C   0  0  1  0  0  0  0  0  0  0  0  0
  151.8274  139.2629  155.5275 C   0  0  0  0  0  0  0  0  0  0  0  0
  151.4351  138.1588  154.5376 C   0  0  0  0  0  0  0  0  0  0  0  0
  151.0088  141.0921  157.0886 C   0  0  0  0  0  0  0  0  0  0  0  0
  150.4682  142.1943  157.1790 O   0  0  0  0  0  0  0  0  0  0  0  0
  151.9030  140.5965  157.9635 N   0  0  0  0  0  0  0  0  0  0  0  0
  152.4553  141.1856  159.1363 C   0  0  0  0  0  0  0  0  0  0  0  0
  151.9987  142.4011  159.7018 C   0  0  0  0  0  0  0  0  0  0  0  0
  152.6397  142.8935  160.8555 C   0  0  0  0  0  0  0  0  0  0  0  0
  153.6771  142.2738  161.4550 N   0  0  0  0  0  0  0  0  0  0  0  0
  154.1191  141.1218  160.9088 C   0  0  0  0  0  0  0  0  0  0  0  0
  153.5510  140.5391  159.7568 C   0  0  0  0  0  0  0  0  0  0  0  0
  154.0644  139.3698  159.2661 O   0  5  0  0  0  0  0  0  0  0  0  0
  147.3099  141.3981  153.2832 H   0  0  0  0  0  0  0  0  0  0  0  0
  148.7369  142.4289  153.1901 H   0  0  0  0  0  0  0  0  0  0  0  0
  147.9212  142.1895  154.7347 H   0  0  0  0  0  0  0  0  0  0  0  0
  148.5544  139.7572  154.6850 H   0  0  0  0  0  0  0  0  0  0  0  0
  149.3868  140.0040  153.1536 H   0  0  0  0  0  0  0  0  0  0  0  0
  149.8040  139.5216  156.2151 H   0  0  0  0  0  0  0  0  0  0  0  0
  152.6256  139.8677  155.0943 H   0  0  0  0  0  0  0  0  0  0  0  0
  152.2471  138.7956  156.4196 H   0  0  0  0  0  0  0  0  0  0  0  0
  152.2949  137.5363  154.2900 H   0  0  0  0  0  0  0  0  0  0  0  0
  151.0514  138.5792  153.6076 H   0  0  0  0  0  0  0  0  0  0  0  0
  150.6646  137.5107  154.9560 H   0  0  0  0  0  0  0  0  0  0  0  0
  152.2007  139.6457  157.7975 H   0  0  0  0  0  0  0  0  0  0  0  0
  151.1881  142.9701  159.2765 H   0  0  0  0  0  0  0  0  0  0  0  0
  152.3120  143.8182  161.3067 H   0  0  0  0  0  0  0  0  0  0  0  0
  154.9547  140.6522  161.4068 H   0  0  0  0  0  0  0  0  0  0  0  0
  1  2  1  0  0  0  0
  1 17  1  0  0  0  0
  1 18  1  0  0  0  0
  1 19  1  0  0  0  0
  2  3  1  0  0  0  0
  2 20  1  0  0  0  0
  2 21  1  0  0  0  0
  3  4  1  0  0  0  0
  4  5  1  0  0  0  0
  4  7  1  0  0  0  0
  4 22  1  0  0  0  0
  5  6  1  0  0  0  0
  5 23  1  0  0  0  0
  5 24  1  0  0  0  0
  6 25  1  0  0  0  0
  6 26  1  0  0  0  0
  6 27  1  0  0  0  0
  7  8  2  0  0  0  0
  7  9  1  0  0  0  0
  9 28  1  0  0  0  0
  9 10  1  0  0  0  0
 10 11  2  0  0  0  0
 10 15  1  0  0  0  0
 11 12  1  0  0  0  0
 11 29  1  0  0  0  0
 12 13  2  0  0  0  0
 12 30  1  0  0  0  0
 13 14  1  0  0  0  0
 14 15  2  0  0  0  0
 14 31  1  0  0  0  0
 15 16  1  0  0  0  0
M  CHG  1  16  -1
M  END
> <s_m_source_file>
AV-unprocessed.smi

> <i_m_source_file_index>
2801

> <i_lp_mmshare_version>
43012

> <i_f3d_flags>
0

> <s_epik_input>
W0NIM11bQ0gyXU9bQ0BIXShbQ0gyXVtDSDNdKUMoPU8pW05IXWMxW2NIXVtjSF1uW2NIXWMxW09IXQ==

> <s_epik_cmdline>
J2VwaWtfcHl0aG9uJywgJy1waCcsICc3LjAnLCAnLXRuJywgJzgnLCAnLW1hJywgJzIwMCcsICctbWV0YWxfYmluZGluZycsICctaW1hZScsICc8aW5maWxlLm1hZT4nLCAnLW9tYWUnLCAnPG91dGZpbGUubWFlPic=

> <r_lp_tautomer_probability>
0.56342

> <r_epik_Ionization_Penalty>
4.38321

> <r_epik_Ionization_Penalty_Charging>
2.0641

> <r_epik_Ionization_Penalty_Neutral>
2.31912

> <r_epik_State_Penalty>
2.63873

> <r_epik_Charging_Adjusted_Penalty>
4.70283

> <i_epik_Tot_Q>
-1

> <i_epik_Tot_abs_Q>
1

> <r_epik_Metal_State_Penalty>
0.606608

> <b_epik_Metal_Only>
1

> <s_lp_Force_Field>
OPLS_2005

> <r_lp_Energy>
9.76409

> <b_lp_Chiralities_Consistent>
1

> <s_lp_Variant>
AV-unprocessed.smi:2801-6

> <Gold.Version>
5.8.1

> <Gold.Id.Protein>
6NUR|6NUR_protein|mol2

> <Gold.PLP.Fitness>
38.1136

> <Gold.PLP.PLP>
-33.6025

> <Gold.PLP.part.hbond>
-2.4487

> <Gold.PLP.part.metal>
0.0000

> <Gold.PLP.part.buried>
-1.8843

> <Gold.PLP.part.nonpolar>
-29.0579

> <Gold.PLP.part.repulsive>
0.3103

> <Gold.PLP.ligand.clash>
0.0000

> <Gold.PLP.ligand.torsion>
1.7698

> <Gold.PLP.Chemscore.Hbond>
2.6720

> <Gold.PLP.Chemscore.CHOScore>
0.0000

> <Gold.PLP.Chemscore.Metal>
0.0000

> <Gold.Chemscore.Hbonds>
donor molecule, donor type, donor heavy atom, donor atom, acceptor molecule, acceptor atom, score
      P1  H  7989  7998       L1     3  0.72
      P1  H  7997  8009       L1    16  0.85

> <Gold.PLP.Chemscore.Internal.Correction>
0.0348

> <Gold.Rescore>
     Score         DG    S(hbond)    S(metal)    S(lipo)     H(rot)  DE(clash)    DE(int)     intcor
     12.18     -14.92       1.01        0.00      85.56       1.55       0.06       2.68       ----

> <Gold.Chemscore.Fitness>
12.1759

> <Gold.Chemscore.DG>
-14.9213

> <Gold.Chemscore.ZeroCoef>
-5.4800

> <Gold.Chemscore.Hbond>
1.0146

> <Gold.Chemscore.Metal>
0.0000

> <Gold.Chemscore.Lipo>
85.5640

> <Gold.Chemscore.Internal_Hbond>
0.0000

> <Gold.Chemscore.DEClash>
0.0639

> <Gold.Chemscore.DEInternal>
2.6815

> <Gold.Chemscore.Rot>
1.5462

> <Gold.Chemscore.Internal.Correction>
   9.000000E+99

> <Gold.Chemscore.Hbonds>
donor molecule, donor type, donor heavy atom, donor atom, acceptor molecule, acceptor atom, score
      P1  H  7989  7998       L1     3  0.28
      P1  H  7997  8009       L1    16  0.14

> <Gold.Chemscore.Hbond.Weighted>
-3.3886

> <Gold.Chemscore.Metal.Weighted>
-0.0000

> <Gold.Chemscore.Lipo.Weighted>
-10.0110

> <Gold.Chemscore.Internal_Hbond.Weighted>
0.0000

> <Gold.Chemscore.DEClash.Weighted>
0.0639

> <Gold.Chemscore.DEInternal.Weighted>
2.6815

> <Gold.Chemscore.Rot.Weighted>
3.9583

> <Gold.Chemscore.Internal.Correction.Weighted>
   9.000000E+99

> <Gold.Protein.RotatedTorsions>
[ 6907 6896 6895 6894 ] final  -14.86 input  -60.11 | X-H torsion
[ 7974 7965 7964 7962 ] final  -65.18 input  175.53 | X-H torsion
[ 8008 7997 7996 7995 ] final  132.51 input   59.86 | X-H torsion
[ 10167 10162 10161 10158 ] final  161.04 input  -65.29 | X-H torsion
[ 10718 10713 10712 10709 ] final  -84.12 input   66.30 | X-H torsion
[ 10763 10752 10751 10750 ] final -127.27 input  -60.55 | X-H torsion
[ 11005 11000 10999 10996 ] final  148.11 input  -57.11 | X-H torsion

> <Gold.Protein.ActiveResidues>
 VAL166  LYS551  ARG553  GLY616  TRP617  ASP618  TYR619  PRO620  LYS621  CYS622 
 ASP623  PHE694  ASN695  SER759  ASP760  ASP761  ALA762  ILE779  LEU786  VAL792 
 PHE793  MET794  SER795  GLU796  ALA797  LYS798  CYS799  TRP800  GLU811  SER814 

> <Gold.Protein.RotatedAtoms>
  151.3329  135.0846  159.9344 H   0  0  0  0  0  0  0  0  0  0  0  0  # atno 6907 bound_to 6896
  152.5230  133.9524  159.7689 H   0  0  0  0  0  0  0  0  0  0  0  0  # atno 6908 bound_to 6896
  150.9867  133.6138  159.2744 H   0  0  0  0  0  0  0  0  0  0  0  0  # atno 6909 bound_to 6896
  145.7575  140.8878  143.0447 H   0  0  0  0  0  0  0  0  0  0  0  0  # atno 7974 bound_to 7965
  156.2983  140.2544  156.3100 H   0  0  0  0  0  0  0  0  0  0  0  0  # atno 8008 bound_to 7997
  154.9335  140.0398  157.2079 H   0  0  0  0  0  0  0  0  0  0  0  0  # atno 8009 bound_to 7997
  154.8195  140.2858  155.5801 H   0  0  0  0  0  0  0  0  0  0  0  0  # atno 8010 bound_to 7997
  139.4845  144.4576  151.8748 H   0  0  0  0  0  0  0  0  0  0  0  0  # atno 10167 bound_to 10162
  156.0010  130.4687  150.4361 H   0  0  0  0  0  0  0  0  0  0  0  0  # atno 10718 bound_to 10713
  154.8751  135.3967  154.3567 H   0  0  0  0  0  0  0  0  0  0  0  0  # atno 10763 bound_to 10752
  153.4345  135.7026  153.6214 H   0  0  0  0  0  0  0  0  0  0  0  0  # atno 10764 bound_to 10752
  153.4822  135.3767  155.2417 H   0  0  0  0  0  0  0  0  0  0  0  0  # atno 10765 bound_to 10752
  140.0932  134.9028  157.1683 H   0  0  0  0  0  0  0  0  0  0  0  0  # atno 11005 bound_to 11000
  144.6837  139.9677  143.7481 LP  0  0  0  0  0  0  0  0  0  0  0  0  # atno 17320 bound_to 7965
  146.0296  139.3323  143.0763 LP  0  0  0  0  0  0  0  0  0  0  0  0  # atno 17321 bound_to 7965
  140.4036  144.2461  150.5892 LP  0  0  0  0  0  0  0  0  0  0  0  0  # atno 17342 bound_to 10162
  140.5034  143.2311  151.8645 LP  0  0  0  0  0  0  0  0  0  0  0  0  # atno 17343 bound_to 10162
  157.2406  131.0524  151.2439 LP  0  0  0  0  0  0  0  0  0  0  0  0  # atno 17370 bound_to 10713
  157.3624  130.7138  149.6510 LP  0  0  0  0  0  0  0  0  0  0  0  0  # atno 17371 bound_to 10713
  140.3323  134.2796  155.7226 LP  0  0  0  0  0  0  0  0  0  0  0  0  # atno 17394 bound_to 11000
  141.2084  133.7778  157.0060 LP  0  0  0  0  0  0  0  0  0  0  0  0  # atno 17395 bound_to 11000

$$$$
