AV-unprocessed.smi:632|AV-procd|sdf|3128|dock10
  -GOLD-   22720 0 53D 1   1.00000     0.00000
 Structure written by MMmdl.
 41 42  0  0  0  0  0  0  0  0  2 V2000
  150.2057  128.4635  155.3724 C   0  0  0  0  0  0  0  0  0  0  0  0
  151.0050  129.6144  156.0141 C   0  0  0  0  0  0  0  0  0  0  0  0
  150.9373  129.4284  157.5459 C   0  0  0  0  0  0  0  0  0  0  0  0
  152.4882  129.5408  155.6025 C   0  0  0  0  0  0  0  0  0  0  0  0
  150.4210  130.9425  155.5919 C   0  0  0  0  0  0  0  0  0  0  0  0
  150.8520  132.1027  156.1025 N   0  0  0  0  0  0  0  0  0  0  0  0
  150.1837  133.1990  155.5793 N   0  0  0  0  0  0  0  0  0  0  0  0
  149.2573  132.8661  154.6713 C   0  0  0  0  0  0  0  0  0  0  0  0
  148.4986  133.7822  154.0470 N   0  5  0  0  0  0  0  0  0  0  0  0
  147.3992  133.3946  153.3611 C   0  0  0  0  0  0  0  0  0  0  0  0
  146.6039  132.5132  153.6945 O   0  0  0  0  0  0  0  0  0  0  0  0
  147.2100  134.0712  152.2188 N   0  0  0  0  0  0  0  0  0  0  0  0
  146.1128  133.8777  151.2742 C   0  0  2  0  0  0  0  0  0  0  0  0
  144.7549  133.8806  152.0074 C   0  0  0  0  0  0  0  0  0  0  0  0
  143.5933  133.6004  151.0405 C   0  0  0  0  0  0  0  0  0  0  0  0
  143.8078  132.2784  150.2839 C   0  0  1  0  0  0  0  0  0  0  0  0
  142.7600  132.0897  149.3562 O   0  0  0  0  0  0  0  0  0  0  0  0
  145.1562  132.2773  149.5433 C   0  0  0  0  0  0  0  0  0  0  0  0
  146.3185  132.5558  150.5102 C   0  0  0  0  0  0  0  0  0  0  0  0
  149.1263  131.1292  154.4084 S   0  0  0  0  0  0  0  0  0  0  0  0
  150.5959  127.4909  155.6742 H   0  0  0  0  0  0  0  0  0  0  0  0
  150.2487  128.5056  154.2835 H   0  0  0  0  0  0  0  0  0  0  0  0
  149.1549  128.5015  155.6613 H   0  0  0  0  0  0  0  0  0  0  0  0
  149.9097  129.4558  157.9099 H   0  0  0  0  0  0  0  0  0  0  0  0
  151.4980  130.2026  158.0708 H   0  0  0  0  0  0  0  0  0  0  0  0
  151.3585  128.4685  157.8471 H   0  0  0  0  0  0  0  0  0  0  0  0
  152.9404  128.5971  155.9093 H   0  0  0  0  0  0  0  0  0  0  0  0
  153.0654  130.3469  156.0567 H   0  0  0  0  0  0  0  0  0  0  0  0
  152.6075  129.6209  154.5216 H   0  0  0  0  0  0  0  0  0  0  0  0
  147.8881  134.7824  151.9880 H   0  0  0  0  0  0  0  0  0  0  0  0
  146.1231  134.6914  150.5465 H   0  0  0  0  0  0  0  0  0  0  0  0
  144.7598  133.1262  152.7956 H   0  0  0  0  0  0  0  0  0  0  0  0
  144.5941  134.8399  152.5006 H   0  0  0  0  0  0  0  0  0  0  0  0
  142.6534  133.5691  151.5931 H   0  0  0  0  0  0  0  0  0  0  0  0
  143.5091  134.4253  150.3315 H   0  0  0  0  0  0  0  0  0  0  0  0
  143.7829  131.4487  150.9916 H   0  0  0  0  0  0  0  0  0  0  0  0
  142.1874  132.8404  149.3952 H   0  0  0  0  0  0  0  0  0  0  0  0
  145.3112  131.3187  149.0468 H   0  0  0  0  0  0  0  0  0  0  0  0
  145.1507  133.0356  148.7590 H   0  0  0  0  0  0  0  0  0  0  0  0
  147.2570  132.5873  149.9555 H   0  0  0  0  0  0  0  0  0  0  0  0
  146.4051  131.7295  151.2174 H   0  0  0  0  0  0  0  0  0  0  0  0
  1  2  1  0  0  0  0
  1 21  1  0  0  0  0
  1 22  1  0  0  0  0
  1 23  1  0  0  0  0
  2  3  1  0  0  0  0
  2  4  1  0  0  0  0
  2  5  1  0  0  0  0
  3 24  1  0  0  0  0
  3 25  1  0  0  0  0
  3 26  1  0  0  0  0
  4 27  1  0  0  0  0
  4 28  1  0  0  0  0
  4 29  1  0  0  0  0
  5 20  1  0  0  0  0
  5  6  2  0  0  0  0
  6  7  1  0  0  0  0
  7  8  2  0  0  0  0
  8  9  1  0  0  0  0
  8 20  1  0  0  0  0
  9 10  1  0  0  0  0
 10 11  2  0  0  0  0
 10 12  1  0  0  0  0
 12 13  1  0  0  0  0
 12 30  1  0  0  0  0
 13 19  1  0  0  0  0
 13 14  1  0  0  0  0
 13 31  1  0  0  0  0
 14 15  1  0  0  0  0
 14 32  1  0  0  0  0
 14 33  1  0  0  0  0
 15 16  1  0  0  0  0
 15 34  1  0  0  0  0
 15 35  1  0  0  0  0
 16 17  1  0  0  0  0
 16 18  1  0  0  0  0
 16 36  1  0  0  0  0
 17 37  1  0  0  0  0
 18 19  1  0  0  0  0
 18 38  1  0  0  0  0
 18 39  1  0  0  0  0
 19 40  1  0  0  0  0
 19 41  1  0  0  0  0
M  CHG  1   9  -1
M  END
> <s_m_source_file>
AV-unprocessed.smi

> <i_m_source_file_index>
632

> <i_lp_mmshare_version>
43012

> <i_f3d_flags>
0

> <s_epik_input>
W0NIM11DKFtDSDNdKShbQ0gzXSljMW5uYyhzMSlbTkhdQyg9TylbTkhdW0NAQEhdMltDSDJdW0NIMl1bQ0BASF0oW09IXSlbQ0gyXVtDSDJdMg==

> <s_epik_cmdline>
J2VwaWtfcHl0aG9uJywgJy1waCcsICc3LjAnLCAnLXRuJywgJzgnLCAnLW1hJywgJzIwMCcsICctbWV0YWxfYmluZGluZycsICctaW1hZScsICc8aW5maWxlLm1hZT4nLCAnLW9tYWUnLCAnPG91dGZpbGUubWFlPic=

> <r_lp_tautomer_probability>
1

> <r_epik_Ionization_Penalty>
4.62389

> <r_epik_Ionization_Penalty_Charging>
4.45204

> <r_epik_Ionization_Penalty_Neutral>
0.171842

> <r_epik_State_Penalty>
4.45172

> <r_epik_Charging_Adjusted_Penalty>
8.90376

> <i_epik_Tot_Q>
-1

> <i_epik_Tot_abs_Q>
1

> <r_epik_Metal_State_Penalty>
0.795834

> <b_epik_Metal_Only>
1

> <s_lp_Force_Field>
OPLS_2005

> <r_lp_Energy>
0.241417

> <b_lp_Chiralities_Consistent>
1

> <s_lp_Variant>
AV-unprocessed.smi:632-3

> <Gold.Version>
5.8.1

> <Gold.Id.Protein>
6NUR|6NUR_protein|mol2

> <Gold.PLP.Fitness>
43.5872

> <Gold.PLP.PLP>
-35.9529

> <Gold.PLP.part.hbond>
-4.0000

> <Gold.PLP.part.metal>
0.0000

> <Gold.PLP.part.buried>
-3.7286

> <Gold.PLP.part.nonpolar>
-29.0247

> <Gold.PLP.part.repulsive>
0.2941

> <Gold.PLP.ligand.clash>
0.0000

> <Gold.PLP.ligand.torsion>
0.5331

> <Gold.PLP.Chemscore.Hbond>
2.8921

> <Gold.PLP.Chemscore.CHOScore>
0.0000

> <Gold.PLP.Chemscore.Metal>
0.0000

> <Gold.Chemscore.Hbonds>
donor molecule, donor type, donor heavy atom, donor atom, acceptor molecule, acceptor atom, score
      L1  H    12    30       P1  7948  1.00
      L1  H    17    37       P1 10186  1.00
      P1  H 10785 10796       L1    17  0.86

> <Gold.PLP.Chemscore.Internal.Correction>
0.0242

> <Gold.Rescore>
     Score         DG    S(hbond)    S(metal)    S(lipo)     H(rot)  DE(clash)    DE(int)     intcor
     15.24     -17.85       2.35        0.00      75.31       1.67       0.00       2.62       ----

> <Gold.Chemscore.Fitness>
15.2352

> <Gold.Chemscore.DG>
-17.8520

> <Gold.Chemscore.ZeroCoef>
-5.4800

> <Gold.Chemscore.Hbond>
2.3491

> <Gold.Chemscore.Metal>
0.0000

> <Gold.Chemscore.Lipo>
75.3068

> <Gold.Chemscore.Internal_Hbond>
0.0000

> <Gold.Chemscore.DEClash>
0.0000

> <Gold.Chemscore.DEInternal>
2.6168

> <Gold.Chemscore.Rot>
1.6737

> <Gold.Chemscore.Internal.Correction>
   9.000000E+99

> <Gold.Chemscore.Hbonds>
donor molecule, donor type, donor heavy atom, donor atom, acceptor molecule, acceptor atom, score
      L1  H    12    30       P1  7948  0.45
      L1  H    17    37       P1 10186  0.98
      P1  H 10785 10796       L1    17  0.21

> <Gold.Chemscore.Hbond.Weighted>
-7.8458

> <Gold.Chemscore.Metal.Weighted>
-0.0000

> <Gold.Chemscore.Lipo.Weighted>
-8.8109

> <Gold.Chemscore.Internal_Hbond.Weighted>
0.0000

> <Gold.Chemscore.DEClash.Weighted>
0.0000

> <Gold.Chemscore.DEInternal.Weighted>
2.6168

> <Gold.Chemscore.Rot.Weighted>
4.2848

> <Gold.Chemscore.Internal.Correction.Weighted>
   9.000000E+99

> <Gold.Protein.RotatedTorsions>
[ 6907 6896 6895 6894 ] final  136.52 input  -60.11 | X-H torsion
[ 7974 7965 7964 7962 ] final -122.07 input  175.53 | X-H torsion
[ 8008 7997 7996 7995 ] final -135.69 input   59.86 | X-H torsion
[ 10167 10162 10161 10158 ] final  -61.44 input  -65.29 | X-H torsion
[ 10718 10713 10712 10709 ] final  133.81 input   66.30 | X-H torsion
[ 10763 10752 10751 10750 ] final   46.56 input  -60.55 | X-H torsion
[ 11005 11000 10999 10996 ] final   65.13 input  -57.11 | X-H torsion

> <Gold.Protein.ActiveResidues>
 VAL166  LYS551  ARG553  GLY616  TRP617  ASP618  TYR619  PRO620  LYS621  CYS622 
 ASP623  PHE694  ASN695  SER759  ASP760  ASP761  ALA762  ILE779  LEU786  VAL792 
 PHE793  MET794  SER795  GLU796  ALA797  LYS798  CYS799  TRP800  GLU811  SER814 

> <Gold.Protein.RotatedAtoms>
  152.2884  133.5537  159.5541 H   0  0  0  0  0  0  0  0  0  0  0  0  # atno 6907 bound_to 6896
  150.7225  134.0464  159.3792 H   0  0  0  0  0  0  0  0  0  0  0  0  # atno 6908 bound_to 6896
  151.8371  135.0602  160.0494 H   0  0  0  0  0  0  0  0  0  0  0  0  # atno 6909 bound_to 6896
  145.0334  140.8086  143.4310 H   0  0  0  0  0  0  0  0  0  0  0  0  # atno 7974 bound_to 7965
  155.3829  140.0495  157.3043 H   0  0  0  0  0  0  0  0  0  0  0  0  # atno 8008 bound_to 7997
  154.5074  140.2179  155.9186 H   0  0  0  0  0  0  0  0  0  0  0  0  # atno 8009 bound_to 7997
  156.1542  140.3130  155.8703 H   0  0  0  0  0  0  0  0  0  0  0  0  # atno 8010 bound_to 7997
  140.6005  143.2360  151.5938 H   0  0  0  0  0  0  0  0  0  0  0  0  # atno 10167 bound_to 10162
  157.4735  131.1081  150.9772 H   0  0  0  0  0  0  0  0  0  0  0  0  # atno 10718 bound_to 10713
  152.9809  135.6004  154.3619 H   0  0  0  0  0  0  0  0  0  0  0  0  # atno 10763 bound_to 10752
  154.3300  135.2768  155.2478 H   0  0  0  0  0  0  0  0  0  0  0  0  # atno 10764 bound_to 10752
  154.4606  135.5967  153.6309 H   0  0  0  0  0  0  0  0  0  0  0  0  # atno 10765 bound_to 10752
  139.9914  134.6585  156.0084 H   0  0  0  0  0  0  0  0  0  0  0  0  # atno 11005 bound_to 11000
  145.1741  139.2388  143.5327 LP  0  0  0  0  0  0  0  0  0  0  0  0  # atno 17320 bound_to 7965
  146.3501  140.1499  142.8592 LP  0  0  0  0  0  0  0  0  0  0  0  0  # atno 17321 bound_to 7965
  139.5288  144.2978  152.1099 LP  0  0  0  0  0  0  0  0  0  0  0  0  # atno 17342 bound_to 10162
  140.2158  144.4516  150.6364 LP  0  0  0  0  0  0  0  0  0  0  0  0  # atno 17343 bound_to 10162
  157.0529  130.5794  149.5373 LP  0  0  0  0  0  0  0  0  0  0  0  0  # atno 17370 bound_to 10713
  156.0085  130.5175  150.7911 LP  0  0  0  0  0  0  0  0  0  0  0  0  # atno 17371 bound_to 10713
  141.1569  133.6542  156.4190 LP  0  0  0  0  0  0  0  0  0  0  0  0  # atno 17394 bound_to 11000
  140.4901  134.6583  157.5207 LP  0  0  0  0  0  0  0  0  0  0  0  0  # atno 17395 bound_to 11000

$$$$
