AV-unprocessed.smi:845|AV-procd|sdf|3934|dock8
  -GOLD-   22720 1393D 1   1.00000     0.00000
 Structure written by MMmdl.
 41 42  0  0  0  0  0  0  0  0  2 V2000
  149.2836  141.0006  155.0147 C   0  0  0  0  0  0  0  0  0  0  0  0
  150.4003  140.2503  155.7713 C   0  0  0  0  0  0  0  0  0  0  0  0
  151.0293  139.1542  154.8930 C   0  0  0  0  0  0  0  0  0  0  0  0
  150.0570  139.7455  157.2106 C   0  0  1  0  0  0  0  0  0  0  0  0
  149.0290  138.5831  157.2329 C   0  0  0  0  0  0  0  0  0  0  0  0
  148.5030  138.3560  158.5741 N   0  0  0  0  0  0  0  0  0  0  0  0
  148.2689  137.1558  159.1199 C   0  0  0  0  0  0  0  0  0  0  0  0
  148.5021  136.1316  158.4736 O   0  0  0  0  0  0  0  0  0  0  0  0
  147.7807  137.2173  160.3797 N   0  5  0  0  0  0  0  0  0  0  0  0
  147.5074  136.0867  161.0509 C   0  0  0  0  0  0  0  0  0  0  0  0
  147.3258  134.9066  160.4471 N   0  0  0  0  0  0  0  0  0  0  0  0
  147.0627  133.8625  161.3357 C   0  0  0  0  0  0  0  0  0  0  0  0
  147.0522  134.2552  162.6479 C   0  0  0  0  0  0  0  0  0  0  0  0
  147.3731  135.9587  162.8073 S   0  0  0  0  0  0  0  0  0  0  0  0
  151.2204  139.5627  158.1025 N   0  0  0  0  0  0  0  0  0  0  0  0
  152.1530  138.5413  157.6296 C   0  0  0  0  0  0  0  0  0  0  0  0
  153.2731  138.2765  158.6491 C   0  0  0  0  0  0  0  0  0  0  0  0
  153.9575  139.4936  158.9267 O   0  0  0  0  0  0  0  0  0  0  0  0
  153.0930  140.5044  159.4347 C   0  0  0  0  0  0  0  0  0  0  0  0
  151.9585  140.7801  158.4318 C   0  0  0  0  0  0  0  0  0  0  0  0
  148.4598  140.3556  154.7200 H   0  0  0  0  0  0  0  0  0  0  0  0
  149.6794  141.4365  154.0971 H   0  0  0  0  0  0  0  0  0  0  0  0
  148.8735  141.8257  155.5964 H   0  0  0  0  0  0  0  0  0  0  0  0
  151.1885  140.9926  155.9048 H   0  0  0  0  0  0  0  0  0  0  0  0
  150.3042  138.3820  154.6345 H   0  0  0  0  0  0  0  0  0  0  0  0
  151.8641  138.6727  155.4031 H   0  0  0  0  0  0  0  0  0  0  0  0
  151.4110  139.5702  153.9604 H   0  0  0  0  0  0  0  0  0  0  0  0
  149.5134  140.5914  157.6351 H   0  0  0  0  0  0  0  0  0  0  0  0
  148.2017  138.7841  156.5512 H   0  0  0  0  0  0  0  0  0  0  0  0
  149.4874  137.6523  156.9003 H   0  0  0  0  0  0  0  0  0  0  0  0
  148.2988  139.1717  159.1326 H   0  0  0  0  0  0  0  0  0  0  0  0
  146.8973  132.8692  160.9461 H   0  0  0  0  0  0  0  0  0  0  0  0
  146.8777  133.6509  163.5254 H   0  0  0  0  0  0  0  0  0  0  0  0
  151.6194  137.6107  157.4336 H   0  0  0  0  0  0  0  0  0  0  0  0
  152.6077  138.8483  156.6879 H   0  0  0  0  0  0  0  0  0  0  0  0
  152.8660  137.8590  159.5713 H   0  0  0  0  0  0  0  0  0  0  0  0
  153.9828  137.5501  158.2535 H   0  0  0  0  0  0  0  0  0  0  0  0
  152.6862  140.1910  160.3975 H   0  0  0  0  0  0  0  0  0  0  0  0
  153.6707  141.4117  159.6116 H   0  0  0  0  0  0  0  0  0  0  0  0
  152.3793  141.2216  157.5279 H   0  0  0  0  0  0  0  0  0  0  0  0
  151.2978  141.5204  158.8713 H   0  0  0  0  0  0  0  0  0  0  0  0
  1  2  1  0  0  0  0
  1 21  1  0  0  0  0
  1 22  1  0  0  0  0
  1 23  1  0  0  0  0
  2  3  1  0  0  0  0
  2  4  1  0  0  0  0
  2 24  1  0  0  0  0
  3 25  1  0  0  0  0
  3 26  1  0  0  0  0
  3 27  1  0  0  0  0
  4  5  1  0  0  0  0
  4 15  1  0  0  0  0
  4 28  1  0  0  0  0
  5  6  1  0  0  0  0
  5 29  1  0  0  0  0
  5 30  1  0  0  0  0
  6  7  1  0  0  0  0
  6 31  1  0  0  0  0
  7  8  2  0  0  0  0
  7  9  1  0  0  0  0
  9 10  1  0  0  0  0
 10 14  1  0  0  0  0
 10 11  2  0  0  0  0
 11 12  1  0  0  0  0
 12 13  2  0  0  0  0
 12 32  1  0  0  0  0
 13 14  1  0  0  0  0
 13 33  1  0  0  0  0
 15 20  1  0  0  0  0
 15 16  1  0  0  0  0
 16 17  1  0  0  0  0
 16 34  1  0  0  0  0
 16 35  1  0  0  0  0
 17 18  1  0  0  0  0
 17 36  1  0  0  0  0
 17 37  1  0  0  0  0
 18 19  1  0  0  0  0
 19 20  1  0  0  0  0
 19 38  1  0  0  0  0
 19 39  1  0  0  0  0
 20 40  1  0  0  0  0
 20 41  1  0  0  0  0
M  CHG  1   9  -1
M  END
> <s_m_source_file>
AV-unprocessed.smi

> <i_m_source_file_index>
845

> <i_lp_mmshare_version>
43012

> <i_f3d_flags>
0

> <s_epik_input>
W0NIMl0xW0NIMl1PW0NIMl1bQ0gyXU4xW0NASF0oW0NIXShbQ0gzXSlbQ0gzXSlbQ0gyXVtOSF1DKD1PKVtOSF1jMm5bY0hdW2NIXXMy

> <s_epik_cmdline>
J2VwaWtfcHl0aG9uJywgJy1waCcsICc3LjAnLCAnLXRuJywgJzgnLCAnLW1hJywgJzIwMCcsICctbWV0YWxfYmluZGluZycsICctaW1hZScsICc8aW5maWxlLm1hZT4nLCAnLW9tYWUnLCAnPG91dGZpbGUubWFlPic=

> <r_lp_tautomer_probability>
0.999

> <r_epik_Ionization_Penalty>
9.02543

> <r_epik_Ionization_Penalty_Charging>
6.76546

> <r_epik_Ionization_Penalty_Neutral>
2.25997

> <r_epik_State_Penalty>
7.18984

> <r_epik_Charging_Adjusted_Penalty>
13.9553

> <i_epik_Tot_Q>
-1

> <i_epik_Tot_abs_Q>
1

> <r_epik_Metal_State_Penalty>
3.11401

> <b_epik_Metal_Only>
1

> <s_lp_Force_Field>
OPLS_2005

> <r_lp_Energy>
34.4261

> <b_lp_Chiralities_Consistent>
1

> <s_lp_Variant>
AV-unprocessed.smi:845-8

> <Gold.Version>
5.8.1

> <Gold.Id.Protein>
6NUR|6NUR_protein|mol2

> <Gold.PLP.Fitness>
45.5248

> <Gold.PLP.PLP>
-34.1644

> <Gold.PLP.part.hbond>
-3.0000

> <Gold.PLP.part.metal>
0.0000

> <Gold.PLP.part.buried>
-5.2099

> <Gold.PLP.part.nonpolar>
-27.9854

> <Gold.PLP.part.repulsive>
0.2988

> <Gold.PLP.ligand.clash>
0.0000

> <Gold.PLP.ligand.torsion>
0.6076

> <Gold.PLP.Chemscore.Hbond>
3.9760

> <Gold.PLP.Chemscore.CHOScore>
0.0000

> <Gold.PLP.Chemscore.Metal>
0.0000

> <Gold.Chemscore.Hbonds>
donor molecule, donor type, donor heavy atom, donor atom, acceptor molecule, acceptor atom, score
      P1  H  6931  6943       L1     9  0.73
      P1  H  6934  6947       L1     9  1.73
      P1  H  7997  8010       L1    18  0.99

> <Gold.PLP.Chemscore.Internal.Correction>
0.6475

> <Gold.Rescore>
     Score         DG    S(hbond)    S(metal)    S(lipo)     H(rot)  DE(clash)    DE(int)     intcor
     15.22     -17.75       2.19        0.00      79.72       1.71       0.16       2.37       ----

> <Gold.Chemscore.Fitness>
15.2189

> <Gold.Chemscore.DG>
-17.7486

> <Gold.Chemscore.ZeroCoef>
-5.4800

> <Gold.Chemscore.Hbond>
2.1900

> <Gold.Chemscore.Metal>
0.0000

> <Gold.Chemscore.Lipo>
79.7164

> <Gold.Chemscore.Internal_Hbond>
0.0000

> <Gold.Chemscore.DEClash>
0.1634

> <Gold.Chemscore.DEInternal>
2.3663

> <Gold.Chemscore.Rot>
1.7081

> <Gold.Chemscore.Internal.Correction>
   9.000000E+99

> <Gold.Chemscore.Hbonds>
donor molecule, donor type, donor heavy atom, donor atom, acceptor molecule, acceptor atom, score
      P1  H  6931  6943       L1     9  0.09
      P1  H  6934  6947       L1     9  0.73
      P1  H  7997  8010       L1    18  0.62

> <Gold.Chemscore.Hbond.Weighted>
-7.3145

> <Gold.Chemscore.Metal.Weighted>
-0.0000

> <Gold.Chemscore.Lipo.Weighted>
-9.3268

> <Gold.Chemscore.Internal_Hbond.Weighted>
0.0000

> <Gold.Chemscore.DEClash.Weighted>
0.1634

> <Gold.Chemscore.DEInternal.Weighted>
2.3663

> <Gold.Chemscore.Rot.Weighted>
4.3728

> <Gold.Chemscore.Internal.Correction.Weighted>
   9.000000E+99

> <Gold.Protein.RotatedTorsions>
[ 6907 6896 6895 6894 ] final -170.51 input  -60.11 | X-H torsion
[ 7974 7965 7964 7962 ] final -115.96 input  175.53 | X-H torsion
[ 8008 7997 7996 7995 ] final   -1.49 input   59.86 | X-H torsion
[ 10167 10162 10161 10158 ] final  122.54 input  -65.29 | X-H torsion
[ 10718 10713 10712 10709 ] final   85.52 input   66.30 | X-H torsion
[ 10763 10752 10751 10750 ] final -175.27 input  -60.55 | X-H torsion
[ 11005 11000 10999 10996 ] final  133.12 input  -57.11 | X-H torsion

> <Gold.Protein.ActiveResidues>
 VAL166  LYS551  ARG553  GLY616  TRP617  ASP618  TYR619  PRO620  LYS621  CYS622 
 ASP623  PHE694  ASN695  SER759  ASP760  ASP761  ALA762  ILE779  LEU786  VAL792 
 PHE793  MET794  SER795  GLU796  ALA797  LYS798  CYS799  TRP800  GLU811  SER814 

> <Gold.Protein.RotatedAtoms>
  151.5089  133.3489  159.2881 H   0  0  0  0  0  0  0  0  0  0  0  0  # atno 6907 bound_to 6896
  150.8725  134.8104  159.7176 H   0  0  0  0  0  0  0  0  0  0  0  0  # atno 6908 bound_to 6896
  152.4708  134.4975  159.9766 H   0  0  0  0  0  0  0  0  0  0  0  0  # atno 6909 bound_to 6896
  145.1023  140.8559  143.3919 H   0  0  0  0  0  0  0  0  0  0  0  0  # atno 7974 bound_to 7965
  154.6462  140.2558  155.7265 H   0  0  0  0  0  0  0  0  0  0  0  0  # atno 8008 bound_to 7997
  156.2553  140.2877  156.0797 H   0  0  0  0  0  0  0  0  0  0  0  0  # atno 8009 bound_to 7997
  155.1521  140.0382  157.2813 H   0  0  0  0  0  0  0  0  0  0  0  0  # atno 8010 bound_to 7997
  139.5853  144.7003  151.3426 H   0  0  0  0  0  0  0  0  0  0  0  0  # atno 10167 bound_to 10162
  157.6916  131.0178  150.2835 H   0  0  0  0  0  0  0  0  0  0  0  0  # atno 10718 bound_to 10713
  154.5864  135.2841  155.0681 H   0  0  0  0  0  0  0  0  0  0  0  0  # atno 10763 bound_to 10752
  154.1998  135.6426  153.5087 H   0  0  0  0  0  0  0  0  0  0  0  0  # atno 10764 bound_to 10752
  153.0106  135.5466  154.6535 H   0  0  0  0  0  0  0  0  0  0  0  0  # atno 10765 bound_to 10752
  139.9832  134.9541  156.9679 H   0  0  0  0  0  0  0  0  0  0  0  0  # atno 11005 bound_to 11000
  145.0941  139.2869  143.5720 LP  0  0  0  0  0  0  0  0  0  0  0  0  # atno 17320 bound_to 7965
  146.3529  140.0488  142.8637 LP  0  0  0  0  0  0  0  0  0  0  0  0  # atno 17321 bound_to 7965
  140.7125  143.7352  150.7594 LP  0  0  0  0  0  0  0  0  0  0  0  0  # atno 17342 bound_to 10162
  140.0895  143.4891  152.2486 LP  0  0  0  0  0  0  0  0  0  0  0  0  # atno 17343 bound_to 10162
  156.3378  130.3810  149.7435 LP  0  0  0  0  0  0  0  0  0  0  0  0  # atno 17370 bound_to 10713
  156.4954  130.8104  151.3111 LP  0  0  0  0  0  0  0  0  0  0  0  0  # atno 17371 bound_to 10713
  140.5055  134.1054  155.7259 LP  0  0  0  0  0  0  0  0  0  0  0  0  # atno 17394 bound_to 11000
  141.1501  133.8985  157.2119 LP  0  0  0  0  0  0  0  0  0  0  0  0  # atno 17395 bound_to 11000

$$$$
