AV-unprocessed.smi:901|AV-procd|sdf|4090|dock10
  -GOLD-   22720 1583D 1   1.00000     0.00000
 Structure written by MMmdl.
 43 44  0  0  0  0  0  0  0  0  1 V2000
  154.8338  140.8222  160.3705 C   0  0  0  0  0  0  0  0  0  0  0  0
  153.5084  141.5004  160.0855 C   0  0  0  0  0  0  0  0  0  0  0  0
  153.1661  142.6390  161.0306 C   0  0  0  0  0  0  0  0  0  0  0  0
  152.7171  141.1037  159.0701 C   0  0  0  0  0  0  0  0  0  0  0  0
  151.3937  141.6670  158.6913 C   0  0  2  0  0  0  0  0  0  0  0  0
  151.0893  142.0949  157.2658 C   0  0  1  0  0  0  0  0  0  0  0  0
  149.7290  141.8087  156.7076 C   0  0  0  0  0  0  0  0  0  0  0  0
  148.6986  142.2876  157.1816 O   0  0  0  0  0  0  0  0  0  0  0  0
  149.7604  140.9700  155.6564 N   0  0  0  0  0  0  0  0  0  0  0  0
  148.6790  140.4770  154.8811 C   0  0  0  0  0  0  0  0  0  0  0  0
  147.7238  141.2641  154.1701 C   0  0  0  0  0  0  0  0  0  0  0  0
  146.9090  140.3282  153.6001 C   0  0  0  0  0  0  0  0  0  0  0  0
  147.3811  139.0846  153.9693 N   0  0  0  0  0  0  0  0  0  0  0  0
  146.8560  137.7789  153.6118 C   0  0  0  0  0  0  0  0  0  0  0  0
  146.0028  137.8550  152.3446 C   0  0  0  0  0  0  0  0  0  0  0  0
  144.6808  137.7324  152.4906 N   0  0  0  0  0  0  0  0  0  0  0  0
  146.5297  138.0227  151.2470 O   0  0  0  0  0  0  0  0  0  0  0  0
  148.4721  139.1767  154.7618 N   0  0  0  0  0  0  0  0  0  0  0  0
  151.2441  143.1429  158.3633 C   0  0  0  0  0  0  0  0  0  0  0  0
  150.0658  143.9105  158.9522 C   0  0  0  0  0  0  0  0  0  0  0  0
  152.4549  144.0615  158.2901 C   0  0  0  0  0  0  0  0  0  0  0  0
  155.6506  141.5403  160.2931 H   0  0  0  0  0  0  0  0  0  0  0  0
  155.0293  140.0097  159.6697 H   0  0  0  0  0  0  0  0  0  0  0  0
  154.8359  140.4076  161.3790 H   0  0  0  0  0  0  0  0  0  0  0  0
  153.0301  142.2586  162.0431 H   0  0  0  0  0  0  0  0  0  0  0  0
  152.2580  143.1663  160.7417 H   0  0  0  0  0  0  0  0  0  0  0  0
  153.9770  143.3676  161.0466 H   0  0  0  0  0  0  0  0  0  0  0  0
  153.0591  140.2925  158.4441 H   0  0  0  0  0  0  0  0  0  0  0  0
  150.5934  141.2232  159.2811 H   0  0  0  0  0  0  0  0  0  0  0  0
  151.9079  142.0361  156.5491 H   0  0  0  0  0  0  0  0  0  0  0  0
  150.6743  140.6482  155.3727 H   0  0  0  0  0  0  0  0  0  0  0  0
  147.6342  142.3358  154.0807 H   0  0  0  0  0  0  0  0  0  0  0  0
  146.0420  140.4423  152.9664 H   0  0  0  0  0  0  0  0  0  0  0  0
  147.6825  137.0826  153.4602 H   0  0  0  0  0  0  0  0  0  0  0  0
  146.2652  137.3972  154.4454 H   0  0  0  0  0  0  0  0  0  0  0  0
  144.0762  137.7736  151.6834 H   0  0  0  0  0  0  0  0  0  0  0  0
  144.2906  137.5960  153.4121 H   0  0  0  0  0  0  0  0  0  0  0  0
  149.6995  144.6476  158.2371 H   0  0  0  0  0  0  0  0  0  0  0  0
  150.3682  144.4316  159.8608 H   0  0  0  0  0  0  0  0  0  0  0  0
  149.2441  143.2469  159.2183 H   0  0  0  0  0  0  0  0  0  0  0  0
  152.2218  144.9484  157.7003 H   0  0  0  0  0  0  0  0  0  0  0  0
  153.3025  143.5590  157.8231 H   0  0  0  0  0  0  0  0  0  0  0  0
  152.7542  144.3768  159.2900 H   0  0  0  0  0  0  0  0  0  0  0  0
  1  2  1  0  0  0  0
  1 22  1  0  0  0  0
  1 23  1  0  0  0  0
  1 24  1  0  0  0  0
  2  3  1  0  0  0  0
  2  4  2  0  0  0  0
  3 25  1  0  0  0  0
  3 26  1  0  0  0  0
  3 27  1  0  0  0  0
  4  5  1  0  0  0  0
  4 28  1  0  0  0  0
  5 19  1  0  0  0  0
  5  6  1  0  0  0  0
  5 29  1  0  0  0  0
  6  7  1  0  0  0  0
  6 19  1  0  0  0  0
  6 30  1  0  0  0  0
  7  8  2  0  0  0  0
  7  9  1  0  0  0  0
  9 10  1  0  0  0  0
  9 31  1  0  0  0  0
 10 18  2  0  0  0  0
 10 11  1  0  0  0  0
 11 12  2  0  0  0  0
 11 32  1  0  0  0  0
 12 13  1  0  0  0  0
 12 33  1  0  0  0  0
 13 14  1  0  0  0  0
 13 18  1  0  0  0  0
 14 15  1  0  0  0  0
 14 34  1  0  0  0  0
 14 35  1  0  0  0  0
 15 16  1  0  0  0  0
 15 17  2  0  0  0  0
 16 36  1  0  0  0  0
 16 37  1  0  0  0  0
 19 20  1  0  0  0  0
 19 21  1  0  0  0  0
 20 38  1  0  0  0  0
 20 39  1  0  0  0  0
 20 40  1  0  0  0  0
 21 41  1  0  0  0  0
 21 42  1  0  0  0  0
 21 43  1  0  0  0  0
M  END
> <s_m_source_file>
AV-unprocessed.smi

> <i_m_source_file_index>
901

> <i_lp_mmshare_version>
43012

> <i_f3d_flags>
0

> <s_epik_input>
W0NIM11DKFtDSDNdKT1bQ0hdW0NAQEhdKEMxKFtDSDNdKVtDSDNdKVtDQEhdMUMoPU8pW05IXWMyW2NIXVtjSF1uKG4yKVtDSDJdQyg9TylbTkgyXQ==

> <s_epik_cmdline>
J2VwaWtfcHl0aG9uJywgJy1waCcsICc3LjAnLCAnLXRuJywgJzgnLCAnLW1hJywgJzIwMCcsICctbWV0YWxfYmluZGluZycsICctaW1hZScsICc8aW5maWxlLm1hZT4nLCAnLW9tYWUnLCAnPG91dGZpbGUubWFlPic=

> <r_lp_tautomer_probability>
1

> <r_epik_Ionization_Penalty>
1.01454e-05

> <r_epik_Ionization_Penalty_Charging>
0

> <r_epik_Ionization_Penalty_Neutral>
1.01454e-05

> <r_epik_State_Penalty>
-0

> <r_epik_Charging_Adjusted_Penalty>
0

> <i_epik_Tot_Q>
0

> <i_epik_Tot_abs_Q>
0

> <r_epik_Metal_State_Penalty>
-0

> <b_epik_Metal_Only>
0

> <s_lp_Force_Field>
OPLS_2005

> <r_lp_Energy>
20.5353

> <b_lp_Chiralities_Consistent>
1

> <s_lp_Variant>
AV-unprocessed.smi:901-1

> <Gold.Version>
5.8.1

> <Gold.Id.Protein>
6NUR|6NUR_protein|mol2

> <Gold.PLP.Fitness>
47.9380

> <Gold.PLP.PLP>
-41.1121

> <Gold.PLP.part.hbond>
-3.0000

> <Gold.PLP.part.metal>
0.0000

> <Gold.PLP.part.buried>
-4.6446

> <Gold.PLP.part.nonpolar>
-38.2642

> <Gold.PLP.part.repulsive>
2.8358

> <Gold.PLP.ligand.clash>
0.0000

> <Gold.PLP.ligand.torsion>
1.0716

> <Gold.PLP.Chemscore.Hbond>
2.0000

> <Gold.PLP.Chemscore.CHOScore>
0.9324

> <Gold.PLP.Chemscore.Metal>
0.0000

> <Gold.Chemscore.Hbonds>
donor molecule, donor type, donor heavy atom, donor atom, acceptor molecule, acceptor atom, score
      L1  H    16    36       P1 10171  0.84
      P1  H  7954  7966       L1    17  0.76
      L1  C    12    33       P1 10175  1.00

> <Gold.PLP.Chemscore.Internal.Correction>
0.1719

> <Gold.Rescore>
     Score         DG    S(hbond)    S(metal)    S(lipo)     H(rot)  DE(clash)    DE(int)     intcor
     14.22     -18.91       1.95        0.00     105.78       2.13       2.39       2.30       ----

> <Gold.Chemscore.Fitness>
14.2173

> <Gold.Chemscore.DG>
-18.9137

> <Gold.Chemscore.ZeroCoef>
-5.4800

> <Gold.Chemscore.Hbond>
1.9500

> <Gold.Chemscore.Metal>
0.0000

> <Gold.Chemscore.Lipo>
105.7756

> <Gold.Chemscore.Internal_Hbond>
0.0000

> <Gold.Chemscore.DEClash>
2.3937

> <Gold.Chemscore.DEInternal>
2.3027

> <Gold.Chemscore.Rot>
2.1309

> <Gold.Chemscore.Internal.Correction>
   9.000000E+99

> <Gold.Chemscore.Hbonds>
donor molecule, donor type, donor heavy atom, donor atom, acceptor molecule, acceptor atom, score
      L1  H    16    36       P1 10171  0.79
      P1  H  7954  7966       L1    17  0.75

> <Gold.Chemscore.Hbond.Weighted>
-6.5131

> <Gold.Chemscore.Metal.Weighted>
-0.0000

> <Gold.Chemscore.Lipo.Weighted>
-12.3757

> <Gold.Chemscore.Internal_Hbond.Weighted>
0.0000

> <Gold.Chemscore.DEClash.Weighted>
2.3937

> <Gold.Chemscore.DEInternal.Weighted>
2.3027

> <Gold.Chemscore.Rot.Weighted>
5.4552

> <Gold.Chemscore.Internal.Correction.Weighted>
   9.000000E+99

> <Gold.Protein.RotatedTorsions>
[ 6907 6896 6895 6894 ] final -103.25 input  -60.11 | X-H torsion
[ 7974 7965 7964 7962 ] final   32.82 input  175.53 | X-H torsion
[ 8008 7997 7996 7995 ] final    1.87 input   59.86 | X-H torsion
[ 10167 10162 10161 10158 ] final  112.88 input  -65.29 | X-H torsion
[ 10718 10713 10712 10709 ] final   66.69 input   66.30 | X-H torsion
[ 10763 10752 10751 10750 ] final   96.01 input  -60.55 | X-H torsion
[ 11005 11000 10999 10996 ] final -112.78 input  -57.11 | X-H torsion

> <Gold.Protein.ActiveResidues>
 VAL166  LYS551  ARG553  GLY616  TRP617  ASP618  TYR619  PRO620  LYS621  CYS622 
 ASP623  PHE694  ASN695  SER759  ASP760  ASP761  ALA762  ILE779  LEU786  VAL792 
 PHE793  MET794  SER795  GLU796  ALA797  LYS798  CYS799  TRP800  GLU811  SER814 

> <Gold.Protein.RotatedAtoms>
  150.7232  134.0458  159.3781 H   0  0  0  0  0  0  0  0  0  0  0  0  # atno 6907 bound_to 6896
  151.8433  135.0580  160.0460 H   0  0  0  0  0  0  0  0  0  0  0  0  # atno 6908 bound_to 6896
  152.2846  133.5466  159.5555 H   0  0  0  0  0  0  0  0  0  0  0  0  # atno 6909 bound_to 6896
  146.1462  139.6477  142.9130 H   0  0  0  0  0  0  0  0  0  0  0  0  # atno 7974 bound_to 7965
  154.6849  140.2640  155.6871 H   0  0  0  0  0  0  0  0  0  0  0  0  # atno 8008 bound_to 7997
  156.2710  140.2803  156.1329 H   0  0  0  0  0  0  0  0  0  0  0  0  # atno 8009 bound_to 7997
  155.0979  140.0374  157.2678 H   0  0  0  0  0  0  0  0  0  0  0  0  # atno 8010 bound_to 7997
  139.6502  144.7128  151.2063 H   0  0  0  0  0  0  0  0  0  0  0  0  # atno 10167 bound_to 10162
  157.6184  130.9281  150.0142 H   0  0  0  0  0  0  0  0  0  0  0  0  # atno 10718 bound_to 10713
  153.2599  135.4234  155.0883 H   0  0  0  0  0  0  0  0  0  0  0  0  # atno 10763 bound_to 10752
  154.8416  135.3446  154.6393 H   0  0  0  0  0  0  0  0  0  0  0  0  # atno 10764 bound_to 10752
  153.6813  135.7038  153.5174 H   0  0  0  0  0  0  0  0  0  0  0  0  # atno 10765 bound_to 10752
  141.0654  133.9467  157.2588 H   0  0  0  0  0  0  0  0  0  0  0  0  # atno 11005 bound_to 11000
  145.4933  141.0438  143.2581 LP  0  0  0  0  0  0  0  0  0  0  0  0  # atno 17320 bound_to 7965
  144.7849  139.6448  143.7138 LP  0  0  0  0  0  0  0  0  0  0  0  0  # atno 17321 bound_to 7965
  140.7534  143.6162  150.8557 LP  0  0  0  0  0  0  0  0  0  0  0  0  # atno 17342 bound_to 10162
  139.9810  143.5951  152.2943 LP  0  0  0  0  0  0  0  0  0  0  0  0  # atno 17343 bound_to 10162
  156.1318  130.3643  149.9720 LP  0  0  0  0  0  0  0  0  0  0  0  0  # atno 17370 bound_to 10713
  156.7779  130.9210  151.3645 LP  0  0  0  0  0  0  0  0  0  0  0  0  # atno 17371 bound_to 10713
  139.9472  135.0182  156.8886 LP  0  0  0  0  0  0  0  0  0  0  0  0  # atno 17394 bound_to 11000
  140.5783  134.0376  155.7455 LP  0  0  0  0  0  0  0  0  0  0  0  0  # atno 17395 bound_to 11000

$$$$
