AV-unprocessed.smi:2879|AV-procd|sdf|11049|dock8
  -GOLD-   2272015513D 1   1.00000     0.00000
 Structure written by MMmdl.
 44 45  0  0  0  0  0  0  0  0  1 V2000
  146.3367  142.4325  153.7896 C   0  0  0  0  0  0  0  0  0  0  0  0
  147.5876  141.7459  154.2204 C   0  0  0  0  0  0  0  0  0  0  0  0
  148.1048  140.5223  153.9004 C   0  0  0  0  0  0  0  0  0  0  0  0
  149.3263  140.4517  154.6337 C   0  0  0  0  0  0  0  0  0  0  0  0
  150.3273  139.3266  154.6607 C   0  0  0  0  0  0  0  0  0  0  0  0
  151.5076  139.6855  155.5654 C   0  0  0  0  0  0  0  0  0  0  0  0
  152.6113  139.9248  155.0758 O   0  0  0  0  0  0  0  0  0  0  0  0
  151.2627  139.7162  156.8835 N   0  0  0  0  0  0  0  0  0  0  0  0
  152.2410  140.0696  157.9031 C   0  0  0  0  0  0  0  0  0  0  0  0
  151.8295  141.3482  158.6577 C   0  0  0  0  0  0  0  0  0  0  0  0
  151.0646  142.3443  157.7604 C   0  0  0  0  0  0  0  0  0  0  0  0
  150.6785  143.6225  158.5267 C   0  0  0  0  0  0  0  0  0  0  0  0
  151.8844  144.3335  159.1878 C   0  0  0  0  0  0  0  0  0  0  0  0
  152.7998  144.9727  158.1209 C   0  0  0  0  0  0  0  0  0  0  0  0
  151.3617  145.4601  160.1001 C   0  0  0  0  0  0  0  0  0  0  0  0
  152.6680  143.3134  160.0495 C   0  0  0  0  0  0  0  0  0  0  0  0
  153.0566  142.0366  159.2826 C   0  0  0  0  0  0  0  0  0  0  0  0
  149.5445  141.5431  155.3556 N   0  0  0  0  0  0  0  0  0  0  0  0
  148.4800  142.3239  155.0933 N   0  0  0  0  0  0  0  0  0  0  0  0
  148.3761  143.2371  155.5125 H   0  0  0  0  0  0  0  0  0  0  0  0
  145.8123  141.8485  153.0329 H   0  0  0  0  0  0  0  0  0  0  0  0
  146.5581  143.4116  153.3642 H   0  0  0  0  0  0  0  0  0  0  0  0
  145.6618  142.5738  154.6340 H   0  0  0  0  0  0  0  0  0  0  0  0
  147.6775  139.7854  153.2363 H   0  0  0  0  0  0  0  0  0  0  0  0
  149.8706  138.4023  155.0177 H   0  0  0  0  0  0  0  0  0  0  0  0
  150.6917  139.1221  153.6531 H   0  0  0  0  0  0  0  0  0  0  0  0
  150.3256  139.5088  157.1980 H   0  0  0  0  0  0  0  0  0  0  0  0
  152.3333  139.2358  158.6006 H   0  0  0  0  0  0  0  0  0  0  0  0
  153.2197  140.2084  157.4403 H   0  0  0  0  0  0  0  0  0  0  0  0
  151.1661  141.0536  159.4726 H   0  0  0  0  0  0  0  0  0  0  0  0
  151.6678  142.5979  156.8886 H   0  0  0  0  0  0  0  0  0  0  0  0
  150.1566  141.8827  157.3715 H   0  0  0  0  0  0  0  0  0  0  0  0
  150.1601  144.3081  157.8553 H   0  0  0  0  0  0  0  0  0  0  0  0
  149.9525  143.3529  159.2953 H   0  0  0  0  0  0  0  0  0  0  0  0
  153.6403  145.4917  158.5829 H   0  0  0  0  0  0  0  0  0  0  0  0
  152.2554  145.7036  157.5221 H   0  0  0  0  0  0  0  0  0  0  0  0
  153.2149  144.2384  157.4321 H   0  0  0  0  0  0  0  0  0  0  0  0
  152.1808  145.9829  160.5953 H   0  0  0  0  0  0  0  0  0  0  0  0
  150.7041  145.0723  160.8790 H   0  0  0  0  0  0  0  0  0  0  0  0
  150.7952  146.1998  159.5330 H   0  0  0  0  0  0  0  0  0  0  0  0
  153.5643  143.7791  160.4613 H   0  0  0  0  0  0  0  0  0  0  0  0
  152.0608  143.0239  160.9085 H   0  0  0  0  0  0  0  0  0  0  0  0
  153.5563  141.3484  159.9652 H   0  0  0  0  0  0  0  0  0  0  0  0
  153.7867  142.2726  158.5082 H   0  0  0  0  0  0  0  0  0  0  0  0
  1  2  1  0  0  0  0
  1 21  1  0  0  0  0
  1 22  1  0  0  0  0
  1 23  1  0  0  0  0
  2 19  1  0  0  0  0
  2  3  2  0  0  0  0
  3  4  1  0  0  0  0
  3 24  1  0  0  0  0
  4  5  1  0  0  0  0
  4 18  2  0  0  0  0
  5  6  1  0  0  0  0
  5 25  1  0  0  0  0
  5 26  1  0  0  0  0
  6  7  2  0  0  0  0
  6  8  1  0  0  0  0
  8  9  1  0  0  0  0
  8 27  1  0  0  0  0
  9 10  1  0  0  0  0
  9 28  1  0  0  0  0
  9 29  1  0  0  0  0
 10 17  1  0  0  0  0
 10 11  1  0  0  0  0
 10 30  1  0  0  0  0
 11 12  1  0  0  0  0
 11 31  1  0  0  0  0
 11 32  1  0  0  0  0
 12 13  1  0  0  0  0
 12 33  1  0  0  0  0
 12 34  1  0  0  0  0
 13 14  1  0  0  0  0
 13 15  1  0  0  0  0
 13 16  1  0  0  0  0
 14 35  1  0  0  0  0
 14 36  1  0  0  0  0
 14 37  1  0  0  0  0
 15 38  1  0  0  0  0
 15 39  1  0  0  0  0
 15 40  1  0  0  0  0
 16 17  1  0  0  0  0
 16 41  1  0  0  0  0
 16 42  1  0  0  0  0
 17 43  1  0  0  0  0
 17 44  1  0  0  0  0
 18 19  1  0  0  0  0
 19 20  1  0  0  0  0
M  END
> <s_m_source_file>
AV-unprocessed.smi

> <i_m_source_file_index>
2879

> <i_lp_mmshare_version>
43012

> <i_f3d_flags>
0

> <s_epik_input>
W0NIM11jMVtjSF1jKG5bbkhdMSlbQ0gyXUMoPU8pW05IXVtDSDJdW0NIXShbQ0gyXVtDSDJdMilbQ0gyXVtDSDJdQzIoW0NIM10pW0NIM10=

> <s_epik_cmdline>
J2VwaWtfcHl0aG9uJywgJy1waCcsICc3LjAnLCAnLXRuJywgJzgnLCAnLW1hJywgJzIwMCcsICctbWV0YWxfYmluZGluZycsICctaW1hZScsICc8aW5maWxlLm1hZT4nLCAnLW9tYWUnLCAnPG91dGZpbGUubWFlPic=

> <r_lp_tautomer_probability>
0.5

> <r_epik_Ionization_Penalty>
7.93509e-05

> <r_epik_Ionization_Penalty_Charging>
0

> <r_epik_Ionization_Penalty_Neutral>
7.93509e-05

> <r_epik_State_Penalty>
0.41068

> <r_epik_Charging_Adjusted_Penalty>
0.41068

> <i_epik_Tot_Q>
0

> <i_epik_Tot_abs_Q>
0

> <r_epik_Metal_State_Penalty>
0.4107

> <b_epik_Metal_Only>
0

> <s_lp_Force_Field>
OPLS_2005

> <r_lp_Energy>
12.5825

> <b_lp_Chiralities_Consistent>
1

> <s_lp_Variant>
AV-unprocessed.smi:2879-1

> <Gold.Version>
5.8.1

> <Gold.Id.Protein>
6NUR|6NUR_protein|mol2

> <Gold.PLP.Fitness>
55.1523

> <Gold.PLP.PLP>
-49.1572

> <Gold.PLP.part.hbond>
-2.8601

> <Gold.PLP.part.metal>
0.0000

> <Gold.PLP.part.buried>
-6.5865

> <Gold.PLP.part.nonpolar>
-40.3986

> <Gold.PLP.part.repulsive>
0.3726

> <Gold.PLP.ligand.clash>
0.0000

> <Gold.PLP.ligand.torsion>
0.3985

> <Gold.PLP.Chemscore.Hbond>
2.2612

> <Gold.PLP.Chemscore.CHOScore>
0.0000

> <Gold.PLP.Chemscore.Metal>
0.0000

> <Gold.Chemscore.Hbonds>
donor molecule, donor type, donor heavy atom, donor atom, acceptor molecule, acceptor atom, score
      L1  H    19    20       P1  8028  0.99
      P1  H  7989  7998       L1     7  0.26
      P1  H  7997  8008       L1     7  1.00

> <Gold.PLP.Chemscore.Internal.Correction>
0.0083

> <Gold.Rescore>
     Score         DG    S(hbond)    S(metal)    S(lipo)     H(rot)  DE(clash)    DE(int)     intcor
     22.61     -23.30       2.00        0.00     129.13       1.55       0.13       0.56       ----

> <Gold.Chemscore.Fitness>
22.6086

> <Gold.Chemscore.DG>
-23.2964

> <Gold.Chemscore.ZeroCoef>
-5.4800

> <Gold.Chemscore.Hbond>
1.9981

> <Gold.Chemscore.Metal>
0.0000

> <Gold.Chemscore.Lipo>
129.1270

> <Gold.Chemscore.Internal_Hbond>
0.0000

> <Gold.Chemscore.DEClash>
0.1319

> <Gold.Chemscore.DEInternal>
0.5559

> <Gold.Chemscore.Rot>
1.5489

> <Gold.Chemscore.Internal.Correction>
   9.000000E+99

> <Gold.Chemscore.Hbonds>
donor molecule, donor type, donor heavy atom, donor atom, acceptor molecule, acceptor atom, score
      L1  H    19    20       P1  8028  0.89
      P1  H  7989  7998       L1     7  0.01
      P1  H  7997  8008       L1     7  0.93

> <Gold.Chemscore.Hbond.Weighted>
-6.6737

> <Gold.Chemscore.Metal.Weighted>
-0.0000

> <Gold.Chemscore.Lipo.Weighted>
-15.1079

> <Gold.Chemscore.Internal_Hbond.Weighted>
0.0000

> <Gold.Chemscore.DEClash.Weighted>
0.1319

> <Gold.Chemscore.DEInternal.Weighted>
0.5559

> <Gold.Chemscore.Rot.Weighted>
3.9652

> <Gold.Chemscore.Internal.Correction.Weighted>
   9.000000E+99

> <Gold.Protein.RotatedTorsions>
[ 6907 6896 6895 6894 ] final   57.66 input  -60.11 | X-H torsion
[ 7974 7965 7964 7962 ] final -135.82 input  175.53 | X-H torsion
[ 8008 7997 7996 7995 ] final  -19.21 input   59.86 | X-H torsion
[ 10167 10162 10161 10158 ] final  166.84 input  -65.29 | X-H torsion
[ 10718 10713 10712 10709 ] final -118.14 input   66.30 | X-H torsion
[ 10763 10752 10751 10750 ] final  159.70 input  -60.55 | X-H torsion
[ 11005 11000 10999 10996 ] final  122.29 input  -57.11 | X-H torsion

> <Gold.Protein.ActiveResidues>
 VAL166  LYS551  ARG553  GLY616  TRP617  ASP618  TYR619  PRO620  LYS621  CYS622 
 ASP623  PHE694  ASN695  SER759  ASP760  ASP761  ALA762  ILE779  LEU786  VAL792 
 PHE793  MET794  SER795  GLU796  ALA797  LYS798  CYS799  TRP800  GLU811  SER814 

> <Gold.Protein.RotatedAtoms>
  152.3752  134.6674  160.0162 H   0  0  0  0  0  0  0  0  0  0  0  0  # atno 6907 bound_to 6896
  151.6954  133.3305  159.3261 H   0  0  0  0  0  0  0  0  0  0  0  0  # atno 6908 bound_to 6896
  150.7704  134.6597  159.6377 H   0  0  0  0  0  0  0  0  0  0  0  0  # atno 6909 bound_to 6896
  144.8981  140.6734  143.5103 H   0  0  0  0  0  0  0  0  0  0  0  0  # atno 7974 bound_to 7965
  154.4852  140.2095  155.9671 H   0  0  0  0  0  0  0  0  0  0  0  0  # atno 8008 bound_to 7997
  156.1225  140.3211  155.8199 H   0  0  0  0  0  0  0  0  0  0  0  0  # atno 8009 bound_to 7997
  155.4442  140.0512  157.2998 H   0  0  0  0  0  0  0  0  0  0  0  0  # atno 8010 bound_to 7997
  139.4933  144.3985  151.9437 H   0  0  0  0  0  0  0  0  0  0  0  0  # atno 10167 bound_to 10162
  156.1085  130.6229  150.9254 H   0  0  0  0  0  0  0  0  0  0  0  0  # atno 10718 bound_to 10713
  154.2358  135.2776  155.2872 H   0  0  0  0  0  0  0  0  0  0  0  0  # atno 10763 bound_to 10752
  154.5586  135.5654  153.6990 H   0  0  0  0  0  0  0  0  0  0  0  0  # atno 10764 bound_to 10752
  153.0010  135.6292  154.2501 H   0  0  0  0  0  0  0  0  0  0  0  0  # atno 10765 bound_to 10752
  139.9262  134.9641  156.8087 H   0  0  0  0  0  0  0  0  0  0  0  0  # atno 11005 bound_to 11000
  145.3665  139.1669  143.4355 LP  0  0  0  0  0  0  0  0  0  0  0  0  # atno 17320 bound_to 7965
  146.3093  140.3732  142.8676 LP  0  0  0  0  0  0  0  0  0  0  0  0  # atno 17321 bound_to 7965
  140.3423  144.3188  150.5965 LP  0  0  0  0  0  0  0  0  0  0  0  0  # atno 17342 bound_to 10162
  140.5555  143.2199  151.7855 LP  0  0  0  0  0  0  0  0  0  0  0  0  # atno 17343 bound_to 10162
  157.6264  131.0925  150.8526 LP  0  0  0  0  0  0  0  0  0  0  0  0  # atno 17370 bound_to 10713
  156.8641  130.5123  149.5301 LP  0  0  0  0  0  0  0  0  0  0  0  0  # atno 17371 bound_to 10713
  140.6330  133.9888  155.7671 LP  0  0  0  0  0  0  0  0  0  0  0  0  # atno 17394 bound_to 11000
  141.0821  134.0047  157.3370 LP  0  0  0  0  0  0  0  0  0  0  0  0  # atno 17395 bound_to 11000

$$$$
