AV-unprocessed.smi:2237|AV-procd|sdf|9051|dock1
  -GOLD-   2272012253D 1   1.00000     0.00000
 Structure written by MMmdl.
 54 56  0  0  0  0  0  0  0  0  2 V2000
  153.5511  142.0952  160.8970 C   0  0  0  0  0  0  0  0  0  0  0  0
  152.7105  142.4648  159.6929 C   0  0  0  0  0  0  0  0  0  0  0  0
  152.6599  143.7922  159.2237 C   0  0  0  0  0  0  0  0  0  0  0  0
  151.8619  144.0673  158.0988 C   0  0  0  0  0  0  0  0  0  0  0  0
  151.1537  143.0115  157.4933 C   0  0  0  0  0  0  0  0  0  0  0  0
  151.2595  141.7071  158.0267 C   0  0  0  0  0  0  0  0  0  0  0  0
  150.5112  140.7147  157.3402 N   0  0  0  0  0  0  0  0  0  0  0  0
  150.1317  139.5032  157.7832 C   0  0  0  0  0  0  0  0  0  0  0  0
  150.3538  139.0521  158.9074 O   0  0  0  0  0  0  0  0  0  0  0  0
  149.4626  138.8304  156.8356 N   0  0  0  0  0  0  0  0  0  0  0  0
  148.9167  137.4845  156.9832 C   0  0  0  0  0  0  0  0  0  0  0  0
  148.8283  136.8050  155.6143 C   0  0  0  0  0  0  0  0  0  0  0  0
  148.1385  135.4339  155.7155 C   0  0  0  0  0  0  0  0  0  0  0  0
  146.7743  135.5497  156.2574 N   0  0  0  0  0  0  0  0  0  0  0  0
  146.0700  134.2466  156.2738 C   0  0  2  0  0  0  0  0  0  0  0  0
  145.9671  133.5674  154.8833 C   0  0  0  0  0  0  0  0  0  0  0  0
  145.0353  134.3417  153.9335 C   0  0  0  0  0  0  0  0  0  0  0  0
  143.6761  134.4781  154.5120 N   0  3  2  0  0  0  0  0  0  0  0  0
  142.7359  135.1476  153.5878 C   0  0  0  0  0  0  0  0  0  0  0  0
  143.6968  135.1106  155.8538 C   0  0  0  0  0  0  0  0  0  0  0  0
  144.6202  134.3413  156.8158 C   0  0  0  0  0  0  0  0  0  0  0  0
  146.8735  136.1239  157.6102 C   0  0  0  0  0  0  0  0  0  0  0  0
  147.5098  137.5245  157.5910 C   0  0  0  0  0  0  0  0  0  0  0  0
  152.0314  141.4520  159.1124 N   0  0  0  0  0  0  0  0  0  0  0  0
  153.9285  142.9840  161.4037 H   0  0  0  0  0  0  0  0  0  0  0  0
  154.4036  141.4890  160.5897 H   0  0  0  0  0  0  0  0  0  0  0  0
  152.9615  141.5215  161.6126 H   0  0  0  0  0  0  0  0  0  0  0  0
  153.2162  144.5801  159.7097 H   0  0  0  0  0  0  0  0  0  0  0  0
  151.7941  145.0706  157.7054 H   0  0  0  0  0  0  0  0  0  0  0  0
  150.5373  143.2059  156.6277 H   0  0  0  0  0  0  0  0  0  0  0  0
  150.2405  140.9519  156.3975 H   0  0  0  0  0  0  0  0  0  0  0  0
  149.3256  139.2799  155.9421 H   0  0  0  0  0  0  0  0  0  0  0  0
  149.5718  136.8916  157.6246 H   0  0  0  0  0  0  0  0  0  0  0  0
  148.2751  137.4354  154.9164 H   0  0  0  0  0  0  0  0  0  0  0  0
  149.8276  136.6830  155.1949 H   0  0  0  0  0  0  0  0  0  0  0  0
  148.1273  135.0309  154.7061 H   0  0  0  0  0  0  0  0  0  0  0  0
  148.7305  134.7532  156.3295 H   0  0  0  0  0  0  0  0  0  0  0  0
  146.6376  133.5835  156.9288 H   0  0  0  0  0  0  0  0  0  0  0  0
  146.9351  133.3884  154.4198 H   0  0  0  0  0  0  0  0  0  0  0  0
  145.5556  132.5663  155.0204 H   0  0  0  0  0  0  0  0  0  0  0  0
  145.4479  135.3297  153.7230 H   0  0  0  0  0  0  0  0  0  0  0  0
  144.9709  133.8166  152.9798 H   0  0  0  0  0  0  0  0  0  0  0  0
  143.0506  136.1719  153.3835 H   0  0  0  0  0  0  0  0  0  0  0  0
  141.7320  135.1763  154.0127 H   0  0  0  0  0  0  0  0  0  0  0  0
  142.6805  134.6110  152.6400 H   0  0  0  0  0  0  0  0  0  0  0  0
  144.0209  136.1490  155.7677 H   0  0  0  0  0  0  0  0  0  0  0  0
  142.6845  135.1281  156.2594 H   0  0  0  0  0  0  0  0  0  0  0  0
  144.2283  133.3292  156.9265 H   0  0  0  0  0  0  0  0  0  0  0  0
  144.5605  134.7564  157.8192 H   0  0  0  0  0  0  0  0  0  0  0  0
  145.8931  136.2447  158.0626 H   0  0  0  0  0  0  0  0  0  0  0  0
  147.4441  135.4574  158.2589 H   0  0  0  0  0  0  0  0  0  0  0  0
  147.5516  137.9207  158.6063 H   0  0  0  0  0  0  0  0  0  0  0  0
  146.8732  138.2032  157.0211 H   0  0  0  0  0  0  0  0  0  0  0  0
  143.3271  133.5397  154.6453 H   0  0  0  0  0  0  0  0  0  0  0  0
  1  2  1  0  0  0  0
  1 25  1  0  0  0  0
  1 26  1  0  0  0  0
  1 27  1  0  0  0  0
  2 24  1  0  0  0  0
  2  3  2  0  0  0  0
  3  4  1  0  0  0  0
  3 28  1  0  0  0  0
  4  5  2  0  0  0  0
  4 29  1  0  0  0  0
  5  6  1  0  0  0  0
  5 30  1  0  0  0  0
  6  7  1  0  0  0  0
  6 24  2  0  0  0  0
  7  8  1  0  0  0  0
  7 31  1  0  0  0  0
  8  9  2  0  0  0  0
  8 10  1  0  0  0  0
 10 11  1  0  0  0  0
 10 32  1  0  0  0  0
 11 23  1  0  0  0  0
 11 12  1  0  0  0  0
 11 33  1  0  0  0  0
 12 13  1  0  0  0  0
 12 34  1  0  0  0  0
 12 35  1  0  0  0  0
 13 14  1  0  0  0  0
 13 36  1  0  0  0  0
 13 37  1  0  0  0  0
 14 15  1  0  0  0  0
 14 22  1  0  0  0  0
 15 21  1  0  0  0  0
 15 16  1  0  0  0  0
 15 38  1  0  0  0  0
 16 17  1  0  0  0  0
 16 39  1  0  0  0  0
 16 40  1  0  0  0  0
 17 18  1  0  0  0  0
 17 41  1  0  0  0  0
 17 42  1  0  0  0  0
 18 19  1  0  0  0  0
 18 20  1  0  0  0  0
 18 54  1  0  0  0  0
 19 43  1  0  0  0  0
 19 44  1  0  0  0  0
 19 45  1  0  0  0  0
 20 21  1  0  0  0  0
 20 46  1  0  0  0  0
 20 47  1  0  0  0  0
 21 48  1  0  0  0  0
 21 49  1  0  0  0  0
 22 23  1  0  0  0  0
 22 50  1  0  0  0  0
 22 51  1  0  0  0  0
 23 52  1  0  0  0  0
 23 53  1  0  0  0  0
M  CHG  1  18   1
M  END
> <s_m_source_file>
AV-unprocessed.smi

> <i_m_source_file_index>
2237

> <i_lp_mmshare_version>
43012

> <i_f3d_flags>
0

> <s_epik_input>
W0NIM11jMVtjSF1bY0hdW2NIXWMobjEpW05IXUMoPU8pW05IXVtDSF0yW0NIMl1bQ0gyXU4oW0NIMl1bQ0gyXTIpW0NIXTNbQ0gyXVtDSDJdTihbQ0gzXSlbQ0gyXVtDSDJdMw==

> <s_epik_cmdline>
J2VwaWtfcHl0aG9uJywgJy1waCcsICc3LjAnLCAnLXRuJywgJzgnLCAnLW1hJywgJzIwMCcsICctbWV0YWxfYmluZGluZycsICctaW1hZScsICc8aW5maWxlLm1hZT4nLCAnLW9tYWUnLCAnPG91dGZpbGUubWFlPic=

> <r_epik_Ionization_Penalty>
1.00983

> <r_epik_Ionization_Penalty_Charging>
0.000974969

> <r_epik_Ionization_Penalty_Neutral>
1.00886

> <r_epik_State_Penalty>
1.10286

> <r_epik_Charging_Adjusted_Penalty>
1.10383

> <i_epik_Tot_Q>
1

> <i_epik_Tot_abs_Q>
1

> <r_epik_Metal_State_Penalty>
1.10284

> <b_epik_Metal_Only>
0

> <s_lp_Force_Field>
OPLS_2005

> <r_lp_Energy>
36.6088

> <b_lp_Chiralities_Consistent>
1

> <s_lp_Variant>
AV-unprocessed.smi:2237-6

> <Gold.Version>
5.8.1

> <Gold.Id.Protein>
6NUR|6NUR_protein|mol2

> <Gold.PLP.Fitness>
35.6649

> <Gold.PLP.PLP>
-30.5562

> <Gold.PLP.part.hbond>
-1.2914

> <Gold.PLP.part.metal>
0.0000

> <Gold.PLP.part.buried>
-5.1946

> <Gold.PLP.part.nonpolar>
-24.2372

> <Gold.PLP.part.repulsive>
0.0445

> <Gold.PLP.ligand.clash>
0.0000

> <Gold.PLP.ligand.torsion>
0.4466

> <Gold.PLP.Chemscore.Hbond>
2.0000

> <Gold.PLP.Chemscore.CHOScore>
0.0000

> <Gold.PLP.Chemscore.Metal>
0.0000

> <Gold.Chemscore.Hbonds>
donor molecule, donor type, donor heavy atom, donor atom, acceptor molecule, acceptor atom, score
      L1  H    18    54       P1 10957  2.00

> <Gold.PLP.Chemscore.Internal.Correction>
0.0018

> <Gold.Rescore>
     Score         DG    S(hbond)    S(metal)    S(lipo)     H(rot)  DE(clash)    DE(int)     intcor
     13.17     -14.83       1.00        0.00      78.00       1.22       0.00       1.66       ----

> <Gold.Chemscore.Fitness>
13.1689

> <Gold.Chemscore.DG>
-14.8286

> <Gold.Chemscore.ZeroCoef>
-5.4800

> <Gold.Chemscore.Hbond>
1.0000

> <Gold.Chemscore.Metal>
0.0000

> <Gold.Chemscore.Lipo>
78.0032

> <Gold.Chemscore.Internal_Hbond>
0.0000

> <Gold.Chemscore.DEClash>
0.0004

> <Gold.Chemscore.DEInternal>
1.6592

> <Gold.Chemscore.Rot>
1.2179

> <Gold.Chemscore.Internal.Correction>
   9.000000E+99

> <Gold.Chemscore.Hbonds>
donor molecule, donor type, donor heavy atom, donor atom, acceptor molecule, acceptor atom, score
      L1  H    18    54       P1 10957  1.00

> <Gold.Chemscore.Hbond.Weighted>
-3.3399

> <Gold.Chemscore.Metal.Weighted>
-0.0000

> <Gold.Chemscore.Lipo.Weighted>
-9.1264

> <Gold.Chemscore.Internal_Hbond.Weighted>
0.0000

> <Gold.Chemscore.DEClash.Weighted>
0.0004

> <Gold.Chemscore.DEInternal.Weighted>
1.6592

> <Gold.Chemscore.Rot.Weighted>
3.1177

> <Gold.Chemscore.Internal.Correction.Weighted>
   9.000000E+99

> <Gold.Protein.RotatedTorsions>
[ 6907 6896 6895 6894 ] final   10.32 input  -60.11 | X-H torsion
[ 7974 7965 7964 7962 ] final  -50.38 input  175.53 | X-H torsion
[ 8008 7997 7996 7995 ] final   11.95 input   59.86 | X-H torsion
[ 10167 10162 10161 10158 ] final  170.94 input  -65.29 | X-H torsion
[ 10718 10713 10712 10709 ] final -109.65 input   66.30 | X-H torsion
[ 10763 10752 10751 10750 ] final  -64.01 input  -60.55 | X-H torsion
[ 11005 11000 10999 10996 ] final  -53.60 input  -57.11 | X-H torsion

> <Gold.Protein.ActiveResidues>
 VAL166  LYS551  ARG553  GLY616  TRP617  ASP618  TYR619  PRO620  LYS621  CYS622 
 ASP623  PHE694  ASN695  SER759  ASP760  ASP761  ALA762  ILE779  LEU786  VAL792 
 PHE793  MET794  SER795  GLU796  ALA797  LYS798  CYS799  TRP800  GLU811  SER814 

> <Gold.Protein.RotatedAtoms>
  151.7364  135.0864  160.0308 H   0  0  0  0  0  0  0  0  0  0  0  0  # atno 6907 bound_to 6896
  152.3508  133.6173  159.5952 H   0  0  0  0  0  0  0  0  0  0  0  0  # atno 6908 bound_to 6896
  150.7538  133.9493  159.3522 H   0  0  0  0  0  0  0  0  0  0  0  0  # atno 6909 bound_to 6896
  145.9304  140.7754  142.9602 H   0  0  0  0  0  0  0  0  0  0  0  0  # atno 7974 bound_to 7965
  154.8139  140.2872  155.5834 H   0  0  0  0  0  0  0  0  0  0  0  0  # atno 8008 bound_to 7997
  156.2991  140.2563  156.2963 H   0  0  0  0  0  0  0  0  0  0  0  0  # atno 8009 bound_to 7997
  154.9416  140.0381  157.2089 H   0  0  0  0  0  0  0  0  0  0  0  0  # atno 8010 bound_to 7997
  139.5032  144.3541  151.9892 H   0  0  0  0  0  0  0  0  0  0  0  0  # atno 10167 bound_to 10162
  156.0548  130.5775  150.8129 H   0  0  0  0  0  0  0  0  0  0  0  0  # atno 10718 bound_to 10713
  154.3236  135.6191  153.5519 H   0  0  0  0  0  0  0  0  0  0  0  0  # atno 10763 bound_to 10752
  152.9817  135.5730  154.5041 H   0  0  0  0  0  0  0  0  0  0  0  0  # atno 10764 bound_to 10752
  154.4714  135.2859  155.1616 H   0  0  0  0  0  0  0  0  0  0  0  0  # atno 10765 bound_to 10752
  141.0984  133.6621  156.4196 H   0  0  0  0  0  0  0  0  0  0  0  0  # atno 11005 bound_to 11000
  144.6764  140.2118  143.7376 LP  0  0  0  0  0  0  0  0  0  0  0  0  # atno 17320 bound_to 7965
  145.8433  139.2140  143.1815 LP  0  0  0  0  0  0  0  0  0  0  0  0  # atno 17321 bound_to 7965
  140.2978  144.3681  150.6069 LP  0  0  0  0  0  0  0  0  0  0  0  0  # atno 17342 bound_to 10162
  140.5897  143.2168  151.7276 LP  0  0  0  0  0  0  0  0  0  0  0  0  # atno 17343 bound_to 10162
  157.5508  131.0944  150.9698 LP  0  0  0  0  0  0  0  0  0  0  0  0  # atno 17370 bound_to 10713
  156.9958  130.5581  149.5307 LP  0  0  0  0  0  0  0  0  0  0  0  0  # atno 17371 bound_to 10713
  140.5083  134.6420  157.5275 LP  0  0  0  0  0  0  0  0  0  0  0  0  # atno 17394 bound_to 11000
  139.9828  134.7110  155.9829 LP  0  0  0  0  0  0  0  0  0  0  0  0  # atno 17395 bound_to 11000

$$$$
