AV-unprocessed.smi:1703|AV-procd|sdf|6857|dock7
  -GOLD-   22720 8 43D 1   1.00000     0.00000
 Structure written by MMmdl.
 48 50  0  0  0  0  0  0  0  0  1 V2000
  146.2933  138.4653  152.9879 C   0  0  0  0  0  0  0  0  0  0  0  0
  147.1052  139.3279  153.9597 C   0  0  1  0  0  0  0  0  0  0  0  0
  148.6064  138.9906  153.9192 C   0  0  0  0  0  0  0  0  0  0  0  0
  149.3838  139.8666  154.7860 N   0  0  0  0  0  0  0  0  0  0  0  0
  150.8000  139.5016  154.7737 C   0  0  0  0  0  0  0  0  0  0  0  0
  151.6689  140.2233  155.8261 C   0  0  2  0  0  0  0  0  0  0  0  0
  152.9241  139.5760  155.9115 O   0  0  0  0  0  0  0  0  0  0  0  0
  151.0075  140.2187  157.2197 C   0  0  0  0  0  0  0  0  0  0  0  0
  151.7215  141.0408  158.1885 N   0  0  0  0  0  0  0  0  0  0  0  0
  152.6356  140.6414  159.1087 C   0  0  0  0  0  0  0  0  0  0  0  0
  153.0443  139.2002  159.2308 C   0  0  0  0  0  0  0  0  0  0  0  0
  154.3717  138.9415  158.8194 O   0  0  0  0  0  0  0  0  0  0  0  0
  153.1425  141.6101  159.8752 N   0  0  0  0  0  0  0  0  0  0  0  0
  152.4992  142.7392  159.4086 C   0  0  0  0  0  0  0  0  0  0  0  0
  152.6051  144.0892  159.8130 C   0  0  0  0  0  0  0  0  0  0  0  0
  151.8364  145.0869  159.1782 C   0  0  0  0  0  0  0  0  0  0  0  0
  150.9540  144.7498  158.1316 C   0  0  0  0  0  0  0  0  0  0  0  0
  150.8341  143.4105  157.7129 C   0  0  0  0  0  0  0  0  0  0  0  0
  151.6029  142.4181  158.3505 C   0  0  0  0  0  0  0  0  0  0  0  0
  149.1589  141.2539  154.3861 C   0  0  0  0  0  0  0  0  0  0  0  0
  147.6653  141.6359  154.3755 C   0  0  2  0  0  0  0  0  0  0  0  0
  147.0736  141.8144  155.7842 C   0  0  0  0  0  0  0  0  0  0  0  0
  146.9180  140.6958  153.6016 O   0  0  0  0  0  0  0  0  0  0  0  0
  146.3874  137.4066  153.2309 H   0  0  0  0  0  0  0  0  0  0  0  0
  146.6292  138.6043  151.9597 H   0  0  0  0  0  0  0  0  0  0  0  0
  145.2348  138.7225  153.0305 H   0  0  0  0  0  0  0  0  0  0  0  0
  146.7218  139.1614  154.9669 H   0  0  0  0  0  0  0  0  0  0  0  0
  148.7471  137.9526  154.2231 H   0  0  0  0  0  0  0  0  0  0  0  0
  148.9713  139.0672  152.8935 H   0  0  0  0  0  0  0  0  0  0  0  0
  150.8620  138.4316  154.9771 H   0  0  0  0  0  0  0  0  0  0  0  0
  151.2206  139.6274  153.7744 H   0  0  0  0  0  0  0  0  0  0  0  0
  151.8358  141.2558  155.5180 H   0  0  0  0  0  0  0  0  0  0  0  0
  152.8072  138.7491  156.3532 H   0  0  0  0  0  0  0  0  0  0  0  0
  149.9800  140.5766  157.1514 H   0  0  0  0  0  0  0  0  0  0  0  0
  150.9444  139.2004  157.6057 H   0  0  0  0  0  0  0  0  0  0  0  0
  152.9420  138.8799  160.2671 H   0  0  0  0  0  0  0  0  0  0  0  0
  152.3702  138.5881  158.6310 H   0  0  0  0  0  0  0  0  0  0  0  0
  154.4293  138.0412  158.5387 H   0  0  0  0  0  0  0  0  0  0  0  0
  153.2785  144.3573  160.6136 H   0  0  0  0  0  0  0  0  0  0  0  0
  151.9247  146.1155  159.4959 H   0  0  0  0  0  0  0  0  0  0  0  0
  150.3685  145.5196  157.6506 H   0  0  0  0  0  0  0  0  0  0  0  0
  150.1576  143.1501  156.9129 H   0  0  0  0  0  0  0  0  0  0  0  0
  149.6922  141.9334  155.0507 H   0  0  0  0  0  0  0  0  0  0  0  0
  149.5712  141.4134  153.3886 H   0  0  0  0  0  0  0  0  0  0  0  0
  147.5695  142.5957  153.8672 H   0  0  0  0  0  0  0  0  0  0  0  0
  147.5842  142.6150  156.3196 H   0  0  0  0  0  0  0  0  0  0  0  0
  147.1666  140.9108  156.3862 H   0  0  0  0  0  0  0  0  0  0  0  0
  146.0162  142.0743  155.7322 H   0  0  0  0  0  0  0  0  0  0  0  0
  1  2  1  0  0  0  0
  1 24  1  0  0  0  0
  1 25  1  0  0  0  0
  1 26  1  0  0  0  0
  2 23  1  0  0  0  0
  2  3  1  0  0  0  0
  2 27  1  0  0  0  0
  3  4  1  0  0  0  0
  3 28  1  0  0  0  0
  3 29  1  0  0  0  0
  4  5  1  0  0  0  0
  4 20  1  0  0  0  0
  5  6  1  0  0  0  0
  5 30  1  0  0  0  0
  5 31  1  0  0  0  0
  6  7  1  0  0  0  0
  6  8  1  0  0  0  0
  6 32  1  0  0  0  0
  7 33  1  0  0  0  0
  8  9  1  0  0  0  0
  8 34  1  0  0  0  0
  8 35  1  0  0  0  0
  9 19  1  0  0  0  0
  9 10  1  0  0  0  0
 10 11  1  0  0  0  0
 10 13  2  0  0  0  0
 11 12  1  0  0  0  0
 11 36  1  0  0  0  0
 11 37  1  0  0  0  0
 12 38  1  0  0  0  0
 13 14  1  0  0  0  0
 14 19  2  0  0  0  0
 14 15  1  0  0  0  0
 15 16  2  0  0  0  0
 15 39  1  0  0  0  0
 16 17  1  0  0  0  0
 16 40  1  0  0  0  0
 17 18  2  0  0  0  0
 17 41  1  0  0  0  0
 18 19  1  0  0  0  0
 18 42  1  0  0  0  0
 20 21  1  0  0  0  0
 20 43  1  0  0  0  0
 20 44  1  0  0  0  0
 21 22  1  0  0  0  0
 21 23  1  0  0  0  0
 21 45  1  0  0  0  0
 22 46  1  0  0  0  0
 22 47  1  0  0  0  0
 22 48  1  0  0  0  0
M  END
> <s_m_source_file>
AV-unprocessed.smi

> <i_m_source_file_index>
1703

> <i_lp_mmshare_version>
43012

> <i_f3d_flags>
0

> <s_epik_input>
W0NIM11bQ0BASF0xW0NIMl1OKFtDSDJdW0NASF0oTzEpW0NIM10pW0NIMl1bQ0BIXShbT0hdKVtDSDJdbihjKG4yKVtDSDJdW09IXSljKGMyMylbY0hdW2NIXVtjSF1bY0hdMw==

> <s_epik_cmdline>
J2VwaWtfcHl0aG9uJywgJy1waCcsICc3LjAnLCAnLXRuJywgJzgnLCAnLW1hJywgJzIwMCcsICctbWV0YWxfYmluZGluZycsICctaW1hZScsICc8aW5maWxlLm1hZT4nLCAnLW9tYWUnLCAnPG91dGZpbGUubWFlPic=

> <r_epik_Ionization_Penalty>
0.307685

> <r_epik_Ionization_Penalty_Charging>
0

> <r_epik_Ionization_Penalty_Neutral>
0.307685

> <r_epik_State_Penalty>
0.277856

> <r_epik_Charging_Adjusted_Penalty>
0.277856

> <i_epik_Tot_Q>
0

> <i_epik_Tot_abs_Q>
0

> <r_epik_Metal_State_Penalty>
0.238959

> <b_epik_Metal_Only>
0

> <s_lp_Force_Field>
OPLS_2005

> <r_lp_Energy>
32.6891

> <b_lp_Chiralities_Consistent>
1

> <s_lp_Variant>
AV-unprocessed.smi:1703-5

> <Gold.Version>
5.8.1

> <Gold.Id.Protein>
6NUR|6NUR_protein|mol2

> <Gold.PLP.Fitness>
51.4704

> <Gold.PLP.PLP>
-46.5095

> <Gold.PLP.part.hbond>
-2.0000

> <Gold.PLP.part.metal>
0.0000

> <Gold.PLP.part.buried>
-5.2100

> <Gold.PLP.part.nonpolar>
-40.4918

> <Gold.PLP.part.repulsive>
0.2453

> <Gold.PLP.ligand.clash>
0.0000

> <Gold.PLP.ligand.torsion>
0.5488

> <Gold.PLP.Chemscore.Hbond>
1.9920

> <Gold.PLP.Chemscore.CHOScore>
0.0000

> <Gold.PLP.Chemscore.Metal>
0.0000

> <Gold.Chemscore.Hbonds>
donor molecule, donor type, donor heavy atom, donor atom, acceptor molecule, acceptor atom, score
      P1  H  7997  8009       L1    12  0.98
      P1  H  7997  8010       L1     7  0.94

> <Gold.PLP.Chemscore.Internal.Correction>
0.0825

> <Gold.Rescore>
     Score         DG    S(hbond)    S(metal)    S(lipo)     H(rot)  DE(clash)    DE(int)     intcor
     18.13     -18.79       1.75        0.00     126.78       2.88       0.02       0.64       ----

> <Gold.Chemscore.Fitness>
18.1304

> <Gold.Chemscore.DG>
-18.7850

> <Gold.Chemscore.ZeroCoef>
-5.4800

> <Gold.Chemscore.Hbond>
1.7482

> <Gold.Chemscore.Metal>
0.0000

> <Gold.Chemscore.Lipo>
126.7783

> <Gold.Chemscore.Internal_Hbond>
0.0000

> <Gold.Chemscore.DEClash>
0.0195

> <Gold.Chemscore.DEInternal>
0.6351

> <Gold.Chemscore.Rot>
2.8778

> <Gold.Chemscore.Internal.Correction>
   9.000000E+99

> <Gold.Chemscore.Hbonds>
donor molecule, donor type, donor heavy atom, donor atom, acceptor molecule, acceptor atom, score
      P1  H  7997  8009       L1    12  0.43
      P1  H  7997  8010       L1     7  0.86

> <Gold.Chemscore.Hbond.Weighted>
-5.8390

> <Gold.Chemscore.Metal.Weighted>
-0.0000

> <Gold.Chemscore.Lipo.Weighted>
-14.8331

> <Gold.Chemscore.Internal_Hbond.Weighted>
0.0000

> <Gold.Chemscore.DEClash.Weighted>
0.0195

> <Gold.Chemscore.DEInternal.Weighted>
0.6351

> <Gold.Chemscore.Rot.Weighted>
7.3671

> <Gold.Chemscore.Internal.Correction.Weighted>
   9.000000E+99

> <Gold.Protein.RotatedTorsions>
[ 6907 6896 6895 6894 ] final  -75.43 input  -60.11 | X-H torsion
[ 7974 7965 7964 7962 ] final   75.73 input  175.53 | X-H torsion
[ 8008 7997 7996 7995 ] final  106.77 input   59.86 | X-H torsion
[ 10167 10162 10161 10158 ] final   92.07 input  -65.29 | X-H torsion
[ 10718 10713 10712 10709 ] final   68.91 input   66.30 | X-H torsion
[ 10763 10752 10751 10750 ] final   -6.49 input  -60.55 | X-H torsion
[ 11005 11000 10999 10996 ] final   78.82 input  -57.11 | X-H torsion

> <Gold.Protein.ActiveResidues>
 VAL166  LYS551  ARG553  GLY616  TRP617  ASP618  TYR619  PRO620  LYS621  CYS622 
 ASP623  PHE694  ASN695  SER759  ASP760  ASP761  ALA762  ILE779  LEU786  VAL792 
 PHE793  MET794  SER795  GLU796  ALA797  LYS798  CYS799  TRP800  GLU811  SER814 

> <Gold.Protein.RotatedAtoms>
  150.7059  134.4722  159.5430 H   0  0  0  0  0  0  0  0  0  0  0  0  # atno 6907 bound_to 6896
  152.2376  134.8257  160.0474 H   0  0  0  0  0  0  0  0  0  0  0  0  # atno 6908 bound_to 6896
  151.9050  133.3512  159.3881 H   0  0  0  0  0  0  0  0  0  0  0  0  # atno 6909 bound_to 6896
  145.7119  139.2618  143.1646 H   0  0  0  0  0  0  0  0  0  0  0  0  # atno 7974 bound_to 7965
  156.1770  140.3107  155.9078 H   0  0  0  0  0  0  0  0  0  0  0  0  # atno 8008 bound_to 7997
  155.3466  140.0468  157.3062 H   0  0  0  0  0  0  0  0  0  0  0  0  # atno 8009 bound_to 7997
  154.5301  140.2227  155.8830 H   0  0  0  0  0  0  0  0  0  0  0  0  # atno 8010 bound_to 7997
  139.8313  144.6686  150.9397 H   0  0  0  0  0  0  0  0  0  0  0  0  # atno 10167 bound_to 10162
  157.6316  130.9398  150.0442 H   0  0  0  0  0  0  0  0  0  0  0  0  # atno 10718 bound_to 10713
  153.4130  135.7008  153.6346 H   0  0  0  0  0  0  0  0  0  0  0  0  # atno 10763 bound_to 10752
  153.4832  135.3689  155.2453 H   0  0  0  0  0  0  0  0  0  0  0  0  # atno 10764 bound_to 10752
  154.8718  135.4071  154.3485 H   0  0  0  0  0  0  0  0  0  0  0  0  # atno 10765 bound_to 10752
  139.9197  134.7793  156.1698 H   0  0  0  0  0  0  0  0  0  0  0  0  # atno 11005 bound_to 11000
  146.0704  140.7874  142.9690 LP  0  0  0  0  0  0  0  0  0  0  0  0  # atno 17320 bound_to 7965
  144.6939  140.3334  143.7212 LP  0  0  0  0  0  0  0  0  0  0  0  0  # atno 17321 bound_to 7965
  140.7806  143.3999  151.1167 LP  0  0  0  0  0  0  0  0  0  0  0  0  # atno 17342 bound_to 10162
  139.7652  143.8576  152.3109 LP  0  0  0  0  0  0  0  0  0  0  0  0  # atno 17343 bound_to 10162
  156.1524  130.3642  149.9419 LP  0  0  0  0  0  0  0  0  0  0  0  0  # atno 17370 bound_to 10713
  156.7435  130.9088  151.3633 LP  0  0  0  0  0  0  0  0  0  0  0  0  # atno 17371 bound_to 10713
  141.0707  133.6798  156.2135 LP  0  0  0  0  0  0  0  0  0  0  0  0  # atno 17394 bound_to 11000
  140.6511  134.5066  157.5577 LP  0  0  0  0  0  0  0  0  0  0  0  0  # atno 17395 bound_to 11000

$$$$
