AV-unprocessed.smi:158|AV-procd|sdf|1334|dock1
  -GOLD-   2262019 33D 1   1.00000     0.00000
 Structure written by MMmdl.
 31 33  0  0  0  0  0  0  0  0  1 V2000
  147.3001  139.9295  151.7485 N   0  0  0  0  0  0  0  0  0  0  0  0
  146.7726  138.9267  152.4647 C   0  0  0  0  0  0  0  0  0  0  0  0
  146.6566  139.0841  153.8035 N   0  0  0  0  0  0  0  0  0  0  0  0
  146.1397  138.1050  154.5547 C   0  0  0  0  0  0  0  0  0  0  0  0
  146.0343  138.4072  156.2488 Cl  0  0  0  0  0  0  0  0  0  0  0  0
  145.6936  136.9158  154.1394 N   0  0  0  0  0  0  0  0  0  0  0  0
  145.7998  136.7505  152.7886 C   0  0  0  0  0  0  0  0  0  0  0  0
  146.3331  137.7107  151.8858 C   0  0  0  0  0  0  0  0  0  0  0  0
  146.3020  137.2149  150.5907 N   0  0  0  0  0  0  0  0  0  0  0  0
  145.7760  136.0277  150.7247 C   0  0  0  0  0  0  0  0  0  0  0  0
  145.4338  135.6657  152.0104 N   0  0  0  0  0  0  0  0  0  0  0  0
  144.8154  134.3628  152.4363 C   0  0  1  0  0  0  0  0  0  0  0  0
  144.1437  133.7935  151.3494 O   0  0  0  0  0  0  0  0  0  0  0  0
  144.6907  132.5107  151.0366 C   0  0  1  0  0  0  0  0  0  0  0  0
  144.5694  132.1869  149.5362 C   0  0  0  0  0  0  0  0  0  0  0  0
  143.2118  132.0368  149.1780 O   0  0  0  0  0  0  0  0  0  0  0  0
  146.1026  132.5036  151.6420 C   0  0  1  0  0  0  0  0  0  0  0  0
  147.0590  133.0769  150.7693 O   0  0  0  0  0  0  0  0  0  0  0  0
  145.8813  133.3495  152.8820 C   0  0  1  0  0  0  0  0  0  0  0  0
  146.9866  133.9206  153.3673 F   0  0  0  0  0  0  0  0  0  0  0  0
  144.1234  134.6445  153.2306 H   0  0  0  0  0  0  0  0  0  0  0  0
  144.0847  131.7938  151.5934 H   0  0  0  0  0  0  0  0  0  0  0  0
  146.4302  131.4942  151.8931 H   0  0  0  0  0  0  0  0  0  0  0  0
  145.4532  132.7378  153.6768 H   0  0  0  0  0  0  0  0  0  0  0  0
  147.3980  139.8347  150.7477 H   0  0  0  0  0  0  0  0  0  0  0  0
  147.5968  140.7773  152.2097 H   0  0  0  0  0  0  0  0  0  0  0  0
  145.6140  135.3758  149.8786 H   0  0  0  0  0  0  0  0  0  0  0  0
  144.9882  133.0034  148.9473 H   0  0  0  0  0  0  0  0  0  0  0  0
  145.1215  131.2873  149.2655 H   0  0  0  0  0  0  0  0  0  0  0  0
  142.9773  132.7396  148.5910 H   0  0  0  0  0  0  0  0  0  0  0  0
  147.6789  132.4073  150.5233 H   0  0  0  0  0  0  0  0  0  0  0  0
  1  2  1  0  0  0  0
  1 25  1  0  0  0  0
  1 26  1  0  0  0  0
  2  8  1  0  0  0  0
  2  3  2  0  0  0  0
  3  4  1  0  0  0  0
  4  5  1  0  0  0  0
  4  6  2  0  0  0  0
  6  7  1  0  0  0  0
  7 11  1  0  0  0  0
  7  8  2  0  0  0  0
  8  9  1  0  0  0  0
  9 10  2  0  0  0  0
 10 11  1  0  0  0  0
 10 27  1  0  0  0  0
 11 12  1  0  0  0  0
 12 21  1  0  0  0  0
 12 19  1  0  0  0  0
 12 13  1  0  0  0  0
 13 14  1  0  0  0  0
 14 22  1  0  0  0  0
 14 15  1  0  0  0  0
 14 17  1  0  0  0  0
 15 16  1  0  0  0  0
 15 28  1  0  0  0  0
 15 29  1  0  0  0  0
 16 30  1  0  0  0  0
 17 23  1  0  0  0  0
 17 18  1  0  0  0  0
 17 19  1  0  0  0  0
 18 31  1  0  0  0  0
 19 24  1  0  0  0  0
 19 20  1  0  0  0  0
M  END
> <s_m_source_file>
AV-unprocessed.smi

> <i_m_source_file_index>
158

> <i_lp_mmshare_version>
43012

> <i_f3d_flags>
0

> <s_epik_input>
Q2xjKG4xKW5jKFtOSDJdKWMoYzEyKW5bY0hdbjJbQ0BASF0zT1tDQEhdKFtDSDJdW09IXSlbQ0BASF0oW09IXSlbQ0BASF0zRg==

> <s_epik_cmdline>
J2VwaWtfcHl0aG9uJywgJy1waCcsICc3LjAnLCAnLXRuJywgJzgnLCAnLW1hJywgJzIwMCcsICctbWV0YWxfYmluZGluZycsICctaW1hZScsICc8aW5maWxlLm1hZT4nLCAnLW9tYWUnLCAnPG91dGZpbGUubWFlPic=

> <r_lp_tautomer_probability>
1

> <r_epik_Ionization_Penalty>
6.51543e-05

> <r_epik_Ionization_Penalty_Charging>
0

> <r_epik_Ionization_Penalty_Neutral>
6.51543e-05

> <r_epik_State_Penalty>
-0

> <r_epik_Charging_Adjusted_Penalty>
0

> <i_epik_Tot_Q>
0

> <i_epik_Tot_abs_Q>
0

> <r_epik_Metal_State_Penalty>
-0

> <b_epik_Metal_Only>
0

> <s_epik_Chemistry_Notes>
This compound contains an acetal/aminal-like group ( X-CH(R)-Y where X, Y are N, S, or O) that may be acid/base labile, releasing an aldehyde.

> <s_lp_Force_Field>
OPLS_2005

> <r_lp_Energy>
41.2986

> <b_lp_Chiralities_Consistent>
1

> <s_lp_Variant>
AV-unprocessed.smi:158-12

> <Gold.Version>
5.8.1

> <Gold.Id.Protein>
6NUR|6NUR_protein|mol2

> <Gold.PLP.Fitness>
38.1135

> <Gold.PLP.PLP>
-27.2702

> <Gold.PLP.part.hbond>
-4.6209

> <Gold.PLP.part.metal>
0.0000

> <Gold.PLP.part.buried>
-4.6468

> <Gold.PLP.part.nonpolar>
-21.5622

> <Gold.PLP.part.repulsive>
2.8316

> <Gold.PLP.ligand.clash>
0.0000

> <Gold.PLP.ligand.torsion>
0.7177

> <Gold.PLP.Chemscore.Hbond>
2.8143

> <Gold.PLP.Chemscore.CHOScore>
1.0000

> <Gold.PLP.Chemscore.Metal>
0.0000

> <Gold.Chemscore.Hbonds>
donor molecule, donor type, donor heavy atom, donor atom, acceptor molecule, acceptor atom, score
      L1  H    18    31       P1 10747  1.00
      P1  H  7954  7966       L1     9  0.81
      P1  H 10785 10796       L1    16  1.00
      L1  C    10    27       P1  7921  1.00

> <Gold.PLP.Chemscore.Internal.Correction>
0.8358

> <Gold.Rescore>
     Score         DG    S(hbond)    S(metal)    S(lipo)     H(rot)  DE(clash)    DE(int)     intcor
      8.28     -11.04       2.75        0.00      37.31       3.12       2.02       0.73       ----

> <Gold.Chemscore.Fitness>
8.2807

> <Gold.Chemscore.DG>
-11.0358

> <Gold.Chemscore.ZeroCoef>
-5.4800

> <Gold.Chemscore.Hbond>
2.7500

> <Gold.Chemscore.Metal>
0.0000

> <Gold.Chemscore.Lipo>
37.3139

> <Gold.Chemscore.Internal_Hbond>
0.0000

> <Gold.Chemscore.DEClash>
2.0229

> <Gold.Chemscore.DEInternal>
0.7321

> <Gold.Chemscore.Rot>
3.1230

> <Gold.Chemscore.Internal.Correction>
   9.000000E+99

> <Gold.Chemscore.Hbonds>
donor molecule, donor type, donor heavy atom, donor atom, acceptor molecule, acceptor atom, score
      L1  H    18    31       P1 10747  0.93
      P1  H  7954  7966       L1     9  0.23
      P1  H 10785 10796       L1    16  0.25

> <Gold.Chemscore.Hbond.Weighted>
-9.1850

> <Gold.Chemscore.Metal.Weighted>
-0.0000

> <Gold.Chemscore.Lipo.Weighted>
-4.3657

> <Gold.Chemscore.Internal_Hbond.Weighted>
0.0000

> <Gold.Chemscore.DEClash.Weighted>
2.0229

> <Gold.Chemscore.DEInternal.Weighted>
0.7321

> <Gold.Chemscore.Rot.Weighted>
7.9950

> <Gold.Chemscore.Internal.Correction.Weighted>
   9.000000E+99

> <Gold.Protein.RotatedTorsions>
[ 6907 6896 6895 6894 ] final  143.93 input  -60.11 | X-H torsion
[ 7974 7965 7964 7962 ] final   68.43 input  175.53 | X-H torsion
[ 8008 7997 7996 7995 ] final -153.38 input   59.86 | X-H torsion
[ 10167 10162 10161 10158 ] final -102.64 input  -65.29 | X-H torsion
[ 10718 10713 10712 10709 ] final  -94.00 input   66.30 | X-H torsion
[ 10763 10752 10751 10750 ] final  -73.91 input  -60.55 | X-H torsion
[ 11005 11000 10999 10996 ] final -127.54 input  -57.11 | X-H torsion

> <Gold.Protein.ActiveResidues>
 VAL166  LYS551  ARG553  GLY616  TRP617  ASP618  TYR619  PRO620  LYS621  CYS622 
 ASP623  PHE694  ASN695  SER759  ASP760  ASP761  ALA762  ILE779  LEU786  VAL792 
 PHE793  MET794  SER795  GLU796  ALA797  LYS798  CYS799  TRP800  GLU811  SER814 

> <Gold.Protein.RotatedAtoms>
  152.2000  133.4834  159.5053 H   0  0  0  0  0  0  0  0  0  0  0  0  # atno 6907 bound_to 6896
  150.6968  134.1602  159.4182 H   0  0  0  0  0  0  0  0  0  0  0  0  # atno 6908 bound_to 6896
  151.9519  135.0165  160.0593 H   0  0  0  0  0  0  0  0  0  0  0  0  # atno 6909 bound_to 6896
  145.8026  139.2990  143.1146 H   0  0  0  0  0  0  0  0  0  0  0  0  # atno 7974 bound_to 7965
  155.6699  140.0732  157.2524 H   0  0  0  0  0  0  0  0  0  0  0  0  # atno 8008 bound_to 7997
  154.4125  140.1701  156.1919 H   0  0  0  0  0  0  0  0  0  0  0  0  # atno 8009 bound_to 7997
  155.9626  140.3368  155.6507 H   0  0  0  0  0  0  0  0  0  0  0  0  # atno 8010 bound_to 7997
  140.2285  143.3623  152.0907 H   0  0  0  0  0  0  0  0  0  0  0  0  # atno 10167 bound_to 10162
  156.0021  130.5050  150.5861 H   0  0  0  0  0  0  0  0  0  0  0  0  # atno 10718 bound_to 10713
  154.4660  135.5881  153.6288 H   0  0  0  0  0  0  0  0  0  0  0  0  # atno 10763 bound_to 10752
  152.9828  135.6055  154.3427 H   0  0  0  0  0  0  0  0  0  0  0  0  # atno 10764 bound_to 10752
  154.3304  135.2842  155.2454 H   0  0  0  0  0  0  0  0  0  0  0  0  # atno 10765 bound_to 10752
  140.9590  134.0962  157.3987 H   0  0  0  0  0  0  0  0  0  0  0  0  # atno 11005 bound_to 11000
  145.9861  140.8642  143.0090 LP  0  0  0  0  0  0  0  0  0  0  0  0  # atno 17320 bound_to 7965
  144.6767  140.2149  143.7373 LP  0  0  0  0  0  0  0  0  0  0  0  0  # atno 17321 bound_to 7965
  139.5118  144.6907  151.5768 LP  0  0  0  0  0  0  0  0  0  0  0  0  # atno 17342 bound_to 10162
  140.6202  143.9272  150.6520 LP  0  0  0  0  0  0  0  0  0  0  0  0  # atno 17343 bound_to 10162
  157.3734  131.0769  151.1539 LP  0  0  0  0  0  0  0  0  0  0  0  0  # atno 17370 bound_to 10713
  157.2285  130.6514  149.5840 LP  0  0  0  0  0  0  0  0  0  0  0  0  # atno 17371 bound_to 10713
  139.8872  135.0087  156.6544 LP  0  0  0  0  0  0  0  0  0  0  0  0  # atno 17394 bound_to 11000
  140.7494  133.8910  155.8336 LP  0  0  0  0  0  0  0  0  0  0  0  0  # atno 17395 bound_to 11000

$$$$
