AV-unprocessed.smi:1990|AV-procd|sdf|8065|dock5
  -GOLD-   2272010273D 1   1.00000     0.00000
 Structure written by MMmdl.
 46 47  0  0  0  0  0  0  0  0  1 V2000
  152.9480  143.0543  161.9629 C   0  0  0  0  0  0  0  0  0  0  0  0
  152.7099  143.0964  160.4498 C   0  0  1  0  0  0  0  0  0  0  0  0
  152.1490  141.7637  159.9204 C   0  0  0  0  0  0  0  0  0  0  0  0
  151.8046  141.8824  158.5078 N   0  0  0  0  0  0  0  0  0  0  0  0
  151.5875  140.6640  157.8304 C   0  0  0  0  0  0  0  0  0  0  0  0
  151.8752  140.5599  156.4497 C   0  0  0  0  0  0  0  0  0  0  0  0
  151.6486  139.3379  155.7874 C   0  0  0  0  0  0  0  0  0  0  0  0
  151.1444  138.2413  156.5259 C   0  0  0  0  0  0  0  0  0  0  0  0
  150.8545  136.9575  155.9876 N   0  0  0  0  0  0  0  0  0  0  0  0
  150.9563  135.7432  156.5606 C   0  0  0  0  0  0  0  0  0  0  0  0
  151.2853  135.5454  157.7295 O   0  0  0  0  0  0  0  0  0  0  0  0
  150.6012  134.5544  155.6558 C   0  0  2  0  0  0  0  0  0  0  0  0
  149.1286  134.5855  155.2145 C   0  0  0  0  0  0  0  0  0  0  0  0
  150.9634  132.9599  156.5307 S   0  0  0  0  0  0  0  0  0  0  0  0
  150.4858  131.6818  155.2922 C   0  0  0  0  0  0  0  0  0  0  0  0
  152.4135  132.8562  156.7561 O   0  0  0  0  0  0  0  0  0  0  0  0
  150.0472  132.8529  157.6763 O   0  0  0  0  0  0  0  0  0  0  0  0
  150.8802  138.4463  157.8948 C   0  0  0  0  0  0  0  0  0  0  0  0
  151.0920  139.6160  158.5322 N   0  0  0  0  0  0  0  0  0  0  0  0
  150.8992  142.9940  158.2270 C   0  0  0  0  0  0  0  0  0  0  0  0
  151.4517  144.3139  158.7991 C   0  0  2  0  0  0  0  0  0  0  0  0
  152.6203  144.8948  157.9825 C   0  0  0  0  0  0  0  0  0  0  0  0
  151.7855  144.1497  160.1791 O   0  0  0  0  0  0  0  0  0  0  0  0
  153.6627  142.2744  162.2260 H   0  0  0  0  0  0  0  0  0  0  0  0
  152.0217  142.8561  162.5031 H   0  0  0  0  0  0  0  0  0  0  0  0
  153.3456  144.0043  162.3209 H   0  0  0  0  0  0  0  0  0  0  0  0
  153.6627  143.3105  159.9655 H   0  0  0  0  0  0  0  0  0  0  0  0
  152.8800  140.9738  160.0900 H   0  0  0  0  0  0  0  0  0  0  0  0
  151.2516  141.4871  160.4754 H   0  0  0  0  0  0  0  0  0  0  0  0
  152.2473  141.4056  155.8905 H   0  0  0  0  0  0  0  0  0  0  0  0
  151.8552  139.2810  154.7311 H   0  0  0  0  0  0  0  0  0  0  0  0
  150.5107  136.9641  155.0383 H   0  0  0  0  0  0  0  0  0  0  0  0
  151.2288  134.5806  154.7641 H   0  0  0  0  0  0  0  0  0  0  0  0
  148.8791  135.5287  154.7272 H   0  0  0  0  0  0  0  0  0  0  0  0
  148.4533  134.4558  156.0611 H   0  0  0  0  0  0  0  0  0  0  0  0
  148.9201  133.7850  154.5043 H   0  0  0  0  0  0  0  0  0  0  0  0
  150.5574  130.6951  155.7490 H   0  0  0  0  0  0  0  0  0  0  0  0
  151.1577  131.7240  154.4354 H   0  0  0  0  0  0  0  0  0  0  0  0
  149.4609  131.8529  154.9642 H   0  0  0  0  0  0  0  0  0  0  0  0
  150.4838  137.6454  158.5021 H   0  0  0  0  0  0  0  0  0  0  0  0
  150.7410  143.0975  157.1525 H   0  0  0  0  0  0  0  0  0  0  0  0
  149.9290  142.7775  158.6764 H   0  0  0  0  0  0  0  0  0  0  0  0
  150.6484  145.0504  158.7660 H   0  0  0  0  0  0  0  0  0  0  0  0
  152.2997  145.1351  156.9688 H   0  0  0  0  0  0  0  0  0  0  0  0
  153.4546  144.1989  157.8994 H   0  0  0  0  0  0  0  0  0  0  0  0
  152.9931  145.8131  158.4364 H   0  0  0  0  0  0  0  0  0  0  0  0
  1  2  1  0  0  0  0
  1 24  1  0  0  0  0
  1 25  1  0  0  0  0
  1 26  1  0  0  0  0
  2 23  1  0  0  0  0
  2  3  1  0  0  0  0
  2 27  1  0  0  0  0
  3  4  1  0  0  0  0
  3 28  1  0  0  0  0
  3 29  1  0  0  0  0
  4  5  1  0  0  0  0
  4 20  1  0  0  0  0
  5 19  1  0  0  0  0
  5  6  2  0  0  0  0
  6  7  1  0  0  0  0
  6 30  1  0  0  0  0
  7  8  2  0  0  0  0
  7 31  1  0  0  0  0
  8  9  1  0  0  0  0
  8 18  1  0  0  0  0
  9 10  1  0  0  0  0
  9 32  1  0  0  0  0
 10 11  2  0  0  0  0
 10 12  1  0  0  0  0
 12 13  1  0  0  0  0
 12 14  1  0  0  0  0
 12 33  1  0  0  0  0
 13 34  1  0  0  0  0
 13 35  1  0  0  0  0
 13 36  1  0  0  0  0
 14 15  1  0  0  0  0
 14 16  2  0  0  0  0
 14 17  2  0  0  0  0
 15 37  1  0  0  0  0
 15 38  1  0  0  0  0
 15 39  1  0  0  0  0
 18 19  2  0  0  0  0
 18 40  1  0  0  0  0
 20 21  1  0  0  0  0
 20 41  1  0  0  0  0
 20 42  1  0  0  0  0
 21 22  1  0  0  0  0
 21 23  1  0  0  0  0
 21 43  1  0  0  0  0
 22 44  1  0  0  0  0
 22 45  1  0  0  0  0
 22 46  1  0  0  0  0
M  END
> <s_m_source_file>
AV-unprocessed.smi

> <i_m_source_file_index>
1990

> <i_lp_mmshare_version>
43012

> <i_f3d_flags>
0

> <s_epik_input>
W0NIM11bQ0BASF0xW0NIMl1OKFtDSDJdW0NASF0oTzEpW0NIM10pYzJbY0hdW2NIXWMoW2NIXW4yKVtOSF1DKD1PKVtDQEhdKFtDSDNdKVMoPU8pKD1PKVtDSDNd

> <s_epik_cmdline>
J2VwaWtfcHl0aG9uJywgJy1waCcsICc3LjAnLCAnLXRuJywgJzgnLCAnLW1hJywgJzIwMCcsICctbWV0YWxfYmluZGluZycsICctaW1hZScsICc8aW5maWxlLm1hZT4nLCAnLW9tYWUnLCAnPG91dGZpbGUubWFlPic=

> <r_lp_tautomer_probability>
1

> <r_epik_Ionization_Penalty>
0.000334888

> <r_epik_Ionization_Penalty_Charging>
0

> <r_epik_Ionization_Penalty_Neutral>
0.000334888

> <r_epik_State_Penalty>
0.000200905

> <r_epik_Charging_Adjusted_Penalty>
0.000200905

> <i_epik_Tot_Q>
0

> <i_epik_Tot_abs_Q>
0

> <r_epik_Metal_State_Penalty>
-0

> <b_epik_Metal_Only>
0

> <s_lp_Force_Field>
OPLS_2005

> <r_lp_Energy>
21.5774

> <b_lp_Chiralities_Consistent>
1

> <s_lp_Variant>
AV-unprocessed.smi:1990-5

> <Gold.Version>
5.8.1

> <Gold.Id.Protein>
6NUR|6NUR_protein|mol2

> <Gold.PLP.Fitness>
41.9038

> <Gold.PLP.PLP>
-39.9935

> <Gold.PLP.part.hbond>
-2.0000

> <Gold.PLP.part.metal>
0.0000

> <Gold.PLP.part.buried>
-6.6076

> <Gold.PLP.part.nonpolar>
-31.3637

> <Gold.PLP.part.repulsive>
0.1270

> <Gold.PLP.ligand.clash>
0.0000

> <Gold.PLP.ligand.torsion>
0.8750

> <Gold.PLP.Chemscore.Hbond>
1.0608

> <Gold.PLP.Chemscore.CHOScore>
0.0000

> <Gold.PLP.Chemscore.Metal>
0.0000

> <Gold.Chemscore.Hbonds>
donor molecule, donor type, donor heavy atom, donor atom, acceptor molecule, acceptor atom, score
      P1  H  6896  6908       L1    17  1.00
      P1  H  6896  6909       L1    11  0.04

> <Gold.PLP.Chemscore.Internal.Correction>
0.4778

> <Gold.Rescore>
     Score         DG    S(hbond)    S(metal)    S(lipo)     H(rot)  DE(clash)    DE(int)     intcor
     11.79     -16.24       0.95        0.00      98.00       1.52       0.54       3.91       ----

> <Gold.Chemscore.Fitness>
11.7859

> <Gold.Chemscore.DG>
-16.2435

> <Gold.Chemscore.ZeroCoef>
-5.4800

> <Gold.Chemscore.Hbond>
0.9528

> <Gold.Chemscore.Metal>
0.0000

> <Gold.Chemscore.Lipo>
98.0018

> <Gold.Chemscore.Internal_Hbond>
0.0000

> <Gold.Chemscore.DEClash>
0.5433

> <Gold.Chemscore.DEInternal>
3.9142

> <Gold.Chemscore.Rot>
1.5177

> <Gold.Chemscore.Internal.Correction>
   9.000000E+99

> <Gold.Chemscore.Hbonds>
donor molecule, donor type, donor heavy atom, donor atom, acceptor molecule, acceptor atom, score
      P1  H  6896  6908       L1    17  0.65
      P1  H  6896  6909       L1    11  0.05

> <Gold.Chemscore.Hbond.Weighted>
-3.1825

> <Gold.Chemscore.Metal.Weighted>
-0.0000

> <Gold.Chemscore.Lipo.Weighted>
-11.4662

> <Gold.Chemscore.Internal_Hbond.Weighted>
0.0000

> <Gold.Chemscore.DEClash.Weighted>
0.5433

> <Gold.Chemscore.DEInternal.Weighted>
3.9142

> <Gold.Chemscore.Rot.Weighted>
3.8853

> <Gold.Chemscore.Internal.Correction.Weighted>
   9.000000E+99

> <Gold.Protein.RotatedTorsions>
[ 6907 6896 6895 6894 ] final  106.21 input  -60.11 | X-H torsion
[ 7974 7965 7964 7962 ] final   54.79 input  175.53 | X-H torsion
[ 8008 7997 7996 7995 ] final   78.43 input   59.86 | X-H torsion
[ 10167 10162 10161 10158 ] final -136.37 input  -65.29 | X-H torsion
[ 10718 10713 10712 10709 ] final   19.84 input   66.30 | X-H torsion
[ 10763 10752 10751 10750 ] final   40.29 input  -60.55 | X-H torsion
[ 11005 11000 10999 10996 ] final   60.17 input  -57.11 | X-H torsion

> <Gold.Protein.ActiveResidues>
 VAL166  LYS551  ARG553  GLY616  TRP617  ASP618  TYR619  PRO620  LYS621  CYS622 
 ASP623  PHE694  ASN695  SER759  ASP760  ASP761  ALA762  ILE779  LEU786  VAL792 
 PHE793  MET794  SER795  GLU796  ALA797  LYS798  CYS799  TRP800  GLU811  SER814 

> <Gold.Protein.RotatedAtoms>
  152.5202  133.9415  159.7628 H   0  0  0  0  0  0  0  0  0  0  0  0  # atno 6907 bound_to 6896
  150.9744  133.6302  159.2739 H   0  0  0  0  0  0  0  0  0  0  0  0  # atno 6908 bound_to 6896
  151.3502  135.0888  159.9453 H   0  0  0  0  0  0  0  0  0  0  0  0  # atno 6909 bound_to 6896
  145.9572  139.4025  143.0270 H   0  0  0  0  0  0  0  0  0  0  0  0  # atno 7974 bound_to 7965
  155.8556  140.3456  155.5722 H   0  0  0  0  0  0  0  0  0  0  0  0  # atno 8008 bound_to 7997
  155.7990  140.0882  157.1987 H   0  0  0  0  0  0  0  0  0  0  0  0  # atno 8009 bound_to 7997
  154.4009  140.1469  156.3239 H   0  0  0  0  0  0  0  0  0  0  0  0  # atno 8010 bound_to 7997
  139.8685  143.6987  152.2642 H   0  0  0  0  0  0  0  0  0  0  0  0  # atno 10167 bound_to 10162
  157.1162  130.6530  149.5911 H   0  0  0  0  0  0  0  0  0  0  0  0  # atno 10718 bound_to 10713
  152.9941  135.6196  154.2602 H   0  0  0  0  0  0  0  0  0  0  0  0  # atno 10763 bound_to 10752
  154.2338  135.2791  155.2881 H   0  0  0  0  0  0  0  0  0  0  0  0  # atno 10764 bound_to 10752
  154.5427  135.5756  153.6911 H   0  0  0  0  0  0  0  0  0  0  0  0  # atno 10765 bound_to 10752
  140.0251  134.6095  155.9585 H   0  0  0  0  0  0  0  0  0  0  0  0  # atno 11005 bound_to 11000
  145.8090  140.9735  143.0958 LP  0  0  0  0  0  0  0  0  0  0  0  0  # atno 17320 bound_to 7965
  144.6807  139.9897  143.7484 LP  0  0  0  0  0  0  0  0  0  0  0  0  # atno 17321 bound_to 7965
  139.7306  144.7583  151.0807 LP  0  0  0  0  0  0  0  0  0  0  0  0  # atno 17342 bound_to 10162
  140.7764  143.5092  150.9673 LP  0  0  0  0  0  0  0  0  0  0  0  0  # atno 17343 bound_to 10162
  155.9839  130.4861  150.6956 LP  0  0  0  0  0  0  0  0  0  0  0  0  # atno 17370 bound_to 10713
  157.4517  131.0873  151.0839 LP  0  0  0  0  0  0  0  0  0  0  0  0  # atno 17371 bound_to 10713
  141.1797  133.6545  156.4972 LP  0  0  0  0  0  0  0  0  0  0  0  0  # atno 17394 bound_to 11000
  140.4321  134.7092  157.4947 LP  0  0  0  0  0  0  0  0  0  0  0  0  # atno 17395 bound_to 11000

$$$$
