AV-unprocessed.smi:476|AV-procd|sdf|2669|dock1
  -GOLD-   2262023 83D 1   1.00000     0.00000
 Structure written by MMmdl.
 39 40  0  0  0  0  0  0  0  0  1 V2000
  152.0723  144.0913  161.2168 C   0  0  0  0  0  0  0  0  0  0  0  0
  152.7448  142.7446  161.0159 C   0  0  0  0  0  0  0  0  0  0  0  0
  153.3795  142.0433  161.9612 C   0  0  0  0  0  0  0  0  0  0  0  0
  153.9918  140.5165  161.3736 S   0  0  0  0  0  0  0  0  0  0  0  0
  153.3292  140.8707  159.7380 C   0  0  0  0  0  0  0  0  0  0  0  0
  153.4443  140.0962  158.7895 O   0  0  0  0  0  0  0  0  0  0  0  0
  152.7055  142.1181  159.7625 N   0  0  0  0  0  0  0  0  0  0  0  0
  152.0788  142.7101  158.5734 C   0  0  0  0  0  0  0  0  0  0  0  0
  150.7726  142.0095  158.1803 C   0  0  0  0  0  0  0  0  0  0  0  0
  150.3759  141.0199  158.7973 O   0  0  0  0  0  0  0  0  0  0  0  0
  150.1082  142.5456  157.1458 N   0  0  0  0  0  0  0  0  0  0  0  0
  148.8800  142.0105  156.5658 C   0  0  0  0  0  0  0  0  0  0  0  0
  149.0655  141.5422  155.1075 C   0  0  0  0  0  0  0  0  0  0  0  0
  149.9609  140.3198  154.9637 C   0  0  0  0  0  0  0  0  0  0  0  0
  151.1968  140.2741  155.4991 C   0  0  0  0  0  0  0  0  0  0  0  0
  152.1440  139.0962  155.3574 C   0  0  0  0  0  0  0  0  0  0  0  0
  151.7007  138.1204  154.2551 C   0  0  0  0  0  0  0  0  0  0  0  0
  150.1910  137.8577  154.3234 C   0  0  0  0  0  0  0  0  0  0  0  0
  149.3862  139.1595  154.1594 C   0  0  0  0  0  0  0  0  0  0  0  0
  151.9338  144.2916  162.2795 H   0  0  0  0  0  0  0  0  0  0  0  0
  151.0887  144.1207  160.7479 H   0  0  0  0  0  0  0  0  0  0  0  0
  152.6872  144.8885  160.7990 H   0  0  0  0  0  0  0  0  0  0  0  0
  153.5151  142.3349  162.9923 H   0  0  0  0  0  0  0  0  0  0  0  0
  151.8891  143.7748  158.7043 H   0  0  0  0  0  0  0  0  0  0  0  0
  152.7796  142.6447  157.7388 H   0  0  0  0  0  0  0  0  0  0  0  0
  150.5017  143.3633  156.7025 H   0  0  0  0  0  0  0  0  0  0  0  0
  148.4995  141.1935  157.1806 H   0  0  0  0  0  0  0  0  0  0  0  0
  148.1269  142.7977  156.6051 H   0  0  0  0  0  0  0  0  0  0  0  0
  148.0883  141.3190  154.6773 H   0  0  0  0  0  0  0  0  0  0  0  0
  149.4773  142.3539  154.5074 H   0  0  0  0  0  0  0  0  0  0  0  0
  151.5669  141.1131  156.0705 H   0  0  0  0  0  0  0  0  0  0  0  0
  153.1473  139.4649  155.1436 H   0  0  0  0  0  0  0  0  0  0  0  0
  152.1918  138.5843  156.3189 H   0  0  0  0  0  0  0  0  0  0  0  0
  151.9473  138.5388  153.2783 H   0  0  0  0  0  0  0  0  0  0  0  0
  152.2549  137.1853  154.3400 H   0  0  0  0  0  0  0  0  0  0  0  0
  149.8954  137.1391  153.5584 H   0  0  0  0  0  0  0  0  0  0  0  0
  149.9512  137.4011  155.2846 H   0  0  0  0  0  0  0  0  0  0  0  0
  148.3508  138.9876  154.4548 H   0  0  0  0  0  0  0  0  0  0  0  0
  149.3704  139.4513  153.1088 H   0  0  0  0  0  0  0  0  0  0  0  0
  1  2  1  0  0  0  0
  1 20  1  0  0  0  0
  1 21  1  0  0  0  0
  1 22  1  0  0  0  0
  2  7  1  0  0  0  0
  2  3  2  0  0  0  0
  3  4  1  0  0  0  0
  3 23  1  0  0  0  0
  4  5  1  0  0  0  0
  5  6  2  0  0  0  0
  5  7  1  0  0  0  0
  7  8  1  0  0  0  0
  8  9  1  0  0  0  0
  8 24  1  0  0  0  0
  8 25  1  0  0  0  0
  9 10  2  0  0  0  0
  9 11  1  0  0  0  0
 11 12  1  0  0  0  0
 11 26  1  0  0  0  0
 12 13  1  0  0  0  0
 12 27  1  0  0  0  0
 12 28  1  0  0  0  0
 13 14  1  0  0  0  0
 13 29  1  0  0  0  0
 13 30  1  0  0  0  0
 14 19  1  0  0  0  0
 14 15  2  0  0  0  0
 15 16  1  0  0  0  0
 15 31  1  0  0  0  0
 16 17  1  0  0  0  0
 16 32  1  0  0  0  0
 16 33  1  0  0  0  0
 17 18  1  0  0  0  0
 17 34  1  0  0  0  0
 17 35  1  0  0  0  0
 18 19  1  0  0  0  0
 18 36  1  0  0  0  0
 18 37  1  0  0  0  0
 19 38  1  0  0  0  0
 19 39  1  0  0  0  0
M  END
> <s_m_source_file>
AV-unprocessed.smi

> <i_m_source_file_index>
476

> <i_lp_mmshare_version>
43012

> <i_f3d_flags>
0

> <s_epik_input>
W0NIM11jMVtjSF1zYyg9TyluMVtDSDJdQyg9TylbTkhdW0NIMl1bQ0gyXUMyPVtDSF1bQ0gyXVtDSDJdW0NIMl1bQ0gyXTI=

> <s_epik_cmdline>
J2VwaWtfcHl0aG9uJywgJy1waCcsICc3LjAnLCAnLXRuJywgJzgnLCAnLW1hJywgJzIwMCcsICctbWV0YWxfYmluZGluZycsICctaW1hZScsICc8aW5maWxlLm1hZT4nLCAnLW9tYWUnLCAnPG91dGZpbGUubWFlPic=

> <r_lp_tautomer_probability>
1

> <r_epik_Ionization_Penalty>
1.31088e-06

> <r_epik_Ionization_Penalty_Charging>
1.18065e-06

> <r_epik_Ionization_Penalty_Neutral>
1.30231e-07

> <r_epik_State_Penalty>
-0

> <r_epik_Charging_Adjusted_Penalty>
1.18065e-06

> <i_epik_Tot_Q>
0

> <i_epik_Tot_abs_Q>
0

> <r_epik_Metal_State_Penalty>
-0

> <b_epik_Metal_Only>
0

> <s_lp_Force_Field>
OPLS_2005

> <r_lp_Energy>
10.5339

> <b_lp_Chiralities_Consistent>
1

> <s_lp_Variant>
AV-unprocessed.smi:476-1

> <Gold.Version>
5.8.1

> <Gold.Id.Protein>
6NUR|6NUR_protein|mol2

> <Gold.PLP.Fitness>
49.7229

> <Gold.PLP.PLP>
-47.2706

> <Gold.PLP.part.hbond>
-2.0356

> <Gold.PLP.part.metal>
0.0000

> <Gold.PLP.part.buried>
-0.6506

> <Gold.PLP.part.nonpolar>
-43.6358

> <Gold.PLP.part.repulsive>
0.0196

> <Gold.PLP.ligand.clash>
0.0000

> <Gold.PLP.ligand.torsion>
0.2187

> <Gold.PLP.Chemscore.Hbond>
0.9440

> <Gold.PLP.Chemscore.CHOScore>
0.0000

> <Gold.PLP.Chemscore.Metal>
0.0000

> <Gold.Chemscore.Hbonds>
donor molecule, donor type, donor heavy atom, donor atom, acceptor molecule, acceptor atom, score
      L1  H    11    26       P1  8028  0.06
      P1  H  7997  8010       L1     6  0.84

> <Gold.PLP.Chemscore.Internal.Correction>
0.0576

> <Gold.Rescore>
     Score         DG    S(hbond)    S(metal)    S(lipo)     H(rot)  DE(clash)    DE(int)     intcor
     16.48     -16.66       0.89        0.00     107.69       1.72       0.01       0.17       ----

> <Gold.Chemscore.Fitness>
16.4784

> <Gold.Chemscore.DG>
-16.6601

> <Gold.Chemscore.ZeroCoef>
-5.4800

> <Gold.Chemscore.Hbond>
0.8944

> <Gold.Chemscore.Metal>
0.0000

> <Gold.Chemscore.Lipo>
107.6902

> <Gold.Chemscore.Internal_Hbond>
0.0000

> <Gold.Chemscore.DEClash>
0.0108

> <Gold.Chemscore.DEInternal>
0.1709

> <Gold.Chemscore.Rot>
1.7215

> <Gold.Chemscore.Internal.Correction>
   9.000000E+99

> <Gold.Chemscore.Hbonds>
donor molecule, donor type, donor heavy atom, donor atom, acceptor molecule, acceptor atom, score
      L1  H    11    26       P1  8028  0.06
      P1  H  7997  8010       L1     6  0.78

> <Gold.Chemscore.Hbond.Weighted>
-2.9874

> <Gold.Chemscore.Metal.Weighted>
-0.0000

> <Gold.Chemscore.Lipo.Weighted>
-12.5998

> <Gold.Chemscore.Internal_Hbond.Weighted>
0.0000

> <Gold.Chemscore.DEClash.Weighted>
0.0108

> <Gold.Chemscore.DEInternal.Weighted>
0.1709

> <Gold.Chemscore.Rot.Weighted>
4.4070

> <Gold.Chemscore.Internal.Correction.Weighted>
   9.000000E+99

> <Gold.Protein.RotatedTorsions>
[ 6907 6896 6895 6894 ] final  -51.71 input  -60.11 | X-H torsion
[ 7974 7965 7964 7962 ] final  -18.79 input  175.53 | X-H torsion
[ 8008 7997 7996 7995 ] final   17.42 input   59.86 | X-H torsion
[ 10167 10162 10161 10158 ] final    5.32 input  -65.29 | X-H torsion
[ 10718 10713 10712 10709 ] final  150.21 input   66.30 | X-H torsion
[ 10763 10752 10751 10750 ] final   98.19 input  -60.55 | X-H torsion
[ 11005 11000 10999 10996 ] final -153.10 input  -57.11 | X-H torsion

> <Gold.Protein.ActiveResidues>
 VAL166  LYS551  ARG553  GLY616  TRP617  ASP618  TYR619  PRO620  LYS621  CYS622 
 ASP623  PHE694  ASN695  SER759  ASP760  ASP761  ALA762  ILE779  LEU786  VAL792 
 PHE793  MET794  SER795  GLU796  ALA797  LYS798  CYS799  TRP800  GLU811  SER814 

> <Gold.Protein.RotatedAtoms>
  150.8585  134.7931  159.7064 H   0  0  0  0  0  0  0  0  0  0  0  0  # atno 6907 bound_to 6896
  152.4629  134.5138  159.9772 H   0  0  0  0  0  0  0  0  0  0  0  0  # atno 6908 bound_to 6896
  151.5246  133.3422  159.2943 H   0  0  0  0  0  0  0  0  0  0  0  0  # atno 6909 bound_to 6896
  146.1874  140.3971  142.8471 H   0  0  0  0  0  0  0  0  0  0  0  0  # atno 7974 bound_to 7965
  154.8912  140.2987  155.5370 H   0  0  0  0  0  0  0  0  0  0  0  0  # atno 8008 bound_to 7997
  156.3021  140.2424  156.3862 H   0  0  0  0  0  0  0  0  0  0  0  0  # atno 8009 bound_to 7997
  154.8617  140.0405  157.1658 H   0  0  0  0  0  0  0  0  0  0  0  0  # atno 8010 bound_to 7997
  140.6488  143.7596  150.7541 H   0  0  0  0  0  0  0  0  0  0  0  0  # atno 10167 bound_to 10162
  157.2863  131.0845  151.1495 H   0  0  0  0  0  0  0  0  0  0  0  0  # atno 10718 bound_to 10713
  153.2861  135.4157  155.1124 H   0  0  0  0  0  0  0  0  0  0  0  0  # atno 10763 bound_to 10752
  154.8505  135.3507  154.6045 H   0  0  0  0  0  0  0  0  0  0  0  0  # atno 10764 bound_to 10752
  153.6467  135.7054  153.5281 H   0  0  0  0  0  0  0  0  0  0  0  0  # atno 10765 bound_to 10752
  140.7117  134.3825  157.5196 H   0  0  0  0  0  0  0  0  0  0  0  0  # atno 11005 bound_to 11000
  144.8423  140.6876  143.6221 LP  0  0  0  0  0  0  0  0  0  0  0  0  # atno 17320 bound_to 7965
  145.3896  139.1619  143.4236 LP  0  0  0  0  0  0  0  0  0  0  0  0  # atno 17321 bound_to 7965
  140.1243  143.4584  152.2294 LP  0  0  0  0  0  0  0  0  0  0  0  0  # atno 17342 bound_to 10162
  139.5701  144.7458  151.3915 LP  0  0  0  0  0  0  0  0  0  0  0  0  # atno 17343 bound_to 10162
  157.2909  130.6795  149.6113 LP  0  0  0  0  0  0  0  0  0  0  0  0  # atno 17370 bound_to 10713
  155.9665  130.4421  150.5367 LP  0  0  0  0  0  0  0  0  0  0  0  0  # atno 17371 bound_to 10713
  139.8870  134.8895  156.2554 LP  0  0  0  0  0  0  0  0  0  0  0  0  # atno 17394 bound_to 11000
  141.0078  133.7113  156.1063 LP  0  0  0  0  0  0  0  0  0  0  0  0  # atno 17395 bound_to 11000

$$$$
