AV-unprocessed.smi:2604|AV-procd|sdf|10189|dock9
  -GOLD-   2272014203D 1   1.00000     0.00000
 Structure written by MMmdl.
 26 27  0  0  0  0  0  0  0  0  2 V2000
  146.8417  134.2587  154.5180 C   0  0  0  0  0  0  0  0  0  0  0  0
  148.1318  133.7030  154.6243 C   0  0  0  0  0  0  0  0  0  0  0  0
  148.7603  133.0890  153.5989 N   0  0  0  0  0  0  0  0  0  0  0  0
  148.1108  133.0040  152.4183 C   0  0  0  0  0  0  0  0  0  0  0  0
  146.8144  133.5206  152.2035 C   0  0  0  0  0  0  0  0  0  0  0  0
  146.1528  133.3968  150.8406 C   0  0  2  0  0  0  0  0  0  0  0  0
  144.6998  133.9232  150.8761 C   0  0  0  0  0  0  0  0  0  0  0  0
  144.0845  133.8359  149.5362 N   0  3  0  0  0  0  0  0  0  0  0  0
  144.1544  132.4595  149.0075 C   0  0  0  0  0  0  0  0  0  0  0  0
  145.6149  131.9731  148.9997 C   0  0  0  0  0  0  0  0  0  0  0  0
  146.1573  132.0169  150.3541 N   0  0  0  0  0  0  0  0  0  0  0  0
  146.1718  134.1665  153.2830 C   0  0  0  0  0  0  0  0  0  0  0  0
  146.3782  134.7443  155.3641 H   0  0  0  0  0  0  0  0  0  0  0  0
  148.6740  133.7547  155.5569 H   0  0  0  0  0  0  0  0  0  0  0  0
  148.6445  132.5088  151.6204 H   0  0  0  0  0  0  0  0  0  0  0  0
  146.7332  133.9994  150.1399 H   0  0  0  0  0  0  0  0  0  0  0  0
  144.0969  133.3557  151.5867 H   0  0  0  0  0  0  0  0  0  0  0  0
  144.6805  134.9641  151.2005 H   0  0  0  0  0  0  0  0  0  0  0  0
  143.1193  134.1289  149.5887 H   0  0  0  0  0  0  0  0  0  0  0  0
  143.5332  131.8015  149.6172 H   0  0  0  0  0  0  0  0  0  0  0  0
  143.7430  132.4440  147.9980 H   0  0  0  0  0  0  0  0  0  0  0  0
  145.6659  130.9479  148.6324 H   0  0  0  0  0  0  0  0  0  0  0  0
  146.2261  132.5829  148.3327 H   0  0  0  0  0  0  0  0  0  0  0  0
  147.1034  131.6611  150.3535 H   0  0  0  0  0  0  0  0  0  0  0  0
  145.1831  134.5866  153.1696 H   0  0  0  0  0  0  0  0  0  0  0  0
  144.5844  134.4495  148.9091 H   0  0  0  0  0  0  0  0  0  0  0  0
  1 12  1  0  0  0  0
  1  2  2  0  0  0  0
  1 13  1  0  0  0  0
  2  3  1  0  0  0  0
  2 14  1  0  0  0  0
  3  4  2  0  0  0  0
  4  5  1  0  0  0  0
  4 15  1  0  0  0  0
  5  6  1  0  0  0  0
  5 12  2  0  0  0  0
  6 11  1  0  0  0  0
  6  7  1  0  0  0  0
  6 16  1  0  0  0  0
  7  8  1  0  0  0  0
  7 17  1  0  0  0  0
  7 18  1  0  0  0  0
  8  9  1  0  0  0  0
  8 19  1  0  0  0  0
  8 26  1  0  0  0  0
  9 10  1  0  0  0  0
  9 20  1  0  0  0  0
  9 21  1  0  0  0  0
 10 11  1  0  0  0  0
 10 22  1  0  0  0  0
 10 23  1  0  0  0  0
 11 24  1  0  0  0  0
 12 25  1  0  0  0  0
M  CHG  1   8   1
M  END
> <s_m_source_file>
AV-unprocessed.smi

> <i_m_source_file_index>
2604

> <i_lp_mmshare_version>
43012

> <i_f3d_flags>
0

> <s_epik_input>
W2NIXTFbY0hdW2NIXW5bY0hdYzFbQ0BASF0yW0NIMl1bTkhdW0NIMl1bQ0gyXVtOSF0y

> <s_epik_cmdline>
J2VwaWtfcHl0aG9uJywgJy1waCcsICc3LjAnLCAnLXRuJywgJzgnLCAnLW1hJywgJzIwMCcsICctbWV0YWxfYmluZGluZycsICctaW1hZScsICc8aW5maWxlLm1hZT4nLCAnLW9tYWUnLCAnPG91dGZpbGUubWFlPic=

> <r_epik_Ionization_Penalty>
0.0181456

> <r_epik_Ionization_Penalty_Charging>
0.010317

> <r_epik_Ionization_Penalty_Neutral>
0.00782861

> <r_epik_State_Penalty>
0.306622

> <r_epik_Charging_Adjusted_Penalty>
0.316939

> <i_epik_Tot_Q>
1

> <i_epik_Tot_abs_Q>
1

> <r_epik_Metal_State_Penalty>
0.302658

> <b_epik_Metal_Only>
0

> <s_lp_Force_Field>
OPLS_2005

> <r_lp_Energy>
10.6943

> <b_lp_Chiralities_Consistent>
1

> <s_lp_Variant>
AV-unprocessed.smi:2604-1

> <Gold.Version>
5.8.1

> <Gold.Id.Protein>
6NUR|6NUR_protein|mol2

> <Gold.PLP.Fitness>
34.6751

> <Gold.PLP.PLP>
-21.3125

> <Gold.PLP.part.hbond>
-2.6333

> <Gold.PLP.part.metal>
0.0000

> <Gold.PLP.part.buried>
-2.3604

> <Gold.PLP.part.nonpolar>
-17.1313

> <Gold.PLP.part.repulsive>
0.2619

> <Gold.PLP.ligand.clash>
0.0000

> <Gold.PLP.ligand.torsion>
0.0877

> <Gold.PLP.Chemscore.Hbond>
3.5100

> <Gold.PLP.Chemscore.CHOScore>
1.0000

> <Gold.PLP.Chemscore.Metal>
0.0000

> <Gold.Chemscore.Hbonds>
donor molecule, donor type, donor heavy atom, donor atom, acceptor molecule, acceptor atom, score
      L1  H     8    19       P1 10186  1.53
      L1  H     8    26       P1  7921  0.99
      L1  H    11    24       P1 10747  0.99
      L1  C     4    15       P1 10747  1.00

> <Gold.PLP.Chemscore.Internal.Correction>
0.0081

> <Gold.Rescore>
     Score         DG    S(hbond)    S(metal)    S(lipo)     H(rot)  DE(clash)    DE(int)     intcor
     18.66     -18.83       2.61        0.00      61.58       1.00       0.15       0.02       ----

> <Gold.Chemscore.Fitness>
18.6564

> <Gold.Chemscore.DG>
-18.8265

> <Gold.Chemscore.ZeroCoef>
-5.4800

> <Gold.Chemscore.Hbond>
2.6053

> <Gold.Chemscore.Metal>
0.0000

> <Gold.Chemscore.Lipo>
61.5779

> <Gold.Chemscore.Internal_Hbond>
0.0000

> <Gold.Chemscore.DEClash>
0.1461

> <Gold.Chemscore.DEInternal>
0.0239

> <Gold.Chemscore.Rot>
1.0000

> <Gold.Chemscore.Internal.Correction>
   9.000000E+99

> <Gold.Chemscore.Hbonds>
donor molecule, donor type, donor heavy atom, donor atom, acceptor molecule, acceptor atom, score
      L1  H     8    19       P1 10186  0.75
      L1  H     8    26       P1  7921  0.88
      L1  H    11    24       P1 10747  0.92

> <Gold.Chemscore.Hbond.Weighted>
-8.7019

> <Gold.Chemscore.Metal.Weighted>
-0.0000

> <Gold.Chemscore.Lipo.Weighted>
-7.2046

> <Gold.Chemscore.Internal_Hbond.Weighted>
0.0000

> <Gold.Chemscore.DEClash.Weighted>
0.1461

> <Gold.Chemscore.DEInternal.Weighted>
0.0239

> <Gold.Chemscore.Rot.Weighted>
2.5600

> <Gold.Chemscore.Internal.Correction.Weighted>
   9.000000E+99

> <Gold.Protein.RotatedTorsions>
[ 6907 6896 6895 6894 ] final  108.43 input  -60.11 | X-H torsion
[ 7974 7965 7964 7962 ] final  -27.52 input  175.53 | X-H torsion
[ 8008 7997 7996 7995 ] final -169.04 input   59.86 | X-H torsion
[ 10167 10162 10161 10158 ] final -138.98 input  -65.29 | X-H torsion
[ 10718 10713 10712 10709 ] final  -12.57 input   66.30 | X-H torsion
[ 10763 10752 10751 10750 ] final   50.65 input  -60.55 | X-H torsion
[ 11005 11000 10999 10996 ] final   52.15 input  -57.11 | X-H torsion

> <Gold.Protein.ActiveResidues>
 VAL166  LYS551  ARG553  GLY616  TRP617  ASP618  TYR619  PRO620  LYS621  CYS622 
 ASP623  PHE694  ASN695  SER759  ASP760  ASP761  ALA762  ILE779  LEU786  VAL792 
 PHE793  MET794  SER795  GLU796  ALA797  LYS798  CYS799  TRP800  GLU811  SER814 

> <Gold.Protein.RotatedAtoms>
  152.5112  133.9089  159.7477 H   0  0  0  0  0  0  0  0  0  0  0  0  # atno 6907 bound_to 6896
  150.9487  133.6565  159.2783 H   0  0  0  0  0  0  0  0  0  0  0  0  # atno 6908 bound_to 6896
  151.3851  135.0951  159.9561 H   0  0  0  0  0  0  0  0  0  0  0  0  # atno 6909 bound_to 6896
  146.1352  140.5163  142.8676 H   0  0  0  0  0  0  0  0  0  0  0  0  # atno 7974 bound_to 7965
  155.8996  140.1038  157.1360 H   0  0  0  0  0  0  0  0  0  0  0  0  # atno 8008 bound_to 7997
  154.4024  140.1295  156.4483 H   0  0  0  0  0  0  0  0  0  0  0  0  # atno 8009 bound_to 7997
  155.7438  140.3466  155.5119 H   0  0  0  0  0  0  0  0  0  0  0  0  # atno 8010 bound_to 7997
  139.8424  143.7304  152.2662 H   0  0  0  0  0  0  0  0  0  0  0  0  # atno 10167 bound_to 10162
  156.6427  130.4932  149.6089 H   0  0  0  0  0  0  0  0  0  0  0  0  # atno 10718 bound_to 10713
  152.9784  135.5872  154.4286 H   0  0  0  0  0  0  0  0  0  0  0  0  # atno 10763 bound_to 10752
  154.3902  135.2768  155.2161 H   0  0  0  0  0  0  0  0  0  0  0  0  # atno 10764 bound_to 10752
  154.4037  135.6097  153.5966 H   0  0  0  0  0  0  0  0  0  0  0  0  # atno 10765 bound_to 10752
  140.0873  134.5256  155.8886 H   0  0  0  0  0  0  0  0  0  0  0  0  # atno 11005 bound_to 11000
  144.7732  140.5683  143.6656 LP  0  0  0  0  0  0  0  0  0  0  0  0  # atno 17320 bound_to 7965
  145.5172  139.1477  143.3572 LP  0  0  0  0  0  0  0  0  0  0  0  0  # atno 17321 bound_to 7965
  139.7545  144.7524  151.0456 LP  0  0  0  0  0  0  0  0  0  0  0  0  # atno 17342 bound_to 10162
  140.7796  143.4821  151.0004 LP  0  0  0  0  0  0  0  0  0  0  0  0  # atno 17343 bound_to 10162
  156.2146  130.6700  151.1306 LP  0  0  0  0  0  0  0  0  0  0  0  0  # atno 17370 bound_to 10713
  157.7166  131.0706  150.6303 LP  0  0  0  0  0  0  0  0  0  0  0  0  # atno 17371 bound_to 10713
  141.2067  133.6657  156.6257 LP  0  0  0  0  0  0  0  0  0  0  0  0  # atno 17394 bound_to 11000
  140.3402  134.7856  157.4391 LP  0  0  0  0  0  0  0  0  0  0  0  0  # atno 17395 bound_to 11000

$$$$
