AV-unprocessed.smi:1795|AV-procd|sdf|7245|dock8
  -GOLD-   22720 8493D 1   1.00000     0.00000
 Structure written by MMmdl.
 48 49  0  0  0  0  0  0  0  0  2 V2000
  146.2045  136.0878  156.2601 C   0  0  0  0  0  0  0  0  0  0  0  0
  146.6741  136.7092  154.9400 C   0  0  2  0  0  0  0  0  0  0  0  0
  147.8477  137.6820  155.1457 C   0  0  0  0  0  0  0  0  0  0  0  0
  148.2412  138.3206  153.8619 N   0  3  2  0  0  0  0  0  0  0  0  0
  149.4899  139.1420  153.9883 C   0  0  1  0  0  0  0  0  0  0  0  0
  149.1408  140.5342  154.5624 C   0  0  0  0  0  0  0  0  0  0  0  0
  150.6080  138.4622  154.8271 C   0  0  0  0  0  0  0  0  0  0  0  0
  150.6111  138.9011  156.2204 N   0  0  0  0  0  0  0  0  0  0  0  0
  151.6807  139.3537  156.8931 C   0  0  0  0  0  0  0  0  0  0  0  0
  152.7938  139.4870  156.3833 O   0  0  0  0  0  0  0  0  0  0  0  0
  151.4478  139.7098  158.3677 C   0  0  0  0  0  0  0  0  0  0  0  0
  151.7410  141.1200  158.6744 N   0  0  0  0  0  0  0  0  0  0  0  0
  152.5881  141.3781  159.7707 C   0  0  0  0  0  0  0  0  0  0  0  0
  152.9225  142.6275  160.1305 C   0  0  0  0  0  0  0  0  0  0  0  0
  152.3888  143.7262  159.3608 C   0  0  0  0  0  0  0  0  0  0  0  0
  151.5756  143.4910  158.3120 C   0  0  0  0  0  0  0  0  0  0  0  0
  151.2075  142.1271  157.9147 C   0  0  0  0  0  0  0  0  0  0  0  0
  150.4649  141.9026  156.9579 O   0  0  0  0  0  0  0  0  0  0  0  0
  147.0595  139.0093  153.2742 C   0  0  0  0  0  0  0  0  0  0  0  0
  145.8572  138.0540  153.1320 C   0  0  1  0  0  0  0  0  0  0  0  0
  146.0089  137.0450  151.9792 C   0  0  0  0  0  0  0  0  0  0  0  0
  145.5749  137.4151  154.3749 O   0  0  0  0  0  0  0  0  0  0  0  0
  147.0054  135.5198  156.7342 H   0  0  0  0  0  0  0  0  0  0  0  0
  145.3689  135.4072  156.0948 H   0  0  0  0  0  0  0  0  0  0  0  0
  145.8754  136.8531  156.9636 H   0  0  0  0  0  0  0  0  0  0  0  0
  146.9785  135.8995  154.2766 H   0  0  0  0  0  0  0  0  0  0  0  0
  147.5711  138.4550  155.8649 H   0  0  0  0  0  0  0  0  0  0  0  0
  148.6808  137.1344  155.5827 H   0  0  0  0  0  0  0  0  0  0  0  0
  149.8940  139.2804  152.9838 H   0  0  0  0  0  0  0  0  0  0  0  0
  150.0052  141.1975  154.5693 H   0  0  0  0  0  0  0  0  0  0  0  0
  148.7784  140.4551  155.5879 H   0  0  0  0  0  0  0  0  0  0  0  0
  148.3772  141.0507  153.9842 H   0  0  0  0  0  0  0  0  0  0  0  0
  150.5266  137.3759  154.7605 H   0  0  0  0  0  0  0  0  0  0  0  0
  151.5916  138.7255  154.4381 H   0  0  0  0  0  0  0  0  0  0  0  0
  149.7358  138.8340  156.7197 H   0  0  0  0  0  0  0  0  0  0  0  0
  150.4143  139.4634  158.6149 H   0  0  0  0  0  0  0  0  0  0  0  0
  152.0572  139.0642  159.0035 H   0  0  0  0  0  0  0  0  0  0  0  0
  152.9411  140.5039  160.2979 H   0  0  0  0  0  0  0  0  0  0  0  0
  153.5719  142.8064  160.9749 H   0  0  0  0  0  0  0  0  0  0  0  0
  152.6420  144.7417  159.6279 H   0  0  0  0  0  0  0  0  0  0  0  0
  151.1852  144.3254  157.7480 H   0  0  0  0  0  0  0  0  0  0  0  0
  146.7869  139.8534  153.9100 H   0  0  0  0  0  0  0  0  0  0  0  0
  147.2821  139.4090  152.2853 H   0  0  0  0  0  0  0  0  0  0  0  0
  144.9804  138.6600  152.9019 H   0  0  0  0  0  0  0  0  0  0  0  0
  146.0879  137.5612  151.0220 H   0  0  0  0  0  0  0  0  0  0  0  0
  145.1434  136.3843  151.9246 H   0  0  0  0  0  0  0  0  0  0  0  0
  146.8983  136.4244  152.0845 H   0  0  0  0  0  0  0  0  0  0  0  0
  148.4665  137.5742  153.2197 H   0  0  0  0  0  0  0  0  0  0  0  0
  1  2  1  0  0  0  0
  1 23  1  0  0  0  0
  1 24  1  0  0  0  0
  1 25  1  0  0  0  0
  2 22  1  0  0  0  0
  2  3  1  0  0  0  0
  2 26  1  0  0  0  0
  3  4  1  0  0  0  0
  3 27  1  0  0  0  0
  3 28  1  0  0  0  0
  4  5  1  0  0  0  0
  4 19  1  0  0  0  0
  4 48  1  0  0  0  0
  5  6  1  0  0  0  0
  5  7  1  0  0  0  0
  5 29  1  0  0  0  0
  6 30  1  0  0  0  0
  6 31  1  0  0  0  0
  6 32  1  0  0  0  0
  7  8  1  0  0  0  0
  7 33  1  0  0  0  0
  7 34  1  0  0  0  0
  8  9  1  0  0  0  0
  8 35  1  0  0  0  0
  9 10  2  0  0  0  0
  9 11  1  0  0  0  0
 11 12  1  0  0  0  0
 11 36  1  0  0  0  0
 11 37  1  0  0  0  0
 12 17  1  0  0  0  0
 12 13  1  0  0  0  0
 13 14  2  0  0  0  0
 13 38  1  0  0  0  0
 14 15  1  0  0  0  0
 14 39  1  0  0  0  0
 15 16  2  0  0  0  0
 15 40  1  0  0  0  0
 16 17  1  0  0  0  0
 16 41  1  0  0  0  0
 17 18  2  0  0  0  0
 19 20  1  0  0  0  0
 19 42  1  0  0  0  0
 19 43  1  0  0  0  0
 20 21  1  0  0  0  0
 20 22  1  0  0  0  0
 20 44  1  0  0  0  0
 21 45  1  0  0  0  0
 21 46  1  0  0  0  0
 21 47  1  0  0  0  0
M  CHG  1   4   1
M  END
> <s_m_source_file>
AV-unprocessed.smi

> <i_m_source_file_index>
1795

> <i_lp_mmshare_version>
43012

> <i_f3d_flags>
0

> <s_epik_input>
W0NIM11bQ0BASF0xW0NIMl1OKFtDSDJdW0NASF0oTzEpW0NIM10pW0NASF0oW0NIM10pW0NIMl1bTkhdQyg9TylbQ0gyXW4yW2NIXVtjSF1bY0hdW2NIXWMyPU8=

> <s_epik_cmdline>
J2VwaWtfcHl0aG9uJywgJy1waCcsICc3LjAnLCAnLXRuJywgJzgnLCAnLW1hJywgJzIwMCcsICctbWV0YWxfYmluZGluZycsICctaW1hZScsICc8aW5maWxlLm1hZT4nLCAnLW9tYWUnLCAnPG91dGZpbGUubWFlPic=

> <r_lp_tautomer_probability>
1

> <r_epik_Ionization_Penalty>
0.656654

> <r_epik_Ionization_Penalty_Charging>
0.656654

> <r_epik_Ionization_Penalty_Neutral>
8.90321e-08

> <r_epik_State_Penalty>
0.675641

> <r_epik_Charging_Adjusted_Penalty>
1.33229

> <i_epik_Tot_Q>
1

> <i_epik_Tot_abs_Q>
1

> <r_epik_Metal_State_Penalty>
0.675691

> <b_epik_Metal_Only>
0

> <s_lp_Force_Field>
OPLS_2005

> <r_lp_Energy>
30.7176

> <b_lp_Chiralities_Consistent>
1

> <s_lp_Variant>
AV-unprocessed.smi:1795-9

> <Gold.Version>
5.8.1

> <Gold.Id.Protein>
6NUR|6NUR_protein|mol2

> <Gold.PLP.Fitness>
43.9759

> <Gold.PLP.PLP>
-36.5680

> <Gold.PLP.part.hbond>
-1.9146

> <Gold.PLP.part.metal>
0.0000

> <Gold.PLP.part.buried>
-0.7059

> <Gold.PLP.part.nonpolar>
-34.2481

> <Gold.PLP.part.repulsive>
0.2340

> <Gold.PLP.ligand.clash>
0.0000

> <Gold.PLP.ligand.torsion>
0.8380

> <Gold.PLP.Chemscore.Hbond>
3.0000

> <Gold.PLP.Chemscore.CHOScore>
0.0000

> <Gold.PLP.Chemscore.Metal>
0.0000

> <Gold.Chemscore.Hbonds>
donor molecule, donor type, donor heavy atom, donor atom, acceptor molecule, acceptor atom, score
      L1  H     4    48       P1  7948  2.00
      P1  H  7997  8009       L1    10  0.86

> <Gold.PLP.Chemscore.Internal.Correction>
0.0839

> <Gold.Rescore>
     Score         DG    S(hbond)    S(metal)    S(lipo)     H(rot)  DE(clash)    DE(int)     intcor
     15.14     -18.84       1.97        0.00      99.31       1.89       1.67       2.03       ----

> <Gold.Chemscore.Fitness>
15.1390

> <Gold.Chemscore.DG>
-18.8361

> <Gold.Chemscore.ZeroCoef>
-5.4800

> <Gold.Chemscore.Hbond>
1.9662

> <Gold.Chemscore.Metal>
0.0000

> <Gold.Chemscore.Lipo>
99.3137

> <Gold.Chemscore.Internal_Hbond>
0.0000

> <Gold.Chemscore.DEClash>
1.6707

> <Gold.Chemscore.DEInternal>
2.0264

> <Gold.Chemscore.Rot>
1.8870

> <Gold.Chemscore.Internal.Correction>
   9.000000E+99

> <Gold.Chemscore.Hbonds>
donor molecule, donor type, donor heavy atom, donor atom, acceptor molecule, acceptor atom, score
      L1  H     4    48       P1  7948  0.99
      P1  H  7997  8009       L1    10  0.85

> <Gold.Chemscore.Hbond.Weighted>
-6.5671

> <Gold.Chemscore.Metal.Weighted>
-0.0000

> <Gold.Chemscore.Lipo.Weighted>
-11.6197

> <Gold.Chemscore.Internal_Hbond.Weighted>
0.0000

> <Gold.Chemscore.DEClash.Weighted>
1.6707

> <Gold.Chemscore.DEInternal.Weighted>
2.0264

> <Gold.Chemscore.Rot.Weighted>
4.8308

> <Gold.Chemscore.Internal.Correction.Weighted>
   9.000000E+99

> <Gold.Protein.RotatedTorsions>
[ 6907 6896 6895 6894 ] final  129.51 input  -60.11 | X-H torsion
[ 7974 7965 7964 7962 ] final   93.29 input  175.53 | X-H torsion
[ 8008 7997 7996 7995 ] final -140.69 input   59.86 | X-H torsion
[ 10167 10162 10161 10158 ] final   45.09 input  -65.29 | X-H torsion
[ 10718 10713 10712 10709 ] final  171.48 input   66.30 | X-H torsion
[ 10763 10752 10751 10750 ] final   35.47 input  -60.55 | X-H torsion
[ 11005 11000 10999 10996 ] final  -46.04 input  -57.11 | X-H torsion

> <Gold.Protein.ActiveResidues>
 VAL166  LYS551  ARG553  GLY616  TRP617  ASP618  TYR619  PRO620  LYS621  CYS622 
 ASP623  PHE694  ASN695  SER759  ASP760  ASP761  ALA762  ILE779  LEU786  VAL792 
 PHE793  MET794  SER795  GLU796  ALA797  LYS798  CYS799  TRP800  GLU811  SER814 

> <Gold.Protein.RotatedAtoms>
  152.3616  133.6304  159.6019 H   0  0  0  0  0  0  0  0  0  0  0  0  # atno 6907 bound_to 6896
  150.7605  133.9414  159.3466 H   0  0  0  0  0  0  0  0  0  0  0  0  # atno 6908 bound_to 6896
  151.7251  135.0887  160.0342 H   0  0  0  0  0  0  0  0  0  0  0  0  # atno 6909 bound_to 6896
  145.4809  139.2278  143.2883 H   0  0  0  0  0  0  0  0  0  0  0  0  # atno 7974 bound_to 7965
  155.4655  140.0549  157.2986 H   0  0  0  0  0  0  0  0  0  0  0  0  # atno 8008 bound_to 7997
  154.4720  140.2044  155.9926 H   0  0  0  0  0  0  0  0  0  0  0  0  # atno 8009 bound_to 7997
  156.1071  140.3210  155.8025 H   0  0  0  0  0  0  0  0  0  0  0  0  # atno 8010 bound_to 7997
  140.3277  144.2627  150.6172 H   0  0  0  0  0  0  0  0  0  0  0  0  # atno 10167 bound_to 10162
  156.9929  131.0153  151.2852 H   0  0  0  0  0  0  0  0  0  0  0  0  # atno 10718 bound_to 10713
  153.0118  135.6332  154.1832 H   0  0  0  0  0  0  0  0  0  0  0  0  # atno 10763 bound_to 10752
  154.1573  135.2825  155.3120 H   0  0  0  0  0  0  0  0  0  0  0  0  # atno 10764 bound_to 10752
  154.6008  135.5588  153.7433 H   0  0  0  0  0  0  0  0  0  0  0  0  # atno 10765 bound_to 10752
  141.0554  133.6728  156.3098 H   0  0  0  0  0  0  0  0  0  0  0  0  # atno 11005 bound_to 11000
  146.2341  140.5596  142.8962 LP  0  0  0  0  0  0  0  0  0  0  0  0  # atno 17320 bound_to 7965
  144.7889  140.5993  143.6555 LP  0  0  0  0  0  0  0  0  0  0  0  0  # atno 17321 bound_to 7965
  140.5426  143.2221  151.8060 LP  0  0  0  0  0  0  0  0  0  0  0  0  # atno 17342 bound_to 10162
  139.4862  144.4581  151.9574 LP  0  0  0  0  0  0  0  0  0  0  0  0  # atno 17343 bound_to 10162
  157.5446  130.8142  149.8070 LP  0  0  0  0  0  0  0  0  0  0  0  0  # atno 17370 bound_to 10713
  156.0200  130.3799  150.1990 LP  0  0  0  0  0  0  0  0  0  0  0  0  # atno 17371 bound_to 10713
  140.5975  134.5589  157.5511 LP  0  0  0  0  0  0  0  0  0  0  0  0  # atno 17394 bound_to 11000
  139.9385  134.7830  156.0739 LP  0  0  0  0  0  0  0  0  0  0  0  0  # atno 17395 bound_to 11000

$$$$
