AV-unprocessed.smi:65|AV-procd|sdf|614|dock9
  -GOLD-   2262016503D 1   1.00000     0.00000
 Structure written by MMmdl.
 25 26  0  0  0  0  0  0  0  0  1 V2000
  146.3866  139.1396  153.3363 N   0  0  0  0  0  0  0  0  0  0  0  0
  147.3496  139.9734  153.8495 C   0  0  0  0  0  0  0  0  0  0  0  0
  146.9545  141.1995  154.1975 N   0  0  0  0  0  0  0  0  0  0  0  0
  147.9018  142.0216  154.6987 C   0  0  0  0  0  0  0  0  0  0  0  0
  149.2412  141.6079  154.8486 C   0  0  0  0  0  0  0  0  0  0  0  0
  149.5403  140.2864  154.4549 C   0  0  0  0  0  0  0  0  0  0  0  0
  150.8585  139.8157  154.5569 N   0  0  0  0  0  0  0  0  0  0  0  0
  150.9926  138.3833  154.3046 C   0  0  0  0  0  0  0  0  0  0  0  0
  151.7202  137.7930  155.5151 C   0  0  0  0  0  0  0  0  0  0  0  0
  152.5285  138.9785  156.0280 C   0  0  2  0  0  0  0  0  0  0  0  0
  152.8823  138.8463  157.3882 O   0  0  0  0  0  0  0  0  0  0  0  0
  151.5770  140.1481  155.7845 C   0  0  0  0  0  0  0  0  0  0  0  0
  148.5829  139.4727  153.9463 N   0  0  0  0  0  0  0  0  0  0  0  0
  146.6225  138.1997  153.0533 H   0  0  0  0  0  0  0  0  0  0  0  0
  145.4350  139.4608  153.2330 H   0  0  0  0  0  0  0  0  0  0  0  0
  147.5904  143.0165  154.9803 H   0  0  0  0  0  0  0  0  0  0  0  0
  149.9962  142.2703  155.2457 H   0  0  0  0  0  0  0  0  0  0  0  0
  150.0346  137.8882  154.1375 H   0  0  0  0  0  0  0  0  0  0  0  0
  151.5916  138.2525  153.4029 H   0  0  0  0  0  0  0  0  0  0  0  0
  150.9882  137.4842  156.2633 H   0  0  0  0  0  0  0  0  0  0  0  0
  152.3348  136.9280  155.2644 H   0  0  0  0  0  0  0  0  0  0  0  0
  153.4297  139.0998  155.4248 H   0  0  0  0  0  0  0  0  0  0  0  0
  153.0630  137.9356  157.5646 H   0  0  0  0  0  0  0  0  0  0  0  0
  152.1207  141.0865  155.6742 H   0  0  0  0  0  0  0  0  0  0  0  0
  150.8943  140.2591  156.6278 H   0  0  0  0  0  0  0  0  0  0  0  0
  1  2  1  0  0  0  0
  1 14  1  0  0  0  0
  1 15  1  0  0  0  0
  2 13  1  0  0  0  0
  2  3  2  0  0  0  0
  3  4  1  0  0  0  0
  4  5  2  0  0  0  0
  4 16  1  0  0  0  0
  5  6  1  0  0  0  0
  5 17  1  0  0  0  0
  6  7  1  0  0  0  0
  6 13  2  0  0  0  0
  7 12  1  0  0  0  0
  7  8  1  0  0  0  0
  8  9  1  0  0  0  0
  8 18  1  0  0  0  0
  8 19  1  0  0  0  0
  9 10  1  0  0  0  0
  9 20  1  0  0  0  0
  9 21  1  0  0  0  0
 10 11  1  0  0  0  0
 10 12  1  0  0  0  0
 10 22  1  0  0  0  0
 11 23  1  0  0  0  0
 12 24  1  0  0  0  0
 12 25  1  0  0  0  0
M  END
> <s_m_source_file>
AV-unprocessed.smi

> <i_m_source_file_index>
65

> <i_lp_mmshare_version>
43012

> <i_f3d_flags>
0

> <s_epik_input>
W05IMl1jMW5bY0hdW2NIXWMobjEpTjJbQ0gyXVtDSDJdW0NAQEhdKFtPSF0pW0NIMl0y

> <s_epik_cmdline>
J2VwaWtfcHl0aG9uJywgJy1waCcsICc3LjAnLCAnLXRuJywgJzgnLCAnLW1hJywgJzIwMCcsICctbWV0YWxfYmluZGluZycsICctaW1hZScsICc8aW5maWxlLm1hZT4nLCAnLW9tYWUnLCAnPG91dGZpbGUubWFlPic=

> <r_lp_tautomer_probability>
1

> <r_epik_Ionization_Penalty>
0.99295

> <r_epik_Ionization_Penalty_Charging>
0

> <r_epik_Ionization_Penalty_Neutral>
0.99295

> <r_epik_State_Penalty>
0.750885

> <r_epik_Charging_Adjusted_Penalty>
0.750885

> <i_epik_Tot_Q>
0

> <i_epik_Tot_abs_Q>
0

> <r_epik_Metal_State_Penalty>
0.338511

> <b_epik_Metal_Only>
0

> <s_lp_Force_Field>
OPLS_2005

> <r_lp_Energy>
21.5088

> <b_lp_Chiralities_Consistent>
1

> <s_lp_Variant>
AV-unprocessed.smi:65-4

> <Gold.Version>
5.8.1

> <Gold.Id.Protein>
6NUR|6NUR_protein|mol2

> <Gold.PLP.Fitness>
32.3131

> <Gold.PLP.PLP>
-23.1118

> <Gold.PLP.part.hbond>
-3.0000

> <Gold.PLP.part.metal>
0.0000

> <Gold.PLP.part.buried>
0.4968

> <Gold.PLP.part.nonpolar>
-19.9819

> <Gold.PLP.part.repulsive>
1.6235

> <Gold.PLP.ligand.clash>
0.0000

> <Gold.PLP.ligand.torsion>
0.3122

> <Gold.PLP.Chemscore.Hbond>
2.3144

> <Gold.PLP.Chemscore.CHOScore>
0.9388

> <Gold.PLP.Chemscore.Metal>
0.0000

> <Gold.Chemscore.Hbonds>
donor molecule, donor type, donor heavy atom, donor atom, acceptor molecule, acceptor atom, score
      L1  H     1    15       P1 10175  0.67
      P1  H  7989  7998       L1     7  0.95
      P1  H  7997  8010       L1    11  0.27
      L1  C     4    16       P1  8028  0.98

> <Gold.PLP.Chemscore.Internal.Correction>
0.0659

> <Gold.Rescore>
     Score         DG    S(hbond)    S(metal)    S(lipo)     H(rot)  DE(clash)    DE(int)     intcor
      9.50      -9.96       1.15        0.00      39.43       1.55       0.04       0.42       ----

> <Gold.Chemscore.Fitness>
9.4952

> <Gold.Chemscore.DG>
-9.9582

> <Gold.Chemscore.ZeroCoef>
-5.4800

> <Gold.Chemscore.Hbond>
1.1472

> <Gold.Chemscore.Metal>
0.0000

> <Gold.Chemscore.Lipo>
39.4308

> <Gold.Chemscore.Internal_Hbond>
0.0000

> <Gold.Chemscore.DEClash>
0.0402

> <Gold.Chemscore.DEInternal>
0.4227

> <Gold.Chemscore.Rot>
1.5496

> <Gold.Chemscore.Internal.Correction>
   9.000000E+99

> <Gold.Chemscore.Hbonds>
donor molecule, donor type, donor heavy atom, donor atom, acceptor molecule, acceptor atom, score
      L1  H     1    15       P1 10175  0.67
      P1  H  7989  7998       L1     7  0.05

> <Gold.Chemscore.Hbond.Weighted>
-3.8318

> <Gold.Chemscore.Metal.Weighted>
-0.0000

> <Gold.Chemscore.Lipo.Weighted>
-4.6134

> <Gold.Chemscore.Internal_Hbond.Weighted>
0.0000

> <Gold.Chemscore.DEClash.Weighted>
0.0402

> <Gold.Chemscore.DEInternal.Weighted>
0.4227

> <Gold.Chemscore.Rot.Weighted>
3.9670

> <Gold.Chemscore.Internal.Correction.Weighted>
   9.000000E+99

> <Gold.Protein.RotatedTorsions>
[ 6907 6896 6895 6894 ] final   84.89 input  -60.11 | X-H torsion
[ 7974 7965 7964 7962 ] final  129.54 input  175.53 | X-H torsion
[ 8008 7997 7996 7995 ] final   41.16 input   59.86 | X-H torsion
[ 10167 10162 10161 10158 ] final   92.34 input  -65.29 | X-H torsion
[ 10718 10713 10712 10709 ] final -171.80 input   66.30 | X-H torsion
[ 10763 10752 10751 10750 ] final  -85.08 input  -60.55 | X-H torsion
[ 11005 11000 10999 10996 ] final   59.16 input  -57.11 | X-H torsion

> <Gold.Protein.ActiveResidues>
 VAL166  LYS551  ARG553  GLY616  TRP617  ASP618  TYR619  PRO620  LYS621  CYS622 
 ASP623  PHE694  ASN695  SER759  ASP760  ASP761  ALA762  ILE779  LEU786  VAL792 
 PHE793  MET794  SER795  GLU796  ALA797  LYS798  CYS799  TRP800  GLU811  SER814 

> <Gold.Protein.RotatedAtoms>
  152.5363  134.2671  159.8956 H   0  0  0  0  0  0  0  0  0  0  0  0  # atno 6907 bound_to 6896
  151.2628  133.4287  159.2624 H   0  0  0  0  0  0  0  0  0  0  0  0  # atno 6908 bound_to 6896
  151.0437  134.9639  159.8231 H   0  0  0  0  0  0  0  0  0  0  0  0  # atno 6909 bound_to 6896
  145.0276  139.4075  143.5166 H   0  0  0  0  0  0  0  0  0  0  0  0  # atno 7974 bound_to 7965
  155.2651  140.3362  155.4270 H   0  0  0  0  0  0  0  0  0  0  0  0  # atno 8008 bound_to 7997
  156.2157  140.1788  156.7635 H   0  0  0  0  0  0  0  0  0  0  0  0  # atno 8009 bound_to 7997
  154.5751  140.0663  156.9006 H   0  0  0  0  0  0  0  0  0  0  0  0  # atno 8010 bound_to 7997
  139.8286  144.6697  150.9428 H   0  0  0  0  0  0  0  0  0  0  0  0  # atno 10167 bound_to 10162
  156.7462  130.9361  151.3112 H   0  0  0  0  0  0  0  0  0  0  0  0  # atno 10718 bound_to 10713
  154.6070  135.5498  153.7433 H   0  0  0  0  0  0  0  0  0  0  0  0  # atno 10763 bound_to 10752
  153.0178  135.6380  154.1633 H   0  0  0  0  0  0  0  0  0  0  0  0  # atno 10764 bound_to 10752
  154.1572  135.2899  155.3099 H   0  0  0  0  0  0  0  0  0  0  0  0  # atno 10765 bound_to 10752
  140.0324  134.5992  155.9488 H   0  0  0  0  0  0  0  0  0  0  0  0  # atno 11005 bound_to 11000
  146.3494  139.9808  142.8696 LP  0  0  0  0  0  0  0  0  0  0  0  0  # atno 17320 bound_to 7965
  145.1813  140.9768  143.4264 LP  0  0  0  0  0  0  0  0  0  0  0  0  # atno 17321 bound_to 7965
  140.7808  143.4022  151.1130 LP  0  0  0  0  0  0  0  0  0  0  0  0  # atno 17342 bound_to 10162
  139.7677  143.8540  152.3114 LP  0  0  0  0  0  0  0  0  0  0  0  0  # atno 17343 bound_to 10162
  157.6797  130.9128  150.0237 LP  0  0  0  0  0  0  0  0  0  0  0  0  # atno 17370 bound_to 10713
  156.1432  130.3642  149.9551 LP  0  0  0  0  0  0  0  0  0  0  0  0  # atno 17371 bound_to 10713
  141.1839  133.6551  156.5134 LP  0  0  0  0  0  0  0  0  0  0  0  0  # atno 17394 bound_to 11000
  140.4203  134.7193  157.4886 LP  0  0  0  0  0  0  0  0  0  0  0  0  # atno 17395 bound_to 11000

$$$$
