AV-unprocessed.smi:2510|AV-procd|sdf|9882|dock10
  -GOLD-   2272013513D 1   1.00000     0.00000
 Structure written by MMmdl.
 48 49  0  0  0  0  0  0  0  0  1 V2000
  147.2991  141.7087  153.9097 C   0  0  0  0  0  0  0  0  0  0  0  0
  148.5407  140.8697  153.5573 C   0  0  0  0  0  0  0  0  0  0  0  0
  149.1226  139.9552  154.6725 C   0  0  0  0  0  0  0  0  0  0  0  0
  149.3156  140.8541  155.9185 C   0  0  0  0  0  0  0  0  0  0  0  0
  149.5285  140.0954  157.2406 C   0  0  0  0  0  0  0  0  0  0  0  0
  148.4003  138.6098  154.9842 C   0  0  1  0  0  0  0  0  0  0  0  0
  147.6767  138.0460  153.8467 N   0  0  0  0  0  0  0  0  0  0  0  0
  146.3525  138.1285  153.6455 C   0  0  0  0  0  0  0  0  0  0  0  0
  145.5918  138.7295  154.4033 O   0  0  0  0  0  0  0  0  0  0  0  0
  145.7974  137.4502  152.3878 C   0  0  0  0  0  0  0  0  0  0  0  0
  146.0717  135.9773  152.3706 C   0  0  0  0  0  0  0  0  0  0  0  0
  145.7051  134.9986  151.4892 C   0  0  0  0  0  0  0  0  0  0  0  0
  146.2470  133.8024  152.0441 C   0  0  0  0  0  0  0  0  0  0  0  0
  146.1504  132.4053  151.5063 C   0  0  0  0  0  0  0  0  0  0  0  0
  146.9020  134.0211  153.1746 N   0  0  0  0  0  0  0  0  0  0  0  0
  146.7913  135.3490  153.3622 N   0  0  0  0  0  0  0  0  0  0  0  0
  149.7688  137.9304  155.1759 C   0  0  1  0  0  0  0  0  0  0  0  0
  149.9736  136.4744  154.7592 C   0  0  0  0  0  0  0  0  0  0  0  0
  150.3474  139.0644  154.3162 C   0  0  2  0  0  0  0  0  0  0  0  0
  151.5742  139.6097  154.7795 O   0  0  0  0  0  0  0  0  0  0  0  0
  152.6592  138.7030  154.6897 C   0  0  0  0  0  0  0  0  0  0  0  0
  147.2044  135.8069  154.1626 H   0  0  0  0  0  0  0  0  0  0  0  0
  147.0160  142.3374  153.0654 H   0  0  0  0  0  0  0  0  0  0  0  0
  147.4671  142.3689  154.7594 H   0  0  0  0  0  0  0  0  0  0  0  0
  146.4427  141.0733  154.1361 H   0  0  0  0  0  0  0  0  0  0  0  0
  148.2668  140.2766  152.6840 H   0  0  0  0  0  0  0  0  0  0  0  0
  149.3185  141.5469  153.2030 H   0  0  0  0  0  0  0  0  0  0  0  0
  150.1715  141.5150  155.7795 H   0  0  0  0  0  0  0  0  0  0  0  0
  148.4639  141.5259  156.0331 H   0  0  0  0  0  0  0  0  0  0  0  0
  149.6972  140.7960  158.0586 H   0  0  0  0  0  0  0  0  0  0  0  0
  150.3939  139.4350  157.1948 H   0  0  0  0  0  0  0  0  0  0  0  0
  148.6616  139.4914  157.5076 H   0  0  0  0  0  0  0  0  0  0  0  0
  147.8219  138.6144  155.9089 H   0  0  0  0  0  0  0  0  0  0  0  0
  148.2249  137.5358  153.1692 H   0  0  0  0  0  0  0  0  0  0  0  0
  144.7221  137.6235  152.3305 H   0  0  0  0  0  0  0  0  0  0  0  0
  146.2381  137.9285  151.5123 H   0  0  0  0  0  0  0  0  0  0  0  0
  145.1258  135.1179  150.5855 H   0  0  0  0  0  0  0  0  0  0  0  0
  145.5143  132.3667  150.6219 H   0  0  0  0  0  0  0  0  0  0  0  0
  145.7280  131.7265  152.2477 H   0  0  0  0  0  0  0  0  0  0  0  0
  147.1326  132.0246  151.2253 H   0  0  0  0  0  0  0  0  0  0  0  0
  150.0778  138.0674  156.2134 H   0  0  0  0  0  0  0  0  0  0  0  0
  149.8472  136.3383  153.6846 H   0  0  0  0  0  0  0  0  0  0  0  0
  149.2607  135.8185  155.2595 H   0  0  0  0  0  0  0  0  0  0  0  0
  150.9734  136.1254  155.0157 H   0  0  0  0  0  0  0  0  0  0  0  0
  150.3923  138.7734  153.2662 H   0  0  0  0  0  0  0  0  0  0  0  0
  153.5737  139.1964  155.0186 H   0  0  0  0  0  0  0  0  0  0  0  0
  152.8098  138.3663  153.6633 H   0  0  0  0  0  0  0  0  0  0  0  0
  152.5040  137.8323  155.3264 H   0  0  0  0  0  0  0  0  0  0  0  0
  1  2  1  0  0  0  0
  1 23  1  0  0  0  0
  1 24  1  0  0  0  0
  1 25  1  0  0  0  0
  2  3  1  0  0  0  0
  2 26  1  0  0  0  0
  2 27  1  0  0  0  0
  3 19  1  0  0  0  0
  3  4  1  0  0  0  0
  3  6  1  0  0  0  0
  4  5  1  0  0  0  0
  4 28  1  0  0  0  0
  4 29  1  0  0  0  0
  5 30  1  0  0  0  0
  5 31  1  0  0  0  0
  5 32  1  0  0  0  0
  6  7  1  0  0  0  0
  6 17  1  0  0  0  0
  6 33  1  0  0  0  0
  7  8  1  0  0  0  0
  7 34  1  0  0  0  0
  8  9  2  0  0  0  0
  8 10  1  0  0  0  0
 10 35  1  0  0  0  0
 10 36  1  0  0  0  0
 10 11  1  0  0  0  0
 11 16  1  0  0  0  0
 11 12  2  0  0  0  0
 12 13  1  0  0  0  0
 12 37  1  0  0  0  0
 13 14  1  0  0  0  0
 13 15  2  0  0  0  0
 14 38  1  0  0  0  0
 14 39  1  0  0  0  0
 14 40  1  0  0  0  0
 15 16  1  0  0  0  0
 16 22  1  0  0  0  0
 17 18  1  0  0  0  0
 17 19  1  0  0  0  0
 17 41  1  0  0  0  0
 18 42  1  0  0  0  0
 18 43  1  0  0  0  0
 18 44  1  0  0  0  0
 19 20  1  0  0  0  0
 19 45  1  0  0  0  0
 20 21  1  0  0  0  0
 21 46  1  0  0  0  0
 21 47  1  0  0  0  0
 21 48  1  0  0  0  0
M  END
> <s_m_source_file>
AV-unprocessed.smi

> <i_m_source_file_index>
2510

> <i_lp_mmshare_version>
43012

> <i_f3d_flags>
0

> <s_epik_input>
W0NIM11PW0NAQEhdMVtDQEhdKFtDSDNdKVtDQEBIXShDMShbQ0gyXVtDSDNdKVtDSDJdW0NIM10pW05IXUMoPU8pW0NIMl1jMltjSF1jKFtDSDNdKVtuSF1uMg==

> <s_epik_cmdline>
J2VwaWtfcHl0aG9uJywgJy1waCcsICc3LjAnLCAnLXRuJywgJzgnLCAnLW1hJywgJzIwMCcsICctbWV0YWxfYmluZGluZycsICctaW1hZScsICc8aW5maWxlLm1hZT4nLCAnLW9tYWUnLCAnPG91dGZpbGUubWFlPic=

> <r_lp_tautomer_probability>
0.5

> <r_epik_Ionization_Penalty>
0.000134763

> <r_epik_Ionization_Penalty_Charging>
0

> <r_epik_Ionization_Penalty_Neutral>
0.000134763

> <r_epik_State_Penalty>
0.41068

> <r_epik_Charging_Adjusted_Penalty>
0.41068

> <i_epik_Tot_Q>
0

> <i_epik_Tot_abs_Q>
0

> <r_epik_Metal_State_Penalty>
0.410661

> <b_epik_Metal_Only>
0

> <s_lp_Force_Field>
OPLS_2005

> <r_lp_Energy>
26.4004

> <b_lp_Chiralities_Consistent>
1

> <s_lp_Variant>
AV-unprocessed.smi:2510-13

> <Gold.Version>
5.8.1

> <Gold.Id.Protein>
6NUR|6NUR_protein|mol2

> <Gold.PLP.Fitness>
34.0590

> <Gold.PLP.PLP>
-29.4113

> <Gold.PLP.part.hbond>
-3.0000

> <Gold.PLP.part.metal>
0.0000

> <Gold.PLP.part.buried>
-0.2977

> <Gold.PLP.part.nonpolar>
-27.2829

> <Gold.PLP.part.repulsive>
0.2602

> <Gold.PLP.ligand.clash>
0.0000

> <Gold.PLP.ligand.torsion>
0.6534

> <Gold.PLP.Chemscore.Hbond>
1.8000

> <Gold.PLP.Chemscore.CHOScore>
0.0000

> <Gold.PLP.Chemscore.Metal>
0.0000

> <Gold.Chemscore.Hbonds>
donor molecule, donor type, donor heavy atom, donor atom, acceptor molecule, acceptor atom, score
      L1  H     7    34       P1  7948  1.00
      P1  H  7989  7998       L1    20  0.70

> <Gold.PLP.Chemscore.Internal.Correction>
0.5546

> <Gold.Rescore>
     Score         DG    S(hbond)    S(metal)    S(lipo)     H(rot)  DE(clash)    DE(int)     intcor
      9.68     -14.20       1.00        0.00      85.70       1.81       1.68       2.84       ----

> <Gold.Chemscore.Fitness>
9.6790

> <Gold.Chemscore.DG>
-14.1994

> <Gold.Chemscore.ZeroCoef>
-5.4800

> <Gold.Chemscore.Hbond>
0.9960

> <Gold.Chemscore.Metal>
0.0000

> <Gold.Chemscore.Lipo>
85.7013

> <Gold.Chemscore.Internal_Hbond>
0.0000

> <Gold.Chemscore.DEClash>
1.6779

> <Gold.Chemscore.DEInternal>
2.8425

> <Gold.Chemscore.Rot>
1.8102

> <Gold.Chemscore.Internal.Correction>
   9.000000E+99

> <Gold.Chemscore.Hbonds>
donor molecule, donor type, donor heavy atom, donor atom, acceptor molecule, acceptor atom, score
      L1  H     7    34       P1  7948  0.98
      P1  H  7989  7998       L1    20  0.06

> <Gold.Chemscore.Hbond.Weighted>
-3.3265

> <Gold.Chemscore.Metal.Weighted>
-0.0000

> <Gold.Chemscore.Lipo.Weighted>
-10.0271

> <Gold.Chemscore.Internal_Hbond.Weighted>
0.0000

> <Gold.Chemscore.DEClash.Weighted>
1.6779

> <Gold.Chemscore.DEInternal.Weighted>
2.8425

> <Gold.Chemscore.Rot.Weighted>
4.6341

> <Gold.Chemscore.Internal.Correction.Weighted>
   9.000000E+99

> <Gold.Protein.RotatedTorsions>
[ 6907 6896 6895 6894 ] final   67.54 input  -60.11 | X-H torsion
[ 7974 7965 7964 7962 ] final  -39.22 input  175.53 | X-H torsion
[ 8008 7997 7996 7995 ] final   26.54 input   59.86 | X-H torsion
[ 10167 10162 10161 10158 ] final  105.64 input  -65.29 | X-H torsion
[ 10718 10713 10712 10709 ] final   27.39 input   66.30 | X-H torsion
[ 10763 10752 10751 10750 ] final  -31.28 input  -60.55 | X-H torsion
[ 11005 11000 10999 10996 ] final -122.70 input  -57.11 | X-H torsion

> <Gold.Protein.ActiveResidues>
 VAL166  LYS551  ARG553  GLY616  TRP617  ASP618  TYR619  PRO620  LYS621  CYS622 
 ASP623  PHE694  ASN695  SER759  ASP760  ASP761  ALA762  ILE779  LEU786  VAL792 
 PHE793  MET794  SER795  GLU796  ALA797  LYS798  CYS799  TRP800  GLU811  SER814 

> <Gold.Protein.RotatedAtoms>
  152.4559  134.5293  159.9805 H   0  0  0  0  0  0  0  0  0  0  0  0  # atno 6907 bound_to 6896
  151.5354  133.3436  159.2933 H   0  0  0  0  0  0  0  0  0  0  0  0  # atno 6908 bound_to 6896
  150.8503  134.7856  159.7066 H   0  0  0  0  0  0  0  0  0  0  0  0  # atno 6909 bound_to 6896
  146.0416  140.6601  142.9084 H   0  0  0  0  0  0  0  0  0  0  0  0  # atno 7974 bound_to 7965
  155.0288  140.3156  155.4766 H   0  0  0  0  0  0  0  0  0  0  0  0  # atno 8008 bound_to 7997
  156.2878  140.2184  156.5351 H   0  0  0  0  0  0  0  0  0  0  0  0  # atno 8009 bound_to 7997
  154.7388  140.0475  157.0780 H   0  0  0  0  0  0  0  0  0  0  0  0  # atno 8010 bound_to 7997
  139.7076  144.7083  151.1081 H   0  0  0  0  0  0  0  0  0  0  0  0  # atno 10167 bound_to 10162
  157.2195  130.6972  149.6264 H   0  0  0  0  0  0  0  0  0  0  0  0  # atno 10718 bound_to 10713
  153.7948  135.6895  153.4865 H   0  0  0  0  0  0  0  0  0  0  0  0  # atno 10763 bound_to 10752
  153.1726  135.4537  154.9921 H   0  0  0  0  0  0  0  0  0  0  0  0  # atno 10764 bound_to 10752
  154.8030  135.3345  154.7441 H   0  0  0  0  0  0  0  0  0  0  0  0  # atno 10765 bound_to 10752
  140.9975  134.0450  157.3579 H   0  0  0  0  0  0  0  0  0  0  0  0  # atno 11005 bound_to 11000
  144.7077  140.3918  143.7105 LP  0  0  0  0  0  0  0  0  0  0  0  0  # atno 17320 bound_to 7965
  145.6875  139.1632  143.2666 LP  0  0  0  0  0  0  0  0  0  0  0  0  # atno 17321 bound_to 7965
  140.7725  143.5337  150.9393 LP  0  0  0  0  0  0  0  0  0  0  0  0  # atno 17342 bound_to 10162
  139.9021  143.6823  152.3129 LP  0  0  0  0  0  0  0  0  0  0  0  0  # atno 17343 bound_to 10162
  155.9683  130.4524  150.5774 LP  0  0  0  0  0  0  0  0  0  0  0  0  # atno 17370 bound_to 10713
  157.3590  131.0746  151.1652 LP  0  0  0  0  0  0  0  0  0  0  0  0  # atno 17371 bound_to 10713
  139.9022  135.0168  156.7321 LP  0  0  0  0  0  0  0  0  0  0  0  0  # atno 17394 bound_to 11000
  140.6942  133.9363  155.7985 LP  0  0  0  0  0  0  0  0  0  0  0  0  # atno 17395 bound_to 11000

$$$$
