AV-unprocessed.smi:3202|AV-procd|sdf|12248|dock9
  -GOLD-   2272018 83D 1   1.00000     0.00000
 Structure written by MMmdl.
 43 44  0  0  0  0  0  0  0  0  2 V2000
  151.9575  138.2744  154.4199 C   0  0  0  0  0  0  0  0  0  0  0  0
  150.5396  138.7567  154.3308 C   0  0  0  0  0  0  0  0  0  0  0  0
  149.3412  138.0007  154.4883 C   0  0  0  0  0  0  0  0  0  0  0  0
  148.3398  138.9119  154.3020 C   0  0  0  0  0  0  0  0  0  0  0  0
  146.8532  138.7598  154.3222 C   0  0  0  0  0  0  0  0  0  0  0  0
  146.2560  138.2264  153.0056 C   0  0  1  0  0  0  0  0  0  0  0  0
  146.7987  138.9569  151.7665 C   0  0  0  0  0  0  0  0  0  0  0  0
  146.5310  136.7774  152.8843 N   0  3  0  0  0  0  0  0  0  0  0  0
  145.5897  136.0174  152.0310 C   0  0  1  0  0  0  0  0  0  0  0  0
  146.0997  134.6147  151.6703 C   0  0  0  0  0  0  0  0  0  0  0  0
  144.8433  133.7715  151.4175 C   0  0  0  0  0  0  0  0  0  0  0  0
  143.6475  134.6465  151.8204 C   0  0  0  0  0  0  0  0  0  0  0  0
  144.2123  135.7856  152.6886 C   0  0  0  0  0  0  0  0  0  0  0  0
  144.3192  135.3201  154.1596 C   0  0  0  0  0  0  0  0  0  0  0  0
  143.3224  137.0401  152.6087 C   0  0  0  0  0  0  0  0  0  0  0  0
  148.9581  140.1171  154.0573 N   0  0  0  0  0  0  0  0  0  0  0  0
  150.3010  140.0335  154.0719 N   0  0  0  0  0  0  0  0  0  0  0  0
  148.4858  140.9926  153.8815 H   0  0  0  0  0  0  0  0  0  0  0  0
  152.0006  137.2339  154.7427 H   0  0  0  0  0  0  0  0  0  0  0  0
  152.5321  138.8662  155.1330 H   0  0  0  0  0  0  0  0  0  0  0  0
  152.4549  138.3409  153.4521 H   0  0  0  0  0  0  0  0  0  0  0  0
  149.2354  136.9469  154.7000 H   0  0  0  0  0  0  0  0  0  0  0  0
  146.4025  139.7248  154.5585 H   0  0  0  0  0  0  0  0  0  0  0  0
  146.5769  138.0950  155.1415 H   0  0  0  0  0  0  0  0  0  0  0  0
  145.1775  138.3890  153.0344 H   0  0  0  0  0  0  0  0  0  0  0  0
  146.5557  140.0195  151.7893 H   0  0  0  0  0  0  0  0  0  0  0  0
  146.3670  138.5484  150.8520 H   0  0  0  0  0  0  0  0  0  0  0  0
  147.8828  138.8645  151.6932 H   0  0  0  0  0  0  0  0  0  0  0  0
  147.4621  136.6547  152.5129 H   0  0  0  0  0  0  0  0  0  0  0  0
  145.4368  136.5762  151.1052 H   0  0  0  0  0  0  0  0  0  0  0  0
  146.7618  134.6302  150.8040 H   0  0  0  0  0  0  0  0  0  0  0  0
  146.6631  134.1858  152.5005 H   0  0  0  0  0  0  0  0  0  0  0  0
  144.7673  133.4684  150.3728 H   0  0  0  0  0  0  0  0  0  0  0  0
  144.8760  132.8618  152.0184 H   0  0  0  0  0  0  0  0  0  0  0  0
  143.1989  135.0573  150.9145 H   0  0  0  0  0  0  0  0  0  0  0  0
  142.8681  134.0739  152.3251 H   0  0  0  0  0  0  0  0  0  0  0  0
  143.3390  135.0544  154.5576 H   0  0  0  0  0  0  0  0  0  0  0  0
  144.7215  136.1037  154.8022 H   0  0  0  0  0  0  0  0  0  0  0  0
  144.9591  134.4442  154.2683 H   0  0  0  0  0  0  0  0  0  0  0  0
  142.3246  136.8407  153.0012 H   0  0  0  0  0  0  0  0  0  0  0  0
  143.2057  137.3873  151.5814 H   0  0  0  0  0  0  0  0  0  0  0  0
  143.7452  137.8628  153.1859 H   0  0  0  0  0  0  0  0  0  0  0  0
  146.5059  136.3792  153.8122 H   0  0  0  0  0  0  0  0  0  0  0  0
  1 19  1  0  0  0  0
  1 20  1  0  0  0  0
  1 21  1  0  0  0  0
  1  2  1  0  0  0  0
  2 17  2  0  0  0  0
  2  3  1  0  0  0  0
  3  4  2  0  0  0  0
  3 22  1  0  0  0  0
  4 16  1  0  0  0  0
  4  5  1  0  0  0  0
  5  6  1  0  0  0  0
  5 23  1  0  0  0  0
  5 24  1  0  0  0  0
  6  7  1  0  0  0  0
  6  8  1  0  0  0  0
  6 25  1  0  0  0  0
  7 26  1  0  0  0  0
  7 27  1  0  0  0  0
  7 28  1  0  0  0  0
  8  9  1  0  0  0  0
  8 29  1  0  0  0  0
  8 43  1  0  0  0  0
  9 13  1  0  0  0  0
  9 10  1  0  0  0  0
  9 30  1  0  0  0  0
 10 11  1  0  0  0  0
 10 31  1  0  0  0  0
 10 32  1  0  0  0  0
 11 12  1  0  0  0  0
 11 33  1  0  0  0  0
 11 34  1  0  0  0  0
 12 13  1  0  0  0  0
 12 35  1  0  0  0  0
 12 36  1  0  0  0  0
 13 14  1  0  0  0  0
 13 15  1  0  0  0  0
 14 37  1  0  0  0  0
 14 38  1  0  0  0  0
 14 39  1  0  0  0  0
 15 40  1  0  0  0  0
 15 41  1  0  0  0  0
 15 42  1  0  0  0  0
 16 17  1  0  0  0  0
 16 18  1  0  0  0  0
M  CHG  1   8   1
M  END
> <s_m_source_file>
AV-unprocessed.smi

> <i_m_source_file_index>
3202

> <i_lp_mmshare_version>
43012

> <i_f3d_flags>
0

> <s_epik_input>
W0NIM11jMVtjSF1jKG5bbkhdMSlbQ0gyXVtDQEhdKFtDSDNdKVtOSF1bQ0BASF0oQzIoW0NIM10pW0NIM10pW0NIMl1bQ0gyXVtDSDJdMg==

> <s_epik_cmdline>
J2VwaWtfcHl0aG9uJywgJy1waCcsICc3LjAnLCAnLXRuJywgJzgnLCAnLW1hJywgJzIwMCcsICctbWV0YWxfYmluZGluZycsICctaW1hZScsICc8aW5maWxlLm1hZT4nLCAnLW9tYWUnLCAnPG91dGZpbGUubWFlPic=

> <r_lp_tautomer_probability>
0.5

> <r_epik_Ionization_Penalty>
0.000449684

> <r_epik_Ionization_Penalty_Charging>
0.000404963

> <r_epik_Ionization_Penalty_Neutral>
4.47208e-05

> <r_epik_State_Penalty>
0.41068

> <r_epik_Charging_Adjusted_Penalty>
0.411085

> <i_epik_Tot_Q>
1

> <i_epik_Tot_abs_Q>
1

> <r_epik_Metal_State_Penalty>
0.410687

> <b_epik_Metal_Only>
0

> <s_lp_Force_Field>
OPLS_2005

> <r_lp_Energy>
32.3918

> <b_lp_Chiralities_Consistent>
1

> <s_lp_Variant>
AV-unprocessed.smi:3202-8

> <Gold.Version>
5.8.1

> <Gold.Id.Protein>
6NUR|6NUR_protein|mol2

> <Gold.PLP.Fitness>
37.2137

> <Gold.PLP.PLP>
-29.6692

> <Gold.PLP.part.hbond>
-3.0000

> <Gold.PLP.part.metal>
0.0000

> <Gold.PLP.part.buried>
-3.3744

> <Gold.PLP.part.nonpolar>
-24.2467

> <Gold.PLP.part.repulsive>
1.0380

> <Gold.PLP.ligand.clash>
0.0000

> <Gold.PLP.ligand.torsion>
0.7343

> <Gold.PLP.Chemscore.Hbond>
3.0000

> <Gold.PLP.Chemscore.CHOScore>
0.0000

> <Gold.PLP.Chemscore.Metal>
0.0000

> <Gold.Chemscore.Hbonds>
donor molecule, donor type, donor heavy atom, donor atom, acceptor molecule, acceptor atom, score
      L1  H     8    29       P1  7948  2.00
      P1  H  7989  7998       L1    17  1.00

> <Gold.PLP.Chemscore.Internal.Correction>
0.0130

> <Gold.Rescore>
     Score         DG    S(hbond)    S(metal)    S(lipo)     H(rot)  DE(clash)    DE(int)     intcor
     15.77     -16.57       1.98        0.00      70.18       1.46       0.12       0.68       ----

> <Gold.Chemscore.Fitness>
15.7727

> <Gold.Chemscore.DG>
-16.5721

> <Gold.Chemscore.ZeroCoef>
-5.4800

> <Gold.Chemscore.Hbond>
1.9813

> <Gold.Chemscore.Metal>
0.0000

> <Gold.Chemscore.Lipo>
70.1810

> <Gold.Chemscore.Internal_Hbond>
0.0000

> <Gold.Chemscore.DEClash>
0.1221

> <Gold.Chemscore.DEInternal>
0.6773

> <Gold.Chemscore.Rot>
1.4596

> <Gold.Chemscore.Internal.Correction>
   9.000000E+99

> <Gold.Chemscore.Hbonds>
donor molecule, donor type, donor heavy atom, donor atom, acceptor molecule, acceptor atom, score
      L1  H     8    29       P1  7948  1.00
      P1  H  7989  7998       L1    17  0.85

> <Gold.Chemscore.Hbond.Weighted>
-6.6174

> <Gold.Chemscore.Metal.Weighted>
-0.0000

> <Gold.Chemscore.Lipo.Weighted>
-8.2112

> <Gold.Chemscore.Internal_Hbond.Weighted>
0.0000

> <Gold.Chemscore.DEClash.Weighted>
0.1221

> <Gold.Chemscore.DEInternal.Weighted>
0.6773

> <Gold.Chemscore.Rot.Weighted>
3.7365

> <Gold.Chemscore.Internal.Correction.Weighted>
   9.000000E+99

> <Gold.Protein.RotatedTorsions>
[ 6907 6896 6895 6894 ] final  -53.50 input  -60.11 | X-H torsion
[ 7974 7965 7964 7962 ] final  -37.90 input  175.53 | X-H torsion
[ 8008 7997 7996 7995 ] final  -60.79 input   59.86 | X-H torsion
[ 10167 10162 10161 10158 ] final   94.18 input  -65.29 | X-H torsion
[ 10718 10713 10712 10709 ] final   85.47 input   66.30 | X-H torsion
[ 10763 10752 10751 10750 ] final  -81.89 input  -60.55 | X-H torsion
[ 11005 11000 10999 10996 ] final   38.74 input  -57.11 | X-H torsion

> <Gold.Protein.ActiveResidues>
 VAL166  LYS551  ARG553  GLY616  TRP617  ASP618  TYR619  PRO620  LYS621  CYS622 
 ASP623  PHE694  ASN695  SER759  ASP760  ASP761  ALA762  ILE779  LEU786  VAL792 
 PHE793  MET794  SER795  GLU796  ALA797  LYS798  CYS799  TRP800  GLU811  SER814 

> <Gold.Protein.RotatedAtoms>
  150.8422  134.7717  159.6940 H   0  0  0  0  0  0  0  0  0  0  0  0  # atno 6907 bound_to 6896
  152.4506  134.5397  159.9845 H   0  0  0  0  0  0  0  0  0  0  0  0  # atno 6908 bound_to 6896
  151.5535  133.3376  159.2993 H   0  0  0  0  0  0  0  0  0  0  0  0  # atno 6909 bound_to 6896
  146.0534  140.6449  142.9031 H   0  0  0  0  0  0  0  0  0  0  0  0  # atno 7974 bound_to 7965
  154.4415  140.1032  156.6328 H   0  0  0  0  0  0  0  0  0  0  0  0  # atno 8008 bound_to 7997
  155.5586  140.3487  155.4467 H   0  0  0  0  0  0  0  0  0  0  0  0  # atno 8009 bound_to 7997
  156.0477  140.1296  157.0075 H   0  0  0  0  0  0  0  0  0  0  0  0  # atno 8010 bound_to 7997
  139.8108  144.6774  150.9643 H   0  0  0  0  0  0  0  0  0  0  0  0  # atno 10167 bound_to 10162
  157.6915  131.0176  150.2827 H   0  0  0  0  0  0  0  0  0  0  0  0  # atno 10718 bound_to 10713
  154.5690  135.5610  153.7078 H   0  0  0  0  0  0  0  0  0  0  0  0  # atno 10763 bound_to 10752
  153.0042  135.6292  154.2140 H   0  0  0  0  0  0  0  0  0  0  0  0  # atno 10764 bound_to 10752
  154.2079  135.2875  155.2948 H   0  0  0  0  0  0  0  0  0  0  0  0  # atno 10765 bound_to 10752
  140.2096  134.3771  155.8055 H   0  0  0  0  0  0  0  0  0  0  0  0  # atno 11005 bound_to 11000
  144.7135  140.4125  143.7062 LP  0  0  0  0  0  0  0  0  0  0  0  0  # atno 17320 bound_to 7965
  145.6685  139.1594  143.2768 LP  0  0  0  0  0  0  0  0  0  0  0  0  # atno 17321 bound_to 7965
  140.7818  143.4187  151.0876 LP  0  0  0  0  0  0  0  0  0  0  0  0  # atno 17342 bound_to 10162
  139.7854  143.8296  152.3144 LP  0  0  0  0  0  0  0  0  0  0  0  0  # atno 17343 bound_to 10162
  156.3371  130.3809  149.7440 LP  0  0  0  0  0  0  0  0  0  0  0  0  # atno 17370 bound_to 10713
  156.4961  130.8107  151.3114 LP  0  0  0  0  0  0  0  0  0  0  0  0  # atno 17371 bound_to 10713
  141.2226  133.7136  156.8396 LP  0  0  0  0  0  0  0  0  0  0  0  0  # atno 17394 bound_to 11000
  140.1965  134.8928  157.3120 LP  0  0  0  0  0  0  0  0  0  0  0  0  # atno 17395 bound_to 11000

$$$$
