AV-unprocessed.smi:1603|AV-procd|sdf|6443|dock1
  -GOLD-   22720 7 93D 1   1.00000     0.00000
 Structure written by MMmdl.
 45 47  0  0  0  0  0  0  0  0  2 V2000
  153.7026  140.0280  157.7319 O   0  0  0  0  0  0  0  0  0  0  0  0
  153.2454  141.1115  158.0975 C   0  0  0  0  0  0  0  0  0  0  0  0
  153.3253  141.6011  159.4820 C   0  0  0  0  0  0  0  0  0  0  0  0
  153.9733  140.6946  160.5251 C   0  0  0  0  0  0  0  0  0  0  0  0
  153.7257  141.1147  161.7666 F   0  0  0  0  0  0  0  0  0  0  0  0
  153.5103  139.4485  160.4169 F   0  0  0  0  0  0  0  0  0  0  0  0
  155.2959  140.6638  160.3594 F   0  0  0  0  0  0  0  0  0  0  0  0
  152.8172  142.8158  159.8031 C   0  0  0  0  0  0  0  0  0  0  0  0
  152.1989  143.6427  158.7861 C   0  0  0  0  0  0  0  0  0  0  0  0
  151.6409  145.0083  159.0671 C   0  0  0  0  0  0  0  0  0  0  0  0
  151.5003  145.5351  160.4760 C   0  0  0  0  0  0  0  0  0  0  0  0
  150.2675  145.2073  159.6660 C   0  0  0  0  0  0  0  0  0  0  0  0
  152.1126  143.2022  157.5761 N   0  0  0  0  0  0  0  0  0  0  0  0
  152.6092  141.9589  157.2359 N   0  0  0  0  0  0  0  0  0  0  0  0
  152.4140  141.6041  155.8233 C   0  0  0  0  0  0  0  0  0  0  0  0
  150.9239  141.5604  155.4162 C   0  0  2  0  0  0  0  0  0  0  0  0
  150.2222  140.8844  156.4407 O   0  0  0  0  0  0  0  0  0  0  0  0
  150.6789  140.8313  154.0762 C   0  0  0  0  0  0  0  0  0  0  0  0
  149.4626  141.3154  153.3755 N   0  3  0  0  0  0  0  0  0  0  0  0
  148.2170  141.1396  154.1640 C   0  0  0  0  0  0  0  0  0  0  0  0
  146.9994  141.6272  153.3608 C   0  0  0  0  0  0  0  0  0  0  0  0
  147.1868  142.9868  152.9886 O   0  0  0  0  0  0  0  0  0  0  0  0
  148.3296  143.1588  152.1599 C   0  0  0  0  0  0  0  0  0  0  0  0
  149.5913  142.7209  152.9232 C   0  0  0  0  0  0  0  0  0  0  0  0
  152.8608  143.1902  160.8149 H   0  0  0  0  0  0  0  0  0  0  0  0
  151.9522  145.7168  158.3018 H   0  0  0  0  0  0  0  0  0  0  0  0
  151.7495  144.8676  161.2991 H   0  0  0  0  0  0  0  0  0  0  0  0
  151.7276  146.5859  160.6430 H   0  0  0  0  0  0  0  0  0  0  0  0
  149.6737  146.0403  159.2951 H   0  0  0  0  0  0  0  0  0  0  0  0
  149.6999  144.3268  159.9618 H   0  0  0  0  0  0  0  0  0  0  0  0
  152.9456  142.3103  155.1820 H   0  0  0  0  0  0  0  0  0  0  0  0
  152.8810  140.6359  155.6316 H   0  0  0  0  0  0  0  0  0  0  0  0
  150.5400  142.5785  155.3766 H   0  0  0  0  0  0  0  0  0  0  0  0
  149.3751  141.2876  156.5516 H   0  0  0  0  0  0  0  0  0  0  0  0
  151.5281  140.9483  153.4021 H   0  0  0  0  0  0  0  0  0  0  0  0
  150.5981  139.7606  154.2719 H   0  0  0  0  0  0  0  0  0  0  0  0
  148.0754  140.0934  154.4330 H   0  0  0  0  0  0  0  0  0  0  0  0
  148.2912  141.6996  155.0976 H   0  0  0  0  0  0  0  0  0  0  0  0
  146.8450  141.0112  152.4733 H   0  0  0  0  0  0  0  0  0  0  0  0
  146.0951  141.5482  153.9645 H   0  0  0  0  0  0  0  0  0  0  0  0
  148.2147  142.5885  151.2367 H   0  0  0  0  0  0  0  0  0  0  0  0
  148.4066  144.2091  151.8781 H   0  0  0  0  0  0  0  0  0  0  0  0
  149.7514  143.3705  153.7855 H   0  0  0  0  0  0  0  0  0  0  0  0
  150.4636  142.8236  152.2767 H   0  0  0  0  0  0  0  0  0  0  0  0
  149.3690  140.7582  152.5384 H   0  0  0  0  0  0  0  0  0  0  0  0
  1  2  2  0  0  0  0
  2 14  1  0  0  0  0
  2  3  1  0  0  0  0
  3  4  1  0  0  0  0
  3  8  2  0  0  0  0
  4  5  1  0  0  0  0
  4  6  1  0  0  0  0
  4  7  1  0  0  0  0
  8  9  1  0  0  0  0
  8 25  1  0  0  0  0
  9 10  1  0  0  0  0
  9 13  2  0  0  0  0
 10 12  1  0  0  0  0
 10 11  1  0  0  0  0
 10 26  1  0  0  0  0
 11 12  1  0  0  0  0
 11 27  1  0  0  0  0
 11 28  1  0  0  0  0
 12 29  1  0  0  0  0
 12 30  1  0  0  0  0
 13 14  1  0  0  0  0
 14 15  1  0  0  0  0
 15 16  1  0  0  0  0
 15 31  1  0  0  0  0
 15 32  1  0  0  0  0
 16 17  1  0  0  0  0
 16 18  1  0  0  0  0
 16 33  1  0  0  0  0
 17 34  1  0  0  0  0
 18 19  1  0  0  0  0
 18 35  1  0  0  0  0
 18 36  1  0  0  0  0
 19 24  1  0  0  0  0
 19 20  1  0  0  0  0
 19 45  1  0  0  0  0
 20 21  1  0  0  0  0
 20 37  1  0  0  0  0
 20 38  1  0  0  0  0
 21 22  1  0  0  0  0
 21 39  1  0  0  0  0
 21 40  1  0  0  0  0
 22 23  1  0  0  0  0
 23 24  1  0  0  0  0
 23 41  1  0  0  0  0
 23 42  1  0  0  0  0
 24 43  1  0  0  0  0
 24 44  1  0  0  0  0
M  CHG  1  19   1
M  END
> <s_m_source_file>
AV-unprocessed.smi

> <i_m_source_file_index>
1603

> <i_lp_mmshare_version>
43012

> <i_f3d_flags>
0

> <s_epik_input>
Tz1jMWMoQyhGKShGKUYpW2NIXWMoW0NIXTJbQ0gyXVtDSDJdMilubjFbQ0gyXVtDQEhdKFtPSF0pW0NIMl1OM1tDSDJdW0NIMl1PW0NIMl1bQ0gyXTM=

> <s_epik_cmdline>
J2VwaWtfcHl0aG9uJywgJy1waCcsICc3LjAnLCAnLXRuJywgJzgnLCAnLW1hJywgJzIwMCcsICctbWV0YWxfYmluZGluZycsICctaW1hZScsICc8aW5maWxlLm1hZT4nLCAnLW9tYWUnLCAnPG91dGZpbGUubWFlPic=

> <r_lp_tautomer_probability>
1

> <r_epik_Ionization_Penalty>
0.373533

> <r_epik_Ionization_Penalty_Charging>
0.373533

> <r_epik_Ionization_Penalty_Neutral>
6.58334e-07

> <r_epik_State_Penalty>
0.37113

> <r_epik_Charging_Adjusted_Penalty>
0.744662

> <i_epik_Tot_Q>
1

> <i_epik_Tot_abs_Q>
1

> <r_epik_Metal_State_Penalty>
0.37113

> <b_epik_Metal_Only>
0

> <s_lp_Force_Field>
OPLS_2005

> <r_lp_Energy>
41.4102

> <b_lp_Chiralities_Consistent>
1

> <s_lp_Variant>
AV-unprocessed.smi:1603-1

> <Gold.Version>
5.8.1

> <Gold.Id.Protein>
6NUR|6NUR_protein|mol2

> <Gold.PLP.Fitness>
46.5981

> <Gold.PLP.PLP>
-46.0979

> <Gold.PLP.part.hbond>
-1.0000

> <Gold.PLP.part.metal>
0.0000

> <Gold.PLP.part.buried>
-5.1204

> <Gold.PLP.part.nonpolar>
-39.4116

> <Gold.PLP.part.repulsive>
0.2761

> <Gold.PLP.ligand.clash>
0.0000

> <Gold.PLP.ligand.torsion>
1.3015

> <Gold.PLP.Chemscore.Hbond>
0.8000

> <Gold.PLP.Chemscore.CHOScore>
0.0000

> <Gold.PLP.Chemscore.Metal>
0.0000

> <Gold.Chemscore.Hbonds>
donor molecule, donor type, donor heavy atom, donor atom, acceptor molecule, acceptor atom, score
      L1  H    19    45       P1  7957  1.00
      P1  H  7997  8009       L1     1  0.12

> <Gold.PLP.Chemscore.Internal.Correction>
0.7033

> <Gold.Rescore>
     Score         DG    S(hbond)    S(metal)    S(lipo)     H(rot)  DE(clash)    DE(int)     intcor
      8.51     -11.35       0.02        0.00     104.59       2.52       0.18       2.67       ----

> <Gold.Chemscore.Fitness>
8.5089

> <Gold.Chemscore.DG>
-11.3513

> <Gold.Chemscore.ZeroCoef>
-5.4800

> <Gold.Chemscore.Hbond>
0.0226

> <Gold.Chemscore.Metal>
0.0000

> <Gold.Chemscore.Lipo>
104.5902

> <Gold.Chemscore.Internal_Hbond>
0.0000

> <Gold.Chemscore.DEClash>
0.1760

> <Gold.Chemscore.DEInternal>
2.6664

> <Gold.Chemscore.Rot>
2.5160

> <Gold.Chemscore.Internal.Correction>
   9.000000E+99

> <Gold.Chemscore.Hbonds>
donor molecule, donor type, donor heavy atom, donor atom, acceptor molecule, acceptor atom, score
      L1  H    19    45       P1  7957  0.97
      P1  H  7997  8009       L1     1  0.14

> <Gold.Chemscore.Hbond.Weighted>
-0.0754

> <Gold.Chemscore.Metal.Weighted>
-0.0000

> <Gold.Chemscore.Lipo.Weighted>
-12.2371

> <Gold.Chemscore.Internal_Hbond.Weighted>
0.0000

> <Gold.Chemscore.DEClash.Weighted>
0.1760

> <Gold.Chemscore.DEInternal.Weighted>
2.6664

> <Gold.Chemscore.Rot.Weighted>
6.4411

> <Gold.Chemscore.Internal.Correction.Weighted>
   9.000000E+99

> <Gold.Protein.RotatedTorsions>
[ 6907 6896 6895 6894 ] final  -90.31 input  -60.11 | X-H torsion
[ 7974 7965 7964 7962 ] final   65.64 input  175.53 | X-H torsion
[ 8008 7997 7996 7995 ] final  172.28 input   59.86 | X-H torsion
[ 10167 10162 10161 10158 ] final  132.76 input  -65.29 | X-H torsion
[ 10718 10713 10712 10709 ] final  -93.07 input   66.30 | X-H torsion
[ 10763 10752 10751 10750 ] final -136.63 input  -60.55 | X-H torsion
[ 11005 11000 10999 10996 ] final  116.41 input  -57.11 | X-H torsion

> <Gold.Protein.ActiveResidues>
 VAL166  LYS551  ARG553  GLY616  TRP617  ASP618  TYR619  PRO620  LYS621  CYS622 
 ASP623  PHE694  ASN695  SER759  ASP760  ASP761  ALA762  ILE779  LEU786  VAL792 
 PHE793  MET794  SER795  GLU796  ALA797  LYS798  CYS799  TRP800  GLU811  SER814 

> <Gold.Protein.RotatedAtoms>
  150.6881  134.2451  159.4487 H   0  0  0  0  0  0  0  0  0  0  0  0  # atno 6907 bound_to 6896
  152.0392  134.9719  160.0583 H   0  0  0  0  0  0  0  0  0  0  0  0  # atno 6908 bound_to 6896
  152.1227  133.4328  159.4720 H   0  0  0  0  0  0  0  0  0  0  0  0  # atno 6909 bound_to 6896
  145.8360  139.3167  143.0959 H   0  0  0  0  0  0  0  0  0  0  0  0  # atno 7974 bound_to 7965
  156.1189  140.1490  156.9232 H   0  0  0  0  0  0  0  0  0  0  0  0  # atno 8008 bound_to 7997
  154.4821  140.0876  156.7444 H   0  0  0  0  0  0  0  0  0  0  0  0  # atno 8009 bound_to 7997
  155.4463  140.3433  155.4298 H   0  0  0  0  0  0  0  0  0  0  0  0  # atno 8010 bound_to 7997
  139.5326  144.6647  151.4898 H   0  0  0  0  0  0  0  0  0  0  0  0  # atno 10167 bound_to 10162
  156.0009  130.5012  150.5721 H   0  0  0  0  0  0  0  0  0  0  0  0  # atno 10718 bound_to 10713
  154.8680  135.3667  154.5092 H   0  0  0  0  0  0  0  0  0  0  0  0  # atno 10763 bound_to 10752
  153.5728  135.7020  153.5502 H   0  0  0  0  0  0  0  0  0  0  0  0  # atno 10764 bound_to 10752
  153.3527  135.4068  155.1621 H   0  0  0  0  0  0  0  0  0  0  0  0  # atno 10765 bound_to 10752
  139.9040  134.9597  156.7194 H   0  0  0  0  0  0  0  0  0  0  0  0  # atno 11005 bound_to 11000
  145.9518  140.8903  143.0255 LP  0  0  0  0  0  0  0  0  0  0  0  0  # atno 17320 bound_to 7965
  144.6736  140.1690  143.7416 LP  0  0  0  0  0  0  0  0  0  0  0  0  # atno 17321 bound_to 7965
  140.6513  143.8690  150.6789 LP  0  0  0  0  0  0  0  0  0  0  0  0  # atno 17342 bound_to 10162
  140.2056  143.3924  152.1758 LP  0  0  0  0  0  0  0  0  0  0  0  0  # atno 17343 bound_to 10162
  157.3614  131.0750  151.1633 LP  0  0  0  0  0  0  0  0  0  0  0  0  # atno 17370 bound_to 10713
  157.2416  130.6572  149.5892 LP  0  0  0  0  0  0  0  0  0  0  0  0  # atno 17371 bound_to 10713
  140.7013  133.9304  155.8026 LP  0  0  0  0  0  0  0  0  0  0  0  0  # atno 17394 bound_to 11000
  141.0370  134.0676  157.3948 LP  0  0  0  0  0  0  0  0  0  0  0  0  # atno 17395 bound_to 11000

$$$$
