AV-unprocessed.smi:1525|AV-procd|sdf|6143|dock4
  -GOLD-   22720 6283D 1   1.00000     0.00000
 Structure written by MMmdl.
 49 51  0  0  0  0  0  0  0  0  2 V2000
  145.1343  137.8165  154.5616 O   0  0  0  0  0  0  0  0  0  0  0  0
  145.7278  137.2822  153.6249 C   0  0  0  0  0  0  0  0  0  0  0  0
  146.9689  137.6169  153.2452 N   0  0  0  0  0  0  0  0  0  0  0  0
  147.7792  138.6580  153.8653 C   0  0  0  0  0  0  0  0  0  0  0  0
  148.9346  138.0485  154.6810 C   0  0  0  0  0  0  0  0  0  0  0  0
  150.1865  138.8011  154.6346 N   0  0  0  0  0  0  0  0  0  0  0  0
  150.2975  139.6976  155.7808 C   0  0  0  0  0  0  0  0  0  0  0  0
  151.6091  140.5015  155.7599 C   0  0  0  0  0  0  0  0  0  0  0  0
  152.7148  139.6060  155.7143 O   0  0  0  0  0  0  0  0  0  0  0  0
  152.6723  138.7405  154.5846 C   0  0  0  0  0  0  0  0  0  0  0  0
  151.3620  137.9333  154.5977 C   0  0  0  0  0  0  0  0  0  0  0  0
  145.2210  136.3168  152.8399 N   0  0  0  0  0  0  0  0  0  0  0  0
  143.9342  135.7116  152.9164 C   0  0  0  0  0  0  0  0  0  0  0  0
  142.9186  136.2145  153.7694 C   0  0  0  0  0  0  0  0  0  0  0  0
  141.6639  135.5768  153.8161 C   0  0  0  0  0  0  0  0  0  0  0  0
  141.4459  134.4406  153.0171 C   0  0  0  0  0  0  0  0  0  0  0  0
  142.4379  133.9770  152.2290 N   0  3  0  0  0  0  0  0  0  0  0  0
  143.6641  134.5499  152.1421 C   0  0  0  0  0  0  0  0  0  0  0  0
  144.6337  133.9616  151.3022 N   0  0  0  0  0  0  0  0  0  0  0  0
  145.7963  133.4355  152.0134 C   0  0  0  0  0  0  0  0  0  0  0  0
  146.1892  132.1356  151.3069 C   0  0  0  0  0  0  0  0  0  0  0  0
  144.8820  131.6725  150.6756 C   0  0  0  0  0  0  0  0  0  0  0  0
  144.2194  132.9926  150.2887 C   0  0  0  0  0  0  0  0  0  0  0  0
  147.3805  137.1271  152.4645 H   0  0  0  0  0  0  0  0  0  0  0  0
  148.1475  139.3380  153.0963 H   0  0  0  0  0  0  0  0  0  0  0  0
  147.1336  139.2457  154.5180 H   0  0  0  0  0  0  0  0  0  0  0  0
  148.6058  137.9822  155.7191 H   0  0  0  0  0  0  0  0  0  0  0  0
  149.1131  137.0215  154.3582 H   0  0  0  0  0  0  0  0  0  0  0  0
  149.4536  140.3882  155.7940 H   0  0  0  0  0  0  0  0  0  0  0  0
  150.2439  139.1223  156.7065 H   0  0  0  0  0  0  0  0  0  0  0  0
  151.6384  141.1723  154.8999 H   0  0  0  0  0  0  0  0  0  0  0  0
  151.6889  141.1213  156.6530 H   0  0  0  0  0  0  0  0  0  0  0  0
  152.7559  139.3254  153.6674 H   0  0  0  0  0  0  0  0  0  0  0  0
  153.5311  138.0701  154.6163 H   0  0  0  0  0  0  0  0  0  0  0  0
  151.3575  137.2670  155.4618 H   0  0  0  0  0  0  0  0  0  0  0  0
  151.3378  137.2983  153.7128 H   0  0  0  0  0  0  0  0  0  0  0  0
  145.7831  136.0494  152.0453 H   0  0  0  0  0  0  0  0  0  0  0  0
  143.0859  137.0743  154.4001 H   0  0  0  0  0  0  0  0  0  0  0  0
  140.8821  135.9523  154.4603 H   0  0  0  0  0  0  0  0  0  0  0  0
  140.5187  133.8866  152.9908 H   0  0  0  0  0  0  0  0  0  0  0  0
  146.6184  134.1515  152.0060 H   0  0  0  0  0  0  0  0  0  0  0  0
  145.5407  133.2301  153.0543 H   0  0  0  0  0  0  0  0  0  0  0  0
  146.9208  132.3450  150.5252 H   0  0  0  0  0  0  0  0  0  0  0  0
  146.6216  131.3989  151.9845 H   0  0  0  0  0  0  0  0  0  0  0  0
  145.0290  131.0052  149.8257 H   0  0  0  0  0  0  0  0  0  0  0  0
  144.2741  131.1518  151.4166 H   0  0  0  0  0  0  0  0  0  0  0  0
  143.1408  132.8861  150.1738 H   0  0  0  0  0  0  0  0  0  0  0  0
  144.6055  133.3333  149.3276 H   0  0  0  0  0  0  0  0  0  0  0  0
  142.2553  133.1437  151.6697 H   0  0  0  0  0  0  0  0  0  0  0  0
  1  2  2  0  0  0  0
  2  3  1  0  0  0  0
  2 12  1  0  0  0  0
  3  4  1  0  0  0  0
  3 24  1  0  0  0  0
  4  5  1  0  0  0  0
  4 25  1  0  0  0  0
  4 26  1  0  0  0  0
  5  6  1  0  0  0  0
  5 27  1  0  0  0  0
  5 28  1  0  0  0  0
  6 11  1  0  0  0  0
  6  7  1  0  0  0  0
  7  8  1  0  0  0  0
  7 29  1  0  0  0  0
  7 30  1  0  0  0  0
  8  9  1  0  0  0  0
  8 31  1  0  0  0  0
  8 32  1  0  0  0  0
  9 10  1  0  0  0  0
 10 11  1  0  0  0  0
 10 33  1  0  0  0  0
 10 34  1  0  0  0  0
 11 35  1  0  0  0  0
 11 36  1  0  0  0  0
 12 13  1  0  0  0  0
 12 37  1  0  0  0  0
 13 18  1  0  0  0  0
 13 14  2  0  0  0  0
 14 15  1  0  0  0  0
 14 38  1  0  0  0  0
 15 16  2  0  0  0  0
 15 39  1  0  0  0  0
 16 17  1  0  0  0  0
 16 40  1  0  0  0  0
 17 18  2  0  0  0  0
 17 49  1  0  0  0  0
 18 19  1  0  0  0  0
 19 23  1  0  0  0  0
 19 20  1  0  0  0  0
 20 21  1  0  0  0  0
 20 41  1  0  0  0  0
 20 42  1  0  0  0  0
 21 22  1  0  0  0  0
 21 43  1  0  0  0  0
 21 44  1  0  0  0  0
 22 23  1  0  0  0  0
 22 45  1  0  0  0  0
 22 46  1  0  0  0  0
 23 47  1  0  0  0  0
 23 48  1  0  0  0  0
M  CHG  1  17   1
M  END
> <s_m_source_file>
AV-unprocessed.smi

> <i_m_source_file_index>
1525

> <i_lp_mmshare_version>
43012

> <i_f3d_flags>
0

> <s_epik_input>
W0NIMl0xW0NIMl1PW0NIMl1bQ0gyXU4xW0NIMl1bQ0gyXVtOSF1DKD1PKVtOSF1jMltjSF1bY0hdW2NIXW5jMk4zW0NIMl1bQ0gyXVtDSDJdW0NIMl0z

> <s_epik_cmdline>
J2VwaWtfcHl0aG9uJywgJy1waCcsICc3LjAnLCAnLXRuJywgJzgnLCAnLW1hJywgJzIwMCcsICctbWV0YWxfYmluZGluZycsICctaW1hZScsICc8aW5maWxlLm1hZT4nLCAnLW9tYWUnLCAnPG91dGZpbGUubWFlPic=

> <r_epik_Ionization_Penalty>
1.38385

> <r_epik_Ionization_Penalty_Charging>
1.11784

> <r_epik_Ionization_Penalty_Neutral>
0.26601

> <r_epik_State_Penalty>
1.46794

> <r_epik_Charging_Adjusted_Penalty>
2.58578

> <i_epik_Tot_Q>
1

> <i_epik_Tot_abs_Q>
1

> <r_epik_Metal_State_Penalty>
1.54909

> <b_epik_Metal_Only>
0

> <s_lp_Force_Field>
OPLS_2005

> <r_lp_Energy>
56.1891

> <b_lp_Chiralities_Consistent>
1

> <s_lp_Variant>
AV-unprocessed.smi:1525-3

> <Gold.Version>
5.8.1

> <Gold.Id.Protein>
6NUR|6NUR_protein|mol2

> <Gold.PLP.Fitness>
41.6514

> <Gold.PLP.PLP>
-37.7384

> <Gold.PLP.part.hbond>
-2.8679

> <Gold.PLP.part.metal>
0.0000

> <Gold.PLP.part.buried>
-7.0000

> <Gold.PLP.part.nonpolar>
-28.5133

> <Gold.PLP.part.repulsive>
0.3748

> <Gold.PLP.ligand.clash>
0.0000

> <Gold.PLP.ligand.torsion>
1.0562

> <Gold.PLP.Chemscore.Hbond>
1.9440

> <Gold.PLP.Chemscore.CHOScore>
0.0000

> <Gold.PLP.Chemscore.Metal>
0.0000

> <Gold.Chemscore.Hbonds>
donor molecule, donor type, donor heavy atom, donor atom, acceptor molecule, acceptor atom, score
      L1  H     3    24       P1  7948  0.90
      P1  H  7997  8010       L1     9  1.00

> <Gold.PLP.Chemscore.Internal.Correction>
0.1936

> <Gold.Rescore>
     Score         DG    S(hbond)    S(metal)    S(lipo)     H(rot)  DE(clash)    DE(int)     intcor
     15.50     -18.09       1.84        0.00      91.05       1.63       0.12       2.47       ----

> <Gold.Chemscore.Fitness>
15.5007

> <Gold.Chemscore.DG>
-18.0869

> <Gold.Chemscore.ZeroCoef>
-5.4800

> <Gold.Chemscore.Hbond>
1.8362

> <Gold.Chemscore.Metal>
0.0000

> <Gold.Chemscore.Lipo>
91.0492

> <Gold.Chemscore.Internal_Hbond>
0.0000

> <Gold.Chemscore.DEClash>
0.1156

> <Gold.Chemscore.DEInternal>
2.4707

> <Gold.Chemscore.Rot>
1.6323

> <Gold.Chemscore.Internal.Correction>
   9.000000E+99

> <Gold.Chemscore.Hbonds>
donor molecule, donor type, donor heavy atom, donor atom, acceptor molecule, acceptor atom, score
      L1  H     3    24       P1  7948  0.88
      P1  H  7997  8010       L1     9  0.94

> <Gold.Chemscore.Hbond.Weighted>
-6.1327

> <Gold.Chemscore.Metal.Weighted>
-0.0000

> <Gold.Chemscore.Lipo.Weighted>
-10.6528

> <Gold.Chemscore.Internal_Hbond.Weighted>
0.0000

> <Gold.Chemscore.DEClash.Weighted>
0.1156

> <Gold.Chemscore.DEInternal.Weighted>
2.4707

> <Gold.Chemscore.Rot.Weighted>
4.1786

> <Gold.Chemscore.Internal.Correction.Weighted>
   9.000000E+99

> <Gold.Protein.RotatedTorsions>
[ 6907 6896 6895 6894 ] final -104.36 input  -60.11 | X-H torsion
[ 7974 7965 7964 7962 ] final -138.02 input  175.53 | X-H torsion
[ 8008 7997 7996 7995 ] final   74.26 input   59.86 | X-H torsion
[ 10167 10162 10161 10158 ] final   98.12 input  -65.29 | X-H torsion
[ 10718 10713 10712 10709 ] final -163.21 input   66.30 | X-H torsion
[ 10763 10752 10751 10750 ] final  -37.38 input  -60.55 | X-H torsion
[ 11005 11000 10999 10996 ] final   -4.99 input  -57.11 | X-H torsion

> <Gold.Protein.ActiveResidues>
 VAL166  LYS551  ARG553  GLY616  TRP617  ASP618  TYR619  PRO620  LYS621  CYS622 
 ASP623  PHE694  ASN695  SER759  ASP760  ASP761  ALA762  ILE779  LEU786  VAL792 
 PHE793  MET794  SER795  GLU796  ALA797  LYS798  CYS799  TRP800  GLU811  SER814 

> <Gold.Protein.RotatedAtoms>
  150.7283  134.0290  159.3726 H   0  0  0  0  0  0  0  0  0  0  0  0  # atno 6907 bound_to 6896
  151.8258  135.0635  160.0440 H   0  0  0  0  0  0  0  0  0  0  0  0  # atno 6908 bound_to 6896
  152.2970  133.5581  159.5630 H   0  0  0  0  0  0  0  0  0  0  0  0  # atno 6909 bound_to 6896
  144.8793  140.6484  143.5216 H   0  0  0  0  0  0  0  0  0  0  0  0  # atno 7974 bound_to 7965
  155.7958  140.3478  155.5374 H   0  0  0  0  0  0  0  0  0  0  0  0  # atno 8008 bound_to 7997
  155.8588  140.0968  157.1647 H   0  0  0  0  0  0  0  0  0  0  0  0  # atno 8009 bound_to 7997
  154.4011  140.1362  156.3922 H   0  0  0  0  0  0  0  0  0  0  0  0  # atno 8010 bound_to 7997
  139.7738  144.6913  151.0119 H   0  0  0  0  0  0  0  0  0  0  0  0  # atno 10167 bound_to 10162
  156.6215  130.8892  151.2958 H   0  0  0  0  0  0  0  0  0  0  0  0  # atno 10718 bound_to 10713
  153.8953  135.6808  153.4758 H   0  0  0  0  0  0  0  0  0  0  0  0  # atno 10763 bound_to 10752
  153.1159  135.4762  154.9111 H   0  0  0  0  0  0  0  0  0  0  0  0  # atno 10764 bound_to 10752
  154.7602  135.3208  154.8346 H   0  0  0  0  0  0  0  0  0  0  0  0  # atno 10765 bound_to 10752
  140.6863  133.9110  155.8588 H   0  0  0  0  0  0  0  0  0  0  0  0  # atno 11005 bound_to 11000
  145.3984  139.1602  143.4191 LP  0  0  0  0  0  0  0  0  0  0  0  0  # atno 17320 bound_to 7965
  146.2984  140.4078  142.8713 LP  0  0  0  0  0  0  0  0  0  0  0  0  # atno 17321 bound_to 7965
  140.7815  143.4559  151.0346 LP  0  0  0  0  0  0  0  0  0  0  0  0  # atno 17342 bound_to 10162
  139.8242  143.7779  152.3178 LP  0  0  0  0  0  0  0  0  0  0  0  0  # atno 17343 bound_to 10162
  157.7226  130.9579  150.1502 LP  0  0  0  0  0  0  0  0  0  0  0  0  # atno 17370 bound_to 10713
  156.2308  130.3682  149.8447 LP  0  0  0  0  0  0  0  0  0  0  0  0  # atno 17371 bound_to 10713
  141.0277  134.0800  157.4049 LP  0  0  0  0  0  0  0  0  0  0  0  0  # atno 17394 bound_to 11000
  139.8936  135.0131  156.6910 LP  0  0  0  0  0  0  0  0  0  0  0  0  # atno 17395 bound_to 11000

$$$$
