AV-unprocessed.smi:1350|AV-procd|sdf|5522|dock9
  -GOLD-   22720 5113D 1   1.00000     0.00000
 Structure written by MMmdl.
 44 46  0  0  0  0  0  0  0  0  2 V2000
  147.7214  137.3236  163.6863 C   0  0  0  0  0  0  0  0  0  0  0  0
  148.0852  137.1688  162.3221 O   0  0  0  0  0  0  0  0  0  0  0  0
  147.9932  135.9144  161.7531 C   0  0  0  0  0  0  0  0  0  0  0  0
  147.5186  134.7762  162.4553 C   0  0  0  0  0  0  0  0  0  0  0  0
  147.4450  133.5201  161.8244 C   0  0  0  0  0  0  0  0  0  0  0  0
  147.8427  133.3806  160.4837 C   0  0  0  0  0  0  0  0  0  0  0  0
  148.3150  134.4999  159.7760 C   0  0  0  0  0  0  0  0  0  0  0  0
  148.3953  135.7619  160.4018 C   0  0  0  0  0  0  0  0  0  0  0  0
  148.9005  136.9401  159.5848 C   0  0  0  0  0  0  0  0  0  0  0  0
  150.2837  136.8161  159.2974 O   0  0  0  0  0  0  0  0  0  0  0  0
  150.9237  138.0706  159.1313 C   0  0  0  0  0  0  0  0  0  0  0  0
  151.2038  138.2970  157.6392 C   0  0  2  0  0  0  0  0  0  0  0  0
  151.5776  137.0640  157.0567 O   0  0  0  0  0  0  0  0  0  0  0  0
  152.3119  139.3419  157.3985 C   0  0  0  0  0  0  0  0  0  0  0  0
  151.7887  140.7107  157.3053 N   0  0  0  0  0  0  0  0  0  0  0  0
  150.9008  141.2532  156.4284 C   0  0  0  0  0  0  0  0  0  0  0  0
  150.7353  142.5619  156.7681 N   0  3  0  0  0  0  0  0  0  0  0  0
  151.5300  142.8597  157.8775 C   0  0  0  0  0  0  0  0  0  0  0  0
  151.7009  144.0452  158.5858 C   0  0  0  0  0  0  0  0  0  0  0  0
  152.5930  144.0066  159.6778 C   0  0  0  0  0  0  0  0  0  0  0  0
  153.2748  142.8228  160.0290 C   0  0  0  0  0  0  0  0  0  0  0  0
  153.0943  141.6267  159.3035 C   0  0  0  0  0  0  0  0  0  0  0  0
  152.2106  141.6741  158.2263 C   0  0  0  0  0  0  0  0  0  0  0  0
  147.8548  138.3654  163.9772 H   0  0  0  0  0  0  0  0  0  0  0  0
  148.3508  136.7170  164.3389 H   0  0  0  0  0  0  0  0  0  0  0  0
  146.6740  137.0679  163.8516 H   0  0  0  0  0  0  0  0  0  0  0  0
  147.2014  134.8387  163.4851 H   0  0  0  0  0  0  0  0  0  0  0  0
  147.0806  132.6629  162.3709 H   0  0  0  0  0  0  0  0  0  0  0  0
  147.7839  132.4177  159.9982 H   0  0  0  0  0  0  0  0  0  0  0  0
  148.6169  134.3887  158.7448 H   0  0  0  0  0  0  0  0  0  0  0  0
  148.3342  136.9708  158.6528 H   0  0  0  0  0  0  0  0  0  0  0  0
  148.7184  137.8863  160.0943 H   0  0  0  0  0  0  0  0  0  0  0  0
  150.3022  138.8740  159.5307 H   0  0  0  0  0  0  0  0  0  0  0  0
  151.8613  138.0717  159.6901 H   0  0  0  0  0  0  0  0  0  0  0  0
  150.2819  138.6188  157.1537 H   0  0  0  0  0  0  0  0  0  0  0  0
  152.1492  136.6098  157.6566 H   0  0  0  0  0  0  0  0  0  0  0  0
  153.0587  139.3131  158.1933 H   0  0  0  0  0  0  0  0  0  0  0  0
  152.8416  139.1280  156.4692 H   0  0  0  0  0  0  0  0  0  0  0  0
  150.4120  140.7378  155.6143 H   0  0  0  0  0  0  0  0  0  0  0  0
  151.1798  144.9531  158.3199 H   0  0  0  0  0  0  0  0  0  0  0  0
  152.7571  144.9028  160.2584 H   0  0  0  0  0  0  0  0  0  0  0  0
  153.9495  142.8317  160.8727 H   0  0  0  0  0  0  0  0  0  0  0  0
  153.6187  140.7238  159.5802 H   0  0  0  0  0  0  0  0  0  0  0  0
  150.1220  143.2012  156.2789 H   0  0  0  0  0  0  0  0  0  0  0  0
  1  2  1  0  0  0  0
  1 24  1  0  0  0  0
  1 25  1  0  0  0  0
  1 26  1  0  0  0  0
  2  3  1  0  0  0  0
  3  8  1  0  0  0  0
  3  4  2  0  0  0  0
  4  5  1  0  0  0  0
  4 27  1  0  0  0  0
  5  6  2  0  0  0  0
  5 28  1  0  0  0  0
  6  7  1  0  0  0  0
  6 29  1  0  0  0  0
  7  8  2  0  0  0  0
  7 30  1  0  0  0  0
  8  9  1  0  0  0  0
  9 10  1  0  0  0  0
  9 31  1  0  0  0  0
  9 32  1  0  0  0  0
 10 11  1  0  0  0  0
 11 12  1  0  0  0  0
 11 33  1  0  0  0  0
 11 34  1  0  0  0  0
 12 13  1  0  0  0  0
 12 14  1  0  0  0  0
 12 35  1  0  0  0  0
 13 36  1  0  0  0  0
 14 15  1  0  0  0  0
 14 37  1  0  0  0  0
 14 38  1  0  0  0  0
 15 23  1  0  0  0  0
 15 16  1  0  0  0  0
 16 17  2  0  0  0  0
 16 39  1  0  0  0  0
 17 18  1  0  0  0  0
 17 44  1  0  0  0  0
 18 23  2  0  0  0  0
 18 19  1  0  0  0  0
 19 20  2  0  0  0  0
 19 40  1  0  0  0  0
 20 21  1  0  0  0  0
 20 41  1  0  0  0  0
 21 22  2  0  0  0  0
 21 42  1  0  0  0  0
 22 23  1  0  0  0  0
 22 43  1  0  0  0  0
M  CHG  1  17   1
M  END
> <s_m_source_file>
AV-unprocessed.smi

> <i_m_source_file_index>
1350

> <i_lp_mmshare_version>
43012

> <i_f3d_flags>
0

> <s_epik_input>
W0NIM11PYzFbY0hdW2NIXVtjSF1bY0hdYzFbQ0gyXU9bQ0gyXVtDQEhdKFtPSF0pW0NIMl1uKFtjSF1uMiljKGMyMylbY0hdW2NIXVtjSF1bY0hdMw==

> <s_epik_cmdline>
J2VwaWtfcHl0aG9uJywgJy1waCcsICc3LjAnLCAnLXRuJywgJzgnLCAnLW1hJywgJzIwMCcsICctbWV0YWxfYmluZGluZycsICctaW1hZScsICc8aW5maWxlLm1hZT4nLCAnLW9tYWUnLCAnPG91dGZpbGUubWFlPic=

> <r_lp_tautomer_probability>
1

> <r_epik_Ionization_Penalty>
1.28975

> <r_epik_Ionization_Penalty_Charging>
1.28975

> <r_epik_Ionization_Penalty_Neutral>
1.07667e-06

> <r_epik_State_Penalty>
1.36276

> <r_epik_Charging_Adjusted_Penalty>
2.65251

> <i_epik_Tot_Q>
1

> <i_epik_Tot_abs_Q>
1

> <r_epik_Metal_State_Penalty>
5.39298

> <b_epik_Metal_Only>
0

> <s_lp_Force_Field>
OPLS_2005

> <r_lp_Energy>
23.7531

> <b_lp_Chiralities_Consistent>
1

> <s_lp_Variant>
AV-unprocessed.smi:1350-3

> <Gold.Version>
5.8.1

> <Gold.Id.Protein>
6NUR|6NUR_protein|mol2

> <Gold.PLP.Fitness>
60.2402

> <Gold.PLP.PLP>
-49.4356

> <Gold.PLP.part.hbond>
-3.8005

> <Gold.PLP.part.metal>
0.0000

> <Gold.PLP.part.buried>
-4.7474

> <Gold.PLP.part.nonpolar>
-40.7308

> <Gold.PLP.part.repulsive>
0.0773

> <Gold.PLP.ligand.clash>
0.0000

> <Gold.PLP.ligand.torsion>
1.1571

> <Gold.PLP.Chemscore.Hbond>
4.3154

> <Gold.PLP.Chemscore.CHOScore>
0.0000

> <Gold.PLP.Chemscore.Metal>
0.0000

> <Gold.Chemscore.Hbonds>
donor molecule, donor type, donor heavy atom, donor atom, acceptor molecule, acceptor atom, score
      L1  H    17    44       P1  8028  1.89
      P1  H  6896  6909       L1    10  1.00
      P1  H  6931  6943       L1     2  0.88

> <Gold.PLP.Chemscore.Internal.Correction>
0.1727

> <Gold.Rescore>
     Score         DG    S(hbond)    S(metal)    S(lipo)     H(rot)  DE(clash)    DE(int)     intcor
     20.96     -22.52       2.43        0.00     136.30       2.74       0.46       1.10       ----

> <Gold.Chemscore.Fitness>
20.9635

> <Gold.Chemscore.DG>
-22.5192

> <Gold.Chemscore.ZeroCoef>
-5.4800

> <Gold.Chemscore.Hbond>
2.4262

> <Gold.Chemscore.Metal>
0.0000

> <Gold.Chemscore.Lipo>
136.3025

> <Gold.Chemscore.Internal_Hbond>
0.0000

> <Gold.Chemscore.DEClash>
0.4558

> <Gold.Chemscore.DEInternal>
1.0999

> <Gold.Chemscore.Rot>
2.7390

> <Gold.Chemscore.Internal.Correction>
   9.000000E+99

> <Gold.Chemscore.Hbonds>
donor molecule, donor type, donor heavy atom, donor atom, acceptor molecule, acceptor atom, score
      L1  H    17    44       P1  8028  0.90
      P1  H  6896  6909       L1    10  0.75
      P1  H  6931  6943       L1     2  0.58
      P1  H  6934  6947       L1     2  0.01

> <Gold.Chemscore.Hbond.Weighted>
-8.1036

> <Gold.Chemscore.Metal.Weighted>
-0.0000

> <Gold.Chemscore.Lipo.Weighted>
-15.9474

> <Gold.Chemscore.Internal_Hbond.Weighted>
0.0000

> <Gold.Chemscore.DEClash.Weighted>
0.4558

> <Gold.Chemscore.DEInternal.Weighted>
1.0999

> <Gold.Chemscore.Rot.Weighted>
7.0118

> <Gold.Chemscore.Internal.Correction.Weighted>
   9.000000E+99

> <Gold.Protein.RotatedTorsions>
[ 6907 6896 6895 6894 ] final   80.90 input  -60.11 | X-H torsion
[ 7974 7965 7964 7962 ] final  -16.06 input  175.53 | X-H torsion
[ 8008 7997 7996 7995 ] final  124.61 input   59.86 | X-H torsion
[ 10167 10162 10161 10158 ] final   23.00 input  -65.29 | X-H torsion
[ 10718 10713 10712 10709 ] final   -5.04 input   66.30 | X-H torsion
[ 10763 10752 10751 10750 ] final -151.36 input  -60.55 | X-H torsion
[ 11005 11000 10999 10996 ] final  -47.62 input  -57.11 | X-H torsion

> <Gold.Protein.ActiveResidues>
 VAL166  LYS551  ARG553  GLY616  TRP617  ASP618  TYR619  PRO620  LYS621  CYS622 
 ASP623  PHE694  ASN695  SER759  ASP760  ASP761  ALA762  ILE779  LEU786  VAL792 
 PHE793  MET794  SER795  GLU796  ALA797  LYS798  CYS799  TRP800  GLU811  SER814 

> <Gold.Protein.RotatedAtoms>
  152.5251  134.3286  159.9174 H   0  0  0  0  0  0  0  0  0  0  0  0  # atno 6907 bound_to 6896
  151.3235  133.4023  159.2664 H   0  0  0  0  0  0  0  0  0  0  0  0  # atno 6908 bound_to 6896
  150.9939  134.9285  159.7973 H   0  0  0  0  0  0  0  0  0  0  0  0  # atno 6909 bound_to 6896
  146.2004  140.3582  142.8425 H   0  0  0  0  0  0  0  0  0  0  0  0  # atno 7974 bound_to 7965
  156.2807  140.2735  156.1816 H   0  0  0  0  0  0  0  0  0  0  0  0  # atno 8008 bound_to 7997
  155.0551  140.0386  157.2575 H   0  0  0  0  0  0  0  0  0  0  0  0  # atno 8009 bound_to 7997
  154.7163  140.2679  155.6587 H   0  0  0  0  0  0  0  0  0  0  0  0  # atno 8010 bound_to 7997
  140.5303  143.9852  150.6462 H   0  0  0  0  0  0  0  0  0  0  0  0  # atno 10167 bound_to 10162
  156.7524  130.5243  149.5801 H   0  0  0  0  0  0  0  0  0  0  0  0  # atno 10718 bound_to 10713
  154.8063  135.3262  154.7423 H   0  0  0  0  0  0  0  0  0  0  0  0  # atno 10763 bound_to 10752
  153.8081  135.6898  153.4849 H   0  0  0  0  0  0  0  0  0  0  0  0  # atno 10764 bound_to 10752
  153.1810  135.4586  154.9973 H   0  0  0  0  0  0  0  0  0  0  0  0  # atno 10765 bound_to 10752
  141.0651  133.6696  156.3323 H   0  0  0  0  0  0  0  0  0  0  0  0  # atno 11005 bound_to 11000
  144.8671  140.7222  143.6070 LP  0  0  0  0  0  0  0  0  0  0  0  0  # atno 17320 bound_to 7965
  145.3502  139.1708  143.4439 LP  0  0  0  0  0  0  0  0  0  0  0  0  # atno 17321 bound_to 7965
  140.3225  143.3128  152.0769 LP  0  0  0  0  0  0  0  0  0  0  0  0  # atno 17342 bound_to 10162
  139.4952  144.6564  151.6563 LP  0  0  0  0  0  0  0  0  0  0  0  0  # atno 17343 bound_to 10162
  156.1392  130.6233  151.0444 LP  0  0  0  0  0  0  0  0  0  0  0  0  # atno 17370 bound_to 10713
  157.6771  131.0847  150.7466 LP  0  0  0  0  0  0  0  0  0  0  0  0  # atno 17371 bound_to 10713
  140.5789  134.5766  157.5475 LP  0  0  0  0  0  0  0  0  0  0  0  0  # atno 17394 bound_to 11000
  139.9469  134.7686  156.0540 LP  0  0  0  0  0  0  0  0  0  0  0  0  # atno 17395 bound_to 11000

$$$$
