AV-unprocessed.smi:49|AV-procd|sdf|482|dock1
  -GOLD-   2262016343D 1   1.00000     0.00000
 Structure written by MMmdl.
 28 29  0  0  0  0  0  0  0  0  2 V2000
  151.9592  144.5466  157.3527 C   0  0  0  0  0  0  0  0  0  0  0  0
  151.5453  143.2478  158.0534 C   0  0  0  0  0  0  0  0  0  0  0  0
  151.0117  142.2272  157.1023 C   0  0  0  0  0  0  0  0  0  0  0  0
  150.1454  142.5460  156.1299 N   0  0  0  0  0  0  0  0  0  0  0  0
  149.9114  141.3676  155.5336 C   0  0  0  0  0  0  0  0  0  0  0  0
  148.9849  141.2580  154.3563 C   0  0  1  0  0  0  0  0  0  0  0  0
  147.8728  140.2124  154.5312 C   0  0  0  0  0  0  0  0  0  0  0  0
  146.6754  141.0241  155.0233 C   0  0  2  0  0  0  0  0  0  0  0  0
  145.4443  140.4133  154.6984 O   0  0  0  0  0  0  0  0  0  0  0  0
  146.8646  142.3703  154.3249 C   0  0  0  0  0  0  0  0  0  0  0  0
  148.3231  142.5806  154.2869 N   0  3  0  0  0  0  0  0  0  0  0  0
  150.5913  140.3588  156.0944 N   0  0  0  0  0  0  0  0  0  0  0  0
  151.3096  140.9252  157.1324 N   0  0  0  0  0  0  0  0  0  0  0  0
  149.5604  141.0740  153.4480 H   0  0  0  0  0  0  0  0  0  0  0  0
  146.7390  141.1561  156.1045 H   0  0  0  0  0  0  0  0  0  0  0  0
  149.7662  143.4543  155.9034 H   0  0  0  0  0  0  0  0  0  0  0  0
  152.3437  145.2704  158.0716 H   0  0  0  0  0  0  0  0  0  0  0  0
  151.1126  145.0044  156.8401 H   0  0  0  0  0  0  0  0  0  0  0  0
  152.7397  144.3636  156.6138 H   0  0  0  0  0  0  0  0  0  0  0  0
  152.3975  142.8262  158.5880 H   0  0  0  0  0  0  0  0  0  0  0  0
  150.7822  143.4588  158.8035 H   0  0  0  0  0  0  0  0  0  0  0  0
  147.6401  139.7824  153.5557 H   0  0  0  0  0  0  0  0  0  0  0  0
  148.1454  139.3908  155.1950 H   0  0  0  0  0  0  0  0  0  0  0  0
  145.1283  140.7731  153.8834 H   0  0  0  0  0  0  0  0  0  0  0  0
  146.5007  142.3235  153.2974 H   0  0  0  0  0  0  0  0  0  0  0  0
  146.3505  143.1880  154.8308 H   0  0  0  0  0  0  0  0  0  0  0  0
  148.5933  143.1018  155.1097 H   0  0  0  0  0  0  0  0  0  0  0  0
  148.5966  143.0877  153.4577 H   0  0  0  0  0  0  0  0  0  0  0  0
  1  2  1  0  0  0  0
  1 17  1  0  0  0  0
  1 18  1  0  0  0  0
  1 19  1  0  0  0  0
  2 20  1  0  0  0  0
  2 21  1  0  0  0  0
  2  3  1  0  0  0  0
  3  4  1  0  0  0  0
  3 13  2  0  0  0  0
  4 16  1  0  0  0  0
  4  5  1  0  0  0  0
  5 12  2  0  0  0  0
  5  6  1  0  0  0  0
  6 14  1  0  0  0  0
  6 11  1  0  0  0  0
  6  7  1  0  0  0  0
  7  8  1  0  0  0  0
  7 22  1  0  0  0  0
  7 23  1  0  0  0  0
  8 15  1  0  0  0  0
  8  9  1  0  0  0  0
  8 10  1  0  0  0  0
  9 24  1  0  0  0  0
 10 11  1  0  0  0  0
 10 25  1  0  0  0  0
 10 26  1  0  0  0  0
 11 27  1  0  0  0  0
 11 28  1  0  0  0  0
 12 13  1  0  0  0  0
M  CHG  1  11   1
M  END
> <s_m_source_file>
AV-unprocessed.smi

> <i_m_source_file_index>
49

> <i_lp_mmshare_version>
43012

> <i_f3d_flags>
0

> <s_epik_input>
W0NIM11bQ0gyXWMxbmMobltuSF0xKVtDQEBIXTJbQ0gyXVtDQEBIXShbT0hdKVtDSDJdW05IXTI=

> <s_epik_cmdline>
J2VwaWtfcHl0aG9uJywgJy1waCcsICc3LjAnLCAnLXRuJywgJzgnLCAnLW1hJywgJzIwMCcsICctbWV0YWxfYmluZGluZycsICctaW1hZScsICc8aW5maWxlLm1hZT4nLCAnLW9tYWUnLCAnPG91dGZpbGUubWFlPic=

> <r_lp_tautomer_probability>
0.0517155

> <r_epik_Ionization_Penalty>
0.939819

> <r_epik_Ionization_Penalty_Charging>
0.0688988

> <r_epik_Ionization_Penalty_Neutral>
0.87092

> <r_epik_State_Penalty>
2.1224

> <r_epik_Charging_Adjusted_Penalty>
2.1913

> <i_epik_Tot_Q>
1

> <i_epik_Tot_abs_Q>
1

> <r_epik_Metal_State_Penalty>
2.39725

> <b_epik_Metal_Only>
0

> <s_lp_Force_Field>
OPLS_2005

> <r_lp_Energy>
21.7602

> <b_lp_Chiralities_Consistent>
1

> <s_lp_Variant>
AV-unprocessed.smi:49-20

> <Gold.Version>
5.8.1

> <Gold.Id.Protein>
6NUR|6NUR_protein|mol2

> <Gold.PLP.Fitness>
34.7011

> <Gold.PLP.PLP>
-25.0772

> <Gold.PLP.part.hbond>
-3.0000

> <Gold.PLP.part.metal>
0.0000

> <Gold.PLP.part.buried>
-5.4048

> <Gold.PLP.part.nonpolar>
-18.4144

> <Gold.PLP.part.repulsive>
1.7391

> <Gold.PLP.ligand.clash>
0.0000

> <Gold.PLP.ligand.torsion>
0.3443

> <Gold.PLP.Chemscore.Hbond>
3.4320

> <Gold.PLP.Chemscore.CHOScore>
0.0000

> <Gold.PLP.Chemscore.Metal>
0.0000

> <Gold.Chemscore.Hbonds>
donor molecule, donor type, donor heavy atom, donor atom, acceptor molecule, acceptor atom, score
      L1  H     4    16       P1  8028  1.00
      L1  H     9    24       P1 10175  0.82
      L1  H    11    27       P1  8028  1.60

> <Gold.PLP.Chemscore.Internal.Correction>
0.0165

> <Gold.Rescore>
     Score         DG    S(hbond)    S(metal)    S(lipo)     H(rot)  DE(clash)    DE(int)     intcor
     14.67     -15.09       2.70        0.00      46.54       1.89       0.24       0.18       ----

> <Gold.Chemscore.Fitness>
14.6733

> <Gold.Chemscore.DG>
-15.0935

> <Gold.Chemscore.ZeroCoef>
-5.4800

> <Gold.Chemscore.Hbond>
2.6951

> <Gold.Chemscore.Metal>
0.0000

> <Gold.Chemscore.Lipo>
46.5445

> <Gold.Chemscore.Internal_Hbond>
0.0000

> <Gold.Chemscore.DEClash>
0.2428

> <Gold.Chemscore.DEInternal>
0.1774

> <Gold.Chemscore.Rot>
1.8883

> <Gold.Chemscore.Internal.Correction>
   9.000000E+99

> <Gold.Chemscore.Hbonds>
donor molecule, donor type, donor heavy atom, donor atom, acceptor molecule, acceptor atom, score
      L1  H     4    16       P1  8028  0.96
      L1  H     9    24       P1 10175  0.73
      L1  H    11    27       P1  8028  0.80

> <Gold.Chemscore.Hbond.Weighted>
-9.0018

> <Gold.Chemscore.Metal.Weighted>
-0.0000

> <Gold.Chemscore.Lipo.Weighted>
-5.4457

> <Gold.Chemscore.Internal_Hbond.Weighted>
0.0000

> <Gold.Chemscore.DEClash.Weighted>
0.2428

> <Gold.Chemscore.DEInternal.Weighted>
0.1774

> <Gold.Chemscore.Rot.Weighted>
4.8340

> <Gold.Chemscore.Internal.Correction.Weighted>
   9.000000E+99

> <Gold.Protein.RotatedTorsions>
[ 6907 6896 6895 6894 ] final   80.46 input  -60.11 | X-H torsion
[ 7974 7965 7964 7962 ] final -110.41 input  175.53 | X-H torsion
[ 8008 7997 7996 7995 ] final   90.33 input   59.86 | X-H torsion
[ 10167 10162 10161 10158 ] final -132.56 input  -65.29 | X-H torsion
[ 10718 10713 10712 10709 ] final  172.87 input   66.30 | X-H torsion
[ 10763 10752 10751 10750 ] final   98.91 input  -60.55 | X-H torsion
[ 11005 11000 10999 10996 ] final   91.26 input  -57.11 | X-H torsion

> <Gold.Protein.ActiveResidues>
 VAL166  LYS551  ARG553  GLY616  TRP617  ASP618  TYR619  PRO620  LYS621  CYS622 
 ASP623  PHE694  ASN695  SER759  ASP760  ASP761  ALA762  ILE779  LEU786  VAL792 
 PHE793  MET794  SER795  GLU796  ALA797  LYS798  CYS799  TRP800  GLU811  SER814 

> <Gold.Protein.RotatedAtoms>
  152.5235  134.3354  159.9197 H   0  0  0  0  0  0  0  0  0  0  0  0  # atno 6907 bound_to 6896
  151.3303  133.3997  159.2669 H   0  0  0  0  0  0  0  0  0  0  0  0  # atno 6908 bound_to 6896
  150.9886  134.9243  159.7944 H   0  0  0  0  0  0  0  0  0  0  0  0  # atno 6909 bound_to 6896
  145.1686  140.8914  143.3548 H   0  0  0  0  0  0  0  0  0  0  0  0  # atno 7974 bound_to 7965
  156.0107  140.3350  155.6938 H   0  0  0  0  0  0  0  0  0  0  0  0  # atno 8008 bound_to 7997
  155.6161  140.0670  157.2709 H   0  0  0  0  0  0  0  0  0  0  0  0  # atno 8009 bound_to 7997
  154.4280  140.1785  156.1311 H   0  0  0  0  0  0  0  0  0  0  0  0  # atno 8010 bound_to 7997
  139.9073  143.6536  152.2583 H   0  0  0  0  0  0  0  0  0  0  0  0  # atno 10167 bound_to 10162
  156.9727  131.0095  151.2901 H   0  0  0  0  0  0  0  0  0  0  0  0  # atno 10718 bound_to 10713
  153.2948  135.4132  155.1200 H   0  0  0  0  0  0  0  0  0  0  0  0  # atno 10763 bound_to 10752
  154.8531  135.3527  154.5931 H   0  0  0  0  0  0  0  0  0  0  0  0  # atno 10764 bound_to 10752
  153.6355  135.7059  153.5318 H   0  0  0  0  0  0  0  0  0  0  0  0  # atno 10765 bound_to 10752
  139.8842  134.8663  156.3402 H   0  0  0  0  0  0  0  0  0  0  0  0  # atno 11005 bound_to 11000
  145.0256  139.3386  143.6050 LP  0  0  0  0  0  0  0  0  0  0  0  0  # atno 17320 bound_to 7965
  146.3472  139.9573  142.8721 LP  0  0  0  0  0  0  0  0  0  0  0  0  # atno 17321 bound_to 7965
  139.6973  144.7639  151.1334 LP  0  0  0  0  0  0  0  0  0  0  0  0  # atno 17342 bound_to 10162
  140.7693  143.5506  150.9209 LP  0  0  0  0  0  0  0  0  0  0  0  0  # atno 17343 bound_to 10162
  157.5581  130.8227  149.8231 LP  0  0  0  0  0  0  0  0  0  0  0  0  # atno 17370 bound_to 10713
  156.0276  130.3774  150.1778 LP  0  0  0  0  0  0  0  0  0  0  0  0  # atno 17371 bound_to 10713
  140.9664  133.7356  156.0472 LP  0  0  0  0  0  0  0  0  0  0  0  0  # atno 17394 bound_to 11000
  140.7926  134.3600  157.5460 LP  0  0  0  0  0  0  0  0  0  0  0  0  # atno 17395 bound_to 11000

$$$$
