AV-unprocessed.smi:758|AV-procd|sdf|3618|dock1
  -GOLD-   22720 1 13D 1   1.00000     0.00000
 Structure written by MMmdl.
 47 48  0  0  0  0  0  0  0  0  1 V2000
  150.9068  142.9320  156.6375 C   0  0  0  0  0  0  0  0  0  0  0  0
  150.6046  141.4879  157.0946 C   0  0  0  0  0  0  0  0  0  0  0  0
  151.2724  141.2627  158.4695 C   0  0  0  0  0  0  0  0  0  0  0  0
  149.0807  141.3542  157.3120 C   0  0  0  0  0  0  0  0  0  0  0  0
  151.1029  140.4185  156.0602 C   0  0  2  0  0  0  0  0  0  0  0  0
  149.9855  139.8374  155.1545 C   0  0  0  0  0  0  0  0  0  0  0  0
  150.5288  138.8366  154.1171 C   0  0  0  0  0  0  0  0  0  0  0  0
  151.3346  137.6857  154.7569 C   0  0  2  0  0  0  0  0  0  0  0  0
  151.9398  136.9828  153.6878 O   0  0  0  0  0  0  0  0  0  0  0  0
  150.4095  136.6735  155.4835 C   0  0  0  0  0  0  0  0  0  0  0  0
  149.9728  135.5835  154.6131 N   0  0  0  0  0  0  0  0  0  0  0  0
  150.0190  134.2736  154.9048 C   0  0  0  0  0  0  0  0  0  0  0  0
  150.4341  133.8252  155.9730 O   0  0  0  0  0  0  0  0  0  0  0  0
  149.5280  133.3172  153.8172 C   0  0  0  0  0  0  0  0  0  0  0  0
  148.1364  133.5654  153.4874 N   0  0  0  0  0  0  0  0  0  0  0  0
  147.3514  133.0129  152.5604 C   0  0  0  0  0  0  0  0  0  0  0  0
  146.1185  133.4994  152.5431 N   0  0  0  0  0  0  0  0  0  0  0  0
  146.2191  134.4109  153.5561 C   0  0  0  0  0  0  0  0  0  0  0  0
  147.4072  134.4903  154.1552 N   0  0  0  0  0  0  0  0  0  0  0  0
  152.4569  138.2857  155.6329 C   0  0  0  0  0  0  0  0  0  0  0  0
  151.9088  139.2544  156.6933 C   0  0  0  0  0  0  0  0  0  0  0  0
  150.5653  143.6550  157.3791 H   0  0  0  0  0  0  0  0  0  0  0  0
  150.4044  143.1796  155.7028 H   0  0  0  0  0  0  0  0  0  0  0  0
  151.9736  143.1024  156.4962 H   0  0  0  0  0  0  0  0  0  0  0  0
  152.3391  141.4847  158.4502 H   0  0  0  0  0  0  0  0  0  0  0  0
  151.1506  140.2333  158.8086 H   0  0  0  0  0  0  0  0  0  0  0  0
  150.8384  141.9099  159.2326 H   0  0  0  0  0  0  0  0  0  0  0  0
  148.7356  142.0089  158.1132 H   0  0  0  0  0  0  0  0  0  0  0  0
  148.8043  140.3350  157.5847 H   0  0  0  0  0  0  0  0  0  0  0  0
  148.5100  141.6284  156.4255 H   0  0  0  0  0  0  0  0  0  0  0  0
  151.7919  140.9382  155.3922 H   0  0  0  0  0  0  0  0  0  0  0  0
  149.2166  139.3571  155.7577 H   0  0  0  0  0  0  0  0  0  0  0  0
  149.4836  140.6331  154.6061 H   0  0  0  0  0  0  0  0  0  0  0  0
  149.7050  138.4386  153.5233 H   0  0  0  0  0  0  0  0  0  0  0  0
  151.1657  139.3826  153.4187 H   0  0  0  0  0  0  0  0  0  0  0  0
  151.2697  136.7544  153.0617 H   0  0  0  0  0  0  0  0  0  0  0  0
  150.9106  136.2678  156.3620 H   0  0  0  0  0  0  0  0  0  0  0  0
  149.5223  137.1797  155.8660 H   0  0  0  0  0  0  0  0  0  0  0  0
  149.6240  135.8508  153.7040 H   0  0  0  0  0  0  0  0  0  0  0  0
  150.1317  133.4329  152.9160 H   0  0  0  0  0  0  0  0  0  0  0  0
  149.6415  132.2837  154.1487 H   0  0  0  0  0  0  0  0  0  0  0  0
  147.6889  132.2416  151.8836 H   0  0  0  0  0  0  0  0  0  0  0  0
  145.3918  135.0350  153.8611 H   0  0  0  0  0  0  0  0  0  0  0  0
  153.0463  137.5034  156.1112 H   0  0  0  0  0  0  0  0  0  0  0  0
  153.1579  138.8311  154.9993 H   0  0  0  0  0  0  0  0  0  0  0  0
  152.7549  139.6330  157.2642 H   0  0  0  0  0  0  0  0  0  0  0  0
  151.2890  138.7000  157.3964 H   0  0  0  0  0  0  0  0  0  0  0  0
  1  2  1  0  0  0  0
  1 22  1  0  0  0  0
  1 23  1  0  0  0  0
  1 24  1  0  0  0  0
  2  3  1  0  0  0  0
  2  4  1  0  0  0  0
  2  5  1  0  0  0  0
  3 25  1  0  0  0  0
  3 26  1  0  0  0  0
  3 27  1  0  0  0  0
  4 28  1  0  0  0  0
  4 29  1  0  0  0  0
  4 30  1  0  0  0  0
  5 21  1  0  0  0  0
  5  6  1  0  0  0  0
  5 31  1  0  0  0  0
  6  7  1  0  0  0  0
  6 32  1  0  0  0  0
  6 33  1  0  0  0  0
  7  8  1  0  0  0  0
  7 34  1  0  0  0  0
  7 35  1  0  0  0  0
  8  9  1  0  0  0  0
  8 10  1  0  0  0  0
  8 20  1  0  0  0  0
  9 36  1  0  0  0  0
 10 11  1  0  0  0  0
 10 37  1  0  0  0  0
 10 38  1  0  0  0  0
 11 12  1  0  0  0  0
 11 39  1  0  0  0  0
 12 13  2  0  0  0  0
 12 14  1  0  0  0  0
 14 15  1  0  0  0  0
 14 40  1  0  0  0  0
 14 41  1  0  0  0  0
 15 19  1  0  0  0  0
 15 16  1  0  0  0  0
 16 17  2  0  0  0  0
 16 42  1  0  0  0  0
 17 18  1  0  0  0  0
 18 19  2  0  0  0  0
 18 43  1  0  0  0  0
 20 21  1  0  0  0  0
 20 44  1  0  0  0  0
 20 45  1  0  0  0  0
 21 46  1  0  0  0  0
 21 47  1  0  0  0  0
M  END
> <s_m_source_file>
AV-unprocessed.smi

> <i_m_source_file_index>
758

> <i_lp_mmshare_version>
43012

> <i_f3d_flags>
0

> <s_epik_input>
W0NIM11DKFtDSDNdKShbQ0gzXSlbQ0BASF0oW0NIMl1bQ0gyXTEpW0NIMl1bQ0gyXVtDQEBdMShbT0hdKVtDSDJdW05IXUMoPU8pW0NIMl1uMltjSF1uW2NIXW4y

> <s_epik_cmdline>
J2VwaWtfcHl0aG9uJywgJy1waCcsICc3LjAnLCAnLXRuJywgJzgnLCAnLW1hJywgJzIwMCcsICctbWV0YWxfYmluZGluZycsICctaW1hZScsICc8aW5maWxlLm1hZT4nLCAnLW9tYWUnLCAnPG91dGZpbGUubWFlPic=

> <r_lp_tautomer_probability>
1

> <r_epik_Ionization_Penalty>
1.04836e-05

> <r_epik_Ionization_Penalty_Charging>
0

> <r_epik_Ionization_Penalty_Neutral>
1.04836e-05

> <r_epik_State_Penalty>
-0

> <r_epik_Charging_Adjusted_Penalty>
0

> <i_epik_Tot_Q>
0

> <i_epik_Tot_abs_Q>
0

> <r_epik_Metal_State_Penalty>
-0

> <b_epik_Metal_Only>
0

> <s_lp_Force_Field>
OPLS_2005

> <r_lp_Energy>
24.1988

> <b_lp_Chiralities_Consistent>
1

> <s_lp_Variant>
AV-unprocessed.smi:758-2

> <Gold.Version>
5.8.1

> <Gold.Id.Protein>
6NUR|6NUR_protein|mol2

> <Gold.PLP.Fitness>
42.4713

> <Gold.PLP.PLP>
-36.1563

> <Gold.PLP.part.hbond>
-3.0000

> <Gold.PLP.part.metal>
0.0000

> <Gold.PLP.part.buried>
-3.6724

> <Gold.PLP.part.nonpolar>
-30.4359

> <Gold.PLP.part.repulsive>
0.2694

> <Gold.PLP.ligand.clash>
0.0000

> <Gold.PLP.ligand.torsion>
2.6253

> <Gold.PLP.Chemscore.Hbond>
2.8160

> <Gold.PLP.Chemscore.CHOScore>
1.0000

> <Gold.PLP.Chemscore.Metal>
0.0000

> <Gold.Chemscore.Hbonds>
donor molecule, donor type, donor heavy atom, donor atom, acceptor molecule, acceptor atom, score
      L1  H     9    36       P1  7949  0.75
      L1  H    11    39       P1  7948  1.00
      P1  H 10752 10764       L1     9  1.00
      L1  C    16    42       P1 10747  1.00

> <Gold.PLP.Chemscore.Internal.Correction>
0.1176

> <Gold.Rescore>
     Score         DG    S(hbond)    S(metal)    S(lipo)     H(rot)  DE(clash)    DE(int)     intcor
      9.40     -13.71       2.09        0.00      79.97       3.17       0.50       3.81       ----

> <Gold.Chemscore.Fitness>
9.3989

> <Gold.Chemscore.DG>
-13.7119

> <Gold.Chemscore.ZeroCoef>
-5.4800

> <Gold.Chemscore.Hbond>
2.0900

> <Gold.Chemscore.Metal>
0.0000

> <Gold.Chemscore.Lipo>
79.9725

> <Gold.Chemscore.Internal_Hbond>
0.0000

> <Gold.Chemscore.DEClash>
0.5023

> <Gold.Chemscore.DEInternal>
3.8107

> <Gold.Chemscore.Rot>
3.1663

> <Gold.Chemscore.Internal.Correction>
   9.000000E+99

> <Gold.Chemscore.Hbonds>
donor molecule, donor type, donor heavy atom, donor atom, acceptor molecule, acceptor atom, score
      L1  H     9    36       P1  7949  0.49
      L1  H    11    39       P1  7948  0.25
      P1  H 10752 10764       L1     9  0.81

> <Gold.Chemscore.Hbond.Weighted>
-6.9807

> <Gold.Chemscore.Metal.Weighted>
-0.0000

> <Gold.Chemscore.Lipo.Weighted>
-9.3568

> <Gold.Chemscore.Internal_Hbond.Weighted>
0.0000

> <Gold.Chemscore.DEClash.Weighted>
0.5023

> <Gold.Chemscore.DEInternal.Weighted>
3.8107

> <Gold.Chemscore.Rot.Weighted>
8.1056

> <Gold.Chemscore.Internal.Correction.Weighted>
   9.000000E+99

> <Gold.Protein.RotatedTorsions>
[ 6907 6896 6895 6894 ] final  -35.35 input  -60.11 | X-H torsion
[ 7974 7965 7964 7962 ] final  -98.16 input  175.53 | X-H torsion
[ 8008 7997 7996 7995 ] final -152.67 input   59.86 | X-H torsion
[ 10167 10162 10161 10158 ] final   -8.82 input  -65.29 | X-H torsion
[ 10718 10713 10712 10709 ] final  -24.70 input   66.30 | X-H torsion
[ 10763 10752 10751 10750 ] final -102.50 input  -60.55 | X-H torsion
[ 11005 11000 10999 10996 ] final  142.98 input  -57.11 | X-H torsion

> <Gold.Protein.ActiveResidues>
 VAL166  LYS551  ARG553  GLY616  TRP617  ASP618  TYR619  PRO620  LYS621  CYS622 
 ASP623  PHE694  ASN695  SER759  ASP760  ASP761  ALA762  ILE779  LEU786  VAL792 
 PHE793  MET794  SER795  GLU796  ALA797  LYS798  CYS799  TRP800  GLU811  SER814 

> <Gold.Protein.RotatedAtoms>
  151.0409  134.9606  159.8160 H   0  0  0  0  0  0  0  0  0  0  0  0  # atno 6907 bound_to 6896
  152.5364  134.2659  159.8963 H   0  0  0  0  0  0  0  0  0  0  0  0  # atno 6908 bound_to 6896
  151.2672  133.4230  159.2653 H   0  0  0  0  0  0  0  0  0  0  0  0  # atno 6909 bound_to 6896
  145.3242  140.9428  143.2698 H   0  0  0  0  0  0  0  0  0  0  0  0  # atno 7974 bound_to 7965
  155.6587  140.0720  157.2561 H   0  0  0  0  0  0  0  0  0  0  0  0  # atno 8008 bound_to 7997
  154.4147  140.1720  156.1804 H   0  0  0  0  0  0  0  0  0  0  0  0  # atno 8009 bound_to 7997
  155.9715  140.3361  155.6583 H   0  0  0  0  0  0  0  0  0  0  0  0  # atno 8010 bound_to 7997
  140.7070  143.5926  150.8878 H   0  0  0  0  0  0  0  0  0  0  0  0  # atno 10167 bound_to 10162
  156.4742  130.4531  149.6851 H   0  0  0  0  0  0  0  0  0  0  0  0  # atno 10718 bound_to 10713
  154.7738  135.4858  153.9702 H   0  0  0  0  0  0  0  0  0  0  0  0  # atno 10763 bound_to 10752
  153.1402  135.6771  153.9047 H   0  0  0  0  0  0  0  0  0  0  0  0  # atno 10764 bound_to 10752
  153.8723  135.3142  155.3421 H   0  0  0  0  0  0  0  0  0  0  0  0  # atno 10765 bound_to 10752
  140.0518  134.9251  157.1030 H   0  0  0  0  0  0  0  0  0  0  0  0  # atno 11005 bound_to 11000
  144.8915  139.4768  143.6675 LP  0  0  0  0  0  0  0  0  0  0  0  0  # atno 17320 bound_to 7965
  146.3070  139.7616  142.9048 LP  0  0  0  0  0  0  0  0  0  0  0  0  # atno 17321 bound_to 7965
  139.9651  143.6120  152.2991 LP  0  0  0  0  0  0  0  0  0  0  0  0  # atno 17342 bound_to 10162
  139.6686  144.7661  151.1825 LP  0  0  0  0  0  0  0  0  0  0  0  0  # atno 17343 bound_to 10162
  156.3588  130.7470  151.2440 LP  0  0  0  0  0  0  0  0  0  0  0  0  # atno 17370 bound_to 10713
  157.7489  131.0356  150.4372 LP  0  0  0  0  0  0  0  0  0  0  0  0  # atno 17371 bound_to 10713
  140.3905  134.2189  155.7166 LP  0  0  0  0  0  0  0  0  0  0  0  0  # atno 17394 bound_to 11000
  141.1934  133.8152  157.0801 LP  0  0  0  0  0  0  0  0  0  0  0  0  # atno 17395 bound_to 11000

$$$$
