AV-unprocessed.smi:3170|AV-procd|sdf|12109|dock4
  -GOLD-   2272017543D 1   1.00000     0.00000
 Structure written by MMmdl.
 35 36  0  0  0  0  0  0  0  0  1 V2000
  144.7600  137.4908  152.5938 O   0  0  0  0  0  0  0  0  0  0  0  0
  145.9314  137.1943  152.3583 C   0  0  0  0  0  0  0  0  0  0  0  0
  146.9223  138.0870  152.2318 N   0  0  0  0  0  0  0  0  0  0  0  0
  146.7870  139.5281  152.4226 C   0  0  0  0  0  0  0  0  0  0  0  0
  147.1124  139.9695  153.8639 C   0  0  0  0  0  0  0  0  0  0  0  0
  148.5172  139.8047  154.1887 N   0  0  0  0  0  0  0  0  0  0  0  0
  149.2626  138.6353  154.1252 C   0  0  0  0  0  0  0  0  0  0  0  0
  150.5367  138.9596  154.5342 C   0  0  0  0  0  0  0  0  0  0  0  0
  150.5975  140.3147  154.8512 N   0  0  0  0  0  0  0  0  0  0  0  0
  149.3658  140.7492  154.6184 C   0  0  0  0  0  0  0  0  0  0  0  0
  146.3783  135.9377  152.2325 N   0  0  0  0  0  0  0  0  0  0  0  0
  145.5686  134.7401  152.4274 C   0  0  0  0  0  0  0  0  0  0  0  0
  145.2803  134.0211  151.0949 C   0  0  2  0  0  0  0  0  0  0  0  0
  144.2687  132.8949  151.1838 C   0  0  0  0  0  0  0  0  0  0  0  0
  144.5580  132.1172  149.9043 C   0  0  0  0  0  0  0  0  0  0  0  0
  145.9553  132.2678  149.6688 O   0  0  0  0  0  0  0  0  0  0  0  0
  146.4870  133.2903  150.5073 C   0  0  0  0  0  0  0  0  0  0  0  0
  147.8511  137.7412  152.0392 H   0  0  0  0  0  0  0  0  0  0  0  0
  147.4579  140.0264  151.7224 H   0  0  0  0  0  0  0  0  0  0  0  0
  145.7759  139.8381  152.1548 H   0  0  0  0  0  0  0  0  0  0  0  0
  146.8509  141.0193  153.9990 H   0  0  0  0  0  0  0  0  0  0  0  0
  146.5171  139.4088  154.5856 H   0  0  0  0  0  0  0  0  0  0  0  0
  148.8362  137.6956  153.8067 H   0  0  0  0  0  0  0  0  0  0  0  0
  151.4073  138.3269  154.6255 H   0  0  0  0  0  0  0  0  0  0  0  0
  149.0710  141.7769  154.7732 H   0  0  0  0  0  0  0  0  0  0  0  0
  147.3587  135.7976  152.0368 H   0  0  0  0  0  0  0  0  0  0  0  0
  146.0664  134.0628  153.1234 H   0  0  0  0  0  0  0  0  0  0  0  0
  144.6344  135.0391  152.9035 H   0  0  0  0  0  0  0  0  0  0  0  0
  144.9276  134.7444  150.3575 H   0  0  0  0  0  0  0  0  0  0  0  0
  144.4683  132.2699  152.0556 H   0  0  0  0  0  0  0  0  0  0  0  0
  143.2374  133.2446  151.2421 H   0  0  0  0  0  0  0  0  0  0  0  0
  144.2754  131.0671  149.9803 H   0  0  0  0  0  0  0  0  0  0  0  0
  144.0158  132.5540  149.0645 H   0  0  0  0  0  0  0  0  0  0  0  0
  147.1465  133.9570  149.9511 H   0  0  0  0  0  0  0  0  0  0  0  0
  147.0740  132.8150  151.2945 H   0  0  0  0  0  0  0  0  0  0  0  0
  1  2  2  0  0  0  0
  2  3  1  0  0  0  0
  2 11  1  0  0  0  0
  3  4  1  0  0  0  0
  3 18  1  0  0  0  0
  4  5  1  0  0  0  0
  4 19  1  0  0  0  0
  4 20  1  0  0  0  0
  5  6  1  0  0  0  0
  5 21  1  0  0  0  0
  5 22  1  0  0  0  0
  6 10  1  0  0  0  0
  6  7  1  0  0  0  0
  7  8  2  0  0  0  0
  7 23  1  0  0  0  0
  8  9  1  0  0  0  0
  8 24  1  0  0  0  0
  9 10  2  0  0  0  0
 10 25  1  0  0  0  0
 11 12  1  0  0  0  0
 11 26  1  0  0  0  0
 12 13  1  0  0  0  0
 12 27  1  0  0  0  0
 12 28  1  0  0  0  0
 13 17  1  0  0  0  0
 13 14  1  0  0  0  0
 13 29  1  0  0  0  0
 14 15  1  0  0  0  0
 14 30  1  0  0  0  0
 14 31  1  0  0  0  0
 15 16  1  0  0  0  0
 15 32  1  0  0  0  0
 15 33  1  0  0  0  0
 16 17  1  0  0  0  0
 17 34  1  0  0  0  0
 17 35  1  0  0  0  0
M  END
> <s_m_source_file>
AV-unprocessed.smi

> <i_m_source_file_index>
3170

> <i_lp_mmshare_version>
43012

> <i_f3d_flags>
0

> <s_epik_input>
W0NIMl0xT1tDSDJdW0NIMl1bQ0BIXTFbQ0gyXVtOSF1DKD1PKVtOSF1bQ0gyXVtDSDJdbjJbY0hdW2NIXW5bY0hdMg==

> <s_epik_cmdline>
J2VwaWtfcHl0aG9uJywgJy1waCcsICc3LjAnLCAnLXRuJywgJzgnLCAnLW1hJywgJzIwMCcsICctbWV0YWxfYmluZGluZycsICctaW1hZScsICc8aW5maWxlLm1hZT4nLCAnLW9tYWUnLCAnPG91dGZpbGUubWFlPic=

> <r_lp_tautomer_probability>
1

> <r_epik_Ionization_Penalty>
0.621287

> <r_epik_Ionization_Penalty_Charging>
0.621234

> <r_epik_Ionization_Penalty_Neutral>
5.30999e-05

> <r_epik_State_Penalty>
0.637278

> <r_epik_Charging_Adjusted_Penalty>
1.25851

> <i_epik_Tot_Q>
0

> <i_epik_Tot_abs_Q>
0

> <r_epik_Metal_State_Penalty>
0.306756

> <b_epik_Metal_Only>
0

> <s_lp_Force_Field>
OPLS_2005

> <r_lp_Energy>
17.5777

> <b_lp_Chiralities_Consistent>
1

> <s_lp_Variant>
AV-unprocessed.smi:3170-3

> <Gold.Version>
5.8.1

> <Gold.Id.Protein>
6NUR|6NUR_protein|mol2

> <Gold.PLP.Fitness>
43.5837

> <Gold.PLP.PLP>
-32.2717

> <Gold.PLP.part.hbond>
-3.0000

> <Gold.PLP.part.metal>
0.0000

> <Gold.PLP.part.buried>
-3.3134

> <Gold.PLP.part.nonpolar>
-26.5831

> <Gold.PLP.part.repulsive>
0.6915

> <Gold.PLP.ligand.clash>
0.0000

> <Gold.PLP.ligand.torsion>
0.3305

> <Gold.PLP.Chemscore.Hbond>
2.9760

> <Gold.PLP.Chemscore.CHOScore>
1.0000

> <Gold.PLP.Chemscore.Metal>
0.0000

> <Gold.Chemscore.Hbonds>
donor molecule, donor type, donor heavy atom, donor atom, acceptor molecule, acceptor atom, score
      L1  H     3    18       P1  7948  0.94
      L1  H    11    26       P1  7948  1.00
      P1  H  7989  7998       L1     9  0.95
      L1  C     7    23       P1  7948  1.00

> <Gold.PLP.Chemscore.Internal.Correction>
0.0450

> <Gold.Rescore>
     Score         DG    S(hbond)    S(metal)    S(lipo)     H(rot)  DE(clash)    DE(int)     intcor
     14.66     -15.13       2.39        0.00      63.44       2.25       0.17       0.30       ----

> <Gold.Chemscore.Fitness>
14.6603

> <Gold.Chemscore.DG>
-15.1308

> <Gold.Chemscore.ZeroCoef>
-5.4800

> <Gold.Chemscore.Hbond>
2.3897

> <Gold.Chemscore.Metal>
0.0000

> <Gold.Chemscore.Lipo>
63.4397

> <Gold.Chemscore.Internal_Hbond>
0.0000

> <Gold.Chemscore.DEClash>
0.1718

> <Gold.Chemscore.DEInternal>
0.2987

> <Gold.Chemscore.Rot>
2.2474

> <Gold.Chemscore.Internal.Correction>
   9.000000E+99

> <Gold.Chemscore.Hbonds>
donor molecule, donor type, donor heavy atom, donor atom, acceptor molecule, acceptor atom, score
      L1  H     3    18       P1  7948  0.91
      L1  H    11    26       P1  7948  0.99
      P1  H  7989  7998       L1     9  0.13

> <Gold.Chemscore.Hbond.Weighted>
-7.9816

> <Gold.Chemscore.Metal.Weighted>
-0.0000

> <Gold.Chemscore.Lipo.Weighted>
-7.4224

> <Gold.Chemscore.Internal_Hbond.Weighted>
0.0000

> <Gold.Chemscore.DEClash.Weighted>
0.1718

> <Gold.Chemscore.DEInternal.Weighted>
0.2987

> <Gold.Chemscore.Rot.Weighted>
5.7532

> <Gold.Chemscore.Internal.Correction.Weighted>
   9.000000E+99

> <Gold.Protein.RotatedTorsions>
[ 6907 6896 6895 6894 ] final  153.74 input  -60.11 | X-H torsion
[ 7974 7965 7964 7962 ] final  104.35 input  175.53 | X-H torsion
[ 8008 7997 7996 7995 ] final   80.80 input   59.86 | X-H torsion
[ 10167 10162 10161 10158 ] final   37.76 input  -65.29 | X-H torsion
[ 10718 10713 10712 10709 ] final   84.71 input   66.30 | X-H torsion
[ 10763 10752 10751 10750 ] final  -26.62 input  -60.55 | X-H torsion
[ 11005 11000 10999 10996 ] final  155.86 input  -57.11 | X-H torsion

> <Gold.Protein.ActiveResidues>
 VAL166  LYS551  ARG553  GLY616  TRP617  ASP618  TYR619  PRO620  LYS621  CYS622 
 ASP623  PHE694  ASN695  SER759  ASP760  ASP761  ALA762  ILE779  LEU786  VAL792 
 PHE793  MET794  SER795  GLU796  ALA797  LYS798  CYS799  TRP800  GLU811  SER814 

> <Gold.Protein.RotatedAtoms>
  152.0684  133.4095  159.4447 H   0  0  0  0  0  0  0  0  0  0  0  0  # atno 6907 bound_to 6896
  150.6864  134.3120  159.4759 H   0  0  0  0  0  0  0  0  0  0  0  0  # atno 6908 bound_to 6896
  152.0949  134.9381  160.0621 H   0  0  0  0  0  0  0  0  0  0  0  0  # atno 6909 bound_to 6896
  145.3339  139.2479  143.3646 H   0  0  0  0  0  0  0  0  0  0  0  0  # atno 7974 bound_to 7965
  155.8885  140.3440  155.5939 H   0  0  0  0  0  0  0  0  0  0  0  0  # atno 8008 bound_to 7997
  155.7638  140.0836  157.2161 H   0  0  0  0  0  0  0  0  0  0  0  0  # atno 8009 bound_to 7997
  154.4031  140.1531  156.2850 H   0  0  0  0  0  0  0  0  0  0  0  0  # atno 8010 bound_to 7997
  140.4002  144.1734  150.6133 H   0  0  0  0  0  0  0  0  0  0  0  0  # atno 10167 bound_to 10162
  157.6903  131.0144  150.2713 H   0  0  0  0  0  0  0  0  0  0  0  0  # atno 10718 bound_to 10713
  153.7188  135.6946  153.5018 H   0  0  0  0  0  0  0  0  0  0  0  0  # atno 10763 bound_to 10752
  153.2219  135.4367  155.0497 H   0  0  0  0  0  0  0  0  0  0  0  0  # atno 10764 bound_to 10752
  154.8291  135.3462  154.6722 H   0  0  0  0  0  0  0  0  0  0  0  0  # atno 10765 bound_to 10752
  140.1620  134.8602  157.2586 H   0  0  0  0  0  0  0  0  0  0  0  0  # atno 11005 bound_to 11000
  146.3034  140.3922  142.8696 LP  0  0  0  0  0  0  0  0  0  0  0  0  # atno 17320 bound_to 7965
  144.8843  140.7441  143.5967 LP  0  0  0  0  0  0  0  0  0  0  0  0  # atno 17321 bound_to 7965
  140.4748  143.2400  151.9039 LP  0  0  0  0  0  0  0  0  0  0  0  0  # atno 17342 bound_to 10162
  139.4785  144.5332  151.8636 LP  0  0  0  0  0  0  0  0  0  0  0  0  # atno 17343 bound_to 10162
  156.3275  130.3795  149.7520 LP  0  0  0  0  0  0  0  0  0  0  0  0  # atno 17370 bound_to 10713
  156.5070  130.8155  151.3154 LP  0  0  0  0  0  0  0  0  0  0  0  0  # atno 17371 bound_to 10713
  140.2478  134.3719  155.7454 LP  0  0  0  0  0  0  0  0  0  0  0  0  # atno 17394 bound_to 11000
  141.2210  133.7300  156.8888 LP  0  0  0  0  0  0  0  0  0  0  0  0  # atno 17395 bound_to 11000

$$$$
