AV-unprocessed.smi:2772|AV-procd|sdf|10668|dock6
  -GOLD-   2272015113D 1   1.00000     0.00000
 Structure written by MMmdl.
 54 56  0  0  0  0  0  0  0  0  2 V2000
  153.0945  142.9835  162.3353 C   0  0  0  0  0  0  0  0  0  0  0  0
  152.3450  143.0873  161.0234 C   0  0  0  0  0  0  0  0  0  0  0  0
  151.9063  144.3356  160.5360 C   0  0  0  0  0  0  0  0  0  0  0  0
  151.2108  144.3740  159.3123 C   0  0  0  0  0  0  0  0  0  0  0  0
  150.9715  143.1606  158.6235 C   0  0  0  0  0  0  0  0  0  0  0  0
  150.2986  143.0728  157.3753 N   0  0  0  0  0  0  0  0  0  0  0  0
  149.6488  142.0191  156.8523 C   0  0  0  0  0  0  0  0  0  0  0  0
  149.5504  140.9106  157.3786 O   0  0  0  0  0  0  0  0  0  0  0  0
  149.1261  142.3184  155.6547 N   0  0  0  0  0  0  0  0  0  0  0  0
  148.3769  141.3935  154.8094 C   0  0  0  0  0  0  0  0  0  0  0  0
  147.0066  141.1099  155.4289 C   0  0  0  0  0  0  0  0  0  0  0  0
  146.2388  140.0501  154.6200 C   0  0  0  0  0  0  0  0  0  0  0  0
  146.9754  138.7764  154.5404 N   0  0  0  0  0  0  0  0  0  0  0  0
  146.2009  137.7397  153.8199 C   0  0  2  0  0  0  0  0  0  0  0  0
  146.7643  136.3154  154.0806 C   0  0  0  0  0  0  0  0  0  0  0  0
  146.0710  135.2332  153.2378 C   0  0  0  0  0  0  0  0  0  0  0  0
  146.1593  135.5441  151.7944 N   0  3  1  0  0  0  0  0  0  0  0  0
  145.6266  134.4547  150.9482 C   0  0  0  0  0  0  0  0  0  0  0  0
  145.5375  136.8523  151.4937 C   0  0  0  0  0  0  0  0  0  0  0  0
  146.2159  137.9820  152.2852 C   0  0  0  0  0  0  0  0  0  0  0  0
  148.2653  139.0399  153.8788 C   0  0  0  0  0  0  0  0  0  0  0  0
  149.1157  140.0586  154.6569 C   0  0  0  0  0  0  0  0  0  0  0  0
  151.4704  141.9708  159.1942 C   0  0  0  0  0  0  0  0  0  0  0  0
  152.1373  141.9253  160.3672 N   0  0  0  0  0  0  0  0  0  0  0  0
  153.1837  143.9570  162.8184 H   0  0  0  0  0  0  0  0  0  0  0  0
  154.0987  142.5933  162.1684 H   0  0  0  0  0  0  0  0  0  0  0  0
  152.5734  142.3124  163.0187 H   0  0  0  0  0  0  0  0  0  0  0  0
  152.0998  145.2468  161.0827 H   0  0  0  0  0  0  0  0  0  0  0  0
  150.8898  145.3275  158.9224 H   0  0  0  0  0  0  0  0  0  0  0  0
  150.3704  143.8892  156.7859 H   0  0  0  0  0  0  0  0  0  0  0  0
  149.2604  143.2531  155.2981 H   0  0  0  0  0  0  0  0  0  0  0  0
  148.2286  141.8417  153.8249 H   0  0  0  0  0  0  0  0  0  0  0  0
  147.1233  140.7642  156.4575 H   0  0  0  0  0  0  0  0  0  0  0  0
  146.4224  142.0296  155.4764 H   0  0  0  0  0  0  0  0  0  0  0  0
  145.2862  139.9208  155.1278 H   0  0  0  0  0  0  0  0  0  0  0  0
  146.0222  140.4209  153.6169 H   0  0  0  0  0  0  0  0  0  0  0  0
  145.1674  137.7728  154.1689 H   0  0  0  0  0  0  0  0  0  0  0  0
  147.8368  136.2988  153.8798 H   0  0  0  0  0  0  0  0  0  0  0  0
  146.6339  136.0206  155.1205 H   0  0  0  0  0  0  0  0  0  0  0  0
  146.5397  134.2676  153.4324 H   0  0  0  0  0  0  0  0  0  0  0  0
  145.0236  135.1420  153.5305 H   0  0  0  0  0  0  0  0  0  0  0  0
  144.5624  134.3001  151.1314 H   0  0  0  0  0  0  0  0  0  0  0  0
  146.1483  133.5190  151.1524 H   0  0  0  0  0  0  0  0  0  0  0  0
  145.7622  134.6858  149.8913 H   0  0  0  0  0  0  0  0  0  0  0  0
  145.6204  137.0585  150.4258 H   0  0  0  0  0  0  0  0  0  0  0  0
  144.4722  136.8158  151.7273 H   0  0  0  0  0  0  0  0  0  0  0  0
  145.6904  138.8976  152.0201 H   0  0  0  0  0  0  0  0  0  0  0  0
  147.2443  138.0990  151.9395 H   0  0  0  0  0  0  0  0  0  0  0  0
  148.8663  138.1362  153.8135 H   0  0  0  0  0  0  0  0  0  0  0  0
  148.0972  139.3882  152.8584 H   0  0  0  0  0  0  0  0  0  0  0  0
  150.0633  140.2110  154.1389 H   0  0  0  0  0  0  0  0  0  0  0  0
  149.3624  139.6510  155.6387 H   0  0  0  0  0  0  0  0  0  0  0  0
  151.3262  141.0223  158.6979 H   0  0  0  0  0  0  0  0  0  0  0  0
  147.1413  135.6288  151.5725 H   0  0  0  0  0  0  0  0  0  0  0  0
  1  2  1  0  0  0  0
  1 25  1  0  0  0  0
  1 26  1  0  0  0  0
  1 27  1  0  0  0  0
  2 24  1  0  0  0  0
  2  3  2  0  0  0  0
  3  4  1  0  0  0  0
  3 28  1  0  0  0  0
  4  5  2  0  0  0  0
  4 29  1  0  0  0  0
  5  6  1  0  0  0  0
  5 23  1  0  0  0  0
  6  7  1  0  0  0  0
  6 30  1  0  0  0  0
  7  8  2  0  0  0  0
  7  9  1  0  0  0  0
  9 10  1  0  0  0  0
  9 31  1  0  0  0  0
 10 22  1  0  0  0  0
 10 11  1  0  0  0  0
 10 32  1  0  0  0  0
 11 12  1  0  0  0  0
 11 33  1  0  0  0  0
 11 34  1  0  0  0  0
 12 13  1  0  0  0  0
 12 35  1  0  0  0  0
 12 36  1  0  0  0  0
 13 14  1  0  0  0  0
 13 21  1  0  0  0  0
 14 20  1  0  0  0  0
 14 15  1  0  0  0  0
 14 37  1  0  0  0  0
 15 16  1  0  0  0  0
 15 38  1  0  0  0  0
 15 39  1  0  0  0  0
 16 17  1  0  0  0  0
 16 40  1  0  0  0  0
 16 41  1  0  0  0  0
 17 18  1  0  0  0  0
 17 19  1  0  0  0  0
 17 54  1  0  0  0  0
 18 42  1  0  0  0  0
 18 43  1  0  0  0  0
 18 44  1  0  0  0  0
 19 20  1  0  0  0  0
 19 45  1  0  0  0  0
 19 46  1  0  0  0  0
 20 47  1  0  0  0  0
 20 48  1  0  0  0  0
 21 22  1  0  0  0  0
 21 49  1  0  0  0  0
 21 50  1  0  0  0  0
 22 51  1  0  0  0  0
 22 52  1  0  0  0  0
 23 24  2  0  0  0  0
 23 53  1  0  0  0  0
M  CHG  1  17   1
M  END
> <s_m_source_file>
AV-unprocessed.smi

> <i_m_source_file_index>
2772

> <i_lp_mmshare_version>
43012

> <i_f3d_flags>
0

> <s_epik_input>
W0NIM11jMVtjSF1bY0hdYyhbY0hdbjEpW05IXUMoPU8pW05IXVtDSF0yW0NIMl1bQ0gyXU4oW0NIMl1bQ0gyXTIpW0NIXTNbQ0gyXVtDSDJdTihbQ0gzXSlbQ0gyXVtDSDJdMw==

> <s_epik_cmdline>
J2VwaWtfcHl0aG9uJywgJy1waCcsICc3LjAnLCAnLXRuJywgJzgnLCAnLW1hJywgJzIwMCcsICctbWV0YWxfYmluZGluZycsICctaW1hZScsICc8aW5maWxlLm1hZT4nLCAnLW9tYWUnLCAnPG91dGZpbGUubWFlPic=

> <r_epik_Ionization_Penalty>
1.02952

> <r_epik_Ionization_Penalty_Charging>
0.000974969

> <r_epik_Ionization_Penalty_Neutral>
1.02854

> <r_epik_State_Penalty>
1.11259

> <r_epik_Charging_Adjusted_Penalty>
1.11356

> <i_epik_Tot_Q>
1

> <i_epik_Tot_abs_Q>
1

> <r_epik_Metal_State_Penalty>
1.1091

> <b_epik_Metal_Only>
0

> <s_lp_Force_Field>
OPLS_2005

> <r_lp_Energy>
33.5329

> <b_lp_Chiralities_Consistent>
1

> <s_lp_Variant>
AV-unprocessed.smi:2772-5

> <Gold.Version>
5.8.1

> <Gold.Id.Protein>
6NUR|6NUR_protein|mol2

> <Gold.PLP.Fitness>
48.4645

> <Gold.PLP.PLP>
-39.2515

> <Gold.PLP.part.hbond>
-2.7374

> <Gold.PLP.part.metal>
0.0000

> <Gold.PLP.part.buried>
-2.7554

> <Gold.PLP.part.nonpolar>
-33.9364

> <Gold.PLP.part.repulsive>
0.3560

> <Gold.PLP.ligand.clash>
0.0000

> <Gold.PLP.ligand.torsion>
0.4822

> <Gold.PLP.Chemscore.Hbond>
3.3920

> <Gold.PLP.Chemscore.CHOScore>
0.0000

> <Gold.PLP.Chemscore.Metal>
0.0000

> <Gold.Chemscore.Hbonds>
donor molecule, donor type, donor heavy atom, donor atom, acceptor molecule, acceptor atom, score
      L1  H     6    30       P1  8028  0.56
      L1  H     9    31       P1  8028  0.80
      L1  H    17    54       P1  7948  2.00

> <Gold.PLP.Chemscore.Internal.Correction>
0.0013

> <Gold.Rescore>
     Score         DG    S(hbond)    S(metal)    S(lipo)     H(rot)  DE(clash)    DE(int)     intcor
     20.60     -23.63       2.72        0.00     103.69       1.20       0.02       3.02       ----

> <Gold.Chemscore.Fitness>
20.5980

> <Gold.Chemscore.DG>
-23.6336

> <Gold.Chemscore.ZeroCoef>
-5.4800

> <Gold.Chemscore.Hbond>
2.7207

> <Gold.Chemscore.Metal>
0.0000

> <Gold.Chemscore.Lipo>
103.6892

> <Gold.Chemscore.Internal_Hbond>
0.0000

> <Gold.Chemscore.DEClash>
0.0155

> <Gold.Chemscore.DEInternal>
3.0201

> <Gold.Chemscore.Rot>
1.1974

> <Gold.Chemscore.Internal.Correction>
   9.000000E+99

> <Gold.Chemscore.Hbonds>
donor molecule, donor type, donor heavy atom, donor atom, acceptor molecule, acceptor atom, score
      L1  H     6    30       P1  8028  0.52
      L1  H     9    31       P1  8028  0.76
      L1  H    17    54       P1  7948  0.98

> <Gold.Chemscore.Hbond.Weighted>
-9.0872

> <Gold.Chemscore.Metal.Weighted>
-0.0000

> <Gold.Chemscore.Lipo.Weighted>
-12.1316

> <Gold.Chemscore.Internal_Hbond.Weighted>
0.0000

> <Gold.Chemscore.DEClash.Weighted>
0.0155

> <Gold.Chemscore.DEInternal.Weighted>
3.0201

> <Gold.Chemscore.Rot.Weighted>
3.0652

> <Gold.Chemscore.Internal.Correction.Weighted>
   9.000000E+99

> <Gold.Protein.RotatedTorsions>
[ 6907 6896 6895 6894 ] final  152.94 input  -60.11 | X-H torsion
[ 7974 7965 7964 7962 ] final   52.56 input  175.53 | X-H torsion
[ 8008 7997 7996 7995 ] final   40.42 input   59.86 | X-H torsion
[ 10167 10162 10161 10158 ] final  150.51 input  -65.29 | X-H torsion
[ 10718 10713 10712 10709 ] final -109.57 input   66.30 | X-H torsion
[ 10763 10752 10751 10750 ] final  -54.36 input  -60.55 | X-H torsion
[ 11005 11000 10999 10996 ] final   78.51 input  -57.11 | X-H torsion

> <Gold.Protein.ActiveResidues>
 VAL166  LYS551  ARG553  GLY616  TRP617  ASP618  TYR619  PRO620  LYS621  CYS622 
 ASP623  PHE694  ASN695  SER759  ASP760  ASP761  ALA762  ILE779  LEU786  VAL792 
 PHE793  MET794  SER795  GLU796  ALA797  LYS798  CYS799  TRP800  GLU811  SER814 

> <Gold.Protein.RotatedAtoms>
  152.0797  133.4147  159.4495 H   0  0  0  0  0  0  0  0  0  0  0  0  # atno 6907 bound_to 6896
  150.6862  134.2996  159.4710 H   0  0  0  0  0  0  0  0  0  0  0  0  # atno 6908 bound_to 6896
  152.0836  134.9454  160.0623 H   0  0  0  0  0  0  0  0  0  0  0  0  # atno 6909 bound_to 6896
  145.9801  139.4234  143.0137 H   0  0  0  0  0  0  0  0  0  0  0  0  # atno 7974 bound_to 7965
  155.2528  140.3353  155.4280 H   0  0  0  0  0  0  0  0  0  0  0  0  # atno 8008 bound_to 7997
  156.2208  140.1808  156.7524 H   0  0  0  0  0  0  0  0  0  0  0  0  # atno 8009 bound_to 7997
  154.5823  140.0651  156.9106 H   0  0  0  0  0  0  0  0  0  0  0  0  # atno 8010 bound_to 7997
  139.4849  144.5516  151.7391 H   0  0  0  0  0  0  0  0  0  0  0  0  # atno 10167 bound_to 10162
  156.0544  130.5771  150.8118 H   0  0  0  0  0  0  0  0  0  0  0  0  # atno 10718 bound_to 10713
  154.1737  135.6455  153.5016 H   0  0  0  0  0  0  0  0  0  0  0  0  # atno 10763 bound_to 10752
  153.0077  135.5389  154.6587 H   0  0  0  0  0  0  0  0  0  0  0  0  # atno 10764 bound_to 10752
  154.5932  135.2936  155.0585 H   0  0  0  0  0  0  0  0  0  0  0  0  # atno 10765 bound_to 10752
  139.9210  134.7769  156.1658 H   0  0  0  0  0  0  0  0  0  0  0  0  # atno 11005 bound_to 11000
  145.7782  140.9868  143.1113 LP  0  0  0  0  0  0  0  0  0  0  0  0  # atno 17320 bound_to 7965
  144.6859  139.9531  143.7478 LP  0  0  0  0  0  0  0  0  0  0  0  0  # atno 17321 bound_to 7965
  140.5071  144.1082  150.5985 LP  0  0  0  0  0  0  0  0  0  0  0  0  # atno 17342 bound_to 10162
  140.3995  143.2711  151.9965 LP  0  0  0  0  0  0  0  0  0  0  0  0  # atno 17343 bound_to 10162
  157.5501  131.0943  150.9708 LP  0  0  0  0  0  0  0  0  0  0  0  0  # atno 17370 bound_to 10713
  156.9970  130.5585  149.5308 LP  0  0  0  0  0  0  0  0  0  0  0  0  # atno 17371 bound_to 10713
  141.0730  133.6788  156.2179 LP  0  0  0  0  0  0  0  0  0  0  0  0  # atno 17394 bound_to 11000
  140.6475  134.5101  157.5575 LP  0  0  0  0  0  0  0  0  0  0  0  0  # atno 17395 bound_to 11000

$$$$
