AV-unprocessed.smi:2777|AV-procd|sdf|10708|dock3
  -GOLD-   2272015143D 1   1.00000     0.00000
 Structure written by MMmdl.
 31 32  0  0  0  0  0  0  0  0  1 V2000
  152.6033  143.8157  162.1703 C   0  0  0  0  0  0  0  0  0  0  0  0
  152.7555  142.7611  161.1501 N   0  0  0  0  0  0  0  0  0  0  0  0
  151.9982  142.8469  160.0112 C   0  0  0  0  0  0  0  0  0  0  0  0
  151.1959  143.7481  159.7660 O   0  0  0  0  0  0  0  0  0  0  0  0
  152.2217  141.7484  159.0653 C   0  0  0  0  0  0  0  0  0  0  0  0
  153.1037  140.7460  159.2971 C   0  0  0  0  0  0  0  0  0  0  0  0
  153.1287  139.8383  158.2445 N   0  0  0  0  0  0  0  0  0  0  0  0
  152.2300  140.3585  157.4080 C   0  0  0  0  0  0  0  0  0  0  0  0
  151.6415  141.4995  157.8212 N   0  0  0  0  0  0  0  0  0  0  0  0
  150.6343  142.2542  157.0905 C   0  0  0  0  0  0  0  0  0  0  0  0
  150.0034  141.4446  155.9389 C   0  0  2  0  0  0  0  0  0  0  0  0
  149.5183  142.3177  154.9364 O   0  0  0  0  0  0  0  0  0  0  0  0
  148.8564  140.5319  156.4126 C   0  0  0  0  0  0  0  0  0  0  0  0
  149.2942  139.6937  157.3524 F   0  0  0  0  0  0  0  0  0  0  0  0
  147.8884  141.2774  156.9456 F   0  0  0  0  0  0  0  0  0  0  0  0
  148.3472  139.8364  155.3949 F   0  0  0  0  0  0  0  0  0  0  0  0
  153.8408  140.7539  160.5068 N   0  0  0  0  0  0  0  0  0  0  0  0
  154.7865  139.6545  160.7201 C   0  0  0  0  0  0  0  0  0  0  0  0
  153.6659  141.7559  161.4307 C   0  0  0  0  0  0  0  0  0  0  0  0
  154.3065  141.7591  162.4854 O   0  0  0  0  0  0  0  0  0  0  0  0
  151.8789  144.5929  161.9247 H   0  0  0  0  0  0  0  0  0  0  0  0
  153.5551  144.3223  162.3387 H   0  0  0  0  0  0  0  0  0  0  0  0
  152.2818  143.3831  163.1190 H   0  0  0  0  0  0  0  0  0  0  0  0
  151.9917  139.8949  156.4620 H   0  0  0  0  0  0  0  0  0  0  0  0
  149.8591  142.5492  157.7986 H   0  0  0  0  0  0  0  0  0  0  0  0
  151.0695  143.1834  156.7257 H   0  0  0  0  0  0  0  0  0  0  0  0
  150.7753  140.8248  155.4807 H   0  0  0  0  0  0  0  0  0  0  0  0
  149.3965  143.1741  155.3163 H   0  0  0  0  0  0  0  0  0  0  0  0
  155.3244  139.6990  161.6674 H   0  0  0  0  0  0  0  0  0  0  0  0
  155.5321  139.6471  159.9242 H   0  0  0  0  0  0  0  0  0  0  0  0
  154.2590  138.7004  160.6924 H   0  0  0  0  0  0  0  0  0  0  0  0
  1  2  1  0  0  0  0
  1 21  1  0  0  0  0
  1 22  1  0  0  0  0
  1 23  1  0  0  0  0
  2 19  1  0  0  0  0
  2  3  1  0  0  0  0
  3  4  2  0  0  0  0
  3  5  1  0  0  0  0
  5  9  1  0  0  0  0
  5  6  2  0  0  0  0
  6  7  1  0  0  0  0
  6 17  1  0  0  0  0
  7  8  2  0  0  0  0
  8  9  1  0  0  0  0
  8 24  1  0  0  0  0
  9 10  1  0  0  0  0
 10 11  1  0  0  0  0
 10 25  1  0  0  0  0
 10 26  1  0  0  0  0
 11 12  1  0  0  0  0
 11 13  1  0  0  0  0
 11 27  1  0  0  0  0
 12 28  1  0  0  0  0
 13 14  1  0  0  0  0
 13 15  1  0  0  0  0
 13 16  1  0  0  0  0
 17 18  1  0  0  0  0
 17 19  1  0  0  0  0
 18 29  1  0  0  0  0
 18 30  1  0  0  0  0
 18 31  1  0  0  0  0
 19 20  2  0  0  0  0
M  END
> <s_m_source_file>
AV-unprocessed.smi

> <i_m_source_file_index>
2777

> <i_lp_mmshare_version>
43012

> <i_f3d_flags>
0

> <s_epik_input>
Tz1jMW4oW0NIM10pYyg9TyluKFtDSDNdKWMoYzEyKW5bY0hdbjJbQ0gyXVtDQEhdKFtPSF0pQyhGKShGKUY=

> <s_epik_cmdline>
J2VwaWtfcHl0aG9uJywgJy1waCcsICc3LjAnLCAnLXRuJywgJzgnLCAnLW1hJywgJzIwMCcsICctbWV0YWxfYmluZGluZycsICctaW1hZScsICc8aW5maWxlLm1hZT4nLCAnLW9tYWUnLCAnPG91dGZpbGUubWFlPic=

> <r_epik_Ionization_Penalty>
0.000551612

> <r_epik_Ionization_Penalty_Charging>
2.619e-09

> <r_epik_Ionization_Penalty_Neutral>
0.00055161

> <r_epik_State_Penalty>
0.000345115

> <r_epik_Charging_Adjusted_Penalty>
0.000345118

> <i_epik_Tot_Q>
0

> <i_epik_Tot_abs_Q>
0

> <r_epik_Metal_State_Penalty>
-0

> <b_epik_Metal_Only>
0

> <s_lp_Force_Field>
OPLS_2005

> <r_lp_Energy>
33.5503

> <b_lp_Chiralities_Consistent>
1

> <s_lp_Variant>
AV-unprocessed.smi:2777-1

> <Gold.Version>
5.8.1

> <Gold.Id.Protein>
6NUR|6NUR_protein|mol2

> <Gold.PLP.Fitness>
43.8547

> <Gold.PLP.PLP>
-38.7743

> <Gold.PLP.part.hbond>
-3.9043

> <Gold.PLP.part.metal>
0.0000

> <Gold.PLP.part.buried>
-4.5102

> <Gold.PLP.part.nonpolar>
-29.8400

> <Gold.PLP.part.repulsive>
0.0585

> <Gold.PLP.ligand.clash>
0.0000

> <Gold.PLP.ligand.torsion>
0.4672

> <Gold.PLP.Chemscore.Hbond>
2.0000

> <Gold.PLP.Chemscore.CHOScore>
0.0000

> <Gold.PLP.Chemscore.Metal>
0.0000

> <Gold.Chemscore.Hbonds>
donor molecule, donor type, donor heavy atom, donor atom, acceptor molecule, acceptor atom, score
      L1  H    12    28       P1  8028  1.00
      P1  H  7997  8009       L1     7  0.95

> <Gold.PLP.Chemscore.Internal.Correction>
0.0148

> <Gold.Rescore>
     Score         DG    S(hbond)    S(metal)    S(lipo)     H(rot)  DE(clash)    DE(int)     intcor
      9.62     -10.55       1.63        0.00      44.85       2.20       0.30       0.63       ----

> <Gold.Chemscore.Fitness>
9.6154

> <Gold.Chemscore.DG>
-10.5473

> <Gold.Chemscore.ZeroCoef>
-5.4800

> <Gold.Chemscore.Hbond>
1.6297

> <Gold.Chemscore.Metal>
0.0000

> <Gold.Chemscore.Lipo>
44.8549

> <Gold.Chemscore.Internal_Hbond>
0.0000

> <Gold.Chemscore.DEClash>
0.3028

> <Gold.Chemscore.DEInternal>
0.6291

> <Gold.Chemscore.Rot>
2.1969

> <Gold.Chemscore.Internal.Correction>
   9.000000E+99

> <Gold.Chemscore.Hbonds>
donor molecule, donor type, donor heavy atom, donor atom, acceptor molecule, acceptor atom, score
      L1  H    12    28       P1  8028  1.00
      P1  H  7997  8009       L1     7  0.17

> <Gold.Chemscore.Hbond.Weighted>
-5.4432

> <Gold.Chemscore.Metal.Weighted>
-0.0000

> <Gold.Chemscore.Lipo.Weighted>
-5.2480

> <Gold.Chemscore.Internal_Hbond.Weighted>
0.0000

> <Gold.Chemscore.DEClash.Weighted>
0.3028

> <Gold.Chemscore.DEInternal.Weighted>
0.6291

> <Gold.Chemscore.Rot.Weighted>
5.6239

> <Gold.Chemscore.Internal.Correction.Weighted>
   9.000000E+99

> <Gold.Protein.RotatedTorsions>
[ 6907 6896 6895 6894 ] final   93.83 input  -60.11 | X-H torsion
[ 7974 7965 7964 7962 ] final -125.21 input  175.53 | X-H torsion
[ 8008 7997 7996 7995 ] final  145.02 input   59.86 | X-H torsion
[ 10167 10162 10161 10158 ] final   -6.31 input  -65.29 | X-H torsion
[ 10718 10713 10712 10709 ] final -160.58 input   66.30 | X-H torsion
[ 10763 10752 10751 10750 ] final   46.65 input  -60.55 | X-H torsion
[ 11005 11000 10999 10996 ] final   99.77 input  -57.11 | X-H torsion

> <Gold.Protein.ActiveResidues>
 VAL166  LYS551  ARG553  GLY616  TRP617  ASP618  TYR619  PRO620  LYS621  CYS622 
 ASP623  PHE694  ASN695  SER759  ASP760  ASP761  ALA762  ILE779  LEU786  VAL792 
 PHE793  MET794  SER795  GLU796  ALA797  LYS798  CYS799  TRP800  GLU811  SER814 

> <Gold.Protein.RotatedAtoms>
  152.5451  134.1287  159.8429 H   0  0  0  0  0  0  0  0  0  0  0  0  # atno 6907 bound_to 6896
  151.1335  133.5013  159.2606 H   0  0  0  0  0  0  0  0  0  0  0  0  # atno 6908 bound_to 6896
  151.1650  135.0301  159.8781 H   0  0  0  0  0  0  0  0  0  0  0  0  # atno 6909 bound_to 6896
  144.9999  140.7811  143.4502 H   0  0  0  0  0  0  0  0  0  0  0  0  # atno 7974 bound_to 7965
  156.2894  140.2220  156.5147 H   0  0  0  0  0  0  0  0  0  0  0  0  # atno 8008 bound_to 7997
  154.7579  140.0475  157.0970 H   0  0  0  0  0  0  0  0  0  0  0  0  # atno 8009 bound_to 7997
  155.0028  140.3103  155.4864 H   0  0  0  0  0  0  0  0  0  0  0  0  # atno 8010 bound_to 7997
  140.6992  143.6209  150.8613 H   0  0  0  0  0  0  0  0  0  0  0  0  # atno 10167 bound_to 10162
  156.5842  130.8742  151.2873 H   0  0  0  0  0  0  0  0  0  0  0  0  # atno 10718 bound_to 10713
  152.9808  135.6001  154.3634 H   0  0  0  0  0  0  0  0  0  0  0  0  # atno 10763 bound_to 10752
  154.3313  135.2768  155.2472 H   0  0  0  0  0  0  0  0  0  0  0  0  # atno 10764 bound_to 10752
  154.4594  135.5969  153.6301 H   0  0  0  0  0  0  0  0  0  0  0  0  # atno 10765 bound_to 10752
  139.8770  134.9110  156.4656 H   0  0  0  0  0  0  0  0  0  0  0  0  # atno 11005 bound_to 11000
  145.2167  139.2178  143.5114 LP  0  0  0  0  0  0  0  0  0  0  0  0  # atno 17320 bound_to 7965
  146.3450  140.2017  142.8589 LP  0  0  0  0  0  0  0  0  0  0  0  0  # atno 17321 bound_to 7965
  139.9930  143.5826  152.2903 LP  0  0  0  0  0  0  0  0  0  0  0  0  # atno 17342 bound_to 10162
  139.6488  144.7659  151.2189 LP  0  0  0  0  0  0  0  0  0  0  0  0  # atno 17343 bound_to 10162
  157.7319  130.9707  150.1903 LP  0  0  0  0  0  0  0  0  0  0  0  0  # atno 17370 bound_to 10713
  156.2605  130.3710  149.8135 LP  0  0  0  0  0  0  0  0  0  0  0  0  # atno 17371 bound_to 10713
  140.8833  133.7902  155.9490 LP  0  0  0  0  0  0  0  0  0  0  0  0  # atno 17394 bound_to 11000
  140.8831  134.2587  157.5134 LP  0  0  0  0  0  0  0  0  0  0  0  0  # atno 17395 bound_to 11000

$$$$
