AV-unprocessed.smi:443|AV-procd|sdf|2585|dock2
  -GOLD-   2262022573D 1   1.00000     0.00000
 Structure written by MMmdl.
 48 49  0  0  0  0  0  0  0  0  1 V2000
  148.1364  140.5849  153.7355 C   0  0  0  0  0  0  0  0  0  0  0  0
  149.0201  139.4954  154.2804 C   0  0  0  0  0  0  0  0  0  0  0  0
  150.2409  139.8202  154.5514 N   0  0  0  0  0  0  0  0  0  0  0  0
  151.1432  138.8944  155.0362 N   0  0  0  0  0  0  0  0  0  0  0  0
  152.4983  139.4248  155.2377 C   0  0  0  0  0  0  0  0  0  0  0  0
  152.8405  139.6101  156.7331 C   0  0  2  0  0  0  0  0  0  0  0  0
  153.4295  138.4348  157.2495 O   0  0  0  0  0  0  0  0  0  0  0  0
  151.6516  140.0164  157.6234 C   0  0  0  0  0  0  0  0  0  0  0  0
  152.1191  140.7544  158.7464 O   0  0  0  0  0  0  0  0  0  0  0  0
  152.0688  142.1326  158.7088 C   0  0  0  0  0  0  0  0  0  0  0  0
  151.6676  142.8565  157.5560 C   0  0  0  0  0  0  0  0  0  0  0  0
  151.6187  144.2620  157.5676 C   0  0  0  0  0  0  0  0  0  0  0  0
  151.9707  144.9674  158.7296 C   0  0  0  0  0  0  0  0  0  0  0  0
  152.3750  144.2641  159.8775 C   0  0  0  0  0  0  0  0  0  0  0  0
  152.4305  142.8520  159.8798 C   0  0  0  0  0  0  0  0  0  0  0  0
  152.8914  142.1494  161.1590 C   0  0  0  0  0  0  0  0  0  0  0  0
  153.0823  143.1195  162.3385 C   0  0  0  0  0  0  0  0  0  0  0  0
  154.1232  141.2602  160.9293 C   0  0  0  0  0  0  0  0  0  0  0  0
  150.8518  137.5871  155.2905 C   0  0  0  0  0  0  0  0  0  0  0  0
  151.6898  136.7930  155.7203 O   0  0  0  0  0  0  0  0  0  0  0  0
  149.4630  137.2275  154.9947 C   0  0  0  0  0  0  0  0  0  0  0  0
  149.1155  135.8661  155.2465 C   0  0  0  0  0  0  0  0  0  0  0  0
  148.8437  134.7565  155.4336 N   0  0  0  0  0  0  0  0  0  0  0  0
  148.5701  138.1263  154.5090 C   0  0  0  0  0  0  0  0  0  0  0  0
  147.1198  137.8019  154.1781 C   0  0  0  0  0  0  0  0  0  0  0  0
  147.3104  140.7905  154.4163 H   0  0  0  0  0  0  0  0  0  0  0  0
  147.7179  140.2983  152.7707 H   0  0  0  0  0  0  0  0  0  0  0  0
  148.6837  141.5171  153.5893 H   0  0  0  0  0  0  0  0  0  0  0  0
  153.2311  138.7654  154.7699 H   0  0  0  0  0  0  0  0  0  0  0  0
  152.6031  140.3762  154.7129 H   0  0  0  0  0  0  0  0  0  0  0  0
  153.6025  140.3848  156.8248 H   0  0  0  0  0  0  0  0  0  0  0  0
  153.4184  137.7724  156.5757 H   0  0  0  0  0  0  0  0  0  0  0  0
  150.9240  140.5952  157.0521 H   0  0  0  0  0  0  0  0  0  0  0  0
  151.1545  139.1083  157.9670 H   0  0  0  0  0  0  0  0  0  0  0  0
  151.3872  142.3572  156.6414 H   0  0  0  0  0  0  0  0  0  0  0  0
  151.3097  144.7994  156.6830 H   0  0  0  0  0  0  0  0  0  0  0  0
  151.9328  146.0468  158.7409 H   0  0  0  0  0  0  0  0  0  0  0  0
  152.6460  144.8217  160.7620 H   0  0  0  0  0  0  0  0  0  0  0  0
  152.0883  141.4750  161.4592 H   0  0  0  0  0  0  0  0  0  0  0  0
  152.1758  143.6985  162.5168 H   0  0  0  0  0  0  0  0  0  0  0  0
  153.8989  143.8215  162.1751 H   0  0  0  0  0  0  0  0  0  0  0  0
  153.3071  142.5741  163.2553 H   0  0  0  0  0  0  0  0  0  0  0  0
  153.9334  140.5242  160.1480 H   0  0  0  0  0  0  0  0  0  0  0  0
  154.3840  140.7144  161.8364 H   0  0  0  0  0  0  0  0  0  0  0  0
  154.9964  141.8394  160.6372 H   0  0  0  0  0  0  0  0  0  0  0  0
  146.8598  136.7732  154.4260 H   0  0  0  0  0  0  0  0  0  0  0  0
  146.9309  137.9411  153.1132 H   0  0  0  0  0  0  0  0  0  0  0  0
  146.4441  138.4514  154.7352 H   0  0  0  0  0  0  0  0  0  0  0  0
  1  2  1  0  0  0  0
  1 26  1  0  0  0  0
  1 27  1  0  0  0  0
  1 28  1  0  0  0  0
  2 24  1  0  0  0  0
  2  3  2  0  0  0  0
  3  4  1  0  0  0  0
  4  5  1  0  0  0  0
  4 19  1  0  0  0  0
  5  6  1  0  0  0  0
  5 29  1  0  0  0  0
  5 30  1  0  0  0  0
  6  7  1  0  0  0  0
  6  8  1  0  0  0  0
  6 31  1  0  0  0  0
  7 32  1  0  0  0  0
  8  9  1  0  0  0  0
  8 33  1  0  0  0  0
  8 34  1  0  0  0  0
  9 10  1  0  0  0  0
 10 15  1  0  0  0  0
 10 11  2  0  0  0  0
 11 12  1  0  0  0  0
 11 35  1  0  0  0  0
 12 13  2  0  0  0  0
 12 36  1  0  0  0  0
 13 14  1  0  0  0  0
 13 37  1  0  0  0  0
 14 15  2  0  0  0  0
 14 38  1  0  0  0  0
 15 16  1  0  0  0  0
 16 17  1  0  0  0  0
 16 18  1  0  0  0  0
 16 39  1  0  0  0  0
 17 40  1  0  0  0  0
 17 41  1  0  0  0  0
 17 42  1  0  0  0  0
 18 43  1  0  0  0  0
 18 44  1  0  0  0  0
 18 45  1  0  0  0  0
 19 20  2  0  0  0  0
 19 21  1  0  0  0  0
 21 22  1  0  0  0  0
 21 24  2  0  0  0  0
 22 23  3  0  0  0  0
 24 25  1  0  0  0  0
 25 46  1  0  0  0  0
 25 47  1  0  0  0  0
 25 48  1  0  0  0  0
M  END
> <s_m_source_file>
AV-unprocessed.smi

> <i_m_source_file_index>
443

> <i_lp_mmshare_version>
43012

> <i_f3d_flags>
0

> <s_epik_input>
TiNDYyhjMVtDSDNdKWMoPU8pbihuYzFbQ0gzXSlbQ0gyXVtDQEhdKFtPSF0pW0NIMl1PYzJbY0hdW2NIXVtjSF1bY0hdYzJbQ0hdKFtDSDNdKVtDSDNd

> <s_epik_cmdline>
J2VwaWtfcHl0aG9uJywgJy1waCcsICc3LjAnLCAnLXRuJywgJzgnLCAnLW1hJywgJzIwMCcsICctbWV0YWxfYmluZGluZycsICctaW1hZScsICc8aW5maWxlLm1hZT4nLCAnLW9tYWUnLCAnPG91dGZpbGUubWFlPic=

> <r_lp_tautomer_probability>
1

> <r_epik_Ionization_Penalty>
1.17331e-07

> <r_epik_Ionization_Penalty_Charging>
1.57223e-10

> <r_epik_Ionization_Penalty_Neutral>
1.17174e-07

> <r_epik_State_Penalty>
-0

> <r_epik_Charging_Adjusted_Penalty>
1.57223e-10

> <i_epik_Tot_Q>
0

> <i_epik_Tot_abs_Q>
0

> <r_epik_Metal_State_Penalty>
-0

> <b_epik_Metal_Only>
0

> <s_lp_Force_Field>
OPLS_2005

> <r_lp_Energy>
30.066

> <b_lp_Chiralities_Consistent>
1

> <s_lp_Variant>
AV-unprocessed.smi:443-1

> <Gold.Version>
5.8.1

> <Gold.Id.Protein>
6NUR|6NUR_protein|mol2

> <Gold.PLP.Fitness>
51.9266

> <Gold.PLP.PLP>
-49.0207

> <Gold.PLP.part.hbond>
-3.0000

> <Gold.PLP.part.metal>
0.0000

> <Gold.PLP.part.buried>
-0.1108

> <Gold.PLP.part.nonpolar>
-46.4391

> <Gold.PLP.part.repulsive>
0.2353

> <Gold.PLP.ligand.clash>
0.0000

> <Gold.PLP.ligand.torsion>
1.1171

> <Gold.PLP.Chemscore.Hbond>
1.6338

> <Gold.PLP.Chemscore.CHOScore>
0.0000

> <Gold.PLP.Chemscore.Metal>
0.0000

> <Gold.Chemscore.Hbonds>
donor molecule, donor type, donor heavy atom, donor atom, acceptor molecule, acceptor atom, score
      P1  H  7989  7998       L1     3  0.74
      P1  H 10752 10764       L1    20  0.99

> <Gold.PLP.Chemscore.Internal.Correction>
0.2389

> <Gold.Rescore>
     Score         DG    S(hbond)    S(metal)    S(lipo)     H(rot)  DE(clash)    DE(int)     intcor
     15.46     -19.35       1.00        0.00     142.84       2.41       1.35       2.54       ----

> <Gold.Chemscore.Fitness>
15.4577

> <Gold.Chemscore.DG>
-19.3521

> <Gold.Chemscore.ZeroCoef>
-5.4800

> <Gold.Chemscore.Hbond>
0.9957

> <Gold.Chemscore.Metal>
0.0000

> <Gold.Chemscore.Lipo>
142.8376

> <Gold.Chemscore.Internal_Hbond>
0.0000

> <Gold.Chemscore.DEClash>
1.3500

> <Gold.Chemscore.DEInternal>
2.5443

> <Gold.Chemscore.Rot>
2.4084

> <Gold.Chemscore.Internal.Correction>
   9.000000E+99

> <Gold.Chemscore.Hbonds>
donor molecule, donor type, donor heavy atom, donor atom, acceptor molecule, acceptor atom, score
      P1  H  7989  7998       L1     3  0.09
      P1  H 10752 10764       L1    20  0.92

> <Gold.Chemscore.Hbond.Weighted>
-3.3255

> <Gold.Chemscore.Metal.Weighted>
-0.0000

> <Gold.Chemscore.Lipo.Weighted>
-16.7120

> <Gold.Chemscore.Internal_Hbond.Weighted>
0.0000

> <Gold.Chemscore.DEClash.Weighted>
1.3500

> <Gold.Chemscore.DEInternal.Weighted>
2.5443

> <Gold.Chemscore.Rot.Weighted>
6.1655

> <Gold.Chemscore.Internal.Correction.Weighted>
   9.000000E+99

> <Gold.Protein.RotatedTorsions>
[ 6907 6896 6895 6894 ] final  156.25 input  -60.11 | X-H torsion
[ 7974 7965 7964 7962 ] final -129.92 input  175.53 | X-H torsion
[ 8008 7997 7996 7995 ] final  120.14 input   59.86 | X-H torsion
[ 10167 10162 10161 10158 ] final  -67.53 input  -65.29 | X-H torsion
[ 10718 10713 10712 10709 ] final -162.80 input   66.30 | X-H torsion
[ 10763 10752 10751 10750 ] final  -53.39 input  -60.55 | X-H torsion
[ 11005 11000 10999 10996 ] final   33.00 input  -57.11 | X-H torsion

> <Gold.Protein.ActiveResidues>
 VAL166  LYS551  ARG553  GLY616  TRP617  ASP618  TYR619  PRO620  LYS621  CYS622 
 ASP623  PHE694  ASN695  SER759  ASP760  ASP761  ALA762  ILE779  LEU786  VAL792 
 PHE793  MET794  SER795  GLU796  ALA797  LYS798  CYS799  TRP800  GLU811  SER814 

> <Gold.Protein.RotatedAtoms>
  152.0325  133.3943  159.4302 H   0  0  0  0  0  0  0  0  0  0  0  0  # atno 6907 bound_to 6896
  150.6881  134.3505  159.4916 H   0  0  0  0  0  0  0  0  0  0  0  0  # atno 6908 bound_to 6896
  152.1293  134.9146  160.0610 H   0  0  0  0  0  0  0  0  0  0  0  0  # atno 6909 bound_to 6896
  144.9525  140.7360  143.4779 H   0  0  0  0  0  0  0  0  0  0  0  0  # atno 7974 bound_to 7965
  156.2629  140.2837  156.1102 H   0  0  0  0  0  0  0  0  0  0  0  0  # atno 8008 bound_to 7997
  155.1266  140.0393  157.2781 H   0  0  0  0  0  0  0  0  0  0  0  0  # atno 8009 bound_to 7997
  154.6631  140.2571  155.7093 H   0  0  0  0  0  0  0  0  0  0  0  0  # atno 8010 bound_to 7997
  140.5576  143.2312  151.6791 H   0  0  0  0  0  0  0  0  0  0  0  0  # atno 10167 bound_to 10162
  156.6156  130.8869  151.2946 H   0  0  0  0  0  0  0  0  0  0  0  0  # atno 10718 bound_to 10713
  154.1580  135.6479  153.4979 H   0  0  0  0  0  0  0  0  0  0  0  0  # atno 10763 bound_to 10752
  153.0119  135.5354  154.6740 H   0  0  0  0  0  0  0  0  0  0  0  0  # atno 10764 bound_to 10752
  154.6046  135.2947  155.0470 H   0  0  0  0  0  0  0  0  0  0  0  0  # atno 10765 bound_to 10752
  140.2676  134.3120  155.7838 H   0  0  0  0  0  0  0  0  0  0  0  0  # atno 11005 bound_to 11000
  145.2822  139.1914  143.4784 LP  0  0  0  0  0  0  0  0  0  0  0  0  # atno 17320 bound_to 7965
  146.3326  140.2786  142.8609 LP  0  0  0  0  0  0  0  0  0  0  0  0  # atno 17321 bound_to 7965
  139.5055  144.3715  152.0465 LP  0  0  0  0  0  0  0  0  0  0  0  0  # atno 17342 bound_to 10162
  140.2838  144.3830  150.6110 LP  0  0  0  0  0  0  0  0  0  0  0  0  # atno 17343 bound_to 10162
  157.7242  130.9600  150.1564 LP  0  0  0  0  0  0  0  0  0  0  0  0  # atno 17370 bound_to 10713
  156.2354  130.3686  149.8397 LP  0  0  0  0  0  0  0  0  0  0  0  0  # atno 17371 bound_to 10713
  141.2182  133.7447  156.9284 LP  0  0  0  0  0  0  0  0  0  0  0  0  # atno 17394 bound_to 11000
  140.1404  134.9297  157.2459 LP  0  0  0  0  0  0  0  0  0  0  0  0  # atno 17395 bound_to 11000

$$$$
