AV-unprocessed.smi:2131|AV-procd|sdf|8690|dock7
  -GOLD-   2272011443D 1   1.00000     0.00000
 Structure written by MMmdl.
 41 43  0  0  0  0  0  0  0  0  2 V2000
  153.2192  139.7397  157.7678 N   0  0  0  0  0  0  0  0  0  0  0  0
  152.3379  140.4373  157.4931 C   0  0  0  0  0  0  0  0  0  0  0  0
  151.2179  141.3242  157.1437 C   0  0  0  0  0  0  0  0  0  0  0  0
  150.1896  140.6256  156.2787 C   0  0  0  0  0  0  0  0  0  0  0  0
  149.7044  139.3542  156.6419 C   0  0  0  0  0  0  0  0  0  0  0  0
  148.7518  138.7050  155.8335 C   0  0  0  0  0  0  0  0  0  0  0  0
  148.2718  139.3105  154.6539 C   0  0  0  0  0  0  0  0  0  0  0  0
  147.3429  138.6034  153.9212 O   0  0  0  0  0  0  0  0  0  0  0  0
  146.8662  139.1729  152.7090 C   0  0  0  0  0  0  0  0  0  0  0  0
  146.0219  138.1265  151.9675 C   0  0  1  0  0  0  0  0  0  0  0  0
  146.6228  137.8650  150.7144 O   0  0  0  0  0  0  0  0  0  0  0  0
  145.8859  136.8115  152.7609 C   0  0  0  0  0  0  0  0  0  0  0  0
  145.0751  135.8062  152.0621 N   0  0  0  0  0  0  0  0  0  0  0  0
  143.8725  135.9312  151.4381 C   0  0  0  0  0  0  0  0  0  0  0  0
  143.5354  134.7062  150.9472 N   0  3  0  0  0  0  0  0  0  0  0  0
  144.5373  133.7854  151.2626 C   0  0  0  0  0  0  0  0  0  0  0  0
  144.6486  132.4265  150.9845 C   0  0  0  0  0  0  0  0  0  0  0  0
  145.8080  131.7768  151.4572 C   0  0  0  0  0  0  0  0  0  0  0  0
  146.8019  132.4751  152.1736 C   0  0  0  0  0  0  0  0  0  0  0  0
  146.6799  133.8533  152.4482 C   0  0  0  0  0  0  0  0  0  0  0  0
  145.5301  134.4868  151.9788 C   0  0  0  0  0  0  0  0  0  0  0  0
  148.7639  140.5911  154.2950 C   0  0  0  0  0  0  0  0  0  0  0  0
  149.7161  141.2416  155.1037 C   0  0  0  0  0  0  0  0  0  0  0  0
  150.7559  141.6764  158.0664 H   0  0  0  0  0  0  0  0  0  0  0  0
  151.6167  142.1954  156.6233 H   0  0  0  0  0  0  0  0  0  0  0  0
  150.0629  138.8728  157.5399 H   0  0  0  0  0  0  0  0  0  0  0  0
  148.3878  137.7292  156.1204 H   0  0  0  0  0  0  0  0  0  0  0  0
  146.2518  140.0459  152.9362 H   0  0  0  0  0  0  0  0  0  0  0  0
  147.6977  139.4973  152.0806 H   0  0  0  0  0  0  0  0  0  0  0  0
  145.0335  138.5446  151.7739 H   0  0  0  0  0  0  0  0  0  0  0  0
  146.0636  137.2765  150.2303 H   0  0  0  0  0  0  0  0  0  0  0  0
  146.8688  136.3729  152.9394 H   0  0  0  0  0  0  0  0  0  0  0  0
  145.4426  136.9876  153.7418 H   0  0  0  0  0  0  0  0  0  0  0  0
  143.2896  136.8371  151.3523 H   0  0  0  0  0  0  0  0  0  0  0  0
  143.8891  131.8889  150.4359 H   0  0  0  0  0  0  0  0  0  0  0  0
  145.9370  130.7211  151.2666 H   0  0  0  0  0  0  0  0  0  0  0  0
  147.6761  131.9431  152.5205 H   0  0  0  0  0  0  0  0  0  0  0  0
  147.4452  134.3810  152.9982 H   0  0  0  0  0  0  0  0  0  0  0  0
  148.4262  141.0973  153.4037 H   0  0  0  0  0  0  0  0  0  0  0  0
  150.0839  142.2163  154.8182 H   0  0  0  0  0  0  0  0  0  0  0  0
  142.6825  134.5155  150.4369 H   0  0  0  0  0  0  0  0  0  0  0  0
  1  2  3  0  0  0  0
  2  3  1  0  0  0  0
  3  4  1  0  0  0  0
  3 24  1  0  0  0  0
  3 25  1  0  0  0  0
  4 23  1  0  0  0  0
  4  5  2  0  0  0  0
  5  6  1  0  0  0  0
  5 26  1  0  0  0  0
  6  7  2  0  0  0  0
  6 27  1  0  0  0  0
  7  8  1  0  0  0  0
  7 22  1  0  0  0  0
  8  9  1  0  0  0  0
  9 10  1  0  0  0  0
  9 28  1  0  0  0  0
  9 29  1  0  0  0  0
 10 11  1  0  0  0  0
 10 12  1  0  0  0  0
 10 30  1  0  0  0  0
 11 31  1  0  0  0  0
 12 13  1  0  0  0  0
 12 32  1  0  0  0  0
 12 33  1  0  0  0  0
 13 21  1  0  0  0  0
 13 14  1  0  0  0  0
 14 15  2  0  0  0  0
 14 34  1  0  0  0  0
 15 16  1  0  0  0  0
 15 41  1  0  0  0  0
 16 21  2  0  0  0  0
 16 17  1  0  0  0  0
 17 18  2  0  0  0  0
 17 35  1  0  0  0  0
 18 19  1  0  0  0  0
 18 36  1  0  0  0  0
 19 20  2  0  0  0  0
 19 37  1  0  0  0  0
 20 21  1  0  0  0  0
 20 38  1  0  0  0  0
 22 23  2  0  0  0  0
 22 39  1  0  0  0  0
 23 40  1  0  0  0  0
M  CHG  1  15   1
M  END
> <s_m_source_file>
AV-unprocessed.smi

> <i_m_source_file_index>
2131

> <i_lp_mmshare_version>
43012

> <i_f3d_flags>
0

> <s_epik_input>
TiNDW0NIMl1jMVtjSF1bY0hdYyhbY0hdW2NIXTEpT1tDSDJdW0NASF0oW09IXSlbQ0gyXW4oW2NIXW4yKWMoYzIzKVtjSF1bY0hdW2NIXVtjSF0z

> <s_epik_cmdline>
J2VwaWtfcHl0aG9uJywgJy1waCcsICc3LjAnLCAnLXRuJywgJzgnLCAnLW1hJywgJzIwMCcsICctbWV0YWxfYmluZGluZycsICctaW1hZScsICc8aW5maWxlLm1hZT4nLCAnLW9tYWUnLCAnPG91dGZpbGUubWFlPic=

> <r_lp_tautomer_probability>
1

> <r_epik_Ionization_Penalty>
1.3774

> <r_epik_Ionization_Penalty_Charging>
1.37739

> <r_epik_Ionization_Penalty_Neutral>
2.3994e-06

> <r_epik_State_Penalty>
1.45762

> <r_epik_Charging_Adjusted_Penalty>
2.83501

> <i_epik_Tot_Q>
1

> <i_epik_Tot_abs_Q>
1

> <r_epik_Metal_State_Penalty>
5.49752

> <b_epik_Metal_Only>
0

> <s_lp_Force_Field>
OPLS_2005

> <r_lp_Energy>
20.3244

> <b_lp_Chiralities_Consistent>
1

> <s_lp_Variant>
AV-unprocessed.smi:2131-4

> <Gold.Version>
5.8.1

> <Gold.Id.Protein>
6NUR|6NUR_protein|mol2

> <Gold.PLP.Fitness>
51.2348

> <Gold.PLP.PLP>
-38.2628

> <Gold.PLP.part.hbond>
-4.6504

> <Gold.PLP.part.metal>
0.0000

> <Gold.PLP.part.buried>
-2.1883

> <Gold.PLP.part.nonpolar>
-31.9420

> <Gold.PLP.part.repulsive>
0.1777

> <Gold.PLP.ligand.clash>
0.0000

> <Gold.PLP.ligand.torsion>
1.0487

> <Gold.PLP.Chemscore.Hbond>
4.0000

> <Gold.PLP.Chemscore.CHOScore>
0.9860

> <Gold.PLP.Chemscore.Metal>
0.0000

> <Gold.Chemscore.Hbonds>
donor molecule, donor type, donor heavy atom, donor atom, acceptor molecule, acceptor atom, score
      L1  H    15    41       P1 10186  2.00
      P1  H  7954  7966       L1    11  1.00
      P1  H  7997  8009       L1     1  1.00
      L1  C    14    34       P1 10171  0.85

> <Gold.PLP.Chemscore.Internal.Correction>
0.1115

> <Gold.Rescore>
     Score         DG    S(hbond)    S(metal)    S(lipo)     H(rot)  DE(clash)    DE(int)     intcor
     16.74     -18.53       2.76        0.00      94.36       2.81       0.64       1.16       ----

> <Gold.Chemscore.Fitness>
16.7366

> <Gold.Chemscore.DG>
-18.5350

> <Gold.Chemscore.ZeroCoef>
-5.4800

> <Gold.Chemscore.Hbond>
2.7600

> <Gold.Chemscore.Metal>
0.0000

> <Gold.Chemscore.Lipo>
94.3645

> <Gold.Chemscore.Internal_Hbond>
0.0000

> <Gold.Chemscore.DEClash>
0.6414

> <Gold.Chemscore.DEInternal>
1.1570

> <Gold.Chemscore.Rot>
2.8140

> <Gold.Chemscore.Internal.Correction>
   9.000000E+99

> <Gold.Chemscore.Hbonds>
donor molecule, donor type, donor heavy atom, donor atom, acceptor molecule, acceptor atom, score
      L1  H    15    41       P1 10186  0.45
      P1  H  7954  7966       L1    11  0.54
      P1  H  7997  8009       L1     1  0.76

> <Gold.Chemscore.Hbond.Weighted>
-9.2183

> <Gold.Chemscore.Metal.Weighted>
-0.0000

> <Gold.Chemscore.Lipo.Weighted>
-11.0406

> <Gold.Chemscore.Internal_Hbond.Weighted>
0.0000

> <Gold.Chemscore.DEClash.Weighted>
0.6414

> <Gold.Chemscore.DEInternal.Weighted>
1.1570

> <Gold.Chemscore.Rot.Weighted>
7.2039

> <Gold.Chemscore.Internal.Correction.Weighted>
   9.000000E+99

> <Gold.Protein.RotatedTorsions>
[ 6907 6896 6895 6894 ] final  163.90 input  -60.11 | X-H torsion
[ 7974 7965 7964 7962 ] final  -50.90 input  175.53 | X-H torsion
[ 8008 7997 7996 7995 ] final  164.53 input   59.86 | X-H torsion
[ 10167 10162 10161 10158 ] final -137.12 input  -65.29 | X-H torsion
[ 10718 10713 10712 10709 ] final   20.31 input   66.30 | X-H torsion
[ 10763 10752 10751 10750 ] final  -64.31 input  -60.55 | X-H torsion
[ 11005 11000 10999 10996 ] final    1.20 input  -57.11 | X-H torsion

> <Gold.Protein.ActiveResidues>
 VAL166  LYS551  ARG553  GLY616  TRP617  ASP618  TYR619  PRO620  LYS621  CYS622 
 ASP623  PHE694  ASN695  SER759  ASP760  ASP761  ALA762  ILE779  LEU786  VAL792 
 PHE793  MET794  SER795  GLU796  ALA797  LYS798  CYS799  TRP800  GLU811  SER814 

> <Gold.Protein.RotatedAtoms>
  151.9181  133.3578  159.3886 H   0  0  0  0  0  0  0  0  0  0  0  0  # atno 6907 bound_to 6896
  150.7043  134.4663  159.5414 H   0  0  0  0  0  0  0  0  0  0  0  0  # atno 6908 bound_to 6896
  152.2282  134.8348  160.0528 H   0  0  0  0  0  0  0  0  0  0  0  0  # atno 6909 bound_to 6896
  145.9248  140.7802  142.9629 H   0  0  0  0  0  0  0  0  0  0  0  0  # atno 7974 bound_to 7965
  156.1873  140.1694  156.8161 H   0  0  0  0  0  0  0  0  0  0  0  0  # atno 8008 bound_to 7997
  154.5429  140.0733  156.8572 H   0  0  0  0  0  0  0  0  0  0  0  0  # atno 8009 bound_to 7997
  155.3180  140.3371  155.4244 H   0  0  0  0  0  0  0  0  0  0  0  0  # atno 8010 bound_to 7997
  139.8610  143.7077  152.2650 H   0  0  0  0  0  0  0  0  0  0  0  0  # atno 10167 bound_to 10162
  157.1227  130.6556  149.5928 H   0  0  0  0  0  0  0  0  0  0  0  0  # atno 10718 bound_to 10713
  154.3282  135.6182  153.5539 H   0  0  0  0  0  0  0  0  0  0  0  0  # atno 10763 bound_to 10752
  152.9814  135.5740  154.4992 H   0  0  0  0  0  0  0  0  0  0  0  0  # atno 10764 bound_to 10752
  154.4673  135.2858  155.1645 H   0  0  0  0  0  0  0  0  0  0  0  0  # atno 10765 bound_to 10752
  140.6180  133.9687  155.8210 H   0  0  0  0  0  0  0  0  0  0  0  0  # atno 11005 bound_to 11000
  144.6757  140.2033  143.7385 LP  0  0  0  0  0  0  0  0  0  0  0  0  # atno 17320 bound_to 7965
  145.8503  139.2172  143.1776 LP  0  0  0  0  0  0  0  0  0  0  0  0  # atno 17321 bound_to 7965
  139.7374  144.7568  151.0706 LP  0  0  0  0  0  0  0  0  0  0  0  0  # atno 17342 bound_to 10162
  140.7775  143.5014  150.9767 LP  0  0  0  0  0  0  0  0  0  0  0  0  # atno 17343 bound_to 10162
  155.9825  130.4839  150.6884 LP  0  0  0  0  0  0  0  0  0  0  0  0  # atno 17370 bound_to 10713
  157.4462  131.0867  151.0893 LP  0  0  0  0  0  0  0  0  0  0  0  0  # atno 17371 bound_to 10713
  141.0762  134.0131  157.3454 LP  0  0  0  0  0  0  0  0  0  0  0  0  # atno 17394 bound_to 11000
  139.9165  135.0197  156.7900 LP  0  0  0  0  0  0  0  0  0  0  0  0  # atno 17395 bound_to 11000

$$$$
