AV-unprocessed.smi:2480|AV-procd|sdf|9770|dock6
  -GOLD-   2272013413D 1   1.00000     0.00000
 Structure written by MMmdl.
 33 34  0  0  0  0  0  0  0  0  3 V2000
  151.1007  140.9741  157.0563 O   0  0  0  0  0  0  0  0  0  0  0  0
  150.5438  142.0019  156.6768 C   0  0  0  0  0  0  0  0  0  0  0  0
  149.5462  142.0487  155.7714 N   0  0  0  0  0  0  0  0  0  0  0  0
  148.9082  140.9850  155.0696 C   0  0  0  0  0  0  0  0  0  0  0  0
  149.4927  139.7006  154.9407 C   0  0  0  0  0  0  0  0  0  0  0  0
  148.8224  138.7167  154.1900 C   0  0  0  0  0  0  0  0  0  0  0  0
  147.6471  138.9322  153.5678 N   0  0  0  0  0  0  0  0  0  0  0  0
  147.0968  140.1588  153.6749 C   0  0  0  0  0  0  0  0  0  0  0  0
  147.6720  141.2221  154.4070 C   0  0  0  0  0  0  0  0  0  0  0  0
  146.9783  142.5228  154.4486 N   0  3  0  0  0  0  0  0  0  0  0  0
  146.7227  142.9929  155.5519 O   0  0  0  0  0  0  0  0  0  0  0  0
  146.7129  143.0824  153.3901 O   0  5  0  0  0  0  0  0  0  0  0  0
  150.8983  143.2041  157.1681 N   0  0  0  0  0  0  0  0  0  0  0  0
  151.9323  143.5191  158.1569 C   0  0  1  0  0  0  0  0  0  0  0  0
  151.9318  145.0094  158.4705 C   0  0  0  0  0  0  0  0  0  0  0  0
  152.0286  145.5114  159.7132 C   0  0  0  0  0  0  0  0  0  0  0  0
  152.1609  144.6508  160.9559 C   0  0  0  0  0  0  0  0  0  0  0  0
  152.5246  143.1942  160.6171 C   0  0  0  0  0  0  0  0  0  0  0  0
  151.7111  142.6671  159.4249 C   0  0  0  0  0  0  0  0  0  0  0  0
  149.1415  142.9617  155.6231 H   0  0  0  0  0  0  0  0  0  0  0  0
  150.4458  139.4538  155.3814 H   0  0  0  0  0  0  0  0  0  0  0  0
  149.2498  137.7313  154.0767 H   0  0  0  0  0  0  0  0  0  0  0  0
  146.1569  140.2927  153.1594 H   0  0  0  0  0  0  0  0  0  0  0  0
  150.4050  144.0004  156.7904 H   0  0  0  0  0  0  0  0  0  0  0  0
  152.9194  143.2752  157.7612 H   0  0  0  0  0  0  0  0  0  0  0  0
  151.8448  145.6865  157.6333 H   0  0  0  0  0  0  0  0  0  0  0  0
  151.9999  146.5808  159.8627 H   0  0  0  0  0  0  0  0  0  0  0  0
  152.9180  145.0797  161.6124 H   0  0  0  0  0  0  0  0  0  0  0  0
  151.2139  144.6882  161.4950 H   0  0  0  0  0  0  0  0  0  0  0  0
  153.5866  143.1332  160.3759 H   0  0  0  0  0  0  0  0  0  0  0  0
  152.3712  142.5602  161.4909 H   0  0  0  0  0  0  0  0  0  0  0  0
  150.6542  142.6722  159.6967 H   0  0  0  0  0  0  0  0  0  0  0  0
  151.9709  141.6270  159.2238 H   0  0  0  0  0  0  0  0  0  0  0  0
  1  2  2  0  0  0  0
  2  3  1  0  0  0  0
  2 13  1  0  0  0  0
  3  4  1  0  0  0  0
  3 20  1  0  0  0  0
  4  9  1  0  0  0  0
  4  5  2  0  0  0  0
  5  6  1  0  0  0  0
  5 21  1  0  0  0  0
  6  7  2  0  0  0  0
  6 22  1  0  0  0  0
  7  8  1  0  0  0  0
  8  9  2  0  0  0  0
  8 23  1  0  0  0  0
  9 10  1  0  0  0  0
 10 11  2  0  0  0  0
 10 12  1  0  0  0  0
 13 14  1  0  0  0  0
 13 24  1  0  0  0  0
 14 19  1  0  0  0  0
 14 15  1  0  0  0  0
 14 25  1  0  0  0  0
 15 16  2  0  0  0  0
 15 26  1  0  0  0  0
 16 17  1  0  0  0  0
 16 27  1  0  0  0  0
 17 18  1  0  0  0  0
 17 28  1  0  0  0  0
 17 29  1  0  0  0  0
 18 19  1  0  0  0  0
 18 30  1  0  0  0  0
 18 31  1  0  0  0  0
 19 32  1  0  0  0  0
 19 33  1  0  0  0  0
M  CHG  1  10   1
M  CHG  1  12  -1
M  END
> <s_m_source_file>
AV-unprocessed.smi

> <i_m_source_file_index>
2480

> <i_lp_mmshare_version>
43012

> <i_f3d_flags>
0

> <s_epik_input>
W0NIMl0xW0NIMl1bQ0gyXVtDSF09W0NIXVtDQEhdMVtOSF1DKD1PKVtOSF1jMltjSF1bY0hdbltjSF1jMltOK10oPU8pW08tXQ==

> <s_epik_cmdline>
J2VwaWtfcHl0aG9uJywgJy1waCcsICc3LjAnLCAnLXRuJywgJzgnLCAnLW1hJywgJzIwMCcsICctbWV0YWxfYmluZGluZycsICctaW1hZScsICc8aW5maWxlLm1hZT4nLCAnLW9tYWUnLCAnPG91dGZpbGUubWFlPic=

> <r_lp_tautomer_probability>
1

> <r_epik_Ionization_Penalty>
0.000149203

> <r_epik_Ionization_Penalty_Charging>
0

> <r_epik_Ionization_Penalty_Neutral>
0.000149203

> <r_epik_State_Penalty>
-0

> <r_epik_Charging_Adjusted_Penalty>
0

> <i_epik_Tot_Q>
0

> <i_epik_Tot_abs_Q>
2

> <r_epik_Metal_State_Penalty>
-0

> <b_epik_Metal_Only>
0

> <s_lp_Force_Field>
OPLS_2005

> <r_lp_Energy>
27.1636

> <b_lp_Chiralities_Consistent>
1

> <s_lp_Variant>
AV-unprocessed.smi:2480-2

> <Gold.Version>
5.8.1

> <Gold.Id.Protein>
6NUR|6NUR_protein|mol2

> <Gold.PLP.Fitness>
50.3559

> <Gold.PLP.PLP>
-40.8196

> <Gold.PLP.part.hbond>
-2.0000

> <Gold.PLP.part.metal>
0.0000

> <Gold.PLP.part.buried>
-4.8743

> <Gold.PLP.part.nonpolar>
-36.0838

> <Gold.PLP.part.repulsive>
1.9219

> <Gold.PLP.ligand.clash>
0.0000

> <Gold.PLP.ligand.torsion>
1.1170

> <Gold.PLP.Chemscore.Hbond>
1.9200

> <Gold.PLP.Chemscore.CHOScore>
2.0000

> <Gold.PLP.Chemscore.Metal>
0.0000

> <Gold.Chemscore.Hbonds>
donor molecule, donor type, donor heavy atom, donor atom, acceptor molecule, acceptor atom, score
      L1  H     3    20       P1  8028  1.00
      L1  H    13    24       P1  8028  1.00
      L1  C     6    22       P1  7948  0.57
      L1  C     8    23       P1 10175  0.90

> <Gold.PLP.Chemscore.Internal.Correction>
0.0102

> <Gold.Rescore>
     Score         DG    S(hbond)    S(metal)    S(lipo)     H(rot)  DE(clash)    DE(int)     intcor
     17.73     -21.64       1.94        0.00     104.49       1.00       0.62       3.29       ----

> <Gold.Chemscore.Fitness>
17.7342

> <Gold.Chemscore.DG>
-21.6356

> <Gold.Chemscore.ZeroCoef>
-5.4800

> <Gold.Chemscore.Hbond>
1.9432

> <Gold.Chemscore.Metal>
0.0000

> <Gold.Chemscore.Lipo>
104.4892

> <Gold.Chemscore.Internal_Hbond>
0.0000

> <Gold.Chemscore.DEClash>
0.6151

> <Gold.Chemscore.DEInternal>
3.2863

> <Gold.Chemscore.Rot>
1.0000

> <Gold.Chemscore.Internal.Correction>
   9.000000E+99

> <Gold.Chemscore.Hbonds>
donor molecule, donor type, donor heavy atom, donor atom, acceptor molecule, acceptor atom, score
      L1  H     3    20       P1  8028  1.00
      L1  H    13    24       P1  8028  0.90

> <Gold.Chemscore.Hbond.Weighted>
-6.4903

> <Gold.Chemscore.Metal.Weighted>
-0.0000

> <Gold.Chemscore.Lipo.Weighted>
-12.2252

> <Gold.Chemscore.Internal_Hbond.Weighted>
0.0000

> <Gold.Chemscore.DEClash.Weighted>
0.6151

> <Gold.Chemscore.DEInternal.Weighted>
3.2863

> <Gold.Chemscore.Rot.Weighted>
2.5600

> <Gold.Chemscore.Internal.Correction.Weighted>
   9.000000E+99

> <Gold.Protein.RotatedTorsions>
[ 6907 6896 6895 6894 ] final   38.57 input  -60.11 | X-H torsion
[ 7974 7965 7964 7962 ] final   87.80 input  175.53 | X-H torsion
[ 8008 7997 7996 7995 ] final -169.06 input   59.86 | X-H torsion
[ 10167 10162 10161 10158 ] final  -54.96 input  -65.29 | X-H torsion
[ 10718 10713 10712 10709 ] final -154.94 input   66.30 | X-H torsion
[ 10763 10752 10751 10750 ] final   73.61 input  -60.55 | X-H torsion
[ 11005 11000 10999 10996 ] final -159.47 input  -57.11 | X-H torsion

> <Gold.Protein.ActiveResidues>
 VAL166  LYS551  ARG553  GLY616  TRP617  ASP618  TYR619  PRO620  LYS621  CYS622 
 ASP623  PHE694  ASN695  SER759  ASP760  ASP761  ALA762  ILE779  LEU786  VAL792 
 PHE793  MET794  SER795  GLU796  ALA797  LYS798  CYS799  TRP800  GLU811  SER814 

> <Gold.Protein.RotatedAtoms>
  152.1582  134.8933  160.0543 H   0  0  0  0  0  0  0  0  0  0  0  0  # atno 6907 bound_to 6896
  151.9939  133.3796  159.4163 H   0  0  0  0  0  0  0  0  0  0  0  0  # atno 6908 bound_to 6896
  150.6884  134.3829  159.5086 H   0  0  0  0  0  0  0  0  0  0  0  0  # atno 6909 bound_to 6896
  145.5541  139.2298  143.2496 H   0  0  0  0  0  0  0  0  0  0  0  0  # atno 7974 bound_to 7965
  155.8999  140.1039  157.1357 H   0  0  0  0  0  0  0  0  0  0  0  0  # atno 8008 bound_to 7997
  154.4025  140.1294  156.4487 H   0  0  0  0  0  0  0  0  0  0  0  0  # atno 8009 bound_to 7997
  155.7435  140.3466  155.5118 H   0  0  0  0  0  0  0  0  0  0  0  0  # atno 8010 bound_to 7997
  140.6401  143.2503  151.5012 H   0  0  0  0  0  0  0  0  0  0  0  0  # atno 10167 bound_to 10162
  156.5060  130.8413  151.2628 H   0  0  0  0  0  0  0  0  0  0  0  0  # atno 10718 bound_to 10713
  153.0532  135.5056  154.7919 H   0  0  0  0  0  0  0  0  0  0  0  0  # atno 10763 bound_to 10752
  154.6764  135.2961  154.9674 H   0  0  0  0  0  0  0  0  0  0  0  0  # atno 10764 bound_to 10752
  154.0475  135.6708  153.4849 H   0  0  0  0  0  0  0  0  0  0  0  0  # atno 10765 bound_to 10752
  140.6423  134.4538  157.5233 H   0  0  0  0  0  0  0  0  0  0  0  0  # atno 11005 bound_to 11000
  146.1896  140.6365  142.9151 LP  0  0  0  0  0  0  0  0  0  0  0  0  # atno 17320 bound_to 7965
  144.7515  140.5201  143.6799 LP  0  0  0  0  0  0  0  0  0  0  0  0  # atno 17321 bound_to 7965
  139.5610  144.2156  152.1692 LP  0  0  0  0  0  0  0  0  0  0  0  0  # atno 17342 bound_to 10162
  140.1423  144.5190  150.6736 LP  0  0  0  0  0  0  0  0  0  0  0  0  # atno 17343 bound_to 10162
  157.7457  130.9965  150.2784 LP  0  0  0  0  0  0  0  0  0  0  0  0  # atno 17370 bound_to 10713
  156.3286  130.3797  149.7511 LP  0  0  0  0  0  0  0  0  0  0  0  0  # atno 17371 bound_to 10713
  139.9076  134.8415  156.1648 LP  0  0  0  0  0  0  0  0  0  0  0  0  # atno 17394 bound_to 11000
  141.0598  133.6847  156.1930 LP  0  0  0  0  0  0  0  0  0  0  0  0  # atno 17395 bound_to 11000

$$$$
