AV-unprocessed.smi:845|AV-procd|sdf|3934|dock5
  -GOLD-   22720 1393D 1   1.00000     0.00000
 Structure written by MMmdl.
 41 42  0  0  0  0  0  0  0  0  2 V2000
  152.3441  139.1732  155.0888 C   0  0  0  0  0  0  0  0  0  0  0  0
  150.9341  138.5784  155.2899 C   0  0  0  0  0  0  0  0  0  0  0  0
  149.9408  139.1367  154.2556 C   0  0  0  0  0  0  0  0  0  0  0  0
  150.3637  138.5999  156.7455 C   0  0  1  0  0  0  0  0  0  0  0  0
  149.2334  137.5639  156.9855 C   0  0  0  0  0  0  0  0  0  0  0  0
  148.5818  137.7678  158.2742 N   0  0  0  0  0  0  0  0  0  0  0  0
  148.2889  136.8017  159.1540 C   0  0  0  0  0  0  0  0  0  0  0  0
  148.5748  135.6299  158.8968 O   0  0  0  0  0  0  0  0  0  0  0  0
  147.6846  137.2536  160.2765 N   0  5  0  0  0  0  0  0  0  0  0  0
  146.8795  136.4412  160.9804 C   0  0  0  0  0  0  0  0  0  0  0  0
  147.2956  135.7479  162.0465 N   0  0  0  0  0  0  0  0  0  0  0  0
  146.2918  134.9752  162.6330 C   0  0  0  0  0  0  0  0  0  0  0  0
  145.0804  135.0892  162.0039 C   0  0  0  0  0  0  0  0  0  0  0  0
  145.1655  136.1763  160.6470 S   0  0  0  0  0  0  0  0  0  0  0  0
  151.3813  138.6675  157.8142 N   0  0  0  0  0  0  0  0  0  0  0  0
  152.3957  137.6202  157.7098 C   0  0  0  0  0  0  0  0  0  0  0  0
  153.3528  137.6320  158.9132 C   0  0  0  0  0  0  0  0  0  0  0  0
  153.9620  138.9143  159.0206 O   0  0  0  0  0  0  0  0  0  0  0  0
  153.0097  139.9621  159.1709 C   0  0  0  0  0  0  0  0  0  0  0  0
  152.0357  139.9636  157.9793 C   0  0  0  0  0  0  0  0  0  0  0  0
  152.3735  140.2529  155.2108 H   0  0  0  0  0  0  0  0  0  0  0  0
  152.6984  138.9658  154.0788 H   0  0  0  0  0  0  0  0  0  0  0  0
  153.0764  138.7378  155.7681 H   0  0  0  0  0  0  0  0  0  0  0  0
  151.0424  137.5228  155.0368 H   0  0  0  0  0  0  0  0  0  0  0  0
  149.8053  140.2127  154.3698 H   0  0  0  0  0  0  0  0  0  0  0  0
  148.9634  138.6636  154.3541 H   0  0  0  0  0  0  0  0  0  0  0  0
  150.2912  138.9570  153.2390 H   0  0  0  0  0  0  0  0  0  0  0  0
  149.8551  139.5647  156.7865 H   0  0  0  0  0  0  0  0  0  0  0  0
  148.4864  137.6144  156.1925 H   0  0  0  0  0  0  0  0  0  0  0  0
  149.6285  136.5485  156.9768 H   0  0  0  0  0  0  0  0  0  0  0  0
  148.3316  138.7147  158.5187 H   0  0  0  0  0  0  0  0  0  0  0  0
  146.5282  134.3747  163.4987 H   0  0  0  0  0  0  0  0  0  0  0  0
  144.1486  134.6048  162.2541 H   0  0  0  0  0  0  0  0  0  0  0  0
  151.9173  136.6427  157.6420 H   0  0  0  0  0  0  0  0  0  0  0  0
  152.9820  137.7481  156.8001 H   0  0  0  0  0  0  0  0  0  0  0  0
  152.8187  137.3947  159.8345 H   0  0  0  0  0  0  0  0  0  0  0  0
  154.1291  136.8773  158.7883 H   0  0  0  0  0  0  0  0  0  0  0  0
  152.4677  139.8348  160.1093 H   0  0  0  0  0  0  0  0  0  0  0  0
  153.5351  140.9152  159.2317 H   0  0  0  0  0  0  0  0  0  0  0  0
  152.5800  140.2289  157.0725 H   0  0  0  0  0  0  0  0  0  0  0  0
  151.3009  140.7436  158.1505 H   0  0  0  0  0  0  0  0  0  0  0  0
  1  2  1  0  0  0  0
  1 21  1  0  0  0  0
  1 22  1  0  0  0  0
  1 23  1  0  0  0  0
  2  3  1  0  0  0  0
  2  4  1  0  0  0  0
  2 24  1  0  0  0  0
  3 25  1  0  0  0  0
  3 26  1  0  0  0  0
  3 27  1  0  0  0  0
  4  5  1  0  0  0  0
  4 15  1  0  0  0  0
  4 28  1  0  0  0  0
  5  6  1  0  0  0  0
  5 29  1  0  0  0  0
  5 30  1  0  0  0  0
  6  7  1  0  0  0  0
  6 31  1  0  0  0  0
  7  8  2  0  0  0  0
  7  9  1  0  0  0  0
  9 10  1  0  0  0  0
 10 14  1  0  0  0  0
 10 11  2  0  0  0  0
 11 12  1  0  0  0  0
 12 13  2  0  0  0  0
 12 32  1  0  0  0  0
 13 14  1  0  0  0  0
 13 33  1  0  0  0  0
 15 20  1  0  0  0  0
 15 16  1  0  0  0  0
 16 17  1  0  0  0  0
 16 34  1  0  0  0  0
 16 35  1  0  0  0  0
 17 18  1  0  0  0  0
 17 36  1  0  0  0  0
 17 37  1  0  0  0  0
 18 19  1  0  0  0  0
 19 20  1  0  0  0  0
 19 38  1  0  0  0  0
 19 39  1  0  0  0  0
 20 40  1  0  0  0  0
 20 41  1  0  0  0  0
M  CHG  1   9  -1
M  END
> <s_m_source_file>
AV-unprocessed.smi

> <i_m_source_file_index>
845

> <i_lp_mmshare_version>
43012

> <i_f3d_flags>
0

> <s_epik_input>
W0NIMl0xW0NIMl1PW0NIMl1bQ0gyXU4xW0NASF0oW0NIXShbQ0gzXSlbQ0gzXSlbQ0gyXVtOSF1DKD1PKVtOSF1jMm5bY0hdW2NIXXMy

> <s_epik_cmdline>
J2VwaWtfcHl0aG9uJywgJy1waCcsICc3LjAnLCAnLXRuJywgJzgnLCAnLW1hJywgJzIwMCcsICctbWV0YWxfYmluZGluZycsICctaW1hZScsICc8aW5maWxlLm1hZT4nLCAnLW9tYWUnLCAnPG91dGZpbGUubWFlPic=

> <r_lp_tautomer_probability>
0.999

> <r_epik_Ionization_Penalty>
9.02543

> <r_epik_Ionization_Penalty_Charging>
6.76546

> <r_epik_Ionization_Penalty_Neutral>
2.25997

> <r_epik_State_Penalty>
7.18984

> <r_epik_Charging_Adjusted_Penalty>
13.9553

> <i_epik_Tot_Q>
-1

> <i_epik_Tot_abs_Q>
1

> <r_epik_Metal_State_Penalty>
3.11401

> <b_epik_Metal_Only>
1

> <s_lp_Force_Field>
OPLS_2005

> <r_lp_Energy>
34.4261

> <b_lp_Chiralities_Consistent>
1

> <s_lp_Variant>
AV-unprocessed.smi:845-8

> <Gold.Version>
5.8.1

> <Gold.Id.Protein>
6NUR|6NUR_protein|mol2

> <Gold.PLP.Fitness>
40.8271

> <Gold.PLP.PLP>
-28.9479

> <Gold.PLP.part.hbond>
-4.0000

> <Gold.PLP.part.metal>
0.0000

> <Gold.PLP.part.buried>
-3.5502

> <Gold.PLP.part.nonpolar>
-22.6388

> <Gold.PLP.part.repulsive>
0.1379

> <Gold.PLP.ligand.clash>
0.0000

> <Gold.PLP.ligand.torsion>
1.8764

> <Gold.PLP.Chemscore.Hbond>
4.9948

> <Gold.PLP.Chemscore.CHOScore>
0.0000

> <Gold.PLP.Chemscore.Metal>
0.0000

> <Gold.Chemscore.Hbonds>
donor molecule, donor type, donor heavy atom, donor atom, acceptor molecule, acceptor atom, score
      P1  H  6931  6943       L1     9  0.35
      P1  H  6934  6947       L1     9  1.79
      P1  H  7997  8008       L1    18  0.19

> <Gold.PLP.Chemscore.Internal.Correction>
0.6475

> <Gold.Rescore>
     Score         DG    S(hbond)    S(metal)    S(lipo)     H(rot)  DE(clash)    DE(int)     intcor
     15.19     -18.07       2.71        0.00      67.70       1.71       0.05       2.82       ----

> <Gold.Chemscore.Fitness>
15.1865

> <Gold.Chemscore.DG>
-18.0653

> <Gold.Chemscore.ZeroCoef>
-5.4800

> <Gold.Chemscore.Hbond>
2.7058

> <Gold.Chemscore.Metal>
0.0000

> <Gold.Chemscore.Lipo>
67.6974

> <Gold.Chemscore.Internal_Hbond>
0.0000

> <Gold.Chemscore.DEClash>
0.0544

> <Gold.Chemscore.DEInternal>
2.8244

> <Gold.Chemscore.Rot>
1.7081

> <Gold.Chemscore.Internal.Correction>
   9.000000E+99

> <Gold.Chemscore.Hbonds>
donor molecule, donor type, donor heavy atom, donor atom, acceptor molecule, acceptor atom, score
      P1  H  6896  6909       L1     8  0.04
      P1  H  6931  6943       L1     9  0.08
      P1  H  6934  6947       L1     9  0.35
      P1  H  7997  8008       L1    18  0.02

> <Gold.Chemscore.Hbond.Weighted>
-9.0375

> <Gold.Chemscore.Metal.Weighted>
-0.0000

> <Gold.Chemscore.Lipo.Weighted>
-7.9206

> <Gold.Chemscore.Internal_Hbond.Weighted>
0.0000

> <Gold.Chemscore.DEClash.Weighted>
0.0544

> <Gold.Chemscore.DEInternal.Weighted>
2.8244

> <Gold.Chemscore.Rot.Weighted>
4.3728

> <Gold.Chemscore.Internal.Correction.Weighted>
   9.000000E+99

> <Gold.Protein.RotatedTorsions>
[ 6907 6896 6895 6894 ] final   59.96 input  -60.11 | X-H torsion
[ 7974 7965 7964 7962 ] final -118.36 input  175.53 | X-H torsion
[ 8008 7997 7996 7995 ] final -120.55 input   59.86 | X-H torsion
[ 10167 10162 10161 10158 ] final  126.03 input  -65.29 | X-H torsion
[ 10718 10713 10712 10709 ] final   11.99 input   66.30 | X-H torsion
[ 10763 10752 10751 10750 ] final  116.69 input  -60.55 | X-H torsion
[ 11005 11000 10999 10996 ] final    5.87 input  -57.11 | X-H torsion

> <Gold.Protein.ActiveResidues>
 VAL166  LYS551  ARG553  GLY616  TRP617  ASP618  TYR619  PRO620  LYS621  CYS622 
 ASP623  PHE694  ASN695  SER759  ASP760  ASP761  ALA762  ILE779  LEU786  VAL792 
 PHE793  MET794  SER795  GLU796  ALA797  LYS798  CYS799  TRP800  GLU811  SER814 

> <Gold.Protein.RotatedAtoms>
  152.3961  134.6363  160.0088 H   0  0  0  0  0  0  0  0  0  0  0  0  # atno 6907 bound_to 6896
  151.6582  133.3312  159.3176 H   0  0  0  0  0  0  0  0  0  0  0  0  # atno 6908 bound_to 6896
  150.7868  134.6903  159.6538 H   0  0  0  0  0  0  0  0  0  0  0  0  # atno 6909 bound_to 6896
  145.0747  140.8384  143.4074 H   0  0  0  0  0  0  0  0  0  0  0  0  # atno 7974 bound_to 7965
  155.1337  140.0400  157.2781 H   0  0  0  0  0  0  0  0  0  0  0  0  # atno 8008 bound_to 7997
  154.6524  140.2572  155.7173 H   0  0  0  0  0  0  0  0  0  0  0  0  # atno 8009 bound_to 7997
  156.2583  140.2833  156.0963 H   0  0  0  0  0  0  0  0  0  0  0  0  # atno 8010 bound_to 7997
  139.5653  144.6907  151.3928 H   0  0  0  0  0  0  0  0  0  0  0  0  # atno 10167 bound_to 10162
  157.0037  130.6089  149.5699 H   0  0  0  0  0  0  0  0  0  0  0  0  # atno 10718 bound_to 10713
  153.5411  135.3558  155.2718 H   0  0  0  0  0  0  0  0  0  0  0  0  # atno 10763 bound_to 10752
  154.8717  135.4091  154.3043 H   0  0  0  0  0  0  0  0  0  0  0  0  # atno 10764 bound_to 10752
  153.3750  135.7066  153.6676 H   0  0  0  0  0  0  0  0  0  0  0  0  # atno 10765 bound_to 10752
  140.5658  134.0149  155.7989 H   0  0  0  0  0  0  0  0  0  0  0  0  # atno 11005 bound_to 11000
  145.1250  139.2669  143.5569 LP  0  0  0  0  0  0  0  0  0  0  0  0  # atno 17320 bound_to 7965
  146.3530  140.0884  142.8614 LP  0  0  0  0  0  0  0  0  0  0  0  0  # atno 17321 bound_to 7965
  140.6936  143.7803  150.7292 LP  0  0  0  0  0  0  0  0  0  0  0  0  # atno 17342 bound_to 10162
  140.1292  143.4541  152.2265 LP  0  0  0  0  0  0  0  0  0  0  0  0  # atno 17343 bound_to 10162
  156.0161  130.5256  150.8140 LP  0  0  0  0  0  0  0  0  0  0  0  0  # atno 17370 bound_to 10713
  157.5371  131.0939  150.9877 LP  0  0  0  0  0  0  0  0  0  0  0  0  # atno 17371 bound_to 10713
  141.1086  133.9653  157.2951 LP  0  0  0  0  0  0  0  0  0  0  0  0  # atno 17394 bound_to 11000
  139.9385  135.0194  156.8634 LP  0  0  0  0  0  0  0  0  0  0  0  0  # atno 17395 bound_to 11000

$$$$
