AV-unprocessed.smi:1282|AV-procd|sdf|5360|dock7
  -GOLD-   22720 4503D 1   1.00000     0.00000
 Structure written by MMmdl.
 36 37  0  0  0  0  0  0  0  0  1 V2000
  144.4248  136.2753  152.1450 C   0  0  0  0  0  0  0  0  0  0  0  0
  145.2394  137.2540  152.7664 O   0  0  0  0  0  0  0  0  0  0  0  0
  146.2033  137.7984  151.8808 C   0  0  0  0  0  0  0  0  0  0  0  0
  146.7974  139.0657  152.5018 C   0  0  0  0  0  0  0  0  0  0  0  0
  147.8597  138.6885  153.3721 O   0  0  0  0  0  0  0  0  0  0  0  0
  148.5142  139.6747  154.0811 C   0  0  0  0  0  0  0  0  0  0  0  0
  149.6604  139.3227  154.8208 C   0  0  0  0  0  0  0  0  0  0  0  0
  150.3342  140.3213  155.5498 C   0  0  0  0  0  0  0  0  0  0  0  0
  149.8323  141.6444  155.5230 C   0  0  0  0  0  0  0  0  0  0  0  0
  150.4295  142.7425  156.1994 N   0  0  0  0  0  0  0  0  0  0  0  0
  151.2912  142.7276  157.2326 C   0  0  0  0  0  0  0  0  0  0  0  0
  151.6900  141.7075  157.7948 O   0  0  0  0  0  0  0  0  0  0  0  0
  151.7539  144.1079  157.7190 C   0  0  0  0  0  0  0  0  0  0  0  0
  152.7030  144.0746  158.9301 C   0  0  0  0  0  0  0  0  0  0  0  0
  151.9040  145.2333  159.5340 C   0  0  0  0  0  0  0  0  0  0  0  0
  150.7428  144.8497  158.6117 C   0  0  0  0  0  0  0  0  0  0  0  0
  148.6866  141.8949  154.7394 C   0  0  0  0  0  0  0  0  0  0  0  0
  148.0363  140.9426  154.0378 N   0  0  0  0  0  0  0  0  0  0  0  0
  143.6981  135.8938  152.8622 H   0  0  0  0  0  0  0  0  0  0  0  0
  145.0213  135.4336  151.7907 H   0  0  0  0  0  0  0  0  0  0  0  0
  143.8762  136.6954  151.3011 H   0  0  0  0  0  0  0  0  0  0  0  0
  146.9944  137.0706  151.6941 H   0  0  0  0  0  0  0  0  0  0  0  0
  145.7384  138.0351  150.9225 H   0  0  0  0  0  0  0  0  0  0  0  0
  147.1694  139.7233  151.7141 H   0  0  0  0  0  0  0  0  0  0  0  0
  146.0228  139.6013  153.0532 H   0  0  0  0  0  0  0  0  0  0  0  0
  150.0197  138.3043  154.8258 H   0  0  0  0  0  0  0  0  0  0  0  0
  151.2237  140.0544  156.0985 H   0  0  0  0  0  0  0  0  0  0  0  0
  150.1232  143.6553  155.8953 H   0  0  0  0  0  0  0  0  0  0  0  0
  152.1362  144.7465  156.9201 H   0  0  0  0  0  0  0  0  0  0  0  0
  152.6390  143.1628  159.5271 H   0  0  0  0  0  0  0  0  0  0  0  0
  153.7384  144.3246  158.6972 H   0  0  0  0  0  0  0  0  0  0  0  0
  151.6920  145.1352  160.5990 H   0  0  0  0  0  0  0  0  0  0  0  0
  152.3293  146.2088  159.2930 H   0  0  0  0  0  0  0  0  0  0  0  0
  150.2587  145.7006  158.1316 H   0  0  0  0  0  0  0  0  0  0  0  0
  150.0129  144.2026  159.1017 H   0  0  0  0  0  0  0  0  0  0  0  0
  148.2736  142.8911  154.6756 H   0  0  0  0  0  0  0  0  0  0  0  0
  1  2  1  0  0  0  0
  1 19  1  0  0  0  0
  1 20  1  0  0  0  0
  1 21  1  0  0  0  0
  2  3  1  0  0  0  0
  3  4  1  0  0  0  0
  3 22  1  0  0  0  0
  3 23  1  0  0  0  0
  4  5  1  0  0  0  0
  4 24  1  0  0  0  0
  4 25  1  0  0  0  0
  5  6  1  0  0  0  0
  6 18  1  0  0  0  0
  6  7  2  0  0  0  0
  7  8  1  0  0  0  0
  7 26  1  0  0  0  0
  8  9  2  0  0  0  0
  8 27  1  0  0  0  0
  9 10  1  0  0  0  0
  9 17  1  0  0  0  0
 10 11  1  0  0  0  0
 10 28  1  0  0  0  0
 11 12  2  0  0  0  0
 11 13  1  0  0  0  0
 13 16  1  0  0  0  0
 13 14  1  0  0  0  0
 13 29  1  0  0  0  0
 14 15  1  0  0  0  0
 14 30  1  0  0  0  0
 14 31  1  0  0  0  0
 15 16  1  0  0  0  0
 15 32  1  0  0  0  0
 15 33  1  0  0  0  0
 16 34  1  0  0  0  0
 16 35  1  0  0  0  0
 17 18  2  0  0  0  0
 17 36  1  0  0  0  0
M  END
> <s_m_source_file>
AV-unprocessed.smi

> <i_m_source_file_index>
1282

> <i_lp_mmshare_version>
43012

> <i_f3d_flags>
0

> <s_epik_input>
W0NIM11PW0NIMl1bQ0gyXU9jMVtjSF1bY0hdYyhbY0hdbjEpW05IXUMoPU8pW0NIXTJbQ0gyXVtDSDJdW0NIMl0y

> <s_epik_cmdline>
J2VwaWtfcHl0aG9uJywgJy1waCcsICc3LjAnLCAnLXRuJywgJzgnLCAnLW1hJywgJzIwMCcsICctbWV0YWxfYmluZGluZycsICctaW1hZScsICc8aW5maWxlLm1hZT4nLCAnLW9tYWUnLCAnPG91dGZpbGUubWFlPic=

> <r_lp_tautomer_probability>
1

> <r_epik_Ionization_Penalty>
2.67646e-05

> <r_epik_Ionization_Penalty_Charging>
0

> <r_epik_Ionization_Penalty_Neutral>
2.67646e-05

> <r_epik_State_Penalty>
-0

> <r_epik_Charging_Adjusted_Penalty>
0

> <i_epik_Tot_Q>
0

> <i_epik_Tot_abs_Q>
0

> <r_epik_Metal_State_Penalty>
-0

> <b_epik_Metal_Only>
0

> <s_lp_Force_Field>
OPLS_2005

> <r_lp_Energy>
17.3297

> <b_lp_Chiralities_Consistent>
1

> <s_lp_Variant>
AV-unprocessed.smi:1282-1

> <Gold.Version>
5.8.1

> <Gold.Id.Protein>
6NUR|6NUR_protein|mol2

> <Gold.PLP.Fitness>
42.7863

> <Gold.PLP.PLP>
-37.5422

> <Gold.PLP.part.hbond>
-1.0000

> <Gold.PLP.part.metal>
0.0000

> <Gold.PLP.part.buried>
-0.5664

> <Gold.PLP.part.nonpolar>
-37.6635

> <Gold.PLP.part.repulsive>
1.2736

> <Gold.PLP.ligand.clash>
0.0000

> <Gold.PLP.ligand.torsion>
0.5875

> <Gold.PLP.Chemscore.Hbond>
1.0000

> <Gold.PLP.Chemscore.CHOScore>
1.0000

> <Gold.PLP.Chemscore.Metal>
0.0000

> <Gold.Chemscore.Hbonds>
donor molecule, donor type, donor heavy atom, donor atom, acceptor molecule, acceptor atom, score
      L1  H    10    28       P1  8028  0.99
      L1  C    17    36       P1  8028  1.00

> <Gold.PLP.Chemscore.Internal.Correction>
0.4191

> <Gold.Rescore>
     Score         DG    S(hbond)    S(metal)    S(lipo)     H(rot)  DE(clash)    DE(int)     intcor
     13.50     -15.75       0.96        0.00      98.90       1.76       0.61       1.65       ----

> <Gold.Chemscore.Fitness>
13.4955

> <Gold.Chemscore.DG>
-15.7507

> <Gold.Chemscore.ZeroCoef>
-5.4800

> <Gold.Chemscore.Hbond>
0.9621

> <Gold.Chemscore.Metal>
0.0000

> <Gold.Chemscore.Lipo>
98.9027

> <Gold.Chemscore.Internal_Hbond>
0.0000

> <Gold.Chemscore.DEClash>
0.6054

> <Gold.Chemscore.DEInternal>
1.6498

> <Gold.Chemscore.Rot>
1.7634

> <Gold.Chemscore.Internal.Correction>
   9.000000E+99

> <Gold.Chemscore.Hbonds>
donor molecule, donor type, donor heavy atom, donor atom, acceptor molecule, acceptor atom, score
      L1  H    10    28       P1  8028  0.94

> <Gold.Chemscore.Hbond.Weighted>
-3.2133

> <Gold.Chemscore.Metal.Weighted>
-0.0000

> <Gold.Chemscore.Lipo.Weighted>
-11.5716

> <Gold.Chemscore.Internal_Hbond.Weighted>
0.0000

> <Gold.Chemscore.DEClash.Weighted>
0.6054

> <Gold.Chemscore.DEInternal.Weighted>
1.6498

> <Gold.Chemscore.Rot.Weighted>
4.5142

> <Gold.Chemscore.Internal.Correction.Weighted>
   9.000000E+99

> <Gold.Protein.RotatedTorsions>
[ 6907 6896 6895 6894 ] final   13.27 input  -60.11 | X-H torsion
[ 7974 7965 7964 7962 ] final   33.76 input  175.53 | X-H torsion
[ 8008 7997 7996 7995 ] final -111.29 input   59.86 | X-H torsion
[ 10167 10162 10161 10158 ] final  174.88 input  -65.29 | X-H torsion
[ 10718 10713 10712 10709 ] final  -18.53 input   66.30 | X-H torsion
[ 10763 10752 10751 10750 ] final  -20.50 input  -60.55 | X-H torsion
[ 11005 11000 10999 10996 ] final -145.49 input  -57.11 | X-H torsion

> <Gold.Protein.ActiveResidues>
 VAL166  LYS551  ARG553  GLY616  TRP617  ASP618  TYR619  PRO620  LYS621  CYS622 
 ASP623  PHE694  ASN695  SER759  ASP760  ASP761  ALA762  ILE779  LEU786  VAL792 
 PHE793  MET794  SER795  GLU796  ALA797  LYS798  CYS799  TRP800  GLU811  SER814 

> <Gold.Protein.RotatedAtoms>
  151.7836  135.0755  160.0376 H   0  0  0  0  0  0  0  0  0  0  0  0  # atno 6907 bound_to 6896
  152.3206  133.5845  159.5750 H   0  0  0  0  0  0  0  0  0  0  0  0  # atno 6908 bound_to 6896
  150.7367  133.9933  159.3656 H   0  0  0  0  0  0  0  0  0  0  0  0  # atno 6909 bound_to 6896
  146.1399  139.6356  142.9170 H   0  0  0  0  0  0  0  0  0  0  0  0  # atno 7974 bound_to 7965
  154.9876  140.0395  157.2305 H   0  0  0  0  0  0  0  0  0  0  0  0  # atno 8008 bound_to 7997
  154.7658  140.2793  155.6155 H   0  0  0  0  0  0  0  0  0  0  0  0  # atno 8009 bound_to 7997
  156.2912  140.2619  156.2448 H   0  0  0  0  0  0  0  0  0  0  0  0  # atno 8010 bound_to 7997
  139.5157  144.3095  152.0304 H   0  0  0  0  0  0  0  0  0  0  0  0  # atno 10167 bound_to 10162
  156.5583  130.4719  149.6419 H   0  0  0  0  0  0  0  0  0  0  0  0  # atno 10718 bound_to 10713
  153.6214  135.6992  153.5309 H   0  0  0  0  0  0  0  0  0  0  0  0  # atno 10763 bound_to 10752
  153.2934  135.4150  155.1187 H   0  0  0  0  0  0  0  0  0  0  0  0  # atno 10764 bound_to 10752
  154.8542  135.3631  154.5755 H   0  0  0  0  0  0  0  0  0  0  0  0  # atno 10765 bound_to 10752
  140.7917  134.2960  157.5011 H   0  0  0  0  0  0  0  0  0  0  0  0  # atno 11005 bound_to 11000
  145.5071  141.0436  143.2508 LP  0  0  0  0  0  0  0  0  0  0  0  0  # atno 17320 bound_to 7965
  144.7781  139.6586  143.7166 LP  0  0  0  0  0  0  0  0  0  0  0  0  # atno 17321 bound_to 7965
  140.2540  144.4138  150.6211 LP  0  0  0  0  0  0  0  0  0  0  0  0  # atno 17342 bound_to 10162
  140.6204  143.2176  151.6705 LP  0  0  0  0  0  0  0  0  0  0  0  0  # atno 17343 bound_to 10162
  156.2822  130.7077  151.1904 LP  0  0  0  0  0  0  0  0  0  0  0  0  # atno 17370 bound_to 10713
  157.7373  131.0552  150.5360 LP  0  0  0  0  0  0  0  0  0  0  0  0  # atno 17371 bound_to 10713
  139.8730  134.9378  156.3699 LP  0  0  0  0  0  0  0  0  0  0  0  0  # atno 17394 bound_to 11000
  140.9382  133.7532  156.0112 LP  0  0  0  0  0  0  0  0  0  0  0  0  # atno 17395 bound_to 11000

$$$$
