AV-unprocessed.smi:21|AV-procd|sdf|146|dock2
  -GOLD-   2262015353D 1   1.00000     0.00000
 Structure written by MMmdl.
 62 65  0  0  0  0  0  0  0  0  2 V2000
  145.2647  132.9206  150.3207 C   0  0  0  0  0  0  0  0  0  0  0  0
  145.4765  133.4666  151.6129 O   0  0  0  0  0  0  0  0  0  0  0  0
  145.2000  132.5579  152.6708 C   0  0  2  0  0  0  0  0  0  0  0  0
  145.6370  133.1878  153.9860 C   0  0  0  0  0  0  0  0  0  0  0  0
  147.1506  132.9379  154.0378 C   0  0  1  0  0  0  0  0  0  0  0  0
  147.7459  132.9615  155.4682 C   0  0  0  0  0  0  0  0  0  0  0  0
  148.8556  133.9083  155.6007 N   0  0  0  0  0  0  0  0  0  0  0  0
  150.2096  133.4187  155.3737 C   0  0  0  0  0  0  0  0  0  0  0  0
  148.6051  135.2466  155.5583 C   0  0  0  0  0  0  0  0  0  0  0  0
  147.3787  135.6793  155.9549 N   0  0  0  0  0  0  0  0  0  0  0  0
  147.0682  136.9775  155.9248 C   0  0  0  0  0  0  0  0  0  0  0  0
  147.8225  138.0045  155.5351 N   0  0  0  0  0  0  0  0  0  0  0  0
  149.0564  137.5864  155.1354 C   0  0  0  0  0  0  0  0  0  0  0  0
  149.5287  136.2414  155.1121 C   0  0  0  0  0  0  0  0  0  0  0  0
  150.8286  136.2184  154.6163 N   0  0  0  0  0  0  0  0  0  0  0  0
  151.1099  137.4687  154.3739 C   0  0  0  0  0  0  0  0  0  0  0  0
  150.1067  138.3605  154.6736 N   0  0  0  0  0  0  0  0  0  0  0  0
  150.1450  139.8009  154.4920 C   0  0  0  0  0  0  0  0  0  0  0  0
  149.6423  140.6233  155.7080 C   0  0  2  0  0  0  0  0  0  0  0  0
  148.5185  141.5799  155.2460 C   0  0  0  0  0  0  0  0  0  0  0  0
  148.9449  142.4153  154.1889 O   0  0  0  0  0  0  0  0  0  0  0  0
  150.7657  141.3579  156.4972 C   0  0  1  0  0  0  0  0  0  0  0  0
  150.2873  142.1117  157.7284 C   0  0  0  0  0  0  0  0  0  0  0  0
  151.5803  142.3156  158.5036 C   0  0  0  0  0  0  0  0  0  0  0  0
  152.3075  141.1131  158.3035 O   0  0  0  0  0  0  0  0  0  0  0  0
  151.8416  140.4580  157.1273 C   0  0  0  0  0  0  0  0  0  0  0  0
  147.3755  131.6851  153.2583 N   0  3  1  0  0  0  0  0  0  0  0  0
  148.0088  130.5419  153.9574 C   0  0  0  0  0  0  0  0  0  0  0  0
  146.1037  131.3237  152.5883 C   0  0  0  0  0  0  0  0  0  0  0  0
  144.1394  132.3009  152.6944 H   0  0  0  0  0  0  0  0  0  0  0  0
  147.6350  133.7216  153.4537 H   0  0  0  0  0  0  0  0  0  0  0  0
  145.5009  133.6707  149.5662 H   0  0  0  0  0  0  0  0  0  0  0  0
  144.2230  132.6273  150.1848 H   0  0  0  0  0  0  0  0  0  0  0  0
  145.8980  132.0525  150.1374 H   0  0  0  0  0  0  0  0  0  0  0  0
  145.3769  134.2448  154.0557 H   0  0  0  0  0  0  0  0  0  0  0  0
  145.1458  132.6704  154.8112 H   0  0  0  0  0  0  0  0  0  0  0  0
  146.9679  133.1557  156.2061 H   0  0  0  0  0  0  0  0  0  0  0  0
  148.1424  131.9763  155.7138 H   0  0  0  0  0  0  0  0  0  0  0  0
  150.9369  134.0076  155.9336 H   0  0  0  0  0  0  0  0  0  0  0  0
  150.4628  133.4593  154.3141 H   0  0  0  0  0  0  0  0  0  0  0  0
  150.3044  132.3831  155.7018 H   0  0  0  0  0  0  0  0  0  0  0  0
  146.0729  137.2288  156.2607 H   0  0  0  0  0  0  0  0  0  0  0  0
  152.0660  137.7758  153.9752 H   0  0  0  0  0  0  0  0  0  0  0  0
  151.1671  140.0884  154.2424 H   0  0  0  0  0  0  0  0  0  0  0  0
  149.5405  140.0295  153.6135 H   0  0  0  0  0  0  0  0  0  0  0  0
  149.1670  139.9275  156.3999 H   0  0  0  0  0  0  0  0  0  0  0  0
  147.6502  141.0122  154.9107 H   0  0  0  0  0  0  0  0  0  0  0  0
  148.1696  142.2041  156.0683 H   0  0  0  0  0  0  0  0  0  0  0  0
  149.1594  143.2643  154.5439 H   0  0  0  0  0  0  0  0  0  0  0  0
  151.2586  142.0738  155.8374 H   0  0  0  0  0  0  0  0  0  0  0  0
  149.7942  143.0550  157.4916 H   0  0  0  0  0  0  0  0  0  0  0  0
  149.5970  141.4986  158.3098 H   0  0  0  0  0  0  0  0  0  0  0  0
  152.1494  143.1472  158.0860 H   0  0  0  0  0  0  0  0  0  0  0  0
  151.4123  142.5128  159.5626 H   0  0  0  0  0  0  0  0  0  0  0  0
  151.4273  139.4934  157.4226 H   0  0  0  0  0  0  0  0  0  0  0  0
  152.6746  140.2751  156.4498 H   0  0  0  0  0  0  0  0  0  0  0  0
  147.4089  130.2114  154.8062 H   0  0  0  0  0  0  0  0  0  0  0  0
  149.0082  130.7974  154.3094 H   0  0  0  0  0  0  0  0  0  0  0  0
  148.1148  129.6989  153.2737 H   0  0  0  0  0  0  0  0  0  0  0  0
  145.6261  130.5079  153.1338 H   0  0  0  0  0  0  0  0  0  0  0  0
  146.2761  130.9749  151.5705 H   0  0  0  0  0  0  0  0  0  0  0  0
  148.0139  131.9468  152.5205 H   0  0  0  0  0  0  0  0  0  0  0  0
  1  2  1  0  0  0  0
  1 32  1  0  0  0  0
  1 33  1  0  0  0  0
  1 34  1  0  0  0  0
  2  3  1  0  0  0  0
  3 30  1  0  0  0  0
  3 29  1  0  0  0  0
  3  4  1  0  0  0  0
  4  5  1  0  0  0  0
  4 35  1  0  0  0  0
  4 36  1  0  0  0  0
  5 31  1  0  0  0  0
  5  6  1  0  0  0  0
  5 27  1  0  0  0  0
  6  7  1  0  0  0  0
  6 37  1  0  0  0  0
  6 38  1  0  0  0  0
  7  8  1  0  0  0  0
  7  9  1  0  0  0  0
  8 39  1  0  0  0  0
  8 40  1  0  0  0  0
  8 41  1  0  0  0  0
  9 14  1  0  0  0  0
  9 10  2  0  0  0  0
 10 11  1  0  0  0  0
 11 12  2  0  0  0  0
 11 42  1  0  0  0  0
 12 13  1  0  0  0  0
 13 17  1  0  0  0  0
 13 14  2  0  0  0  0
 14 15  1  0  0  0  0
 15 16  2  0  0  0  0
 16 17  1  0  0  0  0
 16 43  1  0  0  0  0
 17 18  1  0  0  0  0
 18 19  1  0  0  0  0
 18 44  1  0  0  0  0
 18 45  1  0  0  0  0
 19 20  1  0  0  0  0
 19 22  1  0  0  0  0
 19 46  1  0  0  0  0
 20 21  1  0  0  0  0
 20 47  1  0  0  0  0
 20 48  1  0  0  0  0
 21 49  1  0  0  0  0
 22 26  1  0  0  0  0
 22 23  1  0  0  0  0
 22 50  1  0  0  0  0
 23 24  1  0  0  0  0
 23 51  1  0  0  0  0
 23 52  1  0  0  0  0
 24 25  1  0  0  0  0
 24 53  1  0  0  0  0
 24 54  1  0  0  0  0
 25 26  1  0  0  0  0
 26 55  1  0  0  0  0
 26 56  1  0  0  0  0
 27 28  1  0  0  0  0
 27 29  1  0  0  0  0
 27 62  1  0  0  0  0
 28 57  1  0  0  0  0
 28 58  1  0  0  0  0
 28 59  1  0  0  0  0
 29 60  1  0  0  0  0
 29 61  1  0  0  0  0
M  CHG  1  27   1
M  END
> <s_m_source_file>
AV-unprocessed.smi

> <i_m_source_file_index>
21

> <i_lp_mmshare_version>
43012

> <i_f3d_flags>
0

> <s_epik_input>
W0NIM11PW0NASF0xW0NIMl1bQ0BIXShOKFtDSDNdKVtDSDJdMSlbQ0gyXU4oW0NIM10pYyhuW2NIXW4yKWMoYzIzKW5bY0hdbjNbQ0gyXVtDQEhdKFtDSDJdW09IXSlbQ0BASF00W0NIMl1bQ0gyXU9bQ0gyXTQ=

> <s_epik_cmdline>
J2VwaWtfcHl0aG9uJywgJy1waCcsICc3LjAnLCAnLXRuJywgJzgnLCAnLW1hJywgJzIwMCcsICctbWV0YWxfYmluZGluZycsICctaW1hZScsICc8aW5maWxlLm1hZT4nLCAnLW9tYWUnLCAnPG91dGZpbGUubWFlPic=

> <r_lp_tautomer_probability>
1

> <r_epik_Ionization_Penalty>
0.0157465

> <r_epik_Ionization_Penalty_Charging>
0.015354

> <r_epik_Ionization_Penalty_Neutral>
0.000392529

> <r_epik_State_Penalty>
0.0120612

> <r_epik_Charging_Adjusted_Penalty>
0.0274152

> <i_epik_Tot_Q>
1

> <i_epik_Tot_abs_Q>
1

> <r_epik_Metal_State_Penalty>
0.0121253

> <b_epik_Metal_Only>
0

> <s_lp_Force_Field>
OPLS_2005

> <r_lp_Energy>
61.785

> <b_lp_Chiralities_Consistent>
1

> <s_lp_Variant>
AV-unprocessed.smi:21-26

> <Gold.Version>
5.8.1

> <Gold.Id.Protein>
6NUR|6NUR_protein|mol2

> <Gold.PLP.Fitness>
42.9073

> <Gold.PLP.PLP>
-39.4019

> <Gold.PLP.part.hbond>
-3.4799

> <Gold.PLP.part.metal>
0.0000

> <Gold.PLP.part.buried>
-5.0884

> <Gold.PLP.part.nonpolar>
-31.5256

> <Gold.PLP.part.repulsive>
0.3997

> <Gold.PLP.ligand.clash>
0.0000

> <Gold.PLP.ligand.torsion>
2.0538

> <Gold.PLP.Chemscore.Hbond>
2.2560

> <Gold.PLP.Chemscore.CHOScore>
0.0000

> <Gold.PLP.Chemscore.Metal>
0.0000

> <Gold.Chemscore.Hbonds>
donor molecule, donor type, donor heavy atom, donor atom, acceptor molecule, acceptor atom, score
      L1  H    21    49       P1  8028  1.00
      P1  H  8011  8017       L1    21  0.18
      P1  H 10752 10765       L1    15  0.40

> <Gold.PLP.Chemscore.Internal.Correction>
0.8451

> <Gold.Rescore>
     Score         DG    S(hbond)    S(metal)    S(lipo)     H(rot)  DE(clash)    DE(int)     intcor
     10.28     -13.59       1.73        0.00      87.34       3.08       0.18       3.12       ----

> <Gold.Chemscore.Fitness>
10.2817

> <Gold.Chemscore.DG>
-13.5886

> <Gold.Chemscore.ZeroCoef>
-5.4800

> <Gold.Chemscore.Hbond>
1.7259

> <Gold.Chemscore.Metal>
0.0000

> <Gold.Chemscore.Lipo>
87.3354

> <Gold.Chemscore.Internal_Hbond>
0.0000

> <Gold.Chemscore.DEClash>
0.1841

> <Gold.Chemscore.DEInternal>
3.1228

> <Gold.Chemscore.Rot>
3.0758

> <Gold.Chemscore.Internal.Correction>
   9.000000E+99

> <Gold.Chemscore.Hbonds>
donor molecule, donor type, donor heavy atom, donor atom, acceptor molecule, acceptor atom, score
      L1  H    21    49       P1  8028  0.98
      P1  H  8011  8017       L1    21  0.07
      P1  H 10752 10765       L1    15  0.05

> <Gold.Chemscore.Hbond.Weighted>
-5.7645

> <Gold.Chemscore.Metal.Weighted>
-0.0000

> <Gold.Chemscore.Lipo.Weighted>
-10.2182

> <Gold.Chemscore.Internal_Hbond.Weighted>
0.0000

> <Gold.Chemscore.DEClash.Weighted>
0.1841

> <Gold.Chemscore.DEInternal.Weighted>
3.1228

> <Gold.Chemscore.Rot.Weighted>
7.8741

> <Gold.Chemscore.Internal.Correction.Weighted>
   9.000000E+99

> <Gold.Protein.RotatedTorsions>
[ 6907 6896 6895 6894 ] final -125.89 input  -60.11 | X-H torsion
[ 7974 7965 7964 7962 ] final  137.89 input  175.53 | X-H torsion
[ 8008 7997 7996 7995 ] final   -3.56 input   59.86 | X-H torsion
[ 10167 10162 10161 10158 ] final   46.00 input  -65.29 | X-H torsion
[ 10718 10713 10712 10709 ] final   27.50 input   66.30 | X-H torsion
[ 10763 10752 10751 10750 ] final -175.19 input  -60.55 | X-H torsion
[ 11005 11000 10999 10996 ] final   82.04 input  -57.11 | X-H torsion

> <Gold.Protein.ActiveResidues>
 VAL166  LYS551  ARG553  GLY616  TRP617  ASP618  TYR619  PRO620  LYS621  CYS622 
 ASP623  PHE694  ASN695  SER759  ASP760  ASP761  ALA762  ILE779  LEU786  VAL792 
 PHE793  MET794  SER795  GLU796  ALA797  LYS798  CYS799  TRP800  GLU811  SER814 

> <Gold.Protein.RotatedAtoms>
  150.8913  133.7239  159.2903 H   0  0  0  0  0  0  0  0  0  0  0  0  # atno 6907 bound_to 6896
  151.4788  135.1049  159.9781 H   0  0  0  0  0  0  0  0  0  0  0  0  # atno 6908 bound_to 6896
  152.4822  133.8235  159.7121 H   0  0  0  0  0  0  0  0  0  0  0  0  # atno 6909 bound_to 6896
  144.9424  139.4914  143.5565 H   0  0  0  0  0  0  0  0  0  0  0  0  # atno 7974 bound_to 7965
  154.6236  140.2506  155.7519 H   0  0  0  0  0  0  0  0  0  0  0  0  # atno 8008 bound_to 7997
  156.2441  140.2921  156.0475 H   0  0  0  0  0  0  0  0  0  0  0  0  # atno 8009 bound_to 7997
  155.1857  140.0390  157.2881 H   0  0  0  0  0  0  0  0  0  0  0  0  # atno 8010 bound_to 7997
  140.3184  144.2736  150.6187 H   0  0  0  0  0  0  0  0  0  0  0  0  # atno 10167 bound_to 10162
  157.2210  130.6979  149.6270 H   0  0  0  0  0  0  0  0  0  0  0  0  # atno 10718 bound_to 10713
  154.5873  135.2841  155.0672 H   0  0  0  0  0  0  0  0  0  0  0  0  # atno 10763 bound_to 10752
  154.1986  135.6428  153.5084 H   0  0  0  0  0  0  0  0  0  0  0  0  # atno 10764 bound_to 10752
  153.0109  135.5463  154.6547 H   0  0  0  0  0  0  0  0  0  0  0  0  # atno 10765 bound_to 10752
  139.9077  134.8042  156.2121 H   0  0  0  0  0  0  0  0  0  0  0  0  # atno 11005 bound_to 11000
  146.3291  139.8453  142.8883 LP  0  0  0  0  0  0  0  0  0  0  0  0  # atno 17320 bound_to 7965
  145.2970  141.0183  143.3630 LP  0  0  0  0  0  0  0  0  0  0  0  0  # atno 17321 bound_to 7965
  140.5506  143.2207  151.7933 LP  0  0  0  0  0  0  0  0  0  0  0  0  # atno 17342 bound_to 10162
  139.4879  144.4481  151.9686 LP  0  0  0  0  0  0  0  0  0  0  0  0  # atno 17343 bound_to 10162
  155.9682  130.4520  150.5756 LP  0  0  0  0  0  0  0  0  0  0  0  0  # atno 17370 bound_to 10713
  157.3576  131.0744  151.1663 LP  0  0  0  0  0  0  0  0  0  0  0  0  # atno 17371 bound_to 10713
  141.0459  133.6914  156.1682 LP  0  0  0  0  0  0  0  0  0  0  0  0  # atno 17394 bound_to 11000
  140.6885  134.4691  157.5589 LP  0  0  0  0  0  0  0  0  0  0  0  0  # atno 17395 bound_to 11000

$$$$
