AV-unprocessed.smi:2519|AV-procd|sdf|9906|dock4
  -GOLD-   2272013543D 1   1.00000     0.00000
 Structure written by MMmdl.
 43 44  0  0  0  0  0  0  0  0  1 V2000
  148.6314  130.3484  160.7794 C   0  0  0  0  0  0  0  0  0  0  0  0
  148.5040  131.7478  161.1544 N   0  0  0  0  0  0  0  0  0  0  0  0
  148.7983  132.7817  160.3487 C   0  0  0  0  0  0  0  0  0  0  0  0
  149.2178  132.6380  159.1993 O   0  0  0  0  0  0  0  0  0  0  0  0
  148.6074  134.1546  160.9395 C   0  0  0  0  0  0  0  0  0  0  0  0
  147.9833  134.3035  162.1982 C   0  0  0  0  0  0  0  0  0  0  0  0
  147.8251  135.5974  162.7256 C   0  0  0  0  0  0  0  0  0  0  0  0
  148.2925  136.6970  161.9827 C   0  0  0  0  0  0  0  0  0  0  0  0
  148.9063  136.4744  160.7316 C   0  0  0  0  0  0  0  0  0  0  0  0
  149.3362  137.6441  160.0526 N   0  0  0  0  0  0  0  0  0  0  0  0
  150.4566  137.8233  159.3245 C   0  0  0  0  0  0  0  0  0  0  0  0
  151.3472  136.9855  159.1913 O   0  0  0  0  0  0  0  0  0  0  0  0
  150.5442  139.0287  158.7325 N   0  0  0  0  0  0  0  0  0  0  0  0
  151.6129  139.5568  157.8775 C   0  0  1  0  0  0  0  0  0  0  0  0
  151.0091  140.1643  156.5969 C   0  0  0  0  0  0  0  0  0  0  0  0
  150.2469  141.4707  156.8780 C   0  0  0  0  0  0  0  0  0  0  0  0
  151.1328  142.4911  157.6102 C   0  0  0  0  0  0  0  0  0  0  0  0
  151.7148  141.9099  158.9158 C   0  0  2  0  0  0  0  0  0  0  0  0
  152.5939  142.9325  159.6647 C   0  0  0  0  0  0  0  0  0  0  0  0
  153.1468  142.3820  160.7459 F   0  0  0  0  0  0  0  0  0  0  0  0
  153.5628  143.3759  158.8635 F   0  0  0  0  0  0  0  0  0  0  0  0
  151.8567  143.9771  160.0421 F   0  0  0  0  0  0  0  0  0  0  0  0
  152.4805  140.6018  158.6163 C   0  0  0  0  0  0  0  0  0  0  0  0
  149.0552  135.2223  160.2357 N   0  0  0  0  0  0  0  0  0  0  0  0
  148.3339  129.7128  161.6133 H   0  0  0  0  0  0  0  0  0  0  0  0
  149.6629  130.1087  160.5181 H   0  0  0  0  0  0  0  0  0  0  0  0
  147.9920  130.1153  159.9270 H   0  0  0  0  0  0  0  0  0  0  0  0
  148.1683  131.9530  162.0851 H   0  0  0  0  0  0  0  0  0  0  0  0
  147.6291  133.4482  162.7554 H   0  0  0  0  0  0  0  0  0  0  0  0
  147.3511  135.7447  163.6848 H   0  0  0  0  0  0  0  0  0  0  0  0
  148.1765  137.6982  162.3720 H   0  0  0  0  0  0  0  0  0  0  0  0
  148.7000  138.4267  160.0908 H   0  0  0  0  0  0  0  0  0  0  0  0
  149.7768  139.6622  158.9048 H   0  0  0  0  0  0  0  0  0  0  0  0
  152.2487  138.7238  157.5729 H   0  0  0  0  0  0  0  0  0  0  0  0
  151.8113  140.3683  155.8862 H   0  0  0  0  0  0  0  0  0  0  0  0
  150.3506  139.4439  156.1098 H   0  0  0  0  0  0  0  0  0  0  0  0
  149.8894  141.8982  155.9410 H   0  0  0  0  0  0  0  0  0  0  0  0
  149.3596  141.2607  157.4765 H   0  0  0  0  0  0  0  0  0  0  0  0
  151.9436  142.8046  156.9517 H   0  0  0  0  0  0  0  0  0  0  0  0
  150.5483  143.3858  157.8256 H   0  0  0  0  0  0  0  0  0  0  0  0
  150.8779  141.6661  159.5720 H   0  0  0  0  0  0  0  0  0  0  0  0
  152.8767  140.1806  159.5403 H   0  0  0  0  0  0  0  0  0  0  0  0
  153.3511  140.8311  158.0006 H   0  0  0  0  0  0  0  0  0  0  0  0
  1  2  1  0  0  0  0
  1 25  1  0  0  0  0
  1 26  1  0  0  0  0
  1 27  1  0  0  0  0
  2  3  1  0  0  0  0
  2 28  1  0  0  0  0
  3  4  2  0  0  0  0
  3  5  1  0  0  0  0
  5 24  1  0  0  0  0
  5  6  2  0  0  0  0
  6  7  1  0  0  0  0
  6 29  1  0  0  0  0
  7  8  2  0  0  0  0
  7 30  1  0  0  0  0
  8  9  1  0  0  0  0
  8 31  1  0  0  0  0
  9 10  1  0  0  0  0
  9 24  2  0  0  0  0
 10 11  1  0  0  0  0
 10 32  1  0  0  0  0
 11 12  2  0  0  0  0
 11 13  1  0  0  0  0
 13 14  1  0  0  0  0
 13 33  1  0  0  0  0
 14 23  1  0  0  0  0
 14 15  1  0  0  0  0
 14 34  1  0  0  0  0
 15 16  1  0  0  0  0
 15 35  1  0  0  0  0
 15 36  1  0  0  0  0
 16 17  1  0  0  0  0
 16 37  1  0  0  0  0
 16 38  1  0  0  0  0
 17 18  1  0  0  0  0
 17 39  1  0  0  0  0
 17 40  1  0  0  0  0
 18 19  1  0  0  0  0
 18 23  1  0  0  0  0
 18 41  1  0  0  0  0
 19 20  1  0  0  0  0
 19 21  1  0  0  0  0
 19 22  1  0  0  0  0
 23 42  1  0  0  0  0
 23 43  1  0  0  0  0
M  END
> <s_m_source_file>
AV-unprocessed.smi

> <i_m_source_file_index>
2519

> <i_lp_mmshare_version>
43012

> <i_f3d_flags>
0

> <s_epik_input>
W0NIM11bTkhdQyg9TyljMVtjSF1bY0hdW2NIXWMobjEpW05IXUMoPU8pW05IXVtDQEBIXTJbQ0gyXVtDSDJdW0NIMl1bQ0BASF0oQyhGKShGKUYpW0NIMl0y

> <s_epik_cmdline>
J2VwaWtfcHl0aG9uJywgJy1waCcsICc3LjAnLCAnLXRuJywgJzgnLCAnLW1hJywgJzIwMCcsICctbWV0YWxfYmluZGluZycsICctaW1hZScsICc8aW5maWxlLm1hZT4nLCAnLW9tYWUnLCAnPG91dGZpbGUubWFlPic=

> <r_lp_tautomer_probability>
1

> <r_epik_Ionization_Penalty>
3.74915e-05

> <r_epik_Ionization_Penalty_Charging>
0

> <r_epik_Ionization_Penalty_Neutral>
3.74915e-05

> <r_epik_State_Penalty>
-0

> <r_epik_Charging_Adjusted_Penalty>
0

> <i_epik_Tot_Q>
0

> <i_epik_Tot_abs_Q>
0

> <r_epik_Metal_State_Penalty>
-0

> <b_epik_Metal_Only>
0

> <s_lp_Force_Field>
OPLS_2005

> <r_lp_Energy>
26.6361

> <b_lp_Chiralities_Consistent>
1

> <s_lp_Variant>
AV-unprocessed.smi:2519-4

> <Gold.Version>
5.8.1

> <Gold.Id.Protein>
6NUR|6NUR_protein|mol2

> <Gold.PLP.Fitness>
42.6434

> <Gold.PLP.PLP>
-40.7164

> <Gold.PLP.part.hbond>
-1.7924

> <Gold.PLP.part.metal>
0.0000

> <Gold.PLP.part.buried>
-5.9365

> <Gold.PLP.part.nonpolar>
-36.1702

> <Gold.PLP.part.repulsive>
1.7192

> <Gold.PLP.ligand.clash>
0.0000

> <Gold.PLP.ligand.torsion>
0.5153

> <Gold.PLP.Chemscore.Hbond>
0.9760

> <Gold.PLP.Chemscore.CHOScore>
0.0000

> <Gold.PLP.Chemscore.Metal>
0.0000

> <Gold.Chemscore.Hbonds>
donor molecule, donor type, donor heavy atom, donor atom, acceptor molecule, acceptor atom, score
      P1  H  6896  6907       L1     4  0.29
      P1  H  6896  6908       L1    12  0.73

> <Gold.PLP.Chemscore.Internal.Correction>
0.0296

> <Gold.Rescore>
     Score         DG    S(hbond)    S(metal)    S(lipo)     H(rot)  DE(clash)    DE(int)     intcor
     13.51     -14.91       0.84        0.00      78.49       1.00       0.04       1.36       ----

> <Gold.Chemscore.Fitness>
13.5058

> <Gold.Chemscore.DG>
-14.9065

> <Gold.Chemscore.ZeroCoef>
-5.4800

> <Gold.Chemscore.Hbond>
0.8393

> <Gold.Chemscore.Metal>
0.0000

> <Gold.Chemscore.Lipo>
78.4897

> <Gold.Chemscore.Internal_Hbond>
0.0000

> <Gold.Chemscore.DEClash>
0.0447

> <Gold.Chemscore.DEInternal>
1.3560

> <Gold.Chemscore.Rot>
1.0000

> <Gold.Chemscore.Internal.Correction>
   9.000000E+99

> <Gold.Chemscore.Hbonds>
donor molecule, donor type, donor heavy atom, donor atom, acceptor molecule, acceptor atom, score
      P1  H  6896  6907       L1     4  0.13
      P1  H  6896  6908       L1    12  0.69

> <Gold.Chemscore.Hbond.Weighted>
-2.8032

> <Gold.Chemscore.Metal.Weighted>
-0.0000

> <Gold.Chemscore.Lipo.Weighted>
-9.1833

> <Gold.Chemscore.Internal_Hbond.Weighted>
0.0000

> <Gold.Chemscore.DEClash.Weighted>
0.0447

> <Gold.Chemscore.DEInternal.Weighted>
1.3560

> <Gold.Chemscore.Rot.Weighted>
2.5600

> <Gold.Chemscore.Internal.Correction.Weighted>
   9.000000E+99

> <Gold.Protein.RotatedTorsions>
[ 6907 6896 6895 6894 ] final -155.97 input  -60.11 | X-H torsion
[ 7974 7965 7964 7962 ] final  136.81 input  175.53 | X-H torsion
[ 8008 7997 7996 7995 ] final  159.55 input   59.86 | X-H torsion
[ 10167 10162 10161 10158 ] final   28.08 input  -65.29 | X-H torsion
[ 10718 10713 10712 10709 ] final  -80.63 input   66.30 | X-H torsion
[ 10763 10752 10751 10750 ] final  -42.01 input  -60.55 | X-H torsion
[ 11005 11000 10999 10996 ] final  111.80 input  -57.11 | X-H torsion

> <Gold.Protein.ActiveResidues>
 VAL166  LYS551  ARG553  GLY616  TRP617  ASP618  TYR619  PRO620  LYS621  CYS622 
 ASP623  PHE694  ASN695  SER759  ASP760  ASP761  ALA762  ILE779  LEU786  VAL792 
 PHE793  MET794  SER795  GLU796  ALA797  LYS798  CYS799  TRP800  GLU811  SER814 

> <Gold.Protein.RotatedAtoms>
  151.2805  133.4212  159.2626 H   0  0  0  0  0  0  0  0  0  0  0  0  # atno 6907 bound_to 6896
  151.0365  134.9577  159.8149 H   0  0  0  0  0  0  0  0  0  0  0  0  # atno 6908 bound_to 6896
  152.5356  134.2764  159.9043 H   0  0  0  0  0  0  0  0  0  0  0  0  # atno 6909 bound_to 6896
  144.9529  139.4798  143.5517 H   0  0  0  0  0  0  0  0  0  0  0  0  # atno 7974 bound_to 7965
  156.2231  140.1828  156.7428 H   0  0  0  0  0  0  0  0  0  0  0  0  # atno 8008 bound_to 7997
  154.5897  140.0652  156.9250 H   0  0  0  0  0  0  0  0  0  0  0  0  # atno 8009 bound_to 7997
  155.2357  140.3318  155.4300 H   0  0  0  0  0  0  0  0  0  0  0  0  # atno 8010 bound_to 7997
  140.4883  144.0507  150.6288 H   0  0  0  0  0  0  0  0  0  0  0  0  # atno 10167 bound_to 10162
  156.0066  130.4580  150.3830 H   0  0  0  0  0  0  0  0  0  0  0  0  # atno 10718 bound_to 10713
  153.9719  135.6727  153.4747 H   0  0  0  0  0  0  0  0  0  0  0  0  # atno 10763 bound_to 10752
  153.0789  135.4934  154.8458 H   0  0  0  0  0  0  0  0  0  0  0  0  # atno 10764 bound_to 10752
  154.7214  135.3118  154.9002 H   0  0  0  0  0  0  0  0  0  0  0  0  # atno 10765 bound_to 10752
  139.8912  134.9516  156.6488 H   0  0  0  0  0  0  0  0  0  0  0  0  # atno 11005 bound_to 11000
  146.3327  139.8627  142.8853 LP  0  0  0  0  0  0  0  0  0  0  0  0  # atno 17320 bound_to 7965
  145.2816  141.0140  143.3714 LP  0  0  0  0  0  0  0  0  0  0  0  0  # atno 17321 bound_to 7965
  140.3769  143.2824  152.0215 LP  0  0  0  0  0  0  0  0  0  0  0  0  # atno 17342 bound_to 10162
  139.4846  144.6186  151.7299 LP  0  0  0  0  0  0  0  0  0  0  0  0  # atno 17343 bound_to 10162
  157.1909  131.0415  151.2700 LP  0  0  0  0  0  0  0  0  0  0  0  0  # atno 17370 bound_to 10713
  157.4062  130.7360  149.6804 LP  0  0  0  0  0  0  0  0  0  0  0  0  # atno 17371 bound_to 10713
  140.7536  133.8876  155.8365 LP  0  0  0  0  0  0  0  0  0  0  0  0  # atno 17394 bound_to 11000
  140.9980  134.1189  157.4345 LP  0  0  0  0  0  0  0  0  0  0  0  0  # atno 17395 bound_to 11000

$$$$
