AV-unprocessed.smi:1302|AV-procd|sdf|5425|dock7
  -GOLD-   22720 4583D 1   1.00000     0.00000
 Structure written by MMmdl.
 43 44  0  0  0  0  0  0  0  0  1 V2000
  156.4597  137.8811  165.8065 C   0  0  0  0  0  0  0  0  0  0  0  0
  156.7047  139.3847  165.6044 C   0  0  0  0  0  0  0  0  0  0  0  0
  156.3343  140.1924  166.8552 C   0  0  0  0  0  0  0  0  0  0  0  0
  155.9371  139.8760  164.4639 N   0  0  0  0  0  0  0  0  0  0  0  0
  156.0244  139.4105  163.2065 C   0  0  0  0  0  0  0  0  0  0  0  0
  156.7986  138.5169  162.8627 O   0  0  0  0  0  0  0  0  0  0  0  0
  155.1495  140.0981  162.1988 C   0  0  0  0  0  0  0  0  0  0  0  0
  154.4517  141.2762  162.5369 C   0  0  0  0  0  0  0  0  0  0  0  0
  153.6591  141.9091  161.5603 C   0  0  0  0  0  0  0  0  0  0  0  0
  153.5867  141.3523  160.2615 C   0  0  0  0  0  0  0  0  0  0  0  0
  152.7954  141.9685  159.2677 N   0  0  0  0  0  0  0  0  0  0  0  0
  152.2822  143.2946  159.6008 C   0  0  0  0  0  0  0  0  0  0  0  0
  151.7169  143.9842  158.3446 C   0  0  2  0  0  0  0  0  0  0  0  0
  151.0552  145.3262  158.6745 C   0  0  0  0  0  0  0  0  0  0  0  0
  150.7386  143.1396  157.7449 O   0  0  0  0  0  0  0  0  0  0  0  0
  151.2816  141.8917  157.3230 C   0  0  2  0  0  0  0  0  0  0  0  0
  150.1786  141.1033  156.6095 C   0  0  0  0  0  0  0  0  0  0  0  0
  151.8290  141.1398  158.5500 C   0  0  0  0  0  0  0  0  0  0  0  0
  154.2731  140.2301  159.9331 N   0  0  0  0  0  0  0  0  0  0  0  0
  155.0310  139.6265  160.8726 C   0  0  0  0  0  0  0  0  0  0  0  0
  157.0355  137.5018  166.6509 H   0  0  0  0  0  0  0  0  0  0  0  0
  156.7550  137.3098  164.9259 H   0  0  0  0  0  0  0  0  0  0  0  0
  155.4070  137.6728  166.0014 H   0  0  0  0  0  0  0  0  0  0  0  0
  157.7680  139.5402  165.4132 H   0  0  0  0  0  0  0  0  0  0  0  0
  156.9146  139.8649  167.7184 H   0  0  0  0  0  0  0  0  0  0  0  0
  155.2782  140.0812  167.1031 H   0  0  0  0  0  0  0  0  0  0  0  0
  156.5331  141.2549  166.7098 H   0  0  0  0  0  0  0  0  0  0  0  0
  155.2892  140.6291  164.6449 H   0  0  0  0  0  0  0  0  0  0  0  0
  154.5173  141.6960  163.5304 H   0  0  0  0  0  0  0  0  0  0  0  0
  153.1324  142.8170  161.8137 H   0  0  0  0  0  0  0  0  0  0  0  0
  151.5008  143.1867  160.3544 H   0  0  0  0  0  0  0  0  0  0  0  0
  153.0548  143.9274  160.0354 H   0  0  0  0  0  0  0  0  0  0  0  0
  152.5225  144.1617  157.6297 H   0  0  0  0  0  0  0  0  0  0  0  0
  151.7697  146.0161  159.1241 H   0  0  0  0  0  0  0  0  0  0  0  0
  150.2284  145.1972  159.3736 H   0  0  0  0  0  0  0  0  0  0  0  0
  150.6597  145.7971  157.7743 H   0  0  0  0  0  0  0  0  0  0  0  0
  152.0905  142.0745  156.6133 H   0  0  0  0  0  0  0  0  0  0  0  0
  150.5489  140.1395  156.2592 H   0  0  0  0  0  0  0  0  0  0  0  0
  149.8065  141.6511  155.7434 H   0  0  0  0  0  0  0  0  0  0  0  0
  149.3342  140.9168  157.2737 H   0  0  0  0  0  0  0  0  0  0  0  0
  152.2993  140.2110  158.2243 H   0  0  0  0  0  0  0  0  0  0  0  0
  151.0133  140.8748  159.2243 H   0  0  0  0  0  0  0  0  0  0  0  0
  155.5590  138.7430  160.5442 H   0  0  0  0  0  0  0  0  0  0  0  0
  1  2  1  0  0  0  0
  1 21  1  0  0  0  0
  1 22  1  0  0  0  0
  1 23  1  0  0  0  0
  2  3  1  0  0  0  0
  2  4  1  0  0  0  0
  2 24  1  0  0  0  0
  3 25  1  0  0  0  0
  3 26  1  0  0  0  0
  3 27  1  0  0  0  0
  4  5  1  0  0  0  0
  4 28  1  0  0  0  0
  5  6  2  0  0  0  0
  5  7  1  0  0  0  0
  7 20  1  0  0  0  0
  7  8  2  0  0  0  0
  8  9  1  0  0  0  0
  8 29  1  0  0  0  0
  9 10  2  0  0  0  0
  9 30  1  0  0  0  0
 10 11  1  0  0  0  0
 10 19  1  0  0  0  0
 11 18  1  0  0  0  0
 11 12  1  0  0  0  0
 12 13  1  0  0  0  0
 12 31  1  0  0  0  0
 12 32  1  0  0  0  0
 13 14  1  0  0  0  0
 13 15  1  0  0  0  0
 13 33  1  0  0  0  0
 14 34  1  0  0  0  0
 14 35  1  0  0  0  0
 14 36  1  0  0  0  0
 15 16  1  0  0  0  0
 16 17  1  0  0  0  0
 16 18  1  0  0  0  0
 16 37  1  0  0  0  0
 17 38  1  0  0  0  0
 17 39  1  0  0  0  0
 17 40  1  0  0  0  0
 18 41  1  0  0  0  0
 18 42  1  0  0  0  0
 19 20  2  0  0  0  0
 20 43  1  0  0  0  0
M  END
> <s_m_source_file>
AV-unprocessed.smi

> <i_m_source_file_index>
1302

> <i_lp_mmshare_version>
43012

> <i_f3d_flags>
0

> <s_epik_input>
W0NIM11bQ0hdKFtDSDNdKVtOSF1DKD1PKWMxW2NIXVtjSF1jKG5bY0hdMSlOMltDSDJdW0NAQEhdKFtDSDNdKU9bQ0BASF0oW0NIM10pW0NIMl0y

> <s_epik_cmdline>
J2VwaWtfcHl0aG9uJywgJy1waCcsICc3LjAnLCAnLXRuJywgJzgnLCAnLW1hJywgJzIwMCcsICctbWV0YWxfYmluZGluZycsICctaW1hZScsICc8aW5maWxlLm1hZT4nLCAnLW9tYWUnLCAnPG91dGZpbGUubWFlPic=

> <r_lp_tautomer_probability>
1

> <r_epik_Ionization_Penalty>
2.23089e-05

> <r_epik_Ionization_Penalty_Charging>
0

> <r_epik_Ionization_Penalty_Neutral>
2.23089e-05

> <r_epik_State_Penalty>
-0

> <r_epik_Charging_Adjusted_Penalty>
0

> <i_epik_Tot_Q>
0

> <i_epik_Tot_abs_Q>
0

> <r_epik_Metal_State_Penalty>
-0

> <b_epik_Metal_Only>
0

> <s_lp_Force_Field>
OPLS_2005

> <r_lp_Energy>
16.9164

> <b_lp_Chiralities_Consistent>
1

> <s_lp_Variant>
AV-unprocessed.smi:1302-1

> <Gold.Version>
5.8.1

> <Gold.Id.Protein>
6NUR|6NUR_protein|mol2

> <Gold.PLP.Fitness>
36.7362

> <Gold.PLP.PLP>
-36.8179

> <Gold.PLP.part.hbond>
0.0000

> <Gold.PLP.part.metal>
0.0000

> <Gold.PLP.part.buried>
-3.7153

> <Gold.PLP.part.nonpolar>
-33.0531

> <Gold.PLP.part.repulsive>
0.1606

> <Gold.PLP.ligand.clash>
0.0000

> <Gold.PLP.ligand.torsion>
0.2103

> <Gold.PLP.Chemscore.Hbond>
0.0000

> <Gold.PLP.Chemscore.CHOScore>
0.0000

> <Gold.PLP.Chemscore.Metal>
0.0000

> <Gold.PLP.Chemscore.Internal.Correction>
0.3390

> <Gold.Rescore>
     Score         DG    S(hbond)    S(metal)    S(lipo)     H(rot)  DE(clash)    DE(int)     intcor
     14.06     -14.30       0.00        0.00     100.53       1.15       0.01       0.23       ----

> <Gold.Chemscore.Fitness>
14.0611

> <Gold.Chemscore.DG>
-14.2961

> <Gold.Chemscore.ZeroCoef>
-5.4800

> <Gold.Chemscore.Hbond>
0.0000

> <Gold.Chemscore.Metal>
0.0000

> <Gold.Chemscore.Lipo>
100.5320

> <Gold.Chemscore.Internal_Hbond>
0.0000

> <Gold.Chemscore.DEClash>
0.0088

> <Gold.Chemscore.DEInternal>
0.2262

> <Gold.Chemscore.Rot>
1.1508

> <Gold.Chemscore.Internal.Correction>
   9.000000E+99

> <Gold.Chemscore.Hbond.Weighted>
-0.0000

> <Gold.Chemscore.Metal.Weighted>
-0.0000

> <Gold.Chemscore.Lipo.Weighted>
-11.7622

> <Gold.Chemscore.Internal_Hbond.Weighted>
0.0000

> <Gold.Chemscore.DEClash.Weighted>
0.0088

> <Gold.Chemscore.DEInternal.Weighted>
0.2262

> <Gold.Chemscore.Rot.Weighted>
2.9461

> <Gold.Chemscore.Internal.Correction.Weighted>
   9.000000E+99

> <Gold.Protein.RotatedTorsions>
[ 6907 6896 6895 6894 ] final -146.56 input  -60.11 | X-H torsion
[ 7974 7965 7964 7962 ] final  115.79 input  175.53 | X-H torsion
[ 8008 7997 7996 7995 ] final  -93.00 input   59.86 | X-H torsion
[ 10167 10162 10161 10158 ] final  -55.93 input  -65.29 | X-H torsion
[ 10718 10713 10712 10709 ] final  100.56 input   66.30 | X-H torsion
[ 10763 10752 10751 10750 ] final -174.68 input  -60.55 | X-H torsion
[ 11005 11000 10999 10996 ] final  172.20 input  -57.11 | X-H torsion

> <Gold.Protein.ActiveResidues>
 VAL166  LYS551  ARG553  GLY616  TRP617  ASP618  TYR619  PRO620  LYS621  CYS622 
 ASP623  PHE694  ASN695  SER759  ASP760  ASP761  ALA762  ILE779  LEU786  VAL792 
 PHE793  MET794  SER795  GLU796  ALA797  LYS798  CYS799  TRP800  GLU811  SER814 

> <Gold.Protein.RotatedAtoms>
  151.1434  133.4956  159.2596 H   0  0  0  0  0  0  0  0  0  0  0  0  # atno 6907 bound_to 6896
  151.1631  135.0282  159.8729 H   0  0  0  0  0  0  0  0  0  0  0  0  # atno 6908 bound_to 6896
  152.5462  134.1305  159.8490 H   0  0  0  0  0  0  0  0  0  0  0  0  # atno 6909 bound_to 6896
  145.1876  139.3017  143.4385 H   0  0  0  0  0  0  0  0  0  0  0  0  # atno 7974 bound_to 7965
  154.7302  140.0503  157.0719 H   0  0  0  0  0  0  0  0  0  0  0  0  # atno 8008 bound_to 7997
  155.0312  140.3158  155.4738 H   0  0  0  0  0  0  0  0  0  0  0  0  # atno 8009 bound_to 7997
  156.2839  140.2149  156.5433 H   0  0  0  0  0  0  0  0  0  0  0  0  # atno 8010 bound_to 7997
  140.6346  143.2476  151.5151 H   0  0  0  0  0  0  0  0  0  0  0  0  # atno 10167 bound_to 10162
  157.6851  131.0702  150.5119 H   0  0  0  0  0  0  0  0  0  0  0  0  # atno 10718 bound_to 10713
  154.5934  135.2847  155.0612 H   0  0  0  0  0  0  0  0  0  0  0  0  # atno 10763 bound_to 10752
  154.1904  135.6441  153.5062 H   0  0  0  0  0  0  0  0  0  0  0  0  # atno 10764 bound_to 10752
  153.0129  135.5445  154.6627 H   0  0  0  0  0  0  0  0  0  0  0  0  # atno 10765 bound_to 10752
  140.3272  134.7388  157.4108 H   0  0  0  0  0  0  0  0  0  0  0  0  # atno 11005 bound_to 11000
  146.3442  140.2077  142.8590 LP  0  0  0  0  0  0  0  0  0  0  0  0  # atno 17320 bound_to 7965
  145.0073  140.8684  143.5245 LP  0  0  0  0  0  0  0  0  0  0  0  0  # atno 17321 bound_to 7965
  139.5558  144.2280  152.1609 LP  0  0  0  0  0  0  0  0  0  0  0  0  # atno 17342 bound_to 10162
  140.1533  144.5094  150.6674 LP  0  0  0  0  0  0  0  0  0  0  0  0  # atno 17343 bound_to 10162
  156.5436  130.4214  149.6142 LP  0  0  0  0  0  0  0  0  0  0  0  0  # atno 17370 bound_to 10713
  156.2964  130.7152  151.2013 LP  0  0  0  0  0  0  0  0  0  0  0  0  # atno 17371 bound_to 10713
  140.0891  134.5625  155.8462 LP  0  0  0  0  0  0  0  0  0  0  0  0  # atno 17394 bound_to 11000
  141.2072  133.6662  156.6292 LP  0  0  0  0  0  0  0  0  0  0  0  0  # atno 17395 bound_to 11000

$$$$
