AV-unprocessed.smi:103|AV-procd|sdf|989|dock1
  -GOLD-   2262017563D 1   1.00000     0.00000
 Structure written by MMmdl.
 53 55  0  0  0  0  0  0  0  0  1 V2000
  147.6633  135.7200  163.1711 C   0  0  0  0  0  0  0  0  0  0  0  0
  146.8641  136.3837  162.0579 C   0  0  0  0  0  0  0  0  0  0  0  0
  147.3904  137.1711  161.2712 O   0  0  0  0  0  0  0  0  0  0  0  0
  145.5722  136.0077  162.0600 O   0  0  0  0  0  0  0  0  0  0  0  0
  144.6589  136.5692  161.1278 C   0  0  0  0  0  0  0  0  0  0  0  0
  144.9280  136.0349  159.7035 C   0  0  2  0  0  0  0  0  0  0  0  0
  144.9929  137.1180  158.7838 O   0  0  0  0  0  0  0  0  0  0  0  0
  143.7033  137.4682  158.3901 C   0  0  1  0  0  0  0  0  0  0  0  0
  143.7478  137.8867  156.9553 N   0  0  0  0  0  0  0  0  0  0  0  0
  144.1600  139.0784  156.3920 C   0  0  0  0  0  0  0  0  0  0  0  0
  144.7465  140.5256  157.2674 S   0  0  0  0  0  0  0  0  0  0  0  0
  145.2853  141.6171  155.8886 C   0  0  0  0  0  0  0  0  0  0  0  0
  143.5842  141.1247  157.9408 O   0  0  0  0  0  0  0  0  0  0  0  0
  145.9271  140.1116  158.0421 O   0  0  0  0  0  0  0  0  0  0  0  0
  144.0528  139.1810  155.0948 N   0  0  0  0  0  0  0  0  0  0  0  0
  143.5712  137.9350  154.7191 C   0  0  0  0  0  0  0  0  0  0  0  0
  143.2407  137.3402  153.4755 C   0  0  0  0  0  0  0  0  0  0  0  0
  143.3607  137.9802  152.3042 N   0  0  0  0  0  0  0  0  0  0  0  0
  142.7840  136.0661  153.4688 N   0  0  0  0  0  0  0  0  0  0  0  0
  142.6565  135.4062  154.6246 C   0  0  0  0  0  0  0  0  0  0  0  0
  142.9223  135.8306  155.8630 N   0  0  0  0  0  0  0  0  0  0  0  0
  143.3840  137.1157  155.8690 C   0  0  0  0  0  0  0  0  0  0  0  0
  142.8018  136.2401  158.5836 C   0  0  2  0  0  0  0  0  0  0  0  0
  141.7871  136.5671  159.5284 O   0  0  0  0  0  0  0  0  0  0  0  0
  140.5675  136.9526  159.1159 C   0  0  0  0  0  0  0  0  0  0  0  0
  139.6397  137.2731  160.2795 C   0  0  0  0  0  0  0  0  0  0  0  0
  140.1920  137.0501  157.9478 O   0  0  0  0  0  0  0  0  0  0  0  0
  143.7842  135.1983  159.1161 C   0  0  2  0  0  0  0  0  0  0  0  0
  143.1851  134.2883  160.0333 O   0  0  0  0  0  0  0  0  0  0  0  0
  142.5432  133.1965  159.5853 C   0  0  0  0  0  0  0  0  0  0  0  0
  142.0479  132.3102  160.7199 C   0  0  0  0  0  0  0  0  0  0  0  0
  142.3558  132.8984  158.4059 O   0  0  0  0  0  0  0  0  0  0  0  0
  147.2523  135.9892  164.1440 H   0  0  0  0  0  0  0  0  0  0  0  0
  148.7055  136.0378  163.1364 H   0  0  0  0  0  0  0  0  0  0  0  0
  147.6293  134.6353  163.0675 H   0  0  0  0  0  0  0  0  0  0  0  0
  143.6616  136.2648  161.4446 H   0  0  0  0  0  0  0  0  0  0  0  0
  144.6693  137.6592  161.1628 H   0  0  0  0  0  0  0  0  0  0  0  0
  145.8609  135.4703  159.6916 H   0  0  0  0  0  0  0  0  0  0  0  0
  143.3634  138.3354  158.9504 H   0  0  0  0  0  0  0  0  0  0  0  0
  145.6965  142.5395  156.2973 H   0  0  0  0  0  0  0  0  0  0  0  0
  144.4351  141.8529  155.2510 H   0  0  0  0  0  0  0  0  0  0  0  0
  146.0490  141.1088  155.3004 H   0  0  0  0  0  0  0  0  0  0  0  0
  143.7005  138.9310  152.2838 H   0  0  0  0  0  0  0  0  0  0  0  0
  143.1181  137.5095  151.4445 H   0  0  0  0  0  0  0  0  0  0  0  0
  142.2875  134.3940  154.5467 H   0  0  0  0  0  0  0  0  0  0  0  0
  142.3793  135.9317  157.6259 H   0  0  0  0  0  0  0  0  0  0  0  0
  140.0380  138.1039  160.8621 H   0  0  0  0  0  0  0  0  0  0  0  0
  139.5396  136.4065  160.9331 H   0  0  0  0  0  0  0  0  0  0  0  0
  138.6494  137.5486  159.9163 H   0  0  0  0  0  0  0  0  0  0  0  0
  144.1689  134.6485  158.2562 H   0  0  0  0  0  0  0  0  0  0  0  0
  141.3990  132.8772  161.3874 H   0  0  0  0  0  0  0  0  0  0  0  0
  142.8904  131.9279  161.2967 H   0  0  0  0  0  0  0  0  0  0  0  0
  141.4846  131.4635  160.3271 H   0  0  0  0  0  0  0  0  0  0  0  0
  1  2  1  0  0  0  0
  1 33  1  0  0  0  0
  1 34  1  0  0  0  0
  1 35  1  0  0  0  0
  2  3  2  0  0  0  0
  2  4  1  0  0  0  0
  4  5  1  0  0  0  0
  5  6  1  0  0  0  0
  5 36  1  0  0  0  0
  5 37  1  0  0  0  0
  6 28  1  0  0  0  0
  6  7  1  0  0  0  0
  6 38  1  0  0  0  0
  7  8  1  0  0  0  0
  8  9  1  0  0  0  0
  8 23  1  0  0  0  0
  8 39  1  0  0  0  0
  9 22  1  0  0  0  0
  9 10  1  0  0  0  0
 10 11  1  0  0  0  0
 10 15  2  0  0  0  0
 11 12  1  0  0  0  0
 11 13  2  0  0  0  0
 11 14  2  0  0  0  0
 12 40  1  0  0  0  0
 12 41  1  0  0  0  0
 12 42  1  0  0  0  0
 15 16  1  0  0  0  0
 16 22  2  0  0  0  0
 16 17  1  0  0  0  0
 17 18  1  0  0  0  0
 17 19  2  0  0  0  0
 18 43  1  0  0  0  0
 18 44  1  0  0  0  0
 19 20  1  0  0  0  0
 20 21  2  0  0  0  0
 20 45  1  0  0  0  0
 21 22  1  0  0  0  0
 23 24  1  0  0  0  0
 23 28  1  0  0  0  0
 23 46  1  0  0  0  0
 24 25  1  0  0  0  0
 25 26  1  0  0  0  0
 25 27  2  0  0  0  0
 26 47  1  0  0  0  0
 26 48  1  0  0  0  0
 26 49  1  0  0  0  0
 28 29  1  0  0  0  0
 28 50  1  0  0  0  0
 29 30  1  0  0  0  0
 30 31  1  0  0  0  0
 30 32  2  0  0  0  0
 31 51  1  0  0  0  0
 31 52  1  0  0  0  0
 31 53  1  0  0  0  0
M  END
> <s_m_source_file>
AV-unprocessed.smi

> <i_m_source_file_index>
103

> <i_lp_mmshare_version>
43012

> <i_f3d_flags>
0

> <s_epik_input>
W0NIM11DKD1PKU9bQ0gyXVtDQEBIXTFPW0NASF0oW0NAQEhdKE9DKD1PKVtDSDNdKVtDQEhdMU9DKD1PKVtDSDNdKW4oYyhuMilTKD1PKSg9TylbQ0gzXSljKGMyMyluW2NIXW5jM1tOSDJd

> <s_epik_cmdline>
J2VwaWtfcHl0aG9uJywgJy1waCcsICc3LjAnLCAnLXRuJywgJzgnLCAnLW1hJywgJzIwMCcsICctbWV0YWxfYmluZGluZycsICctaW1hZScsICc8aW5maWxlLm1hZT4nLCAnLW9tYWUnLCAnPG91dGZpbGUubWFlPic=

> <r_lp_tautomer_probability>
1

> <r_epik_Ionization_Penalty>
1.51338e-05

> <r_epik_Ionization_Penalty_Charging>
0

> <r_epik_Ionization_Penalty_Neutral>
1.51338e-05

> <r_epik_State_Penalty>
-0

> <r_epik_Charging_Adjusted_Penalty>
0

> <i_epik_Tot_Q>
0

> <i_epik_Tot_abs_Q>
0

> <r_epik_Metal_State_Penalty>
-0

> <b_epik_Metal_Only>
0

> <s_epik_Chemistry_Notes>
This compound has an ester and may undergo hydrolysis at high or low pH. This compound contains an acetal/aminal-like group ( X-CH(R)-Y where X, Y are N, S, or O) that may be acid/base labile, releasing an aldehyde.

> <s_lp_Force_Field>
OPLS_2005

> <r_lp_Energy>
21.2574

> <b_lp_Chiralities_Consistent>
1

> <s_lp_Variant>
AV-unprocessed.smi:103-13

> <Gold.Version>
5.8.1

> <Gold.Id.Protein>
6NUR|6NUR_protein|mol2

> <Gold.PLP.Fitness>
34.7780

> <Gold.PLP.PLP>
-23.5500

> <Gold.PLP.part.hbond>
-6.0582

> <Gold.PLP.part.metal>
0.0000

> <Gold.PLP.part.buried>
-5.2725

> <Gold.PLP.part.nonpolar>
-13.1858

> <Gold.PLP.part.repulsive>
1.4454

> <Gold.PLP.ligand.clash>
0.0000

> <Gold.PLP.ligand.torsion>
3.2107

> <Gold.PLP.Chemscore.Hbond>
4.0823

> <Gold.PLP.Chemscore.CHOScore>
1.0000

> <Gold.PLP.Chemscore.Metal>
0.0000

> <Gold.Chemscore.Hbonds>
donor molecule, donor type, donor heavy atom, donor atom, acceptor molecule, acceptor atom, score
      L1  H    18    43       P1 10175  0.94
      L1  H    18    44       P1 10171  0.19
      P1  H  6931  6943       L1     3  0.83
      P1  H  6934  6947       L1     3  0.99
      P1  H 11000 11005       L1    27  0.39
      L1  C    20    45       P1 10957  0.69
      L1  C    20    45       P1 11000  0.07

> <Gold.PLP.Chemscore.Internal.Correction>
2.4025

> <Gold.Rescore>
     Score         DG    S(hbond)    S(metal)    S(lipo)     H(rot)  DE(clash)    DE(int)     intcor
      5.04     -10.25       3.70        0.00      27.96       4.25       0.56       4.66       ----

> <Gold.Chemscore.Fitness>
5.0357

> <Gold.Chemscore.DG>
-10.2538

> <Gold.Chemscore.ZeroCoef>
-5.4800

> <Gold.Chemscore.Hbond>
3.7040

> <Gold.Chemscore.Metal>
0.0000

> <Gold.Chemscore.Lipo>
27.9571

> <Gold.Chemscore.Internal_Hbond>
0.0000

> <Gold.Chemscore.DEClash>
0.5584

> <Gold.Chemscore.DEInternal>
4.6597

> <Gold.Chemscore.Rot>
4.2456

> <Gold.Chemscore.Internal.Correction>
   9.000000E+99

> <Gold.Chemscore.Hbonds>
donor molecule, donor type, donor heavy atom, donor atom, acceptor molecule, acceptor atom, score
      L1  H    18    43       P1 10175  0.89
      L1  H    18    44       P1 10171  0.12
      P1  H  6931  6943       L1     3  0.76
      P1  H  6934  6947       L1     3  0.93
      P1  H 11000 11005       L1    27  0.09

> <Gold.Chemscore.Hbond.Weighted>
-12.3715

> <Gold.Chemscore.Metal.Weighted>
-0.0000

> <Gold.Chemscore.Lipo.Weighted>
-3.2710

> <Gold.Chemscore.Internal_Hbond.Weighted>
0.0000

> <Gold.Chemscore.DEClash.Weighted>
0.5584

> <Gold.Chemscore.DEInternal.Weighted>
4.6597

> <Gold.Chemscore.Rot.Weighted>
10.8687

> <Gold.Chemscore.Internal.Correction.Weighted>
   9.000000E+99

> <Gold.Protein.RotatedTorsions>
[ 6907 6896 6895 6894 ] final  -38.64 input  -60.11 | X-H torsion
[ 7974 7965 7964 7962 ] final -140.86 input  175.53 | X-H torsion
[ 8008 7997 7996 7995 ] final  -57.37 input   59.86 | X-H torsion
[ 10167 10162 10161 10158 ] final   13.94 input  -65.29 | X-H torsion
[ 10718 10713 10712 10709 ] final   94.41 input   66.30 | X-H torsion
[ 10763 10752 10751 10750 ] final -173.38 input  -60.55 | X-H torsion
[ 11005 11000 10999 10996 ] final  165.60 input  -57.11 | X-H torsion

> <Gold.Protein.ActiveResidues>
 VAL166  LYS551  ARG553  GLY616  TRP617  ASP618  TYR619  PRO620  LYS621  CYS622 
 ASP623  PHE694  ASN695  SER759  ASP760  ASP761  ALA762  ILE779  LEU786  VAL792 
 PHE793  MET794  SER795  GLU796  ALA797  LYS798  CYS799  TRP800  GLU811  SER814 

> <Gold.Protein.RotatedAtoms>
  150.9999  134.9314  159.7947 H   0  0  0  0  0  0  0  0  0  0  0  0  # atno 6907 bound_to 6896
  152.5275  134.3168  159.9143 H   0  0  0  0  0  0  0  0  0  0  0  0  # atno 6908 bound_to 6896
  151.3174  133.4013  159.2686 H   0  0  0  0  0  0  0  0  0  0  0  0  # atno 6909 bound_to 6896
  144.8564  140.6149  143.5356 H   0  0  0  0  0  0  0  0  0  0  0  0  # atno 7974 bound_to 7965
  154.4265  140.1108  156.5787 H   0  0  0  0  0  0  0  0  0  0  0  0  # atno 8008 bound_to 7997
  155.6135  140.3494  155.4611 H   0  0  0  0  0  0  0  0  0  0  0  0  # atno 8009 bound_to 7997
  156.0080  140.1213  157.0471 H   0  0  0  0  0  0  0  0  0  0  0  0  # atno 8010 bound_to 7997
  140.5969  143.8683  150.6927 H   0  0  0  0  0  0  0  0  0  0  0  0  # atno 10167 bound_to 10162
  157.6948  131.0511  150.4183 H   0  0  0  0  0  0  0  0  0  0  0  0  # atno 10718 bound_to 10713
  154.6085  135.2862  155.0458 H   0  0  0  0  0  0  0  0  0  0  0  0  # atno 10763 bound_to 10752
  154.1697  135.6474  153.5010 H   0  0  0  0  0  0  0  0  0  0  0  0  # atno 10764 bound_to 10752
  153.0185  135.5398  154.6829 H   0  0  0  0  0  0  0  0  0  0  0  0  # atno 10765 bound_to 10752
  140.2578  134.7926  157.3562 H   0  0  0  0  0  0  0  0  0  0  0  0  # atno 11005 bound_to 11000
  145.4397  139.1537  143.3977 LP  0  0  0  0  0  0  0  0  0  0  0  0  # atno 17320 bound_to 7965
  146.2826  140.4518  142.8770 LP  0  0  0  0  0  0  0  0  0  0  0  0  # atno 17321 bound_to 7965
  140.2220  143.3802  152.1635 LP  0  0  0  0  0  0  0  0  0  0  0  0  # atno 17342 bound_to 10162
  139.5264  144.7107  151.5214 LP  0  0  0  0  0  0  0  0  0  0  0  0  # atno 17343 bound_to 10162
  156.4560  130.4022  149.6606 LP  0  0  0  0  0  0  0  0  0  0  0  0  # atno 17370 bound_to 10713
  156.3738  130.7544  151.2530 LP  0  0  0  0  0  0  0  0  0  0  0  0  # atno 17371 bound_to 10713
  140.1494  134.4869  155.7972 LP  0  0  0  0  0  0  0  0  0  0  0  0  # atno 17394 bound_to 11000
  141.2194  133.6856  156.7352 LP  0  0  0  0  0  0  0  0  0  0  0  0  # atno 17395 bound_to 11000

$$$$
