AV-unprocessed.smi:2783|AV-procd|sdf|10723|dock4
  -GOLD-   2272015163D 1   1.00000     0.00000
 Structure written by MMmdl.
 29 29  0  0  0  0  0  0  0  0  3 V2000
  151.3735  144.4003  160.3440 C   0  0  0  0  0  0  0  0  0  0  0  0
  150.7567  143.4263  159.5038 O   0  0  0  0  0  0  0  0  0  0  0  0
  151.5171  142.8966  158.4076 C   0  0  0  0  0  0  0  0  0  0  0  0
  151.8159  144.0986  157.4942 C   0  0  0  0  0  0  0  0  0  0  0  0
  152.8502  142.2933  158.9098 C   0  0  0  0  0  0  0  0  0  0  0  0
  150.6884  141.8614  157.6108 C   0  0  0  0  0  0  0  0  0  0  0  0
  149.5508  141.5797  157.9872 O   0  0  0  0  0  0  0  0  0  0  0  0
  151.2976  141.3059  156.5450 N   0  0  0  0  0  0  0  0  0  0  0  0
  150.8289  140.3412  155.6066 C   0  0  0  0  0  0  0  0  0  0  0  0
  149.5145  140.3220  155.0713 C   0  0  0  0  0  0  0  0  0  0  0  0
  149.1570  139.3229  154.1435 C   0  0  0  0  0  0  0  0  0  0  0  0
  150.0619  138.3963  153.7659 N   0  3  0  0  0  0  0  0  0  0  0  0
  151.3244  138.3763  154.2400 C   0  0  0  0  0  0  0  0  0  0  0  0
  151.7433  139.3480  155.1711 C   0  0  0  0  0  0  0  0  0  0  0  0
  153.0290  139.3096  155.6343 O   0  5  0  0  0  0  0  0  0  0  0  0
  150.7214  144.5995  161.1941 H   0  0  0  0  0  0  0  0  0  0  0  0
  151.5175  145.3454  159.8204 H   0  0  0  0  0  0  0  0  0  0  0  0
  152.3348  144.0715  160.7385 H   0  0  0  0  0  0  0  0  0  0  0  0
  152.4012  143.8054  156.6216 H   0  0  0  0  0  0  0  0  0  0  0  0
  152.3819  144.8638  158.0266 H   0  0  0  0  0  0  0  0  0  0  0  0
  150.8977  144.5654  157.1350 H   0  0  0  0  0  0  0  0  0  0  0  0
  153.5174  142.0547  158.0807 H   0  0  0  0  0  0  0  0  0  0  0  0
  152.6982  141.3722  159.4735 H   0  0  0  0  0  0  0  0  0  0  0  0
  153.3772  142.9950  159.5567 H   0  0  0  0  0  0  0  0  0  0  0  0
  152.2479  141.6104  156.3854 H   0  0  0  0  0  0  0  0  0  0  0  0
  148.7680  141.0503  155.3421 H   0  0  0  0  0  0  0  0  0  0  0  0
  148.1792  139.2405  153.6926 H   0  0  0  0  0  0  0  0  0  0  0  0
  151.9593  137.5884  153.8614 H   0  0  0  0  0  0  0  0  0  0  0  0
  149.7827  137.6826  153.0928 H   0  0  0  0  0  0  0  0  0  0  0  0
  1  2  1  0  0  0  0
  1 16  1  0  0  0  0
  1 17  1  0  0  0  0
  1 18  1  0  0  0  0
  2  3  1  0  0  0  0
  3  4  1  0  0  0  0
  3  5  1  0  0  0  0
  3  6  1  0  0  0  0
  4 19  1  0  0  0  0
  4 20  1  0  0  0  0
  4 21  1  0  0  0  0
  5 22  1  0  0  0  0
  5 23  1  0  0  0  0
  5 24  1  0  0  0  0
  6  7  2  0  0  0  0
  6  8  1  0  0  0  0
  8 25  1  0  0  0  0
  8  9  1  0  0  0  0
  9 10  2  0  0  0  0
  9 14  1  0  0  0  0
 10 11  1  0  0  0  0
 10 26  1  0  0  0  0
 11 12  2  0  0  0  0
 11 27  1  0  0  0  0
 12 13  1  0  0  0  0
 12 29  1  0  0  0  0
 13 14  2  0  0  0  0
 13 28  1  0  0  0  0
 14 15  1  0  0  0  0
M  CHG  1  12   1
M  CHG  1  15  -1
M  END
> <s_m_source_file>
AV-unprocessed.smi

> <i_m_source_file_index>
2783

> <i_lp_mmshare_version>
43012

> <i_f3d_flags>
0

> <s_epik_input>
W0NIM11PQyhbQ0gzXSkoW0NIM10pQyg9TylbTkhdYzFbY0hdW2NIXW5bY0hdYzFbT0hd

> <s_epik_cmdline>
J2VwaWtfcHl0aG9uJywgJy1waCcsICc3LjAnLCAnLXRuJywgJzgnLCAnLW1hJywgJzIwMCcsICctbWV0YWxfYmluZGluZycsICctaW1hZScsICc8aW5maWxlLm1hZT4nLCAnLW9tYWUnLCAnPG91dGZpbGUubWFlPic=

> <r_lp_tautomer_probability>
0.56342

> <r_epik_Ionization_Penalty>
0.0178972

> <r_epik_Ionization_Penalty_Charging>
0.0178972

> <r_epik_Ionization_Penalty_Neutral>
5.02838e-10

> <r_epik_State_Penalty>
0.346878

> <r_epik_Charging_Adjusted_Penalty>
0.364775

> <i_epik_Tot_Q>
0

> <i_epik_Tot_abs_Q>
2

> <r_epik_Metal_State_Penalty>
0.59989

> <b_epik_Metal_Only>
0

> <s_lp_Force_Field>
OPLS_2005

> <r_lp_Energy>
13.0422

> <b_lp_Chiralities_Consistent>
1

> <s_lp_Variant>
AV-unprocessed.smi:2783-1

> <Gold.Version>
5.8.1

> <Gold.Id.Protein>
6NUR|6NUR_protein|mol2

> <Gold.PLP.Fitness>
42.9628

> <Gold.PLP.PLP>
-31.5891

> <Gold.PLP.part.hbond>
-2.7167

> <Gold.PLP.part.metal>
0.0000

> <Gold.PLP.part.buried>
-3.1071

> <Gold.PLP.part.nonpolar>
-25.2781

> <Gold.PLP.part.repulsive>
0.3255

> <Gold.PLP.ligand.clash>
0.0000

> <Gold.PLP.ligand.torsion>
0.3287

> <Gold.PLP.Chemscore.Hbond>
4.0000

> <Gold.PLP.Chemscore.CHOScore>
0.0000

> <Gold.PLP.Chemscore.Metal>
0.0000

> <Gold.Chemscore.Hbonds>
donor molecule, donor type, donor heavy atom, donor atom, acceptor molecule, acceptor atom, score
      L1  H    12    29       P1  7948  1.98
      P1  H  7997  8010       L1    15  2.00

> <Gold.PLP.Chemscore.Internal.Correction>
0.0310

> <Gold.Rescore>
     Score         DG    S(hbond)    S(metal)    S(lipo)     H(rot)  DE(clash)    DE(int)     intcor
     17.62     -17.99       1.92        0.00      79.71       1.26       0.03       0.34       ----

> <Gold.Chemscore.Fitness>
17.6207

> <Gold.Chemscore.DG>
-17.9895

> <Gold.Chemscore.ZeroCoef>
-5.4800

> <Gold.Chemscore.Hbond>
1.9169

> <Gold.Chemscore.Metal>
0.0000

> <Gold.Chemscore.Lipo>
79.7110

> <Gold.Chemscore.Internal_Hbond>
0.0000

> <Gold.Chemscore.DEClash>
0.0318

> <Gold.Chemscore.DEInternal>
0.3370

> <Gold.Chemscore.Rot>
1.2574

> <Gold.Chemscore.Internal.Correction>
   9.000000E+99

> <Gold.Chemscore.Hbonds>
donor molecule, donor type, donor heavy atom, donor atom, acceptor molecule, acceptor atom, score
      L1  H    12    29       P1  7948  0.51
      P1  H  7997  8010       L1    15  1.00

> <Gold.Chemscore.Hbond.Weighted>
-6.4023

> <Gold.Chemscore.Metal.Weighted>
-0.0000

> <Gold.Chemscore.Lipo.Weighted>
-9.3262

> <Gold.Chemscore.Internal_Hbond.Weighted>
0.0000

> <Gold.Chemscore.DEClash.Weighted>
0.0318

> <Gold.Chemscore.DEInternal.Weighted>
0.3370

> <Gold.Chemscore.Rot.Weighted>
3.2190

> <Gold.Chemscore.Internal.Correction.Weighted>
   9.000000E+99

> <Gold.Protein.RotatedTorsions>
[ 6907 6896 6895 6894 ] final  141.48 input  -60.11 | X-H torsion
[ 7974 7965 7964 7962 ] final -150.56 input  175.53 | X-H torsion
[ 8008 7997 7996 7995 ] final   90.38 input   59.86 | X-H torsion
[ 10167 10162 10161 10158 ] final  -96.61 input  -65.29 | X-H torsion
[ 10718 10713 10712 10709 ] final  162.02 input   66.30 | X-H torsion
[ 10763 10752 10751 10750 ] final  -84.87 input  -60.55 | X-H torsion
[ 11005 11000 10999 10996 ] final -158.27 input  -57.11 | X-H torsion

> <Gold.Protein.ActiveResidues>
 VAL166  LYS551  ARG553  GLY616  TRP617  ASP618  TYR619  PRO620  LYS621  CYS622 
 ASP623  PHE694  ASN695  SER759  ASP760  ASP761  ALA762  ILE779  LEU786  VAL792 
 PHE793  MET794  SER795  GLU796  ALA797  LYS798  CYS799  TRP800  GLU811  SER814 

> <Gold.Protein.RotatedAtoms>
  152.2304  133.5054  159.5212 H   0  0  0  0  0  0  0  0  0  0  0  0  # atno 6907 bound_to 6896
  150.7036  134.1224  159.4048 H   0  0  0  0  0  0  0  0  0  0  0  0  # atno 6908 bound_to 6896
  151.9145  135.0325  160.0568 H   0  0  0  0  0  0  0  0  0  0  0  0  # atno 6909 bound_to 6896
  144.7901  140.4916  143.5779 H   0  0  0  0  0  0  0  0  0  0  0  0  # atno 7974 bound_to 7965
  156.0112  140.3350  155.6943 H   0  0  0  0  0  0  0  0  0  0  0  0  # atno 8008 bound_to 7997
  155.6155  140.0669  157.2711 H   0  0  0  0  0  0  0  0  0  0  0  0  # atno 8009 bound_to 7997
  154.4282  140.1786  156.1304 H   0  0  0  0  0  0  0  0  0  0  0  0  # atno 8010 bound_to 7997
  140.2920  143.3215  152.0336 H   0  0  0  0  0  0  0  0  0  0  0  0  # atno 10167 bound_to 10162
  157.1284  131.0510  151.2383 H   0  0  0  0  0  0  0  0  0  0  0  0  # atno 10718 bound_to 10713
  154.6046  135.5505  153.7409 H   0  0  0  0  0  0  0  0  0  0  0  0  # atno 10763 bound_to 10752
  153.0169  135.6374  154.1666 H   0  0  0  0  0  0  0  0  0  0  0  0  # atno 10764 bound_to 10752
  154.1605  135.2897  155.3090 H   0  0  0  0  0  0  0  0  0  0  0  0  # atno 10765 bound_to 10752
  140.6554  134.4406  157.5235 H   0  0  0  0  0  0  0  0  0  0  0  0  # atno 11005 bound_to 11000
  145.5818  139.1489  143.3231 LP  0  0  0  0  0  0  0  0  0  0  0  0  # atno 17320 bound_to 7965
  146.2149  140.5948  142.9043 LP  0  0  0  0  0  0  0  0  0  0  0  0  # atno 17321 bound_to 7965
  139.4936  144.6518  151.6659 LP  0  0  0  0  0  0  0  0  0  0  0  0  # atno 17342 bound_to 10162
  140.5724  144.0086  150.6224 LP  0  0  0  0  0  0  0  0  0  0  0  0  # atno 17343 bound_to 10162
  157.4414  130.7546  149.7072 LP  0  0  0  0  0  0  0  0  0  0  0  0  # atno 17370 bound_to 10713
  155.9813  130.4021  150.3479 LP  0  0  0  0  0  0  0  0  0  0  0  0  # atno 17371 bound_to 10713
  139.9031  134.8510  156.1814 LP  0  0  0  0  0  0  0  0  0  0  0  0  # atno 17394 bound_to 11000
  141.0505  133.6891  156.1763 LP  0  0  0  0  0  0  0  0  0  0  0  0  # atno 17395 bound_to 11000

$$$$
