AV-unprocessed.smi:1487|AV-procd|sdf|6017|dock1
  -GOLD-   22720 6123D 1   1.00000     0.00000
 Structure written by MMmdl.
 49 51  0  0  0  0  0  0  0  0  3 V2000
  152.7211  143.1102  160.9980 C   0  0  0  0  0  0  0  0  0  0  0  0
  152.3093  142.3768  159.7327 C   0  0  0  0  0  0  0  0  0  0  0  0
  151.3677  142.9889  158.8747 C   0  0  0  0  0  0  0  0  0  0  0  0
  151.0126  142.2945  157.7242 C   0  0  0  0  0  0  0  0  0  0  0  0
  150.1312  142.6224  156.6916 N   0  3  0  0  0  0  0  0  0  0  0  0
  150.1190  141.6211  155.7685 C   0  0  0  0  0  0  0  0  0  0  0  0
  150.9716  140.6529  156.2029 N   0  0  0  0  0  0  0  0  0  0  0  0
  151.3414  139.3719  155.5866 C   0  0  0  0  0  0  0  0  0  0  0  0
  150.1268  138.5136  155.1765 C   0  0  2  0  0  0  0  0  0  0  0  0
  150.6308  137.3506  154.5516 O   0  0  0  0  0  0  0  0  0  0  0  0
  149.1658  139.2362  154.2058 C   0  0  0  0  0  0  0  0  0  0  0  0
  148.0628  138.3628  153.7283 N   0  3  2  0  0  0  0  0  0  0  0  0
  147.0682  139.1048  152.9121 C   0  0  0  0  0  0  0  0  0  0  0  0
  146.0502  138.1437  152.2793 C   0  0  0  0  0  0  0  0  0  0  0  0
  145.3429  137.3060  153.3534 C   0  0  0  0  0  0  0  0  0  0  0  0
  146.3610  136.6012  154.2658 C   0  0  1  0  0  0  0  0  0  0  0  0
  147.0088  135.5552  153.5687 O   0  0  0  0  0  0  0  0  0  0  0  0
  147.4102  137.5858  154.8183 C   0  0  0  0  0  0  0  0  0  0  0  0
  151.5587  141.0338  157.4142 C   0  0  0  0  0  0  0  0  0  0  0  0
  152.4894  140.4177  158.2468 C   0  0  0  0  0  0  0  0  0  0  0  0
  152.8617  141.1067  159.4232 C   0  0  0  0  0  0  0  0  0  0  0  0
  153.8724  140.4573  160.3533 C   0  0  0  0  0  0  0  0  0  0  0  0
  152.2570  144.0950  161.0582 H   0  0  0  0  0  0  0  0  0  0  0  0
  153.8017  143.2515  161.0266 H   0  0  0  0  0  0  0  0  0  0  0  0
  152.4216  142.5457  161.8815 H   0  0  0  0  0  0  0  0  0  0  0  0
  150.9451  143.9569  159.1028 H   0  0  0  0  0  0  0  0  0  0  0  0
  149.5378  141.6002  154.8576 H   0  0  0  0  0  0  0  0  0  0  0  0
  151.9553  139.5991  154.7136 H   0  0  0  0  0  0  0  0  0  0  0  0
  151.9843  138.8327  156.2841 H   0  0  0  0  0  0  0  0  0  0  0  0
  149.6000  138.2048  156.0777 H   0  0  0  0  0  0  0  0  0  0  0  0
  151.1288  137.5997  153.7882 H   0  0  0  0  0  0  0  0  0  0  0  0
  148.7305  140.1212  154.6710 H   0  0  0  0  0  0  0  0  0  0  0  0
  149.7479  139.5975  153.3564 H   0  0  0  0  0  0  0  0  0  0  0  0
  146.5588  139.8425  153.5343 H   0  0  0  0  0  0  0  0  0  0  0  0
  147.5754  139.6542  152.1180 H   0  0  0  0  0  0  0  0  0  0  0  0
  145.3146  138.7060  151.7035 H   0  0  0  0  0  0  0  0  0  0  0  0
  146.5570  137.4862  151.5718 H   0  0  0  0  0  0  0  0  0  0  0  0
  144.7140  137.9608  153.9579 H   0  0  0  0  0  0  0  0  0  0  0  0
  144.6731  136.5802  152.8907 H   0  0  0  0  0  0  0  0  0  0  0  0
  145.8280  136.1413  155.0989 H   0  0  0  0  0  0  0  0  0  0  0  0
  147.6307  135.9315  152.9642 H   0  0  0  0  0  0  0  0  0  0  0  0
  148.1488  137.0366  155.4012 H   0  0  0  0  0  0  0  0  0  0  0  0
  146.9291  138.2817  155.5075 H   0  0  0  0  0  0  0  0  0  0  0  0
  152.9153  139.4544  158.0075 H   0  0  0  0  0  0  0  0  0  0  0  0
  154.1675  139.4702  159.9957 H   0  0  0  0  0  0  0  0  0  0  0  0
  153.4532  140.3371  161.3526 H   0  0  0  0  0  0  0  0  0  0  0  0
  154.7725  141.0681  160.4255 H   0  0  0  0  0  0  0  0  0  0  0  0
  148.4828  137.6910  153.1021 H   0  0  0  0  0  0  0  0  0  0  0  0
  149.5837  143.4706  156.6158 H   0  0  0  0  0  0  0  0  0  0  0  0
  1  2  1  0  0  0  0
  1 23  1  0  0  0  0
  1 24  1  0  0  0  0
  1 25  1  0  0  0  0
  2 21  1  0  0  0  0
  2  3  2  0  0  0  0
  3  4  1  0  0  0  0
  3 26  1  0  0  0  0
  4 19  2  0  0  0  0
  4  5  1  0  0  0  0
  5  6  2  0  0  0  0
  5 49  1  0  0  0  0
  6  7  1  0  0  0  0
  6 27  1  0  0  0  0
  7  8  1  0  0  0  0
  7 19  1  0  0  0  0
  8  9  1  0  0  0  0
  8 28  1  0  0  0  0
  8 29  1  0  0  0  0
  9 10  1  0  0  0  0
  9 11  1  0  0  0  0
  9 30  1  0  0  0  0
 10 31  1  0  0  0  0
 11 12  1  0  0  0  0
 11 32  1  0  0  0  0
 11 33  1  0  0  0  0
 12 18  1  0  0  0  0
 12 13  1  0  0  0  0
 12 48  1  0  0  0  0
 13 14  1  0  0  0  0
 13 34  1  0  0  0  0
 13 35  1  0  0  0  0
 14 15  1  0  0  0  0
 14 36  1  0  0  0  0
 14 37  1  0  0  0  0
 15 16  1  0  0  0  0
 15 38  1  0  0  0  0
 15 39  1  0  0  0  0
 16 17  1  0  0  0  0
 16 18  1  0  0  0  0
 16 40  1  0  0  0  0
 17 41  1  0  0  0  0
 18 42  1  0  0  0  0
 18 43  1  0  0  0  0
 19 20  1  0  0  0  0
 20 21  2  0  0  0  0
 20 44  1  0  0  0  0
 21 22  1  0  0  0  0
 22 45  1  0  0  0  0
 22 46  1  0  0  0  0
 22 47  1  0  0  0  0
M  CHG  1   5   1
M  CHG  1  12   1
M  END
> <s_m_source_file>
AV-unprocessed.smi

> <i_m_source_file_index>
1487

> <i_lp_mmshare_version>
43012

> <i_f3d_flags>
0

> <s_epik_input>
W0NIM11jKFtjSF0xKWMoW0NIM10pW2NIXWMoYzEyKW4oW2NIXW4yKVtDSDJdW0NASF0oW09IXSlbQ0gyXU4zW0NIMl1bQ0gyXVtDSDJdW0NAQEhdKFtPSF0pW0NIMl0z

> <s_epik_cmdline>
J2VwaWtfcHl0aG9uJywgJy1waCcsICc3LjAnLCAnLXRuJywgJzgnLCAnLW1hJywgJzIwMCcsICctbWV0YWxfYmluZGluZycsICctaW1hZScsICc8aW5maWxlLm1hZT4nLCAnLW9tYWUnLCAnPG91dGZpbGUubWFlPic=

> <r_epik_Ionization_Penalty>
1.1857

> <r_epik_Ionization_Penalty_Charging>
1.1857

> <r_epik_Ionization_Penalty_Neutral>
1.75578e-06

> <r_epik_State_Penalty>
1.26953

> <r_epik_Charging_Adjusted_Penalty>
2.45524

> <i_epik_Tot_Q>
2

> <i_epik_Tot_abs_Q>
2

> <r_epik_Metal_State_Penalty>
5.28243

> <b_epik_Metal_Only>
0

> <s_lp_Force_Field>
OPLS_2005

> <r_lp_Energy>
35.9042

> <b_lp_Chiralities_Consistent>
1

> <s_lp_Variant>
AV-unprocessed.smi:1487-11

> <Gold.Version>
5.8.1

> <Gold.Id.Protein>
6NUR|6NUR_protein|mol2

> <Gold.PLP.Fitness>
57.8127

> <Gold.PLP.PLP>
-43.0996

> <Gold.PLP.part.hbond>
-3.1509

> <Gold.PLP.part.metal>
0.0000

> <Gold.PLP.part.buried>
-3.0782

> <Gold.PLP.part.nonpolar>
-36.8748

> <Gold.PLP.part.repulsive>
0.0908

> <Gold.PLP.ligand.clash>
0.0000

> <Gold.PLP.ligand.torsion>
0.1562

> <Gold.PLP.Chemscore.Hbond>
5.0000

> <Gold.PLP.Chemscore.CHOScore>
0.0000

> <Gold.PLP.Chemscore.Metal>
0.0000

> <Gold.Chemscore.Hbonds>
donor molecule, donor type, donor heavy atom, donor atom, acceptor molecule, acceptor atom, score
      L1  H     5    49       P1  8028  2.00
      L1  H    12    48       P1  7948  2.00
      L1  H    17    41       P1  7948  1.00

> <Gold.PLP.Chemscore.Internal.Correction>
0.0255

> <Gold.Rescore>
     Score         DG    S(hbond)    S(metal)    S(lipo)     H(rot)  DE(clash)    DE(int)     intcor
     21.12     -21.63       2.98        0.00     112.92       2.74       0.31       0.20       ----

> <Gold.Chemscore.Fitness>
21.1153

> <Gold.Chemscore.DG>
-21.6263

> <Gold.Chemscore.ZeroCoef>
-5.4800

> <Gold.Chemscore.Hbond>
2.9774

> <Gold.Chemscore.Metal>
0.0000

> <Gold.Chemscore.Lipo>
112.9236

> <Gold.Chemscore.Internal_Hbond>
0.0000

> <Gold.Chemscore.DEClash>
0.3136

> <Gold.Chemscore.DEInternal>
0.1974

> <Gold.Chemscore.Rot>
2.7384

> <Gold.Chemscore.Internal.Correction>
   9.000000E+99

> <Gold.Chemscore.Hbonds>
donor molecule, donor type, donor heavy atom, donor atom, acceptor molecule, acceptor atom, score
      L1  H     5    49       P1  8028  0.95
      L1  H    12    48       P1  7948  0.99
      L1  H    17    41       P1  7948  1.00

> <Gold.Chemscore.Hbond.Weighted>
-9.9446

> <Gold.Chemscore.Metal.Weighted>
-0.0000

> <Gold.Chemscore.Lipo.Weighted>
-13.2121

> <Gold.Chemscore.Internal_Hbond.Weighted>
0.0000

> <Gold.Chemscore.DEClash.Weighted>
0.3136

> <Gold.Chemscore.DEInternal.Weighted>
0.1974

> <Gold.Chemscore.Rot.Weighted>
7.0103

> <Gold.Chemscore.Internal.Correction.Weighted>
   9.000000E+99

> <Gold.Protein.RotatedTorsions>
[ 6907 6896 6895 6894 ] final  -91.13 input  -60.11 | X-H torsion
[ 7974 7965 7964 7962 ] final  154.91 input  175.53 | X-H torsion
[ 8008 7997 7996 7995 ] final  139.47 input   59.86 | X-H torsion
[ 10167 10162 10161 10158 ] final  -51.97 input  -65.29 | X-H torsion
[ 10718 10713 10712 10709 ] final  163.79 input   66.30 | X-H torsion
[ 10763 10752 10751 10750 ] final -149.00 input  -60.55 | X-H torsion
[ 11005 11000 10999 10996 ] final  -12.93 input  -57.11 | X-H torsion

> <Gold.Protein.ActiveResidues>
 VAL166  LYS551  ARG553  GLY616  TRP617  ASP618  TYR619  PRO620  LYS621  CYS622 
 ASP623  PHE694  ASN695  SER759  ASP760  ASP761  ALA762  ILE779  LEU786  VAL792 
 PHE793  MET794  SER795  GLU796  ALA797  LYS798  CYS799  TRP800  GLU811  SER814 

> <Gold.Protein.RotatedAtoms>
  150.6889  134.2324  159.4439 H   0  0  0  0  0  0  0  0  0  0  0  0  # atno 6907 bound_to 6896
  152.0274  134.9785  160.0581 H   0  0  0  0  0  0  0  0  0  0  0  0  # atno 6908 bound_to 6896
  152.1338  133.4388  159.4770 H   0  0  0  0  0  0  0  0  0  0  0  0  # atno 6909 bound_to 6896
  144.8058  139.6997  143.6162 H   0  0  0  0  0  0  0  0  0  0  0  0  # atno 7974 bound_to 7965
  156.2989  140.2367  156.4242 H   0  0  0  0  0  0  0  0  0  0  0  0  # atno 8008 bound_to 7997
  154.8328  140.0432  157.1509 H   0  0  0  0  0  0  0  0  0  0  0  0  # atno 8009 bound_to 7997
  154.9189  140.3001  155.5230 H   0  0  0  0  0  0  0  0  0  0  0  0  # atno 8010 bound_to 7997
  140.6561  143.2600  151.4580 H   0  0  0  0  0  0  0  0  0  0  0  0  # atno 10167 bound_to 10162
  157.1036  131.0449  151.2487 H   0  0  0  0  0  0  0  0  0  0  0  0  # atno 10718 bound_to 10713
  154.8202  135.3320  154.7060 H   0  0  0  0  0  0  0  0  0  0  0  0  # atno 10763 bound_to 10752
  153.7694  135.6926  153.4914 H   0  0  0  0  0  0  0  0  0  0  0  0  # atno 10764 bound_to 10752
  153.2055  135.4501  155.0266 H   0  0  0  0  0  0  0  0  0  0  0  0  # atno 10765 bound_to 10752
  140.7708  133.8440  155.9206 H   0  0  0  0  0  0  0  0  0  0  0  0  # atno 11005 bound_to 11000
  146.2349  139.5886  142.9530 LP  0  0  0  0  0  0  0  0  0  0  0  0  # atno 17320 bound_to 7965
  145.5441  141.0418  143.2314 LP  0  0  0  0  0  0  0  0  0  0  0  0  # atno 17321 bound_to 7965
  139.5784  144.1765  152.1935 LP  0  0  0  0  0  0  0  0  0  0  0  0  # atno 17342 bound_to 10162
  140.1083  144.5480  150.6942 LP  0  0  0  0  0  0  0  0  0  0  0  0  # atno 17343 bound_to 10162
  157.4620  130.7659  149.7244 LP  0  0  0  0  0  0  0  0  0  0  0  0  # atno 17370 bound_to 10713
  155.9867  130.3972  150.3197 LP  0  0  0  0  0  0  0  0  0  0  0  0  # atno 17371 bound_to 10713
  140.9575  134.1699  157.4680 LP  0  0  0  0  0  0  0  0  0  0  0  0  # atno 17394 bound_to 11000
  139.8756  134.9932  156.5635 LP  0  0  0  0  0  0  0  0  0  0  0  0  # atno 17395 bound_to 11000

$$$$
