AV-unprocessed.smi:1587|AV-procd|sdf|6387|dock8
  -GOLD-   22720 7 23D 1   1.00000     0.00000
 Structure written by MMmdl.
 36 37  0  0  0  0  0  0  0  0  1 V2000
  144.5237  136.4847  152.7849 O   0  0  0  0  0  0  0  0  0  0  0  0
  145.7147  136.4074  152.4817 C   0  0  0  0  0  0  0  0  0  0  0  0
  146.6338  137.3050  152.8662 N   0  0  0  0  0  0  0  0  0  0  0  0
  146.3641  138.4781  153.6888 C   0  0  0  0  0  0  0  0  0  0  0  0
  147.3685  139.6100  153.4008 C   0  0  0  0  0  0  0  0  0  0  0  0
  148.4517  139.7341  154.3742 N   0  0  0  0  0  0  0  0  0  0  0  0
  149.5793  138.8533  154.0765 C   0  0  0  0  0  0  0  0  0  0  0  0
  150.7234  139.0205  155.0921 C   0  0  0  0  0  0  0  0  0  0  0  0
  151.1367  140.3825  155.1307 O   0  0  0  0  0  0  0  0  0  0  0  0
  150.0735  141.2676  155.4672 C   0  0  0  0  0  0  0  0  0  0  0  0
  148.9322  141.1101  154.4478 C   0  0  0  0  0  0  0  0  0  0  0  0
  146.2668  135.4330  151.7372 N   0  0  0  0  0  0  0  0  0  0  0  0
  145.6256  134.3170  151.1359 C   0  0  0  0  0  0  0  0  0  0  0  0
  146.4929  133.3971  150.5040 C   0  0  0  0  0  0  0  0  0  0  0  0
  145.9552  132.2569  149.8758 C   0  0  0  0  0  0  0  0  0  0  0  0
  144.5621  132.0656  149.8952 C   0  0  0  0  0  0  0  0  0  0  0  0
  143.7698  133.0297  150.5451 C   0  0  0  0  0  0  0  0  0  0  0  0
  144.2829  134.1232  151.1478 N   0  0  0  0  0  0  0  0  0  0  0  0
  147.5892  137.1663  152.5718 H   0  0  0  0  0  0  0  0  0  0  0  0
  145.3417  138.8229  153.5246 H   0  0  0  0  0  0  0  0  0  0  0  0
  146.4242  138.1624  154.7298 H   0  0  0  0  0  0  0  0  0  0  0  0
  147.7853  139.4837  152.4003 H   0  0  0  0  0  0  0  0  0  0  0  0
  146.8155  140.5502  153.3766 H   0  0  0  0  0  0  0  0  0  0  0  0
  149.2598  137.8118  154.0839 H   0  0  0  0  0  0  0  0  0  0  0  0
  149.9553  139.0591  153.0732 H   0  0  0  0  0  0  0  0  0  0  0  0
  150.4062  138.7016  156.0861 H   0  0  0  0  0  0  0  0  0  0  0  0
  151.5732  138.3979  154.8119 H   0  0  0  0  0  0  0  0  0  0  0  0
  149.7207  141.0573  156.4782 H   0  0  0  0  0  0  0  0  0  0  0  0
  150.4473  142.2914  155.4645 H   0  0  0  0  0  0  0  0  0  0  0  0
  149.2802  141.4336  153.4655 H   0  0  0  0  0  0  0  0  0  0  0  0
  148.1125  141.7750  154.7220 H   0  0  0  0  0  0  0  0  0  0  0  0
  147.2617  135.4975  151.5807 H   0  0  0  0  0  0  0  0  0  0  0  0
  147.5611  133.5588  150.4987 H   0  0  0  0  0  0  0  0  0  0  0  0
  146.6009  131.5420  149.3877 H   0  0  0  0  0  0  0  0  0  0  0  0
  144.1123  131.2037  149.4248 H   0  0  0  0  0  0  0  0  0  0  0  0
  142.6960  132.9208  150.5820 H   0  0  0  0  0  0  0  0  0  0  0  0
  1  2  2  0  0  0  0
  2  3  1  0  0  0  0
  2 12  1  0  0  0  0
  3  4  1  0  0  0  0
  3 19  1  0  0  0  0
  4  5  1  0  0  0  0
  4 20  1  0  0  0  0
  4 21  1  0  0  0  0
  5  6  1  0  0  0  0
  5 22  1  0  0  0  0
  5 23  1  0  0  0  0
  6 11  1  0  0  0  0
  6  7  1  0  0  0  0
  7  8  1  0  0  0  0
  7 24  1  0  0  0  0
  7 25  1  0  0  0  0
  8  9  1  0  0  0  0
  8 26  1  0  0  0  0
  8 27  1  0  0  0  0
  9 10  1  0  0  0  0
 10 11  1  0  0  0  0
 10 28  1  0  0  0  0
 10 29  1  0  0  0  0
 11 30  1  0  0  0  0
 11 31  1  0  0  0  0
 12 13  1  0  0  0  0
 12 32  1  0  0  0  0
 13 18  1  0  0  0  0
 13 14  2  0  0  0  0
 14 15  1  0  0  0  0
 14 33  1  0  0  0  0
 15 16  2  0  0  0  0
 15 34  1  0  0  0  0
 16 17  1  0  0  0  0
 16 35  1  0  0  0  0
 17 18  2  0  0  0  0
 17 36  1  0  0  0  0
M  END
> <s_m_source_file>
AV-unprocessed.smi

> <i_m_source_file_index>
1587

> <i_lp_mmshare_version>
43012

> <i_f3d_flags>
0

> <s_epik_input>
bjFbY0hdW2NIXVtjSF1bY0hdYzFbTkhdQyg9TylbTkhdW0NIMl1bQ0gyXU4yW0NIMl1bQ0gyXU9bQ0gyXVtDSDJdMg==

> <s_epik_cmdline>
J2VwaWtfcHl0aG9uJywgJy1waCcsICc3LjAnLCAnLXRuJywgJzgnLCAnLW1hJywgJzIwMCcsICctbWV0YWxfYmluZGluZycsICctaW1hZScsICc8aW5maWxlLm1hZT4nLCAnLW9tYWUnLCAnPG91dGZpbGUubWFlPic=

> <r_epik_Ionization_Penalty>
0.266037

> <r_epik_Ionization_Penalty_Charging>
0

> <r_epik_Ionization_Penalty_Neutral>
0.266037

> <r_epik_State_Penalty>
0.257924

> <r_epik_Charging_Adjusted_Penalty>
0.257924

> <i_epik_Tot_Q>
0

> <i_epik_Tot_abs_Q>
0

> <r_epik_Metal_State_Penalty>
0.257923

> <b_epik_Metal_Only>
0

> <s_lp_Force_Field>
OPLS_2005

> <r_lp_Energy>
22.0776

> <b_lp_Chiralities_Consistent>
1

> <s_lp_Variant>
AV-unprocessed.smi:1587-1

> <Gold.Version>
5.8.1

> <Gold.Id.Protein>
6NUR|6NUR_protein|mol2

> <Gold.PLP.Fitness>
43.7520

> <Gold.PLP.PLP>
-33.3170

> <Gold.PLP.part.hbond>
-3.0000

> <Gold.PLP.part.metal>
0.0000

> <Gold.PLP.part.buried>
-3.6479

> <Gold.PLP.part.nonpolar>
-26.9992

> <Gold.PLP.part.repulsive>
0.5523

> <Gold.PLP.ligand.clash>
0.0000

> <Gold.PLP.ligand.torsion>
0.7884

> <Gold.PLP.Chemscore.Hbond>
3.0000

> <Gold.PLP.Chemscore.CHOScore>
1.0000

> <Gold.PLP.Chemscore.Metal>
0.0000

> <Gold.Chemscore.Hbonds>
donor molecule, donor type, donor heavy atom, donor atom, acceptor molecule, acceptor atom, score
      L1  H     3    19       P1  7948  1.00
      L1  H    12    32       P1  7948  1.00
      P1  H  7989  7998       L1     9  1.00
      L1  C    17    36       P1 10186  0.95

> <Gold.PLP.Chemscore.Internal.Correction>
0.0119

> <Gold.Rescore>
     Score         DG    S(hbond)    S(metal)    S(lipo)     H(rot)  DE(clash)    DE(int)     intcor
     16.84     -19.11       2.54        0.00      77.86       1.55       0.17       2.10       ----

> <Gold.Chemscore.Fitness>
16.8421

> <Gold.Chemscore.DG>
-19.1078

> <Gold.Chemscore.ZeroCoef>
-5.4800

> <Gold.Chemscore.Hbond>
2.5395

> <Gold.Chemscore.Metal>
0.0000

> <Gold.Chemscore.Lipo>
77.8606

> <Gold.Chemscore.Internal_Hbond>
0.0000

> <Gold.Chemscore.DEClash>
0.1700

> <Gold.Chemscore.DEInternal>
2.0958

> <Gold.Chemscore.Rot>
1.5484

> <Gold.Chemscore.Internal.Correction>
   9.000000E+99

> <Gold.Chemscore.Hbonds>
donor molecule, donor type, donor heavy atom, donor atom, acceptor molecule, acceptor atom, score
      L1  H     3    19       P1  7948  0.98
      L1  H    12    32       P1  7948  0.97
      P1  H  7989  7998       L1     9  0.34

> <Gold.Chemscore.Hbond.Weighted>
-8.4820

> <Gold.Chemscore.Metal.Weighted>
-0.0000

> <Gold.Chemscore.Lipo.Weighted>
-9.1097

> <Gold.Chemscore.Internal_Hbond.Weighted>
0.0000

> <Gold.Chemscore.DEClash.Weighted>
0.1700

> <Gold.Chemscore.DEInternal.Weighted>
2.0958

> <Gold.Chemscore.Rot.Weighted>
3.9639

> <Gold.Chemscore.Internal.Correction.Weighted>
   9.000000E+99

> <Gold.Protein.RotatedTorsions>
[ 6907 6896 6895 6894 ] final    3.08 input  -60.11 | X-H torsion
[ 7974 7965 7964 7962 ] final  -86.02 input  175.53 | X-H torsion
[ 8008 7997 7996 7995 ] final -164.72 input   59.86 | X-H torsion
[ 10167 10162 10161 10158 ] final   58.49 input  -65.29 | X-H torsion
[ 10718 10713 10712 10709 ] final  -64.69 input   66.30 | X-H torsion
[ 10763 10752 10751 10750 ] final  104.74 input  -60.55 | X-H torsion
[ 11005 11000 10999 10996 ] final   31.63 input  -57.11 | X-H torsion

> <Gold.Protein.ActiveResidues>
 VAL166  LYS551  ARG553  GLY616  TRP617  ASP618  TYR619  PRO620  LYS621  CYS622 
 ASP623  PHE694  ASN695  SER759  ASP760  ASP761  ALA762  ILE779  LEU786  VAL792 
 PHE793  MET794  SER795  GLU796  ALA797  LYS798  CYS799  TRP800  GLU811  SER814 

> <Gold.Protein.RotatedAtoms>
  151.6193  135.1033  160.0097 H   0  0  0  0  0  0  0  0  0  0  0  0  # atno 6907 bound_to 6896
  152.4166  133.7044  159.6453 H   0  0  0  0  0  0  0  0  0  0  0  0  # atno 6908 bound_to 6896
  150.8054  133.8445  159.3229 H   0  0  0  0  0  0  0  0  0  0  0  0  # atno 6909 bound_to 6896
  145.4855  140.9555  143.1841 H   0  0  0  0  0  0  0  0  0  0  0  0  # atno 7974 bound_to 7965
  155.8396  140.0946  157.1743 H   0  0  0  0  0  0  0  0  0  0  0  0  # atno 8008 bound_to 7997
  154.3981  140.1403  156.3773 H   0  0  0  0  0  0  0  0  0  0  0  0  # atno 8009 bound_to 7997
  155.8079  140.3450  155.5443 H   0  0  0  0  0  0  0  0  0  0  0  0  # atno 8010 bound_to 7997
  140.1867  144.4127  150.6590 H   0  0  0  0  0  0  0  0  0  0  0  0  # atno 10167 bound_to 10162
  156.0714  130.4237  150.1457 H   0  0  0  0  0  0  0  0  0  0  0  0  # atno 10718 bound_to 10713
  153.3700  135.3933  155.1781 H   0  0  0  0  0  0  0  0  0  0  0  0  # atno 10763 bound_to 10752
  154.8693  135.3700  154.4990 H   0  0  0  0  0  0  0  0  0  0  0  0  # atno 10764 bound_to 10752
  153.5457  135.7084  153.5676 H   0  0  0  0  0  0  0  0  0  0  0  0  # atno 10765 bound_to 10752
  140.2818  134.2964  155.7798 H   0  0  0  0  0  0  0  0  0  0  0  0  # atno 11005 bound_to 11000
  144.7864  139.6418  143.7132 LP  0  0  0  0  0  0  0  0  0  0  0  0  # atno 17320 bound_to 7965
  146.2316  139.5824  142.9552 LP  0  0  0  0  0  0  0  0  0  0  0  0  # atno 17321 bound_to 7965
  140.6484  143.2219  151.6134 LP  0  0  0  0  0  0  0  0  0  0  0  0  # atno 17342 bound_to 10162
  139.5273  144.3020  152.1065 LP  0  0  0  0  0  0  0  0  0  0  0  0  # atno 17343 bound_to 10162
  156.9507  130.9774  151.3499 LP  0  0  0  0  0  0  0  0  0  0  0  0  # atno 17370 bound_to 10713
  157.5786  130.8360  149.8491 LP  0  0  0  0  0  0  0  0  0  0  0  0  # atno 17371 bound_to 10713
  141.2161  133.7530  156.9492 LP  0  0  0  0  0  0  0  0  0  0  0  0  # atno 17394 bound_to 11000
  140.1276  134.9377  157.2292 LP  0  0  0  0  0  0  0  0  0  0  0  0  # atno 17395 bound_to 11000

$$$$
