AV-unprocessed.smi:3241|AV-procd|sdf|12388|dock9
  -GOLD-   2272018253D 1   1.00000     0.00000
 Structure written by MMmdl.
 44 45  0  0  0  0  0  0  0  0  2 V2000
  150.5052  137.4703  154.5647 C   0  0  0  0  0  0  0  0  0  0  0  0
  149.9208  138.8139  155.0311 C   0  0  1  0  0  0  0  0  0  0  0  0
  151.0398  139.8590  155.2145 C   0  0  0  0  0  0  0  0  0  0  0  0
  150.4838  141.2161  155.6719 C   0  0  0  0  0  0  0  0  0  0  0  0
  149.4195  141.7333  154.6943 C   0  0  0  0  0  0  0  0  0  0  0  0
  148.2933  140.7050  154.5134 C   0  0  0  0  0  0  0  0  0  0  0  0
  148.8414  139.3368  154.0563 C   0  0  2  0  0  0  0  0  0  0  0  0
  147.7813  138.3890  154.0287 O   0  0  0  0  0  0  0  0  0  0  0  0
  146.6877  138.7550  153.2007 C   0  0  0  0  0  0  0  0  0  0  0  0
  145.9524  137.4807  152.7739 C   0  0  0  0  0  0  0  0  0  0  0  0
  146.1497  137.2163  151.3358 N   0  3  0  0  0  0  0  0  0  0  0  0
  145.4918  135.9871  150.8492 C   0  0  0  0  0  0  0  0  0  0  0  0
  145.8805  134.7642  151.6952 C   0  0  0  0  0  0  0  0  0  0  0  0
  145.2887  133.5373  151.1929 N   0  0  0  0  0  0  0  0  0  0  0  0
  145.9249  132.3899  150.7686 C   0  0  0  0  0  0  0  0  0  0  0  0
  144.9560  131.5038  150.3936 C   0  0  0  0  0  0  0  0  0  0  0  0
  143.7429  132.2098  150.6261 C   0  0  0  0  0  0  0  0  0  0  0  0
  143.9453  133.4258  151.1079 N   0  0  0  0  0  0  0  0  0  0  0  0
  150.9691  137.5598  153.5820 H   0  0  0  0  0  0  0  0  0  0  0  0
  149.7347  136.7018  154.4999 H   0  0  0  0  0  0  0  0  0  0  0  0
  151.2653  137.1109  155.2591 H   0  0  0  0  0  0  0  0  0  0  0  0
  149.4525  138.6524  156.0033 H   0  0  0  0  0  0  0  0  0  0  0  0
  151.7683  139.5012  155.9429 H   0  0  0  0  0  0  0  0  0  0  0  0
  151.5809  139.9883  154.2760 H   0  0  0  0  0  0  0  0  0  0  0  0
  150.0503  141.1177  156.6679 H   0  0  0  0  0  0  0  0  0  0  0  0
  151.2940  141.9410  155.7569 H   0  0  0  0  0  0  0  0  0  0  0  0
  149.0083  142.6755  155.0573 H   0  0  0  0  0  0  0  0  0  0  0  0
  149.8801  141.9474  153.7289 H   0  0  0  0  0  0  0  0  0  0  0  0
  147.7575  140.5876  155.4562 H   0  0  0  0  0  0  0  0  0  0  0  0
  147.5702  141.0887  153.7942 H   0  0  0  0  0  0  0  0  0  0  0  0
  149.2912  139.4337  153.0659 H   0  0  0  0  0  0  0  0  0  0  0  0
  146.0030  139.4067  153.7436 H   0  0  0  0  0  0  0  0  0  0  0  0
  147.0354  139.3025  152.3231 H   0  0  0  0  0  0  0  0  0  0  0  0
  146.3012  136.6289  153.3592 H   0  0  0  0  0  0  0  0  0  0  0  0
  144.8852  137.5925  152.9698 H   0  0  0  0  0  0  0  0  0  0  0  0
  145.7885  137.9998  150.8095 H   0  0  0  0  0  0  0  0  0  0  0  0
  144.4110  136.1277  150.8884 H   0  0  0  0  0  0  0  0  0  0  0  0
  145.7550  135.8199  149.8036 H   0  0  0  0  0  0  0  0  0  0  0  0
  146.9651  134.6494  151.7332 H   0  0  0  0  0  0  0  0  0  0  0  0
  145.5465  134.9053  152.7237 H   0  0  0  0  0  0  0  0  0  0  0  0
  147.0014  132.2999  150.7695 H   0  0  0  0  0  0  0  0  0  0  0  0
  145.0925  130.5037  150.0096 H   0  0  0  0  0  0  0  0  0  0  0  0
  142.7287  131.8769  150.4620 H   0  0  0  0  0  0  0  0  0  0  0  0
  147.1414  137.1426  151.1577 H   0  0  0  0  0  0  0  0  0  0  0  0
  1  2  1  0  0  0  0
  1 19  1  0  0  0  0
  1 20  1  0  0  0  0
  1 21  1  0  0  0  0
  2  7  1  0  0  0  0
  2  3  1  0  0  0  0
  2 22  1  0  0  0  0
  3  4  1  0  0  0  0
  3 23  1  0  0  0  0
  3 24  1  0  0  0  0
  4  5  1  0  0  0  0
  4 25  1  0  0  0  0
  4 26  1  0  0  0  0
  5  6  1  0  0  0  0
  5 27  1  0  0  0  0
  5 28  1  0  0  0  0
  6  7  1  0  0  0  0
  6 29  1  0  0  0  0
  6 30  1  0  0  0  0
  7  8  1  0  0  0  0
  7 31  1  0  0  0  0
  8  9  1  0  0  0  0
  9 10  1  0  0  0  0
  9 32  1  0  0  0  0
  9 33  1  0  0  0  0
 10 11  1  0  0  0  0
 10 34  1  0  0  0  0
 10 35  1  0  0  0  0
 11 12  1  0  0  0  0
 11 36  1  0  0  0  0
 11 44  1  0  0  0  0
 12 13  1  0  0  0  0
 12 37  1  0  0  0  0
 12 38  1  0  0  0  0
 13 14  1  0  0  0  0
 13 39  1  0  0  0  0
 13 40  1  0  0  0  0
 14 18  1  0  0  0  0
 14 15  1  0  0  0  0
 15 16  2  0  0  0  0
 15 41  1  0  0  0  0
 16 17  1  0  0  0  0
 16 42  1  0  0  0  0
 17 18  2  0  0  0  0
 17 43  1  0  0  0  0
M  CHG  1  11   1
M  END
> <s_m_source_file>
AV-unprocessed.smi

> <i_m_source_file_index>
3241

> <i_lp_mmshare_version>
43012

> <i_f3d_flags>
0

> <s_epik_input>
W0NIM11bQ0BASF0xW0NIMl1bQ0gyXVtDSDJdW0NIMl1bQ0BIXTFPW0NIMl1bQ0gyXVtOSF1bQ0gyXVtDSDJdbjJbY0hdW2NIXVtjSF1uMg==

> <s_epik_cmdline>
J2VwaWtfcHl0aG9uJywgJy1waCcsICc3LjAnLCAnLXRuJywgJzgnLCAnLW1hJywgJzIwMCcsICctbWV0YWxfYmluZGluZycsICctaW1hZScsICc8aW5maWxlLm1hZT4nLCAnLW9tYWUnLCAnPG91dGZpbGUubWFlPic=

> <r_lp_tautomer_probability>
1

> <r_epik_Ionization_Penalty>
0.00924946

> <r_epik_Ionization_Penalty_Charging>
0.00924645

> <r_epik_Ionization_Penalty_Neutral>
3.00629e-06

> <r_epik_State_Penalty>
0.0070118

> <r_epik_Charging_Adjusted_Penalty>
0.0162583

> <i_epik_Tot_Q>
1

> <i_epik_Tot_abs_Q>
1

> <r_epik_Metal_State_Penalty>
0.00702523

> <b_epik_Metal_Only>
0

> <s_lp_Force_Field>
OPLS_2005

> <r_lp_Energy>
14.0519

> <b_lp_Chiralities_Consistent>
1

> <s_lp_Variant>
AV-unprocessed.smi:3241-4

> <Gold.Version>
5.8.1

> <Gold.Id.Protein>
6NUR|6NUR_protein|mol2

> <Gold.PLP.Fitness>
48.3222

> <Gold.PLP.PLP>
-37.0056

> <Gold.PLP.part.hbond>
-1.7710

> <Gold.PLP.part.metal>
0.0000

> <Gold.PLP.part.buried>
-2.7761

> <Gold.PLP.part.nonpolar>
-32.6658

> <Gold.PLP.part.repulsive>
0.4274

> <Gold.PLP.ligand.clash>
0.0000

> <Gold.PLP.ligand.torsion>
0.5023

> <Gold.PLP.Chemscore.Hbond>
2.1657

> <Gold.PLP.Chemscore.CHOScore>
1.8986

> <Gold.PLP.Chemscore.Metal>
0.0000

> <Gold.Chemscore.Hbonds>
donor molecule, donor type, donor heavy atom, donor atom, acceptor molecule, acceptor atom, score
      L1  H    11    36       P1 10171  0.39
      L1  H    11    44       P1  7948  1.46
      L1  C    15    41       P1 10747  1.00
      L1  C    17    43       P1 10952  0.83

> <Gold.PLP.Chemscore.Internal.Correction>
0.1282

> <Gold.Rescore>
     Score         DG    S(hbond)    S(metal)    S(lipo)     H(rot)  DE(clash)    DE(int)     intcor
     15.43     -15.95       1.13        0.00      98.63       1.89       0.01       0.52       ----

> <Gold.Chemscore.Fitness>
15.4326

> <Gold.Chemscore.DG>
-15.9533

> <Gold.Chemscore.ZeroCoef>
-5.4800

> <Gold.Chemscore.Hbond>
1.1300

> <Gold.Chemscore.Metal>
0.0000

> <Gold.Chemscore.Lipo>
98.6263

> <Gold.Chemscore.Internal_Hbond>
0.0000

> <Gold.Chemscore.DEClash>
0.0050

> <Gold.Chemscore.DEInternal>
0.5157

> <Gold.Chemscore.Rot>
1.8906

> <Gold.Chemscore.Internal.Correction>
   9.000000E+99

> <Gold.Chemscore.Hbonds>
donor molecule, donor type, donor heavy atom, donor atom, acceptor molecule, acceptor atom, score
      L1  H    11    36       P1 10171  0.39
      L1  H    11    44       P1  7948  0.71

> <Gold.Chemscore.Hbond.Weighted>
-3.7741

> <Gold.Chemscore.Metal.Weighted>
-0.0000

> <Gold.Chemscore.Lipo.Weighted>
-11.5393

> <Gold.Chemscore.Internal_Hbond.Weighted>
0.0000

> <Gold.Chemscore.DEClash.Weighted>
0.0050

> <Gold.Chemscore.DEInternal.Weighted>
0.5157

> <Gold.Chemscore.Rot.Weighted>
4.8400

> <Gold.Chemscore.Internal.Correction.Weighted>
   9.000000E+99

> <Gold.Protein.RotatedTorsions>
[ 6907 6896 6895 6894 ] final  110.56 input  -60.11 | X-H torsion
[ 7974 7965 7964 7962 ] final -104.69 input  175.53 | X-H torsion
[ 8008 7997 7996 7995 ] final   84.94 input   59.86 | X-H torsion
[ 10167 10162 10161 10158 ] final  -74.66 input  -65.29 | X-H torsion
[ 10718 10713 10712 10709 ] final  -28.70 input   66.30 | X-H torsion
[ 10763 10752 10751 10750 ] final -108.23 input  -60.55 | X-H torsion
[ 11005 11000 10999 10996 ] final  177.67 input  -57.11 | X-H torsion

> <Gold.Protein.ActiveResidues>
 VAL166  LYS551  ARG553  GLY616  TRP617  ASP618  TYR619  PRO620  LYS621  CYS622 
 ASP623  PHE694  ASN695  SER759  ASP760  ASP761  ALA762  ILE779  LEU786  VAL792 
 PHE793  MET794  SER795  GLU796  ALA797  LYS798  CYS799  TRP800  GLU811  SER814 

> <Gold.Protein.RotatedAtoms>
  152.5013  133.8783  159.7332 H   0  0  0  0  0  0  0  0  0  0  0  0  # atno 6907 bound_to 6896
  150.9252  133.6824  159.2830 H   0  0  0  0  0  0  0  0  0  0  0  0  # atno 6908 bound_to 6896
  151.4187  135.0999  159.9660 H   0  0  0  0  0  0  0  0  0  0  0  0  # atno 6909 bound_to 6896
  145.2399  140.9201  143.3156 H   0  0  0  0  0  0  0  0  0  0  0  0  # atno 7974 bound_to 7965
  155.9436  140.3406  155.6348 H   0  0  0  0  0  0  0  0  0  0  0  0  # atno 8008 bound_to 7997
  155.7009  140.0760  157.2429 H   0  0  0  0  0  0  0  0  0  0  0  0  # atno 8009 bound_to 7997
  154.4107  140.1640  156.2177 H   0  0  0  0  0  0  0  0  0  0  0  0  # atno 8010 bound_to 7997
  140.5008  143.2361  151.7755 H   0  0  0  0  0  0  0  0  0  0  0  0  # atno 10167 bound_to 10162
  156.4218  130.4428  149.7178 H   0  0  0  0  0  0  0  0  0  0  0  0  # atno 10718 bound_to 10713
  154.8123  135.4646  154.0549 H   0  0  0  0  0  0  0  0  0  0  0  0  # atno 10763 bound_to 10752
  153.1970  135.6863  153.8286 H   0  0  0  0  0  0  0  0  0  0  0  0  # atno 10764 bound_to 10752
  153.7784  135.3260  155.3339 H   0  0  0  0  0  0  0  0  0  0  0  0  # atno 10765 bound_to 10752
  140.3866  134.6899  157.4483 H   0  0  0  0  0  0  0  0  0  0  0  0  # atno 11005 bound_to 11000
  144.9598  139.3992  143.6361 LP  0  0  0  0  0  0  0  0  0  0  0  0  # atno 17320 bound_to 7965
  146.3331  139.8646  142.8850 LP  0  0  0  0  0  0  0  0  0  0  0  0  # atno 17321 bound_to 7965
  139.4872  144.4524  151.9638 LP  0  0  0  0  0  0  0  0  0  0  0  0  # atno 17342 bound_to 10162
  140.3613  144.2969  150.5933 LP  0  0  0  0  0  0  0  0  0  0  0  0  # atno 17343 bound_to 10162
  156.4116  130.7725  151.2738 LP  0  0  0  0  0  0  0  0  0  0  0  0  # atno 17370 bound_to 10713
  157.7508  131.0210  150.3730 LP  0  0  0  0  0  0  0  0  0  0  0  0  # atno 17371 bound_to 10713
  140.0438  134.6229  155.8947 LP  0  0  0  0  0  0  0  0  0  0  0  0  # atno 17394 bound_to 11000
  141.1905  133.6569  156.5415 LP  0  0  0  0  0  0  0  0  0  0  0  0  # atno 17395 bound_to 11000

$$$$
