AV-unprocessed.smi:94|AV-procd|sdf|853|dock9
  -GOLD-   2262017303D 1   1.00000     0.00000
 Structure written by MMmdl.
 53 55  0  0  0  0  0  0  0  0  1 V2000
  151.4882  131.7193  156.4577 C   0  0  0  0  0  0  0  0  0  0  0  0
  150.8155  132.9668  156.3674 O   0  0  0  0  0  0  0  0  0  0  0  0
  149.6634  133.0405  155.6103 C   0  0  0  0  0  0  0  0  0  0  0  0
  149.1895  131.9703  154.8085 C   0  0  0  0  0  0  0  0  0  0  0  0
  148.0025  132.0991  154.0635 C   0  0  0  0  0  0  0  0  0  0  0  0
  147.2654  133.2965  154.1109 C   0  0  0  0  0  0  0  0  0  0  0  0
  145.9814  133.4455  153.3212 C   0  0  0  0  0  0  0  0  0  0  0  0
  147.7248  134.3623  154.9050 C   0  0  0  0  0  0  0  0  0  0  0  0
  148.9254  134.2504  155.6474 C   0  0  0  0  0  0  0  0  0  0  0  0
  149.4122  135.4222  156.5018 C   0  0  2  0  0  0  0  0  0  0  0  0
  148.3238  135.8638  157.4945 C   0  0  0  0  0  0  0  0  0  0  0  0
  149.8279  136.5452  155.6693 N   0  0  0  0  0  0  0  0  0  0  0  0
  151.0632  137.0496  155.5242 C   0  0  0  0  0  0  0  0  0  0  0  0
  152.0427  136.6111  156.1253 O   0  0  0  0  0  0  0  0  0  0  0  0
  151.2330  138.2284  154.5467 C   0  0  0  0  0  0  0  0  0  0  0  0
  150.7490  139.5291  155.0717 N   0  0  0  0  0  0  0  0  0  0  0  0
  149.4298  139.9377  154.7528 C   0  0  0  0  0  0  0  0  0  0  0  0
  148.7016  139.2471  154.0388 O   0  0  0  0  0  0  0  0  0  0  0  0
  149.0057  141.2063  155.3333 C   0  0  0  0  0  0  0  0  0  0  0  0
  147.7801  141.6862  155.0629 F   0  0  0  0  0  0  0  0  0  0  0  0
  149.8244  141.9062  156.1447 C   0  0  0  0  0  0  0  0  0  0  0  0
  151.0933  141.4784  156.4822 N   0  0  0  0  0  0  0  0  0  0  0  0
  151.9337  142.3359  157.4024 C   0  0  1  0  0  0  0  0  0  0  0  0
  152.1167  143.7756  156.8996 C   0  0  0  0  0  0  0  0  0  0  0  0
  152.1276  144.5432  158.2037 C   0  0  0  0  0  0  0  0  0  0  0  0
  151.1393  143.7478  159.0501 C   0  0  0  0  0  0  0  0  0  0  0  0
  151.3318  142.3891  158.6637 O   0  0  0  0  0  0  0  0  0  0  0  0
  151.5979  140.2833  155.9184 C   0  0  0  0  0  0  0  0  0  0  0  0
  152.7386  139.8923  156.1679 O   0  0  0  0  0  0  0  0  0  0  0  0
  152.3725  131.8331  157.0847 H   0  0  0  0  0  0  0  0  0  0  0  0
  151.8213  131.3745  155.4779 H   0  0  0  0  0  0  0  0  0  0  0  0
  150.8566  130.9569  156.9156 H   0  0  0  0  0  0  0  0  0  0  0  0
  149.7199  131.0325  154.7471 H   0  0  0  0  0  0  0  0  0  0  0  0
  147.6591  131.2718  153.4599 H   0  0  0  0  0  0  0  0  0  0  0  0
  145.1229  133.4134  153.9925 H   0  0  0  0  0  0  0  0  0  0  0  0
  145.8724  132.6470  152.5863 H   0  0  0  0  0  0  0  0  0  0  0  0
  145.9679  134.3990  152.7915 H   0  0  0  0  0  0  0  0  0  0  0  0
  147.1380  135.2688  154.9388 H   0  0  0  0  0  0  0  0  0  0  0  0
  150.2899  135.0964  157.0626 H   0  0  0  0  0  0  0  0  0  0  0  0
  148.0337  135.0405  158.1478 H   0  0  0  0  0  0  0  0  0  0  0  0
  147.4288  136.2058  156.9737 H   0  0  0  0  0  0  0  0  0  0  0  0
  148.6698  136.6778  158.1321 H   0  0  0  0  0  0  0  0  0  0  0  0
  149.0954  136.9809  155.1285 H   0  0  0  0  0  0  0  0  0  0  0  0
  152.2877  138.2920  154.2750 H   0  0  0  0  0  0  0  0  0  0  0  0
  150.7377  137.9711  153.6094 H   0  0  0  0  0  0  0  0  0  0  0  0
  149.4593  142.8385  156.5504 H   0  0  0  0  0  0  0  0  0  0  0  0
  152.8887  141.8196  157.5079 H   0  0  0  0  0  0  0  0  0  0  0  0
  153.0391  143.8746  156.3273 H   0  0  0  0  0  0  0  0  0  0  0  0
  151.2827  144.0923  156.2745 H   0  0  0  0  0  0  0  0  0  0  0  0
  153.1208  144.5042  158.6528 H   0  0  0  0  0  0  0  0  0  0  0  0
  151.8444  145.5897  158.0875 H   0  0  0  0  0  0  0  0  0  0  0  0
  151.3015  143.8832  160.1194 H   0  0  0  0  0  0  0  0  0  0  0  0
  150.1157  144.0484  158.8262 H   0  0  0  0  0  0  0  0  0  0  0  0
  1  2  1  0  0  0  0
  1 30  1  0  0  0  0
  1 31  1  0  0  0  0
  1 32  1  0  0  0  0
  2  3  1  0  0  0  0
  3  9  1  0  0  0  0
  3  4  2  0  0  0  0
  4  5  1  0  0  0  0
  4 33  1  0  0  0  0
  5  6  2  0  0  0  0
  5 34  1  0  0  0  0
  6  7  1  0  0  0  0
  6  8  1  0  0  0  0
  7 35  1  0  0  0  0
  7 36  1  0  0  0  0
  7 37  1  0  0  0  0
  8  9  2  0  0  0  0
  8 38  1  0  0  0  0
  9 10  1  0  0  0  0
 10 11  1  0  0  0  0
 10 12  1  0  0  0  0
 10 39  1  0  0  0  0
 11 40  1  0  0  0  0
 11 41  1  0  0  0  0
 11 42  1  0  0  0  0
 12 13  1  0  0  0  0
 12 43  1  0  0  0  0
 13 14  2  0  0  0  0
 13 15  1  0  0  0  0
 15 16  1  0  0  0  0
 15 44  1  0  0  0  0
 15 45  1  0  0  0  0
 16 28  1  0  0  0  0
 16 17  1  0  0  0  0
 17 18  2  0  0  0  0
 17 19  1  0  0  0  0
 19 20  1  0  0  0  0
 19 21  2  0  0  0  0
 21 22  1  0  0  0  0
 21 46  1  0  0  0  0
 22 23  1  0  0  0  0
 22 28  1  0  0  0  0
 23 27  1  0  0  0  0
 23 24  1  0  0  0  0
 23 47  1  0  0  0  0
 24 25  1  0  0  0  0
 24 48  1  0  0  0  0
 24 49  1  0  0  0  0
 25 26  1  0  0  0  0
 25 50  1  0  0  0  0
 25 51  1  0  0  0  0
 26 27  1  0  0  0  0
 26 52  1  0  0  0  0
 26 53  1  0  0  0  0
 28 29  2  0  0  0  0
M  END
> <s_m_source_file>
AV-unprocessed.smi

> <i_m_source_file_index>
94

> <i_lp_mmshare_version>
43012

> <i_f3d_flags>
0

> <s_epik_input>
W0NIM11PYzFbY0hdW2NIXWMoW0NIM10pW2NIXWMxW0NASF0oW0NIM10pW05IXUMoPU8pW0NIMl1uMmMoPU8pYyhGKVtjSF1uKGMyPU8pW0NAQEhdM1tDSDJdW0NIMl1bQ0gyXU8z

> <s_epik_cmdline>
J2VwaWtfcHl0aG9uJywgJy1waCcsICc3LjAnLCAnLXRuJywgJzgnLCAnLW1hJywgJzIwMCcsICctbWV0YWxfYmluZGluZycsICctaW1hZScsICc8aW5maWxlLm1hZT4nLCAnLW9tYWUnLCAnPG91dGZpbGUubWFlPic=

> <r_lp_tautomer_probability>
1

> <r_epik_Ionization_Penalty>
3.37009e-08

> <r_epik_Ionization_Penalty_Charging>
3.59856e-09

> <r_epik_Ionization_Penalty_Neutral>
3.01024e-08

> <r_epik_State_Penalty>
-0

> <r_epik_Charging_Adjusted_Penalty>
3.59856e-09

> <i_epik_Tot_Q>
0

> <i_epik_Tot_abs_Q>
0

> <r_epik_Metal_State_Penalty>
-0

> <b_epik_Metal_Only>
0

> <s_epik_Chemistry_Notes>
This compound contains an acetal/aminal-like group ( X-CH(R)-Y where X, Y are N, S, or O) that may be acid/base labile, releasing an aldehyde.

> <s_lp_Force_Field>
OPLS_2005

> <r_lp_Energy>
25.2965

> <b_lp_Chiralities_Consistent>
1

> <s_lp_Variant>
AV-unprocessed.smi:94-3

> <Gold.Version>
5.8.1

> <Gold.Id.Protein>
6NUR|6NUR_protein|mol2

> <Gold.PLP.Fitness>
56.6923

> <Gold.PLP.PLP>
-49.0609

> <Gold.PLP.part.hbond>
-2.0000

> <Gold.PLP.part.metal>
0.0000

> <Gold.PLP.part.buried>
-4.0317

> <Gold.PLP.part.nonpolar>
-45.4456

> <Gold.PLP.part.repulsive>
2.8536

> <Gold.PLP.ligand.clash>
0.0000

> <Gold.PLP.ligand.torsion>
0.7062

> <Gold.PLP.Chemscore.Hbond>
1.9920

> <Gold.PLP.Chemscore.CHOScore>
1.0000

> <Gold.PLP.Chemscore.Metal>
0.0000

> <Gold.Chemscore.Hbonds>
donor molecule, donor type, donor heavy atom, donor atom, acceptor molecule, acceptor atom, score
      P1  H  7997  8010       L1    29  1.00
      P1  H 10752 10765       L1    14  0.94
      L1  C    21    46       P1  8028  1.00

> <Gold.PLP.Chemscore.Internal.Correction>
0.0677

> <Gold.Rescore>
     Score         DG    S(hbond)    S(metal)    S(lipo)     H(rot)  DE(clash)    DE(int)     intcor
     12.96     -14.31       1.02        0.00      97.55       2.34       0.26       1.09       ----

> <Gold.Chemscore.Fitness>
12.9595

> <Gold.Chemscore.DG>
-14.3092

> <Gold.Chemscore.ZeroCoef>
-5.4800

> <Gold.Chemscore.Hbond>
1.0176

> <Gold.Chemscore.Metal>
0.0000

> <Gold.Chemscore.Lipo>
97.5483

> <Gold.Chemscore.Internal_Hbond>
0.0000

> <Gold.Chemscore.DEClash>
0.2590

> <Gold.Chemscore.DEInternal>
1.0907

> <Gold.Chemscore.Rot>
2.3370

> <Gold.Chemscore.Internal.Correction>
   9.000000E+99

> <Gold.Chemscore.Hbonds>
donor molecule, donor type, donor heavy atom, donor atom, acceptor molecule, acceptor atom, score
      P1  H  7997  8010       L1    29  0.97
      P1  H 10752 10765       L1    14  0.35

> <Gold.Chemscore.Hbond.Weighted>
-3.3987

> <Gold.Chemscore.Metal.Weighted>
-0.0000

> <Gold.Chemscore.Lipo.Weighted>
-11.4131

> <Gold.Chemscore.Internal_Hbond.Weighted>
0.0000

> <Gold.Chemscore.DEClash.Weighted>
0.2590

> <Gold.Chemscore.DEInternal.Weighted>
1.0907

> <Gold.Chemscore.Rot.Weighted>
5.9827

> <Gold.Chemscore.Internal.Correction.Weighted>
   9.000000E+99

> <Gold.Protein.RotatedTorsions>
[ 6907 6896 6895 6894 ] final   76.32 input  -60.11 | X-H torsion
[ 7974 7965 7964 7962 ] final  -22.29 input  175.53 | X-H torsion
[ 8008 7997 7996 7995 ] final   63.82 input   59.86 | X-H torsion
[ 10167 10162 10161 10158 ] final  136.89 input  -65.29 | X-H torsion
[ 10718 10713 10712 10709 ] final   -7.17 input   66.30 | X-H torsion
[ 10763 10752 10751 10750 ] final -173.81 input  -60.55 | X-H torsion
[ 11005 11000 10999 10996 ] final  -70.38 input  -57.11 | X-H torsion

> <Gold.Protein.ActiveResidues>
 VAL166  LYS551  ARG553  GLY616  TRP617  ASP618  TYR619  PRO620  LYS621  CYS622 
 ASP623  PHE694  ASN695  SER759  ASP760  ASP761  ALA762  ILE779  LEU786  VAL792 
 PHE793  MET794  SER795  GLU796  ALA797  LYS798  CYS799  TRP800  GLU811  SER814 

> <Gold.Protein.RotatedAtoms>
  152.5067  134.3987  159.9408 H   0  0  0  0  0  0  0  0  0  0  0  0  # atno 6907 bound_to 6896
  151.3950  133.3770  159.2733 H   0  0  0  0  0  0  0  0  0  0  0  0  # atno 6908 bound_to 6896
  150.9404  134.8834  159.7667 H   0  0  0  0  0  0  0  0  0  0  0  0  # atno 6909 bound_to 6896
  146.1684  140.4459  142.8542 H   0  0  0  0  0  0  0  0  0  0  0  0  # atno 7974 bound_to 7965
  155.6362  140.3496  155.4699 H   0  0  0  0  0  0  0  0  0  0  0  0  # atno 8008 bound_to 7997
  155.9963  140.1204  157.0614 H   0  0  0  0  0  0  0  0  0  0  0  0  # atno 8009 bound_to 7997
  154.4234  140.1109  156.5621 H   0  0  0  0  0  0  0  0  0  0  0  0  # atno 8010 bound_to 7997
  139.5164  144.6440  151.5491 H   0  0  0  0  0  0  0  0  0  0  0  0  # atno 10167 bound_to 10162
  156.7212  130.5151  149.5868 H   0  0  0  0  0  0  0  0  0  0  0  0  # atno 10718 bound_to 10713
  154.6035  135.2857  155.0510 H   0  0  0  0  0  0  0  0  0  0  0  0  # atno 10763 bound_to 10752
  154.1766  135.6464  153.5027 H   0  0  0  0  0  0  0  0  0  0  0  0  # atno 10764 bound_to 10752
  153.0166  135.5413  154.6763 H   0  0  0  0  0  0  0  0  0  0  0  0  # atno 10765 bound_to 10752
  141.1573  133.6788  156.6744 H   0  0  0  0  0  0  0  0  0  0  0  0  # atno 11005 bound_to 11000
  144.8126  140.6413  143.6405 LP  0  0  0  0  0  0  0  0  0  0  0  0  # atno 17320 bound_to 7965
  145.4406  139.1536  143.3972 LP  0  0  0  0  0  0  0  0  0  0  0  0  # atno 17321 bound_to 7965
  140.6218  143.9244  150.6532 LP  0  0  0  0  0  0  0  0  0  0  0  0  # atno 17342 bound_to 10162
  140.2520  143.3586  152.1397 LP  0  0  0  0  0  0  0  0  0  0  0  0  # atno 17343 bound_to 10162
  156.1593  130.6363  151.0698 LP  0  0  0  0  0  0  0  0  0  0  0  0  # atno 17370 bound_to 10713
  157.6897  131.0814  150.7142 LP  0  0  0  0  0  0  0  0  0  0  0  0  # atno 17371 bound_to 10713
  140.3150  134.8055  157.4207 LP  0  0  0  0  0  0  0  0  0  0  0  0  # atno 17394 bound_to 11000
  140.1146  134.5300  155.8236 LP  0  0  0  0  0  0  0  0  0  0  0  0  # atno 17395 bound_to 11000

$$$$
