AV-unprocessed.smi:2807|AV-procd|sdf|10817|dock5
  -GOLD-   2272015253D 1   1.00000     0.00000
 Structure written by MMmdl.
 32 33  0  0  0  0  0  0  0  0  1 V2000
  152.4964  140.0223  155.3635 O   0  0  0  0  0  0  0  0  0  0  0  0
  151.6234  139.5219  156.0738 C   0  0  0  0  0  0  0  0  0  0  0  0
  150.3306  139.4615  155.7144 N   0  0  0  0  0  0  0  0  0  0  0  0
  149.7609  140.0395  154.4975 C   0  0  1  0  0  0  0  0  0  0  0  0
  148.5209  139.2384  154.0622 C   0  0  0  0  0  0  0  0  0  0  0  0
  147.3173  140.1149  154.4037 C   0  0  0  0  0  0  0  0  0  0  0  0
  147.8264  141.5376  154.1931 C   0  0  0  0  0  0  0  0  0  0  0  0
  149.2838  141.5091  154.6713 C   0  0  1  0  0  0  0  0  0  0  0  0
  149.3310  141.9628  156.0138 O   0  0  0  0  0  0  0  0  0  0  0  0
  151.9721  138.9602  157.4597 C   0  0  0  0  0  0  0  0  0  0  0  0
  150.8962  138.3390  157.9483 F   0  0  0  0  0  0  0  0  0  0  0  0
  152.9493  138.0578  157.3408 F   0  0  0  0  0  0  0  0  0  0  0  0
  152.4161  140.0909  158.3852 C   0  0  0  0  0  0  0  0  0  0  0  0
  151.5718  141.1942  158.6479 C   0  0  0  0  0  0  0  0  0  0  0  0
  152.0468  142.2245  159.4822 C   0  0  0  0  0  0  0  0  0  0  0  0
  153.3420  142.1175  160.0230 C   0  0  0  0  0  0  0  0  0  0  0  0
  154.1086  140.9802  159.7035 C   0  0  0  0  0  0  0  0  0  0  0  0
  153.6636  139.9884  158.9031 N   0  0  0  0  0  0  0  0  0  0  0  0
  149.6809  139.0368  156.3604 H   0  0  0  0  0  0  0  0  0  0  0  0
  150.4973  139.9847  153.6937 H   0  0  0  0  0  0  0  0  0  0  0  0
  148.5541  139.0849  152.9827 H   0  0  0  0  0  0  0  0  0  0  0  0
  148.4564  138.2513  154.5226 H   0  0  0  0  0  0  0  0  0  0  0  0
  146.4437  139.8856  153.7928 H   0  0  0  0  0  0  0  0  0  0  0  0
  147.0415  139.9730  155.4497 H   0  0  0  0  0  0  0  0  0  0  0  0
  147.8012  141.7696  153.1276 H   0  0  0  0  0  0  0  0  0  0  0  0
  147.2157  142.2852  154.7013 H   0  0  0  0  0  0  0  0  0  0  0  0
  149.8946  142.1872  154.0745 H   0  0  0  0  0  0  0  0  0  0  0  0
  149.2753  142.9063  156.0124 H   0  0  0  0  0  0  0  0  0  0  0  0
  150.5850  141.2602  158.2144 H   0  0  0  0  0  0  0  0  0  0  0  0
  151.4295  143.0833  159.7005 H   0  0  0  0  0  0  0  0  0  0  0  0
  153.7394  142.8889  160.6657 H   0  0  0  0  0  0  0  0  0  0  0  0
  155.1070  140.8655  160.0990 H   0  0  0  0  0  0  0  0  0  0  0  0
  1  2  2  0  0  0  0
  2  3  1  0  0  0  0
  2 10  1  0  0  0  0
  3  4  1  0  0  0  0
  3 19  1  0  0  0  0
  4  8  1  0  0  0  0
  4  5  1  0  0  0  0
  4 20  1  0  0  0  0
  5  6  1  0  0  0  0
  5 21  1  0  0  0  0
  5 22  1  0  0  0  0
  6  7  1  0  0  0  0
  6 23  1  0  0  0  0
  6 24  1  0  0  0  0
  7  8  1  0  0  0  0
  7 25  1  0  0  0  0
  7 26  1  0  0  0  0
  8  9  1  0  0  0  0
  8 27  1  0  0  0  0
  9 28  1  0  0  0  0
 10 11  1  0  0  0  0
 10 12  1  0  0  0  0
 10 13  1  0  0  0  0
 13 18  1  0  0  0  0
 13 14  2  0  0  0  0
 14 15  1  0  0  0  0
 14 29  1  0  0  0  0
 15 16  2  0  0  0  0
 15 30  1  0  0  0  0
 16 17  1  0  0  0  0
 16 31  1  0  0  0  0
 17 18  2  0  0  0  0
 17 32  1  0  0  0  0
M  END
> <s_m_source_file>
AV-unprocessed.smi

> <i_m_source_file_index>
2807

> <i_lp_mmshare_version>
43012

> <i_f3d_flags>
0

> <s_epik_input>
bjFbY0hdW2NIXVtjSF1bY0hdYzFDKEYpKEYpQyg9TylbTkhdW0NAQEhdMltDSDJdW0NIMl1bQ0gyXVtDQEhdMltPSF0=

> <s_epik_cmdline>
J2VwaWtfcHl0aG9uJywgJy1waCcsICc3LjAnLCAnLXRuJywgJzgnLCAnLW1hJywgJzIwMCcsICctbWV0YWxfYmluZGluZycsICctaW1hZScsICc8aW5maWxlLm1hZT4nLCAnLW9tYWUnLCAnPG91dGZpbGUubWFlPic=

> <r_lp_tautomer_probability>
1

> <r_epik_Ionization_Penalty>
4.08325e-05

> <r_epik_Ionization_Penalty_Charging>
0

> <r_epik_Ionization_Penalty_Neutral>
4.08325e-05

> <r_epik_State_Penalty>
-0

> <r_epik_Charging_Adjusted_Penalty>
0

> <i_epik_Tot_Q>
0

> <i_epik_Tot_abs_Q>
0

> <r_epik_Metal_State_Penalty>
0.034564

> <b_epik_Metal_Only>
0

> <s_lp_Force_Field>
OPLS_2005

> <r_lp_Energy>
28.4248

> <b_lp_Chiralities_Consistent>
1

> <s_lp_Variant>
AV-unprocessed.smi:2807-2

> <Gold.Version>
5.8.1

> <Gold.Id.Protein>
6NUR|6NUR_protein|mol2

> <Gold.PLP.Fitness>
41.2830

> <Gold.PLP.PLP>
-33.0869

> <Gold.PLP.part.hbond>
-4.0000

> <Gold.PLP.part.metal>
0.0000

> <Gold.PLP.part.buried>
-0.6383

> <Gold.PLP.part.nonpolar>
-27.1319

> <Gold.PLP.part.repulsive>
0.0613

> <Gold.PLP.ligand.clash>
0.0000

> <Gold.PLP.ligand.torsion>
0.5186

> <Gold.PLP.Chemscore.Hbond>
3.0722

> <Gold.PLP.Chemscore.CHOScore>
0.0000

> <Gold.PLP.Chemscore.Metal>
0.0000

> <Gold.Chemscore.Hbonds>
donor molecule, donor type, donor heavy atom, donor atom, acceptor molecule, acceptor atom, score
      L1  H     9    28       P1  8028  1.00
      P1  H  7989  7998       L1     1  0.35
      P1  H  7997  8008       L1    18  0.50
      P1  H  7997  8009       L1     1  0.81

> <Gold.PLP.Chemscore.Internal.Correction>
0.0167

> <Gold.Rescore>
     Score         DG    S(hbond)    S(metal)    S(lipo)     H(rot)  DE(clash)    DE(int)     intcor
     16.93     -17.50       2.37        0.00      79.72       2.05       0.03       0.55       ----

> <Gold.Chemscore.Fitness>
16.9263

> <Gold.Chemscore.DG>
-17.5002

> <Gold.Chemscore.ZeroCoef>
-5.4800

> <Gold.Chemscore.Hbond>
2.3742

> <Gold.Chemscore.Metal>
0.0000

> <Gold.Chemscore.Lipo>
79.7223

> <Gold.Chemscore.Internal_Hbond>
0.0000

> <Gold.Chemscore.DEClash>
0.0281

> <Gold.Chemscore.DEInternal>
0.5458

> <Gold.Chemscore.Rot>
2.0457

> <Gold.Chemscore.Internal.Correction>
   9.000000E+99

> <Gold.Chemscore.Hbonds>
donor molecule, donor type, donor heavy atom, donor atom, acceptor molecule, acceptor atom, score
      L1  H     9    28       P1  8028  1.00
      P1  H  7989  7998       L1     1  0.30
      P1  H  7997  8008       L1    18  0.12
      P1  H  7997  8009       L1     1  0.77

> <Gold.Chemscore.Hbond.Weighted>
-7.9297

> <Gold.Chemscore.Metal.Weighted>
-0.0000

> <Gold.Chemscore.Lipo.Weighted>
-9.3275

> <Gold.Chemscore.Internal_Hbond.Weighted>
0.0000

> <Gold.Chemscore.DEClash.Weighted>
0.0281

> <Gold.Chemscore.DEInternal.Weighted>
0.5458

> <Gold.Chemscore.Rot.Weighted>
5.2371

> <Gold.Chemscore.Internal.Correction.Weighted>
   9.000000E+99

> <Gold.Protein.RotatedTorsions>
[ 6907 6896 6895 6894 ] final  174.23 input  -60.11 | X-H torsion
[ 7974 7965 7964 7962 ] final   79.33 input  175.53 | X-H torsion
[ 8008 7997 7996 7995 ] final -124.82 input   59.86 | X-H torsion
[ 10167 10162 10161 10158 ] final -178.01 input  -65.29 | X-H torsion
[ 10718 10713 10712 10709 ] final  -47.33 input   66.30 | X-H torsion
[ 10763 10752 10751 10750 ] final -125.67 input  -60.55 | X-H torsion
[ 11005 11000 10999 10996 ] final  147.31 input  -57.11 | X-H torsion

> <Gold.Protein.ActiveResidues>
 VAL166  LYS551  ARG553  GLY616  TRP617  ASP618  TYR619  PRO620  LYS621  CYS622 
 ASP623  PHE694  ASN695  SER759  ASP760  ASP761  ALA762  ILE779  LEU786  VAL792 
 PHE793  MET794  SER795  GLU796  ALA797  LYS798  CYS799  TRP800  GLU811  SER814 

> <Gold.Protein.RotatedAtoms>
  151.7556  133.3330  159.3403 H   0  0  0  0  0  0  0  0  0  0  0  0  # atno 6907 bound_to 6896
  150.7518  134.6152  159.6116 H   0  0  0  0  0  0  0  0  0  0  0  0  # atno 6908 bound_to 6896
  152.3439  134.7099  160.0307 H   0  0  0  0  0  0  0  0  0  0  0  0  # atno 6909 bound_to 6896
  145.6656  139.2483  143.1897 H   0  0  0  0  0  0  0  0  0  0  0  0  # atno 7974 bound_to 7965
  155.2031  140.0416  157.2921 H   0  0  0  0  0  0  0  0  0  0  0  0  # atno 8008 bound_to 7997
  154.6061  140.2465  155.7700 H   0  0  0  0  0  0  0  0  0  0  0  0  # atno 8009 bound_to 7997
  156.2351  140.2924  156.0301 H   0  0  0  0  0  0  0  0  0  0  0  0  # atno 8010 bound_to 7997
  139.5452  144.2254  152.0974 H   0  0  0  0  0  0  0  0  0  0  0  0  # atno 10167 bound_to 10162
  156.2095  130.4160  149.9133 H   0  0  0  0  0  0  0  0  0  0  0  0  # atno 10718 bound_to 10713
  154.8738  135.4021  154.3306 H   0  0  0  0  0  0  0  0  0  0  0  0  # atno 10763 bound_to 10752
  153.4120  135.7021  153.6358 H   0  0  0  0  0  0  0  0  0  0  0  0  # atno 10764 bound_to 10752
  153.5056  135.3718  155.2532 H   0  0  0  0  0  0  0  0  0  0  0  0  # atno 10765 bound_to 10752
  140.0865  134.9066  157.1583 H   0  0  0  0  0  0  0  0  0  0  0  0  # atno 11005 bound_to 11000
  146.1088  140.7453  142.9513 LP  0  0  0  0  0  0  0  0  0  0  0  0  # atno 17320 bound_to 7965
  144.7074  140.3906  143.7107 LP  0  0  0  0  0  0  0  0  0  0  0  0  # atno 17321 bound_to 7965
  140.1739  144.4909  150.6564 LP  0  0  0  0  0  0  0  0  0  0  0  0  # atno 17342 bound_to 10162
  140.6698  143.2281  151.5653 LP  0  0  0  0  0  0  0  0  0  0  0  0  # atno 17343 bound_to 10162
  156.6816  130.8860  151.3576 LP  0  0  0  0  0  0  0  0  0  0  0  0  # atno 17370 bound_to 10713
  157.7031  130.9354  150.0845 LP  0  0  0  0  0  0  0  0  0  0  0  0  # atno 17371 bound_to 10713
  140.3413  134.2701  155.7212 LP  0  0  0  0  0  0  0  0  0  0  0  0  # atno 17394 bound_to 11000
  141.2064  133.7834  157.0178 LP  0  0  0  0  0  0  0  0  0  0  0  0  # atno 17395 bound_to 11000

$$$$
