AV-unprocessed.smi:2302|AV-procd|sdf|9240|dock8
  -GOLD-   2272012453D 1   1.00000     0.00000
 Structure written by MMmdl.
 39 40  0  0  0  0  0  0  0  0  1 V2000
  153.6487  140.7425  160.1872 C   0  0  0  0  0  0  0  0  0  0  0  0
  152.9539  141.9969  159.7002 C   0  0  0  0  0  0  0  0  0  0  0  0
  153.1941  143.2437  160.3101 C   0  0  0  0  0  0  0  0  0  0  0  0
  152.5212  144.3698  159.8035 C   0  0  0  0  0  0  0  0  0  0  0  0
  151.6416  144.2040  158.7162 C   0  0  0  0  0  0  0  0  0  0  0  0
  151.4550  142.9172  158.1627 C   0  0  0  0  0  0  0  0  0  0  0  0
  150.5502  142.8572  157.0695 N   0  0  0  0  0  0  0  0  0  0  0  0
  150.1819  141.7802  156.3536 C   0  0  0  0  0  0  0  0  0  0  0  0
  150.5620  140.6263  156.5556 O   0  0  0  0  0  0  0  0  0  0  0  0
  149.3344  142.1195  155.3714 N   0  0  0  0  0  0  0  0  0  0  0  0
  148.7754  141.1987  154.3871 C   0  0  0  0  0  0  0  0  0  0  0  0
  147.2444  141.3216  154.3042 C   0  0  2  0  0  0  0  0  0  0  0  0
  146.7945  142.7841  154.1141 C   0  0  0  0  0  0  0  0  0  0  0  0
  145.3422  142.9070  154.0999 N   0  0  0  0  0  0  0  0  0  0  0  0
  144.9209  144.2876  153.9170 C   0  0  0  0  0  0  0  0  0  0  0  0
  144.7915  142.3358  155.3216 C   0  0  0  0  0  0  0  0  0  0  0  0
  145.2483  140.8816  155.5246 C   0  0  0  0  0  0  0  0  0  0  0  0
  146.6710  140.8268  155.5134 O   0  0  0  0  0  0  0  0  0  0  0  0
  152.1091  141.8374  158.6590 N   0  0  0  0  0  0  0  0  0  0  0  0
  154.2934  140.9521  161.0412 H   0  0  0  0  0  0  0  0  0  0  0  0
  154.2637  140.3188  159.3929 H   0  0  0  0  0  0  0  0  0  0  0  0
  152.9150  139.9949  160.4897 H   0  0  0  0  0  0  0  0  0  0  0  0
  153.8766  143.3376  161.1421 H   0  0  0  0  0  0  0  0  0  0  0  0
  152.6772  145.3452  160.2401 H   0  0  0  0  0  0  0  0  0  0  0  0
  151.1180  145.0593  158.3144 H   0  0  0  0  0  0  0  0  0  0  0  0
  150.1476  143.7394  156.7907 H   0  0  0  0  0  0  0  0  0  0  0  0
  149.0742  143.0906  155.2821 H   0  0  0  0  0  0  0  0  0  0  0  0
  149.2284  141.3497  153.4058 H   0  0  0  0  0  0  0  0  0  0  0  0
  149.0448  140.1886  154.6970 H   0  0  0  0  0  0  0  0  0  0  0  0
  146.8835  140.7225  153.4659 H   0  0  0  0  0  0  0  0  0  0  0  0
  147.2091  143.3984  154.9153 H   0  0  0  0  0  0  0  0  0  0  0  0
  147.2043  143.1717  153.1806 H   0  0  0  0  0  0  0  0  0  0  0  0
  143.8336  144.3559  153.8711 H   0  0  0  0  0  0  0  0  0  0  0  0
  145.3183  144.6928  152.9859 H   0  0  0  0  0  0  0  0  0  0  0  0
  145.2667  144.9178  154.7377 H   0  0  0  0  0  0  0  0  0  0  0  0
  145.1014  142.9325  156.1811 H   0  0  0  0  0  0  0  0  0  0  0  0
  143.7020  142.3744  155.2909 H   0  0  0  0  0  0  0  0  0  0  0  0
  144.8844  140.4984  156.4778 H   0  0  0  0  0  0  0  0  0  0  0  0
  144.8459  140.2350  154.7431 H   0  0  0  0  0  0  0  0  0  0  0  0
  1  2  1  0  0  0  0
  1 20  1  0  0  0  0
  1 21  1  0  0  0  0
  1 22  1  0  0  0  0
  2 19  1  0  0  0  0
  2  3  2  0  0  0  0
  3  4  1  0  0  0  0
  3 23  1  0  0  0  0
  4  5  2  0  0  0  0
  4 24  1  0  0  0  0
  5  6  1  0  0  0  0
  5 25  1  0  0  0  0
  6  7  1  0  0  0  0
  6 19  2  0  0  0  0
  7  8  1  0  0  0  0
  7 26  1  0  0  0  0
  8  9  2  0  0  0  0
  8 10  1  0  0  0  0
 10 11  1  0  0  0  0
 10 27  1  0  0  0  0
 11 12  1  0  0  0  0
 11 28  1  0  0  0  0
 11 29  1  0  0  0  0
 12 18  1  0  0  0  0
 12 13  1  0  0  0  0
 12 30  1  0  0  0  0
 13 14  1  0  0  0  0
 13 31  1  0  0  0  0
 13 32  1  0  0  0  0
 14 15  1  0  0  0  0
 14 16  1  0  0  0  0
 15 33  1  0  0  0  0
 15 34  1  0  0  0  0
 15 35  1  0  0  0  0
 16 17  1  0  0  0  0
 16 36  1  0  0  0  0
 16 37  1  0  0  0  0
 17 18  1  0  0  0  0
 17 38  1  0  0  0  0
 17 39  1  0  0  0  0
M  END
> <s_m_source_file>
AV-unprocessed.smi

> <i_m_source_file_index>
2302

> <i_lp_mmshare_version>
43012

> <i_f3d_flags>
0

> <s_epik_input>
W0NIM11jMVtjSF1bY0hdW2NIXWMobjEpW05IXUMoPU8pW05IXVtDSDJdW0NAQEhdMltDSDJdTihbQ0gzXSlbQ0gyXVtDSDJdTzI=

> <s_epik_cmdline>
J2VwaWtfcHl0aG9uJywgJy1waCcsICc3LjAnLCAnLXRuJywgJzgnLCAnLW1hJywgJzIwMCcsICctbWV0YWxfYmluZGluZycsICctaW1hZScsICc8aW5maWxlLm1hZT4nLCAnLW9tYWUnLCAnPG91dGZpbGUubWFlPic=

> <r_epik_Ionization_Penalty>
0.729465

> <r_epik_Ionization_Penalty_Charging>
0

> <r_epik_Ionization_Penalty_Neutral>
0.729465

> <r_epik_State_Penalty>
0.754525

> <r_epik_Charging_Adjusted_Penalty>
0.754525

> <i_epik_Tot_Q>
0

> <i_epik_Tot_abs_Q>
0

> <r_epik_Metal_State_Penalty>
0.754521

> <b_epik_Metal_Only>
0

> <s_lp_Force_Field>
OPLS_2005

> <r_lp_Energy>
19.6921

> <b_lp_Chiralities_Consistent>
1

> <s_lp_Variant>
AV-unprocessed.smi:2302-5

> <Gold.Version>
5.8.1

> <Gold.Id.Protein>
6NUR|6NUR_protein|mol2

> <Gold.PLP.Fitness>
44.5427

> <Gold.PLP.PLP>
-38.7203

> <Gold.PLP.part.hbond>
-2.0000

> <Gold.PLP.part.metal>
0.0000

> <Gold.PLP.part.buried>
-6.7778

> <Gold.PLP.part.nonpolar>
-31.3135

> <Gold.PLP.part.repulsive>
0.5051

> <Gold.PLP.ligand.clash>
0.0000

> <Gold.PLP.ligand.torsion>
0.0769

> <Gold.PLP.Chemscore.Hbond>
1.9920

> <Gold.PLP.Chemscore.CHOScore>
0.0000

> <Gold.PLP.Chemscore.Metal>
0.0000

> <Gold.Chemscore.Hbonds>
donor molecule, donor type, donor heavy atom, donor atom, acceptor molecule, acceptor atom, score
      L1  H     7    26       P1  8028  0.99
      L1  H    10    27       P1  8028  1.00

> <Gold.PLP.Chemscore.Internal.Correction>
0.0002

> <Gold.Rescore>
     Score         DG    S(hbond)    S(metal)    S(lipo)     H(rot)  DE(clash)    DE(int)     intcor
     17.73     -19.12       1.97        0.00      87.72       1.25       0.00       1.39       ----

> <Gold.Chemscore.Fitness>
17.7342

> <Gold.Chemscore.DG>
-19.1199

> <Gold.Chemscore.ZeroCoef>
-5.4800

> <Gold.Chemscore.Hbond>
1.9695

> <Gold.Chemscore.Metal>
0.0000

> <Gold.Chemscore.Lipo>
87.7196

> <Gold.Chemscore.Internal_Hbond>
0.0000

> <Gold.Chemscore.DEClash>
0.0004

> <Gold.Chemscore.DEInternal>
1.3853

> <Gold.Chemscore.Rot>
1.2506

> <Gold.Chemscore.Internal.Correction>
   9.000000E+99

> <Gold.Chemscore.Hbonds>
donor molecule, donor type, donor heavy atom, donor atom, acceptor molecule, acceptor atom, score
      L1  H     7    26       P1  8028  0.94
      L1  H    10    27       P1  8028  1.00

> <Gold.Chemscore.Hbond.Weighted>
-6.5782

> <Gold.Chemscore.Metal.Weighted>
-0.0000

> <Gold.Chemscore.Lipo.Weighted>
-10.2632

> <Gold.Chemscore.Internal_Hbond.Weighted>
0.0000

> <Gold.Chemscore.DEClash.Weighted>
0.0004

> <Gold.Chemscore.DEInternal.Weighted>
1.3853

> <Gold.Chemscore.Rot.Weighted>
3.2015

> <Gold.Chemscore.Internal.Correction.Weighted>
   9.000000E+99

> <Gold.Protein.RotatedTorsions>
[ 6907 6896 6895 6894 ] final   82.19 input  -60.11 | X-H torsion
[ 7974 7965 7964 7962 ] final   39.70 input  175.53 | X-H torsion
[ 8008 7997 7996 7995 ] final -105.83 input   59.86 | X-H torsion
[ 10167 10162 10161 10158 ] final  177.46 input  -65.29 | X-H torsion
[ 10718 10713 10712 10709 ] final   56.84 input   66.30 | X-H torsion
[ 10763 10752 10751 10750 ] final   76.30 input  -60.55 | X-H torsion
[ 11005 11000 10999 10996 ] final -165.83 input  -57.11 | X-H torsion

> <Gold.Protein.ActiveResidues>
 VAL166  LYS551  ARG553  GLY616  TRP617  ASP618  TYR619  PRO620  LYS621  CYS622 
 ASP623  PHE694  ASN695  SER759  ASP760  ASP761  ALA762  ILE779  LEU786  VAL792 
 PHE793  MET794  SER795  GLU796  ALA797  LYS798  CYS799  TRP800  GLU811  SER814 

> <Gold.Protein.RotatedAtoms>
  152.5291  134.3089  159.9105 H   0  0  0  0  0  0  0  0  0  0  0  0  # atno 6907 bound_to 6896
  151.3038  133.4104  159.2649 H   0  0  0  0  0  0  0  0  0  0  0  0  # atno 6908 bound_to 6896
  151.0096  134.9403  159.8057 H   0  0  0  0  0  0  0  0  0  0  0  0  # atno 6909 bound_to 6896
  146.0963  139.5620  142.9443 H   0  0  0  0  0  0  0  0  0  0  0  0  # atno 7974 bound_to 7965
  154.9056  140.0411  157.1918 H   0  0  0  0  0  0  0  0  0  0  0  0  # atno 8008 bound_to 7997
  154.8400  140.2913  155.5645 H   0  0  0  0  0  0  0  0  0  0  0  0  # atno 8009 bound_to 7997
  156.2991  140.2484  156.3340 H   0  0  0  0  0  0  0  0  0  0  0  0  # atno 8010 bound_to 7997
  139.5254  144.2795  152.0559 H   0  0  0  0  0  0  0  0  0  0  0  0  # atno 10167 bound_to 10162
  157.5465  130.8734  149.8898 H   0  0  0  0  0  0  0  0  0  0  0  0  # atno 10718 bound_to 10713
  153.0716  135.4956  154.8316 H   0  0  0  0  0  0  0  0  0  0  0  0  # atno 10763 bound_to 10752
  154.7030  135.3005  154.9315 H   0  0  0  0  0  0  0  0  0  0  0  0  # atno 10764 bound_to 10752
  154.0033  135.6763  153.4813 H   0  0  0  0  0  0  0  0  0  0  0  0  # atno 10765 bound_to 10752
  140.5712  134.5235  157.5162 H   0  0  0  0  0  0  0  0  0  0  0  0  # atno 11005 bound_to 11000
  145.5941  141.0365  143.2054 LP  0  0  0  0  0  0  0  0  0  0  0  0  # atno 17320 bound_to 7965
  144.7398  139.7481  143.7315 LP  0  0  0  0  0  0  0  0  0  0  0  0  # atno 17321 bound_to 7965
  140.2251  144.4426  150.6324 LP  0  0  0  0  0  0  0  0  0  0  0  0  # atno 17342 bound_to 10162
  140.6393  143.2200  151.6326 LP  0  0  0  0  0  0  0  0  0  0  0  0  # atno 17343 bound_to 10162
  156.0540  130.3712  150.1135 LP  0  0  0  0  0  0  0  0  0  0  0  0  # atno 17370 bound_to 10713
  156.9311  130.9714  151.3532 LP  0  0  0  0  0  0  0  0  0  0  0  0  # atno 17371 bound_to 10713
  139.9361  134.7873  156.0800 LP  0  0  0  0  0  0  0  0  0  0  0  0  # atno 17394 bound_to 11000
  141.1054  133.6662  156.2853 LP  0  0  0  0  0  0  0  0  0  0  0  0  # atno 17395 bound_to 11000

$$$$
