AV-unprocessed.smi:2772|AV-procd|sdf|10664|dock5
  -GOLD-   2272015113D 1   1.00000     0.00000
 Structure written by MMmdl.
 55 57  0  0  0  0  0  0  0  0  3 V2000
  153.0625  143.2424  160.2951 C   0  0  0  0  0  0  0  0  0  0  0  0
  152.2716  142.5841  159.1840 C   0  0  0  0  0  0  0  0  0  0  0  0
  152.0662  141.1893  159.1715 C   0  0  0  0  0  0  0  0  0  0  0  0
  151.3265  140.6267  158.1134 C   0  0  0  0  0  0  0  0  0  0  0  0
  150.8254  141.4791  157.0997 C   0  0  0  0  0  0  0  0  0  0  0  0
  150.0523  141.0401  155.9904 N   0  0  0  0  0  0  0  0  0  0  0  0
  149.0783  140.1144  155.9587 C   0  0  0  0  0  0  0  0  0  0  0  0
  148.6928  139.4495  156.9199 O   0  0  0  0  0  0  0  0  0  0  0  0
  148.5760  139.9811  154.7224 N   0  0  0  0  0  0  0  0  0  0  0  0
  147.5070  139.0602  154.3470 C   0  0  2  0  0  0  0  0  0  0  0  0
  147.8656  137.6141  154.7220 C   0  0  0  0  0  0  0  0  0  0  0  0
  146.7743  136.6394  154.2531 C   0  0  0  0  0  0  0  0  0  0  0  0
  146.5456  136.7256  152.7816 N   0  3  1  0  0  0  0  0  0  0  0  0
  145.6103  135.6577  152.2937 C   0  0  2  0  0  0  0  0  0  0  0  0
  146.1621  134.2510  152.6277 C   0  0  0  0  0  0  0  0  0  0  0  0
  145.2267  133.1302  152.1427 C   0  0  0  0  0  0  0  0  0  0  0  0
  144.9817  133.2326  150.6851 N   0  3  1  0  0  0  0  0  0  0  0  0
  144.1766  132.1052  150.1671 C   0  0  0  0  0  0  0  0  0  0  0  0
  144.4095  134.5499  150.3199 C   0  0  0  0  0  0  0  0  0  0  0  0
  145.3268  135.7005  150.7703 C   0  0  0  0  0  0  0  0  0  0  0  0
  146.1877  138.1205  152.3890 C   0  0  0  0  0  0  0  0  0  0  0  0
  147.2563  139.1342  152.8355 C   0  0  0  0  0  0  0  0  0  0  0  0
  151.0805  142.8618  157.2196 C   0  0  0  0  0  0  0  0  0  0  0  0
  151.7889  143.4090  158.2301 N   0  0  0  0  0  0  0  0  0  0  0  0
  153.2004  142.5617  161.1355 H   0  0  0  0  0  0  0  0  0  0  0  0
  152.5463  144.1307  160.6607 H   0  0  0  0  0  0  0  0  0  0  0  0
  154.0460  143.5411  159.9315 H   0  0  0  0  0  0  0  0  0  0  0  0
  152.4612  140.5612  159.9561 H   0  0  0  0  0  0  0  0  0  0  0  0
  151.1506  139.5626  158.1109 H   0  0  0  0  0  0  0  0  0  0  0  0
  150.3069  141.4468  155.1021 H   0  0  0  0  0  0  0  0  0  0  0  0
  148.9560  140.5644  153.9911 H   0  0  0  0  0  0  0  0  0  0  0  0
  146.5893  139.3493  154.8637 H   0  0  0  0  0  0  0  0  0  0  0  0
  148.8215  137.3361  154.2749 H   0  0  0  0  0  0  0  0  0  0  0  0
  147.9922  137.5249  155.8016 H   0  0  0  0  0  0  0  0  0  0  0  0
  147.0721  135.6342  154.5452 H   0  0  0  0  0  0  0  0  0  0  0  0
  145.8411  136.8503  154.7783 H   0  0  0  0  0  0  0  0  0  0  0  0
  144.6546  135.7938  152.8033 H   0  0  0  0  0  0  0  0  0  0  0  0
  147.1450  134.1244  152.1711 H   0  0  0  0  0  0  0  0  0  0  0  0
  146.3081  134.1247  153.6993 H   0  0  0  0  0  0  0  0  0  0  0  0
  145.6733  132.1612  152.3691 H   0  0  0  0  0  0  0  0  0  0  0  0
  144.2770  133.1745  152.6788 H   0  0  0  0  0  0  0  0  0  0  0  0
  143.1801  132.0984  150.6110 H   0  0  0  0  0  0  0  0  0  0  0  0
  144.6578  131.1524  150.3915 H   0  0  0  0  0  0  0  0  0  0  0  0
  144.0679  132.1747  149.0842 H   0  0  0  0  0  0  0  0  0  0  0  0
  144.2695  134.5988  149.2392 H   0  0  0  0  0  0  0  0  0  0  0  0
  143.4219  134.6582  150.7720 H   0  0  0  0  0  0  0  0  0  0  0  0
  144.8367  136.6341  150.4930 H   0  0  0  0  0  0  0  0  0  0  0  0
  146.2640  135.6548  150.2134 H   0  0  0  0  0  0  0  0  0  0  0  0
  146.1055  138.2108  151.3068 H   0  0  0  0  0  0  0  0  0  0  0  0
  145.2165  138.3828  152.8120 H   0  0  0  0  0  0  0  0  0  0  0  0
  146.9439  140.1419  152.5588 H   0  0  0  0  0  0  0  0  0  0  0  0
  148.1848  138.9405  152.2960 H   0  0  0  0  0  0  0  0  0  0  0  0
  150.7083  143.5536  156.4780 H   0  0  0  0  0  0  0  0  0  0  0  0
  147.4345  136.5409  152.3387 H   0  0  0  0  0  0  0  0  0  0  0  0
  145.8827  133.1699  150.2324 H   0  0  0  0  0  0  0  0  0  0  0  0
  1  2  1  0  0  0  0
  1 25  1  0  0  0  0
  1 26  1  0  0  0  0
  1 27  1  0  0  0  0
  2 24  1  0  0  0  0
  2  3  2  0  0  0  0
  3  4  1  0  0  0  0
  3 28  1  0  0  0  0
  4  5  2  0  0  0  0
  4 29  1  0  0  0  0
  5  6  1  0  0  0  0
  5 23  1  0  0  0  0
  6  7  1  0  0  0  0
  6 30  1  0  0  0  0
  7  8  2  0  0  0  0
  7  9  1  0  0  0  0
  9 10  1  0  0  0  0
  9 31  1  0  0  0  0
 10 22  1  0  0  0  0
 10 11  1  0  0  0  0
 10 32  1  0  0  0  0
 11 12  1  0  0  0  0
 11 33  1  0  0  0  0
 11 34  1  0  0  0  0
 12 13  1  0  0  0  0
 12 35  1  0  0  0  0
 12 36  1  0  0  0  0
 13 14  1  0  0  0  0
 13 21  1  0  0  0  0
 13 54  1  0  0  0  0
 14 20  1  0  0  0  0
 14 15  1  0  0  0  0
 14 37  1  0  0  0  0
 15 16  1  0  0  0  0
 15 38  1  0  0  0  0
 15 39  1  0  0  0  0
 16 17  1  0  0  0  0
 16 40  1  0  0  0  0
 16 41  1  0  0  0  0
 17 18  1  0  0  0  0
 17 19  1  0  0  0  0
 17 55  1  0  0  0  0
 18 42  1  0  0  0  0
 18 43  1  0  0  0  0
 18 44  1  0  0  0  0
 19 20  1  0  0  0  0
 19 45  1  0  0  0  0
 19 46  1  0  0  0  0
 20 47  1  0  0  0  0
 20 48  1  0  0  0  0
 21 22  1  0  0  0  0
 21 49  1  0  0  0  0
 21 50  1  0  0  0  0
 22 51  1  0  0  0  0
 22 52  1  0  0  0  0
 23 24  2  0  0  0  0
 23 53  1  0  0  0  0
M  CHG  1  13   1
M  CHG  1  17   1
M  END
> <s_m_source_file>
AV-unprocessed.smi

> <i_m_source_file_index>
2772

> <i_lp_mmshare_version>
43012

> <i_f3d_flags>
0

> <s_epik_input>
W0NIM11jMVtjSF1bY0hdYyhbY0hdbjEpW05IXUMoPU8pW05IXVtDSF0yW0NIMl1bQ0gyXU4oW0NIMl1bQ0gyXTIpW0NIXTNbQ0gyXVtDSDJdTihbQ0gzXSlbQ0gyXVtDSDJdMw==

> <s_epik_cmdline>
J2VwaWtfcHl0aG9uJywgJy1waCcsICc3LjAnLCAnLXRuJywgJzgnLCAnLW1hJywgJzIwMCcsICctbWV0YWxfYmluZGluZycsICctaW1hZScsICc8aW5maWxlLm1hZT4nLCAnLW9tYWUnLCAnPG91dGZpbGUubWFlPic=

> <r_epik_Ionization_Penalty>
0.196786

> <r_epik_Ionization_Penalty_Charging>
0.180787

> <r_epik_Ionization_Penalty_Neutral>
0.0159988

> <r_epik_State_Penalty>
0.163322

> <r_epik_Charging_Adjusted_Penalty>
0.344109

> <i_epik_Tot_Q>
2

> <i_epik_Tot_abs_Q>
2

> <r_epik_Metal_State_Penalty>
0.163596

> <b_epik_Metal_Only>
0

> <s_lp_Force_Field>
OPLS_2005

> <r_lp_Energy>
43.2769

> <b_lp_Chiralities_Consistent>
1

> <s_lp_Variant>
AV-unprocessed.smi:2772-1

> <Gold.Version>
5.8.1

> <Gold.Id.Protein>
6NUR|6NUR_protein|mol2

> <Gold.PLP.Fitness>
46.2824

> <Gold.PLP.PLP>
-37.9689

> <Gold.PLP.part.hbond>
-1.0000

> <Gold.PLP.part.metal>
0.0000

> <Gold.PLP.part.buried>
-5.0108

> <Gold.PLP.part.nonpolar>
-32.6995

> <Gold.PLP.part.repulsive>
0.2559

> <Gold.PLP.ligand.clash>
0.0000

> <Gold.PLP.ligand.torsion>
0.3597

> <Gold.PLP.Chemscore.Hbond>
2.0000

> <Gold.PLP.Chemscore.CHOScore>
1.0000

> <Gold.PLP.Chemscore.Metal>
0.0000

> <Gold.Chemscore.Hbonds>
donor molecule, donor type, donor heavy atom, donor atom, acceptor molecule, acceptor atom, score
      L1  H    13    54       P1  7948  2.00
      L1  C    23    53       P1  8028  1.00

> <Gold.PLP.Chemscore.Internal.Correction>
0.0330

> <Gold.Rescore>
     Score         DG    S(hbond)    S(metal)    S(lipo)     H(rot)  DE(clash)    DE(int)     intcor
     18.13     -18.65       0.99        0.00     110.89       1.21       0.14       0.39       ----

> <Gold.Chemscore.Fitness>
18.1256

> <Gold.Chemscore.DG>
-18.6535

> <Gold.Chemscore.ZeroCoef>
-5.4800

> <Gold.Chemscore.Hbond>
0.9863

> <Gold.Chemscore.Metal>
0.0000

> <Gold.Chemscore.Lipo>
110.8938

> <Gold.Chemscore.Internal_Hbond>
0.0000

> <Gold.Chemscore.DEClash>
0.1405

> <Gold.Chemscore.DEInternal>
0.3874

> <Gold.Chemscore.Rot>
1.2092

> <Gold.Chemscore.Internal.Correction>
   9.000000E+99

> <Gold.Chemscore.Hbonds>
donor molecule, donor type, donor heavy atom, donor atom, acceptor molecule, acceptor atom, score
      L1  H    13    54       P1  7948  0.99

> <Gold.Chemscore.Hbond.Weighted>
-3.2944

> <Gold.Chemscore.Metal.Weighted>
-0.0000

> <Gold.Chemscore.Lipo.Weighted>
-12.9746

> <Gold.Chemscore.Internal_Hbond.Weighted>
0.0000

> <Gold.Chemscore.DEClash.Weighted>
0.1405

> <Gold.Chemscore.DEInternal.Weighted>
0.3874

> <Gold.Chemscore.Rot.Weighted>
3.0955

> <Gold.Chemscore.Internal.Correction.Weighted>
   9.000000E+99

> <Gold.Protein.RotatedTorsions>
[ 6907 6896 6895 6894 ] final  140.60 input  -60.11 | X-H torsion
[ 7974 7965 7964 7962 ] final  -29.22 input  175.53 | X-H torsion
[ 8008 7997 7996 7995 ] final -142.65 input   59.86 | X-H torsion
[ 10167 10162 10161 10158 ] final   23.99 input  -65.29 | X-H torsion
[ 10718 10713 10712 10709 ] final  176.82 input   66.30 | X-H torsion
[ 10763 10752 10751 10750 ] final   76.85 input  -60.55 | X-H torsion
[ 11005 11000 10999 10996 ] final  -95.00 input  -57.11 | X-H torsion

> <Gold.Protein.ActiveResidues>
 VAL166  LYS551  ARG553  GLY616  TRP617  ASP618  TYR619  PRO620  LYS621  CYS622 
 ASP623  PHE694  ASN695  SER759  ASP760  ASP761  ALA762  ILE779  LEU786  VAL792 
 PHE793  MET794  SER795  GLU796  ALA797  LYS798  CYS799  TRP800  GLU811  SER814 

> <Gold.Protein.RotatedAtoms>
  152.2411  133.5136  159.5270 H   0  0  0  0  0  0  0  0  0  0  0  0  # atno 6907 bound_to 6896
  150.7064  134.1088  159.4001 H   0  0  0  0  0  0  0  0  0  0  0  0  # atno 6908 bound_to 6896
  151.9009  135.0379  160.0557 H   0  0  0  0  0  0  0  0  0  0  0  0  # atno 6909 bound_to 6896
  146.1232  140.5384  142.8726 H   0  0  0  0  0  0  0  0  0  0  0  0  # atno 7974 bound_to 7965
  155.4977  140.0573  157.2944 H   0  0  0  0  0  0  0  0  0  0  0  0  # atno 8008 bound_to 7997
  154.4599  140.1991  156.0224 H   0  0  0  0  0  0  0  0  0  0  0  0  # atno 8009 bound_to 7997
  156.0870  140.3239  155.7771 H   0  0  0  0  0  0  0  0  0  0  0  0  # atno 8010 bound_to 7997
  140.5224  143.9980  150.6423 H   0  0  0  0  0  0  0  0  0  0  0  0  # atno 10167 bound_to 10162
  156.9145  130.9920  151.3015 H   0  0  0  0  0  0  0  0  0  0  0  0  # atno 10718 bound_to 10713
  153.0755  135.4936  154.8396 H   0  0  0  0  0  0  0  0  0  0  0  0  # atno 10763 bound_to 10752
  154.7082  135.3014  154.9241 H   0  0  0  0  0  0  0  0  0  0  0  0  # atno 10764 bound_to 10752
  153.9943  135.6774  153.4808 H   0  0  0  0  0  0  0  0  0  0  0  0  # atno 10765 bound_to 10752
  141.1455  133.7995  157.0374 H   0  0  0  0  0  0  0  0  0  0  0  0  # atno 11005 bound_to 11000
  144.7617  140.5437  143.6731 LP  0  0  0  0  0  0  0  0  0  0  0  0  # atno 17320 bound_to 7965
  145.5421  139.1475  143.3441 LP  0  0  0  0  0  0  0  0  0  0  0  0  # atno 17321 bound_to 7965
  140.3332  143.3064  152.0665 LP  0  0  0  0  0  0  0  0  0  0  0  0  # atno 17342 bound_to 10162
  139.4927  144.6494  151.6708 LP  0  0  0  0  0  0  0  0  0  0  0  0  # atno 17343 bound_to 10162
  157.5947  130.8469  149.8711 LP  0  0  0  0  0  0  0  0  0  0  0  0  # atno 17370 bound_to 10713
  156.0520  130.3716  150.1179 LP  0  0  0  0  0  0  0  0  0  0  0  0  # atno 17371 bound_to 10713
  140.0714  134.9700  157.1474 LP  0  0  0  0  0  0  0  0  0  0  0  0  # atno 17394 bound_to 11000
  140.3705  134.2396  155.7178 LP  0  0  0  0  0  0  0  0  0  0  0  0  # atno 17395 bound_to 11000

$$$$
