AV-unprocessed.smi:3232|AV-procd|sdf|12343|dock3
  -GOLD-   2272018203D 1   1.00000     0.00000
 Structure written by MMmdl.
 40 41  0  0  0  0  0  0  0  0  2 V2000
  146.5920  138.4502  151.8240 C   0  0  0  0  0  0  0  0  0  0  0  0
  145.5968  137.2866  151.9237 C   0  0  0  0  0  0  0  0  0  0  0  0
  146.2401  136.0378  152.3989 N   0  3  2  0  0  0  0  0  0  0  0  0
  146.0340  134.8634  151.5247 C   0  0  0  0  0  0  0  0  0  0  0  0
  146.2268  133.6555  152.4326 C   0  0  0  0  0  0  0  0  0  0  0  0
  145.6182  134.1229  153.7491 C   0  0  0  0  0  0  0  0  0  0  0  0
  145.8639  135.6452  153.7806 C   0  0  1  0  0  0  0  0  0  0  0  0
  146.9624  136.0749  154.7761 C   0  0  0  0  0  0  0  0  0  0  0  0
  147.8074  137.1312  154.2323 N   0  0  0  0  0  0  0  0  0  0  0  0
  147.8547  138.3920  154.6915 C   0  0  0  0  0  0  0  0  0  0  0  0
  147.1074  138.8082  155.5777 O   0  0  0  0  0  0  0  0  0  0  0  0
  148.9239  139.3020  154.0638 C   0  0  1  0  0  0  0  0  0  0  0  0
  148.7196  140.7940  154.3969 C   0  0  0  0  0  0  0  0  0  0  0  0
  150.2563  138.8408  154.4370 N   0  0  0  0  0  0  0  0  0  0  0  0
  150.7611  137.6054  154.4659 C   0  0  0  0  0  0  0  0  0  0  0  0
  152.0064  137.5428  154.9157 N   0  0  0  0  0  0  0  0  0  0  0  0
  152.2255  138.8675  155.1671 C   0  0  0  0  0  0  0  0  0  0  0  0
  151.2061  139.6866  154.9097 N   0  0  0  0  0  0  0  0  0  0  0  0
  146.0827  139.3670  151.5262 H   0  0  0  0  0  0  0  0  0  0  0  0
  147.3692  138.2543  151.0853 H   0  0  0  0  0  0  0  0  0  0  0  0
  147.0768  138.6378  152.7827 H   0  0  0  0  0  0  0  0  0  0  0  0
  144.8090  137.5625  152.6260 H   0  0  0  0  0  0  0  0  0  0  0  0
  145.1124  137.1155  150.9611 H   0  0  0  0  0  0  0  0  0  0  0  0
  145.0158  134.8657  151.1319 H   0  0  0  0  0  0  0  0  0  0  0  0
  146.7233  134.8620  150.6798 H   0  0  0  0  0  0  0  0  0  0  0  0
  145.7571  132.7514  152.0440 H   0  0  0  0  0  0  0  0  0  0  0  0
  147.2907  133.4546  152.5655 H   0  0  0  0  0  0  0  0  0  0  0  0
  144.5445  133.9300  153.7393 H   0  0  0  0  0  0  0  0  0  0  0  0
  146.0318  133.5895  154.6057 H   0  0  0  0  0  0  0  0  0  0  0  0
  144.9244  136.1312  154.0510 H   0  0  0  0  0  0  0  0  0  0  0  0
  146.5096  136.4437  155.6969 H   0  0  0  0  0  0  0  0  0  0  0  0
  147.5810  135.2205  155.0566 H   0  0  0  0  0  0  0  0  0  0  0  0
  148.4463  136.8711  153.4947 H   0  0  0  0  0  0  0  0  0  0  0  0
  148.8372  139.1953  152.9813 H   0  0  0  0  0  0  0  0  0  0  0  0
  147.7460  141.1446  154.0528 H   0  0  0  0  0  0  0  0  0  0  0  0
  149.4770  141.4077  153.9084 H   0  0  0  0  0  0  0  0  0  0  0  0
  148.7812  140.9863  155.4691 H   0  0  0  0  0  0  0  0  0  0  0  0
  150.2025  136.7319  154.1623 H   0  0  0  0  0  0  0  0  0  0  0  0
  153.1603  139.2382  155.5610 H   0  0  0  0  0  0  0  0  0  0  0  0
  147.2363  136.2024  152.4231 H   0  0  0  0  0  0  0  0  0  0  0  0
  1  2  1  0  0  0  0
  1 19  1  0  0  0  0
  1 20  1  0  0  0  0
  1 21  1  0  0  0  0
  2  3  1  0  0  0  0
  2 22  1  0  0  0  0
  2 23  1  0  0  0  0
  3  7  1  0  0  0  0
  3  4  1  0  0  0  0
  3 40  1  0  0  0  0
  4  5  1  0  0  0  0
  4 24  1  0  0  0  0
  4 25  1  0  0  0  0
  5  6  1  0  0  0  0
  5 26  1  0  0  0  0
  5 27  1  0  0  0  0
  6  7  1  0  0  0  0
  6 28  1  0  0  0  0
  6 29  1  0  0  0  0
  7  8  1  0  0  0  0
  7 30  1  0  0  0  0
  8  9  1  0  0  0  0
  8 31  1  0  0  0  0
  8 32  1  0  0  0  0
  9 10  1  0  0  0  0
  9 33  1  0  0  0  0
 10 11  2  0  0  0  0
 10 12  1  0  0  0  0
 12 13  1  0  0  0  0
 12 14  1  0  0  0  0
 12 34  1  0  0  0  0
 13 35  1  0  0  0  0
 13 36  1  0  0  0  0
 13 37  1  0  0  0  0
 14 18  1  0  0  0  0
 14 15  1  0  0  0  0
 15 16  2  0  0  0  0
 15 38  1  0  0  0  0
 16 17  1  0  0  0  0
 17 18  2  0  0  0  0
 17 39  1  0  0  0  0
M  CHG  1   3   1
M  END
> <s_m_source_file>
AV-unprocessed.smi

> <i_m_source_file_index>
3232

> <i_lp_mmshare_version>
43012

> <i_f3d_flags>
0

> <s_epik_input>
W0NIM11bQ0gyXU4xW0NIMl1bQ0gyXVtDSDJdW0NASF0xW0NIMl1bTkhdQyg9TylbQ0BIXShbQ0gzXSluMltjSF1uW2NIXW4y

> <s_epik_cmdline>
J2VwaWtfcHl0aG9uJywgJy1waCcsICc3LjAnLCAnLXRuJywgJzgnLCAnLW1hJywgJzIwMCcsICctbWV0YWxfYmluZGluZycsICctaW1hZScsICc8aW5maWxlLm1hZT4nLCAnLW9tYWUnLCAnPG91dGZpbGUubWFlPic=

> <r_lp_tautomer_probability>
1

> <r_epik_Ionization_Penalty>
0.00177695

> <r_epik_Ionization_Penalty_Charging>
0.00176881

> <r_epik_Ionization_Penalty_Neutral>
8.13528e-06

> <r_epik_State_Penalty>
0.00119827

> <r_epik_Charging_Adjusted_Penalty>
0.00296709

> <i_epik_Tot_Q>
1

> <i_epik_Tot_abs_Q>
1

> <r_epik_Metal_State_Penalty>
-0

> <b_epik_Metal_Only>
0

> <s_lp_Force_Field>
OPLS_2005

> <r_lp_Energy>
32.1761

> <b_lp_Chiralities_Consistent>
1

> <s_lp_Variant>
AV-unprocessed.smi:3232-5

> <Gold.Version>
5.8.1

> <Gold.Id.Protein>
6NUR|6NUR_protein|mol2

> <Gold.PLP.Fitness>
43.1824

> <Gold.PLP.PLP>
-29.0900

> <Gold.PLP.part.hbond>
-4.0000

> <Gold.PLP.part.metal>
0.0000

> <Gold.PLP.part.buried>
-2.6021

> <Gold.PLP.part.nonpolar>
-24.6897

> <Gold.PLP.part.repulsive>
0.1710

> <Gold.PLP.ligand.clash>
0.0000

> <Gold.PLP.ligand.torsion>
1.7262

> <Gold.PLP.Chemscore.Hbond>
4.8320

> <Gold.PLP.Chemscore.CHOScore>
0.9690

> <Gold.PLP.Chemscore.Metal>
0.0000

> <Gold.Chemscore.Hbonds>
donor molecule, donor type, donor heavy atom, donor atom, acceptor molecule, acceptor atom, score
      L1  H     3    40       P1  7948  2.00
      L1  H     9    33       P1  7948  1.00
      P1  H  7989  7998       L1    18  1.00
      P1  H 10752 10765       L1    16  0.55
      L1  C    15    38       P1  7948  0.75

> <Gold.PLP.Chemscore.Internal.Correction>
0.1418

> <Gold.Rescore>
     Score         DG    S(hbond)    S(metal)    S(lipo)     H(rot)  DE(clash)    DE(int)     intcor
     13.58     -16.78       3.80        0.00      42.66       2.49       0.02       3.18       ----

> <Gold.Chemscore.Fitness>
13.5793

> <Gold.Chemscore.DG>
-16.7803

> <Gold.Chemscore.ZeroCoef>
-5.4800

> <Gold.Chemscore.Hbond>
3.7959

> <Gold.Chemscore.Metal>
0.0000

> <Gold.Chemscore.Lipo>
42.6645

> <Gold.Chemscore.Internal_Hbond>
0.0000

> <Gold.Chemscore.DEClash>
0.0178

> <Gold.Chemscore.DEInternal>
3.1833

> <Gold.Chemscore.Rot>
2.4882

> <Gold.Chemscore.Internal.Correction>
   9.000000E+99

> <Gold.Chemscore.Hbonds>
donor molecule, donor type, donor heavy atom, donor atom, acceptor molecule, acceptor atom, score
      L1  H     3    40       P1  7948  0.99
      L1  H     9    33       P1  7948  0.99
      P1  H  7989  7998       L1    18  0.45
      P1  H 10752 10765       L1    16  0.46

> <Gold.Chemscore.Hbond.Weighted>
-12.6783

> <Gold.Chemscore.Metal.Weighted>
-0.0000

> <Gold.Chemscore.Lipo.Weighted>
-4.9917

> <Gold.Chemscore.Internal_Hbond.Weighted>
0.0000

> <Gold.Chemscore.DEClash.Weighted>
0.0178

> <Gold.Chemscore.DEInternal.Weighted>
3.1833

> <Gold.Chemscore.Rot.Weighted>
6.3697

> <Gold.Chemscore.Internal.Correction.Weighted>
   9.000000E+99

> <Gold.Protein.RotatedTorsions>
[ 6907 6896 6895 6894 ] final  -11.36 input  -60.11 | X-H torsion
[ 7974 7965 7964 7962 ] final   98.14 input  175.53 | X-H torsion
[ 8008 7997 7996 7995 ] final   25.71 input   59.86 | X-H torsion
[ 10167 10162 10161 10158 ] final -155.80 input  -65.29 | X-H torsion
[ 10718 10713 10712 10709 ] final -119.02 input   66.30 | X-H torsion
[ 10763 10752 10751 10750 ] final  169.22 input  -60.55 | X-H torsion
[ 11005 11000 10999 10996 ] final  166.61 input  -57.11 | X-H torsion

> <Gold.Protein.ActiveResidues>
 VAL166  LYS551  ARG553  GLY616  TRP617  ASP618  TYR619  PRO620  LYS621  CYS622 
 ASP623  PHE694  ASN695  SER759  ASP760  ASP761  ALA762  ILE779  LEU786  VAL792 
 PHE793  MET794  SER795  GLU796  ALA797  LYS798  CYS799  TRP800  GLU811  SER814 

> <Gold.Protein.RotatedAtoms>
  151.3875  135.0950  159.9515 H   0  0  0  0  0  0  0  0  0  0  0  0  # atno 6907 bound_to 6896
  152.5090  133.9012  159.7452 H   0  0  0  0  0  0  0  0  0  0  0  0  # atno 6908 bound_to 6896
  150.9458  133.6549  159.2810 H   0  0  0  0  0  0  0  0  0  0  0  0  # atno 6909 bound_to 6896
  145.4161  139.2327  143.3221 H   0  0  0  0  0  0  0  0  0  0  0  0  # atno 7974 bound_to 7965
  155.0159  140.3142  155.4812 H   0  0  0  0  0  0  0  0  0  0  0  0  # atno 8008 bound_to 7997
  156.2901  140.2206  156.5217 H   0  0  0  0  0  0  0  0  0  0  0  0  # atno 8009 bound_to 7997
  154.7494  140.0467  157.0868 H   0  0  0  0  0  0  0  0  0  0  0  0  # atno 8010 bound_to 7997
  139.6902  143.9433  152.2381 H   0  0  0  0  0  0  0  0  0  0  0  0  # atno 10167 bound_to 10162
  156.1150  130.6278  150.9364 H   0  0  0  0  0  0  0  0  0  0  0  0  # atno 10718 bound_to 10713
  154.3800  135.2753  155.2217 H   0  0  0  0  0  0  0  0  0  0  0  0  # atno 10763 bound_to 10752
  154.4328  135.5973  153.6083 H   0  0  0  0  0  0  0  0  0  0  0  0  # atno 10764 bound_to 10752
  152.9835  135.5999  154.4041 H   0  0  0  0  0  0  0  0  0  0  0  0  # atno 10765 bound_to 10752
  140.2682  134.7848  157.3651 H   0  0  0  0  0  0  0  0  0  0  0  0  # atno 11005 bound_to 11000
  146.2680  140.4879  142.8826 LP  0  0  0  0  0  0  0  0  0  0  0  0  # atno 17320 bound_to 7965
  144.8276  140.6654  143.6312 LP  0  0  0  0  0  0  0  0  0  0  0  0  # atno 17321 bound_to 7965
  139.9247  144.6778  150.8424 LP  0  0  0  0  0  0  0  0  0  0  0  0  # atno 17342 bound_to 10162
  140.7680  143.3350  151.2329 LP  0  0  0  0  0  0  0  0  0  0  0  0  # atno 17343 bound_to 10162
  157.6332  131.0919  150.8399 LP  0  0  0  0  0  0  0  0  0  0  0  0  # atno 17370 bound_to 10713
  156.8504  130.5078  149.5312 LP  0  0  0  0  0  0  0  0  0  0  0  0  # atno 17371 bound_to 10713
  140.1399  134.4985  155.8039 LP  0  0  0  0  0  0  0  0  0  0  0  0  # atno 17394 bound_to 11000
  141.2181  133.6821  156.7191 LP  0  0  0  0  0  0  0  0  0  0  0  0  # atno 17395 bound_to 11000

$$$$
