AV-unprocessed.smi:148|AV-procd|sdf|1217|dock9
  -GOLD-   2262018403D 1   1.00000     0.00000
 Structure written by MMmdl.
 63 67  0  0  0  0  0  0  0  0  1 V2000
  148.2582  131.2397  152.9759 O   0  0  0  0  0  0  0  0  0  0  0  0
  147.7576  132.5602  152.9868 C   0  0  0  0  0  0  0  0  0  0  0  0
  146.2188  132.5957  153.1499 C   0  0  1  0  0  0  0  0  0  0  0  0
  145.8123  133.5661  154.2915 C   0  0  0  0  0  0  0  0  0  0  0  0
  146.1715  133.1059  155.6267 N   0  0  0  0  0  0  0  0  0  0  0  0
  145.6224  132.0378  156.3029 C   0  0  0  0  0  0  0  0  0  0  0  0
  146.1123  131.8146  157.4916 N   0  0  0  0  0  0  0  0  0  0  0  0
  147.0570  132.8178  157.6563 C   0  0  0  0  0  0  0  0  0  0  0  0
  147.9440  133.1704  158.7064 C   0  0  0  0  0  0  0  0  0  0  0  0
  148.0123  132.4546  159.8534 N   0  0  0  0  0  0  0  0  0  0  0  0
  148.9856  131.3745  159.6918 C   0  0  0  0  0  0  0  0  0  0  0  0
  148.9424  130.3970  160.8717 C   0  0  0  0  0  0  0  0  0  0  0  0
  149.1547  131.1522  162.1861 C   0  0  0  0  0  0  0  0  0  0  0  0
  148.1001  132.2569  162.3289 C   0  0  0  0  0  0  0  0  0  0  0  0
  148.0917  133.2209  161.1121 C   0  0  2  0  0  0  0  0  0  0  0  0
  146.9857  134.3195  161.2116 C   0  0  1  0  0  0  0  0  0  0  0  0
  145.5886  133.8349  161.6453 C   0  0  0  0  0  0  0  0  0  0  0  0
  144.9123  135.0285  162.3401 C   0  0  0  0  0  0  0  0  0  0  0  0
  145.9177  136.1838  162.2890 C   0  0  0  0  0  0  0  0  0  0  0  0
  147.2781  135.5019  162.1471 C   0  0  2  0  0  0  0  0  0  0  0  0
  148.2430  136.3833  161.6110 O   0  0  0  0  0  0  0  0  0  0  0  0
  148.7560  134.2448  158.5212 N   0  0  0  0  0  0  0  0  0  0  0  0
  148.6880  134.9416  157.3830 C   0  0  0  0  0  0  0  0  0  0  0  0
  147.9045  134.7333  156.3224 N   0  0  0  0  0  0  0  0  0  0  0  0
  147.1011  133.6458  156.5004 C   0  0  0  0  0  0  0  0  0  0  0  0
  145.4805  132.9193  151.8213 C   0  0  2  0  0  0  0  0  0  0  0  0
  143.9707  132.7497  151.8840 C   0  0  0  0  0  0  0  0  0  0  0  0
  143.5835  132.7026  150.4098 C   0  0  0  0  0  0  0  0  0  0  0  0
  144.7000  132.1327  149.7359 O   0  0  0  0  0  0  0  0  0  0  0  0
  145.7897  131.9929  150.6408 C   0  0  0  0  0  0  0  0  0  0  0  0
  148.6715  131.0807  152.1410 H   0  0  0  0  0  0  0  0  0  0  0  0
  148.2383  133.0671  153.8236 H   0  0  0  0  0  0  0  0  0  0  0  0
  148.0688  133.0765  152.0780 H   0  0  0  0  0  0  0  0  0  0  0  0
  145.9041  131.6016  153.4716 H   0  0  0  0  0  0  0  0  0  0  0  0
  146.2452  134.5541  154.1355 H   0  0  0  0  0  0  0  0  0  0  0  0
  144.7322  133.7165  154.2724 H   0  0  0  0  0  0  0  0  0  0  0  0
  144.8444  131.4183  155.8814 H   0  0  0  0  0  0  0  0  0  0  0  0
  148.7907  130.8304  158.7659 H   0  0  0  0  0  0  0  0  0  0  0  0
  149.9862  131.8009  159.6044 H   0  0  0  0  0  0  0  0  0  0  0  0
  147.9811  129.8817  160.8900 H   0  0  0  0  0  0  0  0  0  0  0  0
  149.7074  129.6301  160.7498 H   0  0  0  0  0  0  0  0  0  0  0  0
  149.0958  130.4642  163.0298 H   0  0  0  0  0  0  0  0  0  0  0  0
  150.1542  131.5886  162.2061 H   0  0  0  0  0  0  0  0  0  0  0  0
  147.1245  131.7894  162.4558 H   0  0  0  0  0  0  0  0  0  0  0  0
  148.3044  132.8011  163.2497 H   0  0  0  0  0  0  0  0  0  0  0  0
  149.0564  133.7305  161.1100 H   0  0  0  0  0  0  0  0  0  0  0  0
  146.8551  134.7638  160.2236 H   0  0  0  0  0  0  0  0  0  0  0  0
  145.0101  133.4944  160.7860 H   0  0  0  0  0  0  0  0  0  0  0  0
  145.6445  132.9978  162.3392 H   0  0  0  0  0  0  0  0  0  0  0  0
  143.9701  135.2986  161.8622 H   0  0  0  0  0  0  0  0  0  0  0  0
  144.6902  134.7722  163.3767 H   0  0  0  0  0  0  0  0  0  0  0  0
  145.7143  136.7983  161.4105 H   0  0  0  0  0  0  0  0  0  0  0  0
  145.8604  136.8305  163.1651 H   0  0  0  0  0  0  0  0  0  0  0  0
  147.5998  135.1652  163.1317 H   0  0  0  0  0  0  0  0  0  0  0  0
  148.4282  136.1216  160.7221 H   0  0  0  0  0  0  0  0  0  0  0  0
  149.3574  135.7860  157.3106 H   0  0  0  0  0  0  0  0  0  0  0  0
  145.7091  133.9404  151.5131 H   0  0  0  0  0  0  0  0  0  0  0  0
  143.7156  131.8040  152.3646 H   0  0  0  0  0  0  0  0  0  0  0  0
  143.4566  133.5459  152.4198 H   0  0  0  0  0  0  0  0  0  0  0  0
  142.6751  132.1252  150.2370 H   0  0  0  0  0  0  0  0  0  0  0  0
  143.4236  133.7107  150.0253 H   0  0  0  0  0  0  0  0  0  0  0  0
  146.7335  132.2349  150.1519 H   0  0  0  0  0  0  0  0  0  0  0  0
  145.8306  130.9522  150.9657 H   0  0  0  0  0  0  0  0  0  0  0  0
  1  2  1  0  0  0  0
  1 31  1  0  0  0  0
  2  3  1  0  0  0  0
  2 32  1  0  0  0  0
  2 33  1  0  0  0  0
  3  4  1  0  0  0  0
  3 26  1  0  0  0  0
  3 34  1  0  0  0  0
  4  5  1  0  0  0  0
  4 35  1  0  0  0  0
  4 36  1  0  0  0  0
  5 25  1  0  0  0  0
  5  6  1  0  0  0  0
  6  7  2  0  0  0  0
  6 37  1  0  0  0  0
  7  8  1  0  0  0  0
  8 25  2  0  0  0  0
  8  9  1  0  0  0  0
  9 10  1  0  0  0  0
  9 22  2  0  0  0  0
 10 15  1  0  0  0  0
 10 11  1  0  0  0  0
 11 12  1  0  0  0  0
 11 38  1  0  0  0  0
 11 39  1  0  0  0  0
 12 13  1  0  0  0  0
 12 40  1  0  0  0  0
 12 41  1  0  0  0  0
 13 14  1  0  0  0  0
 13 42  1  0  0  0  0
 13 43  1  0  0  0  0
 14 15  1  0  0  0  0
 14 44  1  0  0  0  0
 14 45  1  0  0  0  0
 15 16  1  0  0  0  0
 15 46  1  0  0  0  0
 16 20  1  0  0  0  0
 16 17  1  0  0  0  0
 16 47  1  0  0  0  0
 17 18  1  0  0  0  0
 17 48  1  0  0  0  0
 17 49  1  0  0  0  0
 18 19  1  0  0  0  0
 18 50  1  0  0  0  0
 18 51  1  0  0  0  0
 19 20  1  0  0  0  0
 19 52  1  0  0  0  0
 19 53  1  0  0  0  0
 20 21  1  0  0  0  0
 20 54  1  0  0  0  0
 21 55  1  0  0  0  0
 22 23  1  0  0  0  0
 23 24  2  0  0  0  0
 23 56  1  0  0  0  0
 24 25  1  0  0  0  0
 26 30  1  0  0  0  0
 26 27  1  0  0  0  0
 26 57  1  0  0  0  0
 27 28  1  0  0  0  0
 27 58  1  0  0  0  0
 27 59  1  0  0  0  0
 28 29  1  0  0  0  0
 28 60  1  0  0  0  0
 28 61  1  0  0  0  0
 29 30  1  0  0  0  0
 30 62  1  0  0  0  0
 30 63  1  0  0  0  0
M  END
> <s_m_source_file>
AV-unprocessed.smi

> <i_m_source_file_index>
148

> <i_lp_mmshare_version>
43012

> <i_f3d_flags>
0

> <s_epik_input>
W0NIMl0xT1tDSDJdW0NIMl1bQ0BIXTFbQ0BIXShbQ0gyXVtPSF0pW0NIMl1uKFtjSF1uMiljKGMyMyluW2NIXW5jM040W0NIMl1bQ0gyXVtDSDJdW0NIMl1bQ0BIXTRbQ0BASF01W0NIMl1bQ0gyXVtDSDJdW0NASF01W09IXQ==

> <s_epik_cmdline>
J2VwaWtfcHl0aG9uJywgJy1waCcsICc3LjAnLCAnLXRuJywgJzgnLCAnLW1hJywgJzIwMCcsICctbWV0YWxfYmluZGluZycsICctaW1hZScsICc8aW5maWxlLm1hZT4nLCAnLW9tYWUnLCAnPG91dGZpbGUubWFlPic=

> <r_lp_tautomer_probability>
1

> <r_epik_Ionization_Penalty>
0.00556303

> <r_epik_Ionization_Penalty_Charging>
0

> <r_epik_Ionization_Penalty_Neutral>
0.00556303

> <r_epik_State_Penalty>
0.00401767

> <r_epik_Charging_Adjusted_Penalty>
0.00401767

> <i_epik_Tot_Q>
0

> <i_epik_Tot_abs_Q>
0

> <r_epik_Metal_State_Penalty>
-0

> <b_epik_Metal_Only>
0

> <s_lp_Force_Field>
OPLS_2005

> <r_lp_Energy>
67.8341

> <b_lp_Chiralities_Consistent>
1

> <s_lp_Variant>
AV-unprocessed.smi:148-16

> <Gold.Version>
5.8.1

> <Gold.Id.Protein>
6NUR|6NUR_protein|mol2

> <Gold.PLP.Fitness>
44.3812

> <Gold.PLP.PLP>
-35.7416

> <Gold.PLP.part.hbond>
-3.0000

> <Gold.PLP.part.metal>
0.0000

> <Gold.PLP.part.buried>
-6.7426

> <Gold.PLP.part.nonpolar>
-25.8016

> <Gold.PLP.part.repulsive>
0.2302

> <Gold.PLP.ligand.clash>
0.0000

> <Gold.PLP.ligand.torsion>
1.7816

> <Gold.PLP.Chemscore.Hbond>
3.0000

> <Gold.PLP.Chemscore.CHOScore>
0.9507

> <Gold.PLP.Chemscore.Metal>
0.0000

> <Gold.Chemscore.Hbonds>
donor molecule, donor type, donor heavy atom, donor atom, acceptor molecule, acceptor atom, score
      L1  H     1    31       P1 10747  1.00
      P1  H  6896  6909       L1    22  0.89
      P1  H  6931  6943       L1    21  0.96
      L1  C     6    37       P1 10956  0.20
      L1  C     6    37       P1 10957  0.80

> <Gold.PLP.Chemscore.Internal.Correction>
0.3506

> <Gold.Rescore>
     Score         DG    S(hbond)    S(metal)    S(lipo)     H(rot)  DE(clash)    DE(int)     intcor
     16.71     -18.53       2.79        0.00     104.61       3.32       0.15       1.67       ----

> <Gold.Chemscore.Fitness>
16.7081

> <Gold.Chemscore.DG>
-18.5321

> <Gold.Chemscore.ZeroCoef>
-5.4800

> <Gold.Chemscore.Hbond>
2.7883

> <Gold.Chemscore.Metal>
0.0000

> <Gold.Chemscore.Lipo>
104.6082

> <Gold.Chemscore.Internal_Hbond>
0.0000

> <Gold.Chemscore.DEClash>
0.1525

> <Gold.Chemscore.DEInternal>
1.6715

> <Gold.Chemscore.Rot>
3.3203

> <Gold.Chemscore.Internal.Correction>
   9.000000E+99

> <Gold.Chemscore.Hbonds>
donor molecule, donor type, donor heavy atom, donor atom, acceptor molecule, acceptor atom, score
      L1  H     1    31       P1 10747  0.90
      P1  H  6896  6909       L1    22  0.73
      P1  H  6931  6943       L1    21  0.60

> <Gold.Chemscore.Hbond.Weighted>
-9.3129

> <Gold.Chemscore.Metal.Weighted>
-0.0000

> <Gold.Chemscore.Lipo.Weighted>
-12.2392

> <Gold.Chemscore.Internal_Hbond.Weighted>
0.0000

> <Gold.Chemscore.DEClash.Weighted>
0.1525

> <Gold.Chemscore.DEInternal.Weighted>
1.6715

> <Gold.Chemscore.Rot.Weighted>
8.5000

> <Gold.Chemscore.Internal.Correction.Weighted>
   9.000000E+99

> <Gold.Protein.RotatedTorsions>
[ 6907 6896 6895 6894 ] final   20.12 input  -60.11 | X-H torsion
[ 7974 7965 7964 7962 ] final  -25.69 input  175.53 | X-H torsion
[ 8008 7997 7996 7995 ] final   81.35 input   59.86 | X-H torsion
[ 10167 10162 10161 10158 ] final   95.20 input  -65.29 | X-H torsion
[ 10718 10713 10712 10709 ] final   56.71 input   66.30 | X-H torsion
[ 10763 10752 10751 10750 ] final  -82.03 input  -60.55 | X-H torsion
[ 11005 11000 10999 10996 ] final   53.50 input  -57.11 | X-H torsion

> <Gold.Protein.ActiveResidues>
 VAL166  LYS551  ARG553  GLY616  TRP617  ASP618  TYR619  PRO620  LYS621  CYS622 
 ASP623  PHE694  ASN695  SER759  ASP760  ASP761  ALA762  ILE779  LEU786  VAL792 
 PHE793  MET794  SER795  GLU796  ALA797  LYS798  CYS799  TRP800  GLU811  SER814 

> <Gold.Protein.RotatedAtoms>
  151.8915  135.0414  160.0497 H   0  0  0  0  0  0  0  0  0  0  0  0  # atno 6907 bound_to 6896
  152.2432  133.5148  159.5290 H   0  0  0  0  0  0  0  0  0  0  0  0  # atno 6908 bound_to 6896
  150.7060  134.0977  159.3997 H   0  0  0  0  0  0  0  0  0  0  0  0  # atno 6909 bound_to 6896
  146.1474  140.4920  142.8626 H   0  0  0  0  0  0  0  0  0  0  0  0  # atno 7974 bound_to 7965
  155.8959  140.3436  155.5990 H   0  0  0  0  0  0  0  0  0  0  0  0  # atno 8008 bound_to 7997
  155.7556  140.0826  157.2199 H   0  0  0  0  0  0  0  0  0  0  0  0  # atno 8009 bound_to 7997
  154.4038  140.1545  156.2762 H   0  0  0  0  0  0  0  0  0  0  0  0  # atno 8010 bound_to 7997
  139.8011  144.6813  150.9764 H   0  0  0  0  0  0  0  0  0  0  0  0  # atno 10167 bound_to 10162
  157.5454  130.8727  149.8883 H   0  0  0  0  0  0  0  0  0  0  0  0  # atno 10718 bound_to 10713
  154.5708  135.5605  153.7093 H   0  0  0  0  0  0  0  0  0  0  0  0  # atno 10763 bound_to 10752
  153.0048  135.6296  154.2117 H   0  0  0  0  0  0  0  0  0  0  0  0  # atno 10764 bound_to 10752
  154.2057  135.2876  155.2955 H   0  0  0  0  0  0  0  0  0  0  0  0  # atno 10765 bound_to 10752
  140.0762  134.5402  155.8994 H   0  0  0  0  0  0  0  0  0  0  0  0  # atno 11005 bound_to 11000
  144.7863  140.5943  143.6571 LP  0  0  0  0  0  0  0  0  0  0  0  0  # atno 17320 bound_to 7965
  145.4904  139.1489  143.3713 LP  0  0  0  0  0  0  0  0  0  0  0  0  # atno 17321 bound_to 7965
  140.7820  143.4281  151.0737 LP  0  0  0  0  0  0  0  0  0  0  0  0  # atno 17342 bound_to 10162
  139.7953  143.8161  152.3157 LP  0  0  0  0  0  0  0  0  0  0  0  0  # atno 17343 bound_to 10162
  156.0531  130.3713  150.1155 LP  0  0  0  0  0  0  0  0  0  0  0  0  # atno 17370 bound_to 10713
  156.9331  130.9720  151.3529 LP  0  0  0  0  0  0  0  0  0  0  0  0  # atno 17371 bound_to 10713
  141.2030  133.6629  156.6038 LP  0  0  0  0  0  0  0  0  0  0  0  0  # atno 17394 bound_to 11000
  140.3555  134.7732  157.4497 LP  0  0  0  0  0  0  0  0  0  0  0  0  # atno 17395 bound_to 11000

$$$$
