AV-unprocessed.smi:2223|AV-procd|sdf|8989|dock4
  -GOLD-   2272012203D 1   1.00000     0.00000
 Structure written by MMmdl.
 46 47  0  0  0  0  0  0  0  0  1 V2000
  144.1068  132.7595  149.6316 C   0  0  0  0  0  0  0  0  0  0  0  0
  145.0922  132.2238  150.6490 C   0  0  0  0  0  0  0  0  0  0  0  0
  145.0935  130.8608  151.0022 C   0  0  0  0  0  0  0  0  0  0  0  0
  146.0361  130.4209  151.9519 C   0  0  0  0  0  0  0  0  0  0  0  0
  146.0932  128.9686  152.3765 C   0  0  0  0  0  0  0  0  0  0  0  0
  146.9357  131.2434  152.5329 N   0  0  0  0  0  0  0  0  0  0  0  0
  146.9441  132.5581  152.1998 C   0  0  0  0  0  0  0  0  0  0  0  0
  147.8433  133.5061  152.7560 N   0  0  0  0  0  0  0  0  0  0  0  0
  148.5879  133.3922  153.8697 C   0  0  0  0  0  0  0  0  0  0  0  0
  148.6292  132.4043  154.6036 O   0  0  0  0  0  0  0  0  0  0  0  0
  149.3033  134.5046  154.0894 N   0  0  0  0  0  0  0  0  0  0  0  0
  150.2193  134.7016  155.2097 C   0  0  2  0  0  0  0  0  0  0  0  0
  149.5264  134.4702  156.5535 C   0  0  0  0  0  0  0  0  0  0  0  0
  149.9177  135.6830  157.3790 C   0  0  0  0  0  0  0  0  0  0  0  0
  149.5962  135.7848  158.5621 O   0  0  0  0  0  0  0  0  0  0  0  0
  150.6209  136.5785  156.6598 N   0  0  0  0  0  0  0  0  0  0  0  0
  151.1251  137.8974  157.1260 C   0  0  0  0  0  0  0  0  0  0  0  0
  152.1150  137.6889  158.2934 C   0  0  0  0  0  0  0  0  0  0  0  0
  149.9813  138.8071  157.6352 C   0  0  0  0  0  0  0  0  0  0  0  0
  151.8307  138.6390  155.9679 C   0  0  0  0  0  0  0  0  0  0  0  0
  150.7493  136.1453  155.2688 C   0  0  0  0  0  0  0  0  0  0  0  0
  146.0308  133.0815  151.2572 C   0  0  0  0  0  0  0  0  0  0  0  0
  143.2458  132.0975  149.5332 H   0  0  0  0  0  0  0  0  0  0  0  0
  144.5851  132.8485  148.6561 H   0  0  0  0  0  0  0  0  0  0  0  0
  143.7446  133.7441  149.9285 H   0  0  0  0  0  0  0  0  0  0  0  0
  144.3914  130.1713  150.5565 H   0  0  0  0  0  0  0  0  0  0  0  0
  145.2074  128.4262  152.0450 H   0  0  0  0  0  0  0  0  0  0  0  0
  146.1521  128.8886  153.4625 H   0  0  0  0  0  0  0  0  0  0  0  0
  146.9713  128.4851  151.9480 H   0  0  0  0  0  0  0  0  0  0  0  0
  147.9257  134.3741  152.2480 H   0  0  0  0  0  0  0  0  0  0  0  0
  149.2108  135.2689  153.4365 H   0  0  0  0  0  0  0  0  0  0  0  0
  151.0578  134.0069  155.1269 H   0  0  0  0  0  0  0  0  0  0  0  0
  148.4397  134.4367  156.4627 H   0  0  0  0  0  0  0  0  0  0  0  0
  149.8617  133.5489  157.0312 H   0  0  0  0  0  0  0  0  0  0  0  0
  152.4617  138.6429  158.6921 H   0  0  0  0  0  0  0  0  0  0  0  0
  153.0018  137.1321  157.9910 H   0  0  0  0  0  0  0  0  0  0  0  0
  151.6474  137.1429  159.1137 H   0  0  0  0  0  0  0  0  0  0  0  0
  149.4464  138.3628  158.4753 H   0  0  0  0  0  0  0  0  0  0  0  0
  149.2576  139.0277  156.8499 H   0  0  0  0  0  0  0  0  0  0  0  0
  150.3688  139.7656  157.9825 H   0  0  0  0  0  0  0  0  0  0  0  0
  152.1365  139.6408  156.2709 H   0  0  0  0  0  0  0  0  0  0  0  0
  151.1687  138.7465  155.1078 H   0  0  0  0  0  0  0  0  0  0  0  0
  152.7313  138.1278  155.6294 H   0  0  0  0  0  0  0  0  0  0  0  0
  151.7842  136.1749  154.9272 H   0  0  0  0  0  0  0  0  0  0  0  0
  150.1634  136.8126  154.6342 H   0  0  0  0  0  0  0  0  0  0  0  0
  146.0487  134.1310  151.0003 H   0  0  0  0  0  0  0  0  0  0  0  0
  1  2  1  0  0  0  0
  1 23  1  0  0  0  0
  1 24  1  0  0  0  0
  1 25  1  0  0  0  0
  2 22  1  0  0  0  0
  2  3  2  0  0  0  0
  3  4  1  0  0  0  0
  3 26  1  0  0  0  0
  4  5  1  0  0  0  0
  4  6  2  0  0  0  0
  5 27  1  0  0  0  0
  5 28  1  0  0  0  0
  5 29  1  0  0  0  0
  6  7  1  0  0  0  0
  7  8  1  0  0  0  0
  7 22  2  0  0  0  0
  8  9  1  0  0  0  0
  8 30  1  0  0  0  0
  9 10  2  0  0  0  0
  9 11  1  0  0  0  0
 11 12  1  0  0  0  0
 11 31  1  0  0  0  0
 12 21  1  0  0  0  0
 12 13  1  0  0  0  0
 12 32  1  0  0  0  0
 13 14  1  0  0  0  0
 13 33  1  0  0  0  0
 13 34  1  0  0  0  0
 14 15  2  0  0  0  0
 14 16  1  0  0  0  0
 16 17  1  0  0  0  0
 16 21  1  0  0  0  0
 17 18  1  0  0  0  0
 17 19  1  0  0  0  0
 17 20  1  0  0  0  0
 18 35  1  0  0  0  0
 18 36  1  0  0  0  0
 18 37  1  0  0  0  0
 19 38  1  0  0  0  0
 19 39  1  0  0  0  0
 19 40  1  0  0  0  0
 20 41  1  0  0  0  0
 20 42  1  0  0  0  0
 20 43  1  0  0  0  0
 21 44  1  0  0  0  0
 21 45  1  0  0  0  0
 22 46  1  0  0  0  0
M  END
> <s_m_source_file>
AV-unprocessed.smi

> <i_m_source_file_index>
2223

> <i_lp_mmshare_version>
43012

> <i_f3d_flags>
0

> <s_epik_input>
W0NIM11jMVtjSF1jKFtDSDNdKW5jKFtjSF0xKVtOSF1DKD1PKVtOSF1bQ0BASF0yW0NIMl1DKD1PKU4oW0NIMl0yKUMoW0NIM10pKFtDSDNdKVtDSDNd

> <s_epik_cmdline>
J2VwaWtfcHl0aG9uJywgJy1waCcsICc3LjAnLCAnLXRuJywgJzgnLCAnLW1hJywgJzIwMCcsICctbWV0YWxfYmluZGluZycsICctaW1hZScsICc8aW5maWxlLm1hZT4nLCAnLW9tYWUnLCAnPG91dGZpbGUubWFlPic=

> <r_lp_tautomer_probability>
1

> <r_epik_Ionization_Penalty>
0.000228403

> <r_epik_Ionization_Penalty_Charging>
0

> <r_epik_Ionization_Penalty_Neutral>
0.000228403

> <r_epik_State_Penalty>
-0

> <r_epik_Charging_Adjusted_Penalty>
0

> <i_epik_Tot_Q>
0

> <i_epik_Tot_abs_Q>
0

> <r_epik_Metal_State_Penalty>
-0

> <b_epik_Metal_Only>
0

> <s_lp_Force_Field>
OPLS_2005

> <r_lp_Energy>
26.8517

> <b_lp_Chiralities_Consistent>
1

> <s_lp_Variant>
AV-unprocessed.smi:2223-1

> <Gold.Version>
5.8.1

> <Gold.Id.Protein>
6NUR|6NUR_protein|mol2

> <Gold.PLP.Fitness>
43.5334

> <Gold.PLP.PLP>
-34.7353

> <Gold.PLP.part.hbond>
-3.0000

> <Gold.PLP.part.metal>
0.0000

> <Gold.PLP.part.buried>
-6.3873

> <Gold.PLP.part.nonpolar>
-25.9496

> <Gold.PLP.part.repulsive>
0.5774

> <Gold.PLP.ligand.clash>
0.0000

> <Gold.PLP.ligand.torsion>
0.1252

> <Gold.PLP.Chemscore.Hbond>
3.0000

> <Gold.PLP.Chemscore.CHOScore>
0.0000

> <Gold.PLP.Chemscore.Metal>
0.0000

> <Gold.Chemscore.Hbonds>
donor molecule, donor type, donor heavy atom, donor atom, acceptor molecule, acceptor atom, score
      L1  H     8    30       P1  7948  0.81
      L1  H    11    31       P1  7948  1.00
      P1  H  6896  6908       L1    15  1.00

> <Gold.PLP.Chemscore.Internal.Correction>
0.0485

> <Gold.Rescore>
     Score         DG    S(hbond)    S(metal)    S(lipo)     H(rot)  DE(clash)    DE(int)     intcor
     16.99     -19.42       2.29        0.00      80.19       1.21       0.03       2.41       ----

> <Gold.Chemscore.Fitness>
16.9850

> <Gold.Chemscore.DG>
-19.4206

> <Gold.Chemscore.ZeroCoef>
-5.4800

> <Gold.Chemscore.Hbond>
2.2888

> <Gold.Chemscore.Metal>
0.0000

> <Gold.Chemscore.Lipo>
80.1888

> <Gold.Chemscore.Internal_Hbond>
0.0000

> <Gold.Chemscore.DEClash>
0.0272

> <Gold.Chemscore.DEInternal>
2.4083

> <Gold.Chemscore.Rot>
1.2055

> <Gold.Chemscore.Internal.Correction>
   9.000000E+99

> <Gold.Chemscore.Hbonds>
donor molecule, donor type, donor heavy atom, donor atom, acceptor molecule, acceptor atom, score
      L1  H     8    30       P1  7948  0.19
      L1  H    11    31       P1  7948  0.26
      P1  H  6896  6908       L1    15  0.70

> <Gold.Chemscore.Hbond.Weighted>
-7.6446

> <Gold.Chemscore.Metal.Weighted>
-0.0000

> <Gold.Chemscore.Lipo.Weighted>
-9.3821

> <Gold.Chemscore.Internal_Hbond.Weighted>
0.0000

> <Gold.Chemscore.DEClash.Weighted>
0.0272

> <Gold.Chemscore.DEInternal.Weighted>
2.4083

> <Gold.Chemscore.Rot.Weighted>
3.0861

> <Gold.Chemscore.Internal.Correction.Weighted>
   9.000000E+99

> <Gold.Protein.RotatedTorsions>
[ 6907 6896 6895 6894 ] final  175.64 input  -60.11 | X-H torsion
[ 7974 7965 7964 7962 ] final   21.41 input  175.53 | X-H torsion
[ 8008 7997 7996 7995 ] final -119.60 input   59.86 | X-H torsion
[ 10167 10162 10161 10158 ] final  -96.92 input  -65.29 | X-H torsion
[ 10718 10713 10712 10709 ] final  -75.96 input   66.30 | X-H torsion
[ 10763 10752 10751 10750 ] final   -6.86 input  -60.55 | X-H torsion
[ 11005 11000 10999 10996 ] final   37.52 input  -57.11 | X-H torsion

> <Gold.Protein.ActiveResidues>
 VAL166  LYS551  ARG553  GLY616  TRP617  ASP618  TYR619  PRO620  LYS621  CYS622 
 ASP623  PHE694  ASN695  SER759  ASP760  ASP761  ALA762  ILE779  LEU786  VAL792 
 PHE793  MET794  SER795  GLU796  ALA797  LYS798  CYS799  TRP800  GLU811  SER814 

> <Gold.Protein.RotatedAtoms>
  151.7330  133.3318  159.3345 H   0  0  0  0  0  0  0  0  0  0  0  0  # atno 6907 bound_to 6896
  150.7605  134.6346  159.6214 H   0  0  0  0  0  0  0  0  0  0  0  0  # atno 6908 bound_to 6896
  152.3579  134.6915  160.0268 H   0  0  0  0  0  0  0  0  0  0  0  0  # atno 6909 bound_to 6896
  146.2072  139.8031  142.8716 H   0  0  0  0  0  0  0  0  0  0  0  0  # atno 7974 bound_to 7965
  155.1184  140.0398  157.2743 H   0  0  0  0  0  0  0  0  0  0  0  0  # atno 8008 bound_to 7997
  154.6632  140.2595  155.7060 H   0  0  0  0  0  0  0  0  0  0  0  0  # atno 8009 bound_to 7997
  156.2628  140.2812  156.1112 H   0  0  0  0  0  0  0  0  0  0  0  0  # atno 8010 bound_to 7997
  140.2888  143.3235  152.0367 H   0  0  0  0  0  0  0  0  0  0  0  0  # atno 10167 bound_to 10162
  156.0190  130.4453  150.3121 H   0  0  0  0  0  0  0  0  0  0  0  0  # atno 10718 bound_to 10713
  153.4182  135.7009  153.6312 H   0  0  0  0  0  0  0  0  0  0  0  0  # atno 10763 bound_to 10752
  153.4778  135.3700  155.2426 H   0  0  0  0  0  0  0  0  0  0  0  0  # atno 10764 bound_to 10752
  154.8720  135.4058  154.3546 H   0  0  0  0  0  0  0  0  0  0  0  0  # atno 10765 bound_to 10752
  140.2217  134.3633  155.8002 H   0  0  0  0  0  0  0  0  0  0  0  0  # atno 11005 bound_to 11000
  145.3275  141.0258  143.3465 LP  0  0  0  0  0  0  0  0  0  0  0  0  # atno 17320 bound_to 7965
  144.8822  139.4888  143.6717 LP  0  0  0  0  0  0  0  0  0  0  0  0  # atno 17321 bound_to 7965
  139.4943  144.6540  151.6614 LP  0  0  0  0  0  0  0  0  0  0  0  0  # atno 17342 bound_to 10162
  140.5750  144.0044  150.6237 LP  0  0  0  0  0  0  0  0  0  0  0  0  # atno 17343 bound_to 10162
  157.1222  131.0250  151.3004 LP  0  0  0  0  0  0  0  0  0  0  0  0  # atno 17370 bound_to 10713
  157.4618  130.7658  149.7243 LP  0  0  0  0  0  0  0  0  0  0  0  0  # atno 17371 bound_to 10713
  141.2222  133.7197  156.8586 LP  0  0  0  0  0  0  0  0  0  0  0  0  # atno 17394 bound_to 11000
  140.1843  134.9011  157.2985 LP  0  0  0  0  0  0  0  0  0  0  0  0  # atno 17395 bound_to 11000

$$$$
