AV-unprocessed.smi:2059|AV-procd|sdf|8352|dock3
  -GOLD-   2272011 23D 1   1.00000     0.00000
 Structure written by MMmdl.
 29 30  0  0  0  0  0  0  0  0  2 V2000
  151.9189  144.9817  161.0162 C   0  0  0  0  0  0  0  0  0  0  0  0
  151.7555  144.4030  159.6527 C   0  0  0  0  0  0  0  0  0  0  0  0
  151.2252  143.2289  159.1976 C   0  0  0  0  0  0  0  0  0  0  0  0
  151.3934  143.3195  157.7893 C   0  0  0  0  0  0  0  0  0  0  0  0
  150.9504  142.2569  156.9499 N   0  0  0  0  0  0  0  0  0  0  0  0
  149.7712  141.6019  156.8806 C   0  0  0  0  0  0  0  0  0  0  0  0
  148.9143  141.9843  157.6840 O   0  0  0  0  0  0  0  0  0  0  0  0
  149.6344  140.6066  155.9569 N   0  5  0  0  0  0  0  0  0  0  0  0
  150.7382  139.9237  155.2780 C   0  0  2  0  0  0  0  0  0  0  0  0
  150.2202  138.7118  154.4790 C   0  0  0  0  0  0  0  0  0  0  0  0
  151.4176  137.8356  154.0829 C   0  0  0  0  0  0  0  0  0  0  0  0
  152.6425  138.0237  155.4360 S   0  0  0  0  0  0  0  0  0  0  0  0
  152.6099  136.8322  156.2986 O   0  0  0  0  0  0  0  0  0  0  0  0
  153.9114  138.5056  154.8676 O   0  0  0  0  0  0  0  0  0  0  0  0
  151.7780  139.4039  156.2833 C   0  0  0  0  0  0  0  0  0  0  0  0
  151.9722  144.4546  157.4224 N   0  0  0  0  0  0  0  0  0  0  0  0
  152.2073  145.1530  158.6123 O   0  0  0  0  0  0  0  0  0  0  0  0
  151.6433  144.2573  161.7828 H   0  0  0  0  0  0  0  0  0  0  0  0
  151.2881  145.8620  161.1398 H   0  0  0  0  0  0  0  0  0  0  0  0
  152.9537  145.2785  161.1887 H   0  0  0  0  0  0  0  0  0  0  0  0
  150.7882  142.4320  159.7807 H   0  0  0  0  0  0  0  0  0  0  0  0
  151.6397  141.9388  156.2852 H   0  0  0  0  0  0  0  0  0  0  0  0
  151.2507  140.5800  154.5726 H   0  0  0  0  0  0  0  0  0  0  0  0
  149.5507  138.1220  155.1076 H   0  0  0  0  0  0  0  0  0  0  0  0
  149.6459  139.0187  153.6043 H   0  0  0  0  0  0  0  0  0  0  0  0
  151.1497  136.7863  153.9612 H   0  0  0  0  0  0  0  0  0  0  0  0
  151.8759  138.1862  153.1568 H   0  0  0  0  0  0  0  0  0  0  0  0
  152.4926  140.1685  156.5879 H   0  0  0  0  0  0  0  0  0  0  0  0
  151.2990  138.9984  157.1752 H   0  0  0  0  0  0  0  0  0  0  0  0
  1  2  1  0  0  0  0
  1 18  1  0  0  0  0
  1 19  1  0  0  0  0
  1 20  1  0  0  0  0
  2 17  1  0  0  0  0
  2  3  2  0  0  0  0
  3  4  1  0  0  0  0
  3 21  1  0  0  0  0
  4  5  1  0  0  0  0
  4 16  2  0  0  0  0
  5  6  1  0  0  0  0
  5 22  1  0  0  0  0
  6  7  2  0  0  0  0
  6  8  1  0  0  0  0
  8  9  1  0  0  0  0
  9 15  1  0  0  0  0
  9 10  1  0  0  0  0
  9 23  1  0  0  0  0
 10 11  1  0  0  0  0
 10 24  1  0  0  0  0
 10 25  1  0  0  0  0
 11 12  1  0  0  0  0
 11 26  1  0  0  0  0
 11 27  1  0  0  0  0
 12 13  2  0  0  0  0
 12 14  2  0  0  0  0
 12 15  1  0  0  0  0
 15 28  1  0  0  0  0
 15 29  1  0  0  0  0
 16 17  1  0  0  0  0
M  CHG  1   8  -1
M  END
> <s_m_source_file>
AV-unprocessed.smi

> <i_m_source_file_index>
2059

> <i_lp_mmshare_version>
43012

> <i_f3d_flags>
0

> <s_epik_input>
W0NIM11jMVtjSF1jKG5vMSlbTkhdQyg9TylbTkhdW0NAQEhdKFtDSDJdMilbQ0gyXVtDSDJdUzIoPU8pPU8=

> <s_epik_cmdline>
J2VwaWtfcHl0aG9uJywgJy1waCcsICc3LjAnLCAnLXRuJywgJzgnLCAnLW1hJywgJzIwMCcsICctbWV0YWxfYmluZGluZycsICctaW1hZScsICc8aW5maWxlLm1hZT4nLCAnLW9tYWUnLCAnPG91dGZpbGUubWFlPic=

> <r_lp_tautomer_probability>
1

> <r_epik_Ionization_Penalty>
6.6071

> <r_epik_Ionization_Penalty_Charging>
6.60709

> <r_epik_Ionization_Penalty_Neutral>
5.42629e-06

> <r_epik_State_Penalty>
6.6352

> <r_epik_Charging_Adjusted_Penalty>
13.2423

> <i_epik_Tot_Q>
-1

> <i_epik_Tot_abs_Q>
1

> <r_epik_Metal_State_Penalty>
2.57602

> <b_epik_Metal_Only>
1

> <s_lp_Force_Field>
OPLS_2005

> <r_lp_Energy>
11.3724

> <b_lp_Chiralities_Consistent>
1

> <s_lp_Variant>
AV-unprocessed.smi:2059-5

> <Gold.Version>
5.8.1

> <Gold.Id.Protein>
6NUR|6NUR_protein|mol2

> <Gold.PLP.Fitness>
33.2879

> <Gold.PLP.PLP>
-29.3329

> <Gold.PLP.part.hbond>
-2.0755

> <Gold.PLP.part.metal>
0.0000

> <Gold.PLP.part.buried>
-2.2316

> <Gold.PLP.part.nonpolar>
-25.1877

> <Gold.PLP.part.repulsive>
0.3950

> <Gold.PLP.ligand.clash>
0.0000

> <Gold.PLP.ligand.torsion>
0.5917

> <Gold.PLP.Chemscore.Hbond>
1.7120

> <Gold.PLP.Chemscore.CHOScore>
0.0000

> <Gold.PLP.Chemscore.Metal>
0.0000

> <Gold.Chemscore.Hbonds>
donor molecule, donor type, donor heavy atom, donor atom, acceptor molecule, acceptor atom, score
      P1  H  7997  8009       L1    14  0.74
      P1  H 10752 10765       L1    13  0.96

> <Gold.PLP.Chemscore.Internal.Correction>
0.0023

> <Gold.Rescore>
     Score         DG    S(hbond)    S(metal)    S(lipo)     H(rot)  DE(clash)    DE(int)     intcor
     13.85     -15.51       1.61        0.00      61.61       1.00       0.28       1.38       ----

> <Gold.Chemscore.Fitness>
13.8486

> <Gold.Chemscore.DG>
-15.5099

> <Gold.Chemscore.ZeroCoef>
-5.4800

> <Gold.Chemscore.Hbond>
1.6113

> <Gold.Chemscore.Metal>
0.0000

> <Gold.Chemscore.Lipo>
61.6080

> <Gold.Chemscore.Internal_Hbond>
0.0000

> <Gold.Chemscore.DEClash>
0.2784

> <Gold.Chemscore.DEInternal>
1.3829

> <Gold.Chemscore.Rot>
1.0000

> <Gold.Chemscore.Internal.Correction>
   9.000000E+99

> <Gold.Chemscore.Hbonds>
donor molecule, donor type, donor heavy atom, donor atom, acceptor molecule, acceptor atom, score
      P1  H  7997  8009       L1    14  0.45
      P1  H 10752 10765       L1    13  0.37

> <Gold.Chemscore.Hbond.Weighted>
-5.3817

> <Gold.Chemscore.Metal.Weighted>
-0.0000

> <Gold.Chemscore.Lipo.Weighted>
-7.2081

> <Gold.Chemscore.Internal_Hbond.Weighted>
0.0000

> <Gold.Chemscore.DEClash.Weighted>
0.2784

> <Gold.Chemscore.DEInternal.Weighted>
1.3829

> <Gold.Chemscore.Rot.Weighted>
2.5600

> <Gold.Chemscore.Internal.Correction.Weighted>
   9.000000E+99

> <Gold.Protein.RotatedTorsions>
[ 6907 6896 6895 6894 ] final   42.23 input  -60.11 | X-H torsion
[ 7974 7965 7964 7962 ] final  -98.61 input  175.53 | X-H torsion
[ 8008 7997 7996 7995 ] final -136.16 input   59.86 | X-H torsion
[ 10167 10162 10161 10158 ] final  -72.18 input  -65.29 | X-H torsion
[ 10718 10713 10712 10709 ] final  128.46 input   66.30 | X-H torsion
[ 10763 10752 10751 10750 ] final -141.27 input  -60.55 | X-H torsion
[ 11005 11000 10999 10996 ] final  -94.45 input  -57.11 | X-H torsion

> <Gold.Protein.ActiveResidues>
 VAL166  LYS551  ARG553  GLY616  TRP617  ASP618  TYR619  PRO620  LYS621  CYS622 
 ASP623  PHE694  ASN695  SER759  ASP760  ASP761  ALA762  ILE779  LEU786  VAL792 
 PHE793  MET794  SER795  GLU796  ALA797  LYS798  CYS799  TRP800  GLU811  SER814 

> <Gold.Protein.RotatedAtoms>
  152.2053  134.8551  160.0503 H   0  0  0  0  0  0  0  0  0  0  0  0  # atno 6907 bound_to 6896
  151.9389  133.3627  159.3966 H   0  0  0  0  0  0  0  0  0  0  0  0  # atno 6908 bound_to 6896
  150.6964  134.4384  159.5325 H   0  0  0  0  0  0  0  0  0  0  0  0  # atno 6909 bound_to 6896
  145.3183  140.9416  143.2730 H   0  0  0  0  0  0  0  0  0  0  0  0  # atno 7974 bound_to 7965
  155.3907  140.0500  157.3041 H   0  0  0  0  0  0  0  0  0  0  0  0  # atno 8008 bound_to 7997
  154.5037  140.2166  155.9255 H   0  0  0  0  0  0  0  0  0  0  0  0  # atno 8009 bound_to 7997
  156.1500  140.3138  155.8637 H   0  0  0  0  0  0  0  0  0  0  0  0  # atno 8010 bound_to 7997
  140.5213  143.2331  151.7424 H   0  0  0  0  0  0  0  0  0  0  0  0  # atno 10167 bound_to 10162
  157.5242  131.1098  150.9108 H   0  0  0  0  0  0  0  0  0  0  0  0  # atno 10718 bound_to 10713
  154.8551  135.3529  154.5841 H   0  0  0  0  0  0  0  0  0  0  0  0  # atno 10763 bound_to 10752
  153.6451  135.6996  153.5233 H   0  0  0  0  0  0  0  0  0  0  0  0  # atno 10764 bound_to 10752
  153.2939  135.4226  155.1150 H   0  0  0  0  0  0  0  0  0  0  0  0  # atno 10765 bound_to 10752
  141.1470  133.7957  157.0299 H   0  0  0  0  0  0  0  0  0  0  0  0  # atno 11005 bound_to 11000
  144.8960  139.4712  143.6655 LP  0  0  0  0  0  0  0  0  0  0  0  0  # atno 17320 bound_to 7965
  146.3092  139.7686  142.9033 LP  0  0  0  0  0  0  0  0  0  0  0  0  # atno 17321 bound_to 7965
  139.4924  144.4250  151.9936 LP  0  0  0  0  0  0  0  0  0  0  0  0  # atno 17342 bound_to 10162
  140.3347  144.3275  150.5980 LP  0  0  0  0  0  0  0  0  0  0  0  0  # atno 17343 bound_to 10162
  156.9709  130.5490  149.5290 LP  0  0  0  0  0  0  0  0  0  0  0  0  # atno 17370 bound_to 10713
  156.0375  130.5461  150.8690 LP  0  0  0  0  0  0  0  0  0  0  0  0  # atno 17371 bound_to 10713
  140.0761  134.9675  157.1547 LP  0  0  0  0  0  0  0  0  0  0  0  0  # atno 17394 bound_to 11000
  140.3643  134.2460  155.7184 LP  0  0  0  0  0  0  0  0  0  0  0  0  # atno 17395 bound_to 11000

$$$$
