AV-unprocessed.smi:1373|AV-procd|sdf|5586|dock5
  -GOLD-   22720 5183D 1   1.00000     0.00000
 Structure written by MMmdl.
 42 43  0  0  0  0  0  0  0  0  1 V2000
  153.1994  142.2589  161.5698 C   0  0  0  0  0  0  0  0  0  0  0  0
  152.8769  142.3565  160.0746 C   0  0  0  0  0  0  0  0  0  0  0  0
  152.7432  140.9797  159.4095 C   0  0  0  0  0  0  0  0  0  0  0  0
  152.0154  141.0483  158.0578 C   0  0  0  0  0  0  0  0  0  0  0  0
  152.2051  139.8247  157.2885 N   0  0  0  0  0  0  0  0  0  0  0  0
  151.8093  139.6383  156.0184 C   0  0  0  0  0  0  0  0  0  0  0  0
  151.2439  140.5062  155.3534 O   0  0  0  0  0  0  0  0  0  0  0  0
  152.1116  138.2735  155.3912 C   0  0  0  0  0  0  0  0  0  0  0  0
  153.5856  138.0459  155.2688 C   0  0  0  0  0  0  0  0  0  0  0  0
  154.2192  137.1739  156.0451 N   0  0  0  0  0  0  0  0  0  0  0  0
  155.5565  137.2899  155.6390 O   0  0  0  0  0  0  0  0  0  0  0  0
  155.5637  138.2205  154.6548 C   0  0  0  0  0  0  0  0  0  0  0  0
  156.8650  138.6020  154.0272 C   0  0  0  0  0  0  0  0  0  0  0  0
  157.4987  137.5106  153.2892 N   0  0  0  0  0  0  0  0  0  0  0  0
  157.9502  136.4579  154.1917 C   0  0  0  0  0  0  0  0  0  0  0  0
  158.6230  135.3014  153.4323 C   0  0  0  0  0  0  0  0  0  0  0  0
  157.7219  134.7818  152.4596 O   0  0  0  0  0  0  0  0  0  0  0  0
  157.2908  135.7686  151.5280 C   0  0  0  0  0  0  0  0  0  0  0  0
  156.6155  136.9290  152.2795 C   0  0  0  0  0  0  0  0  0  0  0  0
  154.3619  138.7159  154.3719 N   0  0  0  0  0  0  0  0  0  0  0  0
  153.2945  143.2507  162.0127 H   0  0  0  0  0  0  0  0  0  0  0  0
  154.1379  141.7292  161.7365 H   0  0  0  0  0  0  0  0  0  0  0  0
  152.4138  141.7279  162.1082 H   0  0  0  0  0  0  0  0  0  0  0  0
  151.9519  142.9191  159.9432 H   0  0  0  0  0  0  0  0  0  0  0  0
  153.6596  142.9283  159.5750 H   0  0  0  0  0  0  0  0  0  0  0  0
  153.7362  140.5500  159.2702 H   0  0  0  0  0  0  0  0  0  0  0  0
  152.2056  140.3048  160.0769 H   0  0  0  0  0  0  0  0  0  0  0  0
  150.9453  141.1830  158.2183 H   0  0  0  0  0  0  0  0  0  0  0  0
  152.3535  141.9124  157.4830 H   0  0  0  0  0  0  0  0  0  0  0  0
  152.6662  139.0583  157.7579 H   0  0  0  0  0  0  0  0  0  0  0  0
  151.6677  137.4809  155.9955 H   0  0  0  0  0  0  0  0  0  0  0  0
  151.6474  138.2189  154.4058 H   0  0  0  0  0  0  0  0  0  0  0  0
  156.6724  139.4376  153.3533 H   0  0  0  0  0  0  0  0  0  0  0  0
  157.5362  138.9752  154.8022 H   0  0  0  0  0  0  0  0  0  0  0  0
  158.6521  136.8688  154.9180 H   0  0  0  0  0  0  0  0  0  0  0  0
  157.1038  136.0699  154.7609 H   0  0  0  0  0  0  0  0  0  0  0  0
  159.5392  135.6401  152.9459 H   0  0  0  0  0  0  0  0  0  0  0  0
  158.9015  134.5052  154.1227 H   0  0  0  0  0  0  0  0  0  0  0  0
  158.1423  136.1284  150.9481 H   0  0  0  0  0  0  0  0  0  0  0  0
  156.5922  135.3156  150.8245 H   0  0  0  0  0  0  0  0  0  0  0  0
  155.6999  136.5694  152.7516 H   0  0  0  0  0  0  0  0  0  0  0  0
  156.3161  137.6876  151.5560 H   0  0  0  0  0  0  0  0  0  0  0  0
  1  2  1  0  0  0  0
  1 21  1  0  0  0  0
  1 22  1  0  0  0  0
  1 23  1  0  0  0  0
  2  3  1  0  0  0  0
  2 24  1  0  0  0  0
  2 25  1  0  0  0  0
  3  4  1  0  0  0  0
  3 26  1  0  0  0  0
  3 27  1  0  0  0  0
  4  5  1  0  0  0  0
  4 28  1  0  0  0  0
  4 29  1  0  0  0  0
  5  6  1  0  0  0  0
  5 30  1  0  0  0  0
  6  7  2  0  0  0  0
  6  8  1  0  0  0  0
  8  9  1  0  0  0  0
  8 31  1  0  0  0  0
  8 32  1  0  0  0  0
  9 20  1  0  0  0  0
  9 10  2  0  0  0  0
 10 11  1  0  0  0  0
 11 12  1  0  0  0  0
 12 13  1  0  0  0  0
 12 20  2  0  0  0  0
 13 14  1  0  0  0  0
 13 33  1  0  0  0  0
 13 34  1  0  0  0  0
 14 19  1  0  0  0  0
 14 15  1  0  0  0  0
 15 16  1  0  0  0  0
 15 35  1  0  0  0  0
 15 36  1  0  0  0  0
 16 17  1  0  0  0  0
 16 37  1  0  0  0  0
 16 38  1  0  0  0  0
 17 18  1  0  0  0  0
 18 19  1  0  0  0  0
 18 39  1  0  0  0  0
 18 40  1  0  0  0  0
 19 41  1  0  0  0  0
 19 42  1  0  0  0  0
M  END
> <s_m_source_file>
AV-unprocessed.smi

> <i_m_source_file_index>
1373

> <i_lp_mmshare_version>
43012

> <i_f3d_flags>
0

> <s_epik_input>
W0NIM11bQ0gyXVtDSDJdW0NIMl1bTkhdQyg9TylbQ0gyXWMxbm9jKG4xKVtDSDJdTjJbQ0gyXVtDSDJdT1tDSDJdW0NIMl0y

> <s_epik_cmdline>
J2VwaWtfcHl0aG9uJywgJy1waCcsICc3LjAnLCAnLXRuJywgJzgnLCAnLW1hJywgJzIwMCcsICctbWV0YWxfYmluZGluZycsICctaW1hZScsICc8aW5maWxlLm1hZT4nLCAnLW9tYWUnLCAnPG91dGZpbGUubWFlPic=

> <r_lp_tautomer_probability>
1

> <r_epik_Ionization_Penalty>
0.0010147

> <r_epik_Ionization_Penalty_Charging>
0

> <r_epik_Ionization_Penalty_Neutral>
0.0010147

> <r_epik_State_Penalty>
0.00066205

> <r_epik_Charging_Adjusted_Penalty>
0.00066205

> <i_epik_Tot_Q>
0

> <i_epik_Tot_abs_Q>
0

> <r_epik_Metal_State_Penalty>
-0

> <b_epik_Metal_Only>
0

> <s_lp_Force_Field>
OPLS_2005

> <r_lp_Energy>
19.0751

> <b_lp_Chiralities_Consistent>
1

> <s_lp_Variant>
AV-unprocessed.smi:1373-1

> <Gold.Version>
5.8.1

> <Gold.Id.Protein>
6NUR|6NUR_protein|mol2

> <Gold.PLP.Fitness>
38.2393

> <Gold.PLP.PLP>
-34.5556

> <Gold.PLP.part.hbond>
-4.3407

> <Gold.PLP.part.metal>
0.0000

> <Gold.PLP.part.buried>
1.0474

> <Gold.PLP.part.nonpolar>
-32.2336

> <Gold.PLP.part.repulsive>
0.2852

> <Gold.PLP.ligand.clash>
0.0000

> <Gold.PLP.ligand.torsion>
0.3427

> <Gold.PLP.Chemscore.Hbond>
1.4353

> <Gold.PLP.Chemscore.CHOScore>
0.0000

> <Gold.PLP.Chemscore.Metal>
0.0000

> <Gold.Chemscore.Hbonds>
donor molecule, donor type, donor heavy atom, donor atom, acceptor molecule, acceptor atom, score
      P1  H  7989  7998       L1     7  0.91
      P1  H  7997  8009       L1    20  0.25
      P1  H 10752 10764       L1    10  0.27

> <Gold.PLP.Chemscore.Internal.Correction>
0.0632

> <Gold.Rescore>
     Score         DG    S(hbond)    S(metal)    S(lipo)     H(rot)  DE(clash)    DE(int)     intcor
     10.73     -13.53       0.86        0.00      94.36       2.29       1.28       1.52       ----

> <Gold.Chemscore.Fitness>
10.7289

> <Gold.Chemscore.DG>
-13.5308

> <Gold.Chemscore.ZeroCoef>
-5.4800

> <Gold.Chemscore.Hbond>
0.8610

> <Gold.Chemscore.Metal>
0.0000

> <Gold.Chemscore.Lipo>
94.3644

> <Gold.Chemscore.Internal_Hbond>
0.0000

> <Gold.Chemscore.DEClash>
1.2806

> <Gold.Chemscore.DEInternal>
1.5214

> <Gold.Chemscore.Rot>
2.2912

> <Gold.Chemscore.Internal.Correction>
   9.000000E+99

> <Gold.Chemscore.Hbonds>
donor molecule, donor type, donor heavy atom, donor atom, acceptor molecule, acceptor atom, score
      P1  H  7989  7998       L1     7  0.87
      P1  H 10752 10764       L1    10  0.05

> <Gold.Chemscore.Hbond.Weighted>
-2.8756

> <Gold.Chemscore.Metal.Weighted>
-0.0000

> <Gold.Chemscore.Lipo.Weighted>
-11.0406

> <Gold.Chemscore.Internal_Hbond.Weighted>
0.0000

> <Gold.Chemscore.DEClash.Weighted>
1.2806

> <Gold.Chemscore.DEInternal.Weighted>
1.5214

> <Gold.Chemscore.Rot.Weighted>
5.8654

> <Gold.Chemscore.Internal.Correction.Weighted>
   9.000000E+99

> <Gold.Protein.RotatedTorsions>
[ 6907 6896 6895 6894 ] final  -23.39 input  -60.11 | X-H torsion
[ 7974 7965 7964 7962 ] final  -14.59 input  175.53 | X-H torsion
[ 8008 7997 7996 7995 ] final -106.21 input   59.86 | X-H torsion
[ 10167 10162 10161 10158 ] final  132.02 input  -65.29 | X-H torsion
[ 10718 10713 10712 10709 ] final   58.27 input   66.30 | X-H torsion
[ 10763 10752 10751 10750 ] final   -0.21 input  -60.55 | X-H torsion
[ 11005 11000 10999 10996 ] final   76.25 input  -57.11 | X-H torsion

> <Gold.Protein.ActiveResidues>
 VAL166  LYS551  ARG553  GLY616  TRP617  ASP618  TYR619  PRO620  LYS621  CYS622 
 ASP623  PHE694  ASN695  SER759  ASP760  ASP761  ALA762  ILE779  LEU786  VAL792 
 PHE793  MET794  SER795  GLU796  ALA797  LYS798  CYS799  TRP800  GLU811  SER814 

> <Gold.Protein.RotatedAtoms>
  151.2048  135.0457  159.8886 H   0  0  0  0  0  0  0  0  0  0  0  0  # atno 6907 bound_to 6896
  152.5430  134.0810  159.8246 H   0  0  0  0  0  0  0  0  0  0  0  0  # atno 6908 bound_to 6896
  151.0956  133.5235  159.2644 H   0  0  0  0  0  0  0  0  0  0  0  0  # atno 6909 bound_to 6896
  146.2068  140.3371  142.8404 H   0  0  0  0  0  0  0  0  0  0  0  0  # atno 7974 bound_to 7965
  154.9112  140.0410  157.1947 H   0  0  0  0  0  0  0  0  0  0  0  0  # atno 8008 bound_to 7997
  154.8346  140.2904  155.5678 H   0  0  0  0  0  0  0  0  0  0  0  0  # atno 8009 bound_to 7997
  156.2989  140.2494  156.3278 H   0  0  0  0  0  0  0  0  0  0  0  0  # atno 8010 bound_to 7997
  139.5358  144.6681  151.4791 H   0  0  0  0  0  0  0  0  0  0  0  0  # atno 10167 bound_to 10162
  157.5583  130.8816  149.9070 H   0  0  0  0  0  0  0  0  0  0  0  0  # atno 10718 bound_to 10713
  153.3290  135.6974  153.6964 H   0  0  0  0  0  0  0  0  0  0  0  0  # atno 10763 bound_to 10752
  153.5774  135.3504  155.2862 H   0  0  0  0  0  0  0  0  0  0  0  0  # atno 10764 bound_to 10752
  154.8614  135.4287  154.2474 H   0  0  0  0  0  0  0  0  0  0  0  0  # atno 10765 bound_to 10752
  139.9307  134.7585  156.1372 H   0  0  0  0  0  0  0  0  0  0  0  0  # atno 11005 bound_to 11000
  144.8812  140.7402  143.5985 LP  0  0  0  0  0  0  0  0  0  0  0  0  # atno 17320 bound_to 7965
  145.3291  139.1765  143.4546 LP  0  0  0  0  0  0  0  0  0  0  0  0  # atno 17321 bound_to 7965
  140.6563  143.8592  150.6839 LP  0  0  0  0  0  0  0  0  0  0  0  0  # atno 17342 bound_to 10162
  140.1972  143.3988  152.1819 LP  0  0  0  0  0  0  0  0  0  0  0  0  # atno 17343 bound_to 10162
  156.0639  130.3695  150.0922 LP  0  0  0  0  0  0  0  0  0  0  0  0  # atno 17370 bound_to 10713
  156.9088  130.9645  151.3566 LP  0  0  0  0  0  0  0  0  0  0  0  0  # atno 17371 bound_to 10713
  141.0893  133.6721  156.2505 LP  0  0  0  0  0  0  0  0  0  0  0  0  # atno 17394 bound_to 11000
  140.6211  134.5361  157.5547 LP  0  0  0  0  0  0  0  0  0  0  0  0  # atno 17395 bound_to 11000

$$$$
