AV-unprocessed.smi:2027|AV-procd|sdf|8210|dock4
  -GOLD-   2272010473D 1   1.00000     0.00000
 Structure written by MMmdl.
 49 51  0  0  0  0  0  0  0  0  1 V2000
  151.0194  144.8911  159.1736 C   0  0  0  0  0  0  0  0  0  0  0  0
  151.4164  143.4594  158.8601 C   0  0  0  0  0  0  0  0  0  0  0  0
  151.0488  142.9010  157.6141 C   0  0  0  0  0  0  0  0  0  0  0  0
  151.3968  141.5723  157.2847 C   0  0  0  0  0  0  0  0  0  0  0  0
  151.1463  140.8291  156.1430 N   0  0  0  0  0  0  0  0  0  0  0  0
  151.7226  139.6683  156.4447 C   0  0  0  0  0  0  0  0  0  0  0  0
  152.3141  139.5724  157.6505 N   0  0  0  0  0  0  0  0  0  0  0  0
  153.0033  138.4304  158.2175 C   0  0  0  0  0  0  0  0  0  0  0  0
  152.0758  137.2044  158.3383 C   0  0  1  0  0  0  0  0  0  0  0  0
  152.8075  136.1308  158.8927 O   0  0  0  0  0  0  0  0  0  0  0  0
  150.8424  137.4744  159.2250 C   0  0  0  0  0  0  0  0  0  0  0  0
  149.7985  136.4475  159.1607 N   0  0  0  0  0  0  0  0  0  0  0  0
  149.3156  136.2977  157.7916 C   0  0  0  0  0  0  0  0  0  0  0  0
  148.6868  136.7079  160.0806 C   0  0  0  0  0  0  0  0  0  0  0  0
  147.9128  135.4636  160.4269 C   0  0  0  0  0  0  0  0  0  0  0  0
  147.9800  134.1875  159.7987 C   0  0  0  0  0  0  0  0  0  0  0  0
  147.1451  133.3081  160.3287 N   0  0  0  0  0  0  0  0  0  0  0  0
  146.5163  133.9899  161.3082 N   0  0  0  0  0  0  0  0  0  0  0  0
  145.5071  133.3282  162.1070 C   0  0  0  0  0  0  0  0  0  0  0  0
  146.9576  135.2922  161.3897 C   0  0  0  0  0  0  0  0  0  0  0  0
  152.1267  140.8140  158.2444 C   0  0  0  0  0  0  0  0  0  0  0  0
  152.4992  141.3575  159.4860 C   0  0  0  0  0  0  0  0  0  0  0  0
  152.1463  142.6860  159.7986 C   0  0  0  0  0  0  0  0  0  0  0  0
  152.5560  143.2612  161.1431 C   0  0  0  0  0  0  0  0  0  0  0  0
  150.3979  145.3140  158.3836 H   0  0  0  0  0  0  0  0  0  0  0  0
  151.9058  145.5178  159.2753 H   0  0  0  0  0  0  0  0  0  0  0  0
  150.4528  144.9373  160.1038 H   0  0  0  0  0  0  0  0  0  0  0  0
  150.4942  143.4905  156.8990 H   0  0  0  0  0  0  0  0  0  0  0  0
  151.7119  138.8397  155.7515 H   0  0  0  0  0  0  0  0  0  0  0  0
  153.8851  138.2013  157.6175 H   0  0  0  0  0  0  0  0  0  0  0  0
  153.3696  138.7323  159.1992 H   0  0  0  0  0  0  0  0  0  0  0  0
  151.7625  136.8788  157.3475 H   0  0  0  0  0  0  0  0  0  0  0  0
  153.6496  136.0914  158.4655 H   0  0  0  0  0  0  0  0  0  0  0  0
  151.1568  137.6050  160.2617 H   0  0  0  0  0  0  0  0  0  0  0  0
  150.4206  138.4328  158.9183 H   0  0  0  0  0  0  0  0  0  0  0  0
  148.5847  135.4923  157.7157 H   0  0  0  0  0  0  0  0  0  0  0  0
  150.1364  136.0542  157.1160 H   0  0  0  0  0  0  0  0  0  0  0  0
  148.8469  137.2168  157.4371 H   0  0  0  0  0  0  0  0  0  0  0  0
  149.0564  137.1395  161.0078 H   0  0  0  0  0  0  0  0  0  0  0  0
  148.0324  137.4702  159.6551 H   0  0  0  0  0  0  0  0  0  0  0  0
  148.6056  133.8774  158.9746 H   0  0  0  0  0  0  0  0  0  0  0  0
  145.2849  133.9227  162.9937 H   0  0  0  0  0  0  0  0  0  0  0  0
  145.8634  132.3461  162.4206 H   0  0  0  0  0  0  0  0  0  0  0  0
  144.5953  133.2099  161.5212 H   0  0  0  0  0  0  0  0  0  0  0  0
  146.5577  135.9859  162.1147 H   0  0  0  0  0  0  0  0  0  0  0  0
  153.0507  140.7546  160.1916 H   0  0  0  0  0  0  0  0  0  0  0  0
  153.1862  142.5650  161.6977 H   0  0  0  0  0  0  0  0  0  0  0  0
  151.6755  143.4743  161.7497 H   0  0  0  0  0  0  0  0  0  0  0  0
  153.1185  144.1856  161.0107 H   0  0  0  0  0  0  0  0  0  0  0  0
  1  2  1  0  0  0  0
  1 25  1  0  0  0  0
  1 26  1  0  0  0  0
  1 27  1  0  0  0  0
  2 23  1  0  0  0  0
  2  3  2  0  0  0  0
  3  4  1  0  0  0  0
  3 28  1  0  0  0  0
  4 21  2  0  0  0  0
  4  5  1  0  0  0  0
  5  6  2  0  0  0  0
  6  7  1  0  0  0  0
  6 29  1  0  0  0  0
  7  8  1  0  0  0  0
  7 21  1  0  0  0  0
  8  9  1  0  0  0  0
  8 30  1  0  0  0  0
  8 31  1  0  0  0  0
  9 10  1  0  0  0  0
  9 11  1  0  0  0  0
  9 32  1  0  0  0  0
 10 33  1  0  0  0  0
 11 12  1  0  0  0  0
 11 34  1  0  0  0  0
 11 35  1  0  0  0  0
 12 13  1  0  0  0  0
 12 14  1  0  0  0  0
 13 36  1  0  0  0  0
 13 37  1  0  0  0  0
 13 38  1  0  0  0  0
 14 15  1  0  0  0  0
 14 39  1  0  0  0  0
 14 40  1  0  0  0  0
 15 20  2  0  0  0  0
 15 16  1  0  0  0  0
 16 17  2  0  0  0  0
 16 41  1  0  0  0  0
 17 18  1  0  0  0  0
 18 19  1  0  0  0  0
 18 20  1  0  0  0  0
 19 42  1  0  0  0  0
 19 43  1  0  0  0  0
 19 44  1  0  0  0  0
 20 45  1  0  0  0  0
 21 22  1  0  0  0  0
 22 23  2  0  0  0  0
 22 46  1  0  0  0  0
 23 24  1  0  0  0  0
 24 47  1  0  0  0  0
 24 48  1  0  0  0  0
 24 49  1  0  0  0  0
M  END
> <s_m_source_file>
AV-unprocessed.smi

> <i_m_source_file_index>
2027

> <i_lp_mmshare_version>
43012

> <i_f3d_flags>
0

> <s_epik_input>
W0NIM11jKFtjSF0xKWMoW0NIM10pW2NIXWMoYzEyKW4oW2NIXW4yKVtDSDJdW0NASF0oW09IXSlbQ0gyXU4oW0NIM10pW0NIMl1jM1tjSF1ubihbQ0gzXSlbY0hdMw==

> <s_epik_cmdline>
J2VwaWtfcHl0aG9uJywgJy1waCcsICc3LjAnLCAnLXRuJywgJzgnLCAnLW1hJywgJzIwMCcsICctbWV0YWxfYmluZGluZycsICctaW1hZScsICc8aW5maWxlLm1hZT4nLCAnLW9tYWUnLCAnPG91dGZpbGUubWFlPic=

> <r_lp_tautomer_probability>
1

> <r_epik_Ionization_Penalty>
0.374241

> <r_epik_Ionization_Penalty_Charging>
0

> <r_epik_Ionization_Penalty_Neutral>
0.374241

> <r_epik_State_Penalty>
0.350767

> <r_epik_Charging_Adjusted_Penalty>
0.350767

> <i_epik_Tot_Q>
0

> <i_epik_Tot_abs_Q>
0

> <r_epik_Metal_State_Penalty>
0.343203

> <b_epik_Metal_Only>
0

> <s_lp_Force_Field>
OPLS_2005

> <r_lp_Energy>
13.5697

> <b_lp_Chiralities_Consistent>
1

> <s_lp_Variant>
AV-unprocessed.smi:2027-2

> <Gold.Version>
5.8.1

> <Gold.Id.Protein>
6NUR|6NUR_protein|mol2

> <Gold.PLP.Fitness>
49.6399

> <Gold.PLP.PLP>
-45.5791

> <Gold.PLP.part.hbond>
-2.0000

> <Gold.PLP.part.metal>
0.0000

> <Gold.PLP.part.buried>
-5.2696

> <Gold.PLP.part.nonpolar>
-39.5205

> <Gold.PLP.part.repulsive>
0.0260

> <Gold.PLP.ligand.clash>
0.0000

> <Gold.PLP.ligand.torsion>
0.3844

> <Gold.PLP.Chemscore.Hbond>
1.5440

> <Gold.PLP.Chemscore.CHOScore>
0.0000

> <Gold.PLP.Chemscore.Metal>
0.0000

> <Gold.Chemscore.Hbonds>
donor molecule, donor type, donor heavy atom, donor atom, acceptor molecule, acceptor atom, score
      P1  H  6896  6908       L1    12  1.00
      P1  H  6896  6909       L1    10  0.54

> <Gold.PLP.Chemscore.Internal.Correction>
0.1976

> <Gold.Rescore>
     Score         DG    S(hbond)    S(metal)    S(lipo)     H(rot)  DE(clash)    DE(int)     intcor
     17.51     -18.05       1.22        0.00     125.58       2.42       0.18       0.36       ----

> <Gold.Chemscore.Fitness>
17.5079

> <Gold.Chemscore.DG>
-18.0473

> <Gold.Chemscore.ZeroCoef>
-5.4800

> <Gold.Chemscore.Hbond>
1.2182

> <Gold.Chemscore.Metal>
0.0000

> <Gold.Chemscore.Lipo>
125.5831

> <Gold.Chemscore.Internal_Hbond>
0.0000

> <Gold.Chemscore.DEClash>
0.1762

> <Gold.Chemscore.DEInternal>
0.3632

> <Gold.Chemscore.Rot>
2.4198

> <Gold.Chemscore.Internal.Correction>
   9.000000E+99

> <Gold.Chemscore.Hbonds>
donor molecule, donor type, donor heavy atom, donor atom, acceptor molecule, acceptor atom, score
      P1  H  6896  6908       L1    12  0.20
      P1  H  6896  6909       L1    10  0.51

> <Gold.Chemscore.Hbond.Weighted>
-4.0689

> <Gold.Chemscore.Metal.Weighted>
-0.0000

> <Gold.Chemscore.Lipo.Weighted>
-14.6932

> <Gold.Chemscore.Internal_Hbond.Weighted>
0.0000

> <Gold.Chemscore.DEClash.Weighted>
0.1762

> <Gold.Chemscore.DEInternal.Weighted>
0.3632

> <Gold.Chemscore.Rot.Weighted>
6.1948

> <Gold.Chemscore.Internal.Correction.Weighted>
   9.000000E+99

> <Gold.Protein.RotatedTorsions>
[ 6907 6896 6895 6894 ] final  176.15 input  -60.11 | X-H torsion
[ 7974 7965 7964 7962 ] final  -81.53 input  175.53 | X-H torsion
[ 8008 7997 7996 7995 ] final   46.65 input   59.86 | X-H torsion
[ 10167 10162 10161 10158 ] final -143.15 input  -65.29 | X-H torsion
[ 10718 10713 10712 10709 ] final  108.93 input   66.30 | X-H torsion
[ 10763 10752 10751 10750 ] final -177.13 input  -60.55 | X-H torsion
[ 11005 11000 10999 10996 ] final -102.84 input  -57.11 | X-H torsion

> <Gold.Protein.ActiveResidues>
 VAL166  LYS551  ARG553  GLY616  TRP617  ASP618  TYR619  PRO620  LYS621  CYS622 
 ASP623  PHE694  ASN695  SER759  ASP760  ASP761  ALA762  ILE779  LEU786  VAL792 
 PHE793  MET794  SER795  GLU796  ALA797  LYS798  CYS799  TRP800  GLU811  SER814 

> <Gold.Protein.RotatedAtoms>
  151.7247  133.3315  159.3324 H   0  0  0  0  0  0  0  0  0  0  0  0  # atno 6907 bound_to 6896
  150.7638  134.6417  159.6250 H   0  0  0  0  0  0  0  0  0  0  0  0  # atno 6908 bound_to 6896
  152.3630  134.6848  160.0253 H   0  0  0  0  0  0  0  0  0  0  0  0  # atno 6909 bound_to 6896
  145.5454  140.9504  143.1528 H   0  0  0  0  0  0  0  0  0  0  0  0  # atno 7974 bound_to 7965
  155.3560  140.3416  155.4240 H   0  0  0  0  0  0  0  0  0  0  0  0  # atno 8008 bound_to 7997
  156.1739  140.1641  156.8433 H   0  0  0  0  0  0  0  0  0  0  0  0  # atno 8009 bound_to 7997
  154.5261  140.0756  156.8243 H   0  0  0  0  0  0  0  0  0  0  0  0  # atno 8010 bound_to 7997
  139.8020  143.7820  152.2659 H   0  0  0  0  0  0  0  0  0  0  0  0  # atno 10167 bound_to 10162
  157.6564  131.0904  150.6379 H   0  0  0  0  0  0  0  0  0  0  0  0  # atno 10718 bound_to 10713
  154.5639  135.2822  155.0893 H   0  0  0  0  0  0  0  0  0  0  0  0  # atno 10763 bound_to 10752
  154.2291  135.6377  153.5173 H   0  0  0  0  0  0  0  0  0  0  0  0  # atno 10764 bound_to 10752
  153.0037  135.5533  154.6241 H   0  0  0  0  0  0  0  0  0  0  0  0  # atno 10765 bound_to 10752
  141.1172  133.8591  157.1410 H   0  0  0  0  0  0  0  0  0  0  0  0  # atno 11005 bound_to 11000
  144.7556  139.7084  143.7255 LP  0  0  0  0  0  0  0  0  0  0  0  0  # atno 17320 bound_to 7965
  146.1953  139.5215  142.9779 LP  0  0  0  0  0  0  0  0  0  0  0  0  # atno 17321 bound_to 7965
  139.7943  144.7398  150.9912 LP  0  0  0  0  0  0  0  0  0  0  0  0  # atno 17342 bound_to 10162
  140.7820  143.4410  151.0552 LP  0  0  0  0  0  0  0  0  0  0  0  0  # atno 17343 bound_to 10162
  156.6685  130.4532  149.5664 LP  0  0  0  0  0  0  0  0  0  0  0  0  # atno 17370 bound_to 10713
  156.2015  130.6622  151.1172 LP  0  0  0  0  0  0  0  0  0  0  0  0  # atno 17371 bound_to 10713
  140.0102  134.9991  157.0379 LP  0  0  0  0  0  0  0  0  0  0  0  0  # atno 17394 bound_to 11000
  140.4612  134.1482  155.7191 LP  0  0  0  0  0  0  0  0  0  0  0  0  # atno 17395 bound_to 11000

$$$$
