AV-unprocessed.smi:2145|AV-procd|sdf|8737|dock9
  -GOLD-   2272011513D 1   1.00000     0.00000
 Structure written by MMmdl.
 45 47  0  0  0  0  0  0  0  0  2 V2000
  154.1747  136.4199  164.1164 C   0  0  0  0  0  0  0  0  0  0  0  0
  154.9735  135.6870  163.0399 C   0  0  0  0  0  0  0  0  0  0  0  0
  155.8333  134.8787  163.3895 O   0  0  0  0  0  0  0  0  0  0  0  0
  154.6641  135.9936  161.6144 C   0  0  0  0  0  0  0  0  0  0  0  0
  153.6678  136.9476  161.3096 C   0  0  0  0  0  0  0  0  0  0  0  0
  153.3569  137.2559  159.9718 C   0  0  0  0  0  0  0  0  0  0  0  0
  154.0308  136.6239  158.9087 C   0  0  0  0  0  0  0  0  0  0  0  0
  153.6644  136.9878  157.6311 O   0  0  0  0  0  0  0  0  0  0  0  0
  152.3331  137.4348  157.4116 C   0  0  0  0  0  0  0  0  0  0  0  0
  152.3196  138.9703  157.4585 C   0  0  1  0  0  0  0  0  0  0  0  0
  152.9699  139.4575  156.3016 O   0  0  0  0  0  0  0  0  0  0  0  0
  150.8857  139.5347  157.5090 C   0  0  0  0  0  0  0  0  0  0  0  0
  150.8458  141.0016  157.3927 N   0  0  0  0  0  0  0  0  0  0  0  0
  150.1460  141.7892  156.5271 C   0  0  0  0  0  0  0  0  0  0  0  0
  149.2223  141.3270  155.4509 C   0  0  0  0  0  0  0  0  0  0  0  0
  150.4467  143.0846  156.8244 N   0  3  0  0  0  0  0  0  0  0  0  0
  151.3456  143.1277  157.8909 C   0  0  0  0  0  0  0  0  0  0  0  0
  151.9332  144.2075  158.5428 C   0  0  0  0  0  0  0  0  0  0  0  0
  152.8107  143.9046  159.6044 C   0  0  0  0  0  0  0  0  0  0  0  0
  153.0739  142.5718  159.9814 C   0  0  0  0  0  0  0  0  0  0  0  0
  152.4727  141.4852  159.3126 C   0  0  0  0  0  0  0  0  0  0  0  0
  151.6070  141.7924  158.2627 C   0  0  0  0  0  0  0  0  0  0  0  0
  155.0290  135.6653  159.2112 C   0  0  0  0  0  0  0  0  0  0  0  0
  155.3408  135.3546  160.5493 C   0  0  0  0  0  0  0  0  0  0  0  0
  154.3267  137.4967  164.0391 H   0  0  0  0  0  0  0  0  0  0  0  0
  154.4923  136.1016  165.1097 H   0  0  0  0  0  0  0  0  0  0  0  0
  153.1106  136.2059  164.0146 H   0  0  0  0  0  0  0  0  0  0  0  0
  153.1306  137.4545  162.0984 H   0  0  0  0  0  0  0  0  0  0  0  0
  152.5919  137.9885  159.7596 H   0  0  0  0  0  0  0  0  0  0  0  0
  151.9345  137.0715  156.4623 H   0  0  0  0  0  0  0  0  0  0  0  0
  151.7023  137.0433  158.2115 H   0  0  0  0  0  0  0  0  0  0  0  0
  152.8652  139.3107  158.3395 H   0  0  0  0  0  0  0  0  0  0  0  0
  152.3863  140.0578  155.8625 H   0  0  0  0  0  0  0  0  0  0  0  0
  150.2559  139.0910  156.7375 H   0  0  0  0  0  0  0  0  0  0  0  0
  150.4198  139.2785  158.4612 H   0  0  0  0  0  0  0  0  0  0  0  0
  148.7638  142.1778  154.9464 H   0  0  0  0  0  0  0  0  0  0  0  0
  148.4309  140.7075  155.8732 H   0  0  0  0  0  0  0  0  0  0  0  0
  149.7695  140.7399  154.7133 H   0  0  0  0  0  0  0  0  0  0  0  0
  151.7309  145.2295  158.2573 H   0  0  0  0  0  0  0  0  0  0  0  0
  153.2897  144.7104  160.1415 H   0  0  0  0  0  0  0  0  0  0  0  0
  153.7498  142.3782  160.8018 H   0  0  0  0  0  0  0  0  0  0  0  0
  152.6766  140.4689  159.6154 H   0  0  0  0  0  0  0  0  0  0  0  0
  155.5715  135.1507  158.4329 H   0  0  0  0  0  0  0  0  0  0  0  0
  156.1076  134.6174  160.7349 H   0  0  0  0  0  0  0  0  0  0  0  0
  150.0619  143.8806  156.3321 H   0  0  0  0  0  0  0  0  0  0  0  0
  1  2  1  0  0  0  0
  1 25  1  0  0  0  0
  1 26  1  0  0  0  0
  1 27  1  0  0  0  0
  2  3  2  0  0  0  0
  2  4  1  0  0  0  0
  4 24  1  0  0  0  0
  4  5  2  0  0  0  0
  5  6  1  0  0  0  0
  5 28  1  0  0  0  0
  6  7  2  0  0  0  0
  6 29  1  0  0  0  0
  7  8  1  0  0  0  0
  7 23  1  0  0  0  0
  8  9  1  0  0  0  0
  9 10  1  0  0  0  0
  9 30  1  0  0  0  0
  9 31  1  0  0  0  0
 10 11  1  0  0  0  0
 10 12  1  0  0  0  0
 10 32  1  0  0  0  0
 11 33  1  0  0  0  0
 12 13  1  0  0  0  0
 12 34  1  0  0  0  0
 12 35  1  0  0  0  0
 13 22  1  0  0  0  0
 13 14  1  0  0  0  0
 14 15  1  0  0  0  0
 14 16  2  0  0  0  0
 15 36  1  0  0  0  0
 15 37  1  0  0  0  0
 15 38  1  0  0  0  0
 16 17  1  0  0  0  0
 16 45  1  0  0  0  0
 17 22  2  0  0  0  0
 17 18  1  0  0  0  0
 18 19  2  0  0  0  0
 18 39  1  0  0  0  0
 19 20  1  0  0  0  0
 19 40  1  0  0  0  0
 20 21  2  0  0  0  0
 20 41  1  0  0  0  0
 21 22  1  0  0  0  0
 21 42  1  0  0  0  0
 23 24  2  0  0  0  0
 23 43  1  0  0  0  0
 24 44  1  0  0  0  0
M  CHG  1  16   1
M  END
> <s_m_source_file>
AV-unprocessed.smi

> <i_m_source_file_index>
2145

> <i_lp_mmshare_version>
43012

> <i_f3d_flags>
0

> <s_epik_input>
W0NIM11DKD1PKWMxW2NIXVtjSF1jKFtjSF1bY0hdMSlPW0NIMl1bQ0BIXShbT0hdKVtDSDJdbihjKG4yKVtDSDNdKWMoYzIzKVtjSF1bY0hdW2NIXVtjSF0z

> <s_epik_cmdline>
J2VwaWtfcHl0aG9uJywgJy1waCcsICc3LjAnLCAnLXRuJywgJzgnLCAnLW1hJywgJzIwMCcsICctbWV0YWxfYmluZGluZycsICctaW1hZScsICc8aW5maWxlLm1hZT4nLCAnLW9tYWUnLCAnPG91dGZpbGUubWFlPic=

> <r_lp_tautomer_probability>
0.99995

> <r_epik_Ionization_Penalty>
1.05477

> <r_epik_Ionization_Penalty_Charging>
1.05477

> <r_epik_Ionization_Penalty_Neutral>
2.3993e-06

> <r_epik_State_Penalty>
1.10796

> <r_epik_Charging_Adjusted_Penalty>
2.16273

> <i_epik_Tot_Q>
1

> <i_epik_Tot_abs_Q>
1

> <r_epik_Metal_State_Penalty>
5.10164

> <b_epik_Metal_Only>
0

> <s_lp_Force_Field>
OPLS_2005

> <r_lp_Energy>
25.5273

> <b_lp_Chiralities_Consistent>
1

> <s_lp_Variant>
AV-unprocessed.smi:2145-4

> <Gold.Version>
5.8.1

> <Gold.Id.Protein>
6NUR|6NUR_protein|mol2

> <Gold.PLP.Fitness>
54.9162

> <Gold.PLP.PLP>
-47.4114

> <Gold.PLP.part.hbond>
-1.7828

> <Gold.PLP.part.metal>
0.0000

> <Gold.PLP.part.buried>
-6.6092

> <Gold.PLP.part.nonpolar>
-40.3687

> <Gold.PLP.part.repulsive>
0.1210

> <Gold.PLP.ligand.clash>
0.0000

> <Gold.PLP.ligand.torsion>
0.7416

> <Gold.PLP.Chemscore.Hbond>
2.9840

> <Gold.PLP.Chemscore.CHOScore>
0.0000

> <Gold.PLP.Chemscore.Metal>
0.0000

> <Gold.Chemscore.Hbonds>
donor molecule, donor type, donor heavy atom, donor atom, acceptor molecule, acceptor atom, score
      L1  H    16    45       P1  8028  2.00
      P1  H  7997  8009       L1    11  0.99

> <Gold.PLP.Chemscore.Internal.Correction>
0.0359

> <Gold.Rescore>
     Score         DG    S(hbond)    S(metal)    S(lipo)     H(rot)  DE(clash)    DE(int)     intcor
     19.74     -20.35       1.84        0.00     124.75       2.30       0.14       0.47       ----

> <Gold.Chemscore.Fitness>
19.7410

> <Gold.Chemscore.DG>
-20.3454

> <Gold.Chemscore.ZeroCoef>
-5.4800

> <Gold.Chemscore.Hbond>
1.8425

> <Gold.Chemscore.Metal>
0.0000

> <Gold.Chemscore.Lipo>
124.7468

> <Gold.Chemscore.Internal_Hbond>
0.0000

> <Gold.Chemscore.DEClash>
0.1371

> <Gold.Chemscore.DEInternal>
0.4674

> <Gold.Chemscore.Rot>
2.2984

> <Gold.Chemscore.Internal.Correction>
   9.000000E+99

> <Gold.Chemscore.Hbonds>
donor molecule, donor type, donor heavy atom, donor atom, acceptor molecule, acceptor atom, score
      L1  H    16    45       P1  8028  0.96
      P1  H  7997  8009       L1    11  0.46

> <Gold.Chemscore.Hbond.Weighted>
-6.1539

> <Gold.Chemscore.Metal.Weighted>
-0.0000

> <Gold.Chemscore.Lipo.Weighted>
-14.5954

> <Gold.Chemscore.Internal_Hbond.Weighted>
0.0000

> <Gold.Chemscore.DEClash.Weighted>
0.1371

> <Gold.Chemscore.DEInternal.Weighted>
0.4674

> <Gold.Chemscore.Rot.Weighted>
5.8839

> <Gold.Chemscore.Internal.Correction.Weighted>
   9.000000E+99

> <Gold.Protein.RotatedTorsions>
[ 6907 6896 6895 6894 ] final -120.75 input  -60.11 | X-H torsion
[ 7974 7965 7964 7962 ] final -152.82 input  175.53 | X-H torsion
[ 8008 7997 7996 7995 ] final -157.17 input   59.86 | X-H torsion
[ 10167 10162 10161 10158 ] final  -82.94 input  -65.29 | X-H torsion
[ 10718 10713 10712 10709 ] final   84.37 input   66.30 | X-H torsion
[ 10763 10752 10751 10750 ] final -102.83 input  -60.55 | X-H torsion
[ 11005 11000 10999 10996 ] final  -77.28 input  -57.11 | X-H torsion

> <Gold.Protein.ActiveResidues>
 VAL166  LYS551  ARG553  GLY616  TRP617  ASP618  TYR619  PRO620  LYS621  CYS622 
 ASP623  PHE694  ASN695  SER759  ASP760  ASP761  ALA762  ILE779  LEU786  VAL792 
 PHE793  MET794  SER795  GLU796  ALA797  LYS798  CYS799  TRP800  GLU811  SER814 

> <Gold.Protein.RotatedAtoms>
  150.8421  133.7920  159.3056 H   0  0  0  0  0  0  0  0  0  0  0  0  # atno 6907 bound_to 6896
  151.5618  135.1063  159.9984 H   0  0  0  0  0  0  0  0  0  0  0  0  # atno 6908 bound_to 6896
  152.4482  133.7536  159.6763 H   0  0  0  0  0  0  0  0  0  0  0  0  # atno 6909 bound_to 6896
  144.7774  140.4610  143.5864 H   0  0  0  0  0  0  0  0  0  0  0  0  # atno 7974 bound_to 7965
  155.7284  140.0799  157.2300 H   0  0  0  0  0  0  0  0  0  0  0  0  # atno 8008 bound_to 7997
  154.4036  140.1600  156.2535 H   0  0  0  0  0  0  0  0  0  0  0  0  # atno 8009 bound_to 7997
  155.9132  140.3402  155.6117 H   0  0  0  0  0  0  0  0  0  0  0  0  # atno 8010 bound_to 7997
  140.4273  143.2561  151.8807 H   0  0  0  0  0  0  0  0  0  0  0  0  # atno 10167 bound_to 10162
  157.6897  131.0130  150.2663 H   0  0  0  0  0  0  0  0  0  0  0  0  # atno 10718 bound_to 10713
  154.7762  135.4846  153.9750 H   0  0  0  0  0  0  0  0  0  0  0  0  # atno 10763 bound_to 10752
  153.1433  135.6777  153.9001 H   0  0  0  0  0  0  0  0  0  0  0  0  # atno 10764 bound_to 10752
  153.8669  135.3148  155.3419 H   0  0  0  0  0  0  0  0  0  0  0  0  # atno 10765 bound_to 10752
  141.1659  133.7016  156.7797 H   0  0  0  0  0  0  0  0  0  0  0  0  # atno 11005 bound_to 11000
  145.6148  139.1517  143.3056 LP  0  0  0  0  0  0  0  0  0  0  0  0  # atno 17320 bound_to 7965
  146.1961  140.6262  142.9123 LP  0  0  0  0  0  0  0  0  0  0  0  0  # atno 17321 bound_to 7965
  139.4784  144.5372  151.8580 LP  0  0  0  0  0  0  0  0  0  0  0  0  # atno 17342 bound_to 10162
  140.4466  144.1913  150.5894 LP  0  0  0  0  0  0  0  0  0  0  0  0  # atno 17343 bound_to 10162
  156.3234  130.3789  149.7555 LP  0  0  0  0  0  0  0  0  0  0  0  0  # atno 17370 bound_to 10713
  156.5118  130.8175  151.3171 LP  0  0  0  0  0  0  0  0  0  0  0  0  # atno 17371 bound_to 10713
  140.2403  134.8618  157.3567 LP  0  0  0  0  0  0  0  0  0  0  0  0  # atno 17394 bound_to 11000
  140.1802  134.4499  155.7777 LP  0  0  0  0  0  0  0  0  0  0  0  0  # atno 17395 bound_to 11000

$$$$
