AV-unprocessed.smi:2548|AV-procd|sdf|10008|dock1
  -GOLD-   2272014 53D 1   1.00000     0.00000
 Structure written by MMmdl.
 44 45  0  0  0  0  0  0  0  0  1 V2000
  146.7993  141.0214  152.3661 C   0  0  0  0  0  0  0  0  0  0  0  0
  147.0542  141.6143  153.7204 C   0  0  0  0  0  0  0  0  0  0  0  0
  146.3448  141.3761  154.9339 C   0  0  0  0  0  0  0  0  0  0  0  0
  146.9833  142.1558  155.8576 C   0  0  0  0  0  0  0  0  0  0  0  0
  146.7356  142.3619  157.3198 C   0  0  0  0  0  0  0  0  0  0  0  0
  147.9747  142.0736  158.1755 C   0  0  0  0  0  0  0  0  0  0  0  0
  148.1483  142.6446  159.2534 O   0  0  0  0  0  0  0  0  0  0  0  0
  148.8277  141.1631  157.6800 N   0  0  0  0  0  0  0  0  0  0  0  0
  150.0741  140.7256  158.3093 C   0  0  0  0  0  0  0  0  0  0  0  0
  151.3595  141.2864  157.6265 C   0  0  0  0  0  0  0  0  0  0  0  0
  151.4863  140.6486  156.2225 C   0  0  0  0  0  0  0  0  0  0  0  0
  151.2425  142.8229  157.4072 C   0  0  0  0  0  0  0  0  0  0  0  0
  151.0148  143.6978  158.6578 C   0  0  0  0  0  0  0  0  0  0  0  0
  152.2802  144.1285  159.4185 C   0  0  0  0  0  0  0  0  0  0  0  0
  153.3583  143.0544  159.6391 C   0  0  0  0  0  0  0  0  0  0  0  0
  152.8464  141.6119  159.7758 C   0  0  0  0  0  0  0  0  0  0  0  0
  152.6464  140.9212  158.4134 C   0  0  0  0  0  0  0  0  0  0  0  0
  147.9961  142.7982  155.1812 N   0  0  0  0  0  0  0  0  0  0  0  0
  148.0492  142.4747  153.8760 N   0  0  0  0  0  0  0  0  0  0  0  0
  148.6522  143.4462  155.5933 H   0  0  0  0  0  0  0  0  0  0  0  0
  145.9349  140.3573  152.3834 H   0  0  0  0  0  0  0  0  0  0  0  0
  147.6565  140.4410  152.0239 H   0  0  0  0  0  0  0  0  0  0  0  0
  146.6049  141.7992  151.6271 H   0  0  0  0  0  0  0  0  0  0  0  0
  145.4976  140.7274  155.1012 H   0  0  0  0  0  0  0  0  0  0  0  0
  145.9178  141.7166  157.6432 H   0  0  0  0  0  0  0  0  0  0  0  0
  146.4154  143.3879  157.5046 H   0  0  0  0  0  0  0  0  0  0  0  0
  148.5999  140.7408  156.7917 H   0  0  0  0  0  0  0  0  0  0  0  0
  150.0402  141.0621  159.3460 H   0  0  0  0  0  0  0  0  0  0  0  0
  150.0846  139.6381  158.3591 H   0  0  0  0  0  0  0  0  0  0  0  0
  152.3230  141.0736  155.6665 H   0  0  0  0  0  0  0  0  0  0  0  0
  150.5868  140.8110  155.6277 H   0  0  0  0  0  0  0  0  0  0  0  0
  151.6542  139.5724  156.2739 H   0  0  0  0  0  0  0  0  0  0  0  0
  152.1150  143.1941  156.8676 H   0  0  0  0  0  0  0  0  0  0  0  0
  150.3997  142.9986  156.7373 H   0  0  0  0  0  0  0  0  0  0  0  0
  150.5078  144.6104  158.3427 H   0  0  0  0  0  0  0  0  0  0  0  0
  150.3170  143.2299  159.3480 H   0  0  0  0  0  0  0  0  0  0  0  0
  152.7405  144.9714  158.9016 H   0  0  0  0  0  0  0  0  0  0  0  0
  151.9690  144.5200  160.3877 H   0  0  0  0  0  0  0  0  0  0  0  0
  154.0871  143.1029  158.8292 H   0  0  0  0  0  0  0  0  0  0  0  0
  153.9167  143.3192  160.5378 H   0  0  0  0  0  0  0  0  0  0  0  0
  153.6059  141.0457  160.3160 H   0  0  0  0  0  0  0  0  0  0  0  0
  151.9522  141.5630  160.3971 H   0  0  0  0  0  0  0  0  0  0  0  0
  152.6786  139.8434  158.5695 H   0  0  0  0  0  0  0  0  0  0  0  0
  153.5197  141.1272  157.7929 H   0  0  0  0  0  0  0  0  0  0  0  0
  1 21  1  0  0  0  0
  1 22  1  0  0  0  0
  1 23  1  0  0  0  0
  1  2  1  0  0  0  0
  2 19  2  0  0  0  0
  2  3  1  0  0  0  0
  3  4  2  0  0  0  0
  3 24  1  0  0  0  0
  4 18  1  0  0  0  0
  4  5  1  0  0  0  0
  5  6  1  0  0  0  0
  5 25  1  0  0  0  0
  5 26  1  0  0  0  0
  6  7  2  0  0  0  0
  6  8  1  0  0  0  0
  8  9  1  0  0  0  0
  8 27  1  0  0  0  0
  9 10  1  0  0  0  0
  9 28  1  0  0  0  0
  9 29  1  0  0  0  0
 10 17  1  0  0  0  0
 10 11  1  0  0  0  0
 10 12  1  0  0  0  0
 11 30  1  0  0  0  0
 11 31  1  0  0  0  0
 11 32  1  0  0  0  0
 12 13  1  0  0  0  0
 12 33  1  0  0  0  0
 12 34  1  0  0  0  0
 13 14  1  0  0  0  0
 13 35  1  0  0  0  0
 13 36  1  0  0  0  0
 14 15  1  0  0  0  0
 14 37  1  0  0  0  0
 14 38  1  0  0  0  0
 15 16  1  0  0  0  0
 15 39  1  0  0  0  0
 15 40  1  0  0  0  0
 16 17  1  0  0  0  0
 16 41  1  0  0  0  0
 16 42  1  0  0  0  0
 17 43  1  0  0  0  0
 17 44  1  0  0  0  0
 18 19  1  0  0  0  0
 18 20  1  0  0  0  0
M  END
> <s_m_source_file>
AV-unprocessed.smi

> <i_m_source_file_index>
2548

> <i_lp_mmshare_version>
43012

> <i_f3d_flags>
0

> <s_epik_input>
W0NIM11jMVtjSF1jKG5bbkhdMSlbQ0gyXUMoPU8pW05IXVtDSDJdQzIoW0NIM10pW0NIMl1bQ0gyXVtDSDJdW0NIMl1bQ0gyXVtDSDJdMg==

> <s_epik_cmdline>
J2VwaWtfcHl0aG9uJywgJy1waCcsICc3LjAnLCAnLXRuJywgJzgnLCAnLW1hJywgJzIwMCcsICctbWV0YWxfYmluZGluZycsICctaW1hZScsICc8aW5maWxlLm1hZT4nLCAnLW9tYWUnLCAnPG91dGZpbGUubWFlPic=

> <r_lp_tautomer_probability>
0.5

> <r_epik_Ionization_Penalty>
0.000120089

> <r_epik_Ionization_Penalty_Charging>
0

> <r_epik_Ionization_Penalty_Neutral>
0.000120089

> <r_epik_State_Penalty>
0.41068

> <r_epik_Charging_Adjusted_Penalty>
0.41068

> <i_epik_Tot_Q>
0

> <i_epik_Tot_abs_Q>
0

> <r_epik_Metal_State_Penalty>
0.410662

> <b_epik_Metal_Only>
0

> <s_lp_Force_Field>
OPLS_2005

> <r_lp_Energy>
21.4694

> <b_lp_Chiralities_Consistent>
1

> <s_lp_Variant>
AV-unprocessed.smi:2548-2

> <Gold.Version>
5.8.1

> <Gold.Id.Protein>
6NUR|6NUR_protein|mol2

> <Gold.PLP.Fitness>
37.7930

> <Gold.PLP.PLP>
-34.6061

> <Gold.PLP.part.hbond>
-2.3689

> <Gold.PLP.part.metal>
0.0000

> <Gold.PLP.part.buried>
-1.0816

> <Gold.PLP.part.nonpolar>
-31.0198

> <Gold.PLP.part.repulsive>
0.5750

> <Gold.PLP.ligand.clash>
0.0000

> <Gold.PLP.ligand.torsion>
0.5364

> <Gold.PLP.Chemscore.Hbond>
1.4163

> <Gold.PLP.Chemscore.CHOScore>
0.0000

> <Gold.PLP.Chemscore.Metal>
0.0000

> <Gold.Chemscore.Hbonds>
donor molecule, donor type, donor heavy atom, donor atom, acceptor molecule, acceptor atom, score
      L1  H    18    20       P1  8028  0.30
      P1  H  6933  6944       L1     7  0.23
      P1  H  8011  8017       L1    19  0.05
      P1  H  8022  8030       L1    19  0.03

> <Gold.PLP.Chemscore.Internal.Correction>
0.0107

> <Gold.Rescore>
     Score         DG    S(hbond)    S(metal)    S(lipo)     H(rot)  DE(clash)    DE(int)     intcor
     16.74     -17.47       1.13        0.00     104.27       1.55       0.21       0.52       ----

> <Gold.Chemscore.Fitness>
16.7421

> <Gold.Chemscore.DG>
-17.4728

> <Gold.Chemscore.ZeroCoef>
-5.4800

> <Gold.Chemscore.Hbond>
1.1252

> <Gold.Chemscore.Metal>
0.0000

> <Gold.Chemscore.Lipo>
104.2733

> <Gold.Chemscore.Internal_Hbond>
0.0000

> <Gold.Chemscore.DEClash>
0.2104

> <Gold.Chemscore.DEInternal>
0.5203

> <Gold.Chemscore.Rot>
1.5489

> <Gold.Chemscore.Internal.Correction>
   9.000000E+99

> <Gold.Chemscore.Hbonds>
donor molecule, donor type, donor heavy atom, donor atom, acceptor molecule, acceptor atom, score
      L1  H    18    20       P1  8028  0.31
      P1  H  6933  6944       L1     7  0.23
      P1  H  8011  8017       L1    19  0.05

> <Gold.Chemscore.Hbond.Weighted>
-3.7580

> <Gold.Chemscore.Metal.Weighted>
-0.0000

> <Gold.Chemscore.Lipo.Weighted>
-12.2000

> <Gold.Chemscore.Internal_Hbond.Weighted>
0.0000

> <Gold.Chemscore.DEClash.Weighted>
0.2104

> <Gold.Chemscore.DEInternal.Weighted>
0.5203

> <Gold.Chemscore.Rot.Weighted>
3.9652

> <Gold.Chemscore.Internal.Correction.Weighted>
   9.000000E+99

> <Gold.Protein.RotatedTorsions>
[ 6907 6896 6895 6894 ] final  106.10 input  -60.11 | X-H torsion
[ 7974 7965 7964 7962 ] final  179.58 input  175.53 | X-H torsion
[ 8008 7997 7996 7995 ] final -172.47 input   59.86 | X-H torsion
[ 10167 10162 10161 10158 ] final -163.02 input  -65.29 | X-H torsion
[ 10718 10713 10712 10709 ] final   79.67 input   66.30 | X-H torsion
[ 10763 10752 10751 10750 ] final -126.47 input  -60.55 | X-H torsion
[ 11005 11000 10999 10996 ] final  149.11 input  -57.11 | X-H torsion

> <Gold.Protein.ActiveResidues>
 VAL166  LYS551  ARG553  GLY616  TRP617  ASP618  TYR619  PRO620  LYS621  CYS622 
 ASP623  PHE694  ASN695  SER759  ASP760  ASP761  ALA762  ILE779  LEU786  VAL792 
 PHE793  MET794  SER795  GLU796  ALA797  LYS798  CYS799  TRP800  GLU811  SER814 

> <Gold.Protein.RotatedAtoms>
  152.5206  133.9431  159.7635 H   0  0  0  0  0  0  0  0  0  0  0  0  # atno 6907 bound_to 6896
  150.9757  133.6289  159.2737 H   0  0  0  0  0  0  0  0  0  0  0  0  # atno 6908 bound_to 6896
  151.3484  135.0885  159.9448 H   0  0  0  0  0  0  0  0  0  0  0  0  # atno 6909 bound_to 6896
  144.7144  140.0570  143.6433 H   0  0  0  0  0  0  0  0  0  0  0  0  # atno 7974 bound_to 7965
  155.9450  140.1116  157.1024 H   0  0  0  0  0  0  0  0  0  0  0  0  # atno 8008 bound_to 7997
  154.4097  140.1211  156.5043 H   0  0  0  0  0  0  0  0  0  0  0  0  # atno 8009 bound_to 7997
  155.6914  140.3472  155.4897 H   0  0  0  0  0  0  0  0  0  0  0  0  # atno 8010 bound_to 7997
  139.6350  144.0367  152.2047 H   0  0  0  0  0  0  0  0  0  0  0  0  # atno 10167 bound_to 10162
  157.6784  130.9925  150.1967 H   0  0  0  0  0  0  0  0  0  0  0  0  # atno 10718 bound_to 10713
  154.8746  135.3994  154.3436 H   0  0  0  0  0  0  0  0  0  0  0  0  # atno 10763 bound_to 10752
  153.4232  135.7023  153.6285 H   0  0  0  0  0  0  0  0  0  0  0  0  # atno 10764 bound_to 10752
  153.4939  135.3742  155.2475 H   0  0  0  0  0  0  0  0  0  0  0  0  # atno 10765 bound_to 10752
  140.1016  134.8979  157.1805 H   0  0  0  0  0  0  0  0  0  0  0  0  # atno 11005 bound_to 11000
  145.9896  139.3004  143.0993 LP  0  0  0  0  0  0  0  0  0  0  0  0  # atno 17320 bound_to 7965
  145.8918  140.9299  143.0548 LP  0  0  0  0  0  0  0  0  0  0  0  0  # atno 17321 bound_to 7965
  140.0042  144.6271  150.7703 LP  0  0  0  0  0  0  0  0  0  0  0  0  # atno 17342 bound_to 10162
  140.7460  143.2884  151.3397 LP  0  0  0  0  0  0  0  0  0  0  0  0  # atno 17343 bound_to 10162
  156.2667  130.3717  149.8074 LP  0  0  0  0  0  0  0  0  0  0  0  0  # atno 17370 bound_to 10713
  156.5803  130.8463  151.3381 LP  0  0  0  0  0  0  0  0  0  0  0  0  # atno 17371 bound_to 10713
  140.3212  134.2915  155.7246 LP  0  0  0  0  0  0  0  0  0  0  0  0  # atno 17394 bound_to 11000
  141.2107  133.7711  156.9913 LP  0  0  0  0  0  0  0  0  0  0  0  0  # atno 17395 bound_to 11000

$$$$
