AV-unprocessed.smi:2919|AV-procd|sdf|11195|dock1
  -GOLD-   2272016 83D 1   1.00000     0.00000
 Structure written by MMmdl.
 34 36  0  0  0  0  0  0  0  0  1 V2000
  152.5798  142.8234  161.9848 C   0  0  0  0  0  0  0  0  0  0  0  0
  151.9983  142.6208  160.5968 C   0  0  0  0  0  0  0  0  0  0  0  0
  151.0229  143.4906  160.2545 N   0  0  0  0  0  0  0  0  0  0  0  0
  150.4358  143.4121  159.0594 N   0  0  0  0  0  0  0  0  0  0  0  0
  150.8033  142.4650  158.1627 C   0  0  0  0  0  0  0  0  0  0  0  0
  150.1379  142.4467  156.9228 N   0  0  0  0  0  0  0  0  0  0  0  0
  149.4991  141.2375  156.4136 C   0  0  1  0  0  0  0  0  0  0  0  0
  148.0416  141.4596  155.9880 C   0  0  0  0  0  0  0  0  0  0  0  0
  148.0609  140.9857  154.5295 C   0  0  2  0  0  0  0  0  0  0  0  0
  148.2610  139.4685  154.4126 C   0  0  0  0  0  0  0  0  0  0  0  0
  149.7378  139.3196  154.7772 C   0  0  0  0  0  0  0  0  0  0  0  0
  150.1333  140.7682  155.0933 C   0  0  1  0  0  0  0  0  0  0  0  0
  149.3394  141.4513  154.1363 O   0  0  0  0  0  0  0  0  0  0  0  0
  151.8190  141.5183  158.4562 C   0  0  0  0  0  0  0  0  0  0  0  0
  152.2114  140.4978  157.4861 C   0  0  0  0  0  0  0  0  0  0  0  0
  152.5221  139.6901  156.7181 N   0  0  0  0  0  0  0  0  0  0  0  0
  152.4447  141.5972  159.7260 C   0  0  0  0  0  0  0  0  0  0  0  0
  153.5484  140.6217  160.1274 C   0  0  0  0  0  0  0  0  0  0  0  0
  152.4229  141.9353  162.5972 H   0  0  0  0  0  0  0  0  0  0  0  0
  152.1125  143.6664  162.4954 H   0  0  0  0  0  0  0  0  0  0  0  0
  153.6499  143.0230  161.9250 H   0  0  0  0  0  0  0  0  0  0  0  0
  149.9351  143.3210  156.4596 H   0  0  0  0  0  0  0  0  0  0  0  0
  149.5821  140.4475  157.1611 H   0  0  0  0  0  0  0  0  0  0  0  0
  147.3355  140.8979  156.6002 H   0  0  0  0  0  0  0  0  0  0  0  0
  147.7641  142.5138  156.0353 H   0  0  0  0  0  0  0  0  0  0  0  0
  147.2378  141.3726  153.9285 H   0  0  0  0  0  0  0  0  0  0  0  0
  147.6013  138.9123  155.0795 H   0  0  0  0  0  0  0  0  0  0  0  0
  148.0833  139.1288  153.3917 H   0  0  0  0  0  0  0  0  0  0  0  0
  149.9016  138.6476  155.6204 H   0  0  0  0  0  0  0  0  0  0  0  0
  150.3051  138.9430  153.9254 H   0  0  0  0  0  0  0  0  0  0  0  0
  151.2050  140.9545  155.0123 H   0  0  0  0  0  0  0  0  0  0  0  0
  154.3934  140.7077  159.4435 H   0  0  0  0  0  0  0  0  0  0  0  0
  153.1789  139.5967  160.0854 H   0  0  0  0  0  0  0  0  0  0  0  0
  153.9271  140.7874  161.1343 H   0  0  0  0  0  0  0  0  0  0  0  0
  1  2  1  0  0  0  0
  1 19  1  0  0  0  0
  1 20  1  0  0  0  0
  1 21  1  0  0  0  0
  2 17  1  0  0  0  0
  2  3  2  0  0  0  0
  3  4  1  0  0  0  0
  4  5  2  0  0  0  0
  5  6  1  0  0  0  0
  5 14  1  0  0  0  0
  6  7  1  0  0  0  0
  6 22  1  0  0  0  0
  7 12  1  0  0  0  0
  7  8  1  0  0  0  0
  7 23  1  0  0  0  0
  8  9  1  0  0  0  0
  8 24  1  0  0  0  0
  8 25  1  0  0  0  0
  9 13  1  0  0  0  0
  9 10  1  0  0  0  0
  9 26  1  0  0  0  0
 10 11  1  0  0  0  0
 10 27  1  0  0  0  0
 10 28  1  0  0  0  0
 11 12  1  0  0  0  0
 11 29  1  0  0  0  0
 11 30  1  0  0  0  0
 12 13  1  0  0  0  0
 12 31  1  0  0  0  0
 14 15  1  0  0  0  0
 14 17  2  0  0  0  0
 15 16  3  0  0  0  0
 17 18  1  0  0  0  0
 18 32  1  0  0  0  0
 18 33  1  0  0  0  0
 18 34  1  0  0  0  0
M  END
> <s_m_source_file>
AV-unprocessed.smi

> <i_m_source_file_index>
2919

> <i_lp_mmshare_version>
43012

> <i_f3d_flags>
0

> <s_epik_input>
W0NIM11jMW5uYyhjKEMjTiljMVtDSDNdKVtOSF1bQ0BIXShbQ0gyXVtDQEBIXTIzKVtDQEBIXShPMylbQ0gyXVtDSDJdMg==

> <s_epik_cmdline>
J2VwaWtfcHl0aG9uJywgJy1waCcsICc3LjAnLCAnLXRuJywgJzgnLCAnLW1hJywgJzIwMCcsICctbWV0YWxfYmluZGluZycsICctaW1hZScsICc8aW5maWxlLm1hZT4nLCAnLW9tYWUnLCAnPG91dGZpbGUubWFlPic=

> <r_lp_tautomer_probability>
1

> <r_epik_Ionization_Penalty>
0.00143865

> <r_epik_Ionization_Penalty_Charging>
0

> <r_epik_Ionization_Penalty_Neutral>
0.00143865

> <r_epik_State_Penalty>
-0

> <r_epik_Charging_Adjusted_Penalty>
0

> <i_epik_Tot_Q>
0

> <i_epik_Tot_abs_Q>
0

> <r_epik_Metal_State_Penalty>
-0

> <b_epik_Metal_Only>
0

> <s_lp_Force_Field>
OPLS_2005

> <r_lp_Energy>
49.0135

> <b_lp_Chiralities_Consistent>
1

> <s_lp_Variant>
AV-unprocessed.smi:2919-4

> <Gold.Version>
5.8.1

> <Gold.Id.Protein>
6NUR|6NUR_protein|mol2

> <Gold.PLP.Fitness>
40.4334

> <Gold.PLP.PLP>
-33.2458

> <Gold.PLP.part.hbond>
-4.1752

> <Gold.PLP.part.metal>
0.0000

> <Gold.PLP.part.buried>
-2.5618

> <Gold.PLP.part.nonpolar>
-26.9663

> <Gold.PLP.part.repulsive>
0.4095

> <Gold.PLP.ligand.clash>
0.0000

> <Gold.PLP.ligand.torsion>
0.5202

> <Gold.PLP.Chemscore.Hbond>
2.7360

> <Gold.PLP.Chemscore.CHOScore>
0.0000

> <Gold.PLP.Chemscore.Metal>
0.0000

> <Gold.Chemscore.Hbonds>
donor molecule, donor type, donor heavy atom, donor atom, acceptor molecule, acceptor atom, score
      L1  H     6    22       P1  8028  1.00
      P1  H  7997  8008       L1    16  1.00
      P1  H  8011  8017       L1    13  0.57

> <Gold.PLP.Chemscore.Internal.Correction>
0.0200

> <Gold.Rescore>
     Score         DG    S(hbond)    S(metal)    S(lipo)     H(rot)  DE(clash)    DE(int)     intcor
     19.48     -21.56       2.61        0.00      84.70       1.00       0.57       1.51       ----

> <Gold.Chemscore.Fitness>
19.4829

> <Gold.Chemscore.DG>
-21.5612

> <Gold.Chemscore.ZeroCoef>
-5.4800

> <Gold.Chemscore.Hbond>
2.6141

> <Gold.Chemscore.Metal>
0.0000

> <Gold.Chemscore.Lipo>
84.7034

> <Gold.Chemscore.Internal_Hbond>
0.0000

> <Gold.Chemscore.DEClash>
0.5652

> <Gold.Chemscore.DEInternal>
1.5131

> <Gold.Chemscore.Rot>
1.0000

> <Gold.Chemscore.Internal.Correction>
   9.000000E+99

> <Gold.Chemscore.Hbonds>
donor molecule, donor type, donor heavy atom, donor atom, acceptor molecule, acceptor atom, score
      L1  H     6    22       P1  8028  0.99
      P1  H  7997  8008       L1    16  0.40
      P1  H  8011  8017       L1    13  0.54

> <Gold.Chemscore.Hbond.Weighted>
-8.7309

> <Gold.Chemscore.Metal.Weighted>
-0.0000

> <Gold.Chemscore.Lipo.Weighted>
-9.9103

> <Gold.Chemscore.Internal_Hbond.Weighted>
0.0000

> <Gold.Chemscore.DEClash.Weighted>
0.5652

> <Gold.Chemscore.DEInternal.Weighted>
1.5131

> <Gold.Chemscore.Rot.Weighted>
2.5600

> <Gold.Chemscore.Internal.Correction.Weighted>
   9.000000E+99

> <Gold.Protein.RotatedTorsions>
[ 6907 6896 6895 6894 ] final -179.51 input  -60.11 | X-H torsion
[ 7974 7965 7964 7962 ] final -145.72 input  175.53 | X-H torsion
[ 8008 7997 7996 7995 ] final  -42.39 input   59.86 | X-H torsion
[ 10167 10162 10161 10158 ] final   61.69 input  -65.29 | X-H torsion
[ 10718 10713 10712 10709 ] final  114.71 input   66.30 | X-H torsion
[ 10763 10752 10751 10750 ] final -174.90 input  -60.55 | X-H torsion
[ 11005 11000 10999 10996 ] final    5.91 input  -57.11 | X-H torsion

> <Gold.Protein.ActiveResidues>
 VAL166  LYS551  ARG553  GLY616  TRP617  ASP618  TYR619  PRO620  LYS621  CYS622 
 ASP623  PHE694  ASN695  SER759  ASP760  ASP761  ALA762  ILE779  LEU786  VAL792 
 PHE793  MET794  SER795  GLU796  ALA797  LYS798  CYS799  TRP800  GLU811  SER814 

> <Gold.Protein.RotatedAtoms>
  151.6546  133.3319  159.3159 H   0  0  0  0  0  0  0  0  0  0  0  0  # atno 6907 bound_to 6896
  150.7943  134.6995  159.6551 H   0  0  0  0  0  0  0  0  0  0  0  0  # atno 6908 bound_to 6896
  152.4028  134.6261  160.0115 H   0  0  0  0  0  0  0  0  0  0  0  0  # atno 6909 bound_to 6896
  144.8208  140.5547  143.5580 H   0  0  0  0  0  0  0  0  0  0  0  0  # atno 7974 bound_to 7965
  154.3999  140.1475  156.3346 H   0  0  0  0  0  0  0  0  0  0  0  0  # atno 8008 bound_to 7997
  155.8412  140.3462  155.5612 H   0  0  0  0  0  0  0  0  0  0  0  0  # atno 8009 bound_to 7997
  155.8085  140.0880  157.1907 H   0  0  0  0  0  0  0  0  0  0  0  0  # atno 8010 bound_to 7997
  140.1520  144.4453  150.6754 H   0  0  0  0  0  0  0  0  0  0  0  0  # atno 10167 bound_to 10162
  157.6265  131.1002  150.7224 H   0  0  0  0  0  0  0  0  0  0  0  0  # atno 10718 bound_to 10713
  154.5908  135.2845  155.0637 H   0  0  0  0  0  0  0  0  0  0  0  0  # atno 10763 bound_to 10752
  154.1938  135.6436  153.5071 H   0  0  0  0  0  0  0  0  0  0  0  0  # atno 10764 bound_to 10752
  153.0121  135.5452  154.6593 H   0  0  0  0  0  0  0  0  0  0  0  0  # atno 10765 bound_to 10752
  140.5654  134.0153  155.7987 H   0  0  0  0  0  0  0  0  0  0  0  0  # atno 11005 bound_to 11000
  145.5110  139.1479  143.3605 LP  0  0  0  0  0  0  0  0  0  0  0  0  # atno 17320 bound_to 7965
  146.2513  140.5250  142.8892 LP  0  0  0  0  0  0  0  0  0  0  0  0  # atno 17321 bound_to 7965
  140.6696  143.2281  151.5657 LP  0  0  0  0  0  0  0  0  0  0  0  0  # atno 17342 bound_to 10162
  139.5421  144.2619  152.1371 LP  0  0  0  0  0  0  0  0  0  0  0  0  # atno 17343 bound_to 10162
  156.7571  130.4787  149.5444 LP  0  0  0  0  0  0  0  0  0  0  0  0  # atno 17370 bound_to 10713
  156.1441  130.6265  151.0507 LP  0  0  0  0  0  0  0  0  0  0  0  0  # atno 17371 bound_to 10713
  141.1089  133.9648  157.2946 LP  0  0  0  0  0  0  0  0  0  0  0  0  # atno 17394 bound_to 11000
  139.9387  135.0193  156.8640 LP  0  0  0  0  0  0  0  0  0  0  0  0  # atno 17395 bound_to 11000

$$$$
