AV-unprocessed.smi:2670|AV-procd|sdf|10345|dock5
  -GOLD-   2272014373D 1   1.00000     0.00000
 Structure written by MMmdl.
 40 41  0  0  0  0  0  0  0  0  2 V2000
  153.9714  141.2025  160.9327 C   0  0  0  0  0  0  0  0  0  0  0  0
  153.1411  142.1026  160.0663 C   0  0  0  0  0  0  0  0  0  0  0  0
  152.7829  143.4605  160.2942 C   0  0  0  0  0  0  0  0  0  0  0  0
  152.0252  143.7975  159.2080 C   0  0  0  0  0  0  0  0  0  0  0  0
  151.3597  145.0922  158.8699 C   0  0  0  0  0  0  0  0  0  0  0  0
  151.9634  142.6752  158.3978 N   0  0  0  0  0  0  0  0  0  0  0  0
  151.2763  142.4886  157.1276 C   0  0  0  0  0  0  0  0  0  0  0  0
  150.8042  141.0440  156.9491 C   0  0  0  0  0  0  0  0  0  0  0  0
  150.2310  140.4773  157.8779 O   0  0  0  0  0  0  0  0  0  0  0  0
  151.0890  140.4901  155.7560 N   0  0  0  0  0  0  0  0  0  0  0  0
  150.8305  139.1559  155.1880 C   0  0  0  0  0  0  0  0  0  0  0  0
  152.1906  138.7038  154.5996 C   0  0  0  0  0  0  0  0  0  0  0  0
  152.2445  137.5927  154.0264 O   0  0  0  0  0  0  0  0  0  0  0  0
  153.1789  139.4529  154.7722 O   0  5  0  0  0  0  0  0  0  0  0  0
  150.2905  138.0717  156.1785 C   0  0  0  0  0  0  0  0  0  0  0  0
  148.8256  138.2840  156.6117 C   0  0  0  0  0  0  0  0  0  0  0  0
  147.8958  138.4280  155.4027 C   0  0  0  0  0  0  0  0  0  0  0  0
  148.3733  139.5636  154.4917 C   0  0  0  0  0  0  0  0  0  0  0  0
  149.8171  139.3251  154.0186 C   0  0  0  0  0  0  0  0  0  0  0  0
  152.6435  141.6373  158.9329 N   0  0  0  0  0  0  0  0  0  0  0  0
  154.3852  141.7454  161.7827 H   0  0  0  0  0  0  0  0  0  0  0  0
  154.8054  140.7775  160.3735 H   0  0  0  0  0  0  0  0  0  0  0  0
  153.3760  140.3777  161.3246 H   0  0  0  0  0  0  0  0  0  0  0  0
  153.0428  144.0929  161.1301 H   0  0  0  0  0  0  0  0  0  0  0  0
  151.2966  145.7376  159.7463 H   0  0  0  0  0  0  0  0  0  0  0  0
  150.3469  144.9329  158.4997 H   0  0  0  0  0  0  0  0  0  0  0  0
  151.9217  145.6258  158.1033 H   0  0  0  0  0  0  0  0  0  0  0  0
  150.4127  143.1536  157.0761 H   0  0  0  0  0  0  0  0  0  0  0  0
  151.9492  142.7832  156.3210 H   0  0  0  0  0  0  0  0  0  0  0  0
  151.5902  141.0959  155.1230 H   0  0  0  0  0  0  0  0  0  0  0  0
  150.3405  137.0970  155.6900 H   0  0  0  0  0  0  0  0  0  0  0  0
  150.9289  137.9747  157.0566 H   0  0  0  0  0  0  0  0  0  0  0  0
  148.5013  137.4457  157.2283 H   0  0  0  0  0  0  0  0  0  0  0  0
  148.7353  139.1707  157.2375 H   0  0  0  0  0  0  0  0  0  0  0  0
  147.8690  137.4920  154.8435 H   0  0  0  0  0  0  0  0  0  0  0  0
  146.8762  138.6208  155.7376 H   0  0  0  0  0  0  0  0  0  0  0  0
  147.7119  139.6474  153.6290 H   0  0  0  0  0  0  0  0  0  0  0  0
  148.3094  140.5142  155.0227 H   0  0  0  0  0  0  0  0  0  0  0  0
  150.1122  140.1501  153.3676 H   0  0  0  0  0  0  0  0  0  0  0  0
  149.8268  138.4318  153.3912 H   0  0  0  0  0  0  0  0  0  0  0  0
  1  2  1  0  0  0  0
  1 21  1  0  0  0  0
  1 22  1  0  0  0  0
  1 23  1  0  0  0  0
  2 20  2  0  0  0  0
  2  3  1  0  0  0  0
  3  4  2  0  0  0  0
  3 24  1  0  0  0  0
  4  5  1  0  0  0  0
  4  6  1  0  0  0  0
  5 25  1  0  0  0  0
  5 26  1  0  0  0  0
  5 27  1  0  0  0  0
  6  7  1  0  0  0  0
  6 20  1  0  0  0  0
  7  8  1  0  0  0  0
  7 28  1  0  0  0  0
  7 29  1  0  0  0  0
  8  9  2  0  0  0  0
  8 10  1  0  0  0  0
 10 11  1  0  0  0  0
 10 30  1  0  0  0  0
 11 19  1  0  0  0  0
 11 12  1  0  0  0  0
 11 15  1  0  0  0  0
 12 13  2  0  0  0  0
 12 14  1  0  0  0  0
 15 16  1  0  0  0  0
 15 31  1  0  0  0  0
 15 32  1  0  0  0  0
 16 17  1  0  0  0  0
 16 33  1  0  0  0  0
 16 34  1  0  0  0  0
 17 18  1  0  0  0  0
 17 35  1  0  0  0  0
 17 36  1  0  0  0  0
 18 19  1  0  0  0  0
 18 37  1  0  0  0  0
 18 38  1  0  0  0  0
 19 39  1  0  0  0  0
 19 40  1  0  0  0  0
M  CHG  1  14  -1
M  END
> <s_m_source_file>
AV-unprocessed.smi

> <i_m_source_file_index>
2670

> <i_lp_mmshare_version>
43012

> <i_f3d_flags>
0

> <s_epik_input>
W0NIM11jMVtjSF1jKFtDSDNdKW4objEpW0NIMl1DKD1PKVtOSF1DMihDKD1PKVtPSF0pW0NIMl1bQ0gyXVtDSDJdW0NIMl1bQ0gyXTI=

> <s_epik_cmdline>
J2VwaWtfcHl0aG9uJywgJy1waCcsICc3LjAnLCAnLXRuJywgJzgnLCAnLW1hJywgJzIwMCcsICctbWV0YWxfYmluZGluZycsICctaW1hZScsICc8aW5maWxlLm1hZT4nLCAnLW9tYWUnLCAnPG91dGZpbGUubWFlPic=

> <r_lp_tautomer_probability>
1

> <r_epik_Ionization_Penalty>
0.000789686

> <r_epik_Ionization_Penalty_Charging>
0.000323848

> <r_epik_Ionization_Penalty_Neutral>
0.000465838

> <r_epik_State_Penalty>
-0

> <r_epik_Charging_Adjusted_Penalty>
0.000323848

> <i_epik_Tot_Q>
-1

> <i_epik_Tot_abs_Q>
1

> <r_epik_Metal_State_Penalty>
-0

> <b_epik_Metal_Only>
0

> <s_lp_Force_Field>
OPLS_2005

> <r_lp_Energy>
8.13654

> <b_lp_Chiralities_Consistent>
1

> <s_lp_Variant>
AV-unprocessed.smi:2670-1

> <Gold.Version>
5.8.1

> <Gold.Id.Protein>
6NUR|6NUR_protein|mol2

> <Gold.PLP.Fitness>
49.2463

> <Gold.PLP.PLP>
-39.4489

> <Gold.PLP.part.hbond>
-2.7801

> <Gold.PLP.part.metal>
0.0000

> <Gold.PLP.part.buried>
-6.1966

> <Gold.PLP.part.nonpolar>
-31.5180

> <Gold.PLP.part.repulsive>
0.3113

> <Gold.PLP.ligand.clash>
0.0000

> <Gold.PLP.ligand.torsion>
0.6778

> <Gold.PLP.Chemscore.Hbond>
3.6960

> <Gold.PLP.Chemscore.CHOScore>
0.0000

> <Gold.PLP.Chemscore.Metal>
0.0000

> <Gold.Chemscore.Hbonds>
donor molecule, donor type, donor heavy atom, donor atom, acceptor molecule, acceptor atom, score
      P1  H  7997  8010       L1    14  2.00
      P1  H 10752 10763       L1    13  1.59

> <Gold.PLP.Chemscore.Internal.Correction>
0.0649

> <Gold.Rescore>
     Score         DG    S(hbond)    S(metal)    S(lipo)     H(rot)  DE(clash)    DE(int)     intcor
     13.04     -17.25       1.84        0.00      89.89       1.91       0.03       4.18       ----

> <Gold.Chemscore.Fitness>
13.0434

> <Gold.Chemscore.DG>
-17.2501

> <Gold.Chemscore.ZeroCoef>
-5.4800

> <Gold.Chemscore.Hbond>
1.8430

> <Gold.Chemscore.Metal>
0.0000

> <Gold.Chemscore.Lipo>
89.8870

> <Gold.Chemscore.Internal_Hbond>
0.0000

> <Gold.Chemscore.DEClash>
0.0251

> <Gold.Chemscore.DEInternal>
4.1817

> <Gold.Chemscore.Rot>
1.9149

> <Gold.Chemscore.Internal.Correction>
   9.000000E+99

> <Gold.Chemscore.Hbonds>
donor molecule, donor type, donor heavy atom, donor atom, acceptor molecule, acceptor atom, score
      P1  H  7997  8010       L1    14  1.00
      P1  H 10752 10763       L1    13  0.73

> <Gold.Chemscore.Hbond.Weighted>
-6.1556

> <Gold.Chemscore.Metal.Weighted>
-0.0000

> <Gold.Chemscore.Lipo.Weighted>
-10.5168

> <Gold.Chemscore.Internal_Hbond.Weighted>
0.0000

> <Gold.Chemscore.DEClash.Weighted>
0.0251

> <Gold.Chemscore.DEInternal.Weighted>
4.1817

> <Gold.Chemscore.Rot.Weighted>
4.9023

> <Gold.Chemscore.Internal.Correction.Weighted>
   9.000000E+99

> <Gold.Protein.RotatedTorsions>
[ 6907 6896 6895 6894 ] final -127.59 input  -60.11 | X-H torsion
[ 7974 7965 7964 7962 ] final -168.93 input  175.53 | X-H torsion
[ 8008 7997 7996 7995 ] final  117.52 input   59.86 | X-H torsion
[ 10167 10162 10161 10158 ] final -110.86 input  -65.29 | X-H torsion
[ 10718 10713 10712 10709 ] final -152.44 input   66.30 | X-H torsion
[ 10763 10752 10751 10750 ] final   31.56 input  -60.55 | X-H torsion
[ 11005 11000 10999 10996 ] final  162.41 input  -57.11 | X-H torsion

> <Gold.Protein.ActiveResidues>
 VAL166  LYS551  ARG553  GLY616  TRP617  ASP618  TYR619  PRO620  LYS621  CYS622 
 ASP623  PHE694  ASN695  SER759  ASP760  ASP761  ALA762  ILE779  LEU786  VAL792 
 PHE793  MET794  SER795  GLU796  ALA797  LYS798  CYS799  TRP800  GLU811  SER814 

> <Gold.Protein.RotatedAtoms>
  150.9089  133.7022  159.2859 H   0  0  0  0  0  0  0  0  0  0  0  0  # atno 6907 bound_to 6896
  151.4516  135.1029  159.9709 H   0  0  0  0  0  0  0  0  0  0  0  0  # atno 6908 bound_to 6896
  152.4919  133.8474  159.7239 H   0  0  0  0  0  0  0  0  0  0  0  0  # atno 6909 bound_to 6896
  144.7194  140.2297  143.6305 H   0  0  0  0  0  0  0  0  0  0  0  0  # atno 7974 bound_to 7965
  156.2498  140.2894  156.0691 H   0  0  0  0  0  0  0  0  0  0  0  0  # atno 8008 bound_to 7997
  155.1690  140.0401  157.2876 H   0  0  0  0  0  0  0  0  0  0  0  0  # atno 8009 bound_to 7997
  154.6339  140.2506  155.7408 H   0  0  0  0  0  0  0  0  0  0  0  0  # atno 8010 bound_to 7997
  140.1398  143.4289  152.1570 H   0  0  0  0  0  0  0  0  0  0  0  0  # atno 10167 bound_to 10162
  156.4725  130.8265  151.2494 H   0  0  0  0  0  0  0  0  0  0  0  0  # atno 10718 bound_to 10713
  153.0309  135.6436  154.1219 H   0  0  0  0  0  0  0  0  0  0  0  0  # atno 10763 bound_to 10752
  154.0941  135.2864  155.3267 H   0  0  0  0  0  0  0  0  0  0  0  0  # atno 10764 bound_to 10752
  154.6444  135.5448  153.7891 H   0  0  0  0  0  0  0  0  0  0  0  0  # atno 10765 bound_to 10752
  140.2255  134.8163  157.3264 H   0  0  0  0  0  0  0  0  0  0  0  0  # atno 11005 bound_to 11000
  145.8422  139.2135  143.1821 LP  0  0  0  0  0  0  0  0  0  0  0  0  # atno 17320 bound_to 7965
  146.0336  140.8234  142.9864 LP  0  0  0  0  0  0  0  0  0  0  0  0  # atno 17321 bound_to 7965
  139.5477  144.7312  151.4530 LP  0  0  0  0  0  0  0  0  0  0  0  0  # atno 17342 bound_to 10162
  140.6767  143.8174  150.7068 LP  0  0  0  0  0  0  0  0  0  0  0  0  # atno 17343 bound_to 10162
  157.7490  131.0071  150.3179 LP  0  0  0  0  0  0  0  0  0  0  0  0  # atno 17370 bound_to 10713
  156.3604  130.3846  149.7256 LP  0  0  0  0  0  0  0  0  0  0  0  0  # atno 17371 bound_to 10713
  140.1805  134.4496  155.7775 LP  0  0  0  0  0  0  0  0  0  0  0  0  # atno 17394 bound_to 11000
  141.2221  133.6981  156.7860 LP  0  0  0  0  0  0  0  0  0  0  0  0  # atno 17395 bound_to 11000

$$$$
