AV-unprocessed.smi:227|AV-procd|sdf|1740|dock7
  -GOLD-   2262020243D 1   1.00000     0.00000
 Structure written by MMmdl.
 54 58  0  0  0  0  0  0  0  0  1 V2000
  149.8436  138.3594  153.8883 O   0  0  0  0  0  0  0  0  0  0  0  0
  148.6629  138.6589  154.6032 C   0  0  0  0  0  0  0  0  0  0  0  0
  147.8124  139.7201  153.8593 C   0  0  1  0  0  0  0  0  0  0  0  0
  146.3024  139.3404  153.8992 C   0  0  0  0  0  0  0  0  0  0  0  0
  145.9665  138.1314  153.1596 N   0  0  0  0  0  0  0  0  0  0  0  0
  146.2430  137.8668  151.8374 C   0  0  0  0  0  0  0  0  0  0  0  0
  145.8321  136.7079  151.4033 N   0  0  0  0  0  0  0  0  0  0  0  0
  145.2373  136.1163  152.5111 C   0  0  0  0  0  0  0  0  0  0  0  0
  144.5813  134.8728  152.7459 C   0  0  0  0  0  0  0  0  0  0  0  0
  144.3789  133.9310  151.7851 N   0  0  0  0  0  0  0  0  0  0  0  0
  145.0899  133.9810  150.5166 C   0  0  2  0  0  0  0  0  0  0  0  0
  144.3734  132.8911  149.7008 C   0  0  0  0  0  0  0  0  0  0  0  0
  144.0488  131.8608  150.7953 C   0  0  0  0  0  0  0  0  0  0  0  0
  144.6739  132.5270  152.0345 C   0  0  1  0  0  0  0  0  0  0  0  0
  146.2157  132.4118  151.9278 C   0  0  2  0  0  0  0  0  0  0  0  0
  146.9595  132.6129  153.2627 C   0  0  0  0  0  0  0  0  0  0  0  0
  148.3541  132.5366  153.0584 O   0  0  0  0  0  0  0  0  0  0  0  0
  146.5110  133.4960  150.8713 C   0  0  0  0  0  0  0  0  0  0  0  0
  144.1519  134.6257  154.0119 N   0  0  0  0  0  0  0  0  0  0  0  0
  144.3202  135.5355  154.9749 C   0  0  0  0  0  0  0  0  0  0  0  0
  144.8864  136.7396  154.8930 N   0  0  0  0  0  0  0  0  0  0  0  0
  145.3356  136.9916  153.6307 C   0  0  0  0  0  0  0  0  0  0  0  0
  148.1030  141.1581  154.3933 C   0  0  1  0  0  0  0  0  0  0  0  0
  147.2767  142.2626  153.7383 C   0  0  0  0  0  0  0  0  0  0  0  0
  145.9730  142.2683  154.5361 C   0  0  0  0  0  0  0  0  0  0  0  0
  146.2847  141.6853  155.7957 O   0  0  0  0  0  0  0  0  0  0  0  0
  147.6745  141.3967  155.8491 C   0  0  0  0  0  0  0  0  0  0  0  0
  149.7728  137.4815  153.5453 H   0  0  0  0  0  0  0  0  0  0  0  0
  148.0950  137.7437  154.7705 H   0  0  0  0  0  0  0  0  0  0  0  0
  148.9835  139.0048  155.5827 H   0  0  0  0  0  0  0  0  0  0  0  0
  148.1128  139.6952  152.8108 H   0  0  0  0  0  0  0  0  0  0  0  0
  145.9561  139.2194  154.9245 H   0  0  0  0  0  0  0  0  0  0  0  0
  145.6973  140.1569  153.5045 H   0  0  0  0  0  0  0  0  0  0  0  0
  146.7580  138.5644  151.1941 H   0  0  0  0  0  0  0  0  0  0  0  0
  145.0748  134.9512  150.0187 H   0  0  0  0  0  0  0  0  0  0  0  0
  143.4566  133.2765  149.2528 H   0  0  0  0  0  0  0  0  0  0  0  0
  144.9975  132.4844  148.9042 H   0  0  0  0  0  0  0  0  0  0  0  0
  142.9692  131.7597  150.9152 H   0  0  0  0  0  0  0  0  0  0  0  0
  144.4584  130.8718  150.5864 H   0  0  0  0  0  0  0  0  0  0  0  0
  144.2718  132.1119  152.9570 H   0  0  0  0  0  0  0  0  0  0  0  0
  146.4791  131.4249  151.5435 H   0  0  0  0  0  0  0  0  0  0  0  0
  146.7258  133.5748  153.7174 H   0  0  0  0  0  0  0  0  0  0  0  0
  146.6712  131.8409  153.9767 H   0  0  0  0  0  0  0  0  0  0  0  0
  148.5132  132.1882  152.1944 H   0  0  0  0  0  0  0  0  0  0  0  0
  147.0501  133.1056  150.0075 H   0  0  0  0  0  0  0  0  0  0  0  0
  147.1036  134.3101  151.2906 H   0  0  0  0  0  0  0  0  0  0  0  0
  143.9433  135.2608  155.9490 H   0  0  0  0  0  0  0  0  0  0  0  0
  149.1660  141.3691  154.2735 H   0  0  0  0  0  0  0  0  0  0  0  0
  147.7850  143.2174  153.8814 H   0  0  0  0  0  0  0  0  0  0  0  0
  147.1072  142.1586  152.6690 H   0  0  0  0  0  0  0  0  0  0  0  0
  145.5748  143.2762  154.6562 H   0  0  0  0  0  0  0  0  0  0  0  0
  145.2126  141.6588  154.0471 H   0  0  0  0  0  0  0  0  0  0  0  0
  147.8780  140.5769  156.5339 H   0  0  0  0  0  0  0  0  0  0  0  0
  148.1892  142.2738  156.2452 H   0  0  0  0  0  0  0  0  0  0  0  0
  1  2  1  0  0  0  0
  1 28  1  0  0  0  0
  2  3  1  0  0  0  0
  2 29  1  0  0  0  0
  2 30  1  0  0  0  0
  3  4  1  0  0  0  0
  3 23  1  0  0  0  0
  3 31  1  0  0  0  0
  4  5  1  0  0  0  0
  4 32  1  0  0  0  0
  4 33  1  0  0  0  0
  5 22  1  0  0  0  0
  5  6  1  0  0  0  0
  6  7  2  0  0  0  0
  6 34  1  0  0  0  0
  7  8  1  0  0  0  0
  8 22  2  0  0  0  0
  8  9  1  0  0  0  0
  9 10  1  0  0  0  0
  9 19  2  0  0  0  0
 10 14  1  0  0  0  0
 10 11  1  0  0  0  0
 11 18  1  0  0  0  0
 11 12  1  0  0  0  0
 11 35  1  0  0  0  0
 12 13  1  0  0  0  0
 12 36  1  0  0  0  0
 12 37  1  0  0  0  0
 13 14  1  0  0  0  0
 13 38  1  0  0  0  0
 13 39  1  0  0  0  0
 14 15  1  0  0  0  0
 14 40  1  0  0  0  0
 15 16  1  0  0  0  0
 15 18  1  0  0  0  0
 15 41  1  0  0  0  0
 16 17  1  0  0  0  0
 16 42  1  0  0  0  0
 16 43  1  0  0  0  0
 17 44  1  0  0  0  0
 18 45  1  0  0  0  0
 18 46  1  0  0  0  0
 19 20  1  0  0  0  0
 20 21  2  0  0  0  0
 20 47  1  0  0  0  0
 21 22  1  0  0  0  0
 23 27  1  0  0  0  0
 23 24  1  0  0  0  0
 23 48  1  0  0  0  0
 24 25  1  0  0  0  0
 24 49  1  0  0  0  0
 24 50  1  0  0  0  0
 25 26  1  0  0  0  0
 25 51  1  0  0  0  0
 25 52  1  0  0  0  0
 26 27  1  0  0  0  0
 27 53  1  0  0  0  0
 27 54  1  0  0  0  0
M  END
> <s_m_source_file>
AV-unprocessed.smi

> <i_m_source_file_index>
227

> <i_lp_mmshare_version>
43012

> <i_f3d_flags>
0

> <s_epik_input>
W0NIMl0xT1tDSDJdW0NIMl1bQ0BIXTFbQ0BIXShbQ0gyXVtPSF0pW0NIMl1uKFtjSF1uMiljKGMyMyluW2NIXW5jM04oW0NASF00NSlbQ0BASF0oW0NIMl1bQ0gyXTQpW0NASF0oW0NIMl01KVtDSDJdW09IXQ==

> <s_epik_cmdline>
J2VwaWtfcHl0aG9uJywgJy1waCcsICc3LjAnLCAnLXRuJywgJzgnLCAnLW1hJywgJzIwMCcsICctbWV0YWxfYmluZGluZycsICctaW1hZScsICc8aW5maWxlLm1hZT4nLCAnLW9tYWUnLCAnPG91dGZpbGUubWFlPic=

> <r_lp_tautomer_probability>
1

> <r_epik_Ionization_Penalty>
0.0055791

> <r_epik_Ionization_Penalty_Charging>
0

> <r_epik_Ionization_Penalty_Neutral>
0.0055791

> <r_epik_State_Penalty>
0.00401299

> <r_epik_Charging_Adjusted_Penalty>
0.00401299

> <i_epik_Tot_Q>
0

> <i_epik_Tot_abs_Q>
0

> <r_epik_Metal_State_Penalty>
-0

> <b_epik_Metal_Only>
0

> <s_lp_Force_Field>
OPLS_2005

> <r_lp_Energy>
90.2099

> <b_lp_Chiralities_Consistent>
1

> <s_lp_Variant>
AV-unprocessed.smi:227-14

> <Gold.Version>
5.8.1

> <Gold.Id.Protein>
6NUR|6NUR_protein|mol2

> <Gold.PLP.Fitness>
44.8012

> <Gold.PLP.PLP>
-40.6588

> <Gold.PLP.part.hbond>
-3.0000

> <Gold.PLP.part.metal>
0.0000

> <Gold.PLP.part.buried>
-5.3603

> <Gold.PLP.part.nonpolar>
-32.2111

> <Gold.PLP.part.repulsive>
0.6380

> <Gold.PLP.ligand.clash>
0.0000

> <Gold.PLP.ligand.torsion>
0.9799

> <Gold.PLP.Chemscore.Hbond>
2.0000

> <Gold.PLP.Chemscore.CHOScore>
0.0000

> <Gold.PLP.Chemscore.Metal>
0.0000

> <Gold.Chemscore.Hbonds>
donor molecule, donor type, donor heavy atom, donor atom, acceptor molecule, acceptor atom, score
      L1  H     1    28       P1  7948  0.48
      L1  H    17    44       P1 10747  0.16

> <Gold.PLP.Chemscore.Internal.Correction>
0.1023

> <Gold.Rescore>
     Score         DG    S(hbond)    S(metal)    S(lipo)     H(rot)  DE(clash)    DE(int)     intcor
      8.96     -13.02       1.78        0.00      92.43       3.61       0.57       3.49       ----

> <Gold.Chemscore.Fitness>
8.9574

> <Gold.Chemscore.DG>
-13.0174

> <Gold.Chemscore.ZeroCoef>
-5.4800

> <Gold.Chemscore.Hbond>
1.7836

> <Gold.Chemscore.Metal>
0.0000

> <Gold.Chemscore.Lipo>
92.4306

> <Gold.Chemscore.Internal_Hbond>
0.0000

> <Gold.Chemscore.DEClash>
0.5653

> <Gold.Chemscore.DEInternal>
3.4946

> <Gold.Chemscore.Rot>
3.6071

> <Gold.Chemscore.Internal.Correction>
   9.000000E+99

> <Gold.Chemscore.Hbonds>
donor molecule, donor type, donor heavy atom, donor atom, acceptor molecule, acceptor atom, score
      L1  H     1    28       P1  7948  0.33
      L1  H    17    44       P1 10747  0.17

> <Gold.Chemscore.Hbond.Weighted>
-5.9572

> <Gold.Chemscore.Metal.Weighted>
-0.0000

> <Gold.Chemscore.Lipo.Weighted>
-10.8144

> <Gold.Chemscore.Internal_Hbond.Weighted>
0.0000

> <Gold.Chemscore.DEClash.Weighted>
0.5653

> <Gold.Chemscore.DEInternal.Weighted>
3.4946

> <Gold.Chemscore.Rot.Weighted>
9.2342

> <Gold.Chemscore.Internal.Correction.Weighted>
   9.000000E+99

> <Gold.Protein.RotatedTorsions>
[ 6907 6896 6895 6894 ] final  113.36 input  -60.11 | X-H torsion
[ 7974 7965 7964 7962 ] final -126.19 input  175.53 | X-H torsion
[ 8008 7997 7996 7995 ] final  -93.52 input   59.86 | X-H torsion
[ 10167 10162 10161 10158 ] final  -45.40 input  -65.29 | X-H torsion
[ 10718 10713 10712 10709 ] final -129.40 input   66.30 | X-H torsion
[ 10763 10752 10751 10750 ] final -127.34 input  -60.55 | X-H torsion
[ 11005 11000 10999 10996 ] final  -49.23 input  -57.11 | X-H torsion

> <Gold.Protein.ActiveResidues>
 VAL166  LYS551  ARG553  GLY616  TRP617  ASP618  TYR619  PRO620  LYS621  CYS622 
 ASP623  PHE694  ASN695  SER759  ASP760  ASP761  ALA762  ILE779  LEU786  VAL792 
 PHE793  MET794  SER795  GLU796  ALA797  LYS798  CYS799  TRP800  GLU811  SER814 

> <Gold.Protein.RotatedAtoms>
  152.4865  133.8386  159.7140 H   0  0  0  0  0  0  0  0  0  0  0  0  # atno 6907 bound_to 6896
  150.8956  133.7176  159.2899 H   0  0  0  0  0  0  0  0  0  0  0  0  # atno 6908 bound_to 6896
  151.4635  135.1044  159.9783 H   0  0  0  0  0  0  0  0  0  0  0  0  # atno 6909 bound_to 6896
  144.9898  140.7720  143.4561 H   0  0  0  0  0  0  0  0  0  0  0  0  # atno 7974 bound_to 7965
  154.7367  140.0498  157.0775 H   0  0  0  0  0  0  0  0  0  0  0  0  # atno 8008 bound_to 7997
  155.0232  140.3149  155.4766 H   0  0  0  0  0  0  0  0  0  0  0  0  # atno 8009 bound_to 7997
  156.2854  140.2163  156.5350 H   0  0  0  0  0  0  0  0  0  0  0  0  # atno 8010 bound_to 7997
  140.6859  143.2881  151.3634 H   0  0  0  0  0  0  0  0  0  0  0  0  # atno 10167 bound_to 10162
  156.2043  130.6877  151.0576 H   0  0  0  0  0  0  0  0  0  0  0  0  # atno 10718 bound_to 10713
  154.8752  135.3965  154.3578 H   0  0  0  0  0  0  0  0  0  0  0  0  # atno 10763 bound_to 10752
  153.4355  135.7026  153.6208 H   0  0  0  0  0  0  0  0  0  0  0  0  # atno 10764 bound_to 10752
  153.4812  135.3769  155.2412 H   0  0  0  0  0  0  0  0  0  0  0  0  # atno 10765 bound_to 10752
  141.0747  133.6669  156.3556 H   0  0  0  0  0  0  0  0  0  0  0  0  # atno 11005 bound_to 11000
  145.2302  139.2118  143.5047 LP  0  0  0  0  0  0  0  0  0  0  0  0  # atno 17320 bound_to 7965
  146.3428  140.2178  142.8591 LP  0  0  0  0  0  0  0  0  0  0  0  0  # atno 17321 bound_to 7965
  139.6218  144.0893  152.2398 LP  0  0  0  0  0  0  0  0  0  0  0  0  # atno 17342 bound_to 10162
  140.0339  144.6059  150.7465 LP  0  0  0  0  0  0  0  0  0  0  0  0  # atno 17343 bound_to 10162
  157.7003  131.0778  150.6840 LP  0  0  0  0  0  0  0  0  0  0  0  0  # atno 17370 bound_to 10713
  156.6898  130.4592  149.5603 LP  0  0  0  0  0  0  0  0  0  0  0  0  # atno 17371 bound_to 10713
  140.5598  134.5945  157.5430 LP  0  0  0  0  0  0  0  0  0  0  0  0  # atno 17394 bound_to 11000
  139.9560  134.7535  156.0342 LP  0  0  0  0  0  0  0  0  0  0  0  0  # atno 17395 bound_to 11000

$$$$
