AV-unprocessed.smi:2359|AV-procd|sdf|9408|dock10
  -GOLD-   2272013 43D 1   1.00000     0.00000
 Structure written by MMmdl.
 40 41  0  0  0  0  0  0  0  0  1 V2000
  151.0890  141.8337  156.8538 C   0  0  0  0  0  0  0  0  0  0  0  0
  150.3351  140.9270  155.9038 C   0  0  0  0  0  0  0  0  0  0  0  0
  150.9274  139.7498  155.4103 C   0  0  0  0  0  0  0  0  0  0  0  0
  150.1892  138.9358  154.5300 C   0  0  0  0  0  0  0  0  0  0  0  0
  148.8781  139.3160  154.1648 C   0  0  0  0  0  0  0  0  0  0  0  0
  148.2219  138.4285  153.2708 N   0  0  0  0  0  0  0  0  0  0  0  0
  146.9385  138.4503  152.8697 C   0  0  0  0  0  0  0  0  0  0  0  0
  146.0897  139.2645  153.2351 O   0  0  0  0  0  0  0  0  0  0  0  0
  146.6835  137.4576  152.0066 N   0  0  0  0  0  0  0  0  0  0  0  0
  145.3843  137.2134  151.3950 C   0  0  0  0  0  0  0  0  0  0  0  0
  144.7114  135.9860  152.0265 C   0  0  0  0  0  0  0  0  0  0  0  0
  144.6592  134.7788  151.0768 C   0  0  1  0  0  0  0  0  0  0  0  0
  146.0320  134.0913  150.9406 C   0  0  0  0  0  0  0  0  0  0  0  0
  145.9268  132.8509  150.0462 C   0  0  0  0  0  0  0  0  0  0  0  0
  144.8142  131.9333  150.5637 C   0  0  0  0  0  0  0  0  0  0  0  0
  143.5056  132.7219  150.7312 C   0  0  0  0  0  0  0  0  0  0  0  0
  143.7183  133.8377  151.5905 O   0  0  0  0  0  0  0  0  0  0  0  0
  148.3154  140.4521  154.6467 N   0  0  0  0  0  0  0  0  0  0  0  0
  149.0234  141.2317  155.4905 C   0  0  0  0  0  0  0  0  0  0  0  0
  152.0832  142.0517  156.4632 H   0  0  0  0  0  0  0  0  0  0  0  0
  151.1984  141.3528  157.8259 H   0  0  0  0  0  0  0  0  0  0  0  0
  150.5652  142.7793  156.9962 H   0  0  0  0  0  0  0  0  0  0  0  0
  151.9306  139.4730  155.6998 H   0  0  0  0  0  0  0  0  0  0  0  0
  150.6294  138.0287  154.1419 H   0  0  0  0  0  0  0  0  0  0  0  0
  148.7978  137.6929  152.8895 H   0  0  0  0  0  0  0  0  0  0  0  0
  147.4340  136.8302  151.7572 H   0  0  0  0  0  0  0  0  0  0  0  0
  144.7575  138.0970  151.5231 H   0  0  0  0  0  0  0  0  0  0  0  0
  145.5105  137.0595  150.3221 H   0  0  0  0  0  0  0  0  0  0  0  0
  145.2592  135.7078  152.9278 H   0  0  0  0  0  0  0  0  0  0  0  0
  143.7008  136.2423  152.3476 H   0  0  0  0  0  0  0  0  0  0  0  0
  144.3273  135.1193  150.0942 H   0  0  0  0  0  0  0  0  0  0  0  0
  146.7650  134.7853  150.5283 H   0  0  0  0  0  0  0  0  0  0  0  0
  146.3975  133.7996  151.9261 H   0  0  0  0  0  0  0  0  0  0  0  0
  145.7065  133.1541  149.0218 H   0  0  0  0  0  0  0  0  0  0  0  0
  146.8780  132.3188  150.0189 H   0  0  0  0  0  0  0  0  0  0  0  0
  144.6666  131.0960  149.8810 H   0  0  0  0  0  0  0  0  0  0  0  0
  145.1075  131.5074  151.5240 H   0  0  0  0  0  0  0  0  0  0  0  0
  143.1275  133.0600  149.7652 H   0  0  0  0  0  0  0  0  0  0  0  0
  142.7372  132.0839  151.1676 H   0  0  0  0  0  0  0  0  0  0  0  0
  148.5261  142.1230  155.8437 H   0  0  0  0  0  0  0  0  0  0  0  0
  1  2  1  0  0  0  0
  1 20  1  0  0  0  0
  1 21  1  0  0  0  0
  1 22  1  0  0  0  0
  2 19  1  0  0  0  0
  2  3  2  0  0  0  0
  3  4  1  0  0  0  0
  3 23  1  0  0  0  0
  4  5  2  0  0  0  0
  4 24  1  0  0  0  0
  5  6  1  0  0  0  0
  5 18  1  0  0  0  0
  6  7  1  0  0  0  0
  6 25  1  0  0  0  0
  7  8  2  0  0  0  0
  7  9  1  0  0  0  0
  9 10  1  0  0  0  0
  9 26  1  0  0  0  0
 10 11  1  0  0  0  0
 10 27  1  0  0  0  0
 10 28  1  0  0  0  0
 11 12  1  0  0  0  0
 11 29  1  0  0  0  0
 11 30  1  0  0  0  0
 12 17  1  0  0  0  0
 12 13  1  0  0  0  0
 12 31  1  0  0  0  0
 13 14  1  0  0  0  0
 13 32  1  0  0  0  0
 13 33  1  0  0  0  0
 14 15  1  0  0  0  0
 14 34  1  0  0  0  0
 14 35  1  0  0  0  0
 15 16  1  0  0  0  0
 15 36  1  0  0  0  0
 15 37  1  0  0  0  0
 16 17  1  0  0  0  0
 16 38  1  0  0  0  0
 16 39  1  0  0  0  0
 18 19  2  0  0  0  0
 19 40  1  0  0  0  0
M  END
> <s_m_source_file>
AV-unprocessed.smi

> <i_m_source_file_index>
2359

> <i_lp_mmshare_version>
43012

> <i_f3d_flags>
0

> <s_epik_input>
W0NIM11jMVtjSF1bY0hdYyhuW2NIXTEpW05IXUMoPU8pW05IXVtDSDJdW0NIMl1bQ0BASF0yW0NIMl1bQ0gyXVtDSDJdW0NIMl1PMg==

> <s_epik_cmdline>
J2VwaWtfcHl0aG9uJywgJy1waCcsICc3LjAnLCAnLXRuJywgJzgnLCAnLW1hJywgJzIwMCcsICctbWV0YWxfYmluZGluZycsICctaW1hZScsICc8aW5maWxlLm1hZT4nLCAnLW9tYWUnLCAnPG91dGZpbGUubWFlPic=

> <r_lp_tautomer_probability>
1

> <r_epik_Ionization_Penalty>
5.73679e-05

> <r_epik_Ionization_Penalty_Charging>
0

> <r_epik_Ionization_Penalty_Neutral>
5.73679e-05

> <r_epik_State_Penalty>
-0

> <r_epik_Charging_Adjusted_Penalty>
0

> <i_epik_Tot_Q>
0

> <i_epik_Tot_abs_Q>
0

> <r_epik_Metal_State_Penalty>
-0

> <b_epik_Metal_Only>
0

> <s_lp_Force_Field>
OPLS_2005

> <r_lp_Energy>
11.4199

> <b_lp_Chiralities_Consistent>
1

> <s_lp_Variant>
AV-unprocessed.smi:2359-2

> <Gold.Version>
5.8.1

> <Gold.Id.Protein>
6NUR|6NUR_protein|mol2

> <Gold.PLP.Fitness>
42.2503

> <Gold.PLP.PLP>
-34.6123

> <Gold.PLP.part.hbond>
-2.8170

> <Gold.PLP.part.metal>
0.0000

> <Gold.PLP.part.buried>
-0.1491

> <Gold.PLP.part.nonpolar>
-34.8539

> <Gold.PLP.part.repulsive>
2.8378

> <Gold.PLP.ligand.clash>
0.0000

> <Gold.PLP.ligand.torsion>
0.5629

> <Gold.PLP.Chemscore.Hbond>
1.9190

> <Gold.PLP.Chemscore.CHOScore>
1.0000

> <Gold.PLP.Chemscore.Metal>
0.0000

> <Gold.Chemscore.Hbonds>
donor molecule, donor type, donor heavy atom, donor atom, acceptor molecule, acceptor atom, score
      L1  H     6    25       P1  7948  1.00
      L1  H     9    26       P1  7948  1.00
      L1  C    19    40       P1  8028  0.78

> <Gold.PLP.Chemscore.Internal.Correction>
0.0068

> <Gold.Rescore>
     Score         DG    S(hbond)    S(metal)    S(lipo)     H(rot)  DE(clash)    DE(int)     intcor
     13.85     -17.52       1.83        0.00      81.84       1.42       1.68       1.99       ----

> <Gold.Chemscore.Fitness>
13.8510

> <Gold.Chemscore.DG>
-17.5163

> <Gold.Chemscore.ZeroCoef>
-5.4800

> <Gold.Chemscore.Hbond>
1.8289

> <Gold.Chemscore.Metal>
0.0000

> <Gold.Chemscore.Lipo>
81.8424

> <Gold.Chemscore.Internal_Hbond>
0.0000

> <Gold.Chemscore.DEClash>
1.6762

> <Gold.Chemscore.DEInternal>
1.9891

> <Gold.Chemscore.Rot>
1.4248

> <Gold.Chemscore.Internal.Correction>
   9.000000E+99

> <Gold.Chemscore.Hbonds>
donor molecule, donor type, donor heavy atom, donor atom, acceptor molecule, acceptor atom, score
      L1  H     6    25       P1  7948  0.94
      L1  H     9    26       P1  7948  0.97

> <Gold.Chemscore.Hbond.Weighted>
-6.1084

> <Gold.Chemscore.Metal.Weighted>
-0.0000

> <Gold.Chemscore.Lipo.Weighted>
-9.5756

> <Gold.Chemscore.Internal_Hbond.Weighted>
0.0000

> <Gold.Chemscore.DEClash.Weighted>
1.6762

> <Gold.Chemscore.DEInternal.Weighted>
1.9891

> <Gold.Chemscore.Rot.Weighted>
3.6476

> <Gold.Chemscore.Internal.Correction.Weighted>
   9.000000E+99

> <Gold.Protein.RotatedTorsions>
[ 6907 6896 6895 6894 ] final  -57.85 input  -60.11 | X-H torsion
[ 7974 7965 7964 7962 ] final   35.21 input  175.53 | X-H torsion
[ 8008 7997 7996 7995 ] final  -59.87 input   59.86 | X-H torsion
[ 10167 10162 10161 10158 ] final  -32.25 input  -65.29 | X-H torsion
[ 10718 10713 10712 10709 ] final  166.66 input   66.30 | X-H torsion
[ 10763 10752 10751 10750 ] final -153.77 input  -60.55 | X-H torsion
[ 11005 11000 10999 10996 ] final  152.57 input  -57.11 | X-H torsion

> <Gold.Protein.ActiveResidues>
 VAL166  LYS551  ARG553  GLY616  TRP617  ASP618  TYR619  PRO620  LYS621  CYS622 
 ASP623  PHE694  ASN695  SER759  ASP760  ASP761  ALA762  ILE779  LEU786  VAL792 
 PHE793  MET794  SER795  GLU796  ALA797  LYS798  CYS799  TRP800  GLU811  SER814 

> <Gold.Protein.RotatedAtoms>
  150.8053  134.7174  159.6637 H   0  0  0  0  0  0  0  0  0  0  0  0  # atno 6907 bound_to 6896
  152.4172  134.6017  160.0011 H   0  0  0  0  0  0  0  0  0  0  0  0  # atno 6908 bound_to 6896
  151.6243  133.3299  159.3131 H   0  0  0  0  0  0  0  0  0  0  0  0  # atno 6909 bound_to 6896
  146.1299  139.6172  142.9233 H   0  0  0  0  0  0  0  0  0  0  0  0  # atno 7974 bound_to 7965
  154.4372  140.1052  156.6184 H   0  0  0  0  0  0  0  0  0  0  0  0  # atno 8008 bound_to 7997
  155.5734  140.3489  155.4502 H   0  0  0  0  0  0  0  0  0  0  0  0  # atno 8009 bound_to 7997
  156.0372  140.1274  157.0184 H   0  0  0  0  0  0  0  0  0  0  0  0  # atno 8010 bound_to 7997
  140.7224  143.3709  151.1780 H   0  0  0  0  0  0  0  0  0  0  0  0  # atno 10167 bound_to 10162
  157.0627  131.0344  151.2641 H   0  0  0  0  0  0  0  0  0  0  0  0  # atno 10718 bound_to 10713
  154.7904  135.3205  154.7789 H   0  0  0  0  0  0  0  0  0  0  0  0  # atno 10763 bound_to 10752
  153.8479  135.6865  153.4800 H   0  0  0  0  0  0  0  0  0  0  0  0  # atno 10764 bound_to 10752
  153.1573  135.4675  154.9662 H   0  0  0  0  0  0  0  0  0  0  0  0  # atno 10765 bound_to 10752
  140.1320  134.8796  157.2216 H   0  0  0  0  0  0  0  0  0  0  0  0  # atno 11005 bound_to 11000
  145.5283  141.0428  143.2397 LP  0  0  0  0  0  0  0  0  0  0  0  0  # atno 17320 bound_to 7965
  144.7680  139.6800  143.7207 LP  0  0  0  0  0  0  0  0  0  0  0  0  # atno 17321 bound_to 7965
  139.7280  143.9117  152.3009 LP  0  0  0  0  0  0  0  0  0  0  0  0  # atno 17342 bound_to 10162
  139.8897  144.6972  150.8784 LP  0  0  0  0  0  0  0  0  0  0  0  0  # atno 17343 bound_to 10162
  157.4941  130.7840  149.7538 LP  0  0  0  0  0  0  0  0  0  0  0  0  # atno 17370 bound_to 10713
  155.9973  130.3900  150.2744 LP  0  0  0  0  0  0  0  0  0  0  0  0  # atno 17371 bound_to 10713
  140.2830  134.3328  155.7337 LP  0  0  0  0  0  0  0  0  0  0  0  0  # atno 17394 bound_to 11000
  141.2172  133.7490  156.9392 LP  0  0  0  0  0  0  0  0  0  0  0  0  # atno 17395 bound_to 11000

$$$$
