AV-unprocessed.smi:438|AV-procd|sdf|2569|dock6
  -GOLD-   2262022543D 1   1.00000     0.00000
 Structure written by MMmdl.
 48 49  0  0  0  0  0  0  0  0  1 V2000
  145.6120  138.4627  155.2859 C   0  0  0  0  0  0  0  0  0  0  0  0
  147.1108  138.6527  155.4408 C   0  0  0  0  0  0  0  0  0  0  0  0
  147.6094  138.2868  156.6783 N   0  0  0  0  0  0  0  0  0  0  0  0
  148.9656  138.4338  156.9264 C   0  0  0  0  0  0  0  0  0  0  0  0
  149.3514  137.9016  158.6196 S   0  0  0  0  0  0  0  0  0  0  0  0
  148.0316  136.6942  158.9305 C   0  0  0  0  0  0  0  0  0  0  0  0
  147.8575  136.4049  160.4175 C   0  0  0  0  0  0  0  0  0  0  0  0
  148.6212  136.9089  161.2404 O   0  0  0  0  0  0  0  0  0  0  0  0
  146.8456  135.5872  160.7446 N   0  0  0  0  0  0  0  0  0  0  0  0
  146.4824  135.1737  162.0994 C   0  0  2  0  0  0  0  0  0  0  0  0
  146.6542  133.6492  162.2735 C   0  0  0  0  0  0  0  0  0  0  0  0
  145.6133  132.8533  161.4678 C   0  0  0  0  0  0  0  0  0  0  0  0
  144.1844  133.2912  161.8225 C   0  0  0  0  0  0  0  0  0  0  0  0
  143.9991  134.8055  161.6339 C   0  0  0  0  0  0  0  0  0  0  0  0
  145.0368  135.6109  162.4438 C   0  0  2  0  0  0  0  0  0  0  0  0
  144.8188  137.1265  162.2917 C   0  0  0  0  0  0  0  0  0  0  0  0
  149.8125  138.8888  156.0511 N   0  0  0  0  0  0  0  0  0  0  0  0
  149.3701  139.2618  154.7734 C   0  0  0  0  0  0  0  0  0  0  0  0
  150.1690  139.6746  153.9338 O   0  0  0  0  0  0  0  0  0  0  0  0
  147.9264  139.1438  154.4758 C   0  0  0  0  0  0  0  0  0  0  0  0
  147.4333  139.5574  153.0891 C   0  0  0  0  0  0  0  0  0  0  0  0
  146.7000  138.4302  152.3413 C   0  0  0  0  0  0  0  0  0  0  0  0
  146.7669  138.6271  150.9446 O   0  0  0  0  0  0  0  0  0  0  0  0
  145.1337  139.4060  155.0208 H   0  0  0  0  0  0  0  0  0  0  0  0
  145.1534  138.1033  156.2079 H   0  0  0  0  0  0  0  0  0  0  0  0
  145.3997  137.7350  154.5022 H   0  0  0  0  0  0  0  0  0  0  0  0
  148.2589  135.7683  158.4009 H   0  0  0  0  0  0  0  0  0  0  0  0
  147.0908  137.0723  158.5279 H   0  0  0  0  0  0  0  0  0  0  0  0
  146.2756  135.2230  159.9950 H   0  0  0  0  0  0  0  0  0  0  0  0
  147.1559  135.6744  162.7976 H   0  0  0  0  0  0  0  0  0  0  0  0
  147.6610  133.3427  161.9875 H   0  0  0  0  0  0  0  0  0  0  0  0
  146.5535  133.3978  163.3300 H   0  0  0  0  0  0  0  0  0  0  0  0
  145.7858  132.9932  160.3998 H   0  0  0  0  0  0  0  0  0  0  0  0
  145.7326  131.7867  161.6602 H   0  0  0  0  0  0  0  0  0  0  0  0
  143.4662  132.7498  161.2064 H   0  0  0  0  0  0  0  0  0  0  0  0
  143.9671  133.0233  162.8571 H   0  0  0  0  0  0  0  0  0  0  0  0
  144.0784  135.0533  160.5745 H   0  0  0  0  0  0  0  0  0  0  0  0
  142.9903  135.0870  161.9379 H   0  0  0  0  0  0  0  0  0  0  0  0
  144.8749  135.3762  163.4969 H   0  0  0  0  0  0  0  0  0  0  0  0
  144.9102  137.4475  161.2537 H   0  0  0  0  0  0  0  0  0  0  0  0
  145.5456  137.6877  162.8794 H   0  0  0  0  0  0  0  0  0  0  0  0
  143.8255  137.4138  162.6375 H   0  0  0  0  0  0  0  0  0  0  0  0
  146.9611  137.9324  157.3667 H   0  0  0  0  0  0  0  0  0  0  0  0
  148.2588  139.9185  152.4767 H   0  0  0  0  0  0  0  0  0  0  0  0
  146.7670  140.4142  153.1976 H   0  0  0  0  0  0  0  0  0  0  0  0
  147.1209  137.4549  152.5861 H   0  0  0  0  0  0  0  0  0  0  0  0
  145.6513  138.4073  152.6382 H   0  0  0  0  0  0  0  0  0  0  0  0
  145.8887  138.6044  150.5960 H   0  0  0  0  0  0  0  0  0  0  0  0
  1 24  1  0  0  0  0
  1 25  1  0  0  0  0
  1 26  1  0  0  0  0
  1  2  1  0  0  0  0
  2 20  2  0  0  0  0
  2  3  1  0  0  0  0
  3  4  1  0  0  0  0
  3 43  1  0  0  0  0
  4  5  1  0  0  0  0
  4 17  2  0  0  0  0
  5  6  1  0  0  0  0
  6  7  1  0  0  0  0
  6 27  1  0  0  0  0
  6 28  1  0  0  0  0
  7  8  2  0  0  0  0
  7  9  1  0  0  0  0
  9 10  1  0  0  0  0
  9 29  1  0  0  0  0
 10 15  1  0  0  0  0
 10 11  1  0  0  0  0
 10 30  1  0  0  0  0
 11 12  1  0  0  0  0
 11 31  1  0  0  0  0
 11 32  1  0  0  0  0
 12 13  1  0  0  0  0
 12 33  1  0  0  0  0
 12 34  1  0  0  0  0
 13 14  1  0  0  0  0
 13 35  1  0  0  0  0
 13 36  1  0  0  0  0
 14 15  1  0  0  0  0
 14 37  1  0  0  0  0
 14 38  1  0  0  0  0
 15 16  1  0  0  0  0
 15 39  1  0  0  0  0
 16 40  1  0  0  0  0
 16 41  1  0  0  0  0
 16 42  1  0  0  0  0
 17 18  1  0  0  0  0
 18 19  2  0  0  0  0
 18 20  1  0  0  0  0
 20 21  1  0  0  0  0
 21 22  1  0  0  0  0
 21 44  1  0  0  0  0
 21 45  1  0  0  0  0
 22 23  1  0  0  0  0
 22 46  1  0  0  0  0
 22 47  1  0  0  0  0
 23 48  1  0  0  0  0
M  END
> <s_m_source_file>
AV-unprocessed.smi

> <i_m_source_file_index>
438

> <i_lp_mmshare_version>
43012

> <i_f3d_flags>
0

> <s_epik_input>
W09IXVtDSDJdW0NIMl1jMWMoW09IXSluYyhuYzFbQ0gzXSlTW0NIMl1DKD1PKVtOSF1bQ0BASF0yW0NIMl1bQ0gyXVtDSDJdW0NIMl1bQ0BIXTJbQ0gzXQ==

> <s_epik_cmdline>
J2VwaWtfcHl0aG9uJywgJy1waCcsICc3LjAnLCAnLXRuJywgJzgnLCAnLW1hJywgJzIwMCcsICctbWV0YWxfYmluZGluZycsICctaW1hZScsICc8aW5maWxlLm1hZT4nLCAnLW9tYWUnLCAnPG91dGZpbGUubWFlPic=

> <r_lp_tautomer_probability>
0.273662

> <r_epik_Ionization_Penalty>
0.0875285

> <r_epik_Ionization_Penalty_Charging>
0.0875254

> <r_epik_Ionization_Penalty_Neutral>
3.01536e-06

> <r_epik_State_Penalty>
0.985796

> <r_epik_Charging_Adjusted_Penalty>
1.07332

> <i_epik_Tot_Q>
0

> <i_epik_Tot_abs_Q>
0

> <r_epik_Metal_State_Penalty>
1.58101

> <b_epik_Metal_Only>
0

> <s_lp_Force_Field>
OPLS_2005

> <r_lp_Energy>
19.296

> <b_lp_Chiralities_Consistent>
1

> <s_lp_Variant>
AV-unprocessed.smi:438-7

> <Gold.Version>
5.8.1

> <Gold.Id.Protein>
6NUR|6NUR_protein|mol2

> <Gold.PLP.Fitness>
42.3859

> <Gold.PLP.PLP>
-31.7010

> <Gold.PLP.part.hbond>
-4.4412

> <Gold.PLP.part.metal>
0.0000

> <Gold.PLP.part.buried>
-5.6455

> <Gold.PLP.part.nonpolar>
-24.3915

> <Gold.PLP.part.repulsive>
2.1577

> <Gold.PLP.ligand.clash>
0.0000

> <Gold.PLP.ligand.torsion>
0.6115

> <Gold.PLP.Chemscore.Hbond>
3.9520

> <Gold.PLP.Chemscore.CHOScore>
0.0000

> <Gold.PLP.Chemscore.Metal>
0.0000

> <Gold.Chemscore.Hbonds>
donor molecule, donor type, donor heavy atom, donor atom, acceptor molecule, acceptor atom, score
      L1  H    23    48       P1 10171  0.71
      P1  H  6931  6943       L1     8  1.00
      P1  H  7954  7966       L1    23  0.96
      P1  H  7989  7998       L1    19  0.99

> <Gold.PLP.Chemscore.Internal.Correction>
0.0520

> <Gold.Rescore>
     Score         DG    S(hbond)    S(metal)    S(lipo)     H(rot)  DE(clash)    DE(int)     intcor
     16.28     -18.05       3.58        0.00      67.93       2.86       1.17       0.60       ----

> <Gold.Chemscore.Fitness>
16.2775

> <Gold.Chemscore.DG>
-18.0452

> <Gold.Chemscore.ZeroCoef>
-5.4800

> <Gold.Chemscore.Hbond>
3.5778

> <Gold.Chemscore.Metal>
0.0000

> <Gold.Chemscore.Lipo>
67.9341

> <Gold.Chemscore.Internal_Hbond>
0.0000

> <Gold.Chemscore.DEClash>
1.1674

> <Gold.Chemscore.DEInternal>
0.6002

> <Gold.Chemscore.Rot>
2.8645

> <Gold.Chemscore.Internal.Correction>
   9.000000E+99

> <Gold.Chemscore.Hbonds>
donor molecule, donor type, donor heavy atom, donor atom, acceptor molecule, acceptor atom, score
      L1  H    23    48       P1 10171  0.71
      P1  H  6931  6943       L1     8  0.95
      P1  H  7954  7966       L1    23  0.87
      P1  H  7989  7998       L1    19  0.94

> <Gold.Chemscore.Hbond.Weighted>
-11.9500

> <Gold.Chemscore.Metal.Weighted>
-0.0000

> <Gold.Chemscore.Lipo.Weighted>
-7.9483

> <Gold.Chemscore.Internal_Hbond.Weighted>
0.0000

> <Gold.Chemscore.DEClash.Weighted>
1.1674

> <Gold.Chemscore.DEInternal.Weighted>
0.6002

> <Gold.Chemscore.Rot.Weighted>
7.3331

> <Gold.Chemscore.Internal.Correction.Weighted>
   9.000000E+99

> <Gold.Protein.RotatedTorsions>
[ 6907 6896 6895 6894 ] final   66.57 input  -60.11 | X-H torsion
[ 7974 7965 7964 7962 ] final  -32.97 input  175.53 | X-H torsion
[ 8008 7997 7996 7995 ] final  -67.63 input   59.86 | X-H torsion
[ 10167 10162 10161 10158 ] final    4.15 input  -65.29 | X-H torsion
[ 10718 10713 10712 10709 ] final   35.64 input   66.30 | X-H torsion
[ 10763 10752 10751 10750 ] final  -40.12 input  -60.55 | X-H torsion
[ 11005 11000 10999 10996 ] final   50.06 input  -57.11 | X-H torsion

> <Gold.Protein.ActiveResidues>
 VAL166  LYS551  ARG553  GLY616  TRP617  ASP618  TYR619  PRO620  LYS621  CYS622 
 ASP623  PHE694  ASN695  SER759  ASP760  ASP761  ALA762  ILE779  LEU786  VAL792 
 PHE793  MET794  SER795  GLU796  ALA797  LYS798  CYS799  TRP800  GLU811  SER814 

> <Gold.Protein.RotatedAtoms>
  152.4491  134.5433  159.9845 H   0  0  0  0  0  0  0  0  0  0  0  0  # atno 6907 bound_to 6896
  151.5510  133.3412  159.2961 H   0  0  0  0  0  0  0  0  0  0  0  0  # atno 6908 bound_to 6896
  150.8414  134.7740  159.6999 H   0  0  0  0  0  0  0  0  0  0  0  0  # atno 6909 bound_to 6896
  146.0948  140.5858  142.8848 H   0  0  0  0  0  0  0  0  0  0  0  0  # atno 7974 bound_to 7965
  154.4813  140.0889  156.7384 H   0  0  0  0  0  0  0  0  0  0  0  0  # atno 8008 bound_to 7997
  155.4463  140.3455  155.4277 H   0  0  0  0  0  0  0  0  0  0  0  0  # atno 8009 bound_to 7997
  156.1195  140.1470  156.9213 H   0  0  0  0  0  0  0  0  0  0  0  0  # atno 8010 bound_to 7997
  140.6549  143.7451  150.7637 H   0  0  0  0  0  0  0  0  0  0  0  0  # atno 10167 bound_to 10162
  157.3251  130.7469  149.6811 H   0  0  0  0  0  0  0  0  0  0  0  0  # atno 10718 bound_to 10713
  153.9407  135.6761  153.4744 H   0  0  0  0  0  0  0  0  0  0  0  0  # atno 10763 bound_to 10752
  153.0933  135.4864  154.8728 H   0  0  0  0  0  0  0  0  0  0  0  0  # atno 10764 bound_to 10752
  154.7379  135.3153  154.8738 H   0  0  0  0  0  0  0  0  0  0  0  0  # atno 10765 bound_to 10752
  140.1050  134.5030  155.8728 H   0  0  0  0  0  0  0  0  0  0  0  0  # atno 11005 bound_to 11000
  144.7387  140.4881  143.6885 LP  0  0  0  0  0  0  0  0  0  0  0  0  # atno 17320 bound_to 7965
  145.5969  139.1500  143.3151 LP  0  0  0  0  0  0  0  0  0  0  0  0  # atno 17321 bound_to 7965
  140.1109  143.4700  152.2370 LP  0  0  0  0  0  0  0  0  0  0  0  0  # atno 17342 bound_to 10162
  139.5770  144.7492  151.3738 LP  0  0  0  0  0  0  0  0  0  0  0  0  # atno 17343 bound_to 10162
  155.9690  130.4211  150.4456 LP  0  0  0  0  0  0  0  0  0  0  0  0  # atno 17370 bound_to 10713
  157.2478  131.0539  151.2398 LP  0  0  0  0  0  0  0  0  0  0  0  0  # atno 17371 bound_to 10713
  141.2116  133.6708  156.6593 LP  0  0  0  0  0  0  0  0  0  0  0  0  # atno 17394 bound_to 11000
  140.3168  134.8041  157.4220 LP  0  0  0  0  0  0  0  0  0  0  0  0  # atno 17395 bound_to 11000

$$$$
