AV-unprocessed.smi:1385|AV-procd|sdf|5628|dock4
  -GOLD-   22720 5243D 1   1.00000     0.00000
 Structure written by MMmdl.
 38 39  0  0  0  0  0  0  0  0  1 V2000
  150.9561  142.1849  156.4487 C   0  0  0  0  0  0  0  0  0  0  0  0
  150.0821  141.3071  155.6198 C   0  0  0  0  0  0  0  0  0  0  0  0
  150.5346  140.2091  155.0023 N   0  0  0  0  0  0  0  0  0  0  0  0
  149.5351  139.5525  154.2975 N   0  0  0  0  0  0  0  0  0  0  0  0
  148.3544  140.1770  154.4060 C   0  0  0  0  0  0  0  0  0  0  0  0
  147.1601  139.7213  153.7877 N   0  0  0  0  0  0  0  0  0  0  0  0
  146.7702  138.4548  153.5603 C   0  0  0  0  0  0  0  0  0  0  0  0
  147.4106  137.4474  153.8621 O   0  0  0  0  0  0  0  0  0  0  0  0
  145.5768  138.4168  152.9499 N   0  0  0  0  0  0  0  0  0  0  0  0
  144.8716  137.1997  152.5585 C   0  0  0  0  0  0  0  0  0  0  0  0
  144.7329  136.2367  153.7491 C   0  0  0  0  0  0  0  0  0  0  0  0
  144.1137  134.8962  153.3150 C   0  0  0  0  0  0  0  0  0  0  0  0
  144.9197  134.2714  152.2552 N   0  0  0  0  0  0  0  0  0  0  0  0
  144.3943  132.9459  151.8515 C   0  0  0  0  0  0  0  0  0  0  0  0
  145.3121  132.1473  150.9184 C   0  0  0  0  0  0  0  0  0  0  0  0
  146.5360  131.8599  151.3690 N   0  0  0  0  0  0  0  0  0  0  0  0
  144.9224  131.8021  149.8052 O   0  0  0  0  0  0  0  0  0  0  0  0
  144.9743  135.1455  151.0787 C   0  0  0  0  0  0  0  0  0  0  0  0
  145.6348  136.4896  151.4320 C   0  0  0  0  0  0  0  0  0  0  0  0
  148.3690  141.6326  155.3867 S   0  0  0  0  0  0  0  0  0  0  0  0
  152.0033  142.0494  156.1768 H   0  0  0  0  0  0  0  0  0  0  0  0
  150.8329  141.9406  157.5038 H   0  0  0  0  0  0  0  0  0  0  0  0
  150.6897  143.2311  156.2971 H   0  0  0  0  0  0  0  0  0  0  0  0
  146.5286  140.4464  153.4808 H   0  0  0  0  0  0  0  0  0  0  0  0
  145.1221  139.2929  152.7380 H   0  0  0  0  0  0  0  0  0  0  0  0
  143.8775  137.4603  152.1895 H   0  0  0  0  0  0  0  0  0  0  0  0
  145.7108  136.0544  154.1975 H   0  0  0  0  0  0  0  0  0  0  0  0
  144.1168  136.6883  154.5276 H   0  0  0  0  0  0  0  0  0  0  0  0
  144.0564  134.2529  154.1929 H   0  0  0  0  0  0  0  0  0  0  0  0
  143.0899  135.0479  152.9685 H   0  0  0  0  0  0  0  0  0  0  0  0
  144.1857  132.3467  152.7400 H   0  0  0  0  0  0  0  0  0  0  0  0
  143.4421  133.0739  151.3346 H   0  0  0  0  0  0  0  0  0  0  0  0
  147.1768  131.3431  150.7846 H   0  0  0  0  0  0  0  0  0  0  0  0
  146.8175  132.1681  152.2884 H   0  0  0  0  0  0  0  0  0  0  0  0
  145.5541  134.6668  150.2882 H   0  0  0  0  0  0  0  0  0  0  0  0
  143.9715  135.3104  150.6800 H   0  0  0  0  0  0  0  0  0  0  0  0
  145.6709  137.1252  150.5465 H   0  0  0  0  0  0  0  0  0  0  0  0
  146.6698  136.3165  151.7313 H   0  0  0  0  0  0  0  0  0  0  0  0
  1  2  1  0  0  0  0
  1 21  1  0  0  0  0
  1 22  1  0  0  0  0
  1 23  1  0  0  0  0
  2 20  1  0  0  0  0
  2  3  2  0  0  0  0
  3  4  1  0  0  0  0
  4  5  2  0  0  0  0
  5  6  1  0  0  0  0
  5 20  1  0  0  0  0
  6  7  1  0  0  0  0
  6 24  1  0  0  0  0
  7  8  2  0  0  0  0
  7  9  1  0  0  0  0
  9 10  1  0  0  0  0
  9 25  1  0  0  0  0
 10 19  1  0  0  0  0
 10 11  1  0  0  0  0
 10 26  1  0  0  0  0
 11 12  1  0  0  0  0
 11 27  1  0  0  0  0
 11 28  1  0  0  0  0
 12 13  1  0  0  0  0
 12 29  1  0  0  0  0
 12 30  1  0  0  0  0
 13 14  1  0  0  0  0
 13 18  1  0  0  0  0
 14 15  1  0  0  0  0
 14 31  1  0  0  0  0
 14 32  1  0  0  0  0
 15 16  1  0  0  0  0
 15 17  2  0  0  0  0
 16 33  1  0  0  0  0
 16 34  1  0  0  0  0
 18 19  1  0  0  0  0
 18 35  1  0  0  0  0
 18 36  1  0  0  0  0
 19 37  1  0  0  0  0
 19 38  1  0  0  0  0
M  END
> <s_m_source_file>
AV-unprocessed.smi

> <i_m_source_file_index>
1385

> <i_lp_mmshare_version>
43012

> <i_f3d_flags>
0

> <s_epik_input>
W0NIM11jMW5uYyhzMSlbTkhdQyg9TylbTkhdW0NIXTJbQ0gyXVtDSDJdTihbQ0gyXVtDSDJdMilbQ0gyXUMoPU8pW05IMl0=

> <s_epik_cmdline>
J2VwaWtfcHl0aG9uJywgJy1waCcsICc3LjAnLCAnLXRuJywgJzgnLCAnLW1hJywgJzIwMCcsICctbWV0YWxfYmluZGluZycsICctaW1hZScsICc8aW5maWxlLm1hZT4nLCAnLW9tYWUnLCAnPG91dGZpbGUubWFlPic=

> <r_lp_tautomer_probability>
1

> <r_epik_Ionization_Penalty>
0.159363

> <r_epik_Ionization_Penalty_Charging>
0

> <r_epik_Ionization_Penalty_Neutral>
0.159363

> <r_epik_State_Penalty>
0.146692

> <r_epik_Charging_Adjusted_Penalty>
0.146692

> <i_epik_Tot_Q>
0

> <i_epik_Tot_abs_Q>
0

> <r_epik_Metal_State_Penalty>
0.501772

> <b_epik_Metal_Only>
0

> <s_lp_Force_Field>
OPLS_2005

> <r_lp_Energy>
10.053

> <b_lp_Chiralities_Consistent>
1

> <s_lp_Variant>
AV-unprocessed.smi:1385-1

> <Gold.Version>
5.8.1

> <Gold.Id.Protein>
6NUR|6NUR_protein|mol2

> <Gold.PLP.Fitness>
34.3857

> <Gold.PLP.PLP>
-26.0412

> <Gold.PLP.part.hbond>
-3.3833

> <Gold.PLP.part.metal>
0.0000

> <Gold.PLP.part.buried>
-6.1213

> <Gold.PLP.part.nonpolar>
-19.4674

> <Gold.PLP.part.repulsive>
2.7572

> <Gold.PLP.ligand.clash>
0.0000

> <Gold.PLP.ligand.torsion>
0.3192

> <Gold.PLP.Chemscore.Hbond>
2.9920

> <Gold.PLP.Chemscore.CHOScore>
0.0000

> <Gold.PLP.Chemscore.Metal>
0.0000

> <Gold.Chemscore.Hbonds>
donor molecule, donor type, donor heavy atom, donor atom, acceptor molecule, acceptor atom, score
      L1  H     9    25       P1 10175  1.00
      L1  H    16    33       P1 10747  1.00
      P1  H  7989  7998       L1     3  1.00

> <Gold.PLP.Chemscore.Internal.Correction>
0.0071

> <Gold.Rescore>
     Score         DG    S(hbond)    S(metal)    S(lipo)     H(rot)  DE(clash)    DE(int)     intcor
      9.69     -13.76       2.33        0.00      48.81       2.04       1.71       2.36       ----

> <Gold.Chemscore.Fitness>
9.6911

> <Gold.Chemscore.DG>
-13.7618

> <Gold.Chemscore.ZeroCoef>
-5.4800

> <Gold.Chemscore.Hbond>
2.3339

> <Gold.Chemscore.Metal>
0.0000

> <Gold.Chemscore.Lipo>
48.8108

> <Gold.Chemscore.Internal_Hbond>
0.0000

> <Gold.Chemscore.DEClash>
1.7096

> <Gold.Chemscore.DEInternal>
2.3611

> <Gold.Chemscore.Rot>
2.0407

> <Gold.Chemscore.Internal.Correction>
   9.000000E+99

> <Gold.Chemscore.Hbonds>
donor molecule, donor type, donor heavy atom, donor atom, acceptor molecule, acceptor atom, score
      L1  H     9    25       P1 10175  0.98
      L1  H    16    33       P1 10747  0.95
      P1  H  7989  7998       L1     3  0.12

> <Gold.Chemscore.Hbond.Weighted>
-7.7952

> <Gold.Chemscore.Metal.Weighted>
-0.0000

> <Gold.Chemscore.Lipo.Weighted>
-5.7109

> <Gold.Chemscore.Internal_Hbond.Weighted>
0.0000

> <Gold.Chemscore.DEClash.Weighted>
1.7096

> <Gold.Chemscore.DEInternal.Weighted>
2.3611

> <Gold.Chemscore.Rot.Weighted>
5.2243

> <Gold.Chemscore.Internal.Correction.Weighted>
   9.000000E+99

> <Gold.Protein.RotatedTorsions>
[ 6907 6896 6895 6894 ] final -169.17 input  -60.11 | X-H torsion
[ 7974 7965 7964 7962 ] final -174.97 input  175.53 | X-H torsion
[ 8008 7997 7996 7995 ] final   77.65 input   59.86 | X-H torsion
[ 10167 10162 10161 10158 ] final -108.65 input  -65.29 | X-H torsion
[ 10718 10713 10712 10709 ] final  -75.49 input   66.30 | X-H torsion
[ 10763 10752 10751 10750 ] final   22.94 input  -60.55 | X-H torsion
[ 11005 11000 10999 10996 ] final   72.13 input  -57.11 | X-H torsion

> <Gold.Protein.ActiveResidues>
 VAL166  LYS551  ARG553  GLY616  TRP617  ASP618  TYR619  PRO620  LYS621  CYS622 
 ASP623  PHE694  ASN695  SER759  ASP760  ASP761  ALA762  ILE779  LEU786  VAL792 
 PHE793  MET794  SER795  GLU796  ALA797  LYS798  CYS799  TRP800  GLU811  SER814 

> <Gold.Protein.RotatedAtoms>
  151.4872  133.3533  159.2847 H   0  0  0  0  0  0  0  0  0  0  0  0  # atno 6907 bound_to 6896
  150.8858  134.8257  159.7269 H   0  0  0  0  0  0  0  0  0  0  0  0  # atno 6908 bound_to 6896
  152.4792  134.4776  159.9707 H   0  0  0  0  0  0  0  0  0  0  0  0  # atno 6909 bound_to 6896
  144.7130  140.1392  143.6393 H   0  0  0  0  0  0  0  0  0  0  0  0  # atno 7974 bound_to 7965
  155.8446  140.3461  155.5653 H   0  0  0  0  0  0  0  0  0  0  0  0  # atno 8008 bound_to 7997
  155.8104  140.0898  157.1926 H   0  0  0  0  0  0  0  0  0  0  0  0  # atno 8009 bound_to 7997
  154.4006  140.1449  156.3367 H   0  0  0  0  0  0  0  0  0  0  0  0  # atno 8010 bound_to 7997
  140.1638  143.4098  152.1405 H   0  0  0  0  0  0  0  0  0  0  0  0  # atno 10167 bound_to 10162
  156.0206  130.4442  150.3051 H   0  0  0  0  0  0  0  0  0  0  0  0  # atno 10718 bound_to 10713
  153.0876  135.6637  153.9918 H   0  0  0  0  0  0  0  0  0  0  0  0  # atno 10763 bound_to 10752
  153.9523  135.2982  155.3439 H   0  0  0  0  0  0  0  0  0  0  0  0  # atno 10764 bound_to 10752
  154.7286  135.5133  153.9000 H   0  0  0  0  0  0  0  0  0  0  0  0  # atno 10765 bound_to 10752
  139.9507  134.7232  156.0870 H   0  0  0  0  0  0  0  0  0  0  0  0  # atno 11005 bound_to 11000
  145.9217  139.2550  143.1377 LP  0  0  0  0  0  0  0  0  0  0  0  0  # atno 17320 bound_to 7965
  145.9613  140.8833  143.0209 LP  0  0  0  0  0  0  0  0  0  0  0  0  # atno 17321 bound_to 7965
  139.5369  144.7218  151.4864 LP  0  0  0  0  0  0  0  0  0  0  0  0  # atno 17342 bound_to 10162
  140.6626  143.8467  150.6905 LP  0  0  0  0  0  0  0  0  0  0  0  0  # atno 17343 bound_to 10162
  157.1153  131.0232  151.3031 LP  0  0  0  0  0  0  0  0  0  0  0  0  # atno 17370 bound_to 10713
  157.4671  130.7687  149.7289 LP  0  0  0  0  0  0  0  0  0  0  0  0  # atno 17371 bound_to 10713
  141.1169  133.6625  156.3116 LP  0  0  0  0  0  0  0  0  0  0  0  0  # atno 17394 bound_to 11000
  140.5726  134.5825  157.5461 LP  0  0  0  0  0  0  0  0  0  0  0  0  # atno 17395 bound_to 11000

$$$$
