AV-unprocessed.smi:2926|AV-procd|sdf|11229|dock6
  -GOLD-   2272016123D 1   1.00000     0.00000
 Structure written by MMmdl.
 31 31  0  0  0  0  0  0  0  0  2 V2000
  154.1697  140.4556  161.5168 C   0  0  0  0  0  0  0  0  0  0  0  0
  154.0157  140.3998  159.9801 C   0  0  0  0  0  0  0  0  0  0  0  0
  153.3745  141.7052  159.4534 C   0  0  0  0  0  0  0  0  0  0  0  0
  153.3387  139.0890  159.4739 C   0  0  2  0  0  0  0  0  0  0  0  0
  153.8183  137.8340  160.2335 C   0  0  0  0  0  0  0  0  0  0  0  0
  152.9289  136.7506  160.0503 O   0  0  0  0  0  0  0  0  0  0  0  0
  153.5704  138.9214  158.0421 N   0  5  0  0  0  0  0  0  0  0  0  0
  152.5316  138.0475  157.1552 S   0  0  0  0  0  0  0  0  0  0  0  0
  153.0408  136.7024  156.8428 O   0  0  0  0  0  0  0  0  0  0  0  0
  151.1484  138.1370  157.6518 O   0  0  0  0  0  0  0  0  0  0  0  0
  152.5670  138.9901  155.5707 C   0  0  0  0  0  0  0  0  0  0  0  0
  151.3819  139.9115  155.4857 C   0  0  0  0  0  0  0  0  0  0  0  0
  150.9564  140.8981  156.4184 C   0  0  0  0  0  0  0  0  0  0  0  0
  149.8434  141.4310  155.8352 C   0  0  0  0  0  0  0  0  0  0  0  0
  149.6036  140.8378  154.6387 O   0  0  0  0  0  0  0  0  0  0  0  0
  150.5925  139.8715  154.4226 N   0  0  0  0  0  0  0  0  0  0  0  0
  152.2744  139.1956  159.6906 H   0  0  0  0  0  0  0  0  0  0  0  0
  153.2059  140.5212  162.0250 H   0  0  0  0  0  0  0  0  0  0  0  0
  154.7442  141.3340  161.8121 H   0  0  0  0  0  0  0  0  0  0  0  0
  154.6984  139.5870  161.9142 H   0  0  0  0  0  0  0  0  0  0  0  0
  155.0331  140.3841  159.5868 H   0  0  0  0  0  0  0  0  0  0  0  0
  152.3508  141.8354  159.8088 H   0  0  0  0  0  0  0  0  0  0  0  0
  153.3604  141.7557  158.3638 H   0  0  0  0  0  0  0  0  0  0  0  0
  153.9404  142.5719  159.7958 H   0  0  0  0  0  0  0  0  0  0  0  0
  154.8145  137.5312  159.9095 H   0  0  0  0  0  0  0  0  0  0  0  0
  153.8785  138.0396  161.3025 H   0  0  0  0  0  0  0  0  0  0  0  0
  152.2237  137.0317  159.4887 H   0  0  0  0  0  0  0  0  0  0  0  0
  153.5008  139.5499  155.5278 H   0  0  0  0  0  0  0  0  0  0  0  0
  152.5727  138.2719  154.7504 H   0  0  0  0  0  0  0  0  0  0  0  0
  151.3956  141.1645  157.3684 H   0  0  0  0  0  0  0  0  0  0  0  0
  149.1489  142.2034  156.1302 H   0  0  0  0  0  0  0  0  0  0  0  0
  1  2  1  0  0  0  0
  1 18  1  0  0  0  0
  1 19  1  0  0  0  0
  1 20  1  0  0  0  0
  2  3  1  0  0  0  0
  2  4  1  0  0  0  0
  2 21  1  0  0  0  0
  3 22  1  0  0  0  0
  3 23  1  0  0  0  0
  3 24  1  0  0  0  0
  4 17  1  0  0  0  0
  4  5  1  0  0  0  0
  4  7  1  0  0  0  0
  5  6  1  0  0  0  0
  5 25  1  0  0  0  0
  5 26  1  0  0  0  0
  6 27  1  0  0  0  0
  7  8  1  0  0  0  0
  8  9  2  0  0  0  0
  8 10  2  0  0  0  0
  8 11  1  0  0  0  0
 11 12  1  0  0  0  0
 11 28  1  0  0  0  0
 11 29  1  0  0  0  0
 12 16  2  0  0  0  0
 12 13  1  0  0  0  0
 13 14  2  0  0  0  0
 13 30  1  0  0  0  0
 14 15  1  0  0  0  0
 14 31  1  0  0  0  0
 15 16  1  0  0  0  0
M  CHG  1   7  -1
M  END
> <s_m_source_file>
AV-unprocessed.smi

> <i_m_source_file_index>
2926

> <i_lp_mmshare_version>
43012

> <i_f3d_flags>
0

> <s_epik_input>
W0NIM11bQ0hdKFtDSDNdKVtDQEBIXShbQ0gyXVtPSF0pW05IXVMoPU8pKD1PKVtDSDJdYzFbY0hdW2NIXW9uMQ==

> <s_epik_cmdline>
J2VwaWtfcHl0aG9uJywgJy1waCcsICc3LjAnLCAnLXRuJywgJzgnLCAnLW1hJywgJzIwMCcsICctbWV0YWxfYmluZGluZycsICctaW1hZScsICc8aW5maWxlLm1hZT4nLCAnLW9tYWUnLCAnPG91dGZpbGUubWFlPic=

> <r_lp_tautomer_probability>
1

> <r_epik_Ionization_Penalty>
4.75719

> <r_epik_Ionization_Penalty_Charging>
4.75718

> <r_epik_Ionization_Penalty_Neutral>
1.48962e-06

> <r_epik_State_Penalty>
4.75699

> <r_epik_Charging_Adjusted_Penalty>
9.51417

> <i_epik_Tot_Q>
-1

> <i_epik_Tot_abs_Q>
1

> <r_epik_Metal_State_Penalty>
0.961449

> <b_epik_Metal_Only>
1

> <s_lp_Force_Field>
OPLS_2005

> <r_lp_Energy>
3.36492

> <b_lp_Chiralities_Consistent>
1

> <s_lp_Variant>
AV-unprocessed.smi:2926-4

> <Gold.Version>
5.8.1

> <Gold.Id.Protein>
6NUR|6NUR_protein|mol2

> <Gold.PLP.Fitness>
41.8824

> <Gold.PLP.PLP>
-27.4517

> <Gold.PLP.part.hbond>
-4.9021

> <Gold.PLP.part.metal>
0.0000

> <Gold.PLP.part.buried>
-0.9644

> <Gold.PLP.part.nonpolar>
-21.2941

> <Gold.PLP.part.repulsive>
0.2424

> <Gold.PLP.ligand.clash>
0.0000

> <Gold.PLP.ligand.torsion>
1.7232

> <Gold.PLP.Chemscore.Hbond>
4.5852

> <Gold.PLP.Chemscore.CHOScore>
1.0000

> <Gold.PLP.Chemscore.Metal>
0.0000

> <Gold.Chemscore.Hbonds>
donor molecule, donor type, donor heavy atom, donor atom, acceptor molecule, acceptor atom, score
      P1  H  6896  6909       L1     6  0.55
      P1  H  7989  7998       L1    16  0.56
      P1  H  7997  8008       L1     7  2.00
      P1  H 10752 10764       L1     9  0.91
      L1  C    14    31       P1  8028  0.90

> <Gold.PLP.Chemscore.Internal.Correction>
1.1214

> <Gold.Rescore>
     Score         DG    S(hbond)    S(metal)    S(lipo)     H(rot)  DE(clash)    DE(int)     intcor
     13.39     -15.18       2.65        0.00      63.67       2.58       0.15       1.64       ----

> <Gold.Chemscore.Fitness>
13.3909

> <Gold.Chemscore.DG>
-15.1805

> <Gold.Chemscore.ZeroCoef>
-5.4800

> <Gold.Chemscore.Hbond>
2.6496

> <Gold.Chemscore.Metal>
0.0000

> <Gold.Chemscore.Lipo>
63.6713

> <Gold.Chemscore.Internal_Hbond>
0.0000

> <Gold.Chemscore.DEClash>
0.1499

> <Gold.Chemscore.DEInternal>
1.6398

> <Gold.Chemscore.Rot>
2.5776

> <Gold.Chemscore.Internal.Correction>
   9.000000E+99

> <Gold.Chemscore.Hbonds>
donor molecule, donor type, donor heavy atom, donor atom, acceptor molecule, acceptor atom, score
      P1  H  6896  6909       L1     6  0.03
      P1  H  7989  7998       L1    16  0.01
      P1  H  7997  8008       L1     7  0.47
      P1  H 10752 10764       L1     9  0.82

> <Gold.Chemscore.Hbond.Weighted>
-8.8497

> <Gold.Chemscore.Metal.Weighted>
-0.0000

> <Gold.Chemscore.Lipo.Weighted>
-7.4495

> <Gold.Chemscore.Internal_Hbond.Weighted>
0.0000

> <Gold.Chemscore.DEClash.Weighted>
0.1499

> <Gold.Chemscore.DEInternal.Weighted>
1.6398

> <Gold.Chemscore.Rot.Weighted>
6.5987

> <Gold.Chemscore.Internal.Correction.Weighted>
   9.000000E+99

> <Gold.Protein.RotatedTorsions>
[ 6907 6896 6895 6894 ] final  162.13 input  -60.11 | X-H torsion
[ 7974 7965 7964 7962 ] final  -59.39 input  175.53 | X-H torsion
[ 8008 7997 7996 7995 ] final  -68.58 input   59.86 | X-H torsion
[ 10167 10162 10161 10158 ] final  -11.33 input  -65.29 | X-H torsion
[ 10718 10713 10712 10709 ] final  -74.36 input   66.30 | X-H torsion
[ 10763 10752 10751 10750 ] final  -12.41 input  -60.55 | X-H torsion
[ 11005 11000 10999 10996 ] final  114.89 input  -57.11 | X-H torsion

> <Gold.Protein.ActiveResidues>
 VAL166  LYS551  ARG553  GLY616  TRP617  ASP618  TYR619  PRO620  LYS621  CYS622 
 ASP623  PHE694  ASN695  SER759  ASP760  ASP761  ALA762  ILE779  LEU786  VAL792 
 PHE793  MET794  SER795  GLU796  ALA797  LYS798  CYS799  TRP800  GLU811  SER814 

> <Gold.Protein.RotatedAtoms>
  151.9451  133.3649  159.3979 H   0  0  0  0  0  0  0  0  0  0  0  0  # atno 6907 bound_to 6896
  150.6991  134.4398  159.5296 H   0  0  0  0  0  0  0  0  0  0  0  0  # atno 6908 bound_to 6896
  152.2062  134.8543  160.0553 H   0  0  0  0  0  0  0  0  0  0  0  0  # atno 6909 bound_to 6896
  145.8280  140.8498  143.0098 H   0  0  0  0  0  0  0  0  0  0  0  0  # atno 7974 bound_to 7965
  154.4878  140.0870  156.7526 H   0  0  0  0  0  0  0  0  0  0  0  0  # atno 8008 bound_to 7997
  155.4307  140.3449  155.4261 H   0  0  0  0  0  0  0  0  0  0  0  0  # atno 8009 bound_to 7997
  156.1286  140.1495  156.9087 H   0  0  0  0  0  0  0  0  0  0  0  0  # atno 8010 bound_to 7997
  140.7136  143.5651  150.9153 H   0  0  0  0  0  0  0  0  0  0  0  0  # atno 10167 bound_to 10162
  156.0245  130.4415  150.2880 H   0  0  0  0  0  0  0  0  0  0  0  0  # atno 10718 bound_to 10713
  153.4980  135.7017  153.5847 H   0  0  0  0  0  0  0  0  0  0  0  0  # atno 10763 bound_to 10752
  153.3991  135.3876  155.1975 H   0  0  0  0  0  0  0  0  0  0  0  0  # atno 10764 bound_to 10752
  154.8712  135.3877  154.4448 H   0  0  0  0  0  0  0  0  0  0  0  0  # atno 10765 bound_to 10752
  139.8993  134.9575  156.6961 H   0  0  0  0  0  0  0  0  0  0  0  0  # atno 11005 bound_to 11000
  144.6742  140.0630  143.7475 LP  0  0  0  0  0  0  0  0  0  0  0  0  # atno 17320 bound_to 7965
  145.9602  139.2795  143.1160 LP  0  0  0  0  0  0  0  0  0  0  0  0  # atno 17321 bound_to 7965
  139.9377  143.6419  152.3061 LP  0  0  0  0  0  0  0  0  0  0  0  0  # atno 17342 bound_to 10162
  139.6892  144.7648  151.1468 LP  0  0  0  0  0  0  0  0  0  0  0  0  # atno 17343 bound_to 10162
  157.0984  131.0189  151.3095 LP  0  0  0  0  0  0  0  0  0  0  0  0  # atno 17370 bound_to 10713
  157.4799  130.7759  149.7404 LP  0  0  0  0  0  0  0  0  0  0  0  0  # atno 17371 bound_to 10713
  140.7187  133.9160  155.8132 LP  0  0  0  0  0  0  0  0  0  0  0  0  # atno 17394 bound_to 11000
  141.0244  134.0844  157.4085 LP  0  0  0  0  0  0  0  0  0  0  0  0  # atno 17395 bound_to 11000

$$$$
