AV-unprocessed.smi:2360|AV-procd|sdf|9410|dock3
  -GOLD-   2272013 43D 1   1.00000     0.00000
 Structure written by MMmdl.
 34 35  0  0  0  0  0  0  0  0  1 V2000
  152.3985  144.5831  159.5045 C   0  0  0  0  0  0  0  0  0  0  0  0
  151.9581  143.3442  158.7451 C   0  0  0  0  0  0  0  0  0  0  0  0
  151.2444  143.5803  157.5668 N   0  0  0  0  0  0  0  0  0  0  0  0
  150.8301  142.5846  156.8541 C   0  0  0  0  0  0  0  0  0  0  0  0
  151.0749  141.2531  157.2311 N   0  0  0  0  0  0  0  0  0  0  0  0
  150.5576  140.2120  156.3257 C   0  0  0  0  0  0  0  0  0  0  0  0
  150.0412  140.7981  154.9918 C   0  0  1  0  0  0  0  0  0  0  0  0
  150.0372  139.7798  154.0115 O   0  0  0  0  0  0  0  0  0  0  0  0
  148.6540  141.3992  155.1603 C   0  0  0  0  0  0  0  0  0  0  0  0
  147.9390  141.8819  154.0418 C   0  0  0  0  0  0  0  0  0  0  0  0
  146.6521  142.4305  154.2040 C   0  0  0  0  0  0  0  0  0  0  0  0
  146.0713  142.4987  155.4849 C   0  0  0  0  0  0  0  0  0  0  0  0
  144.8336  143.0259  155.6395 F   0  0  0  0  0  0  0  0  0  0  0  0
  146.7785  142.0172  156.6038 C   0  0  0  0  0  0  0  0  0  0  0  0
  146.2222  142.0808  157.8369 F   0  0  0  0  0  0  0  0  0  0  0  0
  148.0655  141.4679  156.4415 C   0  0  0  0  0  0  0  0  0  0  0  0
  151.7621  140.9347  158.3659 C   0  0  0  0  0  0  0  0  0  0  0  0
  151.9722  139.7646  158.6905 O   0  0  0  0  0  0  0  0  0  0  0  0
  152.2300  142.0786  159.1656 C   0  0  0  0  0  0  0  0  0  0  0  0
  153.0037  141.7612  160.4392 C   0  0  0  0  0  0  0  0  0  0  0  0
  153.4850  144.6136  159.5883 H   0  0  0  0  0  0  0  0  0  0  0  0
  151.9706  144.5886  160.5072 H   0  0  0  0  0  0  0  0  0  0  0  0
  152.0772  145.4944  158.9990 H   0  0  0  0  0  0  0  0  0  0  0  0
  150.2749  142.7140  155.9235 H   0  0  0  0  0  0  0  0  0  0  0  0
  151.2905  139.4236  156.1436 H   0  0  0  0  0  0  0  0  0  0  0  0
  149.7360  139.6982  156.8296 H   0  0  0  0  0  0  0  0  0  0  0  0
  150.7135  141.5841  154.6456 H   0  0  0  0  0  0  0  0  0  0  0  0
  150.0431  140.1847  153.1578 H   0  0  0  0  0  0  0  0  0  0  0  0
  148.3755  141.8306  153.0550 H   0  0  0  0  0  0  0  0  0  0  0  0
  146.1101  142.7978  153.3451 H   0  0  0  0  0  0  0  0  0  0  0  0
  148.5980  141.0988  157.3057 H   0  0  0  0  0  0  0  0  0  0  0  0
  152.3825  141.1796  161.1209 H   0  0  0  0  0  0  0  0  0  0  0  0
  153.3352  142.6497  160.9739 H   0  0  0  0  0  0  0  0  0  0  0  0
  153.8902  141.1717  160.2031 H   0  0  0  0  0  0  0  0  0  0  0  0
  1  2  1  0  0  0  0
  1 21  1  0  0  0  0
  1 22  1  0  0  0  0
  1 23  1  0  0  0  0
  2 19  2  0  0  0  0
  2  3  1  0  0  0  0
  3  4  2  0  0  0  0
  4  5  1  0  0  0  0
  4 24  1  0  0  0  0
  5  6  1  0  0  0  0
  5 17  1  0  0  0  0
  6  7  1  0  0  0  0
  6 25  1  0  0  0  0
  6 26  1  0  0  0  0
  7  8  1  0  0  0  0
  7  9  1  0  0  0  0
  7 27  1  0  0  0  0
  8 28  1  0  0  0  0
  9 16  1  0  0  0  0
  9 10  2  0  0  0  0
 10 11  1  0  0  0  0
 10 29  1  0  0  0  0
 11 12  2  0  0  0  0
 11 30  1  0  0  0  0
 12 13  1  0  0  0  0
 12 14  1  0  0  0  0
 14 15  1  0  0  0  0
 14 16  2  0  0  0  0
 16 31  1  0  0  0  0
 17 18  2  0  0  0  0
 17 19  1  0  0  0  0
 19 20  1  0  0  0  0
 20 32  1  0  0  0  0
 20 33  1  0  0  0  0
 20 34  1  0  0  0  0
M  END
> <s_m_source_file>
AV-unprocessed.smi

> <i_m_source_file_index>
2360

> <i_lp_mmshare_version>
43012

> <i_f3d_flags>
0

> <s_epik_input>
W0NIM11jMW5bY0hdbihjKD1PKWMxW0NIM10pW0NIMl1bQ0BIXShbT0hdKWMyW2NIXVtjSF1jKEYpYyhGKVtjSF0y

> <s_epik_cmdline>
J2VwaWtfcHl0aG9uJywgJy1waCcsICc3LjAnLCAnLXRuJywgJzgnLCAnLW1hJywgJzIwMCcsICctbWV0YWxfYmluZGluZycsICctaW1hZScsICc8aW5maWxlLm1hZT4nLCAnLW9tYWUnLCAnPG91dGZpbGUubWFlPic=

> <r_lp_tautomer_probability>
1

> <r_epik_Ionization_Penalty>
5.07449e-05

> <r_epik_Ionization_Penalty_Charging>
7.56727e-08

> <r_epik_Ionization_Penalty_Neutral>
5.06692e-05

> <r_epik_State_Penalty>
-0

> <r_epik_Charging_Adjusted_Penalty>
7.56727e-08

> <i_epik_Tot_Q>
0

> <i_epik_Tot_abs_Q>
0

> <r_epik_Metal_State_Penalty>
-0

> <b_epik_Metal_Only>
0

> <s_lp_Force_Field>
OPLS_2005

> <r_lp_Energy>
19.5716

> <b_lp_Chiralities_Consistent>
1

> <s_lp_Variant>
AV-unprocessed.smi:2360-2

> <Gold.Version>
5.8.1

> <Gold.Id.Protein>
6NUR|6NUR_protein|mol2

> <Gold.PLP.Fitness>
44.8930

> <Gold.PLP.PLP>
-42.2110

> <Gold.PLP.part.hbond>
-2.0000

> <Gold.PLP.part.metal>
0.0000

> <Gold.PLP.part.buried>
-4.4073

> <Gold.PLP.part.nonpolar>
-36.5487

> <Gold.PLP.part.repulsive>
0.1387

> <Gold.PLP.ligand.clash>
1.8528

> <Gold.PLP.ligand.torsion>
0.3697

> <Gold.PLP.Chemscore.Hbond>
0.9913

> <Gold.PLP.Chemscore.CHOScore>
0.7628

> <Gold.PLP.Chemscore.Metal>
0.0000

> <Gold.Chemscore.Hbonds>
donor molecule, donor type, donor heavy atom, donor atom, acceptor molecule, acceptor atom, score
      L1  H     8    28       P1  7957  0.95
      L1  C     4    24       P1  8028  0.77

> <Gold.PLP.Chemscore.Internal.Correction>
0.0121

> <Gold.Rescore>
     Score         DG    S(hbond)    S(metal)    S(lipo)     H(rot)  DE(clash)    DE(int)     intcor
     12.92     -13.18       0.95        0.00      84.80       2.11       0.01       0.24       ----

> <Gold.Chemscore.Fitness>
12.9217

> <Gold.Chemscore.DG>
-13.1802

> <Gold.Chemscore.ZeroCoef>
-5.4800

> <Gold.Chemscore.Hbond>
0.9518

> <Gold.Chemscore.Metal>
0.0000

> <Gold.Chemscore.Lipo>
84.8044

> <Gold.Chemscore.Internal_Hbond>
0.0000

> <Gold.Chemscore.DEClash>
0.0145

> <Gold.Chemscore.DEInternal>
0.2439

> <Gold.Chemscore.Rot>
2.1097

> <Gold.Chemscore.Internal.Correction>
   9.000000E+99

> <Gold.Chemscore.Hbonds>
donor molecule, donor type, donor heavy atom, donor atom, acceptor molecule, acceptor atom, score
      L1  H     8    28       P1  7957  0.85

> <Gold.Chemscore.Hbond.Weighted>
-3.1790

> <Gold.Chemscore.Metal.Weighted>
-0.0000

> <Gold.Chemscore.Lipo.Weighted>
-9.9221

> <Gold.Chemscore.Internal_Hbond.Weighted>
0.0000

> <Gold.Chemscore.DEClash.Weighted>
0.0145

> <Gold.Chemscore.DEInternal.Weighted>
0.2439

> <Gold.Chemscore.Rot.Weighted>
5.4009

> <Gold.Chemscore.Internal.Correction.Weighted>
   9.000000E+99

> <Gold.Protein.RotatedTorsions>
[ 6907 6896 6895 6894 ] final -128.69 input  -60.11 | X-H torsion
[ 7974 7965 7964 7962 ] final   99.23 input  175.53 | X-H torsion
[ 8008 7997 7996 7995 ] final  131.28 input   59.86 | X-H torsion
[ 10167 10162 10161 10158 ] final  -36.78 input  -65.29 | X-H torsion
[ 10718 10713 10712 10709 ] final -109.14 input   66.30 | X-H torsion
[ 10763 10752 10751 10750 ] final -121.83 input  -60.55 | X-H torsion
[ 11005 11000 10999 10996 ] final  167.06 input  -57.11 | X-H torsion

> <Gold.Protein.ActiveResidues>
 VAL166  LYS551  ARG553  GLY616  TRP617  ASP618  TYR619  PRO620  LYS621  CYS622 
 ASP623  PHE694  ASN695  SER759  ASP760  ASP761  ALA762  ILE779  LEU786  VAL792 
 PHE793  MET794  SER795  GLU796  ALA797  LYS798  CYS799  TRP800  GLU811  SER814 

> <Gold.Protein.RotatedAtoms>
  150.9206  133.6885  159.2832 H   0  0  0  0  0  0  0  0  0  0  0  0  # atno 6907 bound_to 6896
  151.4341  135.1011  159.9660 H   0  0  0  0  0  0  0  0  0  0  0  0  # atno 6908 bound_to 6896
  152.4977  133.8629  159.7314 H   0  0  0  0  0  0  0  0  0  0  0  0  # atno 6909 bound_to 6896
  145.4017  139.2346  143.3296 H   0  0  0  0  0  0  0  0  0  0  0  0  # atno 7974 bound_to 7965
  156.2967  140.2575  156.2899 H   0  0  0  0  0  0  0  0  0  0  0  0  # atno 8008 bound_to 7997
  154.9520  140.0394  157.2167 H   0  0  0  0  0  0  0  0  0  0  0  0  # atno 8009 bound_to 7997
  154.8027  140.2831  155.5914 H   0  0  0  0  0  0  0  0  0  0  0  0  # atno 8010 bound_to 7997
  140.7134  143.3385  151.2408 H   0  0  0  0  0  0  0  0  0  0  0  0  # atno 10167 bound_to 10162
  156.0521  130.5748  150.8058 H   0  0  0  0  0  0  0  0  0  0  0  0  # atno 10718 bound_to 10713
  154.8677  135.4154  154.2684 H   0  0  0  0  0  0  0  0  0  0  0  0  # atno 10763 bound_to 10752
  153.3599  135.7003  153.6726 H   0  0  0  0  0  0  0  0  0  0  0  0  # atno 10764 bound_to 10752
  153.5631  135.3606  155.2780 H   0  0  0  0  0  0  0  0  0  0  0  0  # atno 10765 bound_to 10752
  140.2729  134.7812  157.3691 H   0  0  0  0  0  0  0  0  0  0  0  0  # atno 11005 bound_to 11000
  146.2749  140.4715  142.8799 LP  0  0  0  0  0  0  0  0  0  0  0  0  # atno 17320 bound_to 7965
  144.8370  140.6797  143.6254 LP  0  0  0  0  0  0  0  0  0  0  0  0  # atno 17321 bound_to 7965
  139.6887  143.9729  152.2848 LP  0  0  0  0  0  0  0  0  0  0  0  0  # atno 17342 bound_to 10162
  139.9383  144.6697  150.8292 LP  0  0  0  0  0  0  0  0  0  0  0  0  # atno 17343 bound_to 10162
  157.5458  131.0942  150.9765 LP  0  0  0  0  0  0  0  0  0  0  0  0  # atno 17370 bound_to 10713
  157.0036  130.5609  149.5314 LP  0  0  0  0  0  0  0  0  0  0  0  0  # atno 17371 bound_to 10713
  140.1356  134.5038  155.8071 LP  0  0  0  0  0  0  0  0  0  0  0  0  # atno 17394 bound_to 11000
  141.2175  133.6806  156.7118 LP  0  0  0  0  0  0  0  0  0  0  0  0  # atno 17395 bound_to 11000

$$$$
