AV-unprocessed.smi:3112|AV-procd|sdf|11842|dock2
  -GOLD-   2272017223D 1   1.00000     0.00000
 Structure written by MMmdl.
 37 37  0  0  0  0  0  0  0  0  2 V2000
  148.1418  139.3486  153.5569 C   0  0  0  0  0  0  0  0  0  0  0  0
  148.3348  140.8687  153.6448 C   0  0  0  0  0  0  0  0  0  0  0  0
  149.7086  141.2812  154.2046 C   0  0  2  0  0  0  0  0  0  0  0  0
  150.7016  140.4433  153.6456 O   0  0  0  0  0  0  0  0  0  0  0  0
  149.7689  141.1475  155.7356 C   0  0  0  0  0  0  0  0  0  0  0  0
  150.7061  142.1301  156.3208 N   0  3  0  0  0  0  0  0  0  0  0  0
  151.1399  141.8480  157.7086 C   0  0  1  0  0  0  0  0  0  0  0  0
  151.6995  140.4128  157.8076 C   0  0  0  0  0  0  0  0  0  0  0  0
  152.1561  142.9273  158.1659 C   0  0  1  0  0  0  0  0  0  0  0  0
  151.6966  144.3567  157.8216 C   0  0  0  0  0  0  0  0  0  0  0  0
  152.4519  142.8333  159.5905 N   0  0  0  0  0  0  0  0  0  0  0  0
  153.1666  141.8618  160.2637 C   0  0  0  0  0  0  0  0  0  0  0  0
  153.1870  142.2103  161.5836 C   0  0  0  0  0  0  0  0  0  0  0  0
  152.4511  143.4271  161.6231 C   0  0  0  0  0  0  0  0  0  0  0  0
  152.0149  143.7976  160.4300 N   0  0  0  0  0  0  0  0  0  0  0  0
  147.1733  139.1067  153.1184 H   0  0  0  0  0  0  0  0  0  0  0  0
  148.1821  138.8829  154.5419 H   0  0  0  0  0  0  0  0  0  0  0  0
  148.9110  138.8883  152.9358 H   0  0  0  0  0  0  0  0  0  0  0  0
  148.2172  141.2850  152.6435 H   0  0  0  0  0  0  0  0  0  0  0  0
  147.5376  141.3042  154.2488 H   0  0  0  0  0  0  0  0  0  0  0  0
  149.9179  142.3136  153.9197 H   0  0  0  0  0  0  0  0  0  0  0  0
  150.4046  140.1484  152.7976 H   0  0  0  0  0  0  0  0  0  0  0  0
  148.7790  141.3271  156.1574 H   0  0  0  0  0  0  0  0  0  0  0  0
  150.0532  140.1321  156.0126 H   0  0  0  0  0  0  0  0  0  0  0  0
  151.5226  142.2009  155.7301 H   0  0  0  0  0  0  0  0  0  0  0  0
  150.2672  141.9167  158.3603 H   0  0  0  0  0  0  0  0  0  0  0  0
  151.9555  140.1467  158.8330 H   0  0  0  0  0  0  0  0  0  0  0  0
  152.5998  140.2995  157.2024 H   0  0  0  0  0  0  0  0  0  0  0  0
  150.9780  139.6705  157.4678 H   0  0  0  0  0  0  0  0  0  0  0  0
  153.0916  142.7506  157.6306 H   0  0  0  0  0  0  0  0  0  0  0  0
  151.5764  144.4923  156.7468 H   0  0  0  0  0  0  0  0  0  0  0  0
  152.4269  145.0931  158.1589 H   0  0  0  0  0  0  0  0  0  0  0  0
  150.7431  144.5960  158.2935 H   0  0  0  0  0  0  0  0  0  0  0  0
  153.5974  141.0129  159.7535 H   0  0  0  0  0  0  0  0  0  0  0  0
  153.6568  141.6777  162.3972 H   0  0  0  0  0  0  0  0  0  0  0  0
  152.2234  144.0482  162.4770 H   0  0  0  0  0  0  0  0  0  0  0  0
  150.2365  143.0243  156.3221 H   0  0  0  0  0  0  0  0  0  0  0  0
  1  2  1  0  0  0  0
  1 16  1  0  0  0  0
  1 17  1  0  0  0  0
  1 18  1  0  0  0  0
  2  3  1  0  0  0  0
  2 19  1  0  0  0  0
  2 20  1  0  0  0  0
  3  4  1  0  0  0  0
  3  5  1  0  0  0  0
  3 21  1  0  0  0  0
  4 22  1  0  0  0  0
  5  6  1  0  0  0  0
  5 23  1  0  0  0  0
  5 24  1  0  0  0  0
  6  7  1  0  0  0  0
  6 25  1  0  0  0  0
  6 37  1  0  0  0  0
  7  8  1  0  0  0  0
  7  9  1  0  0  0  0
  7 26  1  0  0  0  0
  8 27  1  0  0  0  0
  8 28  1  0  0  0  0
  8 29  1  0  0  0  0
  9 10  1  0  0  0  0
  9 11  1  0  0  0  0
  9 30  1  0  0  0  0
 10 31  1  0  0  0  0
 10 32  1  0  0  0  0
 10 33  1  0  0  0  0
 11 15  1  0  0  0  0
 11 12  1  0  0  0  0
 12 13  2  0  0  0  0
 12 34  1  0  0  0  0
 13 14  1  0  0  0  0
 13 35  1  0  0  0  0
 14 15  2  0  0  0  0
 14 36  1  0  0  0  0
M  CHG  1   6   1
M  END
> <s_m_source_file>
AV-unprocessed.smi

> <i_m_source_file_index>
3112

> <i_lp_mmshare_version>
43012

> <i_f3d_flags>
0

> <s_epik_input>
W0NIM11bQ0gyXVtDQEhdKFtPSF0pW0NIMl1bTkhdW0NASF0oW0NIM10pW0NASF0oW0NIM10pbjFbY0hdW2NIXVtjSF1uMQ==

> <s_epik_cmdline>
J2VwaWtfcHl0aG9uJywgJy1waCcsICc3LjAnLCAnLXRuJywgJzgnLCAnLW1hJywgJzIwMCcsICctbWV0YWxfYmluZGluZycsICctaW1hZScsICc8aW5maWxlLm1hZT4nLCAnLW9tYWUnLCAnPG91dGZpbGUubWFlPic=

> <r_lp_tautomer_probability>
1

> <r_epik_Ionization_Penalty>
0.0154842

> <r_epik_Ionization_Penalty_Charging>
0.0154724

> <r_epik_Ionization_Penalty_Neutral>
1.17979e-05

> <r_epik_State_Penalty>
0.0121607

> <r_epik_Charging_Adjusted_Penalty>
0.0276331

> <i_epik_Tot_Q>
1

> <i_epik_Tot_abs_Q>
1

> <r_epik_Metal_State_Penalty>
0.0121863

> <b_epik_Metal_Only>
0

> <s_lp_Force_Field>
OPLS_2005

> <r_lp_Energy>
13.0446

> <b_lp_Chiralities_Consistent>
1

> <s_lp_Variant>
AV-unprocessed.smi:3112-7

> <Gold.Version>
5.8.1

> <Gold.Id.Protein>
6NUR|6NUR_protein|mol2

> <Gold.PLP.Fitness>
50.1683

> <Gold.PLP.PLP>
-40.6490

> <Gold.PLP.part.hbond>
-3.0000

> <Gold.PLP.part.metal>
0.0000

> <Gold.PLP.part.buried>
-5.0704

> <Gold.PLP.part.nonpolar>
-32.2831

> <Gold.PLP.part.repulsive>
0.1508

> <Gold.PLP.ligand.clash>
0.0000

> <Gold.PLP.ligand.torsion>
1.0153

> <Gold.PLP.Chemscore.Hbond>
3.8000

> <Gold.PLP.Chemscore.CHOScore>
0.0000

> <Gold.PLP.Chemscore.Metal>
0.0000

> <Gold.Chemscore.Hbonds>
donor molecule, donor type, donor heavy atom, donor atom, acceptor molecule, acceptor atom, score
      L1  H     4    22       P1  7957  1.00
      L1  H     6    37       P1  8028  0.85

> <Gold.PLP.Chemscore.Internal.Correction>
0.1500

> <Gold.Rescore>
     Score         DG    S(hbond)    S(metal)    S(lipo)     H(rot)  DE(clash)    DE(int)     intcor
     16.82     -18.10       2.30        0.00      95.05       2.41       0.20       1.08       ----

> <Gold.Chemscore.Fitness>
16.8230

> <Gold.Chemscore.DG>
-18.1021

> <Gold.Chemscore.ZeroCoef>
-5.4800

> <Gold.Chemscore.Hbond>
2.2956

> <Gold.Chemscore.Metal>
0.0000

> <Gold.Chemscore.Lipo>
95.0546

> <Gold.Chemscore.Internal_Hbond>
0.0000

> <Gold.Chemscore.DEClash>
0.1954

> <Gold.Chemscore.DEInternal>
1.0837

> <Gold.Chemscore.Rot>
2.4089

> <Gold.Chemscore.Internal.Correction>
   9.000000E+99

> <Gold.Chemscore.Hbonds>
donor molecule, donor type, donor heavy atom, donor atom, acceptor molecule, acceptor atom, score
      L1  H     4    22       P1  7957  0.98
      L1  H     6    37       P1  8028  0.41

> <Gold.Chemscore.Hbond.Weighted>
-7.6674

> <Gold.Chemscore.Metal.Weighted>
-0.0000

> <Gold.Chemscore.Lipo.Weighted>
-11.1214

> <Gold.Chemscore.Internal_Hbond.Weighted>
0.0000

> <Gold.Chemscore.DEClash.Weighted>
0.1954

> <Gold.Chemscore.DEInternal.Weighted>
1.0837

> <Gold.Chemscore.Rot.Weighted>
6.1667

> <Gold.Chemscore.Internal.Correction.Weighted>
   9.000000E+99

> <Gold.Protein.RotatedTorsions>
[ 6907 6896 6895 6894 ] final  148.56 input  -60.11 | X-H torsion
[ 7974 7965 7964 7962 ] final -149.28 input  175.53 | X-H torsion
[ 8008 7997 7996 7995 ] final  -33.86 input   59.86 | X-H torsion
[ 10167 10162 10161 10158 ] final  176.10 input  -65.29 | X-H torsion
[ 10718 10713 10712 10709 ] final   59.21 input   66.30 | X-H torsion
[ 10763 10752 10751 10750 ] final   87.67 input  -60.55 | X-H torsion
[ 11005 11000 10999 10996 ] final  -30.86 input  -57.11 | X-H torsion

> <Gold.Protein.ActiveResidues>
 VAL166  LYS551  ARG553  GLY616  TRP617  ASP618  TYR619  PRO620  LYS621  CYS622 
 ASP623  PHE694  ASN695  SER759  ASP760  ASP761  ALA762  ILE779  LEU786  VAL792 
 PHE793  MET794  SER795  GLU796  ALA797  LYS798  CYS799  TRP800  GLU811  SER814 

> <Gold.Protein.RotatedAtoms>
  152.1399  133.4457  159.4761 H   0  0  0  0  0  0  0  0  0  0  0  0  # atno 6907 bound_to 6896
  150.6885  134.2318  159.4447 H   0  0  0  0  0  0  0  0  0  0  0  0  # atno 6908 bound_to 6896
  152.0208  134.9823  160.0621 H   0  0  0  0  0  0  0  0  0  0  0  0  # atno 6909 bound_to 6896
  144.7977  140.5085  143.5729 H   0  0  0  0  0  0  0  0  0  0  0  0  # atno 7974 bound_to 7965
  154.4137  140.1699  156.1957 H   0  0  0  0  0  0  0  0  0  0  0  0  # atno 8008 bound_to 7997
  155.9566  140.3397  155.6430 H   0  0  0  0  0  0  0  0  0  0  0  0  # atno 8009 bound_to 7997
  155.6802  140.0721  157.2478 H   0  0  0  0  0  0  0  0  0  0  0  0  # atno 8010 bound_to 7997
  139.5201  144.2955  152.0426 H   0  0  0  0  0  0  0  0  0  0  0  0  # atno 10167 bound_to 10162
  157.5658  130.8870  149.9185 H   0  0  0  0  0  0  0  0  0  0  0  0  # atno 10718 bound_to 10713
  153.1691  135.4535  154.9878 H   0  0  0  0  0  0  0  0  0  0  0  0  # atno 10763 bound_to 10752
  154.7953  135.3235  154.7683 H   0  0  0  0  0  0  0  0  0  0  0  0  # atno 10764 bound_to 10752
  153.8162  135.6950  153.4888 H   0  0  0  0  0  0  0  0  0  0  0  0  # atno 10765 bound_to 10752
  140.9419  133.7273  156.1089 H   0  0  0  0  0  0  0  0  0  0  0  0  # atno 11005 bound_to 11000
  145.5632  139.1480  143.3330 LP  0  0  0  0  0  0  0  0  0  0  0  0  # atno 17320 bound_to 7965
  146.2250  140.5767  142.9000 LP  0  0  0  0  0  0  0  0  0  0  0  0  # atno 17321 bound_to 7965
  140.2404  144.4275  150.6262 LP  0  0  0  0  0  0  0  0  0  0  0  0  # atno 17342 bound_to 10162
  140.6294  143.2185  151.6527 LP  0  0  0  0  0  0  0  0  0  0  0  0  # atno 17343 bound_to 10162
  156.0706  130.3685  150.0783 LP  0  0  0  0  0  0  0  0  0  0  0  0  # atno 17370 bound_to 10713
  156.8942  130.9599  151.3584 LP  0  0  0  0  0  0  0  0  0  0  0  0  # atno 17371 bound_to 10713
  140.7722  134.3819  157.5505 LP  0  0  0  0  0  0  0  0  0  0  0  0  # atno 17394 bound_to 11000
  139.8822  134.9029  156.2844 LP  0  0  0  0  0  0  0  0  0  0  0  0  # atno 17395 bound_to 11000

$$$$
