AV-unprocessed.smi:779|AV-procd|sdf|3705|dock5
  -GOLD-   22720 1123D 1   1.00000     0.00000
 Structure written by MMmdl.
 20 20  0  0  0  0  0  0  0  0  3 V2000
  151.7953  137.2905  154.7052 O   0  0  0  0  0  0  0  0  0  0  0  0
  151.8209  138.5227  154.9245 C   0  0  0  0  0  0  0  0  0  0  0  0
  152.8177  139.1672  155.3207 O   0  5  0  0  0  0  0  0  0  0  0  0
  150.4536  139.2826  154.6403 C   0  0  0  0  0  0  0  0  0  0  0  0
  149.3849  138.7018  154.0542 C   0  0  0  0  0  0  0  0  0  0  0  0
  148.1923  139.3970  153.7994 N   0  0  0  0  0  0  0  0  0  0  0  0
  147.1021  138.6594  153.1472 C   0  0  0  0  0  0  0  0  0  0  0  0
  146.7615  139.2679  151.7778 C   0  0  0  0  0  0  0  0  0  0  0  0
  146.6177  138.2433  150.8178 O   0  0  0  0  0  0  0  0  0  0  0  0
  148.0883  140.7165  154.1275 C   0  0  0  0  0  0  0  0  0  0  0  0
  147.0417  141.3140  153.8715 O   0  0  0  0  0  0  0  0  0  0  0  0
  149.1524  141.3307  154.7273 N   0  5  0  0  0  0  0  0  0  0  0  0
  150.3343  140.7086  155.0166 C   0  0  0  0  0  0  0  0  0  0  0  0
  151.2425  141.3288  155.5694 O   0  0  0  0  0  0  0  0  0  0  0  0
  149.3797  137.6698  153.7347 H   0  0  0  0  0  0  0  0  0  0  0  0
  147.3855  137.6129  153.0240 H   0  0  0  0  0  0  0  0  0  0  0  0
  146.2158  138.6409  153.7838 H   0  0  0  0  0  0  0  0  0  0  0  0
  145.8354  139.8415  151.8268 H   0  0  0  0  0  0  0  0  0  0  0  0
  147.5500  139.9471  151.4525 H   0  0  0  0  0  0  0  0  0  0  0  0
  145.7435  138.2893  150.4622 H   0  0  0  0  0  0  0  0  0  0  0  0
  1  2  2  0  0  0  0
  2  3  1  0  0  0  0
  2  4  1  0  0  0  0
  4 13  1  0  0  0  0
  4  5  2  0  0  0  0
  5  6  1  0  0  0  0
  5 15  1  0  0  0  0
  6  7  1  0  0  0  0
  6 10  1  0  0  0  0
  7  8  1  0  0  0  0
  7 16  1  0  0  0  0
  7 17  1  0  0  0  0
  8  9  1  0  0  0  0
  8 18  1  0  0  0  0
  8 19  1  0  0  0  0
  9 20  1  0  0  0  0
 10 11  2  0  0  0  0
 10 12  1  0  0  0  0
 12 13  1  0  0  0  0
 13 14  2  0  0  0  0
M  CHG  1   3  -1
M  CHG  1  12  -1
M  END
> <s_m_source_file>
AV-unprocessed.smi

> <i_m_source_file_index>
779

> <i_lp_mmshare_version>
43012

> <i_f3d_flags>
0

> <s_epik_input>
Tz1DKFtPSF0pYzFbY0hdbihbQ0gyXVtDSDJdW09IXSljKD1PKVtuSF1jMT1P

> <s_epik_cmdline>
J2VwaWtfcHl0aG9uJywgJy1waCcsICc3LjAnLCAnLXRuJywgJzgnLCAnLW1hJywgJzIwMCcsICctbWV0YWxfYmluZGluZycsICctaW1hZScsICc8aW5maWxlLm1hZT4nLCAnLW9tYWUnLCAnPG91dGZpbGUubWFlPic=

> <r_lp_tautomer_probability>
1

> <r_epik_Ionization_Penalty>
3.89082

> <r_epik_Ionization_Penalty_Charging>
0.00124607

> <r_epik_Ionization_Penalty_Neutral>
3.88958

> <r_epik_State_Penalty>
3.88874

> <r_epik_Charging_Adjusted_Penalty>
3.88999

> <i_epik_Tot_Q>
-2

> <i_epik_Tot_abs_Q>
2

> <r_epik_Metal_State_Penalty>
0.317414

> <b_epik_Metal_Only>
1

> <s_lp_Force_Field>
OPLS_2005

> <r_lp_Energy>
29.4188

> <b_lp_Chiralities_Consistent>
1

> <s_lp_Variant>
AV-unprocessed.smi:779-2

> <Gold.Version>
5.8.1

> <Gold.Id.Protein>
6NUR|6NUR_protein|mol2

> <Gold.PLP.Fitness>
45.9719

> <Gold.PLP.PLP>
-25.6755

> <Gold.PLP.part.hbond>
-5.4083

> <Gold.PLP.part.metal>
0.0000

> <Gold.PLP.part.buried>
1.0519

> <Gold.PLP.part.nonpolar>
-20.8650

> <Gold.PLP.part.repulsive>
0.4639

> <Gold.PLP.ligand.clash>
0.0000

> <Gold.PLP.ligand.torsion>
0.3535

> <Gold.PLP.Chemscore.Hbond>
6.0000

> <Gold.PLP.Chemscore.CHOScore>
1.0000

> <Gold.PLP.Chemscore.Metal>
0.0000

> <Gold.Chemscore.Hbonds>
donor molecule, donor type, donor heavy atom, donor atom, acceptor molecule, acceptor atom, score
      L1  H     9    20       P1 10171  1.00
      P1  H  7954  7966       L1     9  1.00
      P1  H  7997  8010       L1     3  2.00
      P1  H 10752 10764       L1     1  1.98
      L1  C     5    15       P1  7948  1.00

> <Gold.PLP.Chemscore.Internal.Correction>
0.0034

> <Gold.Rescore>
     Score         DG    S(hbond)    S(metal)    S(lipo)     H(rot)  DE(clash)    DE(int)     intcor
     13.01     -16.14       3.81        0.00      29.80       2.17       0.01       3.12       ----

> <Gold.Chemscore.Fitness>
13.0078

> <Gold.Chemscore.DG>
-16.1402

> <Gold.Chemscore.ZeroCoef>
-5.4800

> <Gold.Chemscore.Hbond>
3.8085

> <Gold.Chemscore.Metal>
0.0000

> <Gold.Chemscore.Lipo>
29.7991

> <Gold.Chemscore.Internal_Hbond>
0.0000

> <Gold.Chemscore.DEClash>
0.0107

> <Gold.Chemscore.DEInternal>
3.1218

> <Gold.Chemscore.Rot>
2.1667

> <Gold.Chemscore.Internal.Correction>
   9.000000E+99

> <Gold.Chemscore.Hbonds>
donor molecule, donor type, donor heavy atom, donor atom, acceptor molecule, acceptor atom, score
      L1  H     9    20       P1 10171  0.97
      P1  H  7954  7966       L1     9  0.85
      P1  H  7997  8010       L1     3  0.97
      P1  H 10752 10764       L1     1  0.89

> <Gold.Chemscore.Hbond.Weighted>
-12.7204

> <Gold.Chemscore.Metal.Weighted>
-0.0000

> <Gold.Chemscore.Lipo.Weighted>
-3.4865

> <Gold.Chemscore.Internal_Hbond.Weighted>
0.0000

> <Gold.Chemscore.DEClash.Weighted>
0.0107

> <Gold.Chemscore.DEInternal.Weighted>
3.1218

> <Gold.Chemscore.Rot.Weighted>
5.5467

> <Gold.Chemscore.Internal.Correction.Weighted>
   9.000000E+99

> <Gold.Protein.RotatedTorsions>
[ 6907 6896 6895 6894 ] final  111.51 input  -60.11 | X-H torsion
[ 7974 7965 7964 7962 ] final  -91.55 input  175.53 | X-H torsion
[ 8008 7997 7996 7995 ] final   95.61 input   59.86 | X-H torsion
[ 10167 10162 10161 10158 ] final   77.88 input  -65.29 | X-H torsion
[ 10718 10713 10712 10709 ] final  -20.95 input   66.30 | X-H torsion
[ 10763 10752 10751 10750 ] final  -69.48 input  -60.55 | X-H torsion
[ 11005 11000 10999 10996 ] final  -18.35 input  -57.11 | X-H torsion

> <Gold.Protein.ActiveResidues>
 VAL166  LYS551  ARG553  GLY616  TRP617  ASP618  TYR619  PRO620  LYS621  CYS622 
 ASP623  PHE694  ASN695  SER759  ASP760  ASP761  ALA762  ILE779  LEU786  VAL792 
 PHE793  MET794  SER795  GLU796  ALA797  LYS798  CYS799  TRP800  GLU811  SER814 

> <Gold.Protein.RotatedAtoms>
  152.4965  133.8647  159.7267 H   0  0  0  0  0  0  0  0  0  0  0  0  # atno 6907 bound_to 6896
  150.9149  133.6942  159.2852 H   0  0  0  0  0  0  0  0  0  0  0  0  # atno 6908 bound_to 6896
  151.4339  135.1017  159.9703 H   0  0  0  0  0  0  0  0  0  0  0  0  # atno 6909 bound_to 6896
  145.4117  140.9545  143.2230 H   0  0  0  0  0  0  0  0  0  0  0  0  # atno 7974 bound_to 7965
  156.0707  140.3284  155.7572 H   0  0  0  0  0  0  0  0  0  0  0  0  # atno 8008 bound_to 7997
  155.5310  140.0593  157.2906 H   0  0  0  0  0  0  0  0  0  0  0  0  # atno 8009 bound_to 7997
  154.4528  140.1927  156.0484 H   0  0  0  0  0  0  0  0  0  0  0  0  # atno 8010 bound_to 7997
  139.9768  144.5855  150.7936 H   0  0  0  0  0  0  0  0  0  0  0  0  # atno 10167 bound_to 10162
  156.5248  130.4641  149.6578 H   0  0  0  0  0  0  0  0  0  0  0  0  # atno 10718 bound_to 10713
  154.4040  135.6024  153.5914 H   0  0  0  0  0  0  0  0  0  0  0  0  # atno 10763 bound_to 10752
  152.9789  135.5913  154.4150 H   0  0  0  0  0  0  0  0  0  0  0  0  # atno 10764 bound_to 10752
  154.3952  135.2842  155.2108 H   0  0  0  0  0  0  0  0  0  0  0  0  # atno 10765 bound_to 10752
  140.8259  133.8033  155.9708 H   0  0  0  0  0  0  0  0  0  0  0  0  # atno 11005 bound_to 11000
  144.8305  139.5637  143.6946 LP  0  0  0  0  0  0  0  0  0  0  0  0  # atno 17320 bound_to 7965
  146.2701  139.6616  142.9301 LP  0  0  0  0  0  0  0  0  0  0  0  0  # atno 17321 bound_to 7965
  140.7503  143.2953  151.3222 LP  0  0  0  0  0  0  0  0  0  0  0  0  # atno 17342 bound_to 10162
  139.6439  144.0487  152.2576 LP  0  0  0  0  0  0  0  0  0  0  0  0  # atno 17343 bound_to 10162
  156.3115  130.7231  151.2125 LP  0  0  0  0  0  0  0  0  0  0  0  0  # atno 17370 bound_to 10713
  157.7431  131.0480  150.4972 LP  0  0  0  0  0  0  0  0  0  0  0  0  # atno 17371 bound_to 10713
  140.9049  134.2332  157.5020 LP  0  0  0  0  0  0  0  0  0  0  0  0  # atno 17394 bound_to 11000
  139.8706  134.9724  156.4770 LP  0  0  0  0  0  0  0  0  0  0  0  0  # atno 17395 bound_to 11000

$$$$
