AV-unprocessed.smi:148|AV-procd|sdf|1211|dock5
  -GOLD-   2262018383D 1   1.00000     0.00000
 Structure written by MMmdl.
 63 67  0  0  0  0  0  0  0  0  1 V2000
  149.4318  135.6563  158.3460 O   0  0  0  0  0  0  0  0  0  0  0  0
  148.7948  135.8832  159.5859 C   0  0  0  0  0  0  0  0  0  0  0  0
  147.4641  135.0984  159.6675 C   0  0  1  0  0  0  0  0  0  0  0  0
  147.6338  133.6820  159.0638 C   0  0  0  0  0  0  0  0  0  0  0  0
  146.9549  133.5127  157.7914 N   0  0  0  0  0  0  0  0  0  0  0  0
  145.6079  133.6586  157.5466 C   0  0  0  0  0  0  0  0  0  0  0  0
  145.2425  133.4523  156.3109 N   0  0  0  0  0  0  0  0  0  0  0  0
  146.4262  133.1320  155.6570 C   0  0  0  0  0  0  0  0  0  0  0  0
  146.7638  132.7927  154.3163 C   0  0  0  0  0  0  0  0  0  0  0  0
  145.8803  132.7071  153.2967 N   0  0  0  0  0  0  0  0  0  0  0  0
  146.1673  131.5247  152.4850 C   0  0  0  0  0  0  0  0  0  0  0  0
  145.0418  131.2502  151.4804 C   0  0  0  0  0  0  0  0  0  0  0  0
  144.7913  132.4885  150.6148 C   0  0  0  0  0  0  0  0  0  0  0  0
  144.4843  133.6981  151.5077 C   0  0  0  0  0  0  0  0  0  0  0  0
  145.6079  133.9499  152.5497 C   0  0  1  0  0  0  0  0  0  0  0  0
  145.3242  135.1733  153.4872 C   0  0  2  0  0  0  0  0  0  0  0  0
  143.9705  135.0923  154.2311 C   0  0  0  0  0  0  0  0  0  0  0  0
  143.1904  136.3710  153.8931 C   0  0  0  0  0  0  0  0  0  0  0  0
  143.8534  136.9364  152.6385 C   0  0  0  0  0  0  0  0  0  0  0  0
  145.3242  136.5691  152.8248 C   0  0  2  0  0  0  0  0  0  0  0  0
  146.0816  136.6750  151.6361 O   0  0  0  0  0  0  0  0  0  0  0  0
  148.0652  132.5442  154.0297 N   0  0  0  0  0  0  0  0  0  0  0  0
  148.9853  132.6084  154.9968 C   0  0  0  0  0  0  0  0  0  0  0  0
  148.8205  132.9030  156.2885 N   0  0  0  0  0  0  0  0  0  0  0  0
  147.5125  133.1632  156.5749 C   0  0  0  0  0  0  0  0  0  0  0  0
  146.8479  135.0698  161.0944 C   0  0  2  0  0  0  0  0  0  0  0  0
  146.8770  136.3995  161.8504 C   0  0  0  0  0  0  0  0  0  0  0  0
  147.5524  136.0598  163.1779 C   0  0  0  0  0  0  0  0  0  0  0  0
  147.2924  134.6757  163.3434 O   0  0  0  0  0  0  0  0  0  0  0  0
  147.4869  134.0747  162.0740 C   0  0  0  0  0  0  0  0  0  0  0  0
  149.2686  136.3975  157.7829 H   0  0  0  0  0  0  0  0  0  0  0  0
  149.4754  135.5928  160.3860 H   0  0  0  0  0  0  0  0  0  0  0  0
  148.6357  136.9564  159.6795 H   0  0  0  0  0  0  0  0  0  0  0  0
  146.7432  135.6307  159.0447 H   0  0  0  0  0  0  0  0  0  0  0  0
  148.6892  133.4570  158.9064 H   0  0  0  0  0  0  0  0  0  0  0  0
  147.2594  132.9283  159.7575 H   0  0  0  0  0  0  0  0  0  0  0  0
  144.9007  133.9317  158.3163 H   0  0  0  0  0  0  0  0  0  0  0  0
  147.1084  131.6701  151.9523 H   0  0  0  0  0  0  0  0  0  0  0  0
  146.2982  130.6533  153.1288 H   0  0  0  0  0  0  0  0  0  0  0  0
  145.3004  130.3976  150.8522 H   0  0  0  0  0  0  0  0  0  0  0  0
  144.1295  130.9813  152.0143 H   0  0  0  0  0  0  0  0  0  0  0  0
  145.6687  132.6954  150.0009 H   0  0  0  0  0  0  0  0  0  0  0  0
  143.9637  132.3076  149.9285 H   0  0  0  0  0  0  0  0  0  0  0  0
  144.3460  134.5673  150.8675 H   0  0  0  0  0  0  0  0  0  0  0  0
  143.5290  133.5313  152.0045 H   0  0  0  0  0  0  0  0  0  0  0  0
  146.5127  134.1750  151.9849 H   0  0  0  0  0  0  0  0  0  0  0  0
  146.1186  135.2148  154.2329 H   0  0  0  0  0  0  0  0  0  0  0  0
  143.3985  134.2143  153.9329 H   0  0  0  0  0  0  0  0  0  0  0  0
  144.1200  135.0060  155.3080 H   0  0  0  0  0  0  0  0  0  0  0  0
  142.1256  136.1844  153.7510 H   0  0  0  0  0  0  0  0  0  0  0  0
  143.2921  137.0854  154.7111 H   0  0  0  0  0  0  0  0  0  0  0  0
  143.4401  136.4542  151.7528 H   0  0  0  0  0  0  0  0  0  0  0  0
  143.6999  138.0108  152.5328 H   0  0  0  0  0  0  0  0  0  0  0  0
  145.7522  137.2794  153.5344 H   0  0  0  0  0  0  0  0  0  0  0  0
  146.9790  136.4526  151.8309 H   0  0  0  0  0  0  0  0  0  0  0  0
  149.9989  132.3937  154.6919 H   0  0  0  0  0  0  0  0  0  0  0  0
  145.7924  134.8081  161.0127 H   0  0  0  0  0  0  0  0  0  0  0  0
  147.3930  137.2023  161.3244 H   0  0  0  0  0  0  0  0  0  0  0  0
  145.8567  136.7413  162.0296 H   0  0  0  0  0  0  0  0  0  0  0  0
  148.6299  136.2217  163.1157 H   0  0  0  0  0  0  0  0  0  0  0  0
  147.1650  136.6465  164.0111 H   0  0  0  0  0  0  0  0  0  0  0  0
  147.0260  133.0879  162.0273 H   0  0  0  0  0  0  0  0  0  0  0  0
  148.5569  133.9546  161.9062 H   0  0  0  0  0  0  0  0  0  0  0  0
  1  2  1  0  0  0  0
  1 31  1  0  0  0  0
  2  3  1  0  0  0  0
  2 32  1  0  0  0  0
  2 33  1  0  0  0  0
  3  4  1  0  0  0  0
  3 26  1  0  0  0  0
  3 34  1  0  0  0  0
  4  5  1  0  0  0  0
  4 35  1  0  0  0  0
  4 36  1  0  0  0  0
  5 25  1  0  0  0  0
  5  6  1  0  0  0  0
  6  7  2  0  0  0  0
  6 37  1  0  0  0  0
  7  8  1  0  0  0  0
  8 25  2  0  0  0  0
  8  9  1  0  0  0  0
  9 10  1  0  0  0  0
  9 22  2  0  0  0  0
 10 15  1  0  0  0  0
 10 11  1  0  0  0  0
 11 12  1  0  0  0  0
 11 38  1  0  0  0  0
 11 39  1  0  0  0  0
 12 13  1  0  0  0  0
 12 40  1  0  0  0  0
 12 41  1  0  0  0  0
 13 14  1  0  0  0  0
 13 42  1  0  0  0  0
 13 43  1  0  0  0  0
 14 15  1  0  0  0  0
 14 44  1  0  0  0  0
 14 45  1  0  0  0  0
 15 16  1  0  0  0  0
 15 46  1  0  0  0  0
 16 20  1  0  0  0  0
 16 17  1  0  0  0  0
 16 47  1  0  0  0  0
 17 18  1  0  0  0  0
 17 48  1  0  0  0  0
 17 49  1  0  0  0  0
 18 19  1  0  0  0  0
 18 50  1  0  0  0  0
 18 51  1  0  0  0  0
 19 20  1  0  0  0  0
 19 52  1  0  0  0  0
 19 53  1  0  0  0  0
 20 21  1  0  0  0  0
 20 54  1  0  0  0  0
 21 55  1  0  0  0  0
 22 23  1  0  0  0  0
 23 24  2  0  0  0  0
 23 56  1  0  0  0  0
 24 25  1  0  0  0  0
 26 30  1  0  0  0  0
 26 27  1  0  0  0  0
 26 57  1  0  0  0  0
 27 28  1  0  0  0  0
 27 58  1  0  0  0  0
 27 59  1  0  0  0  0
 28 29  1  0  0  0  0
 28 60  1  0  0  0  0
 28 61  1  0  0  0  0
 29 30  1  0  0  0  0
 30 62  1  0  0  0  0
 30 63  1  0  0  0  0
M  END
> <s_m_source_file>
AV-unprocessed.smi

> <i_m_source_file_index>
148

> <i_lp_mmshare_version>
43012

> <i_f3d_flags>
0

> <s_epik_input>
W0NIMl0xT1tDSDJdW0NIMl1bQ0BIXTFbQ0BIXShbQ0gyXVtPSF0pW0NIMl1uKFtjSF1uMiljKGMyMyluW2NIXW5jM040W0NIMl1bQ0gyXVtDSDJdW0NIMl1bQ0BIXTRbQ0BASF01W0NIMl1bQ0gyXVtDSDJdW0NASF01W09IXQ==

> <s_epik_cmdline>
J2VwaWtfcHl0aG9uJywgJy1waCcsICc3LjAnLCAnLXRuJywgJzgnLCAnLW1hJywgJzIwMCcsICctbWV0YWxfYmluZGluZycsICctaW1hZScsICc8aW5maWxlLm1hZT4nLCAnLW9tYWUnLCAnPG91dGZpbGUubWFlPic=

> <r_lp_tautomer_probability>
1

> <r_epik_Ionization_Penalty>
0.00556303

> <r_epik_Ionization_Penalty_Charging>
0

> <r_epik_Ionization_Penalty_Neutral>
0.00556303

> <r_epik_State_Penalty>
0.00401767

> <r_epik_Charging_Adjusted_Penalty>
0.00401767

> <i_epik_Tot_Q>
0

> <i_epik_Tot_abs_Q>
0

> <r_epik_Metal_State_Penalty>
-0

> <b_epik_Metal_Only>
0

> <s_lp_Force_Field>
OPLS_2005

> <r_lp_Energy>
71.509

> <b_lp_Chiralities_Consistent>
1

> <s_lp_Variant>
AV-unprocessed.smi:148-10

> <Gold.Version>
5.8.1

> <Gold.Id.Protein>
6NUR|6NUR_protein|mol2

> <Gold.PLP.Fitness>
38.8781

> <Gold.PLP.PLP>
-38.8201

> <Gold.PLP.part.hbond>
-2.6424

> <Gold.PLP.part.metal>
0.0000

> <Gold.PLP.part.buried>
-7.4007

> <Gold.PLP.part.nonpolar>
-28.7164

> <Gold.PLP.part.repulsive>
0.3161

> <Gold.PLP.ligand.clash>
0.0000

> <Gold.PLP.ligand.torsion>
1.7302

> <Gold.PLP.Chemscore.Hbond>
1.0000

> <Gold.PLP.Chemscore.CHOScore>
0.0000

> <Gold.PLP.Chemscore.Metal>
0.0000

> <Gold.Chemscore.Hbonds>
donor molecule, donor type, donor heavy atom, donor atom, acceptor molecule, acceptor atom, score
      L1  H    21    55       P1  7948  1.00

> <Gold.PLP.Chemscore.Internal.Correction>
0.5184

> <Gold.Rescore>
     Score         DG    S(hbond)    S(metal)    S(lipo)     H(rot)  DE(clash)    DE(int)     intcor
      9.63     -11.25       0.99        0.00      93.71       3.32       0.03       1.59       ----

> <Gold.Chemscore.Fitness>
9.6334

> <Gold.Chemscore.DG>
-11.2534

> <Gold.Chemscore.ZeroCoef>
-5.4800

> <Gold.Chemscore.Hbond>
0.9907

> <Gold.Chemscore.Metal>
0.0000

> <Gold.Chemscore.Lipo>
93.7130

> <Gold.Chemscore.Internal_Hbond>
0.0000

> <Gold.Chemscore.DEClash>
0.0310

> <Gold.Chemscore.DEInternal>
1.5890

> <Gold.Chemscore.Rot>
3.3203

> <Gold.Chemscore.Internal.Correction>
   9.000000E+99

> <Gold.Chemscore.Hbonds>
donor molecule, donor type, donor heavy atom, donor atom, acceptor molecule, acceptor atom, score
      L1  H    21    55       P1  7948  0.99

> <Gold.Chemscore.Hbond.Weighted>
-3.3090

> <Gold.Chemscore.Metal.Weighted>
-0.0000

> <Gold.Chemscore.Lipo.Weighted>
-10.9644

> <Gold.Chemscore.Internal_Hbond.Weighted>
0.0000

> <Gold.Chemscore.DEClash.Weighted>
0.0310

> <Gold.Chemscore.DEInternal.Weighted>
1.5890

> <Gold.Chemscore.Rot.Weighted>
8.5000

> <Gold.Chemscore.Internal.Correction.Weighted>
   9.000000E+99

> <Gold.Protein.RotatedTorsions>
[ 6907 6896 6895 6894 ] final  -54.00 input  -60.11 | X-H torsion
[ 7974 7965 7964 7962 ] final    6.43 input  175.53 | X-H torsion
[ 8008 7997 7996 7995 ] final   24.78 input   59.86 | X-H torsion
[ 10167 10162 10161 10158 ] final   42.64 input  -65.29 | X-H torsion
[ 10718 10713 10712 10709 ] final -114.91 input   66.30 | X-H torsion
[ 10763 10752 10751 10750 ] final  -80.53 input  -60.55 | X-H torsion
[ 11005 11000 10999 10996 ] final  132.45 input  -57.11 | X-H torsion

> <Gold.Protein.ActiveResidues>
 VAL166  LYS551  ARG553  GLY616  TRP617  ASP618  TYR619  PRO620  LYS621  CYS622 
 ASP623  PHE694  ASN695  SER759  ASP760  ASP761  ALA762  ILE779  LEU786  VAL792 
 PHE793  MET794  SER795  GLU796  ALA797  LYS798  CYS799  TRP800  GLU811  SER814 

> <Gold.Protein.RotatedAtoms>
  150.8376  134.7656  159.6905 H   0  0  0  0  0  0  0  0  0  0  0  0  # atno 6907 bound_to 6896
  152.4470  134.5471  159.9865 H   0  0  0  0  0  0  0  0  0  0  0  0  # atno 6908 bound_to 6896
  151.5617  133.3364  159.3008 H   0  0  0  0  0  0  0  0  0  0  0  0  # atno 6909 bound_to 6896
  146.2434  140.0234  142.8396 H   0  0  0  0  0  0  0  0  0  0  0  0  # atno 7974 bound_to 7965
  155.0015  140.3126  155.4865 H   0  0  0  0  0  0  0  0  0  0  0  0  # atno 8008 bound_to 7997
  156.2924  140.2231  156.5066 H   0  0  0  0  0  0  0  0  0  0  0  0  # atno 8009 bound_to 7997
  154.7614  140.0459  157.0964 H   0  0  0  0  0  0  0  0  0  0  0  0  # atno 8010 bound_to 7997
  140.3523  144.2334  150.6144 H   0  0  0  0  0  0  0  0  0  0  0  0  # atno 10167 bound_to 10162
  156.0861  130.6052  150.8837 H   0  0  0  0  0  0  0  0  0  0  0  0  # atno 10718 bound_to 10713
  154.5523  135.5658  153.6933 H   0  0  0  0  0  0  0  0  0  0  0  0  # atno 10763 bound_to 10752
  152.9993  135.6254  154.2357 H   0  0  0  0  0  0  0  0  0  0  0  0  # atno 10764 bound_to 10752
  154.2293  135.2866  155.2876 H   0  0  0  0  0  0  0  0  0  0  0  0  # atno 10765 bound_to 10752
  139.9791  134.9554  156.9583 H   0  0  0  0  0  0  0  0  0  0  0  0  # atno 11005 bound_to 11000
  145.1220  140.9468  143.4594 LP  0  0  0  0  0  0  0  0  0  0  0  0  # atno 17320 bound_to 7965
  145.0471  139.3212  143.5947 LP  0  0  0  0  0  0  0  0  0  0  0  0  # atno 17321 bound_to 7965
  140.5207  143.2266  151.8394 LP  0  0  0  0  0  0  0  0  0  0  0  0  # atno 17342 bound_to 10162
  139.4824  144.4841  151.9270 LP  0  0  0  0  0  0  0  0  0  0  0  0  # atno 17343 bound_to 10162
  157.5995  131.0942  150.8983 LP  0  0  0  0  0  0  0  0  0  0  0  0  # atno 17370 bound_to 10713
  156.9143  130.5292  149.5280 LP  0  0  0  0  0  0  0  0  0  0  0  0  # atno 17371 bound_to 10713
  140.5134  134.0979  155.7275 LP  0  0  0  0  0  0  0  0  0  0  0  0  # atno 17394 bound_to 11000
  141.1465  133.9046  157.2203 LP  0  0  0  0  0  0  0  0  0  0  0  0  # atno 17395 bound_to 11000

$$$$
