AV-unprocessed.smi:2022|AV-procd|sdf|8188|dock10
  -GOLD-   2272010443D 1   1.00000     0.00000
 Structure written by MMmdl.
 34 35  0  0  0  0  0  0  0  0  1 V2000
  136.5582  137.9674  154.8947 C   0  0  0  0  0  0  0  0  0  0  0  0
  137.9178  137.3928  154.6894 C   0  0  0  0  0  0  0  0  0  0  0  0
  138.7277  137.2887  153.5938 C   0  0  0  0  0  0  0  0  0  0  0  0
  139.8811  136.6394  154.1090 C   0  0  0  0  0  0  0  0  0  0  0  0
  140.9848  136.3427  153.2696 N   0  0  0  0  0  0  0  0  0  0  0  0
  141.9407  135.4196  153.4698 C   0  0  0  0  0  0  0  0  0  0  0  0
  142.0063  134.6645  154.4404 O   0  0  0  0  0  0  0  0  0  0  0  0
  142.8326  135.4182  152.4683 N   0  0  0  0  0  0  0  0  0  0  0  0
  144.0208  134.5673  152.3829 C   0  0  1  0  0  0  0  0  0  0  0  0
  143.8221  133.4794  151.3034 C   0  0  0  0  0  0  0  0  0  0  0  0
  144.7174  132.2433  151.4890 C   0  0  0  0  0  0  0  0  0  0  0  0
  146.2262  132.5154  151.3941 C   0  0  0  0  0  0  0  0  0  0  0  0
  146.7636  133.4177  152.5181 C   0  0  0  0  0  0  0  0  0  0  0  0
  146.4914  134.8297  152.2791 N   0  0  0  0  0  0  0  0  0  0  0  0
  145.2896  135.4200  152.1945 C   0  0  0  0  0  0  0  0  0  0  0  0
  145.2013  136.6253  151.9611 O   0  0  0  0  0  0  0  0  0  0  0  0
  139.7825  136.3682  155.4016 N   0  0  0  0  0  0  0  0  0  0  0  0
  138.5240  136.8505  155.7802 O   0  0  0  0  0  0  0  0  0  0  0  0
  136.1056  138.2465  153.9430 H   0  0  0  0  0  0  0  0  0  0  0  0
  136.6074  138.8590  155.5198 H   0  0  0  0  0  0  0  0  0  0  0  0
  135.9021  137.2460  155.3822 H   0  0  0  0  0  0  0  0  0  0  0  0
  138.5259  137.6259  152.5880 H   0  0  0  0  0  0  0  0  0  0  0  0
  141.0573  136.8966  152.4291 H   0  0  0  0  0  0  0  0  0  0  0  0
  142.7016  136.0773  151.7147 H   0  0  0  0  0  0  0  0  0  0  0  0
  144.1261  134.0759  153.3521 H   0  0  0  0  0  0  0  0  0  0  0  0
  142.7881  133.1330  151.3206 H   0  0  0  0  0  0  0  0  0  0  0  0
  143.9719  133.9053  150.3101 H   0  0  0  0  0  0  0  0  0  0  0  0
  144.4923  131.7734  152.4471 H   0  0  0  0  0  0  0  0  0  0  0  0
  144.4505  131.5081  150.7292 H   0  0  0  0  0  0  0  0  0  0  0  0
  146.7437  131.5569  151.4487 H   0  0  0  0  0  0  0  0  0  0  0  0
  146.4771  132.9336  150.4184 H   0  0  0  0  0  0  0  0  0  0  0  0
  146.3742  133.1128  153.4904 H   0  0  0  0  0  0  0  0  0  0  0  0
  147.8469  133.3086  152.5752 H   0  0  0  0  0  0  0  0  0  0  0  0
  147.2997  135.4210  152.1503 H   0  0  0  0  0  0  0  0  0  0  0  0
  1  2  1  0  0  0  0
  1 19  1  0  0  0  0
  1 20  1  0  0  0  0
  1 21  1  0  0  0  0
  2 18  1  0  0  0  0
  2  3  2  0  0  0  0
  3  4  1  0  0  0  0
  3 22  1  0  0  0  0
  4  5  1  0  0  0  0
  4 17  2  0  0  0  0
  5  6  1  0  0  0  0
  5 23  1  0  0  0  0
  6  7  2  0  0  0  0
  6  8  1  0  0  0  0
  8  9  1  0  0  0  0
  8 24  1  0  0  0  0
  9 15  1  0  0  0  0
  9 10  1  0  0  0  0
  9 25  1  0  0  0  0
 10 11  1  0  0  0  0
 10 26  1  0  0  0  0
 10 27  1  0  0  0  0
 11 12  1  0  0  0  0
 11 28  1  0  0  0  0
 11 29  1  0  0  0  0
 12 13  1  0  0  0  0
 12 30  1  0  0  0  0
 12 31  1  0  0  0  0
 13 14  1  0  0  0  0
 13 32  1  0  0  0  0
 13 33  1  0  0  0  0
 14 15  1  0  0  0  0
 14 34  1  0  0  0  0
 15 16  2  0  0  0  0
 17 18  1  0  0  0  0
M  END
> <s_m_source_file>
AV-unprocessed.smi

> <i_m_source_file_index>
2022

> <i_lp_mmshare_version>
43012

> <i_f3d_flags>
0

> <s_epik_input>
W0NIM11jMVtjSF1jKG5vMSlbTkhdQyg9TylbTkhdW0NAQEhdMltDSDJdW0NIMl1bQ0gyXVtDSDJdW05IXUMyPU8=

> <s_epik_cmdline>
J2VwaWtfcHl0aG9uJywgJy1waCcsICc3LjAnLCAnLXRuJywgJzgnLCAnLW1hJywgJzIwMCcsICctbWV0YWxfYmluZGluZycsICctaW1hZScsICc8aW5maWxlLm1hZT4nLCAnLW9tYWUnLCAnPG91dGZpbGUubWFlPic=

> <r_lp_tautomer_probability>
1

> <r_epik_Ionization_Penalty>
2.27343e-05

> <r_epik_Ionization_Penalty_Charging>
0

> <r_epik_Ionization_Penalty_Neutral>
2.27343e-05

> <r_epik_State_Penalty>
-0

> <r_epik_Charging_Adjusted_Penalty>
0

> <i_epik_Tot_Q>
0

> <i_epik_Tot_abs_Q>
0

> <r_epik_Metal_State_Penalty>
-0

> <b_epik_Metal_Only>
0

> <s_lp_Force_Field>
OPLS_2005

> <r_lp_Energy>
7.86792

> <b_lp_Chiralities_Consistent>
1

> <s_lp_Variant>
AV-unprocessed.smi:2022-2

> <Gold.Version>
5.8.1

> <Gold.Id.Protein>
6NUR|6NUR_protein|mol2

> <Gold.PLP.Fitness>
35.7289

> <Gold.PLP.PLP>
-30.0558

> <Gold.PLP.part.hbond>
-3.4971

> <Gold.PLP.part.metal>
0.0000

> <Gold.PLP.part.buried>
-6.0963

> <Gold.PLP.part.nonpolar>
-22.0308

> <Gold.PLP.part.repulsive>
1.5656

> <Gold.PLP.ligand.clash>
0.0000

> <Gold.PLP.ligand.torsion>
0.1772

> <Gold.PLP.Chemscore.Hbond>
2.0000

> <Gold.PLP.Chemscore.CHOScore>
0.0000

> <Gold.PLP.Chemscore.Metal>
0.0000

> <Gold.Chemscore.Hbonds>
donor molecule, donor type, donor heavy atom, donor atom, acceptor molecule, acceptor atom, score
      L1  H    14    34       P1  7948  1.00
      P1  H 11000 11005       L1    17  1.00

> <Gold.PLP.Chemscore.Internal.Correction>
0.0275

> <Gold.Rescore>
     Score         DG    S(hbond)    S(metal)    S(lipo)     H(rot)  DE(clash)    DE(int)     intcor
     13.69     -15.09       1.82        0.00      52.01       1.00       0.10       1.29       ----

> <Gold.Chemscore.Fitness>
13.6931

> <Gold.Chemscore.DG>
-15.0884

> <Gold.Chemscore.ZeroCoef>
-5.4800

> <Gold.Chemscore.Hbond>
1.8215

> <Gold.Chemscore.Metal>
0.0000

> <Gold.Chemscore.Lipo>
52.0056

> <Gold.Chemscore.Internal_Hbond>
0.0000

> <Gold.Chemscore.DEClash>
0.1009

> <Gold.Chemscore.DEInternal>
1.2943

> <Gold.Chemscore.Rot>
1.0000

> <Gold.Chemscore.Internal.Correction>
   9.000000E+99

> <Gold.Chemscore.Hbonds>
donor molecule, donor type, donor heavy atom, donor atom, acceptor molecule, acceptor atom, score
      L1  H    14    34       P1  7948  1.00
      P1  H 11000 11005       L1    17  0.29

> <Gold.Chemscore.Hbond.Weighted>
-6.0837

> <Gold.Chemscore.Metal.Weighted>
-0.0000

> <Gold.Chemscore.Lipo.Weighted>
-6.0847

> <Gold.Chemscore.Internal_Hbond.Weighted>
0.0000

> <Gold.Chemscore.DEClash.Weighted>
0.1009

> <Gold.Chemscore.DEInternal.Weighted>
1.2943

> <Gold.Chemscore.Rot.Weighted>
2.5600

> <Gold.Chemscore.Internal.Correction.Weighted>
   9.000000E+99

> <Gold.Protein.RotatedTorsions>
[ 6907 6896 6895 6894 ] final -136.80 input  -60.11 | X-H torsion
[ 7974 7965 7964 7962 ] final  161.02 input  175.53 | X-H torsion
[ 8008 7997 7996 7995 ] final -134.91 input   59.86 | X-H torsion
[ 10167 10162 10161 10158 ] final -164.80 input  -65.29 | X-H torsion
[ 10718 10713 10712 10709 ] final    1.70 input   66.30 | X-H torsion
[ 10763 10752 10751 10750 ] final  110.99 input  -60.55 | X-H torsion
[ 11005 11000 10999 10996 ] final   93.95 input  -57.11 | X-H torsion

> <Gold.Protein.ActiveResidues>
 VAL166  LYS551  ARG553  GLY616  TRP617  ASP618  TYR619  PRO620  LYS621  CYS622 
 ASP623  PHE694  ASN695  SER759  ASP760  ASP761  ALA762  ILE779  LEU786  VAL792 
 PHE793  MET794  SER795  GLU796  ALA797  LYS798  CYS799  TRP800  GLU811  SER814 

> <Gold.Protein.RotatedAtoms>
  151.0145  133.5933  159.2678 H   0  0  0  0  0  0  0  0  0  0  0  0  # atno 6907 bound_to 6896
  151.3073  135.0784  159.9269 H   0  0  0  0  0  0  0  0  0  0  0  0  # atno 6908 bound_to 6896
  152.5308  133.9816  159.7863 H   0  0  0  0  0  0  0  0  0  0  0  0  # atno 6909 bound_to 6896
  144.7707  139.7839  143.6298 H   0  0  0  0  0  0  0  0  0  0  0  0  # atno 7974 bound_to 7965
  155.3699  140.0487  157.3045 H   0  0  0  0  0  0  0  0  0  0  0  0  # atno 8008 bound_to 7997
  154.5135  140.2200  155.9073 H   0  0  0  0  0  0  0  0  0  0  0  0  # atno 8009 bound_to 7997
  156.1610  140.3116  155.8812 H   0  0  0  0  0  0  0  0  0  0  0  0  # atno 8010 bound_to 7997
  139.6226  144.0595  152.1946 H   0  0  0  0  0  0  0  0  0  0  0  0  # atno 10167 bound_to 10162
  156.8520  130.5557  149.5669 H   0  0  0  0  0  0  0  0  0  0  0  0  # atno 10718 bound_to 10713
  153.4568  135.3731  155.2316 H   0  0  0  0  0  0  0  0  0  0  0  0  # atno 10763 bound_to 10752
  154.8757  135.3899  154.3972 H   0  0  0  0  0  0  0  0  0  0  0  0  # atno 10764 bound_to 10752
  153.4539  135.7086  153.6156 H   0  0  0  0  0  0  0  0  0  0  0  0  # atno 10765 bound_to 10752
  139.8804  134.8818  156.3792 H   0  0  0  0  0  0  0  0  0  0  0  0  # atno 11005 bound_to 11000
  146.1850  139.5061  142.9842 LP  0  0  0  0  0  0  0  0  0  0  0  0  # atno 17320 bound_to 7965
  145.6334  141.0299  143.1851 LP  0  0  0  0  0  0  0  0  0  0  0  0  # atno 17321 bound_to 7965
  140.0241  144.6131  150.7542 LP  0  0  0  0  0  0  0  0  0  0  0  0  # atno 17342 bound_to 10162
  140.7391  143.2787  151.3664 LP  0  0  0  0  0  0  0  0  0  0  0  0  # atno 17343 bound_to 10162
  156.0823  130.5830  150.9585 LP  0  0  0  0  0  0  0  0  0  0  0  0  # atno 17370 bound_to 10713
  157.6298  131.0922  150.8464 LP  0  0  0  0  0  0  0  0  0  0  0  0  # atno 17371 bound_to 10713
  140.9410  133.7514  156.0147 LP  0  0  0  0  0  0  0  0  0  0  0  0  # atno 17394 bound_to 11000
  140.8219  134.3279  157.5379 LP  0  0  0  0  0  0  0  0  0  0  0  0  # atno 17395 bound_to 11000

$$$$
