AV-unprocessed.smi:281|AV-procd|sdf|2102|dock4
  -GOLD-   2262021393D 1   1.00000     0.00000
 Structure written by MMmdl.
 55 59  0  0  0  0  0  0  0  0  1 V2000
  148.1951  141.6306  153.9269 C   0  0  0  0  0  0  0  0  0  0  0  0
  148.6486  140.3674  154.6648 C   0  0  1  0  0  0  0  0  0  0  0  0
  147.8964  139.1168  154.1868 C   0  0  0  0  0  0  0  0  0  0  0  0
  148.4244  137.9480  154.8729 N   0  0  0  0  0  0  0  0  0  0  0  0
  147.7176  136.8137  154.6907 C   0  0  0  0  0  0  0  0  0  0  0  0
  148.0107  135.7702  155.5041 N   0  0  0  0  0  0  0  0  0  0  0  0
  147.3468  134.6173  155.3763 C   0  0  0  0  0  0  0  0  0  0  0  0
  146.3758  134.3034  154.5157 N   0  0  0  0  0  0  0  0  0  0  0  0
  146.0875  135.3495  153.6887 C   0  0  0  0  0  0  0  0  0  0  0  0
  146.7059  136.6313  153.7058 C   0  0  0  0  0  0  0  0  0  0  0  0
  146.1570  137.4356  152.7144 N   0  0  0  0  0  0  0  0  0  0  0  0
  145.2596  136.6751  152.1490 C   0  0  0  0  0  0  0  0  0  0  0  0
  145.1539  135.4045  152.6685 N   0  0  0  0  0  0  0  0  0  0  0  0
  144.2418  134.3588  152.2312 C   0  0  0  0  0  0  0  0  0  0  0  0
  144.5683  133.8077  150.8238 C   0  0  1  0  0  0  0  0  0  0  0  0
  144.4684  134.8625  149.8823 O   0  0  0  0  0  0  0  0  0  0  0  0
  145.9534  133.1796  150.7042 C   0  0  0  0  0  0  0  0  0  0  0  0
  145.7449  132.0998  149.6519 C   0  0  0  0  0  0  0  0  0  0  0  0
  144.4663  131.5863  149.9843 O   0  0  0  0  0  0  0  0  0  0  0  0
  143.6291  132.6687  150.3797 C   0  0  0  0  0  0  0  0  0  0  0  0
  149.8547  137.7785  154.6659 C   0  0  0  0  0  0  0  0  0  0  0  0
  150.6297  139.0566  155.0760 C   0  0  2  0  0  0  0  0  0  0  0  0
  152.0851  138.9552  154.6494 C   0  0  0  0  0  0  0  0  0  0  0  0
  152.7143  138.1477  155.7794 C   0  0  0  0  0  0  0  0  0  0  0  0
  151.9520  138.4513  156.9432 O   0  0  0  0  0  0  0  0  0  0  0  0
  150.7877  139.2048  156.6070 C   0  0  1  0  0  0  0  0  0  0  0  0
  151.0573  140.6399  157.0990 C   0  0  0  0  0  0  0  0  0  0  0  0
  150.0487  140.1972  154.4337 O   0  0  0  0  0  0  0  0  0  0  0  0
  147.1306  141.8122  154.0767 H   0  0  0  0  0  0  0  0  0  0  0  0
  148.3737  141.5461  152.8546 H   0  0  0  0  0  0  0  0  0  0  0  0
  148.7357  142.5059  154.2872 H   0  0  0  0  0  0  0  0  0  0  0  0
  148.4618  140.5045  155.7300 H   0  0  0  0  0  0  0  0  0  0  0  0
  146.8295  139.2166  154.3912 H   0  0  0  0  0  0  0  0  0  0  0  0
  148.0129  139.0056  153.1084 H   0  0  0  0  0  0  0  0  0  0  0  0
  147.6350  133.8340  156.0619 H   0  0  0  0  0  0  0  0  0  0  0  0
  144.6481  137.0206  151.3281 H   0  0  0  0  0  0  0  0  0  0  0  0
  144.2716  133.5522  152.9648 H   0  0  0  0  0  0  0  0  0  0  0  0
  143.2261  134.7558  152.2569 H   0  0  0  0  0  0  0  0  0  0  0  0
  145.0536  134.6774  149.1635 H   0  0  0  0  0  0  0  0  0  0  0  0
  146.7404  133.8896  150.4467 H   0  0  0  0  0  0  0  0  0  0  0  0
  146.2326  132.7006  151.6433 H   0  0  0  0  0  0  0  0  0  0  0  0
  145.7228  132.5269  148.6482 H   0  0  0  0  0  0  0  0  0  0  0  0
  146.5113  131.3252  149.6831 H   0  0  0  0  0  0  0  0  0  0  0  0
  142.9764  132.3325  151.1858 H   0  0  0  0  0  0  0  0  0  0  0  0
  142.9895  132.9629  149.5457 H   0  0  0  0  0  0  0  0  0  0  0  0
  150.2104  136.9151  155.2302 H   0  0  0  0  0  0  0  0  0  0  0  0
  150.0310  137.5621  153.6112 H   0  0  0  0  0  0  0  0  0  0  0  0
  152.2237  138.4972  153.6696 H   0  0  0  0  0  0  0  0  0  0  0  0
  152.5376  139.9469  154.6133 H   0  0  0  0  0  0  0  0  0  0  0  0
  152.6348  137.0788  155.5790 H   0  0  0  0  0  0  0  0  0  0  0  0
  153.7683  138.3866  155.9216 H   0  0  0  0  0  0  0  0  0  0  0  0
  149.9221  138.8054  157.1365 H   0  0  0  0  0  0  0  0  0  0  0  0
  150.2172  141.3049  156.9056 H   0  0  0  0  0  0  0  0  0  0  0  0
  151.9366  141.0730  156.6225 H   0  0  0  0  0  0  0  0  0  0  0  0
  151.2321  140.6486  158.1750 H   0  0  0  0  0  0  0  0  0  0  0  0
  1  2  1  0  0  0  0
  1 29  1  0  0  0  0
  1 30  1  0  0  0  0
  1 31  1  0  0  0  0
  2 28  1  0  0  0  0
  2  3  1  0  0  0  0
  2 32  1  0  0  0  0
  3  4  1  0  0  0  0
  3 33  1  0  0  0  0
  3 34  1  0  0  0  0
  4  5  1  0  0  0  0
  4 21  1  0  0  0  0
  5 10  1  0  0  0  0
  5  6  2  0  0  0  0
  6  7  1  0  0  0  0
  7  8  2  0  0  0  0
  7 35  1  0  0  0  0
  8  9  1  0  0  0  0
  9 13  1  0  0  0  0
  9 10  2  0  0  0  0
 10 11  1  0  0  0  0
 11 12  2  0  0  0  0
 12 13  1  0  0  0  0
 12 36  1  0  0  0  0
 13 14  1  0  0  0  0
 14 15  1  0  0  0  0
 14 37  1  0  0  0  0
 14 38  1  0  0  0  0
 15 20  1  0  0  0  0
 15 16  1  0  0  0  0
 15 17  1  0  0  0  0
 16 39  1  0  0  0  0
 17 18  1  0  0  0  0
 17 40  1  0  0  0  0
 17 41  1  0  0  0  0
 18 19  1  0  0  0  0
 18 42  1  0  0  0  0
 18 43  1  0  0  0  0
 19 20  1  0  0  0  0
 20 44  1  0  0  0  0
 20 45  1  0  0  0  0
 21 22  1  0  0  0  0
 21 46  1  0  0  0  0
 21 47  1  0  0  0  0
 22 26  1  0  0  0  0
 22 23  1  0  0  0  0
 22 28  1  0  0  0  0
 23 24  1  0  0  0  0
 23 48  1  0  0  0  0
 23 49  1  0  0  0  0
 24 25  1  0  0  0  0
 24 50  1  0  0  0  0
 24 51  1  0  0  0  0
 25 26  1  0  0  0  0
 26 27  1  0  0  0  0
 26 52  1  0  0  0  0
 27 53  1  0  0  0  0
 27 54  1  0  0  0  0
 27 55  1  0  0  0  0
M  END
> <s_m_source_file>
AV-unprocessed.smi

> <i_m_source_file_index>
281

> <i_lp_mmshare_version>
43012

> <i_f3d_flags>
0

> <s_epik_input>
W0NIM11bQ0BASF0xT1tDSDJdW0NIMl1bQ0BAXTEyW0NIMl1OKFtDSDJdW0NASF0oTzIpW0NIM10pYyhuW2NIXW4zKWMoYzM0KW5bY0hdbjRbQ0gyXVtDQEBdNShbT0hdKVtDSDJdW0NIMl1PW0NIMl01

> <s_epik_cmdline>
J2VwaWtfcHl0aG9uJywgJy1waCcsICc3LjAnLCAnLXRuJywgJzgnLCAnLW1hJywgJzIwMCcsICctbWV0YWxfYmluZGluZycsICctaW1hZScsICc8aW5maWxlLm1hZT4nLCAnLW9tYWUnLCAnPG91dGZpbGUubWFlPic=

> <r_lp_tautomer_probability>
1

> <r_epik_Ionization_Penalty>
0.00571331

> <r_epik_Ionization_Penalty_Charging>
0

> <r_epik_Ionization_Penalty_Neutral>
0.00571331

> <r_epik_State_Penalty>
0.00399586

> <r_epik_Charging_Adjusted_Penalty>
0.00399586

> <i_epik_Tot_Q>
0

> <i_epik_Tot_abs_Q>
0

> <r_epik_Metal_State_Penalty>
-0

> <b_epik_Metal_Only>
0

> <s_lp_Force_Field>
OPLS_2005

> <r_lp_Energy>
56.2514

> <b_lp_Chiralities_Consistent>
1

> <s_lp_Variant>
AV-unprocessed.smi:281-2

> <Gold.Version>
5.8.1

> <Gold.Id.Protein>
6NUR|6NUR_protein|mol2

> <Gold.PLP.Fitness>
45.6568

> <Gold.PLP.PLP>
-36.4069

> <Gold.PLP.part.hbond>
-3.0000

> <Gold.PLP.part.metal>
0.0000

> <Gold.PLP.part.buried>
-2.8161

> <Gold.PLP.part.nonpolar>
-31.8098

> <Gold.PLP.part.repulsive>
0.7245

> <Gold.PLP.ligand.clash>
0.0000

> <Gold.PLP.ligand.torsion>
0.2147

> <Gold.PLP.Chemscore.Hbond>
2.1802

> <Gold.PLP.Chemscore.CHOScore>
1.0000

> <Gold.PLP.Chemscore.Metal>
0.0000

> <Gold.Chemscore.Hbonds>
donor molecule, donor type, donor heavy atom, donor atom, acceptor molecule, acceptor atom, score
      L1  H    16    39       P1  7921  1.00
      P1  H  7989  7998       L1    28  0.99
      P1  H 10785 10796       L1    19  0.20
      L1  C    12    36       P1 10171  1.00

> <Gold.PLP.Chemscore.Internal.Correction>
0.1387

> <Gold.Rescore>
     Score         DG    S(hbond)    S(metal)    S(lipo)     H(rot)  DE(clash)    DE(int)     intcor
     15.08     -18.71       2.31        0.00      92.95       2.09       1.05       2.58       ----

> <Gold.Chemscore.Fitness>
15.0773

> <Gold.Chemscore.DG>
-18.7063

> <Gold.Chemscore.ZeroCoef>
-5.4800

> <Gold.Chemscore.Hbond>
2.3080

> <Gold.Chemscore.Metal>
0.0000

> <Gold.Chemscore.Lipo>
92.9487

> <Gold.Chemscore.Internal_Hbond>
0.0000

> <Gold.Chemscore.DEClash>
1.0509

> <Gold.Chemscore.DEInternal>
2.5781

> <Gold.Chemscore.Rot>
2.0927

> <Gold.Chemscore.Internal.Correction>
   9.000000E+99

> <Gold.Chemscore.Hbonds>
donor molecule, donor type, donor heavy atom, donor atom, acceptor molecule, acceptor atom, score
      L1  H    16    39       P1  7921  1.00
      P1  H  7989  7998       L1    28  0.24
      P1  H 10785 10796       L1    19  0.14

> <Gold.Chemscore.Hbond.Weighted>
-7.7086

> <Gold.Chemscore.Metal.Weighted>
-0.0000

> <Gold.Chemscore.Lipo.Weighted>
-10.8750

> <Gold.Chemscore.Internal_Hbond.Weighted>
0.0000

> <Gold.Chemscore.DEClash.Weighted>
1.0509

> <Gold.Chemscore.DEInternal.Weighted>
2.5781

> <Gold.Chemscore.Rot.Weighted>
5.3573

> <Gold.Chemscore.Internal.Correction.Weighted>
   9.000000E+99

> <Gold.Protein.RotatedTorsions>
[ 6907 6896 6895 6894 ] final   55.39 input  -60.11 | X-H torsion
[ 7974 7965 7964 7962 ] final  -95.81 input  175.53 | X-H torsion
[ 8008 7997 7996 7995 ] final  -59.54 input   59.86 | X-H torsion
[ 10167 10162 10161 10158 ] final   59.91 input  -65.29 | X-H torsion
[ 10718 10713 10712 10709 ] final  -64.59 input   66.30 | X-H torsion
[ 10763 10752 10751 10750 ] final  158.90 input  -60.55 | X-H torsion
[ 11005 11000 10999 10996 ] final -165.27 input  -57.11 | X-H torsion

> <Gold.Protein.ActiveResidues>
 VAL166  LYS551  ARG553  GLY616  TRP617  ASP618  TYR619  PRO620  LYS621  CYS622 
 ASP623  PHE694  ASN695  SER759  ASP760  ASP761  ALA762  ILE779  LEU786  VAL792 
 PHE793  MET794  SER795  GLU796  ALA797  LYS798  CYS799  TRP800  GLU811  SER814 

> <Gold.Protein.RotatedAtoms>
  152.3534  134.6974  160.0229 H   0  0  0  0  0  0  0  0  0  0  0  0  # atno 6907 bound_to 6896
  151.7321  133.3313  159.3351 H   0  0  0  0  0  0  0  0  0  0  0  0  # atno 6908 bound_to 6896
  150.7555  134.6288  159.6219 H   0  0  0  0  0  0  0  0  0  0  0  0  # atno 6909 bound_to 6896
  145.3551  140.9483  143.2532 H   0  0  0  0  0  0  0  0  0  0  0  0  # atno 7974 bound_to 7965
  154.4357  140.1059  156.6132 H   0  0  0  0  0  0  0  0  0  0  0  0  # atno 8008 bound_to 7997
  155.5787  140.3490  155.4516 H   0  0  0  0  0  0  0  0  0  0  0  0  # atno 8009 bound_to 7997
  156.0335  140.1266  157.0222 H   0  0  0  0  0  0  0  0  0  0  0  0  # atno 8010 bound_to 7997
  140.1713  144.4274  150.6660 H   0  0  0  0  0  0  0  0  0  0  0  0  # atno 10167 bound_to 10162
  156.0720  130.4235  150.1442 H   0  0  0  0  0  0  0  0  0  0  0  0  # atno 10718 bound_to 10713
  154.2233  135.2781  155.2917 H   0  0  0  0  0  0  0  0  0  0  0  0  # atno 10763 bound_to 10752
  154.5684  135.5626  153.7075 H   0  0  0  0  0  0  0  0  0  0  0  0  # atno 10764 bound_to 10752
  153.0037  135.6315  154.2373 H   0  0  0  0  0  0  0  0  0  0  0  0  # atno 10765 bound_to 10752
  140.5776  134.5174  157.5173 H   0  0  0  0  0  0  0  0  0  0  0  0  # atno 11005 bound_to 11000
  144.8688  139.5068  143.6777 LP  0  0  0  0  0  0  0  0  0  0  0  0  # atno 17320 bound_to 7965
  146.2951  139.7255  142.9132 LP  0  0  0  0  0  0  0  0  0  0  0  0  # atno 17321 bound_to 7965
  140.6580  143.2243  151.5923 LP  0  0  0  0  0  0  0  0  0  0  0  0  # atno 17342 bound_to 10162
  139.5337  144.2843  152.1204 LP  0  0  0  0  0  0  0  0  0  0  0  0  # atno 17343 bound_to 10162
  156.9491  130.9769  151.3501 LP  0  0  0  0  0  0  0  0  0  0  0  0  # atno 17370 bound_to 10713
  157.5795  130.8367  149.8503 LP  0  0  0  0  0  0  0  0  0  0  0  0  # atno 17371 bound_to 10713
  139.9332  134.7924  156.0873 LP  0  0  0  0  0  0  0  0  0  0  0  0  # atno 17394 bound_to 11000
  141.1017  133.6675  156.2769 LP  0  0  0  0  0  0  0  0  0  0  0  0  # atno 17395 bound_to 11000

$$$$
