AV-unprocessed.smi:1954|AV-procd|sdf|7894|dock3
  -GOLD-   2272010 53D 1   1.00000     0.00000
 Structure written by MMmdl.
 44 46  0  0  0  0  0  0  0  0  1 V2000
  145.6132  134.5338  154.3287 O   0  0  0  0  0  0  0  0  0  0  0  0
  146.5181  134.8513  153.5563 C   0  0  0  0  0  0  0  0  0  0  0  0
  147.5514  135.6251  153.9114 N   0  0  0  0  0  0  0  0  0  0  0  0
  147.7522  136.1839  155.2449 C   0  0  0  0  0  0  0  0  0  0  0  0
  149.2560  136.1600  155.6690 C   0  0  1  0  0  0  0  0  0  0  0  0
  149.9922  137.2960  155.0332 N   0  0  0  0  0  0  0  0  0  0  0  0
  149.4383  138.6379  155.2664 C   0  0  0  0  0  0  0  0  0  0  0  0
  150.2117  139.7316  154.5098 C   0  0  0  0  0  0  0  0  0  0  0  0
  151.5848  139.6905  154.8733 O   0  0  0  0  0  0  0  0  0  0  0  0
  152.1766  138.4306  154.5879 C   0  0  0  0  0  0  0  0  0  0  0  0
  151.4274  137.3234  155.3472 C   0  0  0  0  0  0  0  0  0  0  0  0
  149.3040  136.1852  157.2247 C   0  0  0  0  0  0  0  0  0  0  0  0
  148.8251  134.8344  157.7684 C   0  0  0  0  0  0  0  0  0  0  0  0
  149.3093  133.5677  156.5721 S   0  0  0  0  0  0  0  0  0  0  0  0
  149.8393  134.7672  155.3186 C   0  0  0  0  0  0  0  0  0  0  0  0
  146.6117  134.4760  152.2683 N   0  0  0  0  0  0  0  0  0  0  0  0
  145.7104  133.6722  151.5207 C   0  0  0  0  0  0  0  0  0  0  0  0
  146.3194  132.7476  150.6421 C   0  0  0  0  0  0  0  0  0  0  0  0
  145.5117  131.9053  149.8537 C   0  0  0  0  0  0  0  0  0  0  0  0
  144.1136  132.0103  149.9629 C   0  0  0  0  0  0  0  0  0  0  0  0
  143.5883  132.9574  150.8611 C   0  0  0  0  0  0  0  0  0  0  0  0
  144.3606  133.7649  151.6184 N   0  0  0  0  0  0  0  0  0  0  0  0
  148.2562  135.8375  153.2202 H   0  0  0  0  0  0  0  0  0  0  0  0
  147.3493  137.1964  155.2624 H   0  0  0  0  0  0  0  0  0  0  0  0
  147.1288  135.6373  155.9520 H   0  0  0  0  0  0  0  0  0  0  0  0
  148.4070  138.7008  154.9283 H   0  0  0  0  0  0  0  0  0  0  0  0
  149.4445  138.8777  156.3290 H   0  0  0  0  0  0  0  0  0  0  0  0
  150.1096  139.6017  153.4313 H   0  0  0  0  0  0  0  0  0  0  0  0
  149.8097  140.7153  154.7522 H   0  0  0  0  0  0  0  0  0  0  0  0
  152.1566  138.2437  153.5130 H   0  0  0  0  0  0  0  0  0  0  0  0
  153.2236  138.4539  154.8894 H   0  0  0  0  0  0  0  0  0  0  0  0
  151.5719  137.4679  156.4184 H   0  0  0  0  0  0  0  0  0  0  0  0
  151.9040  136.3799  155.0907 H   0  0  0  0  0  0  0  0  0  0  0  0
  150.3238  136.2906  157.5874 H   0  0  0  0  0  0  0  0  0  0  0  0
  148.7384  137.0136  157.6521 H   0  0  0  0  0  0  0  0  0  0  0  0
  149.2500  134.6196  158.7491 H   0  0  0  0  0  0  0  0  0  0  0  0
  147.7404  134.8213  157.8766 H   0  0  0  0  0  0  0  0  0  0  0  0
  149.5464  134.4281  154.3244 H   0  0  0  0  0  0  0  0  0  0  0  0
  150.9276  134.7712  155.3426 H   0  0  0  0  0  0  0  0  0  0  0  0
  147.4215  134.8043  151.7636 H   0  0  0  0  0  0  0  0  0  0  0  0
  147.3954  132.6804  150.5702 H   0  0  0  0  0  0  0  0  0  0  0  0
  145.9581  131.1914  149.1772 H   0  0  0  0  0  0  0  0  0  0  0  0
  143.4610  131.3825  149.3744 H   0  0  0  0  0  0  0  0  0  0  0  0
  142.5204  133.0702  150.9754 H   0  0  0  0  0  0  0  0  0  0  0  0
  1  2  2  0  0  0  0
  2  3  1  0  0  0  0
  2 16  1  0  0  0  0
  3  4  1  0  0  0  0
  3 23  1  0  0  0  0
  4  5  1  0  0  0  0
  4 24  1  0  0  0  0
  4 25  1  0  0  0  0
  5 15  1  0  0  0  0
  5  6  1  0  0  0  0
  5 12  1  0  0  0  0
  6 11  1  0  0  0  0
  6  7  1  0  0  0  0
  7  8  1  0  0  0  0
  7 26  1  0  0  0  0
  7 27  1  0  0  0  0
  8  9  1  0  0  0  0
  8 28  1  0  0  0  0
  8 29  1  0  0  0  0
  9 10  1  0  0  0  0
 10 11  1  0  0  0  0
 10 30  1  0  0  0  0
 10 31  1  0  0  0  0
 11 32  1  0  0  0  0
 11 33  1  0  0  0  0
 12 13  1  0  0  0  0
 12 34  1  0  0  0  0
 12 35  1  0  0  0  0
 13 14  1  0  0  0  0
 13 36  1  0  0  0  0
 13 37  1  0  0  0  0
 14 15  1  0  0  0  0
 15 38  1  0  0  0  0
 15 39  1  0  0  0  0
 16 17  1  0  0  0  0
 16 40  1  0  0  0  0
 17 22  1  0  0  0  0
 17 18  2  0  0  0  0
 18 19  1  0  0  0  0
 18 41  1  0  0  0  0
 19 20  2  0  0  0  0
 19 42  1  0  0  0  0
 20 21  1  0  0  0  0
 20 43  1  0  0  0  0
 21 22  2  0  0  0  0
 21 44  1  0  0  0  0
M  END
> <s_m_source_file>
AV-unprocessed.smi

> <i_m_source_file_index>
1954

> <i_lp_mmshare_version>
43012

> <i_f3d_flags>
0

> <s_epik_input>
bjFbY0hdW2NIXVtjSF1bY0hdYzFbTkhdQyg9TylbTkhdW0NIMl1bQ0BdMihbQ0gyXVtDSDJdU1tDSDJdMilOM1tDSDJdW0NIMl1PW0NIMl1bQ0gyXTM=

> <s_epik_cmdline>
J2VwaWtfcHl0aG9uJywgJy1waCcsICc3LjAnLCAnLXRuJywgJzgnLCAnLW1hJywgJzIwMCcsICctbWV0YWxfYmluZGluZycsICctaW1hZScsICc8aW5maWxlLm1hZT4nLCAnLW9tYWUnLCAnPG91dGZpbGUubWFlPic=

> <r_epik_Ionization_Penalty>
0.0195535

> <r_epik_Ionization_Penalty_Charging>
0

> <r_epik_Ionization_Penalty_Neutral>
0.0195535

> <r_epik_State_Penalty>
0.0155843

> <r_epik_Charging_Adjusted_Penalty>
0.0155843

> <i_epik_Tot_Q>
0

> <i_epik_Tot_abs_Q>
0

> <r_epik_Metal_State_Penalty>
0.0155842

> <b_epik_Metal_Only>
0

> <s_lp_Force_Field>
OPLS_2005

> <r_lp_Energy>
55.5144

> <b_lp_Chiralities_Consistent>
1

> <s_lp_Variant>
AV-unprocessed.smi:1954-1

> <Gold.Version>
5.8.1

> <Gold.Id.Protein>
6NUR|6NUR_protein|mol2

> <Gold.PLP.Fitness>
41.1380

> <Gold.PLP.PLP>
-32.7370

> <Gold.PLP.part.hbond>
-2.9419

> <Gold.PLP.part.metal>
0.0000

> <Gold.PLP.part.buried>
-4.1992

> <Gold.PLP.part.nonpolar>
-26.3600

> <Gold.PLP.part.repulsive>
0.4037

> <Gold.PLP.ligand.clash>
0.0000

> <Gold.PLP.ligand.torsion>
0.7481

> <Gold.PLP.Chemscore.Hbond>
2.3370

> <Gold.PLP.Chemscore.CHOScore>
0.9395

> <Gold.PLP.Chemscore.Metal>
0.0000

> <Gold.Chemscore.Hbonds>
donor molecule, donor type, donor heavy atom, donor atom, acceptor molecule, acceptor atom, score
      L1  H     3    23       P1  7948  1.00
      L1  H    16    40       P1  7948  0.83
      L1  C    21    44       P1 10186  0.95

> <Gold.PLP.Chemscore.Internal.Correction>
0.0678

> <Gold.Rescore>
     Score         DG    S(hbond)    S(metal)    S(lipo)     H(rot)  DE(clash)    DE(int)     intcor
     16.04     -17.54       1.85        0.00      82.90       1.49       0.06       1.44       ----

> <Gold.Chemscore.Fitness>
16.0416

> <Gold.Chemscore.DG>
-17.5441

> <Gold.Chemscore.ZeroCoef>
-5.4800

> <Gold.Chemscore.Hbond>
1.8531

> <Gold.Chemscore.Metal>
0.0000

> <Gold.Chemscore.Lipo>
82.9018

> <Gold.Chemscore.Internal_Hbond>
0.0000

> <Gold.Chemscore.DEClash>
0.0622

> <Gold.Chemscore.DEInternal>
1.4402

> <Gold.Chemscore.Rot>
1.4940

> <Gold.Chemscore.Internal.Correction>
   9.000000E+99

> <Gold.Chemscore.Hbonds>
donor molecule, donor type, donor heavy atom, donor atom, acceptor molecule, acceptor atom, score
      L1  H     3    23       P1  7948  0.97
      L1  H    16    40       P1  7948  0.54

> <Gold.Chemscore.Hbond.Weighted>
-6.1892

> <Gold.Chemscore.Metal.Weighted>
-0.0000

> <Gold.Chemscore.Lipo.Weighted>
-9.6995

> <Gold.Chemscore.Internal_Hbond.Weighted>
0.0000

> <Gold.Chemscore.DEClash.Weighted>
0.0622

> <Gold.Chemscore.DEInternal.Weighted>
1.4402

> <Gold.Chemscore.Rot.Weighted>
3.8246

> <Gold.Chemscore.Internal.Correction.Weighted>
   9.000000E+99

> <Gold.Protein.RotatedTorsions>
[ 6907 6896 6895 6894 ] final   82.48 input  -60.11 | X-H torsion
[ 7974 7965 7964 7962 ] final  -29.13 input  175.53 | X-H torsion
[ 8008 7997 7996 7995 ] final  -49.94 input   59.86 | X-H torsion
[ 10167 10162 10161 10158 ] final -102.36 input  -65.29 | X-H torsion
[ 10718 10713 10712 10709 ] final -175.40 input   66.30 | X-H torsion
[ 10763 10752 10751 10750 ] final  100.86 input  -60.55 | X-H torsion
[ 11005 11000 10999 10996 ] final -152.77 input  -57.11 | X-H torsion

> <Gold.Protein.ActiveResidues>
 VAL166  LYS551  ARG553  GLY616  TRP617  ASP618  TYR619  PRO620  LYS621  CYS622 
 ASP623  PHE694  ASN695  SER759  ASP760  ASP761  ALA762  ILE779  LEU786  VAL792 
 PHE793  MET794  SER795  GLU796  ALA797  LYS798  CYS799  TRP800  GLU811  SER814 

> <Gold.Protein.RotatedAtoms>
  152.5300  134.3043  159.9089 H   0  0  0  0  0  0  0  0  0  0  0  0  # atno 6907 bound_to 6896
  151.2993  133.4123  159.2646 H   0  0  0  0  0  0  0  0  0  0  0  0  # atno 6908 bound_to 6896
  151.0133  134.9429  159.8076 H   0  0  0  0  0  0  0  0  0  0  0  0  # atno 6909 bound_to 6896
  146.1238  140.5373  142.8723 H   0  0  0  0  0  0  0  0  0  0  0  0  # atno 7974 bound_to 7965
  154.4053  140.1284  156.4584 H   0  0  0  0  0  0  0  0  0  0  0  0  # atno 8008 bound_to 7997
  155.7297  140.3491  155.5034 H   0  0  0  0  0  0  0  0  0  0  0  0  # atno 8009 bound_to 7997
  155.9139  140.1040  157.1249 H   0  0  0  0  0  0  0  0  0  0  0  0  # atno 8010 bound_to 7997
  140.2315  143.3603  152.0882 H   0  0  0  0  0  0  0  0  0  0  0  0  # atno 10167 bound_to 10162
  156.7994  130.9546  151.3119 H   0  0  0  0  0  0  0  0  0  0  0  0  # atno 10718 bound_to 10713
  153.3193  135.4064  155.1403 H   0  0  0  0  0  0  0  0  0  0  0  0  # atno 10763 bound_to 10752
  154.8596  135.3583  154.5617 H   0  0  0  0  0  0  0  0  0  0  0  0  # atno 10764 bound_to 10752
  153.6050  135.7070  153.5428 H   0  0  0  0  0  0  0  0  0  0  0  0  # atno 10765 bound_to 10752
  140.7153  134.3787  157.5191 H   0  0  0  0  0  0  0  0  0  0  0  0  # atno 11005 bound_to 11000
  144.7623  140.5450  143.6727 LP  0  0  0  0  0  0  0  0  0  0  0  0  # atno 17320 bound_to 7965
  145.5408  139.1475  143.3448 LP  0  0  0  0  0  0  0  0  0  0  0  0  # atno 17321 bound_to 7965
  139.5108  144.6891  151.5809 LP  0  0  0  0  0  0  0  0  0  0  0  0  # atno 17342 bound_to 10162
  140.6181  143.9309  150.6505 LP  0  0  0  0  0  0  0  0  0  0  0  0  # atno 17343 bound_to 10162
  157.6561  130.8926  149.9732 LP  0  0  0  0  0  0  0  0  0  0  0  0  # atno 17370 bound_to 10713
  156.1110  130.3650  150.0049 LP  0  0  0  0  0  0  0  0  0  0  0  0  # atno 17371 bound_to 10713
  139.8861  134.8918  156.2603 LP  0  0  0  0  0  0  0  0  0  0  0  0  # atno 17394 bound_to 11000
  141.0049  133.7129  156.1019 LP  0  0  0  0  0  0  0  0  0  0  0  0  # atno 17395 bound_to 11000

$$$$
