AV-unprocessed.smi:212|AV-procd|sdf|1625|dock2
  -GOLD-   2262019563D 1   1.00000     0.00000
 Structure written by MMmdl.
 65 68  0  0  0  0  0  0  0  0  2 V2000
  151.2276  133.1877  156.2272 C   0  0  0  0  0  0  0  0  0  0  0  0
  149.7500  133.3259  155.8098 C   0  0  2  0  0  0  0  0  0  0  0  0
  149.5254  132.9908  154.3212 C   0  0  0  0  0  0  0  0  0  0  0  0
  148.0844  133.0745  153.9705 N   0  3  2  0  0  0  0  0  0  0  0  0
  147.7913  132.6412  152.5790 C   0  0  0  0  0  0  0  0  0  0  0  0
  146.2738  132.5415  152.3030 C   0  0  0  0  0  0  0  0  0  0  0  0
  145.7096  133.9255  151.9406 C   0  0  0  0  0  0  0  0  0  0  0  0
  145.9368  131.5237  151.1976 C   0  0  0  0  0  0  0  0  0  0  0  0
  145.6274  132.1361  153.4942 O   0  0  0  0  0  0  0  0  0  0  0  0
  147.4924  134.3932  154.3097 C   0  0  0  0  0  0  0  0  0  0  0  0
  147.7475  134.7623  155.7854 C   0  0  0  0  0  0  0  0  0  0  0  0
  149.1540  134.6213  156.1539 N   0  0  0  0  0  0  0  0  0  0  0  0
  149.9079  135.7310  155.9715 C   0  0  0  0  0  0  0  0  0  0  0  0
  150.4781  135.9828  154.7647 N   0  0  0  0  0  0  0  0  0  0  0  0
  151.2360  137.0712  154.5994 C   0  0  0  0  0  0  0  0  0  0  0  0
  151.5487  138.0137  155.4914 N   0  0  0  0  0  0  0  0  0  0  0  0
  150.9785  137.7595  156.7039 C   0  0  0  0  0  0  0  0  0  0  0  0
  150.1461  136.6517  157.0247 C   0  0  0  0  0  0  0  0  0  0  0  0
  149.7439  136.7218  158.3518 N   0  0  0  0  0  0  0  0  0  0  0  0
  150.3095  137.8118  158.7947 C   0  0  0  0  0  0  0  0  0  0  0  0
  151.0870  138.4846  157.8782 N   0  0  0  0  0  0  0  0  0  0  0  0
  151.8269  139.7112  158.1093 C   0  0  0  0  0  0  0  0  0  0  0  0
  151.0574  141.0077  157.7293 C   0  0  2  0  0  0  0  0  0  0  0  0
  151.3782  141.4016  156.2703 C   0  0  0  0  0  0  0  0  0  0  0  0
  150.8806  140.4416  155.3604 O   0  0  0  0  0  0  0  0  0  0  0  0
  151.2628  142.2387  158.6622 C   0  0  1  0  0  0  0  0  0  0  0  0
  152.6796  142.7327  158.8964 C   0  0  0  0  0  0  0  0  0  0  0  0
  152.4224  144.0780  159.5684 C   0  0  0  0  0  0  0  0  0  0  0  0
  151.2006  144.5642  159.0169 O   0  0  0  0  0  0  0  0  0  0  0  0
  150.5436  143.5349  158.2817 C   0  0  0  0  0  0  0  0  0  0  0  0
  151.5866  132.1735  156.0513 H   0  0  0  0  0  0  0  0  0  0  0  0
  151.3582  133.4003  157.2887 H   0  0  0  0  0  0  0  0  0  0  0  0
  151.8758  133.8629  155.6670 H   0  0  0  0  0  0  0  0  0  0  0  0
  149.1972  132.5882  156.3931 H   0  0  0  0  0  0  0  0  0  0  0  0
  150.0974  133.6660  153.6833 H   0  0  0  0  0  0  0  0  0  0  0  0
  149.8872  131.9826  154.1158 H   0  0  0  0  0  0  0  0  0  0  0  0
  148.2445  133.3344  151.8677 H   0  0  0  0  0  0  0  0  0  0  0  0
  148.2632  131.6777  152.3790 H   0  0  0  0  0  0  0  0  0  0  0  0
  146.1624  134.3079  151.0251 H   0  0  0  0  0  0  0  0  0  0  0  0
  145.9001  134.6538  152.7301 H   0  0  0  0  0  0  0  0  0  0  0  0
  144.6310  133.8886  151.7821 H   0  0  0  0  0  0  0  0  0  0  0  0
  146.4324  131.7822  150.2612 H   0  0  0  0  0  0  0  0  0  0  0  0
  144.8641  131.4924  151.0029 H   0  0  0  0  0  0  0  0  0  0  0  0
  146.2449  130.5127  151.4661 H   0  0  0  0  0  0  0  0  0  0  0  0
  146.0731  132.5306  154.2290 H   0  0  0  0  0  0  0  0  0  0  0  0
  147.9062  135.1550  153.6484 H   0  0  0  0  0  0  0  0  0  0  0  0
  146.4183  134.3692  154.1233 H   0  0  0  0  0  0  0  0  0  0  0  0
  147.4014  135.7775  155.9861 H   0  0  0  0  0  0  0  0  0  0  0  0
  147.1639  134.1062  156.4323 H   0  0  0  0  0  0  0  0  0  0  0  0
  151.6550  137.2056  153.6129 H   0  0  0  0  0  0  0  0  0  0  0  0
  150.1854  138.1513  159.8129 H   0  0  0  0  0  0  0  0  0  0  0  0
  152.1510  139.7444  159.1493 H   0  0  0  0  0  0  0  0  0  0  0  0
  152.7425  139.6353  157.5221 H   0  0  0  0  0  0  0  0  0  0  0  0
  149.9910  140.7801  157.7586 H   0  0  0  0  0  0  0  0  0  0  0  0
  150.9193  142.3571  156.0145 H   0  0  0  0  0  0  0  0  0  0  0  0
  152.4529  141.5148  156.1255 H   0  0  0  0  0  0  0  0  0  0  0  0
  150.9946  139.5821  155.7370 H   0  0  0  0  0  0  0  0  0  0  0  0
  150.8981  141.9554  159.6512 H   0  0  0  0  0  0  0  0  0  0  0  0
  153.2715  142.0575  159.5150 H   0  0  0  0  0  0  0  0  0  0  0  0
  153.2209  142.9039  157.9707 H   0  0  0  0  0  0  0  0  0  0  0  0
  152.2891  143.9466  160.6428 H   0  0  0  0  0  0  0  0  0  0  0  0
  153.2391  144.7834  159.4129 H   0  0  0  0  0  0  0  0  0  0  0  0
  150.6534  143.7655  157.2239 H   0  0  0  0  0  0  0  0  0  0  0  0
  149.4783  143.5029  158.5106 H   0  0  0  0  0  0  0  0  0  0  0  0
  147.6145  132.4065  154.5651 H   0  0  0  0  0  0  0  0  0  0  0  0
  1  2  1  0  0  0  0
  1 31  1  0  0  0  0
  1 32  1  0  0  0  0
  1 33  1  0  0  0  0
  2 12  1  0  0  0  0
  2  3  1  0  0  0  0
  2 34  1  0  0  0  0
  3  4  1  0  0  0  0
  3 35  1  0  0  0  0
  3 36  1  0  0  0  0
  4  5  1  0  0  0  0
  4 10  1  0  0  0  0
  4 65  1  0  0  0  0
  5  6  1  0  0  0  0
  5 37  1  0  0  0  0
  5 38  1  0  0  0  0
  6  7  1  0  0  0  0
  6  8  1  0  0  0  0
  6  9  1  0  0  0  0
  7 39  1  0  0  0  0
  7 40  1  0  0  0  0
  7 41  1  0  0  0  0
  8 42  1  0  0  0  0
  8 43  1  0  0  0  0
  8 44  1  0  0  0  0
  9 45  1  0  0  0  0
 10 11  1  0  0  0  0
 10 46  1  0  0  0  0
 10 47  1  0  0  0  0
 11 12  1  0  0  0  0
 11 48  1  0  0  0  0
 11 49  1  0  0  0  0
 12 13  1  0  0  0  0
 13 18  1  0  0  0  0
 13 14  2  0  0  0  0
 14 15  1  0  0  0  0
 15 16  2  0  0  0  0
 15 50  1  0  0  0  0
 16 17  1  0  0  0  0
 17 21  1  0  0  0  0
 17 18  2  0  0  0  0
 18 19  1  0  0  0  0
 19 20  2  0  0  0  0
 20 21  1  0  0  0  0
 20 51  1  0  0  0  0
 21 22  1  0  0  0  0
 22 23  1  0  0  0  0
 22 52  1  0  0  0  0
 22 53  1  0  0  0  0
 23 24  1  0  0  0  0
 23 26  1  0  0  0  0
 23 54  1  0  0  0  0
 24 25  1  0  0  0  0
 24 55  1  0  0  0  0
 24 56  1  0  0  0  0
 25 57  1  0  0  0  0
 26 30  1  0  0  0  0
 26 27  1  0  0  0  0
 26 58  1  0  0  0  0
 27 28  1  0  0  0  0
 27 59  1  0  0  0  0
 27 60  1  0  0  0  0
 28 29  1  0  0  0  0
 28 61  1  0  0  0  0
 28 62  1  0  0  0  0
 29 30  1  0  0  0  0
 30 63  1  0  0  0  0
 30 64  1  0  0  0  0
M  CHG  1   4   1
M  END
> <s_m_source_file>
AV-unprocessed.smi

> <i_m_source_file_index>
212

> <i_lp_mmshare_version>
43012

> <i_f3d_flags>
0

> <s_epik_input>
W0NIM11bQ0BASF0xW0NIMl1OKFtDSDJdQyhbQ0gzXSkoW0NIM10pW09IXSlbQ0gyXVtDSDJdTjFjKG5bY0hdbjIpYyhjMjMpbltjSF1uM1tDSDJdW0NASF0oW0NIMl1bT0hdKVtDQEBIXTRbQ0gyXVtDSDJdT1tDSDJdNA==

> <s_epik_cmdline>
J2VwaWtfcHl0aG9uJywgJy1waCcsICc3LjAnLCAnLXRuJywgJzgnLCAnLW1hJywgJzIwMCcsICctbWV0YWxfYmluZGluZycsICctaW1hZScsICc8aW5maWxlLm1hZT4nLCAnLW9tYWUnLCAnPG91dGZpbGUubWFlPic=

> <r_lp_tautomer_probability>
1

> <r_epik_Ionization_Penalty>
0.00182193

> <r_epik_Ionization_Penalty_Charging>
0.00173996

> <r_epik_Ionization_Penalty_Neutral>
8.19718e-05

> <r_epik_State_Penalty>
-0

> <r_epik_Charging_Adjusted_Penalty>
0.00173996

> <i_epik_Tot_Q>
1

> <i_epik_Tot_abs_Q>
1

> <r_epik_Metal_State_Penalty>
-0

> <b_epik_Metal_Only>
0

> <s_lp_Force_Field>
OPLS_2005

> <r_lp_Energy>
61.8926

> <b_lp_Chiralities_Consistent>
1

> <s_lp_Variant>
AV-unprocessed.smi:212-9

> <Gold.Version>
5.8.1

> <Gold.Id.Protein>
6NUR|6NUR_protein|mol2

> <Gold.PLP.Fitness>
45.1811

> <Gold.PLP.PLP>
-41.3443

> <Gold.PLP.part.hbond>
-1.5241

> <Gold.PLP.part.metal>
0.0000

> <Gold.PLP.part.buried>
-7.9101

> <Gold.PLP.part.nonpolar>
-32.8796

> <Gold.PLP.part.repulsive>
0.3593

> <Gold.PLP.ligand.clash>
0.0000

> <Gold.PLP.ligand.torsion>
1.7730

> <Gold.PLP.Chemscore.Hbond>
0.9760

> <Gold.PLP.Chemscore.CHOScore>
0.9803

> <Gold.PLP.Chemscore.Metal>
0.0000

> <Gold.Chemscore.Hbonds>
donor molecule, donor type, donor heavy atom, donor atom, acceptor molecule, acceptor atom, score
      P1  H  7989  7998       L1    25  0.95
      L1  C    15    50       P1  7949  1.00

> <Gold.PLP.Chemscore.Internal.Correction>
1.5139

> <Gold.Rescore>
     Score         DG    S(hbond)    S(metal)    S(lipo)     H(rot)  DE(clash)    DE(int)     intcor
      8.60     -11.13       0.78        0.00     106.63       3.68       0.37       2.16       ----

> <Gold.Chemscore.Fitness>
8.5990

> <Gold.Chemscore.DG>
-11.1295

> <Gold.Chemscore.ZeroCoef>
-5.4800

> <Gold.Chemscore.Hbond>
0.7777

> <Gold.Chemscore.Metal>
0.0000

> <Gold.Chemscore.Lipo>
106.6309

> <Gold.Chemscore.Internal_Hbond>
0.0000

> <Gold.Chemscore.DEClash>
0.3725

> <Gold.Chemscore.DEInternal>
2.1580

> <Gold.Chemscore.Rot>
3.6812

> <Gold.Chemscore.Internal.Correction>
   9.000000E+99

> <Gold.Chemscore.Hbonds>
donor molecule, donor type, donor heavy atom, donor atom, acceptor molecule, acceptor atom, score
      P1  H  7989  7998       L1    25  0.55

> <Gold.Chemscore.Hbond.Weighted>
-2.5976

> <Gold.Chemscore.Metal.Weighted>
-0.0000

> <Gold.Chemscore.Lipo.Weighted>
-12.4758

> <Gold.Chemscore.Internal_Hbond.Weighted>
0.0000

> <Gold.Chemscore.DEClash.Weighted>
0.3725

> <Gold.Chemscore.DEInternal.Weighted>
2.1580

> <Gold.Chemscore.Rot.Weighted>
9.4239

> <Gold.Chemscore.Internal.Correction.Weighted>
   9.000000E+99

> <Gold.Protein.RotatedTorsions>
[ 6907 6896 6895 6894 ] final  128.33 input  -60.11 | X-H torsion
[ 7974 7965 7964 7962 ] final  129.27 input  175.53 | X-H torsion
[ 8008 7997 7996 7995 ] final -164.96 input   59.86 | X-H torsion
[ 10167 10162 10161 10158 ] final   41.95 input  -65.29 | X-H torsion
[ 10718 10713 10712 10709 ] final  155.08 input   66.30 | X-H torsion
[ 10763 10752 10751 10750 ] final -179.03 input  -60.55 | X-H torsion
[ 11005 11000 10999 10996 ] final   64.89 input  -57.11 | X-H torsion

> <Gold.Protein.ActiveResidues>
 VAL166  LYS551  ARG553  GLY616  TRP617  ASP618  TYR619  PRO620  LYS621  CYS622 
 ASP623  PHE694  ASN695  SER759  ASP760  ASP761  ALA762  ILE779  LEU786  VAL792 
 PHE793  MET794  SER795  GLU796  ALA797  LYS798  CYS799  TRP800  GLU811  SER814 

> <Gold.Protein.RotatedAtoms>
  152.3730  133.6444  159.6101 H   0  0  0  0  0  0  0  0  0  0  0  0  # atno 6907 bound_to 6896
  150.7683  133.9239  159.3415 H   0  0  0  0  0  0  0  0  0  0  0  0  # atno 6908 bound_to 6896
  151.7059  135.0923  160.0310 H   0  0  0  0  0  0  0  0  0  0  0  0  # atno 6909 bound_to 6896
  145.0304  139.4051  143.5152 H   0  0  0  0  0  0  0  0  0  0  0  0  # atno 7974 bound_to 7965
  155.8431  140.0951  157.1722 H   0  0  0  0  0  0  0  0  0  0  0  0  # atno 8008 bound_to 7997
  154.3982  140.1397  156.3814 H   0  0  0  0  0  0  0  0  0  0  0  0  # atno 8009 bound_to 7997
  155.8043  140.3452  155.5423 H   0  0  0  0  0  0  0  0  0  0  0  0  # atno 8010 bound_to 7997
  140.3592  144.2250  150.6139 H   0  0  0  0  0  0  0  0  0  0  0  0  # atno 10167 bound_to 10162
  157.2230  131.0722  151.1900 H   0  0  0  0  0  0  0  0  0  0  0  0  # atno 10718 bound_to 10713
  154.5402  135.2805  155.1102 H   0  0  0  0  0  0  0  0  0  0  0  0  # atno 10763 bound_to 10752
  154.2587  135.6325  153.5270 H   0  0  0  0  0  0  0  0  0  0  0  0  # atno 10764 bound_to 10752
  152.9977  135.5600  154.5940 H   0  0  0  0  0  0  0  0  0  0  0  0  # atno 10765 bound_to 10752
  139.9929  134.6562  156.0059 H   0  0  0  0  0  0  0  0  0  0  0  0  # atno 11005 bound_to 11000
  146.3498  139.9851  142.8691 LP  0  0  0  0  0  0  0  0  0  0  0  0  # atno 17320 bound_to 7965
  145.1778  140.9752  143.4284 LP  0  0  0  0  0  0  0  0  0  0  0  0  # atno 17321 bound_to 7965
  140.5144  143.2282  151.8486 LP  0  0  0  0  0  0  0  0  0  0  0  0  # atno 17342 bound_to 10162
  139.4816  144.4912  151.9182 LP  0  0  0  0  0  0  0  0  0  0  0  0  # atno 17343 bound_to 10162
  157.3556  130.7104  149.6468 LP  0  0  0  0  0  0  0  0  0  0  0  0  # atno 17370 bound_to 10713
  155.9681  130.4240  150.4588 LP  0  0  0  0  0  0  0  0  0  0  0  0  # atno 17371 bound_to 10713
  141.1581  133.6541  156.4227 LP  0  0  0  0  0  0  0  0  0  0  0  0  # atno 17394 bound_to 11000
  140.4873  134.6608  157.5196 LP  0  0  0  0  0  0  0  0  0  0  0  0  # atno 17395 bound_to 11000

$$$$
