AV-unprocessed.smi:3117|AV-procd|sdf|11883|dock9
  -GOLD-   2272017273D 1   1.00000     0.00000
 Structure written by MMmdl.
 36 36  0  0  0  0  0  0  0  0  1 V2000
  150.5766  142.4715  157.9252 C   0  0  0  0  0  0  0  0  0  0  0  0
  151.4109  141.2501  158.3745 C   0  0  1  0  0  0  0  0  0  0  0  0
  151.7015  140.3663  157.2388 N   0  0  0  0  0  0  0  0  0  0  0  0
  150.7198  140.3707  156.1519 C   0  0  0  0  0  0  0  0  0  0  0  0
  150.9804  139.2487  155.1229 C   0  0  0  0  0  0  0  0  0  0  0  0
  152.4760  138.9163  154.9558 C   0  0  0  0  0  0  0  0  0  0  0  0
  150.1995  137.9855  155.5214 C   0  0  0  0  0  0  0  0  0  0  0  0
  150.4607  139.6621  153.8737 O   0  0  0  0  0  0  0  0  0  0  0  0
  152.7441  141.6515  159.0639 C   0  0  2  0  0  0  0  0  0  0  0  0
  153.4520  140.4477  159.7164 C   0  0  0  0  0  0  0  0  0  0  0  0
  152.5708  142.7183  160.0430 N   0  0  0  0  0  0  0  0  0  0  0  0
  152.8010  142.6720  161.4027 C   0  0  0  0  0  0  0  0  0  0  0  0
  152.5050  143.9045  161.9103 C   0  0  0  0  0  0  0  0  0  0  0  0
  152.0972  144.6504  160.7697 C   0  0  0  0  0  0  0  0  0  0  0  0
  152.1384  143.9399  159.6545 N   0  0  0  0  0  0  0  0  0  0  0  0
  150.3286  143.1236  158.7623 H   0  0  0  0  0  0  0  0  0  0  0  0
  149.6244  142.1791  157.4848 H   0  0  0  0  0  0  0  0  0  0  0  0
  151.1159  143.0690  157.1896 H   0  0  0  0  0  0  0  0  0  0  0  0
  150.8155  140.6993  159.1041 H   0  0  0  0  0  0  0  0  0  0  0  0
  152.6195  140.5798  156.8615 H   0  0  0  0  0  0  0  0  0  0  0  0
  149.7205  140.2468  156.5708 H   0  0  0  0  0  0  0  0  0  0  0  0
  150.7208  141.3299  155.6348 H   0  0  0  0  0  0  0  0  0  0  0  0
  152.9197  138.6198  155.9068 H   0  0  0  0  0  0  0  0  0  0  0  0
  153.0440  139.7672  154.5781 H   0  0  0  0  0  0  0  0  0  0  0  0
  152.6229  138.0948  154.2537 H   0  0  0  0  0  0  0  0  0  0  0  0
  150.5449  137.5967  156.4801 H   0  0  0  0  0  0  0  0  0  0  0  0
  150.3191  137.1913  154.7836 H   0  0  0  0  0  0  0  0  0  0  0  0
  149.1320  138.1896  155.6155 H   0  0  0  0  0  0  0  0  0  0  0  0
  149.8622  138.9997  153.5641 H   0  0  0  0  0  0  0  0  0  0  0  0
  153.4121  142.0462  158.2961 H   0  0  0  0  0  0  0  0  0  0  0  0
  153.7186  139.6916  158.9777 H   0  0  0  0  0  0  0  0  0  0  0  0
  152.8192  139.9682  160.4640 H   0  0  0  0  0  0  0  0  0  0  0  0
  154.3740  140.7564  160.2100 H   0  0  0  0  0  0  0  0  0  0  0  0
  153.1532  141.7754  161.8909 H   0  0  0  0  0  0  0  0  0  0  0  0
  152.5703  144.2246  162.9394 H   0  0  0  0  0  0  0  0  0  0  0  0
  151.7749  145.6798  160.7192 H   0  0  0  0  0  0  0  0  0  0  0  0
  1  2  1  0  0  0  0
  1 16  1  0  0  0  0
  1 17  1  0  0  0  0
  1 18  1  0  0  0  0
  2  3  1  0  0  0  0
  2  9  1  0  0  0  0
  2 19  1  0  0  0  0
  3  4  1  0  0  0  0
  3 20  1  0  0  0  0
  4  5  1  0  0  0  0
  4 21  1  0  0  0  0
  4 22  1  0  0  0  0
  5  6  1  0  0  0  0
  5  7  1  0  0  0  0
  5  8  1  0  0  0  0
  6 23  1  0  0  0  0
  6 24  1  0  0  0  0
  6 25  1  0  0  0  0
  7 26  1  0  0  0  0
  7 27  1  0  0  0  0
  7 28  1  0  0  0  0
  8 29  1  0  0  0  0
  9 10  1  0  0  0  0
  9 11  1  0  0  0  0
  9 30  1  0  0  0  0
 10 31  1  0  0  0  0
 10 32  1  0  0  0  0
 10 33  1  0  0  0  0
 11 15  1  0  0  0  0
 11 12  1  0  0  0  0
 12 13  2  0  0  0  0
 12 34  1  0  0  0  0
 13 14  1  0  0  0  0
 13 35  1  0  0  0  0
 14 15  2  0  0  0  0
 14 36  1  0  0  0  0
M  END
> <s_m_source_file>
AV-unprocessed.smi

> <i_m_source_file_index>
3117

> <i_lp_mmshare_version>
43012

> <i_f3d_flags>
0

> <s_epik_input>
W0NIM11DKFtDSDNdKShbT0hdKVtDSDJdW05IXVtDQEBIXShbQ0gzXSlbQ0BIXShbQ0gzXSluMVtjSF1bY0hdW2NIXW4x

> <s_epik_cmdline>
J2VwaWtfcHl0aG9uJywgJy1waCcsICc3LjAnLCAnLXRuJywgJzgnLCAnLW1hJywgJzIwMCcsICctbWV0YWxfYmluZGluZycsICctaW1hZScsICc8aW5maWxlLm1hZT4nLCAnLW9tYWUnLCAnPG91dGZpbGUubWFlPic=

> <r_lp_tautomer_probability>
1

> <r_epik_Ionization_Penalty>
2.13419

> <r_epik_Ionization_Penalty_Charging>
0

> <r_epik_Ionization_Penalty_Neutral>
2.13419

> <r_epik_State_Penalty>
2.27148

> <r_epik_Charging_Adjusted_Penalty>
2.27148

> <i_epik_Tot_Q>
0

> <i_epik_Tot_abs_Q>
0

> <r_epik_Metal_State_Penalty>
2.27029

> <b_epik_Metal_Only>
0

> <s_lp_Force_Field>
OPLS_2005

> <r_lp_Energy>
18.8486

> <b_lp_Chiralities_Consistent>
1

> <s_lp_Variant>
AV-unprocessed.smi:3117-6

> <Gold.Version>
5.8.1

> <Gold.Id.Protein>
6NUR|6NUR_protein|mol2

> <Gold.PLP.Fitness>
37.2565

> <Gold.PLP.PLP>
-36.3327

> <Gold.PLP.part.hbond>
-2.0000

> <Gold.PLP.part.metal>
0.0000

> <Gold.PLP.part.buried>
-4.5540

> <Gold.PLP.part.nonpolar>
-29.3854

> <Gold.PLP.part.repulsive>
0.0122

> <Gold.PLP.ligand.clash>
0.0000

> <Gold.PLP.ligand.torsion>
1.0922

> <Gold.PLP.Chemscore.Hbond>
1.0000

> <Gold.PLP.Chemscore.CHOScore>
0.0000

> <Gold.PLP.Chemscore.Metal>
0.0000

> <Gold.Chemscore.Hbonds>
donor molecule, donor type, donor heavy atom, donor atom, acceptor molecule, acceptor atom, score
      P1  H  7989  7998       L1     8  1.00

> <Gold.PLP.Chemscore.Internal.Correction>
0.1082

> <Gold.Rescore>
     Score         DG    S(hbond)    S(metal)    S(lipo)     H(rot)  DE(clash)    DE(int)     intcor
     10.94     -13.59       0.82        0.00      93.78       2.19       0.08       2.58       ----

> <Gold.Chemscore.Fitness>
10.9390

> <Gold.Chemscore.DG>
-13.5905

> <Gold.Chemscore.ZeroCoef>
-5.4800

> <Gold.Chemscore.Hbond>
0.8204

> <Gold.Chemscore.Metal>
0.0000

> <Gold.Chemscore.Lipo>
93.7788

> <Gold.Chemscore.Internal_Hbond>
0.0000

> <Gold.Chemscore.DEClash>
0.0750

> <Gold.Chemscore.DEInternal>
2.5765

> <Gold.Chemscore.Rot>
2.1882

> <Gold.Chemscore.Internal.Correction>
   9.000000E+99

> <Gold.Chemscore.Hbonds>
donor molecule, donor type, donor heavy atom, donor atom, acceptor molecule, acceptor atom, score
      P1  H  7989  7998       L1     8  0.25

> <Gold.Chemscore.Hbond.Weighted>
-2.7401

> <Gold.Chemscore.Metal.Weighted>
-0.0000

> <Gold.Chemscore.Lipo.Weighted>
-10.9721

> <Gold.Chemscore.Internal_Hbond.Weighted>
0.0000

> <Gold.Chemscore.DEClash.Weighted>
0.0750

> <Gold.Chemscore.DEInternal.Weighted>
2.5765

> <Gold.Chemscore.Rot.Weighted>
5.6018

> <Gold.Chemscore.Internal.Correction.Weighted>
   9.000000E+99

> <Gold.Protein.RotatedTorsions>
[ 6907 6896 6895 6894 ] final   84.10 input  -60.11 | X-H torsion
[ 7974 7965 7964 7962 ] final    2.46 input  175.53 | X-H torsion
[ 8008 7997 7996 7995 ] final -111.00 input   59.86 | X-H torsion
[ 10167 10162 10161 10158 ] final  -79.14 input  -65.29 | X-H torsion
[ 10718 10713 10712 10709 ] final  142.88 input   66.30 | X-H torsion
[ 10763 10752 10751 10750 ] final -179.82 input  -60.55 | X-H torsion
[ 11005 11000 10999 10996 ] final -110.87 input  -57.11 | X-H torsion

> <Gold.Protein.ActiveResidues>
 VAL166  LYS551  ARG553  GLY616  TRP617  ASP618  TYR619  PRO620  LYS621  CYS622 
 ASP623  PHE694  ASN695  SER759  ASP760  ASP761  ALA762  ILE779  LEU786  VAL792 
 PHE793  MET794  SER795  GLU796  ALA797  LYS798  CYS799  TRP800  GLU811  SER814 

> <Gold.Protein.RotatedAtoms>
  152.5344  134.2793  159.9001 H   0  0  0  0  0  0  0  0  0  0  0  0  # atno 6907 bound_to 6896
  151.2748  133.4231  159.2631 H   0  0  0  0  0  0  0  0  0  0  0  0  # atno 6908 bound_to 6896
  151.0335  134.9572  159.8180 H   0  0  0  0  0  0  0  0  0  0  0  0  # atno 6909 bound_to 6896
  146.2444  140.0833  142.8356 H   0  0  0  0  0  0  0  0  0  0  0  0  # atno 7974 bound_to 7965
  154.9831  140.0396  157.2286 H   0  0  0  0  0  0  0  0  0  0  0  0  # atno 8008 bound_to 7997
  154.7696  140.2799  155.6126 H   0  0  0  0  0  0  0  0  0  0  0  0  # atno 8009 bound_to 7997
  156.2918  140.2612  156.2495 H   0  0  0  0  0  0  0  0  0  0  0  0  # atno 8010 bound_to 7997
  140.4619  143.2451  151.8335 H   0  0  0  0  0  0  0  0  0  0  0  0  # atno 10167 bound_to 10162
  157.3754  131.0985  151.0789 H   0  0  0  0  0  0  0  0  0  0  0  0  # atno 10718 bound_to 10713
  154.5302  135.2799  155.1187 H   0  0  0  0  0  0  0  0  0  0  0  0  # atno 10763 bound_to 10752
  154.2710  135.6303  153.5314 H   0  0  0  0  0  0  0  0  0  0  0  0  # atno 10764 bound_to 10752
  152.9955  135.5628  154.5813 H   0  0  0  0  0  0  0  0  0  0  0  0  # atno 10765 bound_to 10752
  141.0767  133.9289  157.2375 H   0  0  0  0  0  0  0  0  0  0  0  0  # atno 11005 bound_to 11000
  145.0714  140.9158  143.4880 LP  0  0  0  0  0  0  0  0  0  0  0  0  # atno 17320 bound_to 7965
  145.0968  139.2851  143.5707 LP  0  0  0  0  0  0  0  0  0  0  0  0  # atno 17321 bound_to 7965
  139.4807  144.4997  151.9077 LP  0  0  0  0  0  0  0  0  0  0  0  0  # atno 17342 bound_to 10162
  140.4082  144.2403  150.5890 LP  0  0  0  0  0  0  0  0  0  0  0  0  # atno 17343 bound_to 10162
  157.1877  130.6338  149.5693 LP  0  0  0  0  0  0  0  0  0  0  0  0  # atno 17370 bound_to 10713
  155.9764  130.4732  150.6527 LP  0  0  0  0  0  0  0  0  0  0  0  0  # atno 17371 bound_to 10713
  139.9579  135.0161  156.9180 LP  0  0  0  0  0  0  0  0  0  0  0  0  # atno 17394 bound_to 11000
  140.5558  134.0583  155.7383 LP  0  0  0  0  0  0  0  0  0  0  0  0  # atno 17395 bound_to 11000

$$$$
