AV-unprocessed.smi:113|AV-procd|sdf|1094|dock2
  -GOLD-   2262018203D 1   1.00000     0.00000
 Structure written by MMmdl.
 52 55  0  0  0  0  0  0  0  0  1 V2000
  153.0408  137.2768  157.2897 C   0  0  0  0  0  0  0  0  0  0  0  0
  152.7011  138.7093  157.6455 C   0  0  0  0  0  0  0  0  0  0  0  0
  151.8711  139.4804  156.8125 C   0  0  0  0  0  0  0  0  0  0  0  0
  151.5832  140.8159  157.1771 C   0  0  0  0  0  0  0  0  0  0  0  0
  150.6846  141.7000  156.3046 C   0  0  0  0  0  0  0  0  0  0  0  0
  149.3405  141.2080  156.0382 N   0  0  0  0  0  0  0  0  0  0  0  0
  148.9584  141.0259  154.6860 C   0  0  0  0  0  0  0  0  0  0  0  0
  149.7410  141.2462  153.7592 O   0  0  0  0  0  0  0  0  0  0  0  0
  147.5753  140.5867  154.4831 C   0  0  0  0  0  0  0  0  0  0  0  0
  147.0908  140.3791  153.0569 C   0  0  0  0  0  0  0  0  0  0  0  0
  146.7684  140.3897  155.5532 C   0  0  0  0  0  0  0  0  0  0  0  0
  147.1720  140.5716  156.8649 N   0  0  0  0  0  0  0  0  0  0  0  0
  146.2092  140.3685  158.0082 C   0  0  1  0  0  0  0  0  0  0  0  0
  144.8007  140.1100  157.4905 C   0  0  0  0  0  0  0  0  0  0  0  0
  144.2078  139.2997  158.6266 C   0  0  2  0  0  0  0  0  0  0  0  0
  143.5842  140.1552  159.5650 O   0  0  0  0  0  0  0  0  0  0  0  0
  145.4257  138.6012  159.2656 C   0  0  1  0  0  0  0  0  0  0  0  0
  145.5224  137.1047  158.9290 C   0  0  0  0  0  0  0  0  0  0  0  0
  146.6876  136.5461  159.4976 O   0  0  0  0  0  0  0  0  0  0  0  0
  146.5839  139.2361  158.7243 O   0  0  0  0  0  0  0  0  0  0  0  0
  148.4812  141.0121  157.1425 C   0  0  0  0  0  0  0  0  0  0  0  0
  148.8447  141.2366  158.2996 O   0  0  0  0  0  0  0  0  0  0  0  0
  152.1558  141.3154  158.3777 C   0  0  0  0  0  0  0  0  0  0  0  0
  151.9210  142.6423  158.8128 C   0  0  0  0  0  0  0  0  0  0  0  0
  152.4978  143.1180  160.0036 C   0  0  0  0  0  0  0  0  0  0  0  0
  153.3141  142.2728  160.7728 C   0  0  0  0  0  0  0  0  0  0  0  0
  153.5525  140.9535  160.3478 C   0  0  0  0  0  0  0  0  0  0  0  0
  152.9855  140.4547  159.1556 C   0  0  0  0  0  0  0  0  0  0  0  0
  153.2438  139.1814  158.7845 N   0  0  0  0  0  0  0  0  0  0  0  0
  152.3608  136.8878  156.5311 H   0  0  0  0  0  0  0  0  0  0  0  0
  152.9703  136.6334  158.1673 H   0  0  0  0  0  0  0  0  0  0  0  0
  154.0576  137.2167  156.9006 H   0  0  0  0  0  0  0  0  0  0  0  0
  151.4710  139.0407  155.9115 H   0  0  0  0  0  0  0  0  0  0  0  0
  150.5852  142.6915  156.7491 H   0  0  0  0  0  0  0  0  0  0  0  0
  151.1605  141.8834  155.3399 H   0  0  0  0  0  0  0  0  0  0  0  0
  146.0504  140.0546  153.0247 H   0  0  0  0  0  0  0  0  0  0  0  0
  147.6925  139.6188  152.5572 H   0  0  0  0  0  0  0  0  0  0  0  0
  147.1685  141.3065  152.4884 H   0  0  0  0  0  0  0  0  0  0  0  0
  145.7488  140.0833  155.3680 H   0  0  0  0  0  0  0  0  0  0  0  0
  146.2810  141.2340  158.6691 H   0  0  0  0  0  0  0  0  0  0  0  0
  144.2766  141.0399  157.2657 H   0  0  0  0  0  0  0  0  0  0  0  0
  144.8535  139.5020  156.5860 H   0  0  0  0  0  0  0  0  0  0  0  0
  143.4605  138.5939  158.2625 H   0  0  0  0  0  0  0  0  0  0  0  0
  144.1478  140.8979  159.7193 H   0  0  0  0  0  0  0  0  0  0  0  0
  145.4349  138.7336  160.3491 H   0  0  0  0  0  0  0  0  0  0  0  0
  144.6432  136.5660  159.2842 H   0  0  0  0  0  0  0  0  0  0  0  0
  145.5714  136.9658  157.8486 H   0  0  0  0  0  0  0  0  0  0  0  0
  146.5121  135.6447  159.7207 H   0  0  0  0  0  0  0  0  0  0  0  0
  151.2990  143.3178  158.2458 H   0  0  0  0  0  0  0  0  0  0  0  0
  152.3132  144.1322  160.3262 H   0  0  0  0  0  0  0  0  0  0  0  0
  153.7583  142.6351  161.6883 H   0  0  0  0  0  0  0  0  0  0  0  0
  154.1829  140.3131  160.9475 H   0  0  0  0  0  0  0  0  0  0  0  0
  1  2  1  0  0  0  0
  1 30  1  0  0  0  0
  1 31  1  0  0  0  0
  1 32  1  0  0  0  0
  2 29  1  0  0  0  0
  2  3  2  0  0  0  0
  3  4  1  0  0  0  0
  3 33  1  0  0  0  0
  4  5  1  0  0  0  0
  4 23  2  0  0  0  0
  5  6  1  0  0  0  0
  5 34  1  0  0  0  0
  5 35  1  0  0  0  0
  6 21  1  0  0  0  0
  6  7  1  0  0  0  0
  7  8  2  0  0  0  0
  7  9  1  0  0  0  0
  9 10  1  0  0  0  0
  9 11  2  0  0  0  0
 10 36  1  0  0  0  0
 10 37  1  0  0  0  0
 10 38  1  0  0  0  0
 11 12  1  0  0  0  0
 11 39  1  0  0  0  0
 12 13  1  0  0  0  0
 12 21  1  0  0  0  0
 13 20  1  0  0  0  0
 13 14  1  0  0  0  0
 13 40  1  0  0  0  0
 14 15  1  0  0  0  0
 14 41  1  0  0  0  0
 14 42  1  0  0  0  0
 15 16  1  0  0  0  0
 15 17  1  0  0  0  0
 15 43  1  0  0  0  0
 16 44  1  0  0  0  0
 17 18  1  0  0  0  0
 17 20  1  0  0  0  0
 17 45  1  0  0  0  0
 18 19  1  0  0  0  0
 18 46  1  0  0  0  0
 18 47  1  0  0  0  0
 19 48  1  0  0  0  0
 21 22  2  0  0  0  0
 23 28  1  0  0  0  0
 23 24  1  0  0  0  0
 24 25  2  0  0  0  0
 24 49  1  0  0  0  0
 25 26  1  0  0  0  0
 25 50  1  0  0  0  0
 26 27  2  0  0  0  0
 26 51  1  0  0  0  0
 27 28  1  0  0  0  0
 27 52  1  0  0  0  0
 28 29  2  0  0  0  0
M  END
> <s_m_source_file>
AV-unprocessed.smi

> <i_m_source_file_index>
113

> <i_lp_mmshare_version>
43012

> <i_f3d_flags>
0

> <s_epik_input>
W2NIXTFbY0hdW2NIXVtjSF1jKGMxMiluYyhbQ0gzXSlbY0hdYzJbQ0gyXW4zYyg9TyljKFtDSDNdKVtjSF1uKGMzPU8pW0NAQEhdNFtDSDJdW0NAQEhdKFtPSF0pW0NASF0oTzQpW0NIMl1bT0hd

> <s_epik_cmdline>
J2VwaWtfcHl0aG9uJywgJy1waCcsICc3LjAnLCAnLXRuJywgJzgnLCAnLW1hJywgJzIwMCcsICctbWV0YWxfYmluZGluZycsICctaW1hZScsICc8aW5maWxlLm1hZT4nLCAnLW9tYWUnLCAnPG91dGZpbGUubWFlPic=

> <r_lp_tautomer_probability>
1

> <r_epik_Ionization_Penalty>
0.214728

> <r_epik_Ionization_Penalty_Charging>
3.04883e-08

> <r_epik_Ionization_Penalty_Neutral>
0.214728

> <r_epik_State_Penalty>
0.204913

> <r_epik_Charging_Adjusted_Penalty>
0.204913

> <i_epik_Tot_Q>
0

> <i_epik_Tot_abs_Q>
0

> <r_epik_Metal_State_Penalty>
0.000244761

> <b_epik_Metal_Only>
0

> <s_epik_Chemistry_Notes>
This compound contains an acetal/aminal-like group ( X-CH(R)-Y where X, Y are N, S, or O) that may be acid/base labile, releasing an aldehyde.

> <s_lp_Force_Field>
OPLS_2005

> <r_lp_Energy>
39.8803

> <b_lp_Chiralities_Consistent>
1

> <s_lp_Variant>
AV-unprocessed.smi:113-4

> <Gold.Version>
5.8.1

> <Gold.Id.Protein>
6NUR|6NUR_protein|mol2

> <Gold.PLP.Fitness>
47.6274

> <Gold.PLP.PLP>
-41.2864

> <Gold.PLP.part.hbond>
-3.9806

> <Gold.PLP.part.metal>
0.0000

> <Gold.PLP.part.buried>
-3.6568

> <Gold.PLP.part.nonpolar>
-35.0212

> <Gold.PLP.part.repulsive>
2.0429

> <Gold.PLP.ligand.clash>
0.0000

> <Gold.PLP.ligand.torsion>
0.1723

> <Gold.PLP.Chemscore.Hbond>
2.2082

> <Gold.PLP.Chemscore.CHOScore>
0.0000

> <Gold.PLP.Chemscore.Metal>
0.0000

> <Gold.Chemscore.Hbonds>
donor molecule, donor type, donor heavy atom, donor atom, acceptor molecule, acceptor atom, score
      P1  H  7989  7998       L1     8  0.26
      P1  H  8011  8017       L1     8  0.85

> <Gold.PLP.Chemscore.Internal.Correction>
0.0611

> <Gold.Rescore>
     Score         DG    S(hbond)    S(metal)    S(lipo)     H(rot)  DE(clash)    DE(int)     intcor
     16.07     -17.97       2.17        0.00     109.41       2.95       1.53       0.37       ----

> <Gold.Chemscore.Fitness>
16.0689

> <Gold.Chemscore.DG>
-17.9712

> <Gold.Chemscore.ZeroCoef>
-5.4800

> <Gold.Chemscore.Hbond>
2.1658

> <Gold.Chemscore.Metal>
0.0000

> <Gold.Chemscore.Lipo>
109.4134

> <Gold.Chemscore.Internal_Hbond>
0.0000

> <Gold.Chemscore.DEClash>
1.5301

> <Gold.Chemscore.DEInternal>
0.3722

> <Gold.Chemscore.Rot>
2.9469

> <Gold.Chemscore.Internal.Correction>
   9.000000E+99

> <Gold.Chemscore.Hbonds>
donor molecule, donor type, donor heavy atom, donor atom, acceptor molecule, acceptor atom, score
      P1  H  7989  7998       L1     8  0.24
      P1  H  8011  8017       L1     8  0.83

> <Gold.Chemscore.Hbond.Weighted>
-7.2337

> <Gold.Chemscore.Metal.Weighted>
-0.0000

> <Gold.Chemscore.Lipo.Weighted>
-12.8014

> <Gold.Chemscore.Internal_Hbond.Weighted>
0.0000

> <Gold.Chemscore.DEClash.Weighted>
1.5301

> <Gold.Chemscore.DEInternal.Weighted>
0.3722

> <Gold.Chemscore.Rot.Weighted>
7.5439

> <Gold.Chemscore.Internal.Correction.Weighted>
   9.000000E+99

> <Gold.Protein.RotatedTorsions>
[ 6907 6896 6895 6894 ] final   22.80 input  -60.11 | X-H torsion
[ 7974 7965 7964 7962 ] final   71.32 input  175.53 | X-H torsion
[ 8008 7997 7996 7995 ] final -103.49 input   59.86 | X-H torsion
[ 10167 10162 10161 10158 ] final   30.09 input  -65.29 | X-H torsion
[ 10718 10713 10712 10709 ] final -110.45 input   66.30 | X-H torsion
[ 10763 10752 10751 10750 ] final  -86.40 input  -60.55 | X-H torsion
[ 11005 11000 10999 10996 ] final  176.69 input  -57.11 | X-H torsion

> <Gold.Protein.ActiveResidues>
 VAL166  LYS551  ARG553  GLY616  TRP617  ASP618  TYR619  PRO620  LYS621  CYS622 
 ASP623  PHE694  ASN695  SER759  ASP760  ASP761  ALA762  ILE779  LEU786  VAL792 
 PHE793  MET794  SER795  GLU796  ALA797  LYS798  CYS799  TRP800  GLU811  SER814 

> <Gold.Protein.RotatedAtoms>
  151.9326  135.0249  160.0530 H   0  0  0  0  0  0  0  0  0  0  0  0  # atno 6907 bound_to 6896
  152.2105  133.4903  159.5116 H   0  0  0  0  0  0  0  0  0  0  0  0  # atno 6908 bound_to 6896
  150.6975  134.1390  159.4140 H   0  0  0  0  0  0  0  0  0  0  0  0  # atno 6909 bound_to 6896
  145.7673  139.2827  143.1341 H   0  0  0  0  0  0  0  0  0  0  0  0  # atno 7974 bound_to 7965
  154.8716  140.0422  157.1728 H   0  0  0  0  0  0  0  0  0  0  0  0  # atno 8008 bound_to 7997
  154.8733  140.2961  155.5447 H   0  0  0  0  0  0  0  0  0  0  0  0  # atno 8009 bound_to 7997
  156.2999  140.2425  156.3725 H   0  0  0  0  0  0  0  0  0  0  0  0  # atno 8010 bound_to 7997
  140.4708  144.0765  150.6237 H   0  0  0  0  0  0  0  0  0  0  0  0  # atno 10167 bound_to 10162
  156.0592  130.5816  150.8239 H   0  0  0  0  0  0  0  0  0  0  0  0  # atno 10718 bound_to 10713
  154.6220  135.5450  153.7585 H   0  0  0  0  0  0  0  0  0  0  0  0  # atno 10763 bound_to 10752
  153.0243  135.6415  154.1427 H   0  0  0  0  0  0  0  0  0  0  0  0  # atno 10764 bound_to 10752
  154.1361  135.2911  155.3153 H   0  0  0  0  0  0  0  0  0  0  0  0  # atno 10765 bound_to 10752
  140.3759  134.6989  157.4421 H   0  0  0  0  0  0  0  0  0  0  0  0  # atno 11005 bound_to 11000
  146.0205  140.8352  142.9926 LP  0  0  0  0  0  0  0  0  0  0  0  0  # atno 17320 bound_to 7965
  144.6819  140.2621  143.7317 LP  0  0  0  0  0  0  0  0  0  0  0  0  # atno 17321 bound_to 7965
  140.3979  143.2719  151.9983 LP  0  0  0  0  0  0  0  0  0  0  0  0  # atno 17342 bound_to 10162
  139.4818  144.6023  151.7584 LP  0  0  0  0  0  0  0  0  0  0  0  0  # atno 17343 bound_to 10162
  157.5586  131.0945  150.9591 LP  0  0  0  0  0  0  0  0  0  0  0  0  # atno 17370 bound_to 10713
  156.9834  130.5536  149.5298 LP  0  0  0  0  0  0  0  0  0  0  0  0  # atno 17371 bound_to 10713
  140.0516  134.6122  155.8855 LP  0  0  0  0  0  0  0  0  0  0  0  0  # atno 17394 bound_to 11000
  141.1939  133.6581  156.5572 LP  0  0  0  0  0  0  0  0  0  0  0  0  # atno 17395 bound_to 11000

$$$$
