AV-unprocessed.smi:1387|AV-procd|sdf|5640|dock3
  -GOLD-   22720 5253D 1   1.00000     0.00000
 Structure written by MMmdl.
 34 35  0  0  0  0  0  0  0  0  1 V2000
  146.0823  143.1786  153.7209 C   0  0  0  0  0  0  0  0  0  0  0  0
  147.4171  142.9091  154.1342 O   0  0  0  0  0  0  0  0  0  0  0  0
  147.8620  141.6008  154.1149 C   0  0  0  0  0  0  0  0  0  0  0  0
  147.1801  140.6964  153.3679 N   0  0  0  0  0  0  0  0  0  0  0  0
  147.6168  139.4201  153.3481 C   0  0  0  0  0  0  0  0  0  0  0  0
  148.7495  138.9815  154.0586 C   0  0  0  0  0  0  0  0  0  0  0  0
  149.4582  139.9178  154.8340 C   0  0  0  0  0  0  0  0  0  0  0  0
  149.0022  141.2568  154.8769 C   0  0  0  0  0  0  0  0  0  0  0  0
  149.6543  142.2831  155.6111 N   0  0  0  0  0  0  0  0  0  0  0  0
  150.7036  142.1769  156.4484 C   0  0  0  0  0  0  0  0  0  0  0  0
  151.2959  141.1290  156.6978 O   0  0  0  0  0  0  0  0  0  0  0  0
  151.0470  143.3330  157.0451 N   0  0  0  0  0  0  0  0  0  0  0  0
  152.1311  143.5669  158.0032 C   0  0  0  0  0  0  0  0  0  0  0  0
  151.9547  142.6810  159.2508 C   0  0  0  0  0  0  0  0  0  0  0  0
  152.2159  143.5894  160.4527 C   0  0  0  0  0  0  0  0  0  0  0  0
  151.7502  144.9655  159.9893 C   0  0  0  0  0  0  0  0  0  0  0  0
  152.1520  145.0237  158.5149 C   0  0  0  0  0  0  0  0  0  0  0  0
  145.8896  144.2482  153.8014 H   0  0  0  0  0  0  0  0  0  0  0  0
  145.3575  142.6634  154.3529 H   0  0  0  0  0  0  0  0  0  0  0  0
  145.9208  142.8908  152.6812 H   0  0  0  0  0  0  0  0  0  0  0  0
  147.0496  138.7288  152.7425 H   0  0  0  0  0  0  0  0  0  0  0  0
  149.0698  137.9516  154.0061 H   0  0  0  0  0  0  0  0  0  0  0  0
  150.3408  139.5982  155.3666 H   0  0  0  0  0  0  0  0  0  0  0  0
  149.2089  143.1886  155.5762 H   0  0  0  0  0  0  0  0  0  0  0  0
  150.4563  144.1289  156.8518 H   0  0  0  0  0  0  0  0  0  0  0  0
  153.0895  143.3318  157.5369 H   0  0  0  0  0  0  0  0  0  0  0  0
  150.9326  142.3035  159.3125 H   0  0  0  0  0  0  0  0  0  0  0  0
  152.6174  141.8150  159.2400 H   0  0  0  0  0  0  0  0  0  0  0  0
  151.7026  143.2527  161.3538 H   0  0  0  0  0  0  0  0  0  0  0  0
  153.2847  143.6170  160.6683 H   0  0  0  0  0  0  0  0  0  0  0  0
  150.6651  145.0343  160.0771 H   0  0  0  0  0  0  0  0  0  0  0  0
  152.1845  145.7763  160.5750 H   0  0  0  0  0  0  0  0  0  0  0  0
  153.1661  145.4169  158.4317 H   0  0  0  0  0  0  0  0  0  0  0  0
  151.5040  145.6945  157.9492 H   0  0  0  0  0  0  0  0  0  0  0  0
  1  2  1  0  0  0  0
  1 18  1  0  0  0  0
  1 19  1  0  0  0  0
  1 20  1  0  0  0  0
  2  3  1  0  0  0  0
  3  8  1  0  0  0  0
  3  4  2  0  0  0  0
  4  5  1  0  0  0  0
  5  6  2  0  0  0  0
  5 21  1  0  0  0  0
  6  7  1  0  0  0  0
  6 22  1  0  0  0  0
  7  8  2  0  0  0  0
  7 23  1  0  0  0  0
  8  9  1  0  0  0  0
  9 10  1  0  0  0  0
  9 24  1  0  0  0  0
 10 11  2  0  0  0  0
 10 12  1  0  0  0  0
 12 13  1  0  0  0  0
 12 25  1  0  0  0  0
 13 17  1  0  0  0  0
 13 14  1  0  0  0  0
 13 26  1  0  0  0  0
 14 15  1  0  0  0  0
 14 27  1  0  0  0  0
 14 28  1  0  0  0  0
 15 16  1  0  0  0  0
 15 29  1  0  0  0  0
 15 30  1  0  0  0  0
 16 17  1  0  0  0  0
 16 31  1  0  0  0  0
 16 32  1  0  0  0  0
 17 33  1  0  0  0  0
 17 34  1  0  0  0  0
M  END
> <s_m_source_file>
AV-unprocessed.smi

> <i_m_source_file_index>
1387

> <i_lp_mmshare_version>
43012

> <i_f3d_flags>
0

> <s_epik_input>
W0NIM11PYzFuW2NIXVtjSF1bY0hdYzFbTkhdQyg9TylbTkhdW0NIXTJbQ0gyXVtDSDJdW0NIMl1bQ0gyXTI=

> <s_epik_cmdline>
J2VwaWtfcHl0aG9uJywgJy1waCcsICc3LjAnLCAnLXRuJywgJzgnLCAnLW1hJywgJzIwMCcsICctbWV0YWxfYmluZGluZycsICctaW1hZScsICc8aW5maWxlLm1hZT4nLCAnLW9tYWUnLCAnPG91dGZpbGUubWFlPic=

> <r_lp_tautomer_probability>
1

> <r_epik_Ionization_Penalty>
0.000100079

> <r_epik_Ionization_Penalty_Charging>
0

> <r_epik_Ionization_Penalty_Neutral>
0.000100079

> <r_epik_State_Penalty>
-0

> <r_epik_Charging_Adjusted_Penalty>
0

> <i_epik_Tot_Q>
0

> <i_epik_Tot_abs_Q>
0

> <r_epik_Metal_State_Penalty>
-0

> <b_epik_Metal_Only>
0

> <s_lp_Force_Field>
OPLS_2005

> <r_lp_Energy>
31.3495

> <b_lp_Chiralities_Consistent>
1

> <s_lp_Variant>
AV-unprocessed.smi:1387-1

> <Gold.Version>
5.8.1

> <Gold.Id.Protein>
6NUR|6NUR_protein|mol2

> <Gold.PLP.Fitness>
44.5675

> <Gold.PLP.PLP>
-38.5581

> <Gold.PLP.part.hbond>
-3.0118

> <Gold.PLP.part.metal>
0.0000

> <Gold.PLP.part.buried>
-4.6951

> <Gold.PLP.part.nonpolar>
-33.7471

> <Gold.PLP.part.repulsive>
2.9773

> <Gold.PLP.ligand.clash>
0.0000

> <Gold.PLP.ligand.torsion>
0.2679

> <Gold.PLP.Chemscore.Hbond>
2.1807

> <Gold.PLP.Chemscore.CHOScore>
0.0000

> <Gold.PLP.Chemscore.Metal>
0.0000

> <Gold.Chemscore.Hbonds>
donor molecule, donor type, donor heavy atom, donor atom, acceptor molecule, acceptor atom, score
      L1  H     9    24       P1  8028  1.00
      L1  H    12    25       P1  8028  0.86
      P1  H  8022  8030       L1     2  0.32

> <Gold.PLP.Chemscore.Internal.Correction>
0.0032

> <Gold.Rescore>
     Score         DG    S(hbond)    S(metal)    S(lipo)     H(rot)  DE(clash)    DE(int)     intcor
     16.97     -19.51       1.91        0.00      92.37       1.23       1.10       1.44       ----

> <Gold.Chemscore.Fitness>
16.9666

> <Gold.Chemscore.DG>
-19.5094

> <Gold.Chemscore.ZeroCoef>
-5.4800

> <Gold.Chemscore.Hbond>
1.9084

> <Gold.Chemscore.Metal>
0.0000

> <Gold.Chemscore.Lipo>
92.3738

> <Gold.Chemscore.Internal_Hbond>
0.0000

> <Gold.Chemscore.DEClash>
1.1031

> <Gold.Chemscore.DEInternal>
1.4397

> <Gold.Chemscore.Rot>
1.2315

> <Gold.Chemscore.Internal.Correction>
   9.000000E+99

> <Gold.Chemscore.Hbonds>
donor molecule, donor type, donor heavy atom, donor atom, acceptor molecule, acceptor atom, score
      L1  H     9    24       P1  8028  0.97
      L1  H    12    25       P1  8028  0.78
      P1  H  8022  8030       L1     2  0.15

> <Gold.Chemscore.Hbond.Weighted>
-6.3742

> <Gold.Chemscore.Metal.Weighted>
-0.0000

> <Gold.Chemscore.Lipo.Weighted>
-10.8077

> <Gold.Chemscore.Internal_Hbond.Weighted>
0.0000

> <Gold.Chemscore.DEClash.Weighted>
1.1031

> <Gold.Chemscore.DEInternal.Weighted>
1.4397

> <Gold.Chemscore.Rot.Weighted>
3.1526

> <Gold.Chemscore.Internal.Correction.Weighted>
   9.000000E+99

> <Gold.Protein.RotatedTorsions>
[ 6907 6896 6895 6894 ] final  -34.24 input  -60.11 | X-H torsion
[ 7974 7965 7964 7962 ] final   13.67 input  175.53 | X-H torsion
[ 8008 7997 7996 7995 ] final  111.50 input   59.86 | X-H torsion
[ 10167 10162 10161 10158 ] final  121.58 input  -65.29 | X-H torsion
[ 10718 10713 10712 10709 ] final   -9.73 input   66.30 | X-H torsion
[ 10763 10752 10751 10750 ] final   10.76 input  -60.55 | X-H torsion
[ 11005 11000 10999 10996 ] final   77.61 input  -57.11 | X-H torsion

> <Gold.Protein.ActiveResidues>
 VAL166  LYS551  ARG553  GLY616  TRP617  ASP618  TYR619  PRO620  LYS621  CYS622 
 ASP623  PHE694  ASN695  SER759  ASP760  ASP761  ALA762  ILE779  LEU786  VAL792 
 PHE793  MET794  SER795  GLU796  ALA797  LYS798  CYS799  TRP800  GLU811  SER814 

> <Gold.Protein.RotatedAtoms>
  151.0551  134.9699  159.8231 H   0  0  0  0  0  0  0  0  0  0  0  0  # atno 6907 bound_to 6896
  152.5387  134.2488  159.8900 H   0  0  0  0  0  0  0  0  0  0  0  0  # atno 6908 bound_to 6896
  151.2505  133.4309  159.2645 H   0  0  0  0  0  0  0  0  0  0  0  0  # atno 6909 bound_to 6896
  146.2323  139.9154  142.8518 H   0  0  0  0  0  0  0  0  0  0  0  0  # atno 7974 bound_to 7965
  156.2128  140.3018  155.9772 H   0  0  0  0  0  0  0  0  0  0  0  0  # atno 8008 bound_to 7997
  155.2680  140.0432  157.3021 H   0  0  0  0  0  0  0  0  0  0  0  0  # atno 8009 bound_to 7997
  154.5724  140.2352  155.8180 H   0  0  0  0  0  0  0  0  0  0  0  0  # atno 8010 bound_to 7997
  139.5911  144.7025  151.3288 H   0  0  0  0  0  0  0  0  0  0  0  0  # atno 10167 bound_to 10162
  156.6838  130.5045  149.5963 H   0  0  0  0  0  0  0  0  0  0  0  0  # atno 10718 bound_to 10713
  153.1998  135.6854  153.8246 H   0  0  0  0  0  0  0  0  0  0  0  0  # atno 10763 bound_to 10752
  153.7516  135.3223  155.3323 H   0  0  0  0  0  0  0  0  0  0  0  0  # atno 10764 bound_to 10752
  154.8165  135.4682  154.0759 H   0  0  0  0  0  0  0  0  0  0  0  0  # atno 10765 bound_to 10752
  139.9247  134.7697  156.1544 H   0  0  0  0  0  0  0  0  0  0  0  0  # atno 11005 bound_to 11000
  145.2189  140.9927  143.4057 LP  0  0  0  0  0  0  0  0  0  0  0  0  # atno 17320 bound_to 7965
  144.9627  139.3963  143.6348 LP  0  0  0  0  0  0  0  0  0  0  0  0  # atno 17321 bound_to 7965
  140.7173  143.7230  150.7681 LP  0  0  0  0  0  0  0  0  0  0  0  0  # atno 17342 bound_to 10162
  140.0786  143.4990  152.2542 LP  0  0  0  0  0  0  0  0  0  0  0  0  # atno 17343 bound_to 10162
  156.1848  130.6522  151.0993 LP  0  0  0  0  0  0  0  0  0  0  0  0  # atno 17370 bound_to 10713
  157.7034  131.0766  150.6747 LP  0  0  0  0  0  0  0  0  0  0  0  0  # atno 17371 bound_to 10713
  141.0796  133.6760  156.2307 LP  0  0  0  0  0  0  0  0  0  0  0  0  # atno 17394 bound_to 11000
  140.6371  134.5204  157.5566 LP  0  0  0  0  0  0  0  0  0  0  0  0  # atno 17395 bound_to 11000

$$$$
