AV-unprocessed.smi:157|AV-procd|sdf|1318|dock6
  -GOLD-   2262019 13D 1   1.00000     0.00000
 Structure written by MMmdl.
 36 38  0  0  0  0  0  0  0  0  2 V2000
  154.0050  139.9608  159.2639 O   0  0  0  0  0  0  0  0  0  0  0  0
  153.6592  138.5955  159.1652 C   0  0  0  0  0  0  0  0  0  0  0  0
  153.9831  138.0653  157.7602 C   0  0  2  0  0  0  0  0  0  0  0  0
  153.1707  138.7595  156.8157 O   0  0  0  0  0  0  0  0  0  0  0  0
  152.8675  137.8771  155.7896 C   0  0  2  0  0  0  0  0  0  0  0  0
  151.6483  138.3592  155.0760 N   0  0  0  0  0  0  0  0  0  0  0  0
  151.0794  137.7971  153.9888 C   0  0  0  0  0  0  0  0  0  0  0  0
  150.0067  138.4316  153.5464 N   0  3  0  0  0  0  0  0  0  0  0  0
  149.8194  139.5126  154.3821 C   0  0  0  0  0  0  0  0  0  0  0  0
  150.8558  139.4571  155.3175 C   0  0  0  0  0  0  0  0  0  0  0  0
  151.1535  140.3202  156.3830 N   0  0  0  0  0  0  0  0  0  0  0  0
  150.6477  141.5057  156.4893 C   0  0  0  0  0  0  0  0  0  0  0  0
  149.6945  142.1227  155.6963 N   0  0  0  0  0  0  0  0  0  0  0  0
  148.4654  141.4695  155.2821 C   0  0  0  0  0  0  0  0  0  0  0  0
  148.6621  140.4369  154.1642 C   0  0  1  0  0  0  0  0  0  0  0  0
  148.7373  141.1181  152.9288 O   0  0  0  0  0  0  0  0  0  0  0  0
  152.6036  136.5476  156.4773 C   0  0  0  0  0  0  0  0  0  0  0  0
  153.6665  136.5645  157.5637 C   0  0  1  0  0  0  0  0  0  0  0  0
  154.8184  135.8747  157.1211 O   0  0  0  0  0  0  0  0  0  0  0  0
  155.0256  138.2785  157.5155 H   0  0  0  0  0  0  0  0  0  0  0  0
  153.6676  137.8441  155.0483 H   0  0  0  0  0  0  0  0  0  0  0  0
  147.7587  139.8280  154.1157 H   0  0  0  0  0  0  0  0  0  0  0  0
  153.3014  136.0881  158.4744 H   0  0  0  0  0  0  0  0  0  0  0  0
  153.9785  140.2134  160.1744 H   0  0  0  0  0  0  0  0  0  0  0  0
  154.1867  138.0249  159.9302 H   0  0  0  0  0  0  0  0  0  0  0  0
  152.5920  138.4979  159.3663 H   0  0  0  0  0  0  0  0  0  0  0  0
  151.4682  136.9076  153.5260 H   0  0  0  0  0  0  0  0  0  0  0  0
  150.9791  142.1494  157.3056 H   0  0  0  0  0  0  0  0  0  0  0  0
  149.5725  143.1220  155.7777 H   0  0  0  0  0  0  0  0  0  0  0  0
  148.0529  140.9670  156.1584 H   0  0  0  0  0  0  0  0  0  0  0  0
  147.7303  142.2206  154.9910 H   0  0  0  0  0  0  0  0  0  0  0  0
  148.5169  140.5157  152.2352 H   0  0  0  0  0  0  0  0  0  0  0  0
  151.6080  136.5635  156.9236 H   0  0  0  0  0  0  0  0  0  0  0  0
  152.6710  135.7122  155.7787 H   0  0  0  0  0  0  0  0  0  0  0  0
  155.5823  136.3318  157.4394 H   0  0  0  0  0  0  0  0  0  0  0  0
  149.4367  138.1678  152.7528 H   0  0  0  0  0  0  0  0  0  0  0  0
  1  2  1  0  0  0  0
  1 24  1  0  0  0  0
  2  3  1  0  0  0  0
  2 25  1  0  0  0  0
  2 26  1  0  0  0  0
  3 20  1  0  0  0  0
  3 18  1  0  0  0  0
  3  4  1  0  0  0  0
  4  5  1  0  0  0  0
  5 21  1  0  0  0  0
  5  6  1  0  0  0  0
  5 17  1  0  0  0  0
  6 10  1  0  0  0  0
  6  7  1  0  0  0  0
  7  8  2  0  0  0  0
  7 27  1  0  0  0  0
  8  9  1  0  0  0  0
  8 36  1  0  0  0  0
  9 15  1  0  0  0  0
  9 10  2  0  0  0  0
 10 11  1  0  0  0  0
 11 12  2  0  0  0  0
 12 13  1  0  0  0  0
 12 28  1  0  0  0  0
 13 14  1  0  0  0  0
 13 29  1  0  0  0  0
 14 15  1  0  0  0  0
 14 30  1  0  0  0  0
 14 31  1  0  0  0  0
 15 22  1  0  0  0  0
 15 16  1  0  0  0  0
 16 32  1  0  0  0  0
 17 18  1  0  0  0  0
 17 33  1  0  0  0  0
 17 34  1  0  0  0  0
 18 23  1  0  0  0  0
 18 19  1  0  0  0  0
 19 35  1  0  0  0  0
M  CHG  1   8   1
M  END
> <s_m_source_file>
AV-unprocessed.smi

> <i_m_source_file_index>
157

> <i_lp_mmshare_version>
43012

> <i_f3d_flags>
0

> <s_epik_input>
W09IXVtDSDJdW0NASF0xT1tDQEhdKFtDSDJdW0NAQEhdMVtPSF0pbihbY0hdbjIpYyhjMjMpTj1bQ0hdW05IXVtDSDJdW0NASF0zW09IXQ==

> <s_epik_cmdline>
J2VwaWtfcHl0aG9uJywgJy1waCcsICc3LjAnLCAnLXRuJywgJzgnLCAnLW1hJywgJzIwMCcsICctbWV0YWxfYmluZGluZycsICctaW1hZScsICc8aW5maWxlLm1hZT4nLCAnLW9tYWUnLCAnPG91dGZpbGUubWFlPic=

> <r_epik_Ionization_Penalty>
1.68594

> <r_epik_Ionization_Penalty_Charging>
0

> <r_epik_Ionization_Penalty_Neutral>
1.68594

> <r_epik_State_Penalty>
1.79006

> <r_epik_Charging_Adjusted_Penalty>
1.79006

> <i_epik_Tot_Q>
1

> <i_epik_Tot_abs_Q>
1

> <r_epik_Metal_State_Penalty>
5.85324

> <b_epik_Metal_Only>
0

> <s_epik_Chemistry_Notes>
This compound has an imine and may undergo hydrolysis. This compound contains an acetal/aminal-like group ( X-CH(R)-Y where X, Y are N, S, or O) that may be acid/base labile, releasing an aldehyde.

> <s_lp_Force_Field>
OPLS_2005

> <r_lp_Energy>
52.5204

> <b_lp_Chiralities_Consistent>
1

> <s_lp_Variant>
AV-unprocessed.smi:157-28

> <Gold.Version>
5.8.1

> <Gold.Id.Protein>
6NUR|6NUR_protein|mol2

> <Gold.PLP.Fitness>
42.4522

> <Gold.PLP.PLP>
-26.2479

> <Gold.PLP.part.hbond>
-4.8295

> <Gold.PLP.part.metal>
0.0000

> <Gold.PLP.part.buried>
-2.4506

> <Gold.PLP.part.nonpolar>
-20.3950

> <Gold.PLP.part.repulsive>
0.2187

> <Gold.PLP.ligand.clash>
0.0000

> <Gold.PLP.ligand.torsion>
0.0572

> <Gold.PLP.Chemscore.Hbond>
4.5059

> <Gold.PLP.Chemscore.CHOScore>
0.9247

> <Gold.PLP.Chemscore.Metal>
0.0000

> <Gold.Chemscore.Hbonds>
donor molecule, donor type, donor heavy atom, donor atom, acceptor molecule, acceptor atom, score
      L1  H     8    36       P1  7948  0.94
      L1  H    13    29       P1  8028  1.00
      L1  H    16    32       P1  7957  0.45
      P1  H  7997  8008       L1     4  0.75
      P1  H  8011  8017       L1    16  1.00
      P1  H 10752 10765       L1    19  0.05
      L1  C     7    27       P1  7949  1.00

> <Gold.PLP.Chemscore.Internal.Correction>
0.0270

> <Gold.Rescore>
     Score         DG    S(hbond)    S(metal)    S(lipo)     H(rot)  DE(clash)    DE(int)     intcor
      9.30     -11.05       3.18        0.00      37.18       3.67       0.04       1.71       ----

> <Gold.Chemscore.Fitness>
9.3022

> <Gold.Chemscore.DG>
-11.0512

> <Gold.Chemscore.ZeroCoef>
-5.4800

> <Gold.Chemscore.Hbond>
3.1754

> <Gold.Chemscore.Metal>
0.0000

> <Gold.Chemscore.Lipo>
37.1805

> <Gold.Chemscore.Internal_Hbond>
0.0000

> <Gold.Chemscore.DEClash>
0.0402

> <Gold.Chemscore.DEInternal>
1.7088

> <Gold.Chemscore.Rot>
3.6659

> <Gold.Chemscore.Internal.Correction>
   9.000000E+99

> <Gold.Chemscore.Hbonds>
donor molecule, donor type, donor heavy atom, donor atom, acceptor molecule, acceptor atom, score
      L1  H     8    36       P1  7948  0.40
      L1  H    13    29       P1  8028  1.00
      L1  H    16    32       P1  7957  0.43
      P1  H  7997  8008       L1     4  0.09
      P1  H  8011  8017       L1    16  0.73
      P1  H 10752 10765       L1    19  0.05

> <Gold.Chemscore.Hbond.Weighted>
-10.6059

> <Gold.Chemscore.Metal.Weighted>
-0.0000

> <Gold.Chemscore.Lipo.Weighted>
-4.3501

> <Gold.Chemscore.Internal_Hbond.Weighted>
0.0000

> <Gold.Chemscore.DEClash.Weighted>
0.0402

> <Gold.Chemscore.DEInternal.Weighted>
1.7088

> <Gold.Chemscore.Rot.Weighted>
9.3848

> <Gold.Chemscore.Internal.Correction.Weighted>
   9.000000E+99

> <Gold.Protein.RotatedTorsions>
[ 6907 6896 6895 6894 ] final  162.18 input  -60.11 | X-H torsion
[ 7974 7965 7964 7962 ] final   90.32 input  175.53 | X-H torsion
[ 8008 7997 7996 7995 ] final  -53.40 input   59.86 | X-H torsion
[ 10167 10162 10161 10158 ] final -174.63 input  -65.29 | X-H torsion
[ 10718 10713 10712 10709 ] final -165.68 input   66.30 | X-H torsion
[ 10763 10752 10751 10750 ] final  -31.38 input  -60.55 | X-H torsion
[ 11005 11000 10999 10996 ] final  -72.02 input  -57.11 | X-H torsion

> <Gold.Protein.ActiveResidues>
 VAL166  LYS551  ARG553  GLY616  TRP617  ASP618  TYR619  PRO620  LYS621  CYS622 
 ASP623  PHE694  ASN695  SER759  ASP760  ASP761  ALA762  ILE779  LEU786  VAL792 
 PHE793  MET794  SER795  GLU796  ALA797  LYS798  CYS799  TRP800  GLU811  SER814 

> <Gold.Protein.RotatedAtoms>
  151.9443  133.3647  159.3976 H   0  0  0  0  0  0  0  0  0  0  0  0  # atno 6907 bound_to 6896
  150.6992  134.4407  159.5300 H   0  0  0  0  0  0  0  0  0  0  0  0  # atno 6908 bound_to 6896
  152.2069  134.8537  160.0552 H   0  0  0  0  0  0  0  0  0  0  0  0  # atno 6909 bound_to 6896
  145.5206  139.2279  143.2674 H   0  0  0  0  0  0  0  0  0  0  0  0  # atno 7974 bound_to 7965
  154.4132  140.1201  156.5148 H   0  0  0  0  0  0  0  0  0  0  0  0  # atno 8008 bound_to 7997
  155.6762  140.3496  155.4818 H   0  0  0  0  0  0  0  0  0  0  0  0  # atno 8009 bound_to 7997
  155.9590  140.1119  157.0902 H   0  0  0  0  0  0  0  0  0  0  0  0  # atno 8010 bound_to 7997
  139.5624  144.1838  152.1259 H   0  0  0  0  0  0  0  0  0  0  0  0  # atno 10167 bound_to 10162
  156.6569  130.9030  151.3022 H   0  0  0  0  0  0  0  0  0  0  0  0  # atno 10718 bound_to 10713
  153.7965  135.6893  153.4863 H   0  0  0  0  0  0  0  0  0  0  0  0  # atno 10763 bound_to 10752
  153.1716  135.4540  154.9908 H   0  0  0  0  0  0  0  0  0  0  0  0  # atno 10764 bound_to 10752
  154.8024  135.3343  154.7457 H   0  0  0  0  0  0  0  0  0  0  0  0  # atno 10765 bound_to 10752
  141.1602  133.6834  156.6994 H   0  0  0  0  0  0  0  0  0  0  0  0  # atno 11005 bound_to 11000
  146.2108  140.6018  142.9060 LP  0  0  0  0  0  0  0  0  0  0  0  0  # atno 17320 bound_to 7965
  144.7678  140.5570  143.6691 LP  0  0  0  0  0  0  0  0  0  0  0  0  # atno 17321 bound_to 7965
  140.1354  144.5250  150.6776 LP  0  0  0  0  0  0  0  0  0  0  0  0  # atno 17342 bound_to 10162
  140.6905  143.2373  151.5145 LP  0  0  0  0  0  0  0  0  0  0  0  0  # atno 17343 bound_to 10162
  157.7123  130.9454  150.1131 LP  0  0  0  0  0  0  0  0  0  0  0  0  # atno 17370 bound_to 10713
  156.2041  130.3662  149.8751 LP  0  0  0  0  0  0  0  0  0  0  0  0  # atno 17371 bound_to 10713
  140.2970  134.8195  157.4065 LP  0  0  0  0  0  0  0  0  0  0  0  0  # atno 17394 bound_to 11000
  140.1296  134.5113  155.8116 LP  0  0  0  0  0  0  0  0  0  0  0  0  # atno 17395 bound_to 11000

$$$$
