AV-unprocessed.smi:867|AV-procd|sdf|3998|dock3
  -GOLD-   22720 1483D 1   1.00000     0.00000
 Structure written by MMmdl.
 54 57  0  0  0  0  0  0  0  0  3 V2000
  149.5809  133.8938  157.6066 O   0  0  0  0  0  0  0  0  0  0  0  0
  150.0443  133.4779  156.5439 C   0  0  0  0  0  0  0  0  0  0  0  0
  150.9451  132.4808  156.4955 N   0  0  0  0  0  0  0  0  0  0  0  0
  151.4581  131.7310  157.6395 C   0  0  0  0  0  0  0  0  0  0  0  0
  151.4812  130.2114  157.3874 C   0  0  0  0  0  0  0  0  0  0  0  0
  152.5042  129.7812  156.3508 C   0  0  0  0  0  0  0  0  0  0  0  0
  153.8546  130.1832  156.4551 C   0  0  0  0  0  0  0  0  0  0  0  0
  154.7816  129.7498  155.4845 C   0  0  0  0  0  0  0  0  0  0  0  0
  154.3375  128.9261  154.4302 C   0  0  0  0  0  0  0  0  0  0  0  0
  153.0376  128.5644  154.3613 N   0  3  0  0  0  0  0  0  0  0  0  0
  152.1191  128.9585  155.2700 C   0  0  0  0  0  0  0  0  0  0  0  0
  149.7413  134.0238  155.3397 N   0  0  0  0  0  0  0  0  0  0  0  0
  149.8298  133.3510  154.0369 C   0  0  0  0  0  0  0  0  0  0  0  0
  148.4084  132.9964  153.5633 C   0  0  0  0  0  0  0  0  0  0  0  0
  147.5301  134.2005  153.4997 N   0  3  0  0  0  0  0  0  0  0  0  0
  146.1463  133.8785  153.0451 C   0  0  2  0  0  0  0  0  0  0  0  0
  146.0542  133.3432  151.5944 C   0  0  0  0  0  0  0  0  0  0  0  0
  144.9465  134.2125  150.9697 C   0  0  2  0  0  0  0  0  0  0  0  0
  145.5216  135.6081  150.6748 C   0  0  0  0  0  0  0  0  0  0  0  0
  145.6884  136.2043  152.0837 C   0  0  0  0  0  0  0  0  0  0  0  0
  145.1659  135.0777  153.0023 C   0  0  1  0  0  0  0  0  0  0  0  0
  144.0362  134.4966  152.1583 C   0  0  0  0  0  0  0  0  0  0  0  0
  147.5618  134.9863  154.7671 C   0  0  0  0  0  0  0  0  0  0  0  0
  149.0035  135.2833  155.2193 C   0  0  0  0  0  0  0  0  0  0  0  0
  151.2966  132.2112  155.5882 H   0  0  0  0  0  0  0  0  0  0  0  0
  152.4506  132.0861  157.9221 H   0  0  0  0  0  0  0  0  0  0  0  0
  150.8096  131.9440  158.4896 H   0  0  0  0  0  0  0  0  0  0  0  0
  151.7005  129.6925  158.3211 H   0  0  0  0  0  0  0  0  0  0  0  0
  150.4904  129.8732  157.0810 H   0  0  0  0  0  0  0  0  0  0  0  0
  154.1804  130.8106  157.2720 H   0  0  0  0  0  0  0  0  0  0  0  0
  155.8188  130.0444  155.5487 H   0  0  0  0  0  0  0  0  0  0  0  0
  154.9773  128.5484  153.6460 H   0  0  0  0  0  0  0  0  0  0  0  0
  151.1128  128.5991  155.1109 H   0  0  0  0  0  0  0  0  0  0  0  0
  150.3042  134.0225  153.3198 H   0  0  0  0  0  0  0  0  0  0  0  0
  150.4468  132.4526  154.0427 H   0  0  0  0  0  0  0  0  0  0  0  0
  148.4750  132.5161  152.5878 H   0  0  0  0  0  0  0  0  0  0  0  0
  147.9673  132.2648  154.2425 H   0  0  0  0  0  0  0  0  0  0  0  0
  145.7382  133.1279  153.7250 H   0  0  0  0  0  0  0  0  0  0  0  0
  146.9831  133.4393  151.0313 H   0  0  0  0  0  0  0  0  0  0  0  0
  145.7734  132.2894  151.5948 H   0  0  0  0  0  0  0  0  0  0  0  0
  144.4572  133.7517  150.1111 H   0  0  0  0  0  0  0  0  0  0  0  0
  146.4625  135.5650  150.1247 H   0  0  0  0  0  0  0  0  0  0  0  0
  144.8190  136.2012  150.0879 H   0  0  0  0  0  0  0  0  0  0  0  0
  146.7204  136.4835  152.2969 H   0  0  0  0  0  0  0  0  0  0  0  0
  145.0773  137.1015  152.1893 H   0  0  0  0  0  0  0  0  0  0  0  0
  144.8475  135.4246  153.9858 H   0  0  0  0  0  0  0  0  0  0  0  0
  143.2459  135.2161  151.9358 H   0  0  0  0  0  0  0  0  0  0  0  0
  143.5898  133.5972  152.5865 H   0  0  0  0  0  0  0  0  0  0  0  0
  147.0377  135.9331  154.6408 H   0  0  0  0  0  0  0  0  0  0  0  0
  147.0361  134.4337  155.5476 H   0  0  0  0  0  0  0  0  0  0  0  0
  148.9940  135.8554  156.1483 H   0  0  0  0  0  0  0  0  0  0  0  0
  149.5003  135.9219  154.4873 H   0  0  0  0  0  0  0  0  0  0  0  0
  147.9277  134.8017  152.7921 H   0  0  0  0  0  0  0  0  0  0  0  0
  152.7366  127.9666  153.5912 H   0  0  0  0  0  0  0  0  0  0  0  0
  1  2  2  0  0  0  0
  2  3  1  0  0  0  0
  2 12  1  0  0  0  0
  3  4  1  0  0  0  0
  3 25  1  0  0  0  0
  4  5  1  0  0  0  0
  4 26  1  0  0  0  0
  4 27  1  0  0  0  0
  5  6  1  0  0  0  0
  5 28  1  0  0  0  0
  5 29  1  0  0  0  0
  6 11  1  0  0  0  0
  6  7  2  0  0  0  0
  7  8  1  0  0  0  0
  7 30  1  0  0  0  0
  8  9  2  0  0  0  0
  8 31  1  0  0  0  0
  9 10  1  0  0  0  0
  9 32  1  0  0  0  0
 10 11  2  0  0  0  0
 10 54  1  0  0  0  0
 11 33  1  0  0  0  0
 12 24  1  0  0  0  0
 12 13  1  0  0  0  0
 13 14  1  0  0  0  0
 13 34  1  0  0  0  0
 13 35  1  0  0  0  0
 14 15  1  0  0  0  0
 14 36  1  0  0  0  0
 14 37  1  0  0  0  0
 15 16  1  0  0  0  0
 15 23  1  0  0  0  0
 15 53  1  0  0  0  0
 16 21  1  0  0  0  0
 16 17  1  0  0  0  0
 16 38  1  0  0  0  0
 17 18  1  0  0  0  0
 17 39  1  0  0  0  0
 17 40  1  0  0  0  0
 18 22  1  0  0  0  0
 18 19  1  0  0  0  0
 18 41  1  0  0  0  0
 19 20  1  0  0  0  0
 19 42  1  0  0  0  0
 19 43  1  0  0  0  0
 20 21  1  0  0  0  0
 20 44  1  0  0  0  0
 20 45  1  0  0  0  0
 21 22  1  0  0  0  0
 21 46  1  0  0  0  0
 22 47  1  0  0  0  0
 22 48  1  0  0  0  0
 23 24  1  0  0  0  0
 23 49  1  0  0  0  0
 23 50  1  0  0  0  0
 24 51  1  0  0  0  0
 24 52  1  0  0  0  0
M  CHG  1  10   1
M  CHG  1  15   1
M  END
> <s_m_source_file>
AV-unprocessed.smi

> <i_m_source_file_index>
867

> <i_lp_mmshare_version>
43012

> <i_f3d_flags>
0

> <s_epik_input>
W0NIMl0xW0NIMl1bQ0BASF0oW0NIMl0yKVtDQEBIXShbQ0gyXVtDQEhdMTIpTihbQ0gyXVtDSDJdMylbQ0gyXVtDSDJdTjNDKD1PKVtOSF1bQ0gyXVtDSDJdYzRbY0hdW2NIXVtjSF1uW2NIXTQ=

> <s_epik_cmdline>
J2VwaWtfcHl0aG9uJywgJy1waCcsICc3LjAnLCAnLXRuJywgJzgnLCAnLW1hJywgJzIwMCcsICctbWV0YWxfYmluZGluZycsICctaW1hZScsICc8aW5maWxlLm1hZT4nLCAnLW9tYWUnLCAnPG91dGZpbGUubWFlPic=

> <r_epik_Ionization_Penalty>
2.25108

> <r_epik_Ionization_Penalty_Charging>
2.25105

> <r_epik_Ionization_Penalty_Neutral>
2.64641e-05

> <r_epik_State_Penalty>
2.39519

> <r_epik_Charging_Adjusted_Penalty>
4.64625

> <i_epik_Tot_Q>
2

> <i_epik_Tot_abs_Q>
2

> <r_epik_Metal_State_Penalty>
2.40865

> <b_epik_Metal_Only>
0

> <s_lp_Force_Field>
OPLS_2005

> <r_lp_Energy>
106.832

> <b_lp_Chiralities_Consistent>
1

> <s_lp_Variant>
AV-unprocessed.smi:867-5

> <Gold.Version>
5.8.1

> <Gold.Id.Protein>
6NUR|6NUR_protein|mol2

> <Gold.PLP.Fitness>
45.3979

> <Gold.PLP.PLP>
-34.1076

> <Gold.PLP.part.hbond>
-3.0000

> <Gold.PLP.part.metal>
0.0000

> <Gold.PLP.part.buried>
-5.3214

> <Gold.PLP.part.nonpolar>
-27.8592

> <Gold.PLP.part.repulsive>
0.1619

> <Gold.PLP.ligand.clash>
0.0000

> <Gold.PLP.ligand.torsion>
0.4115

> <Gold.PLP.Chemscore.Hbond>
3.9913

> <Gold.PLP.Chemscore.CHOScore>
0.0000

> <Gold.PLP.Chemscore.Metal>
0.0000

> <Gold.Chemscore.Hbonds>
donor molecule, donor type, donor heavy atom, donor atom, acceptor molecule, acceptor atom, score
      L1  H    10    54       P1 10737  1.00
      L1  H    15    53       P1  7948  2.00
      P1  H  6896  6907       L1     1  0.96

> <Gold.PLP.Chemscore.Internal.Correction>
0.1394

> <Gold.Rescore>
     Score         DG    S(hbond)    S(metal)    S(lipo)     H(rot)  DE(clash)    DE(int)     intcor
     20.33     -20.64       2.82        0.00      80.96       1.46       0.05       0.26       ----

> <Gold.Chemscore.Fitness>
20.3273

> <Gold.Chemscore.DG>
-20.6435

> <Gold.Chemscore.ZeroCoef>
-5.4800

> <Gold.Chemscore.Hbond>
2.8209

> <Gold.Chemscore.Metal>
0.0000

> <Gold.Chemscore.Lipo>
80.9593

> <Gold.Chemscore.Internal_Hbond>
0.0000

> <Gold.Chemscore.DEClash>
0.0520

> <Gold.Chemscore.DEInternal>
0.2642

> <Gold.Chemscore.Rot>
1.4572

> <Gold.Chemscore.Internal.Correction>
   9.000000E+99

> <Gold.Chemscore.Hbonds>
donor molecule, donor type, donor heavy atom, donor atom, acceptor molecule, acceptor atom, score
      L1  H    10    54       P1 10737  0.61
      L1  H    15    53       P1  7948  0.87
      P1  H  6896  6907       L1     1  0.85

> <Gold.Chemscore.Hbond.Weighted>
-9.4218

> <Gold.Chemscore.Metal.Weighted>
-0.0000

> <Gold.Chemscore.Lipo.Weighted>
-9.4722

> <Gold.Chemscore.Internal_Hbond.Weighted>
0.0000

> <Gold.Chemscore.DEClash.Weighted>
0.0520

> <Gold.Chemscore.DEInternal.Weighted>
0.2642

> <Gold.Chemscore.Rot.Weighted>
3.7305

> <Gold.Chemscore.Internal.Correction.Weighted>
   9.000000E+99

> <Gold.Protein.RotatedTorsions>
[ 6907 6896 6895 6894 ] final -120.49 input  -60.11 | X-H torsion
[ 7974 7965 7964 7962 ] final   58.07 input  175.53 | X-H torsion
[ 8008 7997 7996 7995 ] final -107.09 input   59.86 | X-H torsion
[ 10167 10162 10161 10158 ] final   73.34 input  -65.29 | X-H torsion
[ 10718 10713 10712 10709 ] final  -54.94 input   66.30 | X-H torsion
[ 10763 10752 10751 10750 ] final  145.27 input  -60.55 | X-H torsion
[ 11005 11000 10999 10996 ] final   76.53 input  -57.11 | X-H torsion

> <Gold.Protein.ActiveResidues>
 VAL166  LYS551  ARG553  GLY616  TRP617  ASP618  TYR619  PRO620  LYS621  CYS622 
 ASP623  PHE694  ASN695  SER759  ASP760  ASP761  ALA762  ILE779  LEU786  VAL792 
 PHE793  MET794  SER795  GLU796  ALA797  LYS798  CYS799  TRP800  GLU811  SER814 

> <Gold.Protein.RotatedAtoms>
  150.8398  133.7954  159.3065 H   0  0  0  0  0  0  0  0  0  0  0  0  # atno 6907 bound_to 6896
  151.5659  135.1062  159.9993 H   0  0  0  0  0  0  0  0  0  0  0  0  # atno 6908 bound_to 6896
  152.4464  133.7502  159.6746 H   0  0  0  0  0  0  0  0  0  0  0  0  # atno 6909 bound_to 6896
  145.9222  139.3739  143.0471 H   0  0  0  0  0  0  0  0  0  0  0  0  # atno 7974 bound_to 7965
  154.9241  140.0406  157.2014 H   0  0  0  0  0  0  0  0  0  0  0  0  # atno 8008 bound_to 7997
  154.8224  140.2886  155.5756 H   0  0  0  0  0  0  0  0  0  0  0  0  # atno 8009 bound_to 7997
  156.2981  140.2516  156.3134 H   0  0  0  0  0  0  0  0  0  0  0  0  # atno 8010 bound_to 7997
  140.0256  144.5506  150.7547 H   0  0  0  0  0  0  0  0  0  0  0  0  # atno 10167 bound_to 10162
  156.1409  130.4154  150.0104 H   0  0  0  0  0  0  0  0  0  0  0  0  # atno 10718 bound_to 10713
  154.0026  135.2922  155.3401 H   0  0  0  0  0  0  0  0  0  0  0  0  # atno 10763 bound_to 10752
  154.7151  135.5133  153.8728 H   0  0  0  0  0  0  0  0  0  0  0  0  # atno 10764 bound_to 10752
  153.0759  135.6663  154.0266 H   0  0  0  0  0  0  0  0  0  0  0  0  # atno 10765 bound_to 10752
  139.9294  134.7609  156.1408 H   0  0  0  0  0  0  0  0  0  0  0  0  # atno 11005 bound_to 11000
  145.8535  140.9515  143.0737 LP  0  0  0  0  0  0  0  0  0  0  0  0  # atno 17320 bound_to 7965
  144.6754  140.0437  143.7480 LP  0  0  0  0  0  0  0  0  0  0  0  0  # atno 17321 bound_to 7965
  140.7324  143.2705  151.3903 LP  0  0  0  0  0  0  0  0  0  0  0  0  # atno 17342 bound_to 10162
  139.6110  144.1098  152.2299 LP  0  0  0  0  0  0  0  0  0  0  0  0  # atno 17343 bound_to 10162
  156.7990  130.9283  151.3646 LP  0  0  0  0  0  0  0  0  0  0  0  0  # atno 17370 bound_to 10713
  157.6575  130.8937  149.9759 LP  0  0  0  0  0  0  0  0  0  0  0  0  # atno 17371 bound_to 10713
  141.0873  133.6729  156.2464 LP  0  0  0  0  0  0  0  0  0  0  0  0  # atno 17394 bound_to 11000
  140.6245  134.5328  157.5552 LP  0  0  0  0  0  0  0  0  0  0  0  0  # atno 17395 bound_to 11000

$$$$
