AV-unprocessed.smi:3030|AV-procd|sdf|11536|dock1
  -GOLD-   2272016483D 1   1.00000     0.00000
 Structure written by MMmdl.
 52 53  0  0  0  0  0  0  0  0  1 V2000
  147.1322  133.8821  162.2305 C   0  0  0  0  0  0  0  0  0  0  0  0
  147.3800  133.6990  160.7289 C   0  0  0  0  0  0  0  0  0  0  0  0
  146.1455  133.4273  160.0068 N   0  0  0  0  0  0  0  0  0  0  0  0
  144.9328  133.2914  160.6744 C   0  0  0  0  0  0  0  0  0  0  0  0
  143.7700  132.9795  160.0703 C   0  0  0  0  0  0  0  0  0  0  0  0
  143.7496  132.7574  158.6104 C   0  0  0  0  0  0  0  0  0  0  0  0
  142.7042  132.4725  158.0261 O   0  0  0  0  0  0  0  0  0  0  0  0
  145.0469  132.8965  157.8970 C   0  0  0  0  0  0  0  0  0  0  0  0
  145.0149  132.6933  156.5072 N   0  0  0  0  0  0  0  0  0  0  0  0
  145.9579  132.9540  155.5835 C   0  0  0  0  0  0  0  0  0  0  0  0
  147.0783  133.4136  155.8026 O   0  0  0  0  0  0  0  0  0  0  0  0
  145.5202  132.6387  154.3563 N   0  0  0  0  0  0  0  0  0  0  0  0
  146.2758  132.8005  153.1128 C   0  0  1  0  0  0  0  0  0  0  0  0
  146.8373  131.4452  152.6325 C   0  0  0  0  0  0  0  0  0  0  0  0
  145.7369  130.4962  152.1262 C   0  0  2  0  0  0  0  0  0  0  0  0
  146.3237  129.1611  151.6463 C   0  0  0  0  0  0  0  0  0  0  0  0
  144.9232  131.1859  151.0202 C   0  0  0  0  0  0  0  0  0  0  0  0
  144.3330  132.5220  151.4972 C   0  0  0  0  0  0  0  0  0  0  0  0
  145.4173  133.4986  152.0194 C   0  0  1  0  0  0  0  0  0  0  0  0
  144.8213  134.8684  152.4702 C   0  0  0  0  0  0  0  0  0  0  0  0
  144.0366  135.5722  151.3463 C   0  0  0  0  0  0  0  0  0  0  0  0
  145.8941  135.8369  153.0054 C   0  0  0  0  0  0  0  0  0  0  0  0
  146.1443  133.2181  158.6292 C   0  0  0  0  0  0  0  0  0  0  0  0
  148.0656  134.0867  162.7550 H   0  0  0  0  0  0  0  0  0  0  0  0
  146.6924  132.9861  162.6699 H   0  0  0  0  0  0  0  0  0  0  0  0
  146.4555  134.7161  162.4185 H   0  0  0  0  0  0  0  0  0  0  0  0
  147.8504  134.5942  160.3202 H   0  0  0  0  0  0  0  0  0  0  0  0
  148.0843  132.8824  160.5657 H   0  0  0  0  0  0  0  0  0  0  0  0
  144.9886  133.4652  161.7393 H   0  0  0  0  0  0  0  0  0  0  0  0
  142.8507  132.8884  160.6298 H   0  0  0  0  0  0  0  0  0  0  0  0
  144.1559  132.2867  156.1659 H   0  0  0  0  0  0  0  0  0  0  0  0
  144.5867  132.2644  154.2697 H   0  0  0  0  0  0  0  0  0  0  0  0
  147.1401  133.4340  153.3163 H   0  0  0  0  0  0  0  0  0  0  0  0
  147.5536  131.6249  151.8298 H   0  0  0  0  0  0  0  0  0  0  0  0
  147.4022  130.9688  153.4351 H   0  0  0  0  0  0  0  0  0  0  0  0
  145.0631  130.2760  152.9556 H   0  0  0  0  0  0  0  0  0  0  0  0
  147.0102  129.3058  150.8115 H   0  0  0  0  0  0  0  0  0  0  0  0
  145.5366  128.4824  151.3166 H   0  0  0  0  0  0  0  0  0  0  0  0
  146.8730  128.6638  152.4465 H   0  0  0  0  0  0  0  0  0  0  0  0
  145.5566  131.3599  150.1491 H   0  0  0  0  0  0  0  0  0  0  0  0
  144.1169  130.5310  150.6883 H   0  0  0  0  0  0  0  0  0  0  0  0
  143.7927  132.9588  150.6588 H   0  0  0  0  0  0  0  0  0  0  0  0
  143.5925  132.3369  152.2765 H   0  0  0  0  0  0  0  0  0  0  0  0
  146.0863  133.7043  151.1822 H   0  0  0  0  0  0  0  0  0  0  0  0
  144.1163  134.6885  153.2827 H   0  0  0  0  0  0  0  0  0  0  0  0
  144.6493  135.6994  150.4533 H   0  0  0  0  0  0  0  0  0  0  0  0
  143.7030  136.5617  151.6601 H   0  0  0  0  0  0  0  0  0  0  0  0
  143.1396  135.0215  151.0663 H   0  0  0  0  0  0  0  0  0  0  0  0
  146.6797  136.0045  152.2679 H   0  0  0  0  0  0  0  0  0  0  0  0
  146.3608  135.4668  153.9179 H   0  0  0  0  0  0  0  0  0  0  0  0
  145.4612  136.8066  153.2529 H   0  0  0  0  0  0  0  0  0  0  0  0
  147.1216  133.3562  158.1954 H   0  0  0  0  0  0  0  0  0  0  0  0
  1  2  1  0  0  0  0
  1 24  1  0  0  0  0
  1 25  1  0  0  0  0
  1 26  1  0  0  0  0
  2  3  1  0  0  0  0
  2 27  1  0  0  0  0
  2 28  1  0  0  0  0
  3 23  1  0  0  0  0
  3  4  1  0  0  0  0
  4  5  2  0  0  0  0
  4 29  1  0  0  0  0
  5  6  1  0  0  0  0
  5 30  1  0  0  0  0
  6  7  2  0  0  0  0
  6  8  1  0  0  0  0
  8  9  1  0  0  0  0
  8 23  2  0  0  0  0
  9 10  1  0  0  0  0
  9 31  1  0  0  0  0
 10 11  2  0  0  0  0
 10 12  1  0  0  0  0
 12 13  1  0  0  0  0
 12 32  1  0  0  0  0
 13 19  1  0  0  0  0
 13 14  1  0  0  0  0
 13 33  1  0  0  0  0
 14 15  1  0  0  0  0
 14 34  1  0  0  0  0
 14 35  1  0  0  0  0
 15 16  1  0  0  0  0
 15 17  1  0  0  0  0
 15 36  1  0  0  0  0
 16 37  1  0  0  0  0
 16 38  1  0  0  0  0
 16 39  1  0  0  0  0
 17 18  1  0  0  0  0
 17 40  1  0  0  0  0
 17 41  1  0  0  0  0
 18 19  1  0  0  0  0
 18 42  1  0  0  0  0
 18 43  1  0  0  0  0
 19 20  1  0  0  0  0
 19 44  1  0  0  0  0
 20 21  1  0  0  0  0
 20 22  1  0  0  0  0
 20 45  1  0  0  0  0
 21 46  1  0  0  0  0
 21 47  1  0  0  0  0
 21 48  1  0  0  0  0
 22 49  1  0  0  0  0
 22 50  1  0  0  0  0
 22 51  1  0  0  0  0
 23 52  1  0  0  0  0
M  END
> <s_m_source_file>
AV-unprocessed.smi

> <i_m_source_file_index>
3030

> <i_lp_mmshare_version>
43012

> <i_f3d_flags>
0

> <s_epik_input>
W0NIM11bQ0gyXW4xW2NIXVtjSF1jKD1PKWMoW2NIXTEpW05IXUMoPU8pW05IXVtDQEBIXTJbQ0gyXVtDQEBIXShbQ0gzXSlbQ0gyXVtDSDJdW0NASF0yW0NIXShbQ0gzXSlbQ0gzXQ==

> <s_epik_cmdline>
J2VwaWtfcHl0aG9uJywgJy1waCcsICc3LjAnLCAnLXRuJywgJzgnLCAnLW1hJywgJzIwMCcsICctbWV0YWxfYmluZGluZycsICctaW1hZScsICc8aW5maWxlLm1hZT4nLCAnLW9tYWUnLCAnPG91dGZpbGUubWFlPic=

> <r_lp_tautomer_probability>
1

> <r_epik_Ionization_Penalty>
0.00147933

> <r_epik_Ionization_Penalty_Charging>
0.00145753

> <r_epik_Ionization_Penalty_Neutral>
2.17987e-05

> <r_epik_State_Penalty>
0.00097457

> <r_epik_Charging_Adjusted_Penalty>
0.0024321

> <i_epik_Tot_Q>
0

> <i_epik_Tot_abs_Q>
0

> <r_epik_Metal_State_Penalty>
-0

> <b_epik_Metal_Only>
0

> <s_lp_Force_Field>
OPLS_2005

> <r_lp_Energy>
8.95674

> <b_lp_Chiralities_Consistent>
1

> <s_lp_Variant>
AV-unprocessed.smi:3030-4

> <Gold.Version>
5.8.1

> <Gold.Id.Protein>
6NUR|6NUR_protein|mol2

> <Gold.PLP.Fitness>
39.5988

> <Gold.PLP.PLP>
-30.9936

> <Gold.PLP.part.hbond>
-3.0000

> <Gold.PLP.part.metal>
0.0000

> <Gold.PLP.part.buried>
-4.8473

> <Gold.PLP.part.nonpolar>
-23.0915

> <Gold.PLP.part.repulsive>
0.1508

> <Gold.PLP.ligand.clash>
0.0000

> <Gold.PLP.ligand.torsion>
0.2296

> <Gold.PLP.Chemscore.Hbond>
3.0000

> <Gold.PLP.Chemscore.CHOScore>
0.0000

> <Gold.PLP.Chemscore.Metal>
0.0000

> <Gold.Chemscore.Hbonds>
donor molecule, donor type, donor heavy atom, donor atom, acceptor molecule, acceptor atom, score
      L1  H     9    31       P1 10957  0.94
      L1  H    12    32       P1 10957  1.00
      P1  H 11000 11005       L1     7  0.57

> <Gold.PLP.Chemscore.Internal.Correction>
0.0645

> <Gold.Rescore>
     Score         DG    S(hbond)    S(metal)    S(lipo)     H(rot)  DE(clash)    DE(int)     intcor
     19.35     -20.81       2.66        0.00      82.69       1.27       0.01       1.45       ----

> <Gold.Chemscore.Fitness>
19.3511

> <Gold.Chemscore.DG>
-20.8087

> <Gold.Chemscore.ZeroCoef>
-5.4800

> <Gold.Chemscore.Hbond>
2.6649

> <Gold.Chemscore.Metal>
0.0000

> <Gold.Chemscore.Lipo>
82.6949

> <Gold.Chemscore.Internal_Hbond>
0.0000

> <Gold.Chemscore.DEClash>
0.0126

> <Gold.Chemscore.DEInternal>
1.4450

> <Gold.Chemscore.Rot>
1.2685

> <Gold.Chemscore.Internal.Correction>
   9.000000E+99

> <Gold.Chemscore.Hbonds>
donor molecule, donor type, donor heavy atom, donor atom, acceptor molecule, acceptor atom, score
      L1  H     9    31       P1 10957  0.88
      L1  H    12    32       P1 10957  0.37
      P1  H 11000 11005       L1     7  0.56

> <Gold.Chemscore.Hbond.Weighted>
-8.9008

> <Gold.Chemscore.Metal.Weighted>
-0.0000

> <Gold.Chemscore.Lipo.Weighted>
-9.6753

> <Gold.Chemscore.Internal_Hbond.Weighted>
0.0000

> <Gold.Chemscore.DEClash.Weighted>
0.0126

> <Gold.Chemscore.DEInternal.Weighted>
1.4450

> <Gold.Chemscore.Rot.Weighted>
3.2474

> <Gold.Chemscore.Internal.Correction.Weighted>
   9.000000E+99

> <Gold.Protein.RotatedTorsions>
[ 6907 6896 6895 6894 ] final   92.51 input  -60.11 | X-H torsion
[ 7974 7965 7964 7962 ] final -149.80 input  175.53 | X-H torsion
[ 8008 7997 7996 7995 ] final -150.85 input   59.86 | X-H torsion
[ 10167 10162 10161 10158 ] final   74.43 input  -65.29 | X-H torsion
[ 10718 10713 10712 10709 ] final   65.55 input   66.30 | X-H torsion
[ 10763 10752 10751 10750 ] final -142.24 input  -60.55 | X-H torsion
[ 11005 11000 10999 10996 ] final  -95.23 input  -57.11 | X-H torsion

> <Gold.Protein.ActiveResidues>
 VAL166  LYS551  ARG553  GLY616  TRP617  ASP618  TYR619  PRO620  LYS621  CYS622 
 ASP623  PHE694  ASN695  SER759  ASP760  ASP761  ALA762  ILE779  LEU786  VAL792 
 PHE793  MET794  SER795  GLU796  ALA797  LYS798  CYS799  TRP800  GLU811  SER814 

> <Gold.Protein.RotatedAtoms>
  152.5452  134.1490  159.8510 H   0  0  0  0  0  0  0  0  0  0  0  0  # atno 6907 bound_to 6896
  151.1519  133.4895  159.2602 H   0  0  0  0  0  0  0  0  0  0  0  0  # atno 6908 bound_to 6896
  151.1463  135.0216  159.8703 H   0  0  0  0  0  0  0  0  0  0  0  0  # atno 6909 bound_to 6896
  144.7946  140.5017  143.5749 H   0  0  0  0  0  0  0  0  0  0  0  0  # atno 7974 bound_to 7965
  155.6301  140.0690  157.2651 H   0  0  0  0  0  0  0  0  0  0  0  0  # atno 8008 bound_to 7997
  154.4208  140.1769  156.1511 H   0  0  0  0  0  0  0  0  0  0  0  0  # atno 8009 bound_to 7997
  155.9940  140.3342  155.6784 H   0  0  0  0  0  0  0  0  0  0  0  0  # atno 8010 bound_to 7997
  140.0138  144.5593  150.7637 H   0  0  0  0  0  0  0  0  0  0  0  0  # atno 10167 bound_to 10162
  157.6112  130.9220  149.9991 H   0  0  0  0  0  0  0  0  0  0  0  0  # atno 10718 bound_to 10713
  154.8516  135.3501  154.5996 H   0  0  0  0  0  0  0  0  0  0  0  0  # atno 10763 bound_to 10752
  153.6605  135.6990  153.5184 H   0  0  0  0  0  0  0  0  0  0  0  0  # atno 10764 bound_to 10752
  153.2822  135.4260  155.1046 H   0  0  0  0  0  0  0  0  0  0  0  0  # atno 10765 bound_to 10752
  141.1448  133.8011  157.0407 H   0  0  0  0  0  0  0  0  0  0  0  0  # atno 11005 bound_to 11000
  145.5707  139.1483  143.3290 LP  0  0  0  0  0  0  0  0  0  0  0  0  # atno 17320 bound_to 7965
  146.2209  140.5841  142.9017 LP  0  0  0  0  0  0  0  0  0  0  0  0  # atno 17321 bound_to 7965
  140.7370  143.2760  151.3740 LP  0  0  0  0  0  0  0  0  0  0  0  0  # atno 17342 bound_to 10162
  139.6186  144.0952  152.2370 LP  0  0  0  0  0  0  0  0  0  0  0  0  # atno 17343 bound_to 10162
  156.1216  130.3646  149.9878 LP  0  0  0  0  0  0  0  0  0  0  0  0  # atno 17370 bound_to 10713
  156.7957  130.9272  151.3646 LP  0  0  0  0  0  0  0  0  0  0  0  0  # atno 17371 bound_to 10713
  140.0695  134.9710  157.1443 LP  0  0  0  0  0  0  0  0  0  0  0  0  # atno 17394 bound_to 11000
  140.3732  134.2368  155.7176 LP  0  0  0  0  0  0  0  0  0  0  0  0  # atno 17395 bound_to 11000

$$$$
