AV-unprocessed.smi:805|AV-procd|sdf|3796|dock1
  -GOLD-   22720 1233D 1   1.00000     0.00000
 Structure written by MMmdl.
 40 41  0  0  0  0  0  0  0  0  1 V2000
  144.1303  132.4680  149.5648 C   0  0  0  0  0  0  0  0  0  0  0  0
  145.3589  131.8836  150.2647 C   0  0  0  0  0  0  0  0  0  0  0  0
  145.2479  132.1256  151.6569 O   0  0  0  0  0  0  0  0  0  0  0  0
  145.7840  133.3803  152.0463 C   0  0  2  0  0  0  0  0  0  0  0  0
  145.8348  133.6100  153.5596 C   0  0  0  0  0  0  0  0  0  0  0  0
  145.3413  135.0354  153.2894 C   0  0  1  0  0  0  0  0  0  0  0  0
  146.4665  135.9632  153.1624 N   0  0  0  0  0  0  0  0  0  0  0  0
  146.5362  137.1599  153.7606 C   0  0  0  0  0  0  0  0  0  0  0  0
  145.6513  137.6048  154.4914 O   0  0  0  0  0  0  0  0  0  0  0  0
  147.6892  137.7836  153.4654 N   0  0  0  0  0  0  0  0  0  0  0  0
  148.1161  139.0827  153.8515 C   0  0  0  0  0  0  0  0  0  0  0  0
  147.2684  140.2154  153.9089 C   0  0  0  0  0  0  0  0  0  0  0  0
  147.8177  141.4566  154.2839 C   0  0  0  0  0  0  0  0  0  0  0  0
  149.1927  141.5216  154.5816 C   0  0  0  0  0  0  0  0  0  0  0  0
  150.0148  140.4530  154.5188 N   0  0  0  0  0  0  0  0  0  0  0  0
  149.4814  139.2666  154.1568 C   0  0  0  0  0  0  0  0  0  0  0  0
  144.7648  134.5390  151.9314 C   0  0  0  0  0  0  0  0  0  0  0  0
  144.9156  135.4406  150.7002 C   0  0  0  0  0  0  0  0  0  0  0  0
  143.2852  134.1351  151.9937 C   0  0  0  0  0  0  0  0  0  0  0  0
  144.1808  132.3062  148.4880 H   0  0  0  0  0  0  0  0  0  0  0  0
  144.0542  133.5415  149.7396 H   0  0  0  0  0  0  0  0  0  0  0  0
  143.2146  132.0028  149.9305 H   0  0  0  0  0  0  0  0  0  0  0  0
  145.4224  130.8128  150.0674 H   0  0  0  0  0  0  0  0  0  0  0  0
  146.2664  132.3465  149.8746 H   0  0  0  0  0  0  0  0  0  0  0  0
  146.7309  133.6141  151.5544 H   0  0  0  0  0  0  0  0  0  0  0  0
  145.1087  133.0073  154.1076 H   0  0  0  0  0  0  0  0  0  0  0  0
  146.8299  133.5323  153.9993 H   0  0  0  0  0  0  0  0  0  0  0  0
  144.5796  135.3583  154.0015 H   0  0  0  0  0  0  0  0  0  0  0  0
  147.2384  135.6714  152.5812 H   0  0  0  0  0  0  0  0  0  0  0  0
  148.3579  137.2509  152.9284 H   0  0  0  0  0  0  0  0  0  0  0  0
  146.2201  140.1623  153.6599 H   0  0  0  0  0  0  0  0  0  0  0  0
  147.1991  142.3403  154.3373 H   0  0  0  0  0  0  0  0  0  0  0  0
  149.6455  142.4583  154.8713 H   0  0  0  0  0  0  0  0  0  0  0  0
  150.1696  138.4348  154.1128 H   0  0  0  0  0  0  0  0  0  0  0  0
  144.3599  136.3715  150.8179 H   0  0  0  0  0  0  0  0  0  0  0  0
  144.5493  134.9500  149.7979 H   0  0  0  0  0  0  0  0  0  0  0  0
  145.9563  135.7044  150.5114 H   0  0  0  0  0  0  0  0  0  0  0  0
  142.6391  135.0075  152.0955 H   0  0  0  0  0  0  0  0  0  0  0  0
  143.0755  133.4817  152.8411 H   0  0  0  0  0  0  0  0  0  0  0  0
  142.9759  133.6011  151.0943 H   0  0  0  0  0  0  0  0  0  0  0  0
  1  2  1  0  0  0  0
  1 20  1  0  0  0  0
  1 21  1  0  0  0  0
  1 22  1  0  0  0  0
  2  3  1  0  0  0  0
  2 23  1  0  0  0  0
  2 24  1  0  0  0  0
  3  4  1  0  0  0  0
  4 17  1  0  0  0  0
  4  5  1  0  0  0  0
  4 25  1  0  0  0  0
  5  6  1  0  0  0  0
  5 26  1  0  0  0  0
  5 27  1  0  0  0  0
  6  7  1  0  0  0  0
  6 17  1  0  0  0  0
  6 28  1  0  0  0  0
  7  8  1  0  0  0  0
  7 29  1  0  0  0  0
  8  9  2  0  0  0  0
  8 10  1  0  0  0  0
 10 11  1  0  0  0  0
 10 30  1  0  0  0  0
 11 16  1  0  0  0  0
 11 12  2  0  0  0  0
 12 13  1  0  0  0  0
 12 31  1  0  0  0  0
 13 14  2  0  0  0  0
 13 32  1  0  0  0  0
 14 15  1  0  0  0  0
 14 33  1  0  0  0  0
 15 16  2  0  0  0  0
 16 34  1  0  0  0  0
 17 18  1  0  0  0  0
 17 19  1  0  0  0  0
 18 35  1  0  0  0  0
 18 36  1  0  0  0  0
 18 37  1  0  0  0  0
 19 38  1  0  0  0  0
 19 39  1  0  0  0  0
 19 40  1  0  0  0  0
M  END
> <s_m_source_file>
AV-unprocessed.smi

> <i_m_source_file_index>
805

> <i_lp_mmshare_version>
43012

> <i_f3d_flags>
0

> <s_epik_input>
W0NIM11bQ0gyXU9bQ0BASF0oQzEoW0NIM10pW0NIM10pW0NIMl1bQ0BIXTFbTkhdQyg9TylbTkhdYzJbY0hdW2NIXVtjSF1uW2NIXTI=

> <s_epik_cmdline>
J2VwaWtfcHl0aG9uJywgJy1waCcsICc3LjAnLCAnLXRuJywgJzgnLCAnLW1hJywgJzIwMCcsICctbWV0YWxfYmluZGluZycsICctaW1hZScsICc8aW5maWxlLm1hZT4nLCAnLW9tYWUnLCAnPG91dGZpbGUubWFlPic=

> <r_epik_Ionization_Penalty>
0.00485231

> <r_epik_Ionization_Penalty_Charging>
0

> <r_epik_Ionization_Penalty_Neutral>
0.00485231

> <r_epik_State_Penalty>
0.00349213

> <r_epik_Charging_Adjusted_Penalty>
0.00349213

> <i_epik_Tot_Q>
0

> <i_epik_Tot_abs_Q>
0

> <r_epik_Metal_State_Penalty>
-0

> <b_epik_Metal_Only>
0

> <s_lp_Force_Field>
OPLS_2005

> <r_lp_Energy>
23.2605

> <b_lp_Chiralities_Consistent>
1

> <s_lp_Variant>
AV-unprocessed.smi:805-1

> <Gold.Version>
5.8.1

> <Gold.Id.Protein>
6NUR|6NUR_protein|mol2

> <Gold.PLP.Fitness>
42.6608

> <Gold.PLP.PLP>
-32.4651

> <Gold.PLP.part.hbond>
-3.0000

> <Gold.PLP.part.metal>
0.0000

> <Gold.PLP.part.buried>
-3.1838

> <Gold.PLP.part.nonpolar>
-26.4849

> <Gold.PLP.part.repulsive>
0.3361

> <Gold.PLP.ligand.clash>
0.0000

> <Gold.PLP.ligand.torsion>
0.7327

> <Gold.PLP.Chemscore.Hbond>
2.7760

> <Gold.PLP.Chemscore.CHOScore>
1.0000

> <Gold.PLP.Chemscore.Metal>
0.0000

> <Gold.Chemscore.Hbonds>
donor molecule, donor type, donor heavy atom, donor atom, acceptor molecule, acceptor atom, score
      L1  H     7    29       P1  7948  0.90
      L1  H    10    30       P1  7948  1.00
      P1  H  7989  7998       L1    15  0.90
      L1  C    14    33       P1  8028  1.00

> <Gold.PLP.Chemscore.Internal.Correction>
0.3332

> <Gold.Rescore>
     Score         DG    S(hbond)    S(metal)    S(lipo)     H(rot)  DE(clash)    DE(int)     intcor
     19.01     -19.95       2.47        0.00      82.89       1.36       0.15       0.79       ----

> <Gold.Chemscore.Fitness>
19.0117

> <Gold.Chemscore.DG>
-19.9536

> <Gold.Chemscore.ZeroCoef>
-5.4800

> <Gold.Chemscore.Hbond>
2.4685

> <Gold.Chemscore.Metal>
0.0000

> <Gold.Chemscore.Lipo>
82.8879

> <Gold.Chemscore.Internal_Hbond>
0.0000

> <Gold.Chemscore.DEClash>
0.1546

> <Gold.Chemscore.DEInternal>
0.7874

> <Gold.Chemscore.Rot>
1.3551

> <Gold.Chemscore.Internal.Correction>
   9.000000E+99

> <Gold.Chemscore.Hbonds>
donor molecule, donor type, donor heavy atom, donor atom, acceptor molecule, acceptor atom, score
      L1  H     7    29       P1  7948  0.88
      L1  H    10    30       P1  7948  0.98
      P1  H  7989  7998       L1    15  0.53

> <Gold.Chemscore.Hbond.Weighted>
-8.2448

> <Gold.Chemscore.Metal.Weighted>
-0.0000

> <Gold.Chemscore.Lipo.Weighted>
-9.6979

> <Gold.Chemscore.Internal_Hbond.Weighted>
0.0000

> <Gold.Chemscore.DEClash.Weighted>
0.1546

> <Gold.Chemscore.DEInternal.Weighted>
0.7874

> <Gold.Chemscore.Rot.Weighted>
3.4691

> <Gold.Chemscore.Internal.Correction.Weighted>
   9.000000E+99

> <Gold.Protein.RotatedTorsions>
[ 6907 6896 6895 6894 ] final -121.57 input  -60.11 | X-H torsion
[ 7974 7965 7964 7962 ] final   14.27 input  175.53 | X-H torsion
[ 8008 7997 7996 7995 ] final  -22.04 input   59.86 | X-H torsion
[ 10167 10162 10161 10158 ] final   22.36 input  -65.29 | X-H torsion
[ 10718 10713 10712 10709 ] final  -20.73 input   66.30 | X-H torsion
[ 10763 10752 10751 10750 ] final   49.18 input  -60.55 | X-H torsion
[ 11005 11000 10999 10996 ] final   27.08 input  -57.11 | X-H torsion

> <Gold.Protein.ActiveResidues>
 VAL166  LYS551  ARG553  GLY616  TRP617  ASP618  TYR619  PRO620  LYS621  CYS622 
 ASP623  PHE694  ASN695  SER759  ASP760  ASP761  ALA762  ILE779  LEU786  VAL792 
 PHE793  MET794  SER795  GLU796  ALA797  LYS798  CYS799  TRP800  GLU811  SER814 

> <Gold.Protein.RotatedAtoms>
  150.8495  133.7809  159.3030 H   0  0  0  0  0  0  0  0  0  0  0  0  # atno 6907 bound_to 6896
  151.5485  135.1066  159.9953 H   0  0  0  0  0  0  0  0  0  0  0  0  # atno 6908 bound_to 6896
  152.4541  133.7645  159.6821 H   0  0  0  0  0  0  0  0  0  0  0  0  # atno 6909 bound_to 6896
  146.2309  139.9066  142.8531 H   0  0  0  0  0  0  0  0  0  0  0  0  # atno 7974 bound_to 7965
  154.4668  140.2018  156.0096 H   0  0  0  0  0  0  0  0  0  0  0  0  # atno 8008 bound_to 7997
  156.0942  140.3253  155.7826 H   0  0  0  0  0  0  0  0  0  0  0  0  # atno 8009 bound_to 7997
  155.4906  140.0546  157.2945 H   0  0  0  0  0  0  0  0  0  0  0  0  # atno 8010 bound_to 7997
  140.5354  143.9769  150.6489 H   0  0  0  0  0  0  0  0  0  0  0  0  # atno 10167 bound_to 10162
  156.5279  130.4648  149.6562 H   0  0  0  0  0  0  0  0  0  0  0  0  # atno 10718 bound_to 10713
  152.9788  135.5920  154.4047 H   0  0  0  0  0  0  0  0  0  0  0  0  # atno 10763 bound_to 10752
  154.3689  135.2767  155.2279 H   0  0  0  0  0  0  0  0  0  0  0  0  # atno 10764 bound_to 10752
  154.4244  135.6051  153.6084 H   0  0  0  0  0  0  0  0  0  0  0  0  # atno 10765 bound_to 10752
  140.3301  134.2447  155.7703 H   0  0  0  0  0  0  0  0  0  0  0  0  # atno 11005 bound_to 11000
  145.2270  140.9958  143.4012 LP  0  0  0  0  0  0  0  0  0  0  0  0  # atno 17320 bound_to 7965
  144.9562  139.4029  143.6378 LP  0  0  0  0  0  0  0  0  0  0  0  0  # atno 17321 bound_to 7965
  140.3155  143.3170  152.0836 LP  0  0  0  0  0  0  0  0  0  0  0  0  # atno 17342 bound_to 10162
  139.4969  144.6608  151.6468 LP  0  0  0  0  0  0  0  0  0  0  0  0  # atno 17343 bound_to 10162
  156.3088  130.7217  151.2105 LP  0  0  0  0  0  0  0  0  0  0  0  0  # atno 17370 bound_to 10713
  157.7426  131.0487  150.5008 LP  0  0  0  0  0  0  0  0  0  0  0  0  # atno 17371 bound_to 10713
  141.2065  133.7830  157.0171 LP  0  0  0  0  0  0  0  0  0  0  0  0  # atno 17394 bound_to 11000
  140.0868  134.9616  157.1713 LP  0  0  0  0  0  0  0  0  0  0  0  0  # atno 17395 bound_to 11000

$$$$
