AV-unprocessed.smi:1853|AV-procd|sdf|7527|dock1
  -GOLD-   22720 9233D 1   1.00000     0.00000
 Structure written by MMmdl.
 42 44  0  0  0  0  0  0  0  0  1 V2000
  146.7829  139.1103  151.7563 C   0  0  0  0  0  0  0  0  0  0  0  0
  147.2285  139.9187  152.9574 C   0  0  0  0  0  0  0  0  0  0  0  0
  146.7945  141.2487  153.1235 C   0  0  0  0  0  0  0  0  0  0  0  0
  147.2108  141.9923  154.2443 C   0  0  0  0  0  0  0  0  0  0  0  0
  148.0612  141.4232  155.2145 C   0  0  0  0  0  0  0  0  0  0  0  0
  148.4173  142.2219  156.2799 O   0  0  0  0  0  0  0  0  0  0  0  0
  149.2505  141.6641  157.2858 C   0  0  0  0  0  0  0  0  0  0  0  0
  150.6662  142.2286  157.1184 C   0  0  0  0  0  0  0  0  0  0  0  0
  151.6650  141.3720  157.7388 N   0  0  0  0  0  0  0  0  0  0  0  0
  152.1809  140.2017  157.2815 C   0  0  0  0  0  0  0  0  0  0  0  0
  151.7505  139.5864  155.9748 C   0  0  0  0  0  0  0  0  0  0  0  0
  150.8945  138.4286  156.2209 N   0  0  0  0  0  0  0  0  0  0  0  0
  151.3012  137.1511  156.2019 C   0  0  0  0  0  0  0  0  0  0  0  0
  152.4552  136.7908  155.9756 O   0  0  0  0  0  0  0  0  0  0  0  0
  153.1113  139.6414  158.0595 N   0  0  0  0  0  0  0  0  0  0  0  0
  153.1859  140.5127  159.1276 C   0  0  0  0  0  0  0  0  0  0  0  0
  153.9824  140.4698  160.2946 C   0  0  0  0  0  0  0  0  0  0  0  0
  153.8851  141.4905  161.2629 C   0  0  0  0  0  0  0  0  0  0  0  0
  152.9919  142.5657  161.0790 C   0  0  0  0  0  0  0  0  0  0  0  0
  152.1901  142.6276  159.9232 C   0  0  0  0  0  0  0  0  0  0  0  0
  152.2914  141.6064  158.9591 C   0  0  0  0  0  0  0  0  0  0  0  0
  148.4939  140.0839  155.0414 C   0  0  0  0  0  0  0  0  0  0  0  0
  148.0784  139.3398  153.9200 C   0  0  0  0  0  0  0  0  0  0  0  0
  146.3780  139.7539  150.9748 H   0  0  0  0  0  0  0  0  0  0  0  0
  146.0109  138.3980  152.0482 H   0  0  0  0  0  0  0  0  0  0  0  0
  147.6221  138.5552  151.3364 H   0  0  0  0  0  0  0  0  0  0  0  0
  146.1405  141.7037  152.3941 H   0  0  0  0  0  0  0  0  0  0  0  0
  146.8715  143.0111  154.3620 H   0  0  0  0  0  0  0  0  0  0  0  0
  148.8663  141.9186  158.2752 H   0  0  0  0  0  0  0  0  0  0  0  0
  149.2703  140.5780  157.1959 H   0  0  0  0  0  0  0  0  0  0  0  0
  150.9097  142.3706  156.0656 H   0  0  0  0  0  0  0  0  0  0  0  0
  150.7260  143.2163  157.5767 H   0  0  0  0  0  0  0  0  0  0  0  0
  151.2247  140.3022  155.3438 H   0  0  0  0  0  0  0  0  0  0  0  0
  152.6369  139.2654  155.4279 H   0  0  0  0  0  0  0  0  0  0  0  0
  149.9202  138.6147  156.4089 H   0  0  0  0  0  0  0  0  0  0  0  0
  150.4629  136.4698  156.4139 H   0  0  0  0  0  0  0  0  0  0  0  0
  154.6689  139.6499  160.4456 H   0  0  0  0  0  0  0  0  0  0  0  0
  154.4982  141.4480  162.1513 H   0  0  0  0  0  0  0  0  0  0  0  0
  152.9227  143.3433  161.8257 H   0  0  0  0  0  0  0  0  0  0  0  0
  151.5050  143.4500  159.7808 H   0  0  0  0  0  0  0  0  0  0  0  0
  149.1455  139.6028  155.7551 H   0  0  0  0  0  0  0  0  0  0  0  0
  148.4151  138.3201  153.8015 H   0  0  0  0  0  0  0  0  0  0  0  0
  1  2  1  0  0  0  0
  1 24  1  0  0  0  0
  1 25  1  0  0  0  0
  1 26  1  0  0  0  0
  2 23  1  0  0  0  0
  2  3  2  0  0  0  0
  3  4  1  0  0  0  0
  3 27  1  0  0  0  0
  4  5  2  0  0  0  0
  4 28  1  0  0  0  0
  5  6  1  0  0  0  0
  5 22  1  0  0  0  0
  6  7  1  0  0  0  0
  7  8  1  0  0  0  0
  7 29  1  0  0  0  0
  7 30  1  0  0  0  0
  8  9  1  0  0  0  0
  8 31  1  0  0  0  0
  8 32  1  0  0  0  0
  9 21  1  0  0  0  0
  9 10  1  0  0  0  0
 10 11  1  0  0  0  0
 10 15  2  0  0  0  0
 11 12  1  0  0  0  0
 11 33  1  0  0  0  0
 11 34  1  0  0  0  0
 12 13  1  0  0  0  0
 12 35  1  0  0  0  0
 13 14  2  0  0  0  0
 13 36  1  0  0  0  0
 15 16  1  0  0  0  0
 16 21  2  0  0  0  0
 16 17  1  0  0  0  0
 17 18  2  0  0  0  0
 17 37  1  0  0  0  0
 18 19  1  0  0  0  0
 18 38  1  0  0  0  0
 19 20  2  0  0  0  0
 19 39  1  0  0  0  0
 20 21  1  0  0  0  0
 20 40  1  0  0  0  0
 22 23  2  0  0  0  0
 22 41  1  0  0  0  0
 23 42  1  0  0  0  0
M  END
> <s_m_source_file>
AV-unprocessed.smi

> <i_m_source_file_index>
1853

> <i_lp_mmshare_version>
43012

> <i_f3d_flags>
0

> <s_epik_input>
W0NIM11jMVtjSF1bY0hdYyhbY0hdW2NIXTEpT1tDSDJdW0NIMl1uKGMobjIpW0NIMl1bTkhdW0NIXT1PKWMoYzIzKVtjSF1bY0hdW2NIXVtjSF0z

> <s_epik_cmdline>
J2VwaWtfcHl0aG9uJywgJy1waCcsICc3LjAnLCAnLXRuJywgJzgnLCAnLW1hJywgJzIwMCcsICctbWV0YWxfYmluZGluZycsICctaW1hZScsICc8aW5maWxlLm1hZT4nLCAnLW9tYWUnLCAnPG91dGZpbGUubWFlPic=

> <r_lp_tautomer_probability>
1

> <r_epik_Ionization_Penalty>
0.0586177

> <r_epik_Ionization_Penalty_Charging>
0

> <r_epik_Ionization_Penalty_Neutral>
0.0586177

> <r_epik_State_Penalty>
0.0507031

> <r_epik_Charging_Adjusted_Penalty>
0.0507031

> <i_epik_Tot_Q>
0

> <i_epik_Tot_abs_Q>
0

> <r_epik_Metal_State_Penalty>
0.0461069

> <b_epik_Metal_Only>
0

> <s_lp_Force_Field>
OPLS_2005

> <r_lp_Energy>
12.744

> <b_lp_Chiralities_Consistent>
1

> <s_lp_Variant>
AV-unprocessed.smi:1853-1

> <Gold.Version>
5.8.1

> <Gold.Id.Protein>
6NUR|6NUR_protein|mol2

> <Gold.PLP.Fitness>
46.5199

> <Gold.PLP.PLP>
-42.3403

> <Gold.PLP.part.hbond>
-2.0000

> <Gold.PLP.part.metal>
0.0000

> <Gold.PLP.part.buried>
-2.0040

> <Gold.PLP.part.nonpolar>
-40.9033

> <Gold.PLP.part.repulsive>
2.9320

> <Gold.PLP.ligand.clash>
0.0000

> <Gold.PLP.ligand.torsion>
0.9902

> <Gold.PLP.Chemscore.Hbond>
1.9920

> <Gold.PLP.Chemscore.CHOScore>
0.0000

> <Gold.PLP.Chemscore.Metal>
0.0000

> <Gold.Chemscore.Hbonds>
donor molecule, donor type, donor heavy atom, donor atom, acceptor molecule, acceptor atom, score
      P1  H  7997  8010       L1    15  0.99
      P1  H 10752 10765       L1    14  0.94

> <Gold.PLP.Chemscore.Internal.Correction>
0.1840

> <Gold.Rescore>
     Score         DG    S(hbond)    S(metal)    S(lipo)     H(rot)  DE(clash)    DE(int)     intcor
     15.54     -17.79       1.28        0.00     121.04       2.40       1.16       1.10       ----

> <Gold.Chemscore.Fitness>
15.5370

> <Gold.Chemscore.DG>
-17.7918

> <Gold.Chemscore.ZeroCoef>
-5.4800

> <Gold.Chemscore.Hbond>
1.2832

> <Gold.Chemscore.Metal>
0.0000

> <Gold.Chemscore.Lipo>
121.0419

> <Gold.Chemscore.Internal_Hbond>
0.0000

> <Gold.Chemscore.DEClash>
1.1553

> <Gold.Chemscore.DEInternal>
1.0995

> <Gold.Chemscore.Rot>
2.3969

> <Gold.Chemscore.Internal.Correction>
   9.000000E+99

> <Gold.Chemscore.Hbonds>
donor molecule, donor type, donor heavy atom, donor atom, acceptor molecule, acceptor atom, score
      P1  H  7997  8010       L1    15  0.13
      P1  H 10752 10765       L1    14  0.91

> <Gold.Chemscore.Hbond.Weighted>
-4.2861

> <Gold.Chemscore.Metal.Weighted>
-0.0000

> <Gold.Chemscore.Lipo.Weighted>
-14.1619

> <Gold.Chemscore.Internal_Hbond.Weighted>
0.0000

> <Gold.Chemscore.DEClash.Weighted>
1.1553

> <Gold.Chemscore.DEInternal.Weighted>
1.0995

> <Gold.Chemscore.Rot.Weighted>
6.1361

> <Gold.Chemscore.Internal.Correction.Weighted>
   9.000000E+99

> <Gold.Protein.RotatedTorsions>
[ 6907 6896 6895 6894 ] final -159.96 input  -60.11 | X-H torsion
[ 7974 7965 7964 7962 ] final  115.43 input  175.53 | X-H torsion
[ 8008 7997 7996 7995 ] final   19.99 input   59.86 | X-H torsion
[ 10167 10162 10161 10158 ] final -132.83 input  -65.29 | X-H torsion
[ 10718 10713 10712 10709 ] final -160.63 input   66.30 | X-H torsion
[ 10763 10752 10751 10750 ] final -146.04 input  -60.55 | X-H torsion
[ 11005 11000 10999 10996 ] final -133.84 input  -57.11 | X-H torsion

> <Gold.Protein.ActiveResidues>
 VAL166  LYS551  ARG553  GLY616  TRP617  ASP618  TYR619  PRO620  LYS621  CYS622 
 ASP623  PHE694  ASN695  SER759  ASP760  ASP761  ALA762  ILE779  LEU786  VAL792 
 PHE793  MET794  SER795  GLU796  ALA797  LYS798  CYS799  TRP800  GLU811  SER814 

> <Gold.Protein.RotatedAtoms>
  151.3416  133.3960  159.2671 H   0  0  0  0  0  0  0  0  0  0  0  0  # atno 6907 bound_to 6896
  150.9873  134.9216  159.7889 H   0  0  0  0  0  0  0  0  0  0  0  0  # atno 6908 bound_to 6896
  152.5236  134.3381  159.9259 H   0  0  0  0  0  0  0  0  0  0  0  0  # atno 6909 bound_to 6896
  145.1921  139.2995  143.4363 H   0  0  0  0  0  0  0  0  0  0  0  0  # atno 7974 bound_to 7965
  154.9289  140.3037  155.5178 H   0  0  0  0  0  0  0  0  0  0  0  0  # atno 8008 bound_to 7997
  156.3005  140.2357  156.4284 H   0  0  0  0  0  0  0  0  0  0  0  0  # atno 8009 bound_to 7997
  154.8257  140.0421  157.1430 H   0  0  0  0  0  0  0  0  0  0  0  0  # atno 8010 bound_to 7997
  139.9045  143.6568  152.2588 H   0  0  0  0  0  0  0  0  0  0  0  0  # atno 10167 bound_to 10162
  156.5848  130.8745  151.2874 H   0  0  0  0  0  0  0  0  0  0  0  0  # atno 10718 bound_to 10713
  154.8355  135.3397  154.6600 H   0  0  0  0  0  0  0  0  0  0  0  0  # atno 10763 bound_to 10752
  153.7215  135.6958  153.5016 H   0  0  0  0  0  0  0  0  0  0  0  0  # atno 10764 bound_to 10752
  153.2378  135.4395  155.0618 H   0  0  0  0  0  0  0  0  0  0  0  0  # atno 10765 bound_to 10752
  140.9044  134.1649  157.4437 H   0  0  0  0  0  0  0  0  0  0  0  0  # atno 11005 bound_to 11000
  146.3434  140.2137  142.8590 LP  0  0  0  0  0  0  0  0  0  0  0  0  # atno 17320 bound_to 7965
  145.0031  140.8649  143.5270 LP  0  0  0  0  0  0  0  0  0  0  0  0  # atno 17321 bound_to 7965
  139.6996  144.7637  151.1296 LP  0  0  0  0  0  0  0  0  0  0  0  0  # atno 17342 bound_to 10162
  140.7699  143.5476  150.9241 LP  0  0  0  0  0  0  0  0  0  0  0  0  # atno 17343 bound_to 10162
  157.7318  130.9705  150.1896 LP  0  0  0  0  0  0  0  0  0  0  0  0  # atno 17370 bound_to 10713
  156.2600  130.3710  149.8141 LP  0  0  0  0  0  0  0  0  0  0  0  0  # atno 17371 bound_to 10713
  139.8747  134.9911  156.5533 LP  0  0  0  0  0  0  0  0  0  0  0  0  # atno 17394 bound_to 11000
  140.8189  133.8369  155.8878 LP  0  0  0  0  0  0  0  0  0  0  0  0  # atno 17395 bound_to 11000

$$$$
