AV-unprocessed.smi:2407|AV-procd|sdf|9519|dock3
  -GOLD-   2272013153D 1   1.00000     0.00000
 Structure written by MMmdl.
 38 39  0  0  0  0  0  0  0  0  1 V2000
  147.3825  137.2254  154.4044 C   0  0  0  0  0  0  0  0  0  0  0  0
  147.4548  138.7209  154.3094 C   0  0  0  0  0  0  0  0  0  0  0  0
  146.8805  139.4663  153.2053 C   0  0  0  0  0  0  0  0  0  0  0  0
  146.9920  140.8119  153.1859 C   0  0  0  0  0  0  0  0  0  0  0  0
  147.6786  141.5408  154.2503 C   0  0  0  0  0  0  0  0  0  0  0  0
  147.8138  142.7643  154.2538 O   0  0  0  0  0  0  0  0  0  0  0  0
  148.1659  140.7361  155.2395 N   0  0  0  0  0  0  0  0  0  0  0  0
  148.8955  141.3014  156.3794 C   0  0  0  0  0  0  0  0  0  0  0  0
  150.3816  140.8688  156.3765 C   0  0  1  0  0  0  0  0  0  0  0  0
  150.6680  140.2064  155.1613 O   0  0  0  0  0  0  0  0  0  0  0  0
  151.3499  142.0546  156.5003 C   0  0  0  0  0  0  0  0  0  0  0  0
  151.1895  142.6394  157.7857 O   0  0  0  0  0  0  0  0  0  0  0  0
  151.9916  142.2009  158.8188 C   0  0  0  0  0  0  0  0  0  0  0  0
  152.5906  140.9154  158.8517 C   0  0  0  0  0  0  0  0  0  0  0  0
  153.3967  140.5281  159.9381 C   0  0  0  0  0  0  0  0  0  0  0  0
  153.6166  141.4175  161.0034 C   0  0  0  0  0  0  0  0  0  0  0  0
  153.0304  142.6957  160.9811 C   0  0  0  0  0  0  0  0  0  0  0  0
  152.2177  143.0942  159.8955 C   0  0  0  0  0  0  0  0  0  0  0  0
  151.5974  144.4874  159.8722 C   0  0  0  0  0  0  0  0  0  0  0  0
  151.9594  145.2137  160.9305 F   0  0  0  0  0  0  0  0  0  0  0  0
  151.9944  145.1276  158.7729 F   0  0  0  0  0  0  0  0  0  0  0  0
  150.2668  144.3995  159.8676 F   0  0  0  0  0  0  0  0  0  0  0  0
  148.0596  139.3559  155.2594 N   0  0  0  0  0  0  0  0  0  0  0  0
  146.6775  136.8184  153.6794 H   0  0  0  0  0  0  0  0  0  0  0  0
  147.0576  136.9107  155.3966 H   0  0  0  0  0  0  0  0  0  0  0  0
  148.3575  136.7782  154.2101 H   0  0  0  0  0  0  0  0  0  0  0  0
  146.3713  138.9416  152.4105 H   0  0  0  0  0  0  0  0  0  0  0  0
  146.5644  141.3655  152.3630 H   0  0  0  0  0  0  0  0  0  0  0  0
  148.7967  142.3890  156.3866 H   0  0  0  0  0  0  0  0  0  0  0  0
  148.4132  140.9837  157.3061 H   0  0  0  0  0  0  0  0  0  0  0  0
  150.5836  140.1669  157.1874 H   0  0  0  0  0  0  0  0  0  0  0  0
  151.0792  139.3791  155.3623 H   0  0  0  0  0  0  0  0  0  0  0  0
  152.3749  141.6983  156.3837 H   0  0  0  0  0  0  0  0  0  0  0  0
  151.1530  142.7892  155.7172 H   0  0  0  0  0  0  0  0  0  0  0  0
  152.4472  140.2032  158.0538 H   0  0  0  0  0  0  0  0  0  0  0  0
  153.8470  139.5466  159.9528 H   0  0  0  0  0  0  0  0  0  0  0  0
  154.2363  141.1210  161.8368 H   0  0  0  0  0  0  0  0  0  0  0  0
  153.2150  143.3669  161.8063 H   0  0  0  0  0  0  0  0  0  0  0  0
  1  2  1  0  0  0  0
  1 24  1  0  0  0  0
  1 25  1  0  0  0  0
  1 26  1  0  0  0  0
  2 23  2  0  0  0  0
  2  3  1  0  0  0  0
  3  4  2  0  0  0  0
  3 27  1  0  0  0  0
  4  5  1  0  0  0  0
  4 28  1  0  0  0  0
  5  6  2  0  0  0  0
  5  7  1  0  0  0  0
  7  8  1  0  0  0  0
  7 23  1  0  0  0  0
  8  9  1  0  0  0  0
  8 29  1  0  0  0  0
  8 30  1  0  0  0  0
  9 10  1  0  0  0  0
  9 11  1  0  0  0  0
  9 31  1  0  0  0  0
 10 32  1  0  0  0  0
 11 12  1  0  0  0  0
 11 33  1  0  0  0  0
 11 34  1  0  0  0  0
 12 13  1  0  0  0  0
 13 18  1  0  0  0  0
 13 14  2  0  0  0  0
 14 15  1  0  0  0  0
 14 35  1  0  0  0  0
 15 16  2  0  0  0  0
 15 36  1  0  0  0  0
 16 17  1  0  0  0  0
 16 37  1  0  0  0  0
 17 18  2  0  0  0  0
 17 38  1  0  0  0  0
 18 19  1  0  0  0  0
 19 20  1  0  0  0  0
 19 21  1  0  0  0  0
 19 22  1  0  0  0  0
M  END
> <s_m_source_file>
AV-unprocessed.smi

> <i_m_source_file_index>
2407

> <i_lp_mmshare_version>
43012

> <i_f3d_flags>
0

> <s_epik_input>
W0NIM11jMVtjSF1bY0hdYyg9TyluKG4xKVtDSDJdW0NASF0oW09IXSlbQ0gyXU9jMltjSF1bY0hdW2NIXVtjSF1jMkMoRikoRilG

> <s_epik_cmdline>
J2VwaWtfcHl0aG9uJywgJy1waCcsICc3LjAnLCAnLXRuJywgJzgnLCAnLW1hJywgJzIwMCcsICctbWV0YWxfYmluZGluZycsICctaW1hZScsICc8aW5maWxlLm1hZT4nLCAnLW9tYWUnLCAnPG91dGZpbGUubWFlPic=

> <r_lp_tautomer_probability>
1

> <r_epik_Ionization_Penalty>
5.91655e-06

> <r_epik_Ionization_Penalty_Charging>
5.79937e-06

> <r_epik_Ionization_Penalty_Neutral>
1.17174e-07

> <r_epik_State_Penalty>
-0

> <r_epik_Charging_Adjusted_Penalty>
5.79937e-06

> <i_epik_Tot_Q>
0

> <i_epik_Tot_abs_Q>
0

> <r_epik_Metal_State_Penalty>
-0

> <b_epik_Metal_Only>
0

> <s_lp_Force_Field>
OPLS_2005

> <r_lp_Energy>
30.1001

> <b_lp_Chiralities_Consistent>
1

> <s_lp_Variant>
AV-unprocessed.smi:2407-2

> <Gold.Version>
5.8.1

> <Gold.Id.Protein>
6NUR|6NUR_protein|mol2

> <Gold.PLP.Fitness>
47.6243

> <Gold.PLP.PLP>
-44.4637

> <Gold.PLP.part.hbond>
-3.0000

> <Gold.PLP.part.metal>
0.0000

> <Gold.PLP.part.buried>
-6.0953

> <Gold.PLP.part.nonpolar>
-38.2650

> <Gold.PLP.part.repulsive>
4.0422

> <Gold.PLP.ligand.clash>
0.4784

> <Gold.PLP.ligand.torsion>
1.3403

> <Gold.PLP.Chemscore.Hbond>
1.9120

> <Gold.PLP.Chemscore.CHOScore>
0.0000

> <Gold.PLP.Chemscore.Metal>
0.0000

> <Gold.Chemscore.Hbonds>
donor molecule, donor type, donor heavy atom, donor atom, acceptor molecule, acceptor atom, score
      P1  H  7989  7998       L1    10  0.99
      P1  H  8022  8030       L1     6  0.45

> <Gold.PLP.Chemscore.Internal.Correction>
0.5837

> <Gold.Rescore>
     Score         DG    S(hbond)    S(metal)    S(lipo)     H(rot)  DE(clash)    DE(int)     intcor
      8.28     -14.65       0.94        0.00     108.60       2.60       0.97       5.40       ----

> <Gold.Chemscore.Fitness>
8.2806

> <Gold.Chemscore.DG>
-14.6457

> <Gold.Chemscore.ZeroCoef>
-5.4800

> <Gold.Chemscore.Hbond>
0.9354

> <Gold.Chemscore.Metal>
0.0000

> <Gold.Chemscore.Lipo>
108.6001

> <Gold.Chemscore.Internal_Hbond>
0.0000

> <Gold.Chemscore.DEClash>
0.9665

> <Gold.Chemscore.DEInternal>
5.3985

> <Gold.Chemscore.Rot>
2.6035

> <Gold.Chemscore.Internal.Correction>
   9.000000E+99

> <Gold.Chemscore.Hbonds>
donor molecule, donor type, donor heavy atom, donor atom, acceptor molecule, acceptor atom, score
      P1  H  7989  7998       L1    10  0.46
      P1  H  8022  8030       L1     6  0.43

> <Gold.Chemscore.Hbond.Weighted>
-3.1244

> <Gold.Chemscore.Metal.Weighted>
-0.0000

> <Gold.Chemscore.Lipo.Weighted>
-12.7062

> <Gold.Chemscore.Internal_Hbond.Weighted>
0.0000

> <Gold.Chemscore.DEClash.Weighted>
0.9665

> <Gold.Chemscore.DEInternal.Weighted>
5.3985

> <Gold.Chemscore.Rot.Weighted>
6.6649

> <Gold.Chemscore.Internal.Correction.Weighted>
   9.000000E+99

> <Gold.Protein.RotatedTorsions>
[ 6907 6896 6895 6894 ] final -107.86 input  -60.11 | X-H torsion
[ 7974 7965 7964 7962 ] final  -18.51 input  175.53 | X-H torsion
[ 8008 7997 7996 7995 ] final  146.93 input   59.86 | X-H torsion
[ 10167 10162 10161 10158 ] final   71.72 input  -65.29 | X-H torsion
[ 10718 10713 10712 10709 ] final  145.50 input   66.30 | X-H torsion
[ 10763 10752 10751 10750 ] final -157.73 input  -60.55 | X-H torsion
[ 11005 11000 10999 10996 ] final   -1.86 input  -57.11 | X-H torsion

> <Gold.Protein.ActiveResidues>
 VAL166  LYS551  ARG553  GLY616  TRP617  ASP618  TYR619  PRO620  LYS621  CYS622 
 ASP623  PHE694  ASN695  SER759  ASP760  ASP761  ALA762  ILE779  LEU786  VAL792 
 PHE793  MET794  SER795  GLU796  ALA797  LYS798  CYS799  TRP800  GLU811  SER814 

> <Gold.Protein.RotatedAtoms>
  150.7468  133.9764  159.3561 H   0  0  0  0  0  0  0  0  0  0  0  0  # atno 6907 bound_to 6896
  151.7701  135.0786  160.0368 H   0  0  0  0  0  0  0  0  0  0  0  0  # atno 6908 bound_to 6896
  152.3344  133.5958  159.5868 H   0  0  0  0  0  0  0  0  0  0  0  0  # atno 6909 bound_to 6896
  146.1888  140.3931  142.8466 H   0  0  0  0  0  0  0  0  0  0  0  0  # atno 7974 bound_to 7965
  156.2840  140.2169  156.5456 H   0  0  0  0  0  0  0  0  0  0  0  0  # atno 8008 bound_to 7997
  154.7334  140.0493  157.0769 H   0  0  0  0  0  0  0  0  0  0  0  0  # atno 8009 bound_to 7997
  155.0324  140.3136  155.4756 H   0  0  0  0  0  0  0  0  0  0  0  0  # atno 8010 bound_to 7997
  140.0430  144.5374  150.7420 H   0  0  0  0  0  0  0  0  0  0  0  0  # atno 10167 bound_to 10162
  157.3445  131.0941  151.1054 H   0  0  0  0  0  0  0  0  0  0  0  0  # atno 10718 bound_to 10713
  154.7613  135.3118  154.8372 H   0  0  0  0  0  0  0  0  0  0  0  0  # atno 10763 bound_to 10752
  153.9132  135.6803  153.4754 H   0  0  0  0  0  0  0  0  0  0  0  0  # atno 10764 bound_to 10752
  153.1214  135.4821  154.9133 H   0  0  0  0  0  0  0  0  0  0  0  0  # atno 10765 bound_to 10752
  140.6520  133.9396  155.8386 H   0  0  0  0  0  0  0  0  0  0  0  0  # atno 11005 bound_to 11000
  144.8448  140.6912  143.6206 LP  0  0  0  0  0  0  0  0  0  0  0  0  # atno 17320 bound_to 7965
  145.3855  139.1627  143.4257 LP  0  0  0  0  0  0  0  0  0  0  0  0  # atno 17321 bound_to 7965
  140.7251  143.2628  151.4147 LP  0  0  0  0  0  0  0  0  0  0  0  0  # atno 17342 bound_to 10162
  139.6001  144.1313  152.2189 LP  0  0  0  0  0  0  0  0  0  0  0  0  # atno 17343 bound_to 10162
  157.2253  130.6500  149.5828 LP  0  0  0  0  0  0  0  0  0  0  0  0  # atno 17370 bound_to 10713
  155.9712  130.4616  150.6115 LP  0  0  0  0  0  0  0  0  0  0  0  0  # atno 17371 bound_to 10713
  141.0529  134.0458  157.3760 LP  0  0  0  0  0  0  0  0  0  0  0  0  # atno 17394 bound_to 11000
  139.9042  135.0174  156.7411 LP  0  0  0  0  0  0  0  0  0  0  0  0  # atno 17395 bound_to 11000

$$$$
