AV-unprocessed.smi:2615|AV-procd|sdf|10215|dock3
  -GOLD-   2272014223D 1   1.00000     0.00000
 Structure written by MMmdl.
 36 37  0  0  0  0  0  0  0  0  1 V2000
  145.7945  138.1865  152.7198 C   0  0  0  0  0  0  0  0  0  0  0  0
  146.6014  139.1946  153.5108 C   0  0  0  0  0  0  0  0  0  0  0  0
  146.4059  140.5790  153.3453 C   0  0  0  0  0  0  0  0  0  0  0  0
  147.1850  141.4701  154.1082 C   0  0  0  0  0  0  0  0  0  0  0  0
  148.1389  140.9583  155.0166 C   0  0  0  0  0  0  0  0  0  0  0  0
  148.8713  141.9403  155.7357 N   0  0  0  0  0  0  0  0  0  0  0  0
  149.9355  141.7617  156.5382 C   0  0  0  0  0  0  0  0  0  0  0  0
  150.4655  140.6788  156.7890 O   0  0  0  0  0  0  0  0  0  0  0  0
  150.3598  142.9281  157.0466 N   0  0  0  0  0  0  0  0  0  0  0  0
  151.4927  143.0910  157.9529 C   0  0  0  0  0  0  0  0  0  0  0  0
  151.4454  142.0375  159.0795 C   0  0  0  0  0  0  0  0  0  0  0  0
  152.5868  142.2417  160.0888 C   0  0  0  0  0  0  0  0  0  0  0  0
  152.5741  143.6658  160.6656 C   0  0  0  0  0  0  0  0  0  0  0  0
  152.6277  144.7172  159.5462 C   0  0  0  0  0  0  0  0  0  0  0  0
  151.4852  144.5164  158.5373 C   0  0  0  0  0  0  0  0  0  0  0  0
  148.3194  139.6227  155.1689 N   0  0  0  0  0  0  0  0  0  0  0  0
  147.5724  138.7692  154.4375 C   0  0  0  0  0  0  0  0  0  0  0  0
  145.1213  138.6801  152.0181 H   0  0  0  0  0  0  0  0  0  0  0  0
  145.1963  137.5711  153.3923 H   0  0  0  0  0  0  0  0  0  0  0  0
  146.4578  137.5322  152.1533 H   0  0  0  0  0  0  0  0  0  0  0  0
  145.6731  140.9565  152.6472 H   0  0  0  0  0  0  0  0  0  0  0  0
  147.0482  142.5355  153.9935 H   0  0  0  0  0  0  0  0  0  0  0  0
  148.5466  142.8894  155.6266 H   0  0  0  0  0  0  0  0  0  0  0  0
  149.8639  143.7681  156.7866 H   0  0  0  0  0  0  0  0  0  0  0  0
  152.4189  142.9626  157.3889 H   0  0  0  0  0  0  0  0  0  0  0  0
  150.4886  142.0964  159.6003 H   0  0  0  0  0  0  0  0  0  0  0  0
  151.5069  141.0326  158.6598 H   0  0  0  0  0  0  0  0  0  0  0  0
  152.5038  141.5131  160.8958 H   0  0  0  0  0  0  0  0  0  0  0  0
  153.5438  142.0542  159.6003 H   0  0  0  0  0  0  0  0  0  0  0  0
  151.6719  143.8109  161.2612 H   0  0  0  0  0  0  0  0  0  0  0  0
  153.4176  143.8004  161.3435 H   0  0  0  0  0  0  0  0  0  0  0  0
  152.5747  145.7186  159.9742 H   0  0  0  0  0  0  0  0  0  0  0  0
  153.5861  144.6521  159.0294 H   0  0  0  0  0  0  0  0  0  0  0  0
  151.5724  145.2501  157.7350 H   0  0  0  0  0  0  0  0  0  0  0  0
  150.5313  144.7094  159.0305 H   0  0  0  0  0  0  0  0  0  0  0  0
  147.7562  137.7170  154.5976 H   0  0  0  0  0  0  0  0  0  0  0  0
  1  2  1  0  0  0  0
  1 18  1  0  0  0  0
  1 19  1  0  0  0  0
  1 20  1  0  0  0  0
  2 17  1  0  0  0  0
  2  3  2  0  0  0  0
  3  4  1  0  0  0  0
  3 21  1  0  0  0  0
  4  5  2  0  0  0  0
  4 22  1  0  0  0  0
  5  6  1  0  0  0  0
  5 16  1  0  0  0  0
  6  7  1  0  0  0  0
  6 23  1  0  0  0  0
  7  8  2  0  0  0  0
  7  9  1  0  0  0  0
  9 10  1  0  0  0  0
  9 24  1  0  0  0  0
 10 15  1  0  0  0  0
 10 11  1  0  0  0  0
 10 25  1  0  0  0  0
 11 12  1  0  0  0  0
 11 26  1  0  0  0  0
 11 27  1  0  0  0  0
 12 13  1  0  0  0  0
 12 28  1  0  0  0  0
 12 29  1  0  0  0  0
 13 14  1  0  0  0  0
 13 30  1  0  0  0  0
 13 31  1  0  0  0  0
 14 15  1  0  0  0  0
 14 32  1  0  0  0  0
 14 33  1  0  0  0  0
 15 34  1  0  0  0  0
 15 35  1  0  0  0  0
 16 17  2  0  0  0  0
 17 36  1  0  0  0  0
M  END
> <s_m_source_file>
AV-unprocessed.smi

> <i_m_source_file_index>
2615

> <i_lp_mmshare_version>
43012

> <i_f3d_flags>
0

> <s_epik_input>
W0NIM11jMVtjSF1bY0hdYyhuW2NIXTEpW05IXUMoPU8pW05IXVtDSF0yW0NIMl1bQ0gyXVtDSDJdW0NIMl1bQ0gyXTI=

> <s_epik_cmdline>
J2VwaWtfcHl0aG9uJywgJy1waCcsICc3LjAnLCAnLXRuJywgJzgnLCAnLW1hJywgJzIwMCcsICctbWV0YWxfYmluZGluZycsICctaW1hZScsICc8aW5maWxlLm1hZT4nLCAnLW9tYWUnLCAnPG91dGZpbGUubWFlPic=

> <r_lp_tautomer_probability>
1

> <r_epik_Ionization_Penalty>
6.39786e-05

> <r_epik_Ionization_Penalty_Charging>
0

> <r_epik_Ionization_Penalty_Neutral>
6.39786e-05

> <r_epik_State_Penalty>
-0

> <r_epik_Charging_Adjusted_Penalty>
0

> <i_epik_Tot_Q>
0

> <i_epik_Tot_abs_Q>
0

> <r_epik_Metal_State_Penalty>
-0

> <b_epik_Metal_Only>
0

> <s_lp_Force_Field>
OPLS_2005

> <r_lp_Energy>
11.2563

> <b_lp_Chiralities_Consistent>
1

> <s_lp_Variant>
AV-unprocessed.smi:2615-1

> <Gold.Version>
5.8.1

> <Gold.Id.Protein>
6NUR|6NUR_protein|mol2

> <Gold.PLP.Fitness>
47.3835

> <Gold.PLP.PLP>
-38.7009

> <Gold.PLP.part.hbond>
-2.0000

> <Gold.PLP.part.metal>
0.0000

> <Gold.PLP.part.buried>
-2.2688

> <Gold.PLP.part.nonpolar>
-34.6833

> <Gold.PLP.part.repulsive>
0.3074

> <Gold.PLP.ligand.clash>
0.0000

> <Gold.PLP.ligand.torsion>
0.1602

> <Gold.PLP.Chemscore.Hbond>
2.0000

> <Gold.PLP.Chemscore.CHOScore>
1.0000

> <Gold.PLP.Chemscore.Metal>
0.0000

> <Gold.Chemscore.Hbonds>
donor molecule, donor type, donor heavy atom, donor atom, acceptor molecule, acceptor atom, score
      L1  H     6    23       P1  8028  1.00
      L1  H     9    24       P1  8028  1.00

> <Gold.PLP.Chemscore.Internal.Correction>
0.0031

> <Gold.Rescore>
     Score         DG    S(hbond)    S(metal)    S(lipo)     H(rot)  DE(clash)    DE(int)     intcor
     19.67     -22.08       1.95        0.00     107.99       1.00       0.20       2.21       ----

> <Gold.Chemscore.Fitness>
19.6688

> <Gold.Chemscore.DG>
-22.0797

> <Gold.Chemscore.ZeroCoef>
-5.4800

> <Gold.Chemscore.Hbond>
1.9536

> <Gold.Chemscore.Metal>
0.0000

> <Gold.Chemscore.Lipo>
107.9885

> <Gold.Chemscore.Internal_Hbond>
0.0000

> <Gold.Chemscore.DEClash>
0.2047

> <Gold.Chemscore.DEInternal>
2.2062

> <Gold.Chemscore.Rot>
1.0000

> <Gold.Chemscore.Internal.Correction>
   9.000000E+99

> <Gold.Chemscore.Hbonds>
donor molecule, donor type, donor heavy atom, donor atom, acceptor molecule, acceptor atom, score
      L1  H     6    23       P1  8028  0.95
      L1  H     9    24       P1  8028  0.96

> <Gold.Chemscore.Hbond.Weighted>
-6.5250

> <Gold.Chemscore.Metal.Weighted>
-0.0000

> <Gold.Chemscore.Lipo.Weighted>
-12.6347

> <Gold.Chemscore.Internal_Hbond.Weighted>
0.0000

> <Gold.Chemscore.DEClash.Weighted>
0.2047

> <Gold.Chemscore.DEInternal.Weighted>
2.2062

> <Gold.Chemscore.Rot.Weighted>
2.5600

> <Gold.Chemscore.Internal.Correction.Weighted>
   9.000000E+99

> <Gold.Protein.RotatedTorsions>
[ 6907 6896 6895 6894 ] final  158.67 input  -60.11 | X-H torsion
[ 7974 7965 7964 7962 ] final  -14.88 input  175.53 | X-H torsion
[ 8008 7997 7996 7995 ] final  160.84 input   59.86 | X-H torsion
[ 10167 10162 10161 10158 ] final   33.80 input  -65.29 | X-H torsion
[ 10718 10713 10712 10709 ] final   95.14 input   66.30 | X-H torsion
[ 10763 10752 10751 10750 ] final  -34.89 input  -60.55 | X-H torsion
[ 11005 11000 10999 10996 ] final   71.77 input  -57.11 | X-H torsion

> <Gold.Protein.ActiveResidues>
 VAL166  LYS551  ARG553  GLY616  TRP617  ASP618  TYR619  PRO620  LYS621  CYS622 
 ASP623  PHE694  ASN695  SER759  ASP760  ASP761  ALA762  ILE779  LEU786  VAL792 
 PHE793  MET794  SER795  GLU796  ALA797  LYS798  CYS799  TRP800  GLU811  SER814 

> <Gold.Protein.RotatedAtoms>
  151.9969  133.3811  159.4166 H   0  0  0  0  0  0  0  0  0  0  0  0  # atno 6907 bound_to 6896
  150.6914  134.3876  159.5071 H   0  0  0  0  0  0  0  0  0  0  0  0  # atno 6908 bound_to 6896
  152.1617  134.8906  160.0592 H   0  0  0  0  0  0  0  0  0  0  0  0  # atno 6909 bound_to 6896
  146.2056  140.3412  142.8408 H   0  0  0  0  0  0  0  0  0  0  0  0  # atno 7974 bound_to 7965
  156.2145  140.1793  156.7621 H   0  0  0  0  0  0  0  0  0  0  0  0  # atno 8008 bound_to 7997
  154.5771  140.0672  156.9079 H   0  0  0  0  0  0  0  0  0  0  0  0  # atno 8009 bound_to 7997
  155.2569  140.3333  155.4279 H   0  0  0  0  0  0  0  0  0  0  0  0  # atno 8010 bound_to 7997
  140.4374  144.1237  150.6168 H   0  0  0  0  0  0  0  0  0  0  0  0  # atno 10167 bound_to 10162
  157.6941  131.0535  150.4293 H   0  0  0  0  0  0  0  0  0  0  0  0  # atno 10718 bound_to 10713
  153.8542  135.6846  153.4789 H   0  0  0  0  0  0  0  0  0  0  0  0  # atno 10763 bound_to 10752
  153.1379  135.4669  154.9449 H   0  0  0  0  0  0  0  0  0  0  0  0  # atno 10764 bound_to 10752
  154.7788  135.3262  154.7982 H   0  0  0  0  0  0  0  0  0  0  0  0  # atno 10765 bound_to 10752
  139.9526  134.7200  156.0827 H   0  0  0  0  0  0  0  0  0  0  0  0  # atno 11005 bound_to 11000
  144.8784  140.7367  143.6002 LP  0  0  0  0  0  0  0  0  0  0  0  0  # atno 17320 bound_to 7965
  145.3332  139.1753  143.4525 LP  0  0  0  0  0  0  0  0  0  0  0  0  # atno 17321 bound_to 7965
  140.4358  143.2548  151.9537 LP  0  0  0  0  0  0  0  0  0  0  0  0  # atno 17342 bound_to 10162
  139.4787  144.5701  151.8102 LP  0  0  0  0  0  0  0  0  0  0  0  0  # atno 17343 bound_to 10162
  156.4661  130.4042  149.6546 LP  0  0  0  0  0  0  0  0  0  0  0  0  # atno 17370 bound_to 10713
  156.3644  130.7498  151.2474 LP  0  0  0  0  0  0  0  0  0  0  0  0  # atno 17371 bound_to 10713
  141.1192  133.6618  156.3170 LP  0  0  0  0  0  0  0  0  0  0  0  0  # atno 17394 bound_to 11000
  140.5684  134.5865  157.5451 LP  0  0  0  0  0  0  0  0  0  0  0  0  # atno 17395 bound_to 11000

$$$$
