AV-unprocessed.smi:794|AV-procd|sdf|3760|dock4
  -GOLD-   22720 1193D 1   1.00000     0.00000
 Structure written by MMmdl.
 41 43  0  0  0  0  0  0  0  0  1 V2000
  152.1988  135.5571  157.1159 C   0  0  0  0  0  0  0  0  0  0  0  0
  151.3971  134.5773  156.3149 C   0  0  0  0  0  0  0  0  0  0  0  0
  150.4416  135.0451  155.4078 N   0  0  0  0  0  0  0  0  0  0  0  0
  149.8125  134.0490  154.7757 C   0  0  0  0  0  0  0  0  0  0  0  0
  148.7989  134.2333  153.7990 N   0  0  0  0  0  0  0  0  0  0  0  0
  147.6915  133.4964  153.6029 C   0  0  0  0  0  0  0  0  0  0  0  0
  147.3822  132.4913  154.2431 O   0  0  0  0  0  0  0  0  0  0  0  0
  146.9417  134.0018  152.6126 N   0  0  0  0  0  0  0  0  0  0  0  0
  145.6748  133.4406  152.1402 C   0  0  2  0  0  0  0  0  0  0  0  0
  145.9308  132.1450  151.3400 C   0  0  1  0  0  0  0  0  0  0  0  0
  144.6070  131.3724  151.1965 C   0  0  0  0  0  0  0  0  0  0  0  0
  143.8223  132.2377  150.1923 C   0  0  0  0  0  0  0  0  0  0  0  0
  144.8023  133.3897  149.8920 C   0  0  2  0  0  0  0  0  0  0  0  0
  146.1409  132.6636  149.9227 C   0  0  0  0  0  0  0  0  0  0  0  0
  144.8905  134.3255  151.1229 C   0  0  2  0  0  0  0  0  0  0  0  0
  145.5057  135.7060  150.7980 C   0  0  0  0  0  0  0  0  0  0  0  0
  144.9352  136.2355  149.6197 O   0  0  0  0  0  0  0  0  0  0  0  0
  150.3591  132.4527  155.2589 S   0  0  0  0  0  0  0  0  0  0  0  0
  151.4877  133.2049  156.3590 C   0  0  0  0  0  0  0  0  0  0  0  0
  152.3968  132.3781  157.2061 C   0  0  0  0  0  0  0  0  0  0  0  0
  152.1187  135.3506  158.1835 H   0  0  0  0  0  0  0  0  0  0  0  0
  151.8635  136.5821  156.9547 H   0  0  0  0  0  0  0  0  0  0  0  0
  153.2547  135.5107  156.8486 H   0  0  0  0  0  0  0  0  0  0  0  0
  148.9237  135.0283  153.1900 H   0  0  0  0  0  0  0  0  0  0  0  0
  147.2722  134.8306  152.1406 H   0  0  0  0  0  0  0  0  0  0  0  0
  145.0489  133.2147  153.0057 H   0  0  0  0  0  0  0  0  0  0  0  0
  146.7436  131.5325  151.7323 H   0  0  0  0  0  0  0  0  0  0  0  0
  144.7808  130.3759  150.7885 H   0  0  0  0  0  0  0  0  0  0  0  0
  144.0845  131.2576  152.1469 H   0  0  0  0  0  0  0  0  0  0  0  0
  143.6034  131.6689  149.2875 H   0  0  0  0  0  0  0  0  0  0  0  0
  142.8746  132.5927  150.5987 H   0  0  0  0  0  0  0  0  0  0  0  0
  144.5820  133.9020  148.9551 H   0  0  0  0  0  0  0  0  0  0  0  0
  147.0016  133.3266  149.8251 H   0  0  0  0  0  0  0  0  0  0  0  0
  146.2188  131.8691  149.1785 H   0  0  0  0  0  0  0  0  0  0  0  0
  143.8881  134.5050  151.5155 H   0  0  0  0  0  0  0  0  0  0  0  0
  145.3064  136.4127  151.6036 H   0  0  0  0  0  0  0  0  0  0  0  0
  146.5873  135.6460  150.6761 H   0  0  0  0  0  0  0  0  0  0  0  0
  145.1784  135.6823  148.8930 H   0  0  0  0  0  0  0  0  0  0  0  0
  153.4068  132.7884  157.2070 H   0  0  0  0  0  0  0  0  0  0  0  0
  152.4538  131.3527  156.8400 H   0  0  0  0  0  0  0  0  0  0  0  0
  152.0428  132.3491  158.2367 H   0  0  0  0  0  0  0  0  0  0  0  0
  1  2  1  0  0  0  0
  1 21  1  0  0  0  0
  1 22  1  0  0  0  0
  1 23  1  0  0  0  0
  2 19  2  0  0  0  0
  2  3  1  0  0  0  0
  3  4  2  0  0  0  0
  4  5  1  0  0  0  0
  4 18  1  0  0  0  0
  5  6  1  0  0  0  0
  5 24  1  0  0  0  0
  6  7  2  0  0  0  0
  6  8  1  0  0  0  0
  8  9  1  0  0  0  0
  8 25  1  0  0  0  0
  9 15  1  0  0  0  0
  9 10  1  0  0  0  0
  9 26  1  0  0  0  0
 10 14  1  0  0  0  0
 10 11  1  0  0  0  0
 10 27  1  0  0  0  0
 11 12  1  0  0  0  0
 11 28  1  0  0  0  0
 11 29  1  0  0  0  0
 12 13  1  0  0  0  0
 12 30  1  0  0  0  0
 12 31  1  0  0  0  0
 13 14  1  0  0  0  0
 13 15  1  0  0  0  0
 13 32  1  0  0  0  0
 14 33  1  0  0  0  0
 14 34  1  0  0  0  0
 15 16  1  0  0  0  0
 15 35  1  0  0  0  0
 16 17  1  0  0  0  0
 16 36  1  0  0  0  0
 16 37  1  0  0  0  0
 17 38  1  0  0  0  0
 18 19  1  0  0  0  0
 19 20  1  0  0  0  0
 20 39  1  0  0  0  0
 20 40  1  0  0  0  0
 20 41  1  0  0  0  0
M  END
> <s_m_source_file>
AV-unprocessed.smi

> <i_m_source_file_index>
794

> <i_lp_mmshare_version>
43012

> <i_f3d_flags>
0

> <s_epik_input>
W0NIM11jMW5jKHNjMVtDSDNdKVtOSF1DKD1PKVtOSF1bQ0BIXShbQ0BASF0yMylbQ0BIXShbQ0gyXVtPSF0pW0NAQEhdKFtDSDJdMylbQ0gyXVtDSDJdMg==

> <s_epik_cmdline>
J2VwaWtfcHl0aG9uJywgJy1waCcsICc3LjAnLCAnLXRuJywgJzgnLCAnLW1hJywgJzIwMCcsICctbWV0YWxfYmluZGluZycsICctaW1hZScsICc8aW5maWxlLm1hZT4nLCAnLW9tYWUnLCAnPG91dGZpbGUubWFlPic=

> <r_lp_tautomer_probability>
0.999

> <r_epik_Ionization_Penalty>
0.000713029

> <r_epik_Ionization_Penalty_Charging>
0

> <r_epik_Ionization_Penalty_Neutral>
0.000713029

> <r_epik_State_Penalty>
0.000177984

> <r_epik_Charging_Adjusted_Penalty>
0.000177984

> <i_epik_Tot_Q>
0

> <i_epik_Tot_abs_Q>
0

> <r_epik_Metal_State_Penalty>
-0

> <b_epik_Metal_Only>
0

> <s_lp_Force_Field>
OPLS_2005

> <r_lp_Energy>
48.2777

> <b_lp_Chiralities_Consistent>
1

> <s_lp_Variant>
AV-unprocessed.smi:794-5

> <Gold.Version>
5.8.1

> <Gold.Id.Protein>
6NUR|6NUR_protein|mol2

> <Gold.PLP.Fitness>
40.8266

> <Gold.PLP.PLP>
-33.9573

> <Gold.PLP.part.hbond>
-3.9150

> <Gold.PLP.part.metal>
0.0000

> <Gold.PLP.part.buried>
-0.6694

> <Gold.PLP.part.nonpolar>
-27.4548

> <Gold.PLP.part.repulsive>
0.1448

> <Gold.PLP.ligand.clash>
0.0000

> <Gold.PLP.ligand.torsion>
0.5000

> <Gold.PLP.Chemscore.Hbond>
2.6183

> <Gold.PLP.Chemscore.CHOScore>
0.0000

> <Gold.PLP.Chemscore.Metal>
0.0000

> <Gold.Chemscore.Hbonds>
donor molecule, donor type, donor heavy atom, donor atom, acceptor molecule, acceptor atom, score
      L1  H     5    24       P1  7948  1.00
      L1  H     8    25       P1  7948  0.62
      L1  H    17    38       P1  7921  1.00

> <Gold.PLP.Chemscore.Internal.Correction>
0.0145

> <Gold.Rescore>
     Score         DG    S(hbond)    S(metal)    S(lipo)     H(rot)  DE(clash)    DE(int)     intcor
     17.36     -18.46       2.26        0.00      85.36       1.78       0.56       0.54       ----

> <Gold.Chemscore.Fitness>
17.3628

> <Gold.Chemscore.DG>
-18.4595

> <Gold.Chemscore.ZeroCoef>
-5.4800

> <Gold.Chemscore.Hbond>
2.2601

> <Gold.Chemscore.Metal>
0.0000

> <Gold.Chemscore.Lipo>
85.3581

> <Gold.Chemscore.Internal_Hbond>
0.0000

> <Gold.Chemscore.DEClash>
0.5567

> <Gold.Chemscore.DEInternal>
0.5399

> <Gold.Chemscore.Rot>
1.7798

> <Gold.Chemscore.Internal.Correction>
   9.000000E+99

> <Gold.Chemscore.Hbonds>
donor molecule, donor type, donor heavy atom, donor atom, acceptor molecule, acceptor atom, score
      L1  H     5    24       P1  7948  0.30
      L1  H     8    25       P1  7948  0.56
      L1  H    17    38       P1  7921  1.00

> <Gold.Chemscore.Hbond.Weighted>
-7.5488

> <Gold.Chemscore.Metal.Weighted>
-0.0000

> <Gold.Chemscore.Lipo.Weighted>
-9.9869

> <Gold.Chemscore.Internal_Hbond.Weighted>
0.0000

> <Gold.Chemscore.DEClash.Weighted>
0.5567

> <Gold.Chemscore.DEInternal.Weighted>
0.5399

> <Gold.Chemscore.Rot.Weighted>
4.5562

> <Gold.Chemscore.Internal.Correction.Weighted>
   9.000000E+99

> <Gold.Protein.RotatedTorsions>
[ 6907 6896 6895 6894 ] final  -41.74 input  -60.11 | X-H torsion
[ 7974 7965 7964 7962 ] final   26.41 input  175.53 | X-H torsion
[ 8008 7997 7996 7995 ] final -122.65 input   59.86 | X-H torsion
[ 10167 10162 10161 10158 ] final   28.69 input  -65.29 | X-H torsion
[ 10718 10713 10712 10709 ] final  -16.09 input   66.30 | X-H torsion
[ 10763 10752 10751 10750 ] final  127.93 input  -60.55 | X-H torsion
[ 11005 11000 10999 10996 ] final   87.94 input  -57.11 | X-H torsion

> <Gold.Protein.ActiveResidues>
 VAL166  LYS551  ARG553  GLY616  TRP617  ASP618  TYR619  PRO620  LYS621  CYS622 
 ASP623  PHE694  ASN695  SER759  ASP760  ASP761  ALA762  ILE779  LEU786  VAL792 
 PHE793  MET794  SER795  GLU796  ALA797  LYS798  CYS799  TRP800  GLU811  SER814 

> <Gold.Protein.RotatedAtoms>
  150.9632  134.9017  159.7743 H   0  0  0  0  0  0  0  0  0  0  0  0  # atno 6907 bound_to 6896
  152.5164  134.3643  159.9306 H   0  0  0  0  0  0  0  0  0  0  0  0  # atno 6908 bound_to 6896
  151.3655  133.3833  159.2729 H   0  0  0  0  0  0  0  0  0  0  0  0  # atno 6909 bound_to 6896
  146.1839  139.7332  142.8881 H   0  0  0  0  0  0  0  0  0  0  0  0  # atno 7974 bound_to 7965
  155.1677  140.0407  157.2856 H   0  0  0  0  0  0  0  0  0  0  0  0  # atno 8008 bound_to 7997
  154.6291  140.2519  155.7428 H   0  0  0  0  0  0  0  0  0  0  0  0  # atno 8009 bound_to 7997
  156.2475  140.2879  156.0634 H   0  0  0  0  0  0  0  0  0  0  0  0  # atno 8010 bound_to 7997
  140.4831  144.0585  150.6271 H   0  0  0  0  0  0  0  0  0  0  0  0  # atno 10167 bound_to 10162
  156.5926  130.4803  149.6273 H   0  0  0  0  0  0  0  0  0  0  0  0  # atno 10718 bound_to 10713
  153.7173  135.3259  155.3259 H   0  0  0  0  0  0  0  0  0  0  0  0  # atno 10763 bound_to 10752
  154.8366  135.4491  154.1253 H   0  0  0  0  0  0  0  0  0  0  0  0  # atno 10764 bound_to 10752
  153.2363  135.6966  153.7912 H   0  0  0  0  0  0  0  0  0  0  0  0  # atno 10765 bound_to 10752
  139.8908  134.8455  156.2931 H   0  0  0  0  0  0  0  0  0  0  0  0  # atno 11005 bound_to 11000
  145.3997  141.0383  143.3077 LP  0  0  0  0  0  0  0  0  0  0  0  0  # atno 17320 bound_to 7965
  144.8362  139.5546  143.6921 LP  0  0  0  0  0  0  0  0  0  0  0  0  # atno 17321 bound_to 7965
  140.3833  143.2791  152.0145 LP  0  0  0  0  0  0  0  0  0  0  0  0  # atno 17342 bound_to 10162
  139.4837  144.6137  151.7386 LP  0  0  0  0  0  0  0  0  0  0  0  0  # atno 17343 bound_to 10162
  156.2537  130.6922  151.1668 LP  0  0  0  0  0  0  0  0  0  0  0  0  # atno 17370 bound_to 10713
  157.7300  131.0620  150.5748 LP  0  0  0  0  0  0  0  0  0  0  0  0  # atno 17371 bound_to 10713
  140.9963  133.7178  156.0891 LP  0  0  0  0  0  0  0  0  0  0  0  0  # atno 17394 bound_to 11000
  140.7558  134.3994  157.5534 LP  0  0  0  0  0  0  0  0  0  0  0  0  # atno 17395 bound_to 11000

$$$$
