AV-unprocessed.smi:1542|AV-procd|sdf|6203|dock9
  -GOLD-   22720 6373D 1   1.00000     0.00000
 Structure written by MMmdl.
 45 47  0  0  0  0  0  0  0  0  1 V2000
  147.0523  140.3836  152.7065 O   0  0  0  0  0  0  0  0  0  0  0  0
  147.2456  140.2378  154.0969 C   0  0  0  0  0  0  0  0  0  0  0  0
  147.5346  141.6048  154.7306 C   0  0  0  0  0  0  0  0  0  0  0  0
  149.0022  142.0256  154.5678 C   0  0  0  0  0  0  0  0  0  0  0  0
  149.9536  141.0395  155.1788 C   0  0  0  0  0  0  0  0  0  0  0  0
  150.5927  140.1429  154.4269 N   0  0  0  0  0  0  0  0  0  0  0  0
  151.4066  139.5034  155.3394 C   0  0  0  0  0  0  0  0  0  0  0  0
  152.3365  138.4545  155.1597 C   0  0  0  0  0  0  0  0  0  0  0  0
  153.0805  137.9647  156.2528 C   0  0  0  0  0  0  0  0  0  0  0  0
  152.9084  138.5190  157.5373 C   0  0  0  0  0  0  0  0  0  0  0  0
  151.9864  139.5643  157.7376 C   0  0  0  0  0  0  0  0  0  0  0  0
  151.2375  140.0440  156.6454 C   0  0  0  0  0  0  0  0  0  0  0  0
  150.2623  141.0297  156.5025 N   0  0  0  0  0  0  0  0  0  0  0  0
  149.7348  141.8835  157.5650 C   0  0  0  0  0  0  0  0  0  0  0  0
  150.6841  143.0276  158.0184 C   0  0  0  0  0  0  0  0  0  0  0  0
  151.0743  143.7631  156.8733 O   0  0  0  0  0  0  0  0  0  0  0  0
  150.0058  144.0138  159.0018 C   0  0  0  0  0  0  0  0  0  0  0  0
  150.9750  145.0667  159.5691 C   0  0  0  0  0  0  0  0  0  0  0  0
  152.1998  144.4083  160.2180 C   0  0  0  0  0  0  0  0  0  0  0  0
  152.9164  143.4861  159.2227 C   0  0  0  0  0  0  0  0  0  0  0  0
  151.9582  142.4231  158.6549 C   0  0  0  0  0  0  0  0  0  0  0  0
  147.8981  140.4027  152.2853 H   0  0  0  0  0  0  0  0  0  0  0  0
  146.3527  139.7906  154.5347 H   0  0  0  0  0  0  0  0  0  0  0  0
  148.0748  139.5511  154.2698 H   0  0  0  0  0  0  0  0  0  0  0  0
  146.8886  142.3582  154.2775 H   0  0  0  0  0  0  0  0  0  0  0  0
  147.2814  141.5768  155.7912 H   0  0  0  0  0  0  0  0  0  0  0  0
  149.2295  142.1741  153.5145 H   0  0  0  0  0  0  0  0  0  0  0  0
  149.1603  142.9938  155.0447 H   0  0  0  0  0  0  0  0  0  0  0  0
  152.4804  138.0289  154.1777 H   0  0  0  0  0  0  0  0  0  0  0  0
  153.7892  137.1633  156.1040 H   0  0  0  0  0  0  0  0  0  0  0  0
  153.4850  138.1418  158.3691 H   0  0  0  0  0  0  0  0  0  0  0  0
  151.8586  139.9909  158.7207 H   0  0  0  0  0  0  0  0  0  0  0  0
  148.7952  142.3100  157.2120 H   0  0  0  0  0  0  0  0  0  0  0  0
  149.4622  141.2573  158.4149 H   0  0  0  0  0  0  0  0  0  0  0  0
  150.3030  144.1576  156.4956 H   0  0  0  0  0  0  0  0  0  0  0  0
  149.1701  144.5234  158.5213 H   0  0  0  0  0  0  0  0  0  0  0  0
  149.5854  143.4521  159.8361 H   0  0  0  0  0  0  0  0  0  0  0  0
  151.2986  145.7397  158.7742 H   0  0  0  0  0  0  0  0  0  0  0  0
  150.4577  145.6866  160.3019 H   0  0  0  0  0  0  0  0  0  0  0  0
  152.8873  145.1741  160.5783 H   0  0  0  0  0  0  0  0  0  0  0  0
  151.8886  143.8349  161.0921 H   0  0  0  0  0  0  0  0  0  0  0  0
  153.3365  144.0796  158.4101 H   0  0  0  0  0  0  0  0  0  0  0  0
  153.7597  142.9983  159.7121 H   0  0  0  0  0  0  0  0  0  0  0  0
  151.6688  141.7511  159.4641 H   0  0  0  0  0  0  0  0  0  0  0  0
  152.4874  141.8061  157.9272 H   0  0  0  0  0  0  0  0  0  0  0  0
  1  2  1  0  0  0  0
  1 22  1  0  0  0  0
  2  3  1  0  0  0  0
  2 23  1  0  0  0  0
  2 24  1  0  0  0  0
  3  4  1  0  0  0  0
  3 25  1  0  0  0  0
  3 26  1  0  0  0  0
  4  5  1  0  0  0  0
  4 27  1  0  0  0  0
  4 28  1  0  0  0  0
  5 13  1  0  0  0  0
  5  6  2  0  0  0  0
  6  7  1  0  0  0  0
  7 12  2  0  0  0  0
  7  8  1  0  0  0  0
  8  9  2  0  0  0  0
  8 29  1  0  0  0  0
  9 10  1  0  0  0  0
  9 30  1  0  0  0  0
 10 11  2  0  0  0  0
 10 31  1  0  0  0  0
 11 12  1  0  0  0  0
 11 32  1  0  0  0  0
 12 13  1  0  0  0  0
 13 14  1  0  0  0  0
 14 15  1  0  0  0  0
 14 33  1  0  0  0  0
 14 34  1  0  0  0  0
 15 21  1  0  0  0  0
 15 16  1  0  0  0  0
 15 17  1  0  0  0  0
 16 35  1  0  0  0  0
 17 18  1  0  0  0  0
 17 36  1  0  0  0  0
 17 37  1  0  0  0  0
 18 19  1  0  0  0  0
 18 38  1  0  0  0  0
 18 39  1  0  0  0  0
 19 20  1  0  0  0  0
 19 40  1  0  0  0  0
 19 41  1  0  0  0  0
 20 21  1  0  0  0  0
 20 42  1  0  0  0  0
 20 43  1  0  0  0  0
 21 44  1  0  0  0  0
 21 45  1  0  0  0  0
M  END
> <s_m_source_file>
AV-unprocessed.smi

> <i_m_source_file_index>
1542

> <i_lp_mmshare_version>
43012

> <i_f3d_flags>
0

> <s_epik_input>
W09IXVtDSDJdW0NIMl1bQ0gyXWMobjEpbihjKGMxMilbY0hdW2NIXVtjSF1bY0hdMilbQ0gyXUMzKFtPSF0pW0NIMl1bQ0gyXVtDSDJdW0NIMl1bQ0gyXTM=

> <s_epik_cmdline>
J2VwaWtfcHl0aG9uJywgJy1waCcsICc3LjAnLCAnLXRuJywgJzgnLCAnLW1hJywgJzIwMCcsICctbWV0YWxfYmluZGluZycsICctaW1hZScsICc8aW5maWxlLm1hZT4nLCAnLW9tYWUnLCAnPG91dGZpbGUubWFlPic=

> <r_epik_Ionization_Penalty>
0.294093

> <r_epik_Ionization_Penalty_Charging>
0

> <r_epik_Ionization_Penalty_Neutral>
0.294093

> <r_epik_State_Penalty>
0.287281

> <r_epik_Charging_Adjusted_Penalty>
0.287281

> <i_epik_Tot_Q>
0

> <i_epik_Tot_abs_Q>
0

> <r_epik_Metal_State_Penalty>
0.000369578

> <b_epik_Metal_Only>
0

> <s_lp_Force_Field>
OPLS_2005

> <r_lp_Energy>
13.7601

> <b_lp_Chiralities_Consistent>
1

> <s_lp_Variant>
AV-unprocessed.smi:1542-1

> <Gold.Version>
5.8.1

> <Gold.Id.Protein>
6NUR|6NUR_protein|mol2

> <Gold.PLP.Fitness>
51.1993

> <Gold.PLP.PLP>
-43.2127

> <Gold.PLP.part.hbond>
-2.9824

> <Gold.PLP.part.metal>
0.0000

> <Gold.PLP.part.buried>
-1.4036

> <Gold.PLP.part.nonpolar>
-39.1295

> <Gold.PLP.part.repulsive>
0.1070

> <Gold.PLP.ligand.clash>
0.0000

> <Gold.PLP.ligand.torsion>
0.6522

> <Gold.PLP.Chemscore.Hbond>
3.0000

> <Gold.PLP.Chemscore.CHOScore>
0.0000

> <Gold.PLP.Chemscore.Metal>
0.0000

> <Gold.Chemscore.Hbonds>
donor molecule, donor type, donor heavy atom, donor atom, acceptor molecule, acceptor atom, score
      L1  H     1    22       P1  7957  0.93
      L1  H    16    35       P1  8028  1.00
      P1  H  7989  7998       L1     6  1.00

> <Gold.PLP.Chemscore.Internal.Correction>
0.2910

> <Gold.Rescore>
     Score         DG    S(hbond)    S(metal)    S(lipo)     H(rot)  DE(clash)    DE(int)     intcor
     18.34     -19.31       2.32        0.00     112.16       2.74       0.27       0.70       ----

> <Gold.Chemscore.Fitness>
18.3386

> <Gold.Chemscore.DG>
-19.3133

> <Gold.Chemscore.ZeroCoef>
-5.4800

> <Gold.Chemscore.Hbond>
2.3166

> <Gold.Chemscore.Metal>
0.0000

> <Gold.Chemscore.Lipo>
112.1618

> <Gold.Chemscore.Internal_Hbond>
0.0000

> <Gold.Chemscore.DEClash>
0.2743

> <Gold.Chemscore.DEInternal>
0.7004

> <Gold.Chemscore.Rot>
2.7449

> <Gold.Chemscore.Internal.Correction>
   9.000000E+99

> <Gold.Chemscore.Hbonds>
donor molecule, donor type, donor heavy atom, donor atom, acceptor molecule, acceptor atom, score
      L1  H     1    22       P1  7957  0.89
      L1  H    16    35       P1  8028  1.00
      P1  H  7989  7998       L1     6  0.28

> <Gold.Chemscore.Hbond.Weighted>
-7.7374

> <Gold.Chemscore.Metal.Weighted>
-0.0000

> <Gold.Chemscore.Lipo.Weighted>
-13.1229

> <Gold.Chemscore.Internal_Hbond.Weighted>
0.0000

> <Gold.Chemscore.DEClash.Weighted>
0.2743

> <Gold.Chemscore.DEInternal.Weighted>
0.7004

> <Gold.Chemscore.Rot.Weighted>
7.0269

> <Gold.Chemscore.Internal.Correction.Weighted>
   9.000000E+99

> <Gold.Protein.RotatedTorsions>
[ 6907 6896 6895 6894 ] final   -4.67 input  -60.11 | X-H torsion
[ 7974 7965 7964 7962 ] final  177.61 input  175.53 | X-H torsion
[ 8008 7997 7996 7995 ] final   -1.27 input   59.86 | X-H torsion
[ 10167 10162 10161 10158 ] final   37.13 input  -65.29 | X-H torsion
[ 10718 10713 10712 10709 ] final  -41.62 input   66.30 | X-H torsion
[ 10763 10752 10751 10750 ] final   -1.10 input  -60.55 | X-H torsion
[ 11005 11000 10999 10996 ] final  149.18 input  -57.11 | X-H torsion

> <Gold.Protein.ActiveResidues>
 VAL166  LYS551  ARG553  GLY616  TRP617  ASP618  TYR619  PRO620  LYS621  CYS622 
 ASP623  PHE694  ASN695  SER759  ASP760  ASP761  ALA762  ILE779  LEU786  VAL792 
 PHE793  MET794  SER795  GLU796  ALA797  LYS798  CYS799  TRP800  GLU811  SER814 

> <Gold.Protein.RotatedAtoms>
  151.4940  135.1059  159.9810 H   0  0  0  0  0  0  0  0  0  0  0  0  # atno 6907 bound_to 6896
  152.4729  133.8067  159.6992 H   0  0  0  0  0  0  0  0  0  0  0  0  # atno 6908 bound_to 6896
  150.8749  133.7390  159.2976 H   0  0  0  0  0  0  0  0  0  0  0  0  # atno 6909 bound_to 6896
  144.7167  140.0273  143.6439 H   0  0  0  0  0  0  0  0  0  0  0  0  # atno 7974 bound_to 7965
  154.6487  140.2563  155.7239 H   0  0  0  0  0  0  0  0  0  0  0  0  # atno 8008 bound_to 7997
  156.2564  140.2872  156.0832 H   0  0  0  0  0  0  0  0  0  0  0  0  # atno 8009 bound_to 7997
  155.1485  140.0381  157.2805 H   0  0  0  0  0  0  0  0  0  0  0  0  # atno 8010 bound_to 7997
  140.4062  144.1656  150.6136 H   0  0  0  0  0  0  0  0  0  0  0  0  # atno 10167 bound_to 10162
  156.2684  130.4204  149.8465 H   0  0  0  0  0  0  0  0  0  0  0  0  # atno 10718 bound_to 10713
  153.3404  135.6980  153.6872 H   0  0  0  0  0  0  0  0  0  0  0  0  # atno 10763 bound_to 10752
  153.5638  135.3529  155.2811 H   0  0  0  0  0  0  0  0  0  0  0  0  # atno 10764 bound_to 10752
  154.8635  135.4256  154.2616 H   0  0  0  0  0  0  0  0  0  0  0  0  # atno 10765 bound_to 10752
  140.1023  134.8976  157.1814 H   0  0  0  0  0  0  0  0  0  0  0  0  # atno 11005 bound_to 11000
  146.0131  139.3187  143.0858 LP  0  0  0  0  0  0  0  0  0  0  0  0  # atno 17320 bound_to 7965
  145.8657  140.9449  143.0676 LP  0  0  0  0  0  0  0  0  0  0  0  0  # atno 17321 bound_to 7965
  140.4687  143.2421  151.9119 LP  0  0  0  0  0  0  0  0  0  0  0  0  # atno 17342 bound_to 10162
  139.4783  144.5392  151.8553 LP  0  0  0  0  0  0  0  0  0  0  0  0  # atno 17343 bound_to 10162
  156.5955  130.8524  151.3419 LP  0  0  0  0  0  0  0  0  0  0  0  0  # atno 17370 bound_to 10713
  157.7275  130.9644  150.1702 LP  0  0  0  0  0  0  0  0  0  0  0  0  # atno 17371 bound_to 10713
  140.3203  134.2923  155.7247 LP  0  0  0  0  0  0  0  0  0  0  0  0  # atno 17394 bound_to 11000
  141.2109  133.7706  156.9902 LP  0  0  0  0  0  0  0  0  0  0  0  0  # atno 17395 bound_to 11000

$$$$
