AV-unprocessed.smi:2684|AV-procd|sdf|10379|dock4
  -GOLD-   2272014413D 1   1.00000     0.00000
 Structure written by MMmdl.
 45 46  0  0  0  0  0  0  0  0  2 V2000
  151.1260  142.7725  157.8686 C   0  0  0  0  0  0  0  0  0  0  0  0
  150.9424  141.5350  157.0387 C   0  0  0  0  0  0  0  0  0  0  0  0
  151.3923  140.2149  157.3260 C   0  0  0  0  0  0  0  0  0  0  0  0
  151.0729  139.3461  156.3803 N   0  0  0  0  0  0  0  0  0  0  0  0
  150.4148  140.0786  155.4572 N   0  0  0  0  0  0  0  0  0  0  0  0
  149.9249  139.4445  154.2464 C   0  0  0  0  0  0  0  0  0  0  0  0
  148.3957  139.5762  154.0594 C   0  0  1  0  0  0  0  0  0  0  0  0
  147.9947  141.0526  153.9403 C   0  0  0  0  0  0  0  0  0  0  0  0
  147.9311  138.8458  152.8571 N   0  3  0  0  0  0  0  0  0  0  0  0
  146.4887  138.5199  152.8369 C   0  0  0  0  0  0  0  0  0  0  0  0
  146.1695  137.4138  151.8228 C   0  0  0  0  0  0  0  0  0  0  0  0
  146.4969  137.5638  150.6472 O   0  0  0  0  0  0  0  0  0  0  0  0
  145.5178  136.3048  152.2170 N   0  0  0  0  0  0  0  0  0  0  0  0
  145.1231  135.1475  151.4144 C   0  0  0  0  0  0  0  0  0  0  0  0
  143.8356  134.5377  151.9889 C   0  0  0  0  0  0  0  0  0  0  0  0
  143.4618  133.2484  151.2393 C   0  0  0  0  0  0  0  0  0  0  0  0
  144.5406  132.3220  151.2985 O   0  0  0  0  0  0  0  0  0  0  0  0
  145.7223  132.8059  150.6701 C   0  0  0  0  0  0  0  0  0  0  0  0
  146.2217  134.0688  151.3901 C   0  0  0  0  0  0  0  0  0  0  0  0
  150.3118  141.4010  155.8345 C   0  0  0  0  0  0  0  0  0  0  0  0
  151.1602  142.5431  158.9337 H   0  0  0  0  0  0  0  0  0  0  0  0
  150.3134  143.4839  157.7202 H   0  0  0  0  0  0  0  0  0  0  0  0
  152.0531  143.2882  157.6200 H   0  0  0  0  0  0  0  0  0  0  0  0
  151.9419  139.8655  158.1878 H   0  0  0  0  0  0  0  0  0  0  0  0
  150.4456  139.8954  153.4001 H   0  0  0  0  0  0  0  0  0  0  0  0
  150.2166  138.3933  154.2625 H   0  0  0  0  0  0  0  0  0  0  0  0
  147.8865  139.1756  154.9375 H   0  0  0  0  0  0  0  0  0  0  0  0
  148.2924  141.6130  154.8273 H   0  0  0  0  0  0  0  0  0  0  0  0
  146.9148  141.1595  153.8329 H   0  0  0  0  0  0  0  0  0  0  0  0
  148.4640  141.5250  153.0765 H   0  0  0  0  0  0  0  0  0  0  0  0
  148.1151  139.4194  152.0462 H   0  0  0  0  0  0  0  0  0  0  0  0
  146.1709  138.2384  153.8353 H   0  0  0  0  0  0  0  0  0  0  0  0
  145.9274  139.4149  152.5670 H   0  0  0  0  0  0  0  0  0  0  0  0
  145.2450  136.2696  153.1892 H   0  0  0  0  0  0  0  0  0  0  0  0
  144.9011  135.4674  150.3963 H   0  0  0  0  0  0  0  0  0  0  0  0
  143.9716  134.3087  153.0470 H   0  0  0  0  0  0  0  0  0  0  0  0
  143.0162  135.2549  151.9266 H   0  0  0  0  0  0  0  0  0  0  0  0
  142.5814  132.7931  151.6933 H   0  0  0  0  0  0  0  0  0  0  0  0
  143.2093  133.4599  150.1994 H   0  0  0  0  0  0  0  0  0  0  0  0
  146.4846  132.0276  150.7073 H   0  0  0  0  0  0  0  0  0  0  0  0
  145.5287  133.0117  149.6159 H   0  0  0  0  0  0  0  0  0  0  0  0
  147.1209  134.4366  150.8965 H   0  0  0  0  0  0  0  0  0  0  0  0
  146.5103  133.8106  152.4100 H   0  0  0  0  0  0  0  0  0  0  0  0
  149.8130  142.1334  155.2170 H   0  0  0  0  0  0  0  0  0  0  0  0
  148.4659  137.9938  152.7692 H   0  0  0  0  0  0  0  0  0  0  0  0
  1  2  1  0  0  0  0
  1 21  1  0  0  0  0
  1 22  1  0  0  0  0
  1 23  1  0  0  0  0
  2 20  2  0  0  0  0
  2  3  1  0  0  0  0
  3  4  2  0  0  0  0
  3 24  1  0  0  0  0
  4  5  1  0  0  0  0
  5  6  1  0  0  0  0
  5 20  1  0  0  0  0
  6  7  1  0  0  0  0
  6 25  1  0  0  0  0
  6 26  1  0  0  0  0
  7  8  1  0  0  0  0
  7  9  1  0  0  0  0
  7 27  1  0  0  0  0
  8 28  1  0  0  0  0
  8 29  1  0  0  0  0
  8 30  1  0  0  0  0
  9 10  1  0  0  0  0
  9 31  1  0  0  0  0
  9 45  1  0  0  0  0
 10 11  1  0  0  0  0
 10 32  1  0  0  0  0
 10 33  1  0  0  0  0
 11 12  2  0  0  0  0
 11 13  1  0  0  0  0
 13 14  1  0  0  0  0
 13 34  1  0  0  0  0
 14 19  1  0  0  0  0
 14 15  1  0  0  0  0
 14 35  1  0  0  0  0
 15 16  1  0  0  0  0
 15 36  1  0  0  0  0
 15 37  1  0  0  0  0
 16 17  1  0  0  0  0
 16 38  1  0  0  0  0
 16 39  1  0  0  0  0
 17 18  1  0  0  0  0
 18 19  1  0  0  0  0
 18 40  1  0  0  0  0
 18 41  1  0  0  0  0
 19 42  1  0  0  0  0
 19 43  1  0  0  0  0
 20 44  1  0  0  0  0
M  CHG  1   9   1
M  END
> <s_m_source_file>
AV-unprocessed.smi

> <i_m_source_file_index>
2684

> <i_lp_mmshare_version>
43012

> <i_f3d_flags>
0

> <s_epik_input>
W0NIM11jMVtjSF1ubihbY0hdMSlbQ0gyXVtDQEhdKFtDSDNdKVtOSF1bQ0gyXUMoPU8pW05IXVtDSF0yW0NIMl1bQ0gyXU9bQ0gyXVtDSDJdMg==

> <s_epik_cmdline>
J2VwaWtfcHl0aG9uJywgJy1waCcsICc3LjAnLCAnLXRuJywgJzgnLCAnLW1hJywgJzIwMCcsICctbWV0YWxfYmluZGluZycsICctaW1hZScsICc8aW5maWxlLm1hZT4nLCAnLW9tYWUnLCAnPG91dGZpbGUubWFlPic=

> <r_lp_tautomer_probability>
1

> <r_epik_Ionization_Penalty>
0.128576

> <r_epik_Ionization_Penalty_Charging>
0.128567

> <r_epik_Ionization_Penalty_Neutral>
8.60003e-06

> <r_epik_State_Penalty>
0.117991

> <r_epik_Charging_Adjusted_Penalty>
0.246558

> <i_epik_Tot_Q>
1

> <i_epik_Tot_abs_Q>
1

> <r_epik_Metal_State_Penalty>
0.118015

> <b_epik_Metal_Only>
0

> <s_lp_Force_Field>
OPLS_2005

> <r_lp_Energy>
10.4868

> <b_lp_Chiralities_Consistent>
1

> <s_lp_Variant>
AV-unprocessed.smi:2684-2

> <Gold.Version>
5.8.1

> <Gold.Id.Protein>
6NUR|6NUR_protein|mol2

> <Gold.PLP.Fitness>
48.1952

> <Gold.PLP.PLP>
-36.5522

> <Gold.PLP.part.hbond>
-3.0000

> <Gold.PLP.part.metal>
0.0000

> <Gold.PLP.part.buried>
-1.4139

> <Gold.PLP.part.nonpolar>
-34.5918

> <Gold.PLP.part.repulsive>
2.6453

> <Gold.PLP.ligand.clash>
0.0000

> <Gold.PLP.ligand.torsion>
0.6459

> <Gold.PLP.Chemscore.Hbond>
3.6865

> <Gold.PLP.Chemscore.CHOScore>
0.6008

> <Gold.PLP.Chemscore.Metal>
0.0000

> <Gold.Chemscore.Hbonds>
donor molecule, donor type, donor heavy atom, donor atom, acceptor molecule, acceptor atom, score
      L1  H     9    31       P1  7957  0.75
      L1  H     9    45       P1  7948  2.00
      P1  H  7954  7966       L1    12  1.00
      L1  C    20    44       P1  8028  0.38

> <Gold.PLP.Chemscore.Internal.Correction>
0.0728

> <Gold.Rescore>
     Score         DG    S(hbond)    S(metal)    S(lipo)     H(rot)  DE(clash)    DE(int)     intcor
     16.23     -18.67       2.50        0.00      86.18       2.04       1.70       0.73       ----

> <Gold.Chemscore.Fitness>
16.2301

> <Gold.Chemscore.DG>
-18.6670

> <Gold.Chemscore.ZeroCoef>
-5.4800

> <Gold.Chemscore.Hbond>
2.4958

> <Gold.Chemscore.Metal>
0.0000

> <Gold.Chemscore.Lipo>
86.1778

> <Gold.Chemscore.Internal_Hbond>
0.0000

> <Gold.Chemscore.DEClash>
1.7039

> <Gold.Chemscore.DEInternal>
0.7330

> <Gold.Chemscore.Rot>
2.0437

> <Gold.Chemscore.Internal.Correction>
   9.000000E+99

> <Gold.Chemscore.Hbonds>
donor molecule, donor type, donor heavy atom, donor atom, acceptor molecule, acceptor atom, score
      L1  H     9    31       P1  7957  0.76
      L1  H     9    45       P1  7948  0.92
      P1  H  7954  7966       L1    12  0.95

> <Gold.Chemscore.Hbond.Weighted>
-8.3360

> <Gold.Chemscore.Metal.Weighted>
-0.0000

> <Gold.Chemscore.Lipo.Weighted>
-10.0828

> <Gold.Chemscore.Internal_Hbond.Weighted>
0.0000

> <Gold.Chemscore.DEClash.Weighted>
1.7039

> <Gold.Chemscore.DEInternal.Weighted>
0.7330

> <Gold.Chemscore.Rot.Weighted>
5.2318

> <Gold.Chemscore.Internal.Correction.Weighted>
   9.000000E+99

> <Gold.Protein.RotatedTorsions>
[ 6907 6896 6895 6894 ] final  -11.13 input  -60.11 | X-H torsion
[ 7974 7965 7964 7962 ] final -133.29 input  175.53 | X-H torsion
[ 8008 7997 7996 7995 ] final -103.27 input   59.86 | X-H torsion
[ 10167 10162 10161 10158 ] final  106.22 input  -65.29 | X-H torsion
[ 10718 10713 10712 10709 ] final  -14.15 input   66.30 | X-H torsion
[ 10763 10752 10751 10750 ] final  -31.44 input  -60.55 | X-H torsion
[ 11005 11000 10999 10996 ] final  160.31 input  -57.11 | X-H torsion

> <Gold.Protein.ActiveResidues>
 VAL166  LYS551  ARG553  GLY616  TRP617  ASP618  TYR619  PRO620  LYS621  CYS622 
 ASP623  PHE694  ASN695  SER759  ASP760  ASP761  ALA762  ILE779  LEU786  VAL792 
 PHE793  MET794  SER795  GLU796  ALA797  LYS798  CYS799  TRP800  GLU811  SER814 

> <Gold.Protein.RotatedAtoms>
  151.3910  135.0956  159.9525 H   0  0  0  0  0  0  0  0  0  0  0  0  # atno 6907 bound_to 6896
  152.5080  133.8980  159.7437 H   0  0  0  0  0  0  0  0  0  0  0  0  # atno 6908 bound_to 6896
  150.9433  133.6575  159.2815 H   0  0  0  0  0  0  0  0  0  0  0  0  # atno 6909 bound_to 6896
  144.9207  140.7010  143.4967 H   0  0  0  0  0  0  0  0  0  0  0  0  # atno 7974 bound_to 7965
  154.8685  140.0424  157.1709 H   0  0  0  0  0  0  0  0  0  0  0  0  # atno 8008 bound_to 7997
  154.8764  140.2966  155.5430 H   0  0  0  0  0  0  0  0  0  0  0  0  # atno 8009 bound_to 7997
  156.2999  140.2419  156.3761 H   0  0  0  0  0  0  0  0  0  0  0  0  # atno 8010 bound_to 7997
  139.7027  144.7091  151.1158 H   0  0  0  0  0  0  0  0  0  0  0  0  # atno 10167 bound_to 10162
  156.6201  130.4873  149.6168 H   0  0  0  0  0  0  0  0  0  0  0  0  # atno 10718 bound_to 10713
  153.7975  135.6893  153.4861 H   0  0  0  0  0  0  0  0  0  0  0  0  # atno 10763 bound_to 10752
  153.1710  135.4543  154.9900 H   0  0  0  0  0  0  0  0  0  0  0  0  # atno 10764 bound_to 10752
  154.8020  135.3341  154.7466 H   0  0  0  0  0  0  0  0  0  0  0  0  # atno 10765 bound_to 10752
  140.2047  134.8312  157.3056 H   0  0  0  0  0  0  0  0  0  0  0  0  # atno 11005 bound_to 11000
  145.3302  139.1762  143.4541 LP  0  0  0  0  0  0  0  0  0  0  0  0  # atno 17320 bound_to 7965
  146.3203  140.3330  142.8642 LP  0  0  0  0  0  0  0  0  0  0  0  0  # atno 17321 bound_to 7965
  140.7714  143.5401  150.9322 LP  0  0  0  0  0  0  0  0  0  0  0  0  # atno 17342 bound_to 10162
  139.9084  143.6750  152.3119 LP  0  0  0  0  0  0  0  0  0  0  0  0  # atno 17343 bound_to 10162
  156.2318  130.6799  151.1471 LP  0  0  0  0  0  0  0  0  0  0  0  0  # atno 17370 bound_to 10713
  157.7230  131.0669  150.6055 LP  0  0  0  0  0  0  0  0  0  0  0  0  # atno 17371 bound_to 10713
  140.2016  134.4248  155.7660 LP  0  0  0  0  0  0  0  0  0  0  0  0  # atno 17394 bound_to 11000
  141.2227  133.7074  156.8192 LP  0  0  0  0  0  0  0  0  0  0  0  0  # atno 17395 bound_to 11000

$$$$
