AV-unprocessed.smi:2212|AV-procd|sdf|8954|dock1
  -GOLD-   2272012173D 1   1.00000     0.00000
 Structure written by MMmdl.
 31 32  0  0  0  0  0  0  0  0  1 V2000
  150.2361  144.5263  160.2298 C   0  0  0  0  0  0  0  0  0  0  0  0
  150.2656  143.4055  159.3559 O   0  0  0  0  0  0  0  0  0  0  0  0
  151.4093  143.3032  158.5068 C   0  0  0  0  0  0  0  0  0  0  0  0
  151.3640  142.0439  157.6302 C   0  0  0  0  0  0  0  0  0  0  0  0
  150.3472  142.1720  156.5945 N   0  0  0  0  0  0  0  0  0  0  0  0
  150.2655  141.4049  155.4991 C   0  0  0  0  0  0  0  0  0  0  0  0
  151.0902  140.5144  155.2697 O   0  0  0  0  0  0  0  0  0  0  0  0
  149.1839  141.7923  154.7223 N   0  0  0  0  0  0  0  0  0  0  0  0
  148.5233  140.8984  154.0523 C   0  0  0  0  0  0  0  0  0  0  0  0
  148.6780  139.5230  153.8989 N   0  0  0  0  0  0  0  0  0  0  0  0
  147.6942  139.0746  153.0625 C   0  0  0  0  0  0  0  0  0  0  0  0
  146.9526  140.1179  152.7025 C   0  0  0  0  0  0  0  0  0  0  0  0
  147.4362  141.2475  153.2916 O   0  0  0  0  0  0  0  0  0  0  0  0
  151.5988  144.6588  157.8002 C   0  0  0  0  0  0  0  0  0  0  0  0
  153.0880  144.5856  158.1423 C   0  0  0  0  0  0  0  0  0  0  0  0
  152.7079  143.6272  159.2722 C   0  0  0  0  0  0  0  0  0  0  0  0
  149.2779  144.5493  160.7485 H   0  0  0  0  0  0  0  0  0  0  0  0
  150.3430  145.4673  159.6898 H   0  0  0  0  0  0  0  0  0  0  0  0
  151.0141  144.4671  160.9905 H   0  0  0  0  0  0  0  0  0  0  0  0
  152.3347  141.8825  157.1585 H   0  0  0  0  0  0  0  0  0  0  0  0
  151.1670  141.1516  158.2247 H   0  0  0  0  0  0  0  0  0  0  0  0
  149.6498  142.8908  156.7265 H   0  0  0  0  0  0  0  0  0  0  0  0
  149.3776  138.9231  154.3120 H   0  0  0  0  0  0  0  0  0  0  0  0
  147.6282  138.0273  152.8073 H   0  0  0  0  0  0  0  0  0  0  0  0
  146.0871  140.2172  152.0642 H   0  0  0  0  0  0  0  0  0  0  0  0
  151.3810  144.6558  156.7318 H   0  0  0  0  0  0  0  0  0  0  0  0
  151.0942  145.4834  158.3072 H   0  0  0  0  0  0  0  0  0  0  0  0
  153.6806  144.1077  157.3605 H   0  0  0  0  0  0  0  0  0  0  0  0
  153.5293  145.5273  158.4694 H   0  0  0  0  0  0  0  0  0  0  0  0
  152.5364  144.1473  160.2165 H   0  0  0  0  0  0  0  0  0  0  0  0
  153.3881  142.7843  159.3975 H   0  0  0  0  0  0  0  0  0  0  0  0
  1  2  1  0  0  0  0
  1 17  1  0  0  0  0
  1 18  1  0  0  0  0
  1 19  1  0  0  0  0
  2  3  1  0  0  0  0
  3 16  1  0  0  0  0
  3  4  1  0  0  0  0
  3 14  1  0  0  0  0
  4  5  1  0  0  0  0
  4 20  1  0  0  0  0
  4 21  1  0  0  0  0
  5 22  1  0  0  0  0
  5  6  1  0  0  0  0
  6  8  1  0  0  0  0
  6  7  2  0  0  0  0
  8  9  2  0  0  0  0
  9 13  1  0  0  0  0
  9 10  1  0  0  0  0
 10 23  1  0  0  0  0
 10 11  1  0  0  0  0
 11 24  1  0  0  0  0
 11 12  2  0  0  0  0
 12 25  1  0  0  0  0
 12 13  1  0  0  0  0
 14 15  1  0  0  0  0
 14 26  1  0  0  0  0
 14 27  1  0  0  0  0
 15 16  1  0  0  0  0
 15 28  1  0  0  0  0
 15 29  1  0  0  0  0
 16 30  1  0  0  0  0
 16 31  1  0  0  0  0
M  END
> <s_m_source_file>
AV-unprocessed.smi

> <i_m_source_file_index>
2212

> <i_lp_mmshare_version>
43012

> <i_f3d_flags>
0

> <s_epik_input>
W0NIMl0xW0NIMl1bQ0gyXUMxKE9bQ0gzXSlbQ0gyXVtOSF1DKD1PKVtOSF1jMm5bY0hdW2NIXW8y

> <s_epik_cmdline>
J2VwaWtfcHl0aG9uJywgJy1waCcsICc3LjAnLCAnLXRuJywgJzgnLCAnLW1hJywgJzIwMCcsICctbWV0YWxfYmluZGluZycsICctaW1hZScsICc8aW5maWxlLm1hZT4nLCAnLW9tYWUnLCAnPG91dGZpbGUubWFlPic=

> <r_lp_tautomer_probability>
0.107061

> <r_epik_Ionization_Penalty>
1.29244

> <r_epik_Ionization_Penalty_Charging>
1.29208

> <r_epik_Ionization_Penalty_Neutral>
0.000357989

> <r_epik_State_Penalty>
2.59896

> <r_epik_Charging_Adjusted_Penalty>
3.89105

> <i_epik_Tot_Q>
0

> <i_epik_Tot_abs_Q>
0

> <r_epik_Metal_State_Penalty>
3.62496

> <b_epik_Metal_Only>
0

> <s_lp_Force_Field>
OPLS_2005

> <r_lp_Energy>
41.2438

> <b_lp_Chiralities_Consistent>
1

> <s_lp_Variant>
AV-unprocessed.smi:2212-4

> <Gold.Version>
5.8.1

> <Gold.Id.Protein>
6NUR|6NUR_protein|mol2

> <Gold.PLP.Fitness>
40.5938

> <Gold.PLP.PLP>
-30.9932

> <Gold.PLP.part.hbond>
-3.2333

> <Gold.PLP.part.metal>
0.0000

> <Gold.PLP.part.buried>
-2.2555

> <Gold.PLP.part.nonpolar>
-25.7309

> <Gold.PLP.part.repulsive>
0.8043

> <Gold.PLP.ligand.clash>
0.0000

> <Gold.PLP.ligand.torsion>
0.6098

> <Gold.PLP.Chemscore.Hbond>
1.5120

> <Gold.PLP.Chemscore.CHOScore>
2.0000

> <Gold.PLP.Chemscore.Metal>
0.0000

> <Gold.Chemscore.Hbonds>
donor molecule, donor type, donor heavy atom, donor atom, acceptor molecule, acceptor atom, score
      L1  H     5    22       P1  8028  0.36
      P1  H  7989  7998       L1     7  0.94
      L1  C    11    24       P1  7948  1.00
      L1  C    12    25       P1 10175  1.00

> <Gold.PLP.Chemscore.Internal.Correction>
0.2841

> <Gold.Rescore>
     Score         DG    S(hbond)    S(metal)    S(lipo)     H(rot)  DE(clash)    DE(int)     intcor
     12.10     -12.89       0.60        0.00      82.23       1.64       0.09       0.71       ----

> <Gold.Chemscore.Fitness>
12.0972

> <Gold.Chemscore.DG>
-12.8945

> <Gold.Chemscore.ZeroCoef>
-5.4800

> <Gold.Chemscore.Hbond>
0.5971

> <Gold.Chemscore.Metal>
0.0000

> <Gold.Chemscore.Lipo>
82.2326

> <Gold.Chemscore.Internal_Hbond>
0.0000

> <Gold.Chemscore.DEClash>
0.0884

> <Gold.Chemscore.DEInternal>
0.7089

> <Gold.Chemscore.Rot>
1.6411

> <Gold.Chemscore.Internal.Correction>
   9.000000E+99

> <Gold.Chemscore.Hbonds>
donor molecule, donor type, donor heavy atom, donor atom, acceptor molecule, acceptor atom, score
      L1  H     5    22       P1  8028  0.35
      P1  H  7989  7998       L1     7  0.36

> <Gold.Chemscore.Hbond.Weighted>
-1.9944

> <Gold.Chemscore.Metal.Weighted>
-0.0000

> <Gold.Chemscore.Lipo.Weighted>
-9.6212

> <Gold.Chemscore.Internal_Hbond.Weighted>
0.0000

> <Gold.Chemscore.DEClash.Weighted>
0.0884

> <Gold.Chemscore.DEInternal.Weighted>
0.7089

> <Gold.Chemscore.Rot.Weighted>
4.2011

> <Gold.Chemscore.Internal.Correction.Weighted>
   9.000000E+99

> <Gold.Protein.RotatedTorsions>
[ 6907 6896 6895 6894 ] final  -91.60 input  -60.11 | X-H torsion
[ 7974 7965 7964 7962 ] final -128.72 input  175.53 | X-H torsion
[ 8008 7997 7996 7995 ] final   62.97 input   59.86 | X-H torsion
[ 10167 10162 10161 10158 ] final  144.58 input  -65.29 | X-H torsion
[ 10718 10713 10712 10709 ] final -103.11 input   66.30 | X-H torsion
[ 10763 10752 10751 10750 ] final -140.30 input  -60.55 | X-H torsion
[ 11005 11000 10999 10996 ] final   32.62 input  -57.11 | X-H torsion

> <Gold.Protein.ActiveResidues>
 VAL166  LYS551  ARG553  GLY616  TRP617  ASP618  TYR619  PRO620  LYS621  CYS622 
 ASP623  PHE694  ASN695  SER759  ASP760  ASP761  ALA762  ILE779  LEU786  VAL792 
 PHE793  MET794  SER795  GLU796  ALA797  LYS798  CYS799  TRP800  GLU811  SER814 

> <Gold.Protein.RotatedAtoms>
  150.6895  134.2251  159.4412 H   0  0  0  0  0  0  0  0  0  0  0  0  # atno 6907 bound_to 6896
  152.0205  134.9823  160.0580 H   0  0  0  0  0  0  0  0  0  0  0  0  # atno 6908 bound_to 6896
  152.1401  133.4424  159.4800 H   0  0  0  0  0  0  0  0  0  0  0  0  # atno 6909 bound_to 6896
  144.9642  140.7479  143.4710 H   0  0  0  0  0  0  0  0  0  0  0  0  # atno 7974 bound_to 7965
  155.6227  140.3496  155.4657 H   0  0  0  0  0  0  0  0  0  0  0  0  # atno 8008 bound_to 7997
  156.0066  140.1224  157.0519 H   0  0  0  0  0  0  0  0  0  0  0  0  # atno 8009 bound_to 7997
  154.4266  140.1090  156.5757 H   0  0  0  0  0  0  0  0  0  0  0  0  # atno 8010 bound_to 7997
  139.4944  144.5962  151.6577 H   0  0  0  0  0  0  0  0  0  0  0  0  # atno 10167 bound_to 10162
  156.0253  130.5452  150.7205 H   0  0  0  0  0  0  0  0  0  0  0  0  # atno 10718 bound_to 10713
  154.8583  135.3557  154.5686 H   0  0  0  0  0  0  0  0  0  0  0  0  # atno 10763 bound_to 10752
  153.6299  135.7002  153.5284 H   0  0  0  0  0  0  0  0  0  0  0  0  # atno 10764 bound_to 10752
  153.3058  135.4193  155.1252 H   0  0  0  0  0  0  0  0  0  0  0  0  # atno 10765 bound_to 10752
  140.2716  134.3076  155.7826 H   0  0  0  0  0  0  0  0  0  0  0  0  # atno 11005 bound_to 11000
  145.2654  139.1975  143.4869 LP  0  0  0  0  0  0  0  0  0  0  0  0  # atno 17320 bound_to 7965
  146.3362  140.2592  142.8601 LP  0  0  0  0  0  0  0  0  0  0  0  0  # atno 17321 bound_to 7965
  140.5601  144.0283  150.6165 LP  0  0  0  0  0  0  0  0  0  0  0  0  # atno 17342 bound_to 10162
  140.3366  143.3045  152.0632 LP  0  0  0  0  0  0  0  0  0  0  0  0  # atno 17343 bound_to 10162
  157.4822  131.0903  151.0523 LP  0  0  0  0  0  0  0  0  0  0  0  0  # atno 17370 bound_to 10713
  157.0953  130.5959  149.5448 LP  0  0  0  0  0  0  0  0  0  0  0  0  # atno 17371 bound_to 10713
  141.2176  133.7470  156.9343 LP  0  0  0  0  0  0  0  0  0  0  0  0  # atno 17394 bound_to 11000
  140.1368  134.9320  157.2412 LP  0  0  0  0  0  0  0  0  0  0  0  0  # atno 17395 bound_to 11000

$$$$
