AV-unprocessed.smi:234|AV-procd|sdf|1799|dock2
  -GOLD-   2262020363D 1   1.00000     0.00000
 Structure written by MMmdl.
 59 62  0  0  0  0  0  0  0  0  1 V2000
  141.4790  129.8029  160.6352 C   0  0  0  0  0  0  0  0  0  0  0  0
  142.8246  130.0806  161.3188 C   0  0  0  0  0  0  0  0  0  0  0  0
  143.3755  131.3279  160.9185 O   0  0  0  0  0  0  0  0  0  0  0  0
  144.4237  131.8139  161.7471 C   0  0  2  0  0  0  0  0  0  0  0  0
  144.9153  133.1834  161.2842 C   0  0  0  0  0  0  0  0  0  0  0  0
  146.3120  132.7074  161.7058 C   0  0  2  0  0  0  0  0  0  0  0  0
  147.3946  133.1684  160.8314 N   0  0  0  0  0  0  0  0  0  0  0  0
  148.6777  132.4791  160.9017 C   0  0  0  0  0  0  0  0  0  0  0  0
  147.5561  134.5038  160.6658 C   0  0  0  0  0  0  0  0  0  0  0  0
  146.8129  135.3152  161.4604 N   0  0  0  0  0  0  0  0  0  0  0  0
  146.9138  136.6425  161.3481 C   0  0  0  0  0  0  0  0  0  0  0  0
  147.6787  137.3537  160.5182 N   0  0  0  0  0  0  0  0  0  0  0  0
  148.4209  136.5442  159.7091 C   0  0  0  0  0  0  0  0  0  0  0  0
  148.4159  135.1202  159.7095 C   0  0  0  0  0  0  0  0  0  0  0  0
  149.2759  134.6501  158.7242 N   0  0  0  0  0  0  0  0  0  0  0  0
  149.7725  135.7304  158.1876 C   0  0  0  0  0  0  0  0  0  0  0  0
  149.3250  136.9154  158.7271 N   0  0  0  0  0  0  0  0  0  0  0  0
  149.6986  138.2686  158.3326 C   0  0  0  0  0  0  0  0  0  0  0  0
  149.9342  138.4465  156.8080 C   0  0  2  0  0  0  0  0  0  0  0  0
  148.7592  138.0380  156.1274 O   0  0  0  0  0  0  0  0  0  0  0  0
  151.1015  137.6312  156.2783 C   0  0  0  0  0  0  0  0  0  0  0  0
  151.4462  138.3272  154.9625 C   0  0  0  0  0  0  0  0  0  0  0  0
  150.9297  139.6534  155.0589 O   0  0  0  0  0  0  0  0  0  0  0  0
  150.2849  139.8653  156.3137 C   0  0  2  0  0  0  0  0  0  0  0  0
  151.3046  140.6410  157.1690 C   0  0  0  0  0  0  0  0  0  0  0  0
  145.8378  131.2471  161.4493 C   0  0  0  0  0  0  0  0  0  0  0  0
  146.3417  130.1945  162.4397 C   0  0  0  0  0  0  0  0  0  0  0  0
  146.0419  130.6773  160.0339 C   0  0  0  0  0  0  0  0  0  0  0  0
  141.1264  128.7997  160.8755 H   0  0  0  0  0  0  0  0  0  0  0  0
  141.5698  129.8725  159.5510 H   0  0  0  0  0  0  0  0  0  0  0  0
  140.7076  130.5032  160.9544 H   0  0  0  0  0  0  0  0  0  0  0  0
  142.7321  130.0194  162.4027 H   0  0  0  0  0  0  0  0  0  0  0  0
  143.5324  129.3046  161.0273 H   0  0  0  0  0  0  0  0  0  0  0  0
  144.1793  131.8277  162.8109 H   0  0  0  0  0  0  0  0  0  0  0  0
  144.8050  133.3428  160.2100 H   0  0  0  0  0  0  0  0  0  0  0  0
  144.5202  134.0214  161.8586 H   0  0  0  0  0  0  0  0  0  0  0  0
  146.4983  132.8886  162.7660 H   0  0  0  0  0  0  0  0  0  0  0  0
  149.3655  132.9992  161.5699 H   0  0  0  0  0  0  0  0  0  0  0  0
  149.1340  132.4253  159.9128 H   0  0  0  0  0  0  0  0  0  0  0  0
  148.5650  131.4610  161.2698 H   0  0  0  0  0  0  0  0  0  0  0  0
  146.2917  137.2169  162.0187 H   0  0  0  0  0  0  0  0  0  0  0  0
  150.4762  135.6792  157.3721 H   0  0  0  0  0  0  0  0  0  0  0  0
  148.9422  138.9621  158.7001 H   0  0  0  0  0  0  0  0  0  0  0  0
  150.6135  138.5249  158.8687 H   0  0  0  0  0  0  0  0  0  0  0  0
  148.0499  138.6045  156.3901 H   0  0  0  0  0  0  0  0  0  0  0  0
  151.9488  137.7028  156.9614 H   0  0  0  0  0  0  0  0  0  0  0  0
  150.8713  136.5725  156.1520 H   0  0  0  0  0  0  0  0  0  0  0  0
  152.5205  138.3366  154.7766 H   0  0  0  0  0  0  0  0  0  0  0  0
  150.9634  137.8267  154.1228 H   0  0  0  0  0  0  0  0  0  0  0  0
  149.3921  140.4785  156.1828 H   0  0  0  0  0  0  0  0  0  0  0  0
  150.9163  140.8867  158.1537 H   0  0  0  0  0  0  0  0  0  0  0  0
  151.5679  141.5823  156.6864 H   0  0  0  0  0  0  0  0  0  0  0  0
  152.2278  140.0786  157.3089 H   0  0  0  0  0  0  0  0  0  0  0  0
  147.3875  129.9414  162.2682 H   0  0  0  0  0  0  0  0  0  0  0  0
  145.7724  129.2682  162.3672 H   0  0  0  0  0  0  0  0  0  0  0  0
  146.2590  130.5426  163.4696 H   0  0  0  0  0  0  0  0  0  0  0  0
  147.0899  130.4504  159.8376 H   0  0  0  0  0  0  0  0  0  0  0  0
  145.7141  131.3715  159.2599 H   0  0  0  0  0  0  0  0  0  0  0  0
  145.4812  129.7534  159.8909 H   0  0  0  0  0  0  0  0  0  0  0  0
  1  2  1  0  0  0  0
  1 29  1  0  0  0  0
  1 30  1  0  0  0  0
  1 31  1  0  0  0  0
  2  3  1  0  0  0  0
  2 32  1  0  0  0  0
  2 33  1  0  0  0  0
  3  4  1  0  0  0  0
  4 26  1  0  0  0  0
  4  5  1  0  0  0  0
  4 34  1  0  0  0  0
  5  6  1  0  0  0  0
  5 35  1  0  0  0  0
  5 36  1  0  0  0  0
  6  7  1  0  0  0  0
  6 26  1  0  0  0  0
  6 37  1  0  0  0  0
  7  8  1  0  0  0  0
  7  9  1  0  0  0  0
  8 38  1  0  0  0  0
  8 39  1  0  0  0  0
  8 40  1  0  0  0  0
  9 14  1  0  0  0  0
  9 10  2  0  0  0  0
 10 11  1  0  0  0  0
 11 12  2  0  0  0  0
 11 41  1  0  0  0  0
 12 13  1  0  0  0  0
 13 17  1  0  0  0  0
 13 14  2  0  0  0  0
 14 15  1  0  0  0  0
 15 16  2  0  0  0  0
 16 17  1  0  0  0  0
 16 42  1  0  0  0  0
 17 18  1  0  0  0  0
 18 19  1  0  0  0  0
 18 43  1  0  0  0  0
 18 44  1  0  0  0  0
 19 24  1  0  0  0  0
 19 20  1  0  0  0  0
 19 21  1  0  0  0  0
 20 45  1  0  0  0  0
 21 22  1  0  0  0  0
 21 46  1  0  0  0  0
 21 47  1  0  0  0  0
 22 23  1  0  0  0  0
 22 48  1  0  0  0  0
 22 49  1  0  0  0  0
 23 24  1  0  0  0  0
 24 25  1  0  0  0  0
 24 50  1  0  0  0  0
 25 51  1  0  0  0  0
 25 52  1  0  0  0  0
 25 53  1  0  0  0  0
 26 27  1  0  0  0  0
 26 28  1  0  0  0  0
 27 54  1  0  0  0  0
 27 55  1  0  0  0  0
 27 56  1  0  0  0  0
 28 57  1  0  0  0  0
 28 58  1  0  0  0  0
 28 59  1  0  0  0  0
M  END
> <s_m_source_file>
AV-unprocessed.smi

> <i_m_source_file_index>
234

> <i_lp_mmshare_version>
43012

> <i_f3d_flags>
0

> <s_epik_input>
W0NIM11bQ0gyXU9bQ0BASF0oQzEoW0NIM10pW0NIM10pW0NIMl1bQ0BIXTFOKFtDSDNdKWMobltjSF1uMiljKGMyMyluW2NIXW4zW0NIMl1bQ0BAXTQoW09IXSlbQ0gyXVtDSDJdT1tDQEhdNFtDSDNd

> <s_epik_cmdline>
J2VwaWtfcHl0aG9uJywgJy1waCcsICc3LjAnLCAnLXRuJywgJzgnLCAnLW1hJywgJzIwMCcsICctbWV0YWxfYmluZGluZycsICctaW1hZScsICc8aW5maWxlLm1hZT4nLCAnLW9tYWUnLCAnPG91dGZpbGUubWFlPic=

> <r_lp_tautomer_probability>
1

> <r_epik_Ionization_Penalty>
0.00349132

> <r_epik_Ionization_Penalty_Charging>
0

> <r_epik_Ionization_Penalty_Neutral>
0.00349132

> <r_epik_State_Penalty>
0.00242418

> <r_epik_Charging_Adjusted_Penalty>
0.00242418

> <i_epik_Tot_Q>
0

> <i_epik_Tot_abs_Q>
0

> <r_epik_Metal_State_Penalty>
-0

> <b_epik_Metal_Only>
0

> <s_lp_Force_Field>
OPLS_2005

> <r_lp_Energy>
51.2497

> <b_lp_Chiralities_Consistent>
1

> <s_lp_Variant>
AV-unprocessed.smi:234-15

> <Gold.Version>
5.8.1

> <Gold.Id.Protein>
6NUR|6NUR_protein|mol2

> <Gold.PLP.Fitness>
39.8785

> <Gold.PLP.PLP>
-30.8198

> <Gold.PLP.part.hbond>
-4.0000

> <Gold.PLP.part.metal>
0.0000

> <Gold.PLP.part.buried>
-4.5742

> <Gold.PLP.part.nonpolar>
-22.7016

> <Gold.PLP.part.repulsive>
0.0820

> <Gold.PLP.ligand.clash>
0.0000

> <Gold.PLP.ligand.torsion>
0.9310

> <Gold.PLP.Chemscore.Hbond>
3.2804

> <Gold.PLP.Chemscore.CHOScore>
0.0000

> <Gold.PLP.Chemscore.Metal>
0.0000

> <Gold.Chemscore.Hbonds>
donor molecule, donor type, donor heavy atom, donor atom, acceptor molecule, acceptor atom, score
      P1  H  6896  6909       L1    15  0.90
      P1  H  6931  6943       L1    12  0.51
      P1  H  6934  6947       L1    12  0.91
      P1  H  7989  7998       L1    23  0.83

> <Gold.PLP.Chemscore.Internal.Correction>
1.0794

> <Gold.Rescore>
     Score         DG    S(hbond)    S(metal)    S(lipo)     H(rot)  DE(clash)    DE(int)     intcor
      7.49     -10.47       1.33        0.00      62.13       2.62       0.10       2.88       ----

> <Gold.Chemscore.Fitness>
7.4911

> <Gold.Chemscore.DG>
-10.4700

> <Gold.Chemscore.ZeroCoef>
-5.4800

> <Gold.Chemscore.Hbond>
1.3273

> <Gold.Chemscore.Metal>
0.0000

> <Gold.Chemscore.Lipo>
62.1290

> <Gold.Chemscore.Internal_Hbond>
0.0000

> <Gold.Chemscore.DEClash>
0.0990

> <Gold.Chemscore.DEInternal>
2.8800

> <Gold.Chemscore.Rot>
2.6219

> <Gold.Chemscore.Internal.Correction>
   9.000000E+99

> <Gold.Chemscore.Hbonds>
donor molecule, donor type, donor heavy atom, donor atom, acceptor molecule, acceptor atom, score
      P1  H  6896  6909       L1    15  0.14
      P1  H  6931  6943       L1    12  0.09
      P1  H  6934  6947       L1    12  0.31
      P1  H  7989  7998       L1    23  0.65

> <Gold.Chemscore.Hbond.Weighted>
-4.4331

> <Gold.Chemscore.Metal.Weighted>
-0.0000

> <Gold.Chemscore.Lipo.Weighted>
-7.2691

> <Gold.Chemscore.Internal_Hbond.Weighted>
0.0000

> <Gold.Chemscore.DEClash.Weighted>
0.0990

> <Gold.Chemscore.DEInternal.Weighted>
2.8800

> <Gold.Chemscore.Rot.Weighted>
6.7121

> <Gold.Chemscore.Internal.Correction.Weighted>
   9.000000E+99

> <Gold.Protein.RotatedTorsions>
[ 6907 6896 6895 6894 ] final   15.32 input  -60.11 | X-H torsion
[ 7974 7965 7964 7962 ] final -152.45 input  175.53 | X-H torsion
[ 8008 7997 7996 7995 ] final  -17.90 input   59.86 | X-H torsion
[ 10167 10162 10161 10158 ] final  172.68 input  -65.29 | X-H torsion
[ 10718 10713 10712 10709 ] final -171.67 input   66.30 | X-H torsion
[ 10763 10752 10751 10750 ] final  163.67 input  -60.55 | X-H torsion
[ 11005 11000 10999 10996 ] final  -81.60 input  -57.11 | X-H torsion

> <Gold.Protein.ActiveResidues>
 VAL166  LYS551  ARG553  GLY616  TRP617  ASP618  TYR619  PRO620  LYS621  CYS622 
 ASP623  PHE694  ASN695  SER759  ASP760  ASP761  ALA762  ILE779  LEU786  VAL792 
 PHE793  MET794  SER795  GLU796  ALA797  LYS798  CYS799  TRP800  GLU811  SER814 

> <Gold.Protein.RotatedAtoms>
  151.8162  135.0666  160.0418 H   0  0  0  0  0  0  0  0  0  0  0  0  # atno 6907 bound_to 6896
  152.2985  133.5627  159.5611 H   0  0  0  0  0  0  0  0  0  0  0  0  # atno 6908 bound_to 6896
  150.7262  134.0242  159.3754 H   0  0  0  0  0  0  0  0  0  0  0  0  # atno 6909 bound_to 6896
  144.7794  140.4661  143.5850 H   0  0  0  0  0  0  0  0  0  0  0  0  # atno 7974 bound_to 7965
  154.4944  140.2130  155.9478 H   0  0  0  0  0  0  0  0  0  0  0  0  # atno 8008 bound_to 7997
  156.1350  140.3190  155.8375 H   0  0  0  0  0  0  0  0  0  0  0  0  # atno 8009 bound_to 7997
  155.4226  140.0498  157.3015 H   0  0  0  0  0  0  0  0  0  0  0  0  # atno 8010 bound_to 7997
  139.5084  144.3346  152.0078 H   0  0  0  0  0  0  0  0  0  0  0  0  # atno 10167 bound_to 10162
  156.7442  130.9354  151.3111 H   0  0  0  0  0  0  0  0  0  0  0  0  # atno 10718 bound_to 10713
  154.2973  135.2760  155.2627 H   0  0  0  0  0  0  0  0  0  0  0  0  # atno 10763 bound_to 10752
  154.5080  135.5790  153.6586 H   0  0  0  0  0  0  0  0  0  0  0  0  # atno 10764 bound_to 10752
  152.9905  135.6174  154.3141 H   0  0  0  0  0  0  0  0  0  0  0  0  # atno 10765 bound_to 10752
  141.1666  133.7204  156.8447 H   0  0  0  0  0  0  0  0  0  0  0  0  # atno 11005 bound_to 11000
  145.6094  139.1511  143.3084 LP  0  0  0  0  0  0  0  0  0  0  0  0  # atno 17320 bound_to 7965
  146.1993  140.6211  142.9110 LP  0  0  0  0  0  0  0  0  0  0  0  0  # atno 17321 bound_to 7965
  140.2785  144.3886  150.6127 LP  0  0  0  0  0  0  0  0  0  0  0  0  # atno 17342 bound_to 10162
  140.6036  143.2167  151.7025 LP  0  0  0  0  0  0  0  0  0  0  0  0  # atno 17343 bound_to 10162
  157.6805  130.9135  150.0255 LP  0  0  0  0  0  0  0  0  0  0  0  0  # atno 17370 bound_to 10713
  156.1444  130.3642  149.9533 LP  0  0  0  0  0  0  0  0  0  0  0  0  # atno 17371 bound_to 10713
  140.1958  134.8933  157.3112 LP  0  0  0  0  0  0  0  0  0  0  0  0  # atno 17394 bound_to 11000
  140.2241  134.3988  155.7552 LP  0  0  0  0  0  0  0  0  0  0  0  0  # atno 17395 bound_to 11000

$$$$
