AV-unprocessed.smi:2612|AV-procd|sdf|10211|dock5
  -GOLD-   2272014213D 1   1.00000     0.00000
 Structure written by MMmdl.
 40 41  0  0  0  0  0  0  0  0  1 V2000
  152.8133  140.4415  158.7291 C   0  0  0  0  0  0  0  0  0  0  0  0
  152.7636  139.6838  157.5263 O   0  0  0  0  0  0  0  0  0  0  0  0
  151.5663  139.7103  156.7371 C   0  0  0  0  0  0  0  0  0  0  0  0
  150.5019  139.1084  157.6918 C   0  0  0  0  0  0  0  0  0  0  0  0
  150.7498  137.7045  158.0140 N   0  0  0  0  0  0  0  0  0  0  0  0
  149.7841  136.9024  158.6393 C   0  0  0  0  0  0  0  0  0  0  0  0
  149.2408  135.8204  157.9131 C   0  0  0  0  0  0  0  0  0  0  0  0
  148.2734  135.0025  158.5295 C   0  0  0  0  0  0  0  0  0  0  0  0
  147.8929  135.2990  159.8520 C   0  0  0  0  0  0  0  0  0  0  0  0
  146.6415  134.3248  160.6750 S   0  0  0  0  0  0  0  0  0  0  0  0
  147.2151  134.2630  162.4208 C   0  0  0  0  0  0  0  0  0  0  0  0
  145.3785  135.0780  160.6362 O   0  0  0  0  0  0  0  0  0  0  0  0
  146.6925  132.9599  160.1290 O   0  0  0  0  0  0  0  0  0  0  0  0
  148.4730  136.4093  160.4957 C   0  0  0  0  0  0  0  0  0  0  0  0
  149.3998  137.1940  159.9052 N   0  0  0  0  0  0  0  0  0  0  0  0
  151.1809  141.1244  156.2265 C   0  0  0  0  0  0  0  0  0  0  0  0
  149.9966  141.0697  155.2449 C   0  0  0  0  0  0  0  0  0  0  0  0
  150.3146  140.2143  154.1531 O   0  0  0  0  0  0  0  0  0  0  0  0
  150.5442  138.8665  154.5490 C   0  0  0  0  0  0  0  0  0  0  0  0
  151.7496  138.7935  155.5051 C   0  0  0  0  0  0  0  0  0  0  0  0
  153.8280  140.4073  159.1244 H   0  0  0  0  0  0  0  0  0  0  0  0
  152.1593  140.0210  159.4928 H   0  0  0  0  0  0  0  0  0  0  0  0
  152.5570  141.4892  158.5802 H   0  0  0  0  0  0  0  0  0  0  0  0
  150.3952  139.7080  158.5938 H   0  0  0  0  0  0  0  0  0  0  0  0
  149.5266  139.1498  157.2059 H   0  0  0  0  0  0  0  0  0  0  0  0
  151.7160  137.4186  158.0834 H   0  0  0  0  0  0  0  0  0  0  0  0
  149.5595  135.6161  156.9013 H   0  0  0  0  0  0  0  0  0  0  0  0
  147.8375  134.1706  157.9963 H   0  0  0  0  0  0  0  0  0  0  0  0
  146.5129  133.6756  163.0119 H   0  0  0  0  0  0  0  0  0  0  0  0
  147.2695  135.2743  162.8231 H   0  0  0  0  0  0  0  0  0  0  0  0
  148.2009  133.8006  162.4648 H   0  0  0  0  0  0  0  0  0  0  0  0
  148.1901  136.6808  161.5019 H   0  0  0  0  0  0  0  0  0  0  0  0
  150.9612  141.7985  157.0538 H   0  0  0  0  0  0  0  0  0  0  0  0
  152.0125  141.5735  155.6844 H   0  0  0  0  0  0  0  0  0  0  0  0
  149.0824  140.7304  155.7310 H   0  0  0  0  0  0  0  0  0  0  0  0
  149.7912  142.0675  154.8572 H   0  0  0  0  0  0  0  0  0  0  0  0
  149.6452  138.4502  155.0040 H   0  0  0  0  0  0  0  0  0  0  0  0
  150.7433  138.2727  153.6570 H   0  0  0  0  0  0  0  0  0  0  0  0
  152.6337  139.0855  154.9404 H   0  0  0  0  0  0  0  0  0  0  0  0
  151.9183  137.7626  155.8183 H   0  0  0  0  0  0  0  0  0  0  0  0
  1  2  1  0  0  0  0
  1 21  1  0  0  0  0
  1 22  1  0  0  0  0
  1 23  1  0  0  0  0
  2  3  1  0  0  0  0
  3 20  1  0  0  0  0
  3  4  1  0  0  0  0
  3 16  1  0  0  0  0
  4  5  1  0  0  0  0
  4 24  1  0  0  0  0
  4 25  1  0  0  0  0
  5  6  1  0  0  0  0
  5 26  1  0  0  0  0
  6 15  1  0  0  0  0
  6  7  2  0  0  0  0
  7  8  1  0  0  0  0
  7 27  1  0  0  0  0
  8  9  2  0  0  0  0
  8 28  1  0  0  0  0
  9 10  1  0  0  0  0
  9 14  1  0  0  0  0
 10 11  1  0  0  0  0
 10 12  2  0  0  0  0
 10 13  2  0  0  0  0
 11 29  1  0  0  0  0
 11 30  1  0  0  0  0
 11 31  1  0  0  0  0
 14 15  2  0  0  0  0
 14 32  1  0  0  0  0
 16 17  1  0  0  0  0
 16 33  1  0  0  0  0
 16 34  1  0  0  0  0
 17 18  1  0  0  0  0
 17 35  1  0  0  0  0
 17 36  1  0  0  0  0
 18 19  1  0  0  0  0
 19 20  1  0  0  0  0
 19 37  1  0  0  0  0
 19 38  1  0  0  0  0
 20 39  1  0  0  0  0
 20 40  1  0  0  0  0
M  END
> <s_m_source_file>
AV-unprocessed.smi

> <i_m_source_file_index>
2612

> <i_lp_mmshare_version>
43012

> <i_f3d_flags>
0

> <s_epik_input>
W0NIMl0xW0NIMl1PW0NIMl1bQ0gyXUMxKE9bQ0gzXSlbQ0gyXVtOSF1jMltjSF1bY0hdYyhbY0hdbjIpUyg9TykoPU8pW0NIM10=

> <s_epik_cmdline>
J2VwaWtfcHl0aG9uJywgJy1waCcsICc3LjAnLCAnLXRuJywgJzgnLCAnLW1hJywgJzIwMCcsICctbWV0YWxfYmluZGluZycsICctaW1hZScsICc8aW5maWxlLm1hZT4nLCAnLW9tYWUnLCAnPG91dGZpbGUubWFlPic=

> <r_lp_tautomer_probability>
1

> <r_epik_Ionization_Penalty>
1.02976e-06

> <r_epik_Ionization_Penalty_Charging>
0

> <r_epik_Ionization_Penalty_Neutral>
1.02976e-06

> <r_epik_State_Penalty>
-0

> <r_epik_Charging_Adjusted_Penalty>
0

> <i_epik_Tot_Q>
0

> <i_epik_Tot_abs_Q>
0

> <r_epik_Metal_State_Penalty>
-0

> <b_epik_Metal_Only>
0

> <s_lp_Force_Field>
OPLS_2005

> <r_lp_Energy>
16.1681

> <b_lp_Chiralities_Consistent>
1

> <s_lp_Variant>
AV-unprocessed.smi:2612-1

> <Gold.Version>
5.8.1

> <Gold.Id.Protein>
6NUR|6NUR_protein|mol2

> <Gold.PLP.Fitness>
35.3667

> <Gold.PLP.PLP>
-31.1057

> <Gold.PLP.part.hbond>
-3.0000

> <Gold.PLP.part.metal>
0.0000

> <Gold.PLP.part.buried>
-4.0606

> <Gold.PLP.part.nonpolar>
-24.6483

> <Gold.PLP.part.repulsive>
0.2079

> <Gold.PLP.ligand.clash>
0.0000

> <Gold.PLP.ligand.torsion>
1.9003

> <Gold.PLP.Chemscore.Hbond>
2.0000

> <Gold.PLP.Chemscore.CHOScore>
0.0000

> <Gold.PLP.Chemscore.Metal>
0.0000

> <Gold.Chemscore.Hbonds>
donor molecule, donor type, donor heavy atom, donor atom, acceptor molecule, acceptor atom, score
      P1  H  7989  7998       L1    18  1.00
      P1  H  7997  8008       L1     2  1.00

> <Gold.PLP.Chemscore.Internal.Correction>
2.0616

> <Gold.Rescore>
     Score         DG    S(hbond)    S(metal)    S(lipo)     H(rot)  DE(clash)    DE(int)     intcor
     13.15     -15.02       1.53        0.00      69.48       1.45       0.01       1.86       ----

> <Gold.Chemscore.Fitness>
13.1500

> <Gold.Chemscore.DG>
-15.0185

> <Gold.Chemscore.ZeroCoef>
-5.4800

> <Gold.Chemscore.Hbond>
1.5325

> <Gold.Chemscore.Metal>
0.0000

> <Gold.Chemscore.Lipo>
69.4816

> <Gold.Chemscore.Internal_Hbond>
0.0000

> <Gold.Chemscore.DEClash>
0.0093

> <Gold.Chemscore.DEInternal>
1.8592

> <Gold.Chemscore.Rot>
1.4490

> <Gold.Chemscore.Internal.Correction>
   9.000000E+99

> <Gold.Chemscore.Hbonds>
donor molecule, donor type, donor heavy atom, donor atom, acceptor molecule, acceptor atom, score
      P1  H  7989  7998       L1    18  0.38
      P1  H  7997  8008       L1     2  0.25

> <Gold.Chemscore.Hbond.Weighted>
-5.1186

> <Gold.Chemscore.Metal.Weighted>
-0.0000

> <Gold.Chemscore.Lipo.Weighted>
-8.1293

> <Gold.Chemscore.Internal_Hbond.Weighted>
0.0000

> <Gold.Chemscore.DEClash.Weighted>
0.0093

> <Gold.Chemscore.DEInternal.Weighted>
1.8592

> <Gold.Chemscore.Rot.Weighted>
3.7094

> <Gold.Chemscore.Internal.Correction.Weighted>
   9.000000E+99

> <Gold.Protein.RotatedTorsions>
[ 6907 6896 6895 6894 ] final -165.80 input  -60.11 | X-H torsion
[ 7974 7965 7964 7962 ] final   61.68 input  175.53 | X-H torsion
[ 8008 7997 7996 7995 ] final  -72.74 input   59.86 | X-H torsion
[ 10167 10162 10161 10158 ] final -169.36 input  -65.29 | X-H torsion
[ 10718 10713 10712 10709 ] final   80.45 input   66.30 | X-H torsion
[ 10763 10752 10751 10750 ] final -120.24 input  -60.55 | X-H torsion
[ 11005 11000 10999 10996 ] final  130.15 input  -57.11 | X-H torsion

> <Gold.Protein.ActiveResidues>
 VAL166  LYS551  ARG553  GLY616  TRP617  ASP618  TYR619  PRO620  LYS621  CYS622 
 ASP623  PHE694  ASN695  SER759  ASP760  ASP761  ALA762  ILE779  LEU786  VAL792 
 PHE793  MET794  SER795  GLU796  ALA797  LYS798  CYS799  TRP800  GLU811  SER814 

> <Gold.Protein.RotatedAtoms>
  151.4335  133.3663  159.2771 H   0  0  0  0  0  0  0  0  0  0  0  0  # atno 6907 bound_to 6896
  150.9208  134.8627  159.7498 H   0  0  0  0  0  0  0  0  0  0  0  0  # atno 6908 bound_to 6896
  152.4981  134.4272  159.9552 H   0  0  0  0  0  0  0  0  0  0  0  0  # atno 6909 bound_to 6896
  145.8820  139.3450  143.0700 H   0  0  0  0  0  0  0  0  0  0  0  0  # atno 7974 bound_to 7965
  154.5191  140.0791  156.8137 H   0  0  0  0  0  0  0  0  0  0  0  0  # atno 8008 bound_to 7997
  155.3616  140.3418  155.4223 H   0  0  0  0  0  0  0  0  0  0  0  0  # atno 8009 bound_to 7997
  156.1661  140.1604  156.8517 H   0  0  0  0  0  0  0  0  0  0  0  0  # atno 8010 bound_to 7997
  139.5928  144.1177  152.1654 H   0  0  0  0  0  0  0  0  0  0  0  0  # atno 10167 bound_to 10162
  157.6806  130.9960  150.2081 H   0  0  0  0  0  0  0  0  0  0  0  0  # atno 10718 bound_to 10713
  154.8639  135.4210  154.2428 H   0  0  0  0  0  0  0  0  0  0  0  0  # atno 10763 bound_to 10752
  153.3390  135.6992  153.6889 H   0  0  0  0  0  0  0  0  0  0  0  0  # atno 10764 bound_to 10752
  153.5875  135.3561  155.2871 H   0  0  0  0  0  0  0  0  0  0  0  0  # atno 10765 bound_to 10752
  139.9656  134.9591  156.9252 H   0  0  0  0  0  0  0  0  0  0  0  0  # atno 11005 bound_to 11000
  145.9012  140.9242  143.0502 LP  0  0  0  0  0  0  0  0  0  0  0  0  # atno 17320 bound_to 7965
  144.6727  140.1035  143.7459 LP  0  0  0  0  0  0  0  0  0  0  0  0  # atno 17321 bound_to 7965
  140.0755  144.5743  150.7160 LP  0  0  0  0  0  0  0  0  0  0  0  0  # atno 17342 bound_to 10162
  140.7187  143.2568  151.4350 LP  0  0  0  0  0  0  0  0  0  0  0  0  # atno 17343 bound_to 10162
  156.2758  130.3727  149.7985 LP  0  0  0  0  0  0  0  0  0  0  0  0  # atno 17370 bound_to 10713
  156.5689  130.8416  151.3350 LP  0  0  0  0  0  0  0  0  0  0  0  0  # atno 17371 bound_to 10713
  140.5405  134.0725  155.7340 LP  0  0  0  0  0  0  0  0  0  0  0  0  # atno 17394 bound_to 11000
  141.1335  133.9262  157.2484 LP  0  0  0  0  0  0  0  0  0  0  0  0  # atno 17395 bound_to 11000

$$$$
