AV-unprocessed.smi:848|AV-procd|sdf|3941|dock6
  -GOLD-   22720 1413D 1   1.00000     0.00000
 Structure written by MMmdl.
 47 49  0  0  0  0  0  0  0  0  2 V2000
  148.2512  133.2801  153.4407 C   0  0  0  0  0  0  0  0  0  0  0  0
  149.3128  133.5304  154.4919 C   0  0  0  0  0  0  0  0  0  0  0  0
  149.7149  132.4936  155.3572 C   0  0  0  0  0  0  0  0  0  0  0  0
  150.7010  132.7319  156.3338 C   0  0  0  0  0  0  0  0  0  0  0  0
  151.1279  131.6120  157.2604 C   0  0  0  0  0  0  0  0  0  0  0  0
  151.2831  134.0115  156.4426 C   0  0  0  0  0  0  0  0  0  0  0  0
  150.8920  135.0601  155.5849 C   0  0  0  0  0  0  0  0  0  0  0  0
  151.5120  136.2783  155.7648 O   0  0  0  0  0  0  0  0  0  0  0  0
  151.1271  137.3607  154.9274 C   0  0  0  0  0  0  0  0  0  0  0  0
  151.8578  138.6318  155.3842 C   0  0  2  0  0  0  0  0  0  0  0  0
  153.2398  138.3466  155.4709 O   0  0  0  0  0  0  0  0  0  0  0  0
  151.3382  139.1599  156.7370 C   0  0  0  0  0  0  0  0  0  0  0  0
  150.9852  140.5880  156.6931 N   0  0  0  0  0  0  0  0  0  0  0  0
  150.1210  141.2500  155.8709 C   0  0  0  0  0  0  0  0  0  0  0  0
  149.2884  140.6584  154.7819 C   0  0  0  0  0  0  0  0  0  0  0  0
  149.7042  141.0803  153.5021 O   0  0  0  0  0  0  0  0  0  0  0  0
  150.1435  142.5634  156.2334 N   0  3  0  0  0  0  0  0  0  0  0  0
  151.0313  142.7454  157.2943 C   0  0  0  0  0  0  0  0  0  0  0  0
  151.3891  143.8934  157.9948 C   0  0  0  0  0  0  0  0  0  0  0  0
  152.3329  143.7344  159.0304 C   0  0  0  0  0  0  0  0  0  0  0  0
  152.8814  142.4721  159.3362 C   0  0  0  0  0  0  0  0  0  0  0  0
  152.5092  141.3150  158.6207 C   0  0  0  0  0  0  0  0  0  0  0  0
  151.5761  141.4801  157.5968 C   0  0  0  0  0  0  0  0  0  0  0  0
  149.8995  134.8075  154.6045 C   0  0  0  0  0  0  0  0  0  0  0  0
  147.8928  132.2508  153.4731 H   0  0  0  0  0  0  0  0  0  0  0  0
  148.6532  133.4695  152.4451 H   0  0  0  0  0  0  0  0  0  0  0  0
  147.3995  133.9421  153.5988 H   0  0  0  0  0  0  0  0  0  0  0  0
  149.2680  131.5134  155.2743 H   0  0  0  0  0  0  0  0  0  0  0  0
  151.8990  131.9421  157.9571 H   0  0  0  0  0  0  0  0  0  0  0  0
  151.5249  130.7761  156.6841 H   0  0  0  0  0  0  0  0  0  0  0  0
  150.2757  131.2555  157.8394 H   0  0  0  0  0  0  0  0  0  0  0  0
  152.0390  134.1959  157.1919 H   0  0  0  0  0  0  0  0  0  0  0  0
  151.3644  137.1446  153.8842 H   0  0  0  0  0  0  0  0  0  0  0  0
  150.0491  137.5140  155.0058 H   0  0  0  0  0  0  0  0  0  0  0  0
  151.7347  139.4016  154.6217 H   0  0  0  0  0  0  0  0  0  0  0  0
  153.3607  137.6282  156.0726 H   0  0  0  0  0  0  0  0  0  0  0  0
  150.4374  138.6178  157.0272 H   0  0  0  0  0  0  0  0  0  0  0  0
  152.0604  138.9883  157.5350 H   0  0  0  0  0  0  0  0  0  0  0  0
  149.3432  139.5708  154.8333 H   0  0  0  0  0  0  0  0  0  0  0  0
  148.2436  140.9333  154.9266 H   0  0  0  0  0  0  0  0  0  0  0  0
  149.5374  140.3829  152.8861 H   0  0  0  0  0  0  0  0  0  0  0  0
  150.9704  144.8616  157.7621 H   0  0  0  0  0  0  0  0  0  0  0  0
  152.6435  144.5981  159.6007 H   0  0  0  0  0  0  0  0  0  0  0  0
  153.6032  142.3892  160.1357 H   0  0  0  0  0  0  0  0  0  0  0  0
  152.9392  140.3549  158.8635 H   0  0  0  0  0  0  0  0  0  0  0  0
  149.5693  135.5804  153.9269 H   0  0  0  0  0  0  0  0  0  0  0  0
  149.5871  143.2805  155.7865 H   0  0  0  0  0  0  0  0  0  0  0  0
  1  2  1  0  0  0  0
  1 25  1  0  0  0  0
  1 26  1  0  0  0  0
  1 27  1  0  0  0  0
  2 24  1  0  0  0  0
  2  3  2  0  0  0  0
  3  4  1  0  0  0  0
  3 28  1  0  0  0  0
  4  5  1  0  0  0  0
  4  6  2  0  0  0  0
  5 29  1  0  0  0  0
  5 30  1  0  0  0  0
  5 31  1  0  0  0  0
  6  7  1  0  0  0  0
  6 32  1  0  0  0  0
  7  8  1  0  0  0  0
  7 24  2  0  0  0  0
  8  9  1  0  0  0  0
  9 10  1  0  0  0  0
  9 33  1  0  0  0  0
  9 34  1  0  0  0  0
 10 11  1  0  0  0  0
 10 12  1  0  0  0  0
 10 35  1  0  0  0  0
 11 36  1  0  0  0  0
 12 13  1  0  0  0  0
 12 37  1  0  0  0  0
 12 38  1  0  0  0  0
 13 23  1  0  0  0  0
 13 14  1  0  0  0  0
 14 15  1  0  0  0  0
 14 17  2  0  0  0  0
 15 16  1  0  0  0  0
 15 39  1  0  0  0  0
 15 40  1  0  0  0  0
 16 41  1  0  0  0  0
 17 18  1  0  0  0  0
 17 47  1  0  0  0  0
 18 23  2  0  0  0  0
 18 19  1  0  0  0  0
 19 20  2  0  0  0  0
 19 42  1  0  0  0  0
 20 21  1  0  0  0  0
 20 43  1  0  0  0  0
 21 22  2  0  0  0  0
 21 44  1  0  0  0  0
 22 23  1  0  0  0  0
 22 45  1  0  0  0  0
 24 46  1  0  0  0  0
M  CHG  1  17   1
M  END
> <s_m_source_file>
AV-unprocessed.smi

> <i_m_source_file_index>
848

> <i_lp_mmshare_version>
43012

> <i_f3d_flags>
0

> <s_epik_input>
W0NIM11jMVtjSF1jKFtDSDNdKVtjSF1jKFtjSF0xKU9bQ0gyXVtDQEhdKFtPSF0pW0NIMl1uKGMobjIpW0NIMl1bT0hdKWMoYzIzKVtjSF1bY0hdW2NIXVtjSF0z

> <s_epik_cmdline>
J2VwaWtfcHl0aG9uJywgJy1waCcsICc3LjAnLCAnLXRuJywgJzgnLCAnLW1hJywgJzIwMCcsICctbWV0YWxfYmluZGluZycsICctaW1hZScsICc8aW5maWxlLm1hZT4nLCAnLW9tYWUnLCAnPG91dGZpbGUubWFlPic=

> <r_lp_tautomer_probability>
1

> <r_epik_Ionization_Penalty>
1.43292

> <r_epik_Ionization_Penalty_Charging>
1.43206

> <r_epik_Ionization_Penalty_Neutral>
0.000858184

> <r_epik_State_Penalty>
1.51673

> <r_epik_Charging_Adjusted_Penalty>
2.94879

> <i_epik_Tot_Q>
1

> <i_epik_Tot_abs_Q>
1

> <r_epik_Metal_State_Penalty>
5.56186

> <b_epik_Metal_Only>
0

> <s_lp_Force_Field>
OPLS_2005

> <r_lp_Energy>
18.3298

> <b_lp_Chiralities_Consistent>
1

> <s_lp_Variant>
AV-unprocessed.smi:848-3

> <Gold.Version>
5.8.1

> <Gold.Id.Protein>
6NUR|6NUR_protein|mol2

> <Gold.PLP.Fitness>
63.5396

> <Gold.PLP.PLP>
-50.9055

> <Gold.PLP.part.hbond>
-5.6069

> <Gold.PLP.part.metal>
0.0000

> <Gold.PLP.part.buried>
-4.5496

> <Gold.PLP.part.nonpolar>
-42.1592

> <Gold.PLP.part.repulsive>
0.1564

> <Gold.PLP.ligand.clash>
0.0000

> <Gold.PLP.ligand.torsion>
0.8421

> <Gold.PLP.Chemscore.Hbond>
4.7502

> <Gold.PLP.Chemscore.CHOScore>
0.0000

> <Gold.PLP.Chemscore.Metal>
0.0000

> <Gold.Chemscore.Hbonds>
donor molecule, donor type, donor heavy atom, donor atom, acceptor molecule, acceptor atom, score
      L1  H    16    41       P1  7957  0.80
      L1  H    17    47       P1  8028  2.00
      P1  H  7989  7998       L1    16  0.17
      P1  H  7997  8008       L1    11  0.48
      P1  H  8011  8017       L1    16  0.90
      P1  H 10752 10765       L1     8  0.35

> <Gold.PLP.Chemscore.Internal.Correction>
0.0677

> <Gold.Rescore>
     Score         DG    S(hbond)    S(metal)    S(lipo)     H(rot)  DE(clash)    DE(int)     intcor
     20.95     -22.24       2.74        0.00     131.66       3.05       0.33       0.96       ----

> <Gold.Chemscore.Fitness>
20.9510

> <Gold.Chemscore.DG>
-22.2405

> <Gold.Chemscore.ZeroCoef>
-5.4800

> <Gold.Chemscore.Hbond>
2.7420

> <Gold.Chemscore.Metal>
0.0000

> <Gold.Chemscore.Lipo>
131.6573

> <Gold.Chemscore.Internal_Hbond>
0.0000

> <Gold.Chemscore.DEClash>
0.3257

> <Gold.Chemscore.DEInternal>
0.9638

> <Gold.Chemscore.Rot>
3.0476

> <Gold.Chemscore.Internal.Correction>
   9.000000E+99

> <Gold.Chemscore.Hbonds>
donor molecule, donor type, donor heavy atom, donor atom, acceptor molecule, acceptor atom, score
      L1  H    16    41       P1  7957  0.80
      L1  H    17    47       P1  8028  0.97
      P1  H  7989  7998       L1    16  0.01
      P1  H  7997  8008       L1    11  0.33
      P1  H  8011  8017       L1    16  0.17

> <Gold.Chemscore.Hbond.Weighted>
-9.1584

> <Gold.Chemscore.Metal.Weighted>
-0.0000

> <Gold.Chemscore.Lipo.Weighted>
-15.4039

> <Gold.Chemscore.Internal_Hbond.Weighted>
0.0000

> <Gold.Chemscore.DEClash.Weighted>
0.3257

> <Gold.Chemscore.DEInternal.Weighted>
0.9638

> <Gold.Chemscore.Rot.Weighted>
7.8018

> <Gold.Chemscore.Internal.Correction.Weighted>
   9.000000E+99

> <Gold.Protein.RotatedTorsions>
[ 6907 6896 6895 6894 ] final  151.97 input  -60.11 | X-H torsion
[ 7974 7965 7964 7962 ] final   93.07 input  175.53 | X-H torsion
[ 8008 7997 7996 7995 ] final  -24.39 input   59.86 | X-H torsion
[ 10167 10162 10161 10158 ] final  176.17 input  -65.29 | X-H torsion
[ 10718 10713 10712 10709 ] final   61.93 input   66.30 | X-H torsion
[ 10763 10752 10751 10750 ] final -159.28 input  -60.55 | X-H torsion
[ 11005 11000 10999 10996 ] final  -41.03 input  -57.11 | X-H torsion

> <Gold.Protein.ActiveResidues>
 VAL166  LYS551  ARG553  GLY616  TRP617  ASP618  TYR619  PRO620  LYS621  CYS622 
 ASP623  PHE694  ASN695  SER759  ASP760  ASP761  ALA762  ILE779  LEU786  VAL792 
 PHE793  MET794  SER795  GLU796  ALA797  LYS798  CYS799  TRP800  GLU811  SER814 

> <Gold.Protein.RotatedAtoms>
  152.0932  133.4211  159.4553 H   0  0  0  0  0  0  0  0  0  0  0  0  # atno 6907 bound_to 6896
  150.6863  134.2847  159.4651 H   0  0  0  0  0  0  0  0  0  0  0  0  # atno 6908 bound_to 6896
  152.0700  134.9539  160.0625 H   0  0  0  0  0  0  0  0  0  0  0  0  # atno 6909 bound_to 6896
  145.4839  139.2278  143.2867 H   0  0  0  0  0  0  0  0  0  0  0  0  # atno 7974 bound_to 7965
  154.4532  140.1955  156.0457 H   0  0  0  0  0  0  0  0  0  0  0  0  # atno 8008 bound_to 7997
  156.0691  140.3287  155.7526 H   0  0  0  0  0  0  0  0  0  0  0  0  # atno 8009 bound_to 7997
  155.5291  140.0576  157.2883 H   0  0  0  0  0  0  0  0  0  0  0  0  # atno 8010 bound_to 7997
  139.5204  144.2947  152.0432 H   0  0  0  0  0  0  0  0  0  0  0  0  # atno 10167 bound_to 10162
  157.5864  130.9022  149.9523 H   0  0  0  0  0  0  0  0  0  0  0  0  # atno 10718 bound_to 10713
  154.7488  135.3087  154.8596 H   0  0  0  0  0  0  0  0  0  0  0  0  # atno 10763 bound_to 10752
  153.9389  135.6777  153.4748 H   0  0  0  0  0  0  0  0  0  0  0  0  # atno 10764 bound_to 10752
  153.1084  135.4878  154.8919 H   0  0  0  0  0  0  0  0  0  0  0  0  # atno 10765 bound_to 10752
  141.0217  133.6860  156.2401 H   0  0  0  0  0  0  0  0  0  0  0  0  # atno 11005 bound_to 11000
  146.2324  140.5628  142.8969 LP  0  0  0  0  0  0  0  0  0  0  0  0  # atno 17320 bound_to 7965
  144.7873  140.5961  143.6565 LP  0  0  0  0  0  0  0  0  0  0  0  0  # atno 17321 bound_to 7965
  140.2397  144.4283  150.6265 LP  0  0  0  0  0  0  0  0  0  0  0  0  # atno 17342 bound_to 10162
  140.6299  143.2186  151.6517 LP  0  0  0  0  0  0  0  0  0  0  0  0  # atno 17343 bound_to 10162
  156.0913  130.3663  150.0389 LP  0  0  0  0  0  0  0  0  0  0  0  0  # atno 17370 bound_to 10713
  156.8520  130.9462  151.3625 LP  0  0  0  0  0  0  0  0  0  0  0  0  # atno 17371 bound_to 10713
  140.6562  134.5016  157.5580 LP  0  0  0  0  0  0  0  0  0  0  0  0  # atno 17394 bound_to 11000
  139.9150  134.8265  156.1397 LP  0  0  0  0  0  0  0  0  0  0  0  0  # atno 17395 bound_to 11000

$$$$
