AV-unprocessed.smi:1697|AV-procd|sdf|6810|dock5
  -GOLD-   22720 7583D 1   1.00000     0.00000
 Structure written by MMmdl.
 55 57  0  0  0  0  0  0  0  0  3 V2000
  142.4154  138.4978  155.1940 C   0  0  0  0  0  0  0  0  0  0  0  0
  143.3227  137.3942  154.6466 C   0  0  0  0  0  0  0  0  0  0  0  0
  144.1866  137.9560  153.6695 O   0  0  0  0  0  0  0  0  0  0  0  0
  145.0229  137.0141  153.0068 C   0  0  2  0  0  0  0  0  0  0  0  0
  146.0338  136.3785  153.9792 C   0  0  0  0  0  0  0  0  0  0  0  0
  147.0264  137.4219  154.5190 C   0  0  0  0  0  0  0  0  0  0  0  0
  147.7448  138.1038  153.4091 N   0  3  2  0  0  0  0  0  0  0  0  0
  148.8061  139.0343  153.8750 C   0  0  0  0  0  0  0  0  0  0  0  0
  149.7870  138.3795  154.8689 C   0  0  1  0  0  0  0  0  0  0  0  0
  150.2263  137.1453  154.3362 O   0  0  0  0  0  0  0  0  0  0  0  0
  151.0121  139.2758  155.1361 C   0  0  0  0  0  0  0  0  0  0  0  0
  150.6523  140.5738  155.7229 N   0  0  0  0  0  0  0  0  0  0  0  0
  149.7958  141.5326  155.2760 C   0  0  0  0  0  0  0  0  0  0  0  0
  149.8108  142.5499  156.1819 N   0  3  0  0  0  0  0  0  0  0  0  0
  150.6843  142.2334  157.2249 C   0  0  0  0  0  0  0  0  0  0  0  0
  151.0339  142.9411  158.3690 C   0  0  0  0  0  0  0  0  0  0  0  0
  151.9632  142.3344  159.2444 C   0  0  0  0  0  0  0  0  0  0  0  0
  152.3676  143.0816  160.5038 C   0  0  0  0  0  0  0  0  0  0  0  0
  152.5093  141.0562  158.9582 C   0  0  0  0  0  0  0  0  0  0  0  0
  153.5075  140.4134  159.9062 C   0  0  0  0  0  0  0  0  0  0  0  0
  152.1402  140.3519  157.7898 C   0  0  0  0  0  0  0  0  0  0  0  0
  151.2253  140.9653  156.9376 C   0  0  0  0  0  0  0  0  0  0  0  0
  146.7973  138.7605  152.4717 C   0  0  0  0  0  0  0  0  0  0  0  0
  145.7849  137.7534  151.8965 C   0  0  0  0  0  0  0  0  0  0  0  0
  141.7343  138.1034  155.9485 H   0  0  0  0  0  0  0  0  0  0  0  0
  141.8140  138.9407  154.3999 H   0  0  0  0  0  0  0  0  0  0  0  0
  143.0017  139.2930  155.6549 H   0  0  0  0  0  0  0  0  0  0  0  0
  143.8918  136.9529  155.4642 H   0  0  0  0  0  0  0  0  0  0  0  0
  142.7158  136.6040  154.2025 H   0  0  0  0  0  0  0  0  0  0  0  0
  144.4082  136.2387  152.5463 H   0  0  0  0  0  0  0  0  0  0  0  0
  145.5252  135.8840  154.8060 H   0  0  0  0  0  0  0  0  0  0  0  0
  146.5869  135.5948  153.4597 H   0  0  0  0  0  0  0  0  0  0  0  0
  146.5006  138.1622  155.1244 H   0  0  0  0  0  0  0  0  0  0  0  0
  147.7298  136.9191  155.1809 H   0  0  0  0  0  0  0  0  0  0  0  0
  149.3772  139.3986  153.0194 H   0  0  0  0  0  0  0  0  0  0  0  0
  148.3383  139.9127  154.3226 H   0  0  0  0  0  0  0  0  0  0  0  0
  149.2905  138.1791  155.8170 H   0  0  0  0  0  0  0  0  0  0  0  0
  149.6574  136.9078  153.6192 H   0  0  0  0  0  0  0  0  0  0  0  0
  151.7029  138.7842  155.8229 H   0  0  0  0  0  0  0  0  0  0  0  0
  151.5695  139.4602  154.2168 H   0  0  0  0  0  0  0  0  0  0  0  0
  149.2126  141.4957  154.3668 H   0  0  0  0  0  0  0  0  0  0  0  0
  150.6136  143.9135  158.5810 H   0  0  0  0  0  0  0  0  0  0  0  0
  153.4348  143.3045  160.4897 H   0  0  0  0  0  0  0  0  0  0  0  0
  152.1488  142.4868  161.3908 H   0  0  0  0  0  0  0  0  0  0  0  0
  151.8304  144.0260  160.5973 H   0  0  0  0  0  0  0  0  0  0  0  0
  153.8463  139.4462  159.5336 H   0  0  0  0  0  0  0  0  0  0  0  0
  153.0567  140.2530  160.8859 H   0  0  0  0  0  0  0  0  0  0  0  0
  154.3849  141.0488  160.0281 H   0  0  0  0  0  0  0  0  0  0  0  0
  152.5547  139.3787  157.5726 H   0  0  0  0  0  0  0  0  0  0  0  0
  146.2756  139.5684  152.9873 H   0  0  0  0  0  0  0  0  0  0  0  0
  147.3493  139.2159  151.6487 H   0  0  0  0  0  0  0  0  0  0  0  0
  146.3116  137.0284  151.2745 H   0  0  0  0  0  0  0  0  0  0  0  0
  145.0816  138.2657  151.2390 H   0  0  0  0  0  0  0  0  0  0  0  0
  148.2157  137.3867  152.8753 H   0  0  0  0  0  0  0  0  0  0  0  0
  149.2616  143.3956  156.0938 H   0  0  0  0  0  0  0  0  0  0  0  0
  1  2  1  0  0  0  0
  1 25  1  0  0  0  0
  1 26  1  0  0  0  0
  1 27  1  0  0  0  0
  2  3  1  0  0  0  0
  2 28  1  0  0  0  0
  2 29  1  0  0  0  0
  3  4  1  0  0  0  0
  4 24  1  0  0  0  0
  4  5  1  0  0  0  0
  4 30  1  0  0  0  0
  5  6  1  0  0  0  0
  5 31  1  0  0  0  0
  5 32  1  0  0  0  0
  6  7  1  0  0  0  0
  6 33  1  0  0  0  0
  6 34  1  0  0  0  0
  7  8  1  0  0  0  0
  7 23  1  0  0  0  0
  7 54  1  0  0  0  0
  8  9  1  0  0  0  0
  8 35  1  0  0  0  0
  8 36  1  0  0  0  0
  9 10  1  0  0  0  0
  9 11  1  0  0  0  0
  9 37  1  0  0  0  0
 10 38  1  0  0  0  0
 11 12  1  0  0  0  0
 11 39  1  0  0  0  0
 11 40  1  0  0  0  0
 12 22  1  0  0  0  0
 12 13  1  0  0  0  0
 13 14  2  0  0  0  0
 13 41  1  0  0  0  0
 14 15  1  0  0  0  0
 14 55  1  0  0  0  0
 15 22  2  0  0  0  0
 15 16  1  0  0  0  0
 16 17  2  0  0  0  0
 16 42  1  0  0  0  0
 17 18  1  0  0  0  0
 17 19  1  0  0  0  0
 18 43  1  0  0  0  0
 18 44  1  0  0  0  0
 18 45  1  0  0  0  0
 19 20  1  0  0  0  0
 19 21  2  0  0  0  0
 20 46  1  0  0  0  0
 20 47  1  0  0  0  0
 20 48  1  0  0  0  0
 21 22  1  0  0  0  0
 21 49  1  0  0  0  0
 23 24  1  0  0  0  0
 23 50  1  0  0  0  0
 23 51  1  0  0  0  0
 24 52  1  0  0  0  0
 24 53  1  0  0  0  0
M  CHG  1   7   1
M  CHG  1  14   1
M  END
> <s_m_source_file>
AV-unprocessed.smi

> <i_m_source_file_index>
1697

> <i_lp_mmshare_version>
43012

> <i_f3d_flags>
0

> <s_epik_input>
W0NIM11bQ0gyXU9bQ0hdMVtDSDJdW0NIMl1OKFtDSDJdW0NIMl0xKVtDSDJdW0NASF0oW09IXSlbQ0gyXW4oW2NIXW4yKWMoYzIzKVtjSF1jKFtDSDNdKWMoW2NIXTMpW0NIM10=

> <s_epik_cmdline>
J2VwaWtfcHl0aG9uJywgJy1waCcsICc3LjAnLCAnLXRuJywgJzgnLCAnLW1hJywgJzIwMCcsICctbWV0YWxfYmluZGluZycsICctaW1hZScsICc8aW5maWxlLm1hZT4nLCAnLW9tYWUnLCAnPG91dGZpbGUubWFlPic=

> <r_epik_Ionization_Penalty>
1.20016

> <r_epik_Ionization_Penalty_Charging>
1.20016

> <r_epik_Ionization_Penalty_Neutral>
1.70998e-06

> <r_epik_State_Penalty>
1.27959

> <r_epik_Charging_Adjusted_Penalty>
2.47975

> <i_epik_Tot_Q>
2

> <i_epik_Tot_abs_Q>
2

> <r_epik_Metal_State_Penalty>
5.29682

> <b_epik_Metal_Only>
0

> <s_lp_Force_Field>
OPLS_2005

> <r_lp_Energy>
32.2175

> <b_lp_Chiralities_Consistent>
1

> <s_lp_Variant>
AV-unprocessed.smi:1697-8

> <Gold.Version>
5.8.1

> <Gold.Id.Protein>
6NUR|6NUR_protein|mol2

> <Gold.PLP.Fitness>
55.6576

> <Gold.PLP.PLP>
-40.8264

> <Gold.PLP.part.hbond>
-3.5032

> <Gold.PLP.part.metal>
0.0000

> <Gold.PLP.part.buried>
-3.0060

> <Gold.PLP.part.nonpolar>
-36.7699

> <Gold.PLP.part.repulsive>
0.8027

> <Gold.PLP.ligand.clash>
0.0000

> <Gold.PLP.ligand.torsion>
0.1111

> <Gold.PLP.Chemscore.Hbond>
5.0000

> <Gold.PLP.Chemscore.CHOScore>
0.0000

> <Gold.PLP.Chemscore.Metal>
0.0000

> <Gold.Chemscore.Hbonds>
donor molecule, donor type, donor heavy atom, donor atom, acceptor molecule, acceptor atom, score
      L1  H     7    54       P1  7948  2.00
      L1  H    10    38       P1  7948  1.00
      L1  H    14    55       P1  8028  1.56

> <Gold.PLP.Chemscore.Internal.Correction>
0.0534

> <Gold.Rescore>
     Score         DG    S(hbond)    S(metal)    S(lipo)     H(rot)  DE(clash)    DE(int)     intcor
     20.40     -20.68       2.75        0.00     102.69       2.35       0.16       0.12       ----

> <Gold.Chemscore.Fitness>
20.4009

> <Gold.Chemscore.DG>
-20.6819

> <Gold.Chemscore.ZeroCoef>
-5.4800

> <Gold.Chemscore.Hbond>
2.7529

> <Gold.Chemscore.Metal>
0.0000

> <Gold.Chemscore.Lipo>
102.6909

> <Gold.Chemscore.Internal_Hbond>
0.0000

> <Gold.Chemscore.DEClash>
0.1566

> <Gold.Chemscore.DEInternal>
0.1244

> <Gold.Chemscore.Rot>
2.3468

> <Gold.Chemscore.Internal.Correction>
   9.000000E+99

> <Gold.Chemscore.Hbonds>
donor molecule, donor type, donor heavy atom, donor atom, acceptor molecule, acceptor atom, score
      L1  H     7    54       P1  7948  1.00
      L1  H    10    38       P1  7948  0.68
      L1  H    14    55       P1  8028  0.76

> <Gold.Chemscore.Hbond.Weighted>
-9.1948

> <Gold.Chemscore.Metal.Weighted>
-0.0000

> <Gold.Chemscore.Lipo.Weighted>
-12.0148

> <Gold.Chemscore.Internal_Hbond.Weighted>
0.0000

> <Gold.Chemscore.DEClash.Weighted>
0.1566

> <Gold.Chemscore.DEInternal.Weighted>
0.1244

> <Gold.Chemscore.Rot.Weighted>
6.0077

> <Gold.Chemscore.Internal.Correction.Weighted>
   9.000000E+99

> <Gold.Protein.RotatedTorsions>
[ 6907 6896 6895 6894 ] final   61.35 input  -60.11 | X-H torsion
[ 7974 7965 7964 7962 ] final   -9.35 input  175.53 | X-H torsion
[ 8008 7997 7996 7995 ] final   60.75 input   59.86 | X-H torsion
[ 10167 10162 10161 10158 ] final  157.66 input  -65.29 | X-H torsion
[ 10718 10713 10712 10709 ] final -131.96 input   66.30 | X-H torsion
[ 10763 10752 10751 10750 ] final -116.97 input  -60.55 | X-H torsion
[ 11005 11000 10999 10996 ] final  137.11 input  -57.11 | X-H torsion

> <Gold.Protein.ActiveResidues>
 VAL166  LYS551  ARG553  GLY616  TRP617  ASP618  TYR619  PRO620  LYS621  CYS622 
 ASP623  PHE694  ASN695  SER759  ASP760  ASP761  ALA762  ILE779  LEU786  VAL792 
 PHE793  MET794  SER795  GLU796  ALA797  LYS798  CYS799  TRP800  GLU811  SER814 

> <Gold.Protein.RotatedAtoms>
  152.4081  134.6172  160.0040 H   0  0  0  0  0  0  0  0  0  0  0  0  # atno 6907 bound_to 6896
  151.6357  133.3323  159.3127 H   0  0  0  0  0  0  0  0  0  0  0  0  # atno 6908 bound_to 6896
  150.7974  134.7085  159.6635 H   0  0  0  0  0  0  0  0  0  0  0  0  # atno 6909 bound_to 6896
  146.2254  140.2603  142.8351 H   0  0  0  0  0  0  0  0  0  0  0  0  # atno 7974 bound_to 7965
  155.5873  140.3492  155.4556 H   0  0  0  0  0  0  0  0  0  0  0  0  # atno 8008 bound_to 7997
  156.0328  140.1278  157.0264 H   0  0  0  0  0  0  0  0  0  0  0  0  # atno 8009 bound_to 7997
  154.4359  140.1040  156.6110 H   0  0  0  0  0  0  0  0  0  0  0  0  # atno 8010 bound_to 7997
  139.4824  144.4896  151.8327 H   0  0  0  0  0  0  0  0  0  0  0  0  # atno 10167 bound_to 10162
  156.2297  130.7030  151.0845 H   0  0  0  0  0  0  0  0  0  0  0  0  # atno 10718 bound_to 10713
  154.8538  135.4326  154.1905 H   0  0  0  0  0  0  0  0  0  0  0  0  # atno 10763 bound_to 10752
  153.2974  135.6966  153.7241 H   0  0  0  0  0  0  0  0  0  0  0  0  # atno 10764 bound_to 10752
  153.6384  135.3472  155.3038 H   0  0  0  0  0  0  0  0  0  0  0  0  # atno 10765 bound_to 10752
  140.0092  134.9446  157.0241 H   0  0  0  0  0  0  0  0  0  0  0  0  # atno 11005 bound_to 11000
  144.9345  140.8011  143.5669 LP  0  0  0  0  0  0  0  0  0  0  0  0  # atno 17320 bound_to 7965
  145.2549  139.2016  143.4923 LP  0  0  0  0  0  0  0  0  0  0  0  0  # atno 17321 bound_to 7965
  140.4379  144.2026  150.5890 LP  0  0  0  0  0  0  0  0  0  0  0  0  # atno 17342 bound_to 10162
  140.4713  143.2412  151.9085 LP  0  0  0  0  0  0  0  0  0  0  0  0  # atno 17343 bound_to 10162
  157.7127  131.0726  150.6441 LP  0  0  0  0  0  0  0  0  0  0  0  0  # atno 17370 bound_to 10713
  156.6508  130.4484  149.5720 LP  0  0  0  0  0  0  0  0  0  0  0  0  # atno 17371 bound_to 10713
  140.4585  134.1508  155.7189 LP  0  0  0  0  0  0  0  0  0  0  0  0  # atno 17394 bound_to 11000
  141.1699  133.8630  157.1603 LP  0  0  0  0  0  0  0  0  0  0  0  0  # atno 17395 bound_to 11000

$$$$
