AV-unprocessed.smi:1793|AV-procd|sdf|7230|dock3
  -GOLD-   22720 8473D 1   1.00000     0.00000
 Structure written by MMmdl.
 47 49  0  0  0  0  0  0  0  0  2 V2000
  151.9354  137.7743  155.2016 C   0  0  0  0  0  0  0  0  0  0  0  0
  150.4257  137.8580  154.9349 C   0  0  2  0  0  0  0  0  0  0  0  0
  150.0108  136.7056  154.1375 N   0  0  0  0  0  0  0  0  0  0  0  0
  150.1110  135.4228  154.5115 C   0  0  0  0  0  0  0  0  0  0  0  0
  150.6561  135.0461  155.5489 O   0  0  0  0  0  0  0  0  0  0  0  0
  149.5099  134.6129  153.6268 N   0  0  0  0  0  0  0  0  0  0  0  0
  149.2600  133.2249  153.7920 C   0  0  0  0  0  0  0  0  0  0  0  0
  150.1279  132.4289  154.5799 C   0  0  0  0  0  0  0  0  0  0  0  0
  149.9110  131.0413  154.6750 C   0  0  0  0  0  0  0  0  0  0  0  0
  148.8377  130.4711  153.9683 C   0  0  0  0  0  0  0  0  0  0  0  0
  148.0345  131.2570  153.2209 N   0  3  0  0  0  0  0  0  0  0  0  0
  148.1819  132.6003  153.1021 C   0  0  0  0  0  0  0  0  0  0  0  0
  147.2504  133.3046  152.3056 N   0  0  0  0  0  0  0  0  0  0  0  0
  146.3497  132.5846  151.4129 C   0  0  0  0  0  0  0  0  0  0  0  0
  145.2775  133.6009  151.0286 C   0  0  0  0  0  0  0  0  0  0  0  0
  145.1280  134.4201  152.3071 C   0  0  0  0  0  0  0  0  0  0  0  0
  146.5430  134.4386  152.8939 C   0  0  0  0  0  0  0  0  0  0  0  0
  150.0317  139.1849  154.2465 C   0  0  1  0  0  0  0  0  0  0  0  0
  148.5401  139.5443  154.2681 C   0  0  0  0  0  0  0  0  0  0  0  0
  148.5868  141.0503  154.1504 C   0  0  0  0  0  0  0  0  0  0  0  0
  149.8006  141.3859  155.0096 C   0  0  0  0  0  0  0  0  0  0  0  0
  150.6983  140.2908  154.8538 O   0  0  0  0  0  0  0  0  0  0  0  0
  152.2689  138.6038  155.8257 H   0  0  0  0  0  0  0  0  0  0  0  0
  152.5093  137.8043  154.2746 H   0  0  0  0  0  0  0  0  0  0  0  0
  152.1915  136.8501  155.7208 H   0  0  0  0  0  0  0  0  0  0  0  0
  149.9295  137.8208  155.9065 H   0  0  0  0  0  0  0  0  0  0  0  0
  149.5542  136.9092  153.2605 H   0  0  0  0  0  0  0  0  0  0  0  0
  149.0234  135.0630  152.8653 H   0  0  0  0  0  0  0  0  0  0  0  0
  150.9685  132.8678  155.0970 H   0  0  0  0  0  0  0  0  0  0  0  0
  150.5657  130.4235  155.2721 H   0  0  0  0  0  0  0  0  0  0  0  0
  148.5986  129.4175  153.9763 H   0  0  0  0  0  0  0  0  0  0  0  0
  146.8768  132.2014  150.5386 H   0  0  0  0  0  0  0  0  0  0  0  0
  145.8868  131.7447  151.9328 H   0  0  0  0  0  0  0  0  0  0  0  0
  145.6379  134.2370  150.2189 H   0  0  0  0  0  0  0  0  0  0  0  0
  144.3453  133.1355  150.7072 H   0  0  0  0  0  0  0  0  0  0  0  0
  144.7298  135.4199  152.1305 H   0  0  0  0  0  0  0  0  0  0  0  0
  144.4525  133.9066  152.9929 H   0  0  0  0  0  0  0  0  0  0  0  0
  146.5197  134.3869  153.9833 H   0  0  0  0  0  0  0  0  0  0  0  0
  147.0527  135.3590  152.6077 H   0  0  0  0  0  0  0  0  0  0  0  0
  150.3663  139.1621  153.2082 H   0  0  0  0  0  0  0  0  0  0  0  0
  147.9793  139.0718  153.4611 H   0  0  0  0  0  0  0  0  0  0  0  0
  148.0701  139.2695  155.2127 H   0  0  0  0  0  0  0  0  0  0  0  0
  148.7654  141.3412  153.1144 H   0  0  0  0  0  0  0  0  0  0  0  0
  147.6734  141.5381  154.4924 H   0  0  0  0  0  0  0  0  0  0  0  0
  150.2668  142.3294  154.7252 H   0  0  0  0  0  0  0  0  0  0  0  0
  149.5153  141.4514  156.0599 H   0  0  0  0  0  0  0  0  0  0  0  0
  147.2621  130.8134  152.7236 H   0  0  0  0  0  0  0  0  0  0  0  0
  1  2  1  0  0  0  0
  1 23  1  0  0  0  0
  1 24  1  0  0  0  0
  1 25  1  0  0  0  0
  2  3  1  0  0  0  0
  2 18  1  0  0  0  0
  2 26  1  0  0  0  0
  3  4  1  0  0  0  0
  3 27  1  0  0  0  0
  4  5  2  0  0  0  0
  4  6  1  0  0  0  0
  6  7  1  0  0  0  0
  6 28  1  0  0  0  0
  7 12  1  0  0  0  0
  7  8  2  0  0  0  0
  8  9  1  0  0  0  0
  8 29  1  0  0  0  0
  9 10  2  0  0  0  0
  9 30  1  0  0  0  0
 10 11  1  0  0  0  0
 10 31  1  0  0  0  0
 11 12  2  0  0  0  0
 11 47  1  0  0  0  0
 12 13  1  0  0  0  0
 13 17  1  0  0  0  0
 13 14  1  0  0  0  0
 14 15  1  0  0  0  0
 14 32  1  0  0  0  0
 14 33  1  0  0  0  0
 15 16  1  0  0  0  0
 15 34  1  0  0  0  0
 15 35  1  0  0  0  0
 16 17  1  0  0  0  0
 16 36  1  0  0  0  0
 16 37  1  0  0  0  0
 17 38  1  0  0  0  0
 17 39  1  0  0  0  0
 18 22  1  0  0  0  0
 18 19  1  0  0  0  0
 18 40  1  0  0  0  0
 19 20  1  0  0  0  0
 19 41  1  0  0  0  0
 19 42  1  0  0  0  0
 20 21  1  0  0  0  0
 20 43  1  0  0  0  0
 20 44  1  0  0  0  0
 21 22  1  0  0  0  0
 21 45  1  0  0  0  0
 21 46  1  0  0  0  0
M  CHG  1  11   1
M  END
> <s_m_source_file>
AV-unprocessed.smi

> <i_m_source_file_index>
1793

> <i_lp_mmshare_version>
43012

> <i_f3d_flags>
0

> <s_epik_input>
TzFbQ0gyXVtDSDJdW0NIMl1bQ0BIXTFbQ0BIXShbQ0gzXSlbTkhdQyg9TylbTkhdYzJbY0hdW2NIXVtjSF1uYzJOM1tDSDJdW0NIMl1bQ0gyXVtDSDJdMw==

> <s_epik_cmdline>
J2VwaWtfcHl0aG9uJywgJy1waCcsICc3LjAnLCAnLXRuJywgJzgnLCAnLW1hJywgJzIwMCcsICctbWV0YWxfYmluZGluZycsICctaW1hZScsICc8aW5maWxlLm1hZT4nLCAnLW9tYWUnLCAnPG91dGZpbGUubWFlPic=

> <r_lp_tautomer_probability>
0.999994

> <r_epik_Ionization_Penalty>
1.11092

> <r_epik_Ionization_Penalty_Charging>
1.1109

> <r_epik_Ionization_Penalty_Neutral>
1.9363e-05

> <r_epik_State_Penalty>
1.16888

> <r_epik_Charging_Adjusted_Penalty>
2.27978

> <i_epik_Tot_Q>
1

> <i_epik_Tot_abs_Q>
1

> <r_epik_Metal_State_Penalty>
1.25472

> <b_epik_Metal_Only>
0

> <s_lp_Force_Field>
OPLS_2005

> <r_lp_Energy>
52.8031

> <b_lp_Chiralities_Consistent>
1

> <s_lp_Variant>
AV-unprocessed.smi:1793-7

> <Gold.Version>
5.8.1

> <Gold.Id.Protein>
6NUR|6NUR_protein|mol2

> <Gold.PLP.Fitness>
43.3430

> <Gold.PLP.PLP>
-35.5717

> <Gold.PLP.part.hbond>
-3.9301

> <Gold.PLP.part.metal>
0.0000

> <Gold.PLP.part.buried>
-1.7072

> <Gold.PLP.part.nonpolar>
-31.4727

> <Gold.PLP.part.repulsive>
0.3461

> <Gold.PLP.ligand.clash>
0.0000

> <Gold.PLP.ligand.torsion>
0.5803

> <Gold.PLP.Chemscore.Hbond>
2.8400

> <Gold.PLP.Chemscore.CHOScore>
0.0000

> <Gold.PLP.Chemscore.Metal>
0.0000

> <Gold.Chemscore.Hbonds>
donor molecule, donor type, donor heavy atom, donor atom, acceptor molecule, acceptor atom, score
      L1  H     3    27       P1  7948  0.88
      L1  H     6    28       P1  7948  0.61
      P1  H  7989  7998       L1    22  0.95

> <Gold.PLP.Chemscore.Internal.Correction>
0.4120

> <Gold.Rescore>
     Score         DG    S(hbond)    S(metal)    S(lipo)     H(rot)  DE(clash)    DE(int)     intcor
     14.01     -16.69       1.76        0.00      75.76       1.38       0.23       2.45       ----

> <Gold.Chemscore.Fitness>
14.0093

> <Gold.Chemscore.DG>
-16.6928

> <Gold.Chemscore.ZeroCoef>
-5.4800

> <Gold.Chemscore.Hbond>
1.7611

> <Gold.Chemscore.Metal>
0.0000

> <Gold.Chemscore.Lipo>
75.7609

> <Gold.Chemscore.Internal_Hbond>
0.0000

> <Gold.Chemscore.DEClash>
0.2345

> <Gold.Chemscore.DEInternal>
2.4489

> <Gold.Chemscore.Rot>
1.3802

> <Gold.Chemscore.Internal.Correction>
   9.000000E+99

> <Gold.Chemscore.Hbonds>
donor molecule, donor type, donor heavy atom, donor atom, acceptor molecule, acceptor atom, score
      L1  H     3    27       P1  7948  0.64
      L1  H     6    28       P1  7948  0.06
      P1  H  7989  7998       L1    22  0.05

> <Gold.Chemscore.Hbond.Weighted>
-5.8820

> <Gold.Chemscore.Metal.Weighted>
-0.0000

> <Gold.Chemscore.Lipo.Weighted>
-8.8640

> <Gold.Chemscore.Internal_Hbond.Weighted>
0.0000

> <Gold.Chemscore.DEClash.Weighted>
0.2345

> <Gold.Chemscore.DEInternal.Weighted>
2.4489

> <Gold.Chemscore.Rot.Weighted>
3.5332

> <Gold.Chemscore.Internal.Correction.Weighted>
   9.000000E+99

> <Gold.Protein.RotatedTorsions>
[ 6907 6896 6895 6894 ] final -170.66 input  -60.11 | X-H torsion
[ 7974 7965 7964 7962 ] final   75.61 input  175.53 | X-H torsion
[ 8008 7997 7996 7995 ] final  -28.82 input   59.86 | X-H torsion
[ 10167 10162 10161 10158 ] final   77.80 input  -65.29 | X-H torsion
[ 10718 10713 10712 10709 ] final   45.65 input   66.30 | X-H torsion
[ 10763 10752 10751 10750 ] final -163.58 input  -60.55 | X-H torsion
[ 11005 11000 10999 10996 ] final   77.25 input  -57.11 | X-H torsion

> <Gold.Protein.ActiveResidues>
 VAL166  LYS551  ARG553  GLY616  TRP617  ASP618  TYR619  PRO620  LYS621  CYS622 
 ASP623  PHE694  ASN695  SER759  ASP760  ASP761  ALA762  ILE779  LEU786  VAL792 
 PHE793  MET794  SER795  GLU796  ALA797  LYS798  CYS799  TRP800  GLU811  SER814 

> <Gold.Protein.RotatedAtoms>
  151.5113  133.3484  159.2885 H   0  0  0  0  0  0  0  0  0  0  0  0  # atno 6907 bound_to 6896
  150.8710  134.8086  159.7166 H   0  0  0  0  0  0  0  0  0  0  0  0  # atno 6908 bound_to 6896
  152.4698  134.4997  159.9772 H   0  0  0  0  0  0  0  0  0  0  0  0  # atno 6909 bound_to 6896
  145.7134  139.2622  143.1638 H   0  0  0  0  0  0  0  0  0  0  0  0  # atno 7974 bound_to 7965
  154.4316  140.1835  156.1149 H   0  0  0  0  0  0  0  0  0  0  0  0  # atno 8008 bound_to 7997
  156.0188  140.3343  155.6992 H   0  0  0  0  0  0  0  0  0  0  0  0  # atno 8009 bound_to 7997
  155.6005  140.0640  157.2725 H   0  0  0  0  0  0  0  0  0  0  0  0  # atno 8010 bound_to 7997
  139.9777  144.5849  150.7928 H   0  0  0  0  0  0  0  0  0  0  0  0  # atno 10167 bound_to 10162
  157.4398  130.8074  149.7683 H   0  0  0  0  0  0  0  0  0  0  0  0  # atno 10718 bound_to 10713
  154.7109  135.3006  154.9198 H   0  0  0  0  0  0  0  0  0  0  0  0  # atno 10763 bound_to 10752
  154.0100  135.6696  153.4769 H   0  0  0  0  0  0  0  0  0  0  0  0  # atno 10764 bound_to 10752
  153.0754  135.5037  154.8307 H   0  0  0  0  0  0  0  0  0  0  0  0  # atno 10765 bound_to 10752
  139.9263  134.7667  156.1498 H   0  0  0  0  0  0  0  0  0  0  0  0  # atno 11005 bound_to 11000
  146.0692  140.7887  142.9696 LP  0  0  0  0  0  0  0  0  0  0  0  0  # atno 17320 bound_to 7965
  144.6936  140.3316  143.7215 LP  0  0  0  0  0  0  0  0  0  0  0  0  # atno 17321 bound_to 7965
  140.7500  143.2948  151.3235 LP  0  0  0  0  0  0  0  0  0  0  0  0  # atno 17342 bound_to 10162
  139.6433  144.0498  152.2571 LP  0  0  0  0  0  0  0  0  0  0  0  0  # atno 17343 bound_to 10162
  155.9944  130.3918  150.2860 LP  0  0  0  0  0  0  0  0  0  0  0  0  # atno 17370 bound_to 10713
  157.1023  131.0199  151.3080 LP  0  0  0  0  0  0  0  0  0  0  0  0  # atno 17371 bound_to 10713
  141.0822  133.6749  156.2360 LP  0  0  0  0  0  0  0  0  0  0  0  0  # atno 17394 bound_to 11000
  140.6328  134.5246  157.5561 LP  0  0  0  0  0  0  0  0  0  0  0  0  # atno 17395 bound_to 11000

$$$$
