AV-unprocessed.smi:1830|AV-procd|sdf|7437|dock7
  -GOLD-   22720 9123D 1   1.00000     0.00000
 Structure written by MMmdl.
 53 56  0  0  0  0  0  0  0  0  2 V2000
  147.0480  132.6492  159.0105 O   0  0  0  0  0  0  0  0  0  0  0  0
  147.6203  133.5429  158.3863 C   0  0  0  0  0  0  0  0  0  0  0  0
  147.9243  133.4532  157.0841 N   0  0  0  0  0  0  0  0  0  0  0  0
  147.6171  132.3084  156.2330 C   0  0  0  0  0  0  0  0  0  0  0  0
  147.0147  132.7377  154.8833 C   0  0  1  0  0  0  0  0  0  0  0  0
  147.8431  133.8512  154.2147 C   0  0  0  0  0  0  0  0  0  0  0  0
  147.3394  134.1761  152.8597 N   0  3  2  0  0  0  0  0  0  0  0  0
  146.1606  135.0679  152.7905 C   0  0  0  0  0  0  0  0  0  0  0  0
  145.3819  134.6575  151.5306 C   0  0  0  0  0  0  0  0  0  0  0  0
  146.2247  133.5629  150.8679 C   0  0  0  0  0  0  0  0  0  0  0  0
  147.0700  132.9975  152.0105 C   0  0  2  0  0  0  0  0  0  0  0  0
  146.3270  131.8928  152.7960 C   0  0  0  0  0  0  0  0  0  0  0  0
  147.0024  131.6112  154.0139 O   0  0  0  0  0  0  0  0  0  0  0  0
  148.0052  134.7245  158.8966 N   0  0  0  0  0  0  0  0  0  0  0  0
  147.8455  135.2082  160.2270 C   0  0  0  0  0  0  0  0  0  0  0  0
  147.5674  134.3360  161.3085 C   0  0  0  0  0  0  0  0  0  0  0  0
  147.3992  134.8666  162.5988 C   0  0  0  0  0  0  0  0  0  0  0  0
  147.5186  136.2558  162.7662 C   0  0  0  0  0  0  0  0  0  0  0  0
  147.8030  137.0972  161.7527 N   0  0  0  0  0  0  0  0  0  0  0  0
  147.9835  136.5994  160.5044 C   0  0  0  0  0  0  0  0  0  0  0  0
  148.3006  137.5302  159.4879 N   0  0  0  0  0  0  0  0  0  0  0  0
  147.3117  137.7736  158.4417 C   0  0  0  0  0  0  0  0  0  0  0  0
  148.0969  137.9933  157.1440 C   0  0  0  0  0  0  0  0  0  0  0  0
  149.4910  138.3824  157.6257 C   0  0  0  0  0  0  0  0  0  0  0  0
  149.6361  137.5566  158.9004 C   0  0  0  0  0  0  0  0  0  0  0  0
  148.3926  134.2340  156.6476 H   0  0  0  0  0  0  0  0  0  0  0  0
  148.5250  131.7239  156.0738 H   0  0  0  0  0  0  0  0  0  0  0  0
  146.9218  131.6591  156.7659 H   0  0  0  0  0  0  0  0  0  0  0  0
  145.9941  133.0890  155.0437 H   0  0  0  0  0  0  0  0  0  0  0  0
  147.8597  134.7517  154.8300 H   0  0  0  0  0  0  0  0  0  0  0  0
  148.8779  133.5213  154.1150 H   0  0  0  0  0  0  0  0  0  0  0  0
  145.5283  134.9588  153.6724 H   0  0  0  0  0  0  0  0  0  0  0  0
  146.4877  136.1069  152.7450 H   0  0  0  0  0  0  0  0  0  0  0  0
  144.4062  134.2599  151.8133 H   0  0  0  0  0  0  0  0  0  0  0  0
  145.2100  135.4990  150.8589 H   0  0  0  0  0  0  0  0  0  0  0  0
  145.6210  132.8074  150.3637 H   0  0  0  0  0  0  0  0  0  0  0  0
  146.8795  134.0132  150.1203 H   0  0  0  0  0  0  0  0  0  0  0  0
  148.0146  132.5982  151.6389 H   0  0  0  0  0  0  0  0  0  0  0  0
  145.2952  132.1770  153.0096 H   0  0  0  0  0  0  0  0  0  0  0  0
  146.2801  130.9808  152.2004 H   0  0  0  0  0  0  0  0  0  0  0  0
  148.3700  135.3954  158.2366 H   0  0  0  0  0  0  0  0  0  0  0  0
  147.4875  133.2685  161.1727 H   0  0  0  0  0  0  0  0  0  0  0  0
  147.1815  134.2237  163.4388 H   0  0  0  0  0  0  0  0  0  0  0  0
  147.3908  136.7036  163.7406 H   0  0  0  0  0  0  0  0  0  0  0  0
  146.6038  136.9493  158.3440 H   0  0  0  0  0  0  0  0  0  0  0  0
  146.7514  138.6746  158.6914 H   0  0  0  0  0  0  0  0  0  0  0  0
  148.1511  137.0579  156.5857 H   0  0  0  0  0  0  0  0  0  0  0  0
  147.6442  138.7451  156.4969 H   0  0  0  0  0  0  0  0  0  0  0  0
  150.2713  138.1747  156.8931 H   0  0  0  0  0  0  0  0  0  0  0  0
  149.5206  139.4466  157.8639 H   0  0  0  0  0  0  0  0  0  0  0  0
  150.3639  137.9923  159.5853 H   0  0  0  0  0  0  0  0  0  0  0  0
  149.9665  136.5497  158.6427 H   0  0  0  0  0  0  0  0  0  0  0  0
  148.0757  134.6866  152.3930 H   0  0  0  0  0  0  0  0  0  0  0  0
  1  2  2  0  0  0  0
  2  3  1  0  0  0  0
  2 14  1  0  0  0  0
  3  4  1  0  0  0  0
  3 26  1  0  0  0  0
  4  5  1  0  0  0  0
  4 27  1  0  0  0  0
  4 28  1  0  0  0  0
  5 13  1  0  0  0  0
  5  6  1  0  0  0  0
  5 29  1  0  0  0  0
  6  7  1  0  0  0  0
  6 30  1  0  0  0  0
  6 31  1  0  0  0  0
  7 11  1  0  0  0  0
  7  8  1  0  0  0  0
  7 53  1  0  0  0  0
  8  9  1  0  0  0  0
  8 32  1  0  0  0  0
  8 33  1  0  0  0  0
  9 10  1  0  0  0  0
  9 34  1  0  0  0  0
  9 35  1  0  0  0  0
 10 11  1  0  0  0  0
 10 36  1  0  0  0  0
 10 37  1  0  0  0  0
 11 12  1  0  0  0  0
 11 38  1  0  0  0  0
 12 13  1  0  0  0  0
 12 39  1  0  0  0  0
 12 40  1  0  0  0  0
 14 15  1  0  0  0  0
 14 41  1  0  0  0  0
 15 20  1  0  0  0  0
 15 16  2  0  0  0  0
 16 17  1  0  0  0  0
 16 42  1  0  0  0  0
 17 18  2  0  0  0  0
 17 43  1  0  0  0  0
 18 19  1  0  0  0  0
 18 44  1  0  0  0  0
 19 20  2  0  0  0  0
 20 21  1  0  0  0  0
 21 25  1  0  0  0  0
 21 22  1  0  0  0  0
 22 23  1  0  0  0  0
 22 45  1  0  0  0  0
 22 46  1  0  0  0  0
 23 24  1  0  0  0  0
 23 47  1  0  0  0  0
 23 48  1  0  0  0  0
 24 25  1  0  0  0  0
 24 49  1  0  0  0  0
 24 50  1  0  0  0  0
 25 51  1  0  0  0  0
 25 52  1  0  0  0  0
M  CHG  1   7   1
M  END
> <s_m_source_file>
AV-unprocessed.smi

> <i_m_source_file_index>
1830

> <i_lp_mmshare_version>
43012

> <i_f3d_flags>
0

> <s_epik_input>
W0NIMl0xW0NIMl1bQ0gyXVtDQEhdKE4xMilbQ0gyXU9bQ0BASF0oW0NIMl0yKVtDSDJdW05IXUMoPU8pW05IXWMzW2NIXVtjSF1bY0hdbmMzTjRbQ0gyXVtDSDJdW0NIMl1bQ0gyXTQ=

> <s_epik_cmdline>
J2VwaWtfcHl0aG9uJywgJy1waCcsICc3LjAnLCAnLXRuJywgJzgnLCAnLW1hJywgJzIwMCcsICctbWV0YWxfYmluZGluZycsICctaW1hZScsICc8aW5maWxlLm1hZT4nLCAnLW9tYWUnLCAnPG91dGZpbGUubWFlPic=

> <r_lp_tautomer_probability>
1

> <r_epik_Ionization_Penalty>
0.193547

> <r_epik_Ionization_Penalty_Charging>
0.10673

> <r_epik_Ionization_Penalty_Neutral>
0.0868166

> <r_epik_State_Penalty>
0.173595

> <r_epik_Charging_Adjusted_Penalty>
0.280326

> <i_epik_Tot_Q>
1

> <i_epik_Tot_abs_Q>
1

> <r_epik_Metal_State_Penalty>
0.164683

> <b_epik_Metal_Only>
0

> <s_lp_Force_Field>
OPLS_2005

> <r_lp_Energy>
64.4771

> <b_lp_Chiralities_Consistent>
1

> <s_lp_Variant>
AV-unprocessed.smi:1830-6

> <Gold.Version>
5.8.1

> <Gold.Id.Protein>
6NUR|6NUR_protein|mol2

> <Gold.PLP.Fitness>
44.6807

> <Gold.PLP.PLP>
-35.3134

> <Gold.PLP.part.hbond>
-4.4588

> <Gold.PLP.part.metal>
0.0000

> <Gold.PLP.part.buried>
-4.1174

> <Gold.PLP.part.nonpolar>
-26.3536

> <Gold.PLP.part.repulsive>
0.1872

> <Gold.PLP.ligand.clash>
0.0000

> <Gold.PLP.ligand.torsion>
0.3824

> <Gold.PLP.Chemscore.Hbond>
3.2683

> <Gold.PLP.Chemscore.CHOScore>
0.0000

> <Gold.PLP.Chemscore.Metal>
0.0000

> <Gold.Chemscore.Hbonds>
donor molecule, donor type, donor heavy atom, donor atom, acceptor molecule, acceptor atom, score
      L1  H     7    53       P1  7948  2.00
      P1  H  6931  6943       L1    19  1.00
      P1  H  6934  6947       L1    19  0.26

> <Gold.PLP.Chemscore.Internal.Correction>
0.3271

> <Gold.Rescore>
     Score         DG    S(hbond)    S(metal)    S(lipo)     H(rot)  DE(clash)    DE(int)     intcor
     14.55     -16.25       1.92        0.00      68.00       1.41       0.07       1.63       ----

> <Gold.Chemscore.Fitness>
14.5538

> <Gold.Chemscore.DG>
-16.2477

> <Gold.Chemscore.ZeroCoef>
-5.4800

> <Gold.Chemscore.Hbond>
1.9200

> <Gold.Chemscore.Metal>
0.0000

> <Gold.Chemscore.Lipo>
68.0013

> <Gold.Chemscore.Internal_Hbond>
0.0000

> <Gold.Chemscore.DEClash>
0.0650

> <Gold.Chemscore.DEInternal>
1.6289

> <Gold.Chemscore.Rot>
1.4067

> <Gold.Chemscore.Internal.Correction>
   9.000000E+99

> <Gold.Chemscore.Hbonds>
donor molecule, donor type, donor heavy atom, donor atom, acceptor molecule, acceptor atom, score
      L1  H     7    53       P1  7948  0.44
      P1  H  6931  6943       L1    19  0.43
      P1  H  6934  6947       L1    19  0.02

> <Gold.Chemscore.Hbond.Weighted>
-6.4127

> <Gold.Chemscore.Metal.Weighted>
-0.0000

> <Gold.Chemscore.Lipo.Weighted>
-7.9561

> <Gold.Chemscore.Internal_Hbond.Weighted>
0.0000

> <Gold.Chemscore.DEClash.Weighted>
0.0650

> <Gold.Chemscore.DEInternal.Weighted>
1.6289

> <Gold.Chemscore.Rot.Weighted>
3.6011

> <Gold.Chemscore.Internal.Correction.Weighted>
   9.000000E+99

> <Gold.Protein.RotatedTorsions>
[ 6907 6896 6895 6894 ] final  138.00 input  -60.11 | X-H torsion
[ 7974 7965 7964 7962 ] final  142.39 input  175.53 | X-H torsion
[ 8008 7997 7996 7995 ] final -175.29 input   59.86 | X-H torsion
[ 10167 10162 10161 10158 ] final  105.74 input  -65.29 | X-H torsion
[ 10718 10713 10712 10709 ] final -145.24 input   66.30 | X-H torsion
[ 10763 10752 10751 10750 ] final -157.55 input  -60.55 | X-H torsion
[ 11005 11000 10999 10996 ] final  168.75 input  -57.11 | X-H torsion

> <Gold.Protein.ActiveResidues>
 VAL166  LYS551  ARG553  GLY616  TRP617  ASP618  TYR619  PRO620  LYS621  CYS622 
 ASP623  PHE694  ASN695  SER759  ASP760  ASP761  ALA762  ILE779  LEU786  VAL792 
 PHE793  MET794  SER795  GLU796  ALA797  LYS798  CYS799  TRP800  GLU811  SER814 

> <Gold.Protein.RotatedAtoms>
  152.2716  133.5387  159.5442 H   0  0  0  0  0  0  0  0  0  0  0  0  # atno 6907 bound_to 6896
  150.7161  134.0690  159.3866 H   0  0  0  0  0  0  0  0  0  0  0  0  # atno 6908 bound_to 6896
  151.8604  135.0526  160.0519 H   0  0  0  0  0  0  0  0  0  0  0  0  # atno 6909 bound_to 6896
  144.9011  139.5421  143.5753 H   0  0  0  0  0  0  0  0  0  0  0  0  # atno 7974 bound_to 7965
  155.9808  140.1181  157.0728 H   0  0  0  0  0  0  0  0  0  0  0  0  # atno 8008 bound_to 7997
  154.4182  140.1145  156.5500 H   0  0  0  0  0  0  0  0  0  0  0  0  # atno 8009 bound_to 7997
  155.6474  140.3473  155.4738 H   0  0  0  0  0  0  0  0  0  0  0  0  # atno 8010 bound_to 7997
  139.7067  144.7085  151.1094 H   0  0  0  0  0  0  0  0  0  0  0  0  # atno 10167 bound_to 10162
  156.3800  130.7832  151.2023 H   0  0  0  0  0  0  0  0  0  0  0  0  # atno 10718 bound_to 10713
  154.7627  135.3122  154.8347 H   0  0  0  0  0  0  0  0  0  0  0  0  # atno 10763 bound_to 10752
  153.9103  135.6806  153.4755 H   0  0  0  0  0  0  0  0  0  0  0  0  # atno 10764 bound_to 10752
  153.1229  135.4814  154.9157 H   0  0  0  0  0  0  0  0  0  0  0  0  # atno 10765 bound_to 10752
  140.2905  134.7677  157.3835 H   0  0  0  0  0  0  0  0  0  0  0  0  # atno 11005 bound_to 11000
  146.3109  139.7743  142.9020 LP  0  0  0  0  0  0  0  0  0  0  0  0  # atno 17320 bound_to 7965
  145.3614  141.0326  143.3282 LP  0  0  0  0  0  0  0  0  0  0  0  0  # atno 17321 bound_to 7965
  140.7723  143.5348  150.9381 LP  0  0  0  0  0  0  0  0  0  0  0  0  # atno 17342 bound_to 10162
  139.9032  143.6811  152.3128 LP  0  0  0  0  0  0  0  0  0  0  0  0  # atno 17343 bound_to 10162
  157.7491  131.0347  150.4328 LP  0  0  0  0  0  0  0  0  0  0  0  0  # atno 17370 bound_to 10713
  156.4570  130.4024  149.6600 LP  0  0  0  0  0  0  0  0  0  0  0  0  # atno 17371 bound_to 10713
  140.1199  134.5233  155.8192 LP  0  0  0  0  0  0  0  0  0  0  0  0  # atno 17394 bound_to 11000
  141.2147  133.6753  156.6847 LP  0  0  0  0  0  0  0  0  0  0  0  0  # atno 17395 bound_to 11000

$$$$
