AV-unprocessed.smi:1802|AV-procd|sdf|7274|dock4
  -GOLD-   22720 8533D 1   1.00000     0.00000
 Structure written by MMmdl.
 41 42  0  0  0  0  0  0  0  0  2 V2000
  145.5785  128.8075  152.2882 C   0  0  0  0  0  0  0  0  0  0  0  0
  146.1898  130.1006  151.7308 C   0  0  1  0  0  0  0  0  0  0  0  0
  145.1040  131.0504  151.1974 C   0  0  0  0  0  0  0  0  0  0  0  0
  145.7397  132.3440  150.6731 C   0  0  0  0  0  0  0  0  0  0  0  0
  146.6143  133.0031  151.7513 C   0  0  0  0  0  0  0  0  0  0  0  0
  147.6571  132.0642  152.2396 N   0  3  1  0  0  0  0  0  0  0  0  0
  148.6077  132.7148  153.1763 C   0  0  0  0  0  0  0  0  0  0  0  0
  147.9047  133.2835  154.4205 C   0  0  0  0  0  0  0  0  0  0  0  0
  148.8990  133.8885  155.4256 C   0  0  0  0  0  0  0  0  0  0  0  0
  148.2295  134.7442  156.3989 N   0  0  0  0  0  0  0  0  0  0  0  0
  148.4810  134.7453  157.7163 C   0  0  0  0  0  0  0  0  0  0  0  0
  149.3039  133.9987  158.2471 O   0  0  0  0  0  0  0  0  0  0  0  0
  147.7266  135.6547  158.3583 N   0  0  0  0  0  0  0  0  0  0  0  0
  147.7069  135.9583  159.7458 C   0  0  0  0  0  0  0  0  0  0  0  0
  147.6578  137.2080  160.2332 N   0  0  0  0  0  0  0  0  0  0  0  0
  147.6481  137.2243  161.6221 N   0  0  0  0  0  0  0  0  0  0  0  0
  147.6909  135.9882  162.1270 C   0  0  0  0  0  0  0  0  0  0  0  0
  147.7484  134.6829  160.9546 S   0  0  0  0  0  0  0  0  0  0  0  0
  147.0560  130.8178  152.7860 C   0  0  0  0  0  0  0  0  0  0  0  0
  144.9184  129.0110  153.1321 H   0  0  0  0  0  0  0  0  0  0  0  0
  146.3543  128.1215  152.6297 H   0  0  0  0  0  0  0  0  0  0  0  0
  144.9952  128.2893  151.5266 H   0  0  0  0  0  0  0  0  0  0  0  0
  146.8363  129.8240  150.8966 H   0  0  0  0  0  0  0  0  0  0  0  0
  144.5360  130.5676  150.4016 H   0  0  0  0  0  0  0  0  0  0  0  0
  144.3920  131.2868  151.9894 H   0  0  0  0  0  0  0  0  0  0  0  0
  146.3453  132.1256  149.7925 H   0  0  0  0  0  0  0  0  0  0  0  0
  144.9617  133.0360  150.3492 H   0  0  0  0  0  0  0  0  0  0  0  0
  147.0843  133.8935  151.3316 H   0  0  0  0  0  0  0  0  0  0  0  0
  145.9976  133.3331  152.5890 H   0  0  0  0  0  0  0  0  0  0  0  0
  149.3366  131.9769  153.5146 H   0  0  0  0  0  0  0  0  0  0  0  0
  149.1743  133.4901  152.6582 H   0  0  0  0  0  0  0  0  0  0  0  0
  147.1822  134.0481  154.1356 H   0  0  0  0  0  0  0  0  0  0  0  0
  147.3366  132.4863  154.9022 H   0  0  0  0  0  0  0  0  0  0  0  0
  149.4490  133.1004  155.9429 H   0  0  0  0  0  0  0  0  0  0  0  0
  149.6412  134.4887  154.8989 H   0  0  0  0  0  0  0  0  0  0  0  0
  147.5383  135.3885  156.0430 H   0  0  0  0  0  0  0  0  0  0  0  0
  147.0967  136.1993  157.7879 H   0  0  0  0  0  0  0  0  0  0  0  0
  147.6886  135.8446  163.1974 H   0  0  0  0  0  0  0  0  0  0  0  0
  146.4564  131.0596  153.6655 H   0  0  0  0  0  0  0  0  0  0  0  0
  147.8413  130.1400  153.1192 H   0  0  0  0  0  0  0  0  0  0  0  0
  148.1958  131.8003  151.4268 H   0  0  0  0  0  0  0  0  0  0  0  0
  1  2  1  0  0  0  0
  1 20  1  0  0  0  0
  1 21  1  0  0  0  0
  1 22  1  0  0  0  0
  2 19  1  0  0  0  0
  2  3  1  0  0  0  0
  2 23  1  0  0  0  0
  3  4  1  0  0  0  0
  3 24  1  0  0  0  0
  3 25  1  0  0  0  0
  4  5  1  0  0  0  0
  4 26  1  0  0  0  0
  4 27  1  0  0  0  0
  5  6  1  0  0  0  0
  5 28  1  0  0  0  0
  5 29  1  0  0  0  0
  6  7  1  0  0  0  0
  6 19  1  0  0  0  0
  6 41  1  0  0  0  0
  7  8  1  0  0  0  0
  7 30  1  0  0  0  0
  7 31  1  0  0  0  0
  8  9  1  0  0  0  0
  8 32  1  0  0  0  0
  8 33  1  0  0  0  0
  9 10  1  0  0  0  0
  9 34  1  0  0  0  0
  9 35  1  0  0  0  0
 10 11  1  0  0  0  0
 10 36  1  0  0  0  0
 11 12  2  0  0  0  0
 11 13  1  0  0  0  0
 13 14  1  0  0  0  0
 13 37  1  0  0  0  0
 14 18  1  0  0  0  0
 14 15  2  0  0  0  0
 15 16  1  0  0  0  0
 16 17  2  0  0  0  0
 17 18  1  0  0  0  0
 17 38  1  0  0  0  0
 19 39  1  0  0  0  0
 19 40  1  0  0  0  0
M  CHG  1   6   1
M  END
> <s_m_source_file>
AV-unprocessed.smi

> <i_m_source_file_index>
1802

> <i_lp_mmshare_version>
43012

> <i_f3d_flags>
0

> <s_epik_input>
W0NIM11bQ0BASF0xW0NIMl1bQ0gyXVtDSDJdTihbQ0gyXTEpW0NIMl1bQ0gyXVtDSDJdW05IXUMoPU8pW05IXWMybm5bY0hdczI=

> <s_epik_cmdline>
J2VwaWtfcHl0aG9uJywgJy1waCcsICc3LjAnLCAnLXRuJywgJzgnLCAnLW1hJywgJzIwMCcsICctbWV0YWxfYmluZGluZycsICctaW1hZScsICc8aW5maWxlLm1hZT4nLCAnLW9tYWUnLCAnPG91dGZpbGUubWFlPic=

> <r_lp_tautomer_probability>
1

> <r_epik_Ionization_Penalty>
0.00272894

> <r_epik_Ionization_Penalty_Charging>
0.000288442

> <r_epik_Ionization_Penalty_Neutral>
0.0024405

> <r_epik_State_Penalty>
-0

> <r_epik_Charging_Adjusted_Penalty>
0.000288442

> <i_epik_Tot_Q>
1

> <i_epik_Tot_abs_Q>
1

> <r_epik_Metal_State_Penalty>
0.350525

> <b_epik_Metal_Only>
0

> <s_lp_Force_Field>
OPLS_2005

> <r_lp_Energy>
15.2014

> <b_lp_Chiralities_Consistent>
1

> <s_lp_Variant>
AV-unprocessed.smi:1802-4

> <Gold.Version>
5.8.1

> <Gold.Id.Protein>
6NUR|6NUR_protein|mol2

> <Gold.PLP.Fitness>
43.2357

> <Gold.PLP.PLP>
-35.2854

> <Gold.PLP.part.hbond>
-5.4953

> <Gold.PLP.part.metal>
0.0000

> <Gold.PLP.part.buried>
-3.2030

> <Gold.PLP.part.nonpolar>
-25.5900

> <Gold.PLP.part.repulsive>
0.0391

> <Gold.PLP.ligand.clash>
0.0000

> <Gold.PLP.ligand.torsion>
0.5324

> <Gold.PLP.Chemscore.Hbond>
2.9920

> <Gold.PLP.Chemscore.CHOScore>
0.0000

> <Gold.PLP.Chemscore.Metal>
0.0000

> <Gold.Chemscore.Hbonds>
donor molecule, donor type, donor heavy atom, donor atom, acceptor molecule, acceptor atom, score
      L1  H     6    41       P1 10747  1.00
      P1  H  6896  6907       L1    12  1.00
      P1  H  6931  6943       L1    16  0.99

> <Gold.PLP.Chemscore.Internal.Correction>
0.0390

> <Gold.Rescore>
     Score         DG    S(hbond)    S(metal)    S(lipo)     H(rot)  DE(clash)    DE(int)     intcor
     19.03     -19.66       2.79        0.00      84.92       1.98       0.15       0.48       ----

> <Gold.Chemscore.Fitness>
19.0286

> <Gold.Chemscore.DG>
-19.6616

> <Gold.Chemscore.ZeroCoef>
-5.4800

> <Gold.Chemscore.Hbond>
2.7882

> <Gold.Chemscore.Metal>
0.0000

> <Gold.Chemscore.Lipo>
84.9223

> <Gold.Chemscore.Internal_Hbond>
0.0000

> <Gold.Chemscore.DEClash>
0.1531

> <Gold.Chemscore.DEInternal>
0.4800

> <Gold.Chemscore.Rot>
1.9793

> <Gold.Chemscore.Internal.Correction>
   9.000000E+99

> <Gold.Chemscore.Hbonds>
donor molecule, donor type, donor heavy atom, donor atom, acceptor molecule, acceptor atom, score
      L1  H     6    41       P1 10747  1.00
      P1  H  6896  6907       L1    12  0.98
      P1  H  6931  6943       L1    16  0.23

> <Gold.Chemscore.Hbond.Weighted>
-9.3126

> <Gold.Chemscore.Metal.Weighted>
-0.0000

> <Gold.Chemscore.Lipo.Weighted>
-9.9359

> <Gold.Chemscore.Internal_Hbond.Weighted>
0.0000

> <Gold.Chemscore.DEClash.Weighted>
0.1531

> <Gold.Chemscore.DEInternal.Weighted>
0.4800

> <Gold.Chemscore.Rot.Weighted>
5.0670

> <Gold.Chemscore.Internal.Correction.Weighted>
   9.000000E+99

> <Gold.Protein.RotatedTorsions>
[ 6907 6896 6895 6894 ] final -120.88 input  -60.11 | X-H torsion
[ 7974 7965 7964 7962 ] final -112.35 input  175.53 | X-H torsion
[ 8008 7997 7996 7995 ] final  107.07 input   59.86 | X-H torsion
[ 10167 10162 10161 10158 ] final  -85.05 input  -65.29 | X-H torsion
[ 10718 10713 10712 10709 ] final  -84.23 input   66.30 | X-H torsion
[ 10763 10752 10751 10750 ] final -151.96 input  -60.55 | X-H torsion
[ 11005 11000 10999 10996 ] final  -59.24 input  -57.11 | X-H torsion

> <Gold.Protein.ActiveResidues>
 VAL166  LYS551  ARG553  GLY616  TRP617  ASP618  TYR619  PRO620  LYS621  CYS622 
 ASP623  PHE694  ASN695  SER759  ASP760  ASP761  ALA762  ILE779  LEU786  VAL792 
 PHE793  MET794  SER795  GLU796  ALA797  LYS798  CYS799  TRP800  GLU811  SER814 

> <Gold.Protein.RotatedAtoms>
  150.8433  133.7901  159.3052 H   0  0  0  0  0  0  0  0  0  0  0  0  # atno 6907 bound_to 6896
  151.5596  135.1064  159.9979 H   0  0  0  0  0  0  0  0  0  0  0  0  # atno 6908 bound_to 6896
  152.4492  133.7554  159.6773 H   0  0  0  0  0  0  0  0  0  0  0  0  # atno 6909 bound_to 6896
  145.1450  140.8798  143.3679 H   0  0  0  0  0  0  0  0  0  0  0  0  # atno 7974 bound_to 7965
  156.1794  140.3101  155.9121 H   0  0  0  0  0  0  0  0  0  0  0  0  # atno 8008 bound_to 7997
  155.3416  140.0466  157.3062 H   0  0  0  0  0  0  0  0  0  0  0  0  # atno 8009 bound_to 7997
  154.5326  140.2235  155.8788 H   0  0  0  0  0  0  0  0  0  0  0  0  # atno 8010 bound_to 7997
  140.4074  143.2637  151.9062 H   0  0  0  0  0  0  0  0  0  0  0  0  # atno 10167 bound_to 10162
  156.0009  130.4691  150.4377 H   0  0  0  0  0  0  0  0  0  0  0  0  # atno 10718 bound_to 10713
  154.8024  135.3247  154.7515 H   0  0  0  0  0  0  0  0  0  0  0  0  # atno 10763 bound_to 10752
  153.8181  135.6890  153.4835 H   0  0  0  0  0  0  0  0  0  0  0  0  # atno 10764 bound_to 10752
  153.1749  135.4609  154.9896 H   0  0  0  0  0  0  0  0  0  0  0  0  # atno 10765 bound_to 10752
  141.1240  133.6615  156.5042 H   0  0  0  0  0  0  0  0  0  0  0  0  # atno 11005 bound_to 11000
  145.0491  139.3196  143.5937 LP  0  0  0  0  0  0  0  0  0  0  0  0  # atno 17320 bound_to 7965
  146.3501  139.9893  142.8687 LP  0  0  0  0  0  0  0  0  0  0  0  0  # atno 17321 bound_to 7965
  139.4783  144.5571  151.8296 LP  0  0  0  0  0  0  0  0  0  0  0  0  # atno 17342 bound_to 10162
  140.4674  144.1635  150.5913 LP  0  0  0  0  0  0  0  0  0  0  0  0  # atno 17343 bound_to 10162
  157.2421  131.0528  151.2430 LP  0  0  0  0  0  0  0  0  0  0  0  0  # atno 17370 bound_to 10713
  157.3610  130.7131  149.6502 LP  0  0  0  0  0  0  0  0  0  0  0  0  # atno 17371 bound_to 10713
  140.4421  134.7006  157.4997 LP  0  0  0  0  0  0  0  0  0  0  0  0  # atno 17394 bound_to 11000
  140.0222  134.6530  155.9223 LP  0  0  0  0  0  0  0  0  0  0  0  0  # atno 17395 bound_to 11000

$$$$
