AV-unprocessed.smi:1596|AV-procd|sdf|6416|dock10
  -GOLD-   22720 7 53D 1   1.00000     0.00000
 Structure written by MMmdl.
 49 50  0  0  0  0  0  0  0  0  2 V2000
  152.5422  143.0457  160.6205 C   0  0  0  0  0  0  0  0  0  0  0  0
  152.7870  142.5899  159.1740 C   0  0  0  0  0  0  0  0  0  0  0  0
  151.6726  142.8985  158.2745 N   0  0  0  0  0  0  0  0  0  0  0  0
  151.2091  144.2809  158.1537 C   0  0  0  0  0  0  0  0  0  0  0  0
  152.2230  145.3092  158.6766 C   0  0  0  0  0  0  0  0  0  0  0  0
  150.9398  141.8465  157.6723 C   0  0  0  0  0  0  0  0  0  0  0  0
  151.1547  140.4749  157.9602 C   0  0  0  0  0  0  0  0  0  0  0  0
  150.3799  139.4887  157.3156 C   0  0  0  0  0  0  0  0  0  0  0  0
  149.3840  139.8690  156.3928 C   0  0  0  0  0  0  0  0  0  0  0  0
  148.6390  138.8398  155.7554 N   0  0  0  0  0  0  0  0  0  0  0  0
  148.8395  137.5114  155.8013 C   0  0  0  0  0  0  0  0  0  0  0  0
  149.7654  136.9528  156.3891 O   0  0  0  0  0  0  0  0  0  0  0  0
  147.9049  136.8543  155.0993 N   0  0  0  0  0  0  0  0  0  0  0  0
  147.8380  135.4049  154.9356 C   0  0  2  0  0  0  0  0  0  0  0  0
  149.2455  134.8204  154.6942 C   0  0  0  0  0  0  0  0  0  0  0  0
  149.1895  133.3042  154.4457 C   0  0  0  0  0  0  0  0  0  0  0  0
  148.2440  132.9674  153.2800 C   0  0  1  0  0  0  0  0  0  0  0  0
  148.1627  131.5662  153.1279 O   0  0  0  0  0  0  0  0  0  0  0  0
  146.8376  133.5412  153.5245 C   0  0  0  0  0  0  0  0  0  0  0  0
  146.8937  135.0580  153.7690 C   0  0  0  0  0  0  0  0  0  0  0  0
  149.2113  141.2482  156.1299 C   0  0  0  0  0  0  0  0  0  0  0  0
  149.9780  142.1579  156.7687 N   0  3  0  0  0  0  0  0  0  0  0  0
  153.3857  142.7723  161.2542 H   0  0  0  0  0  0  0  0  0  0  0  0
  151.6507  142.5821  161.0432 H   0  0  0  0  0  0  0  0  0  0  0  0
  152.4225  144.1259  160.6889 H   0  0  0  0  0  0  0  0  0  0  0  0
  153.6883  143.0751  158.7986 H   0  0  0  0  0  0  0  0  0  0  0  0
  153.0039  141.5217  159.1485 H   0  0  0  0  0  0  0  0  0  0  0  0
  151.0052  144.4911  157.1034 H   0  0  0  0  0  0  0  0  0  0  0  0
  150.2497  144.4002  158.6565 H   0  0  0  0  0  0  0  0  0  0  0  0
  151.8132  146.3170  158.6074 H   0  0  0  0  0  0  0  0  0  0  0  0
  153.1449  145.2951  158.0970 H   0  0  0  0  0  0  0  0  0  0  0  0
  152.4803  145.1297  159.7204 H   0  0  0  0  0  0  0  0  0  0  0  0
  151.9079  140.1530  158.6626 H   0  0  0  0  0  0  0  0  0  0  0  0
  150.5511  138.4451  157.5356 H   0  0  0  0  0  0  0  0  0  0  0  0
  147.8842  139.1535  155.1628 H   0  0  0  0  0  0  0  0  0  0  0  0
  147.1839  137.3943  154.6435 H   0  0  0  0  0  0  0  0  0  0  0  0
  147.4246  134.9625  155.8442 H   0  0  0  0  0  0  0  0  0  0  0  0
  149.7070  135.3095  153.8350 H   0  0  0  0  0  0  0  0  0  0  0  0
  149.8910  135.0252  155.5492 H   0  0  0  0  0  0  0  0  0  0  0  0
  150.1915  132.9276  154.2372 H   0  0  0  0  0  0  0  0  0  0  0  0
  148.8528  132.8028  155.3544 H   0  0  0  0  0  0  0  0  0  0  0  0
  148.6478  133.3817  152.3552 H   0  0  0  0  0  0  0  0  0  0  0  0
  148.3387  131.3510  152.2246 H   0  0  0  0  0  0  0  0  0  0  0  0
  146.1916  133.3287  152.6718 H   0  0  0  0  0  0  0  0  0  0  0  0
  146.3822  133.0535  154.3878 H   0  0  0  0  0  0  0  0  0  0  0  0
  145.8903  135.4325  153.9761 H   0  0  0  0  0  0  0  0  0  0  0  0
  147.2286  135.5578  152.8588 H   0  0  0  0  0  0  0  0  0  0  0  0
  148.5045  141.6658  155.4291 H   0  0  0  0  0  0  0  0  0  0  0  0
  149.8246  143.1432  156.5535 H   0  0  0  0  0  0  0  0  0  0  0  0
  1  2  1  0  0  0  0
  1 23  1  0  0  0  0
  1 24  1  0  0  0  0
  1 25  1  0  0  0  0
  2  3  1  0  0  0  0
  2 26  1  0  0  0  0
  2 27  1  0  0  0  0
  3  4  1  0  0  0  0
  3  6  1  0  0  0  0
  4  5  1  0  0  0  0
  4 28  1  0  0  0  0
  4 29  1  0  0  0  0
  5 30  1  0  0  0  0
  5 31  1  0  0  0  0
  5 32  1  0  0  0  0
  6 22  1  0  0  0  0
  6  7  2  0  0  0  0
  7  8  1  0  0  0  0
  7 33  1  0  0  0  0
  8  9  2  0  0  0  0
  8 34  1  0  0  0  0
  9 10  1  0  0  0  0
  9 21  1  0  0  0  0
 10 11  1  0  0  0  0
 10 35  1  0  0  0  0
 11 12  2  0  0  0  0
 11 13  1  0  0  0  0
 13 14  1  0  0  0  0
 13 36  1  0  0  0  0
 14 20  1  0  0  0  0
 14 15  1  0  0  0  0
 14 37  1  0  0  0  0
 15 16  1  0  0  0  0
 15 38  1  0  0  0  0
 15 39  1  0  0  0  0
 16 17  1  0  0  0  0
 16 40  1  0  0  0  0
 16 41  1  0  0  0  0
 17 18  1  0  0  0  0
 17 19  1  0  0  0  0
 17 42  1  0  0  0  0
 18 43  1  0  0  0  0
 19 20  1  0  0  0  0
 19 44  1  0  0  0  0
 19 45  1  0  0  0  0
 20 46  1  0  0  0  0
 20 47  1  0  0  0  0
 21 22  2  0  0  0  0
 21 48  1  0  0  0  0
 22 49  1  0  0  0  0
M  CHG  1  22   1
M  END
> <s_m_source_file>
AV-unprocessed.smi

> <i_m_source_file_index>
1596

> <i_lp_mmshare_version>
43012

> <i_f3d_flags>
0

> <s_epik_input>
W0NIM11bQ0gyXU4oW0NIMl1bQ0gzXSljMVtjSF1bY0hdYyhbY0hdbjEpW05IXUMoPU8pW05IXVtDQEBIXTJbQ0gyXVtDSDJdW0NAQEhdKFtPSF0pW0NIMl1bQ0gyXTI=

> <s_epik_cmdline>
J2VwaWtfcHl0aG9uJywgJy1waCcsICc3LjAnLCAnLXRuJywgJzgnLCAnLW1hJywgJzIwMCcsICctbWV0YWxfYmluZGluZycsICctaW1hZScsICc8aW5maWxlLm1hZT4nLCAnLW9tYWUnLCAnPG91dGZpbGUubWFlPic=

> <r_lp_tautomer_probability>
0.999994

> <r_epik_Ionization_Penalty>
0.224167

> <r_epik_Ionization_Penalty_Charging>
0.224146

> <r_epik_Ionization_Penalty_Neutral>
2.1696e-05

> <r_epik_State_Penalty>
0.0144855

> <r_epik_Charging_Adjusted_Penalty>
0.238631

> <i_epik_Tot_Q>
1

> <i_epik_Tot_abs_Q>
1

> <r_epik_Metal_State_Penalty>
0.0446449

> <b_epik_Metal_Only>
0

> <s_lp_Force_Field>
OPLS_2005

> <r_lp_Energy>
22.6617

> <b_lp_Chiralities_Consistent>
1

> <s_lp_Variant>
AV-unprocessed.smi:1596-1

> <Gold.Version>
5.8.1

> <Gold.Id.Protein>
6NUR|6NUR_protein|mol2

> <Gold.PLP.Fitness>
43.1371

> <Gold.PLP.PLP>
-35.0025

> <Gold.PLP.part.hbond>
-2.0000

> <Gold.PLP.part.metal>
0.0000

> <Gold.PLP.part.buried>
-2.0282

> <Gold.PLP.part.nonpolar>
-31.0019

> <Gold.PLP.part.repulsive>
0.0485

> <Gold.PLP.ligand.clash>
0.0000

> <Gold.PLP.ligand.torsion>
0.4580

> <Gold.PLP.Chemscore.Hbond>
2.9825

> <Gold.PLP.Chemscore.CHOScore>
0.0000

> <Gold.PLP.Chemscore.Metal>
0.0000

> <Gold.Chemscore.Hbonds>
donor molecule, donor type, donor heavy atom, donor atom, acceptor molecule, acceptor atom, score
      L1  H    18    43       P1 10747  0.83
      L1  H    22    49       P1  8028  1.95

> <Gold.PLP.Chemscore.Internal.Correction>
0.1032

> <Gold.Rescore>
     Score         DG    S(hbond)    S(metal)    S(lipo)     H(rot)  DE(clash)    DE(int)     intcor
     13.87     -17.59       1.95        0.00      88.03       1.83       0.37       3.35       ----

> <Gold.Chemscore.Fitness>
13.8685

> <Gold.Chemscore.DG>
-17.5942

> <Gold.Chemscore.ZeroCoef>
-5.4800

> <Gold.Chemscore.Hbond>
1.9471

> <Gold.Chemscore.Metal>
0.0000

> <Gold.Chemscore.Lipo>
88.0349

> <Gold.Chemscore.Internal_Hbond>
0.0000

> <Gold.Chemscore.DEClash>
0.3745

> <Gold.Chemscore.DEInternal>
3.3512

> <Gold.Chemscore.Rot>
1.8317

> <Gold.Chemscore.Internal.Correction>
   9.000000E+99

> <Gold.Chemscore.Hbonds>
donor molecule, donor type, donor heavy atom, donor atom, acceptor molecule, acceptor atom, score
      L1  H    18    43       P1 10747  0.82
      L1  H    22    49       P1  8028  0.91

> <Gold.Chemscore.Hbond.Weighted>
-6.5033

> <Gold.Chemscore.Metal.Weighted>
-0.0000

> <Gold.Chemscore.Lipo.Weighted>
-10.3001

> <Gold.Chemscore.Internal_Hbond.Weighted>
0.0000

> <Gold.Chemscore.DEClash.Weighted>
0.3745

> <Gold.Chemscore.DEInternal.Weighted>
3.3512

> <Gold.Chemscore.Rot.Weighted>
4.6892

> <Gold.Chemscore.Internal.Correction.Weighted>
   9.000000E+99

> <Gold.Protein.RotatedTorsions>
[ 6907 6896 6895 6894 ] final  178.40 input  -60.11 | X-H torsion
[ 7974 7965 7964 7962 ] final   39.51 input  175.53 | X-H torsion
[ 8008 7997 7996 7995 ] final  -57.78 input   59.86 | X-H torsion
[ 10167 10162 10161 10158 ] final  108.78 input  -65.29 | X-H torsion
[ 10718 10713 10712 10709 ] final   97.45 input   66.30 | X-H torsion
[ 10763 10752 10751 10750 ] final -161.28 input  -60.55 | X-H torsion
[ 11005 11000 10999 10996 ] final -149.47 input  -57.11 | X-H torsion

> <Gold.Protein.ActiveResidues>
 VAL166  LYS551  ARG553  GLY616  TRP617  ASP618  TYR619  PRO620  LYS621  CYS622 
 ASP623  PHE694  ASN695  SER759  ASP760  ASP761  ALA762  ILE779  LEU786  VAL792 
 PHE793  MET794  SER795  GLU796  ALA797  LYS798  CYS799  TRP800  GLU811  SER814 

> <Gold.Protein.RotatedAtoms>
  151.6885  133.3311  159.3236 H   0  0  0  0  0  0  0  0  0  0  0  0  # atno 6907 bound_to 6896
  150.7790  134.6719  159.6405 H   0  0  0  0  0  0  0  0  0  0  0  0  # atno 6908 bound_to 6896
  152.3841  134.6548  160.0184 H   0  0  0  0  0  0  0  0  0  0  0  0  # atno 6909 bound_to 6896
  146.0979  139.5643  142.9433 H   0  0  0  0  0  0  0  0  0  0  0  0  # atno 7974 bound_to 7965
  154.4282  140.1099  156.5853 H   0  0  0  0  0  0  0  0  0  0  0  0  # atno 8008 bound_to 7997
  155.6070  140.3494  155.4592 H   0  0  0  0  0  0  0  0  0  0  0  0  # atno 8009 bound_to 7997
  156.0129  140.1223  157.0425 H   0  0  0  0  0  0  0  0  0  0  0  0  # atno 8010 bound_to 7997
  139.6819  144.7117  151.1501 H   0  0  0  0  0  0  0  0  0  0  0  0  # atno 10167 bound_to 10162
  157.6912  131.0610  150.4646 H   0  0  0  0  0  0  0  0  0  0  0  0  # atno 10718 bound_to 10713
  154.7317  135.3048  154.8880 H   0  0  0  0  0  0  0  0  0  0  0  0  # atno 10763 bound_to 10752
  153.9721  135.6740  153.4751 H   0  0  0  0  0  0  0  0  0  0  0  0  # atno 10764 bound_to 10752
  153.0924  135.4952  154.8637 H   0  0  0  0  0  0  0  0  0  0  0  0  # atno 10765 bound_to 10752
  140.7504  134.3412  157.5127 H   0  0  0  0  0  0  0  0  0  0  0  0  # atno 11005 bound_to 11000
  145.5913  141.0369  143.2068 LP  0  0  0  0  0  0  0  0  0  0  0  0  # atno 17320 bound_to 7965
  144.7409  139.7451  143.7311 LP  0  0  0  0  0  0  0  0  0  0  0  0  # atno 17321 bound_to 7965
  140.7655  143.5687  150.9020 LP  0  0  0  0  0  0  0  0  0  0  0  0  # atno 17342 bound_to 10162
  139.9359  143.6438  152.3065 LP  0  0  0  0  0  0  0  0  0  0  0  0  # atno 17343 bound_to 10162
  156.4988  130.4112  149.6365 LP  0  0  0  0  0  0  0  0  0  0  0  0  # atno 17370 bound_to 10713
  156.3347  130.7350  151.2286 LP  0  0  0  0  0  0  0  0  0  0  0  0  # atno 17371 bound_to 10713
  139.8788  134.9138  156.3093 LP  0  0  0  0  0  0  0  0  0  0  0  0  # atno 17394 bound_to 11000
  140.9755  133.7300  156.0596 LP  0  0  0  0  0  0  0  0  0  0  0  0  # atno 17395 bound_to 11000

$$$$
