AV-unprocessed.smi:41|AV-procd|sdf|384|dock8
  -GOLD-   2262016243D 1   1.00000     0.00000
 Structure written by MMmdl.
 26 27  0  0  0  0  0  0  0  0  1 V2000
  148.7545  140.6098  153.3855 N   0  0  0  0  0  0  0  0  0  0  0  0
  149.2968  140.8344  154.5910 C   0  0  0  0  0  0  0  0  0  0  0  0
  150.5376  140.4492  154.8171 N   0  0  0  0  0  0  0  0  0  0  0  0
  151.1756  140.6318  156.0162 C   0  0  0  0  0  0  0  0  0  0  0  0
  152.3270  140.2283  156.1745 O   0  0  0  0  0  0  0  0  0  0  0  0
  150.4614  141.2971  157.0455 N   0  0  0  0  0  0  0  0  0  0  0  0
  151.0468  141.4557  158.3748 C   0  0  1  0  0  0  0  0  0  0  0  0
  151.7200  140.1832  158.9319 C   0  0  0  0  0  0  0  0  0  0  0  0
  152.9722  140.7357  160.1025 S   0  0  0  0  0  0  0  0  0  0  0  0
  152.7364  142.4432  159.5568 C   0  0  2  0  0  0  0  0  0  0  0  0
  152.0333  143.3032  160.6241 C   0  0  0  0  0  0  0  0  0  0  0  0
  151.9261  142.5914  161.8390 O   0  0  0  0  0  0  0  0  0  0  0  0
  152.0009  142.4705  158.3424 O   0  0  0  0  0  0  0  0  0  0  0  0
  149.1431  141.6768  156.8229 C   0  0  0  0  0  0  0  0  0  0  0  0
  148.5338  141.4797  155.6342 C   0  0  0  0  0  0  0  0  0  0  0  0
  147.2604  141.8622  155.4358 F   0  0  0  0  0  0  0  0  0  0  0  0
  150.2760  141.7687  159.0798 H   0  0  0  0  0  0  0  0  0  0  0  0
  153.7151  142.8759  159.3468 H   0  0  0  0  0  0  0  0  0  0  0  0
  147.8027  140.8934  153.2011 H   0  0  0  0  0  0  0  0  0  0  0  0
  149.2975  140.1553  152.6656 H   0  0  0  0  0  0  0  0  0  0  0  0
  150.9772  139.5428  159.4080 H   0  0  0  0  0  0  0  0  0  0  0  0
  152.2194  139.6076  158.1559 H   0  0  0  0  0  0  0  0  0  0  0  0
  152.6093  144.2096  160.8133 H   0  0  0  0  0  0  0  0  0  0  0  0
  151.0398  143.6133  160.2993 H   0  0  0  0  0  0  0  0  0  0  0  0
  152.2790  143.1266  162.5333 H   0  0  0  0  0  0  0  0  0  0  0  0
  148.5626  142.1314  157.6117 H   0  0  0  0  0  0  0  0  0  0  0  0
  1  2  1  0  0  0  0
  1 19  1  0  0  0  0
  1 20  1  0  0  0  0
  2 15  1  0  0  0  0
  2  3  2  0  0  0  0
  3  4  1  0  0  0  0
  4  5  2  0  0  0  0
  4  6  1  0  0  0  0
  6  7  1  0  0  0  0
  6 14  1  0  0  0  0
  7 17  1  0  0  0  0
  7 13  1  0  0  0  0
  7  8  1  0  0  0  0
  8  9  1  0  0  0  0
  8 21  1  0  0  0  0
  8 22  1  0  0  0  0
  9 10  1  0  0  0  0
 10 18  1  0  0  0  0
 10 11  1  0  0  0  0
 10 13  1  0  0  0  0
 11 12  1  0  0  0  0
 11 23  1  0  0  0  0
 11 24  1  0  0  0  0
 12 25  1  0  0  0  0
 14 15  2  0  0  0  0
 14 26  1  0  0  0  0
 15 16  1  0  0  0  0
M  END
> <s_m_source_file>
AV-unprocessed.smi

> <i_m_source_file_index>
41

> <i_lp_mmshare_version>
43012

> <i_f3d_flags>
0

> <s_epik_input>
W05IMl1jMW5jKD1PKW4oW2NIXWMxRilbQ0BASF0yW0NIMl1TW0NAQEhdKE8yKVtDSDJdW09IXQ==

> <s_epik_cmdline>
J2VwaWtfcHl0aG9uJywgJy1waCcsICc3LjAnLCAnLXRuJywgJzgnLCAnLW1hJywgJzIwMCcsICctbWV0YWxfYmluZGluZycsICctaW1hZScsICc8aW5maWxlLm1hZT4nLCAnLW9tYWUnLCAnPG91dGZpbGUubWFlPic=

> <r_lp_tautomer_probability>
1

> <r_epik_Ionization_Penalty>
0.000101883

> <r_epik_Ionization_Penalty_Charging>
1.48607e-08

> <r_epik_Ionization_Penalty_Neutral>
0.000101868

> <r_epik_State_Penalty>
-0

> <r_epik_Charging_Adjusted_Penalty>
1.48607e-08

> <i_epik_Tot_Q>
0

> <i_epik_Tot_abs_Q>
0

> <r_epik_Metal_State_Penalty>
-0

> <b_epik_Metal_Only>
0

> <s_epik_Chemistry_Notes>
This compound contains an acetal/aminal-like group ( X-CH(R)-Y where X, Y are N, S, or O) that may be acid/base labile, releasing an aldehyde.

> <s_lp_Force_Field>
OPLS_2005

> <r_lp_Energy>
13.4753

> <b_lp_Chiralities_Consistent>
1

> <s_lp_Variant>
AV-unprocessed.smi:41-2

> <Gold.Version>
5.8.1

> <Gold.Id.Protein>
6NUR|6NUR_protein|mol2

> <Gold.PLP.Fitness>
39.5359

> <Gold.PLP.PLP>
-30.6982

> <Gold.PLP.part.hbond>
-4.1017

> <Gold.PLP.part.metal>
0.0000

> <Gold.PLP.part.buried>
-4.8608

> <Gold.PLP.part.nonpolar>
-23.5624

> <Gold.PLP.part.repulsive>
0.2641

> <Gold.PLP.ligand.clash>
0.0619

> <Gold.PLP.ligand.torsion>
0.9813

> <Gold.PLP.Chemscore.Hbond>
3.6043

> <Gold.PLP.Chemscore.CHOScore>
0.0000

> <Gold.PLP.Chemscore.Metal>
0.0000

> <Gold.Chemscore.Hbonds>
donor molecule, donor type, donor heavy atom, donor atom, acceptor molecule, acceptor atom, score
      L1  H     1    20       P1  7957  0.94
      P1  H  6933  6945       L1    12  0.69
      P1  H  7989  7998       L1     3  1.00
      P1  H  7997  8010       L1     5  1.00

> <Gold.PLP.Chemscore.Internal.Correction>
0.0496

> <Gold.Rescore>
     Score         DG    S(hbond)    S(metal)    S(lipo)     H(rot)  DE(clash)    DE(int)     intcor
     12.95     -15.37       3.08        0.00      44.43       2.19       0.12       2.30       ----

> <Gold.Chemscore.Fitness>
12.9484

> <Gold.Chemscore.DG>
-15.3654

> <Gold.Chemscore.ZeroCoef>
-5.4800

> <Gold.Chemscore.Hbond>
3.0839

> <Gold.Chemscore.Metal>
0.0000

> <Gold.Chemscore.Lipo>
44.4341

> <Gold.Chemscore.Internal_Hbond>
0.0000

> <Gold.Chemscore.DEClash>
0.1209

> <Gold.Chemscore.DEInternal>
2.2962

> <Gold.Chemscore.Rot>
2.1929

> <Gold.Chemscore.Internal.Correction>
   9.000000E+99

> <Gold.Chemscore.Hbonds>
donor molecule, donor type, donor heavy atom, donor atom, acceptor molecule, acceptor atom, score
      L1  H     1    20       P1  7957  0.86
      P1  H  6933  6945       L1    12  0.57
      P1  H  7989  7998       L1     3  0.59
      P1  H  7997  8010       L1     5  0.91

> <Gold.Chemscore.Hbond.Weighted>
-10.3003

> <Gold.Chemscore.Metal.Weighted>
-0.0000

> <Gold.Chemscore.Lipo.Weighted>
-5.1988

> <Gold.Chemscore.Internal_Hbond.Weighted>
0.0000

> <Gold.Chemscore.DEClash.Weighted>
0.1209

> <Gold.Chemscore.DEInternal.Weighted>
2.2962

> <Gold.Chemscore.Rot.Weighted>
5.6137

> <Gold.Chemscore.Internal.Correction.Weighted>
   9.000000E+99

> <Gold.Protein.RotatedTorsions>
[ 6907 6896 6895 6894 ] final -144.13 input  -60.11 | X-H torsion
[ 7974 7965 7964 7962 ] final  -31.67 input  175.53 | X-H torsion
[ 8008 7997 7996 7995 ] final   87.74 input   59.86 | X-H torsion
[ 10167 10162 10161 10158 ] final -151.67 input  -65.29 | X-H torsion
[ 10718 10713 10712 10709 ] final  138.91 input   66.30 | X-H torsion
[ 10763 10752 10751 10750 ] final  111.95 input  -60.55 | X-H torsion
[ 11005 11000 10999 10996 ] final  -15.73 input  -57.11 | X-H torsion

> <Gold.Protein.ActiveResidues>
 VAL166  LYS551  ARG553  GLY616  TRP617  ASP618  TYR619  PRO620  LYS621  CYS622 
 ASP623  PHE694  ASN695  SER759  ASP760  ASP761  ALA762  ILE779  LEU786  VAL792 
 PHE793  MET794  SER795  GLU796  ALA797  LYS798  CYS799  TRP800  GLU811  SER814 

> <Gold.Protein.RotatedAtoms>
  151.1098  133.5181  159.2605 H   0  0  0  0  0  0  0  0  0  0  0  0  # atno 6907 bound_to 6896
  151.1980  135.0430  159.8870 H   0  0  0  0  0  0  0  0  0  0  0  0  # atno 6908 bound_to 6896
  152.5449  134.0930  159.8338 H   0  0  0  0  0  0  0  0  0  0  0  0  # atno 6909 bound_to 6896
  146.1050  140.5696  142.8804 H   0  0  0  0  0  0  0  0  0  0  0  0  # atno 7974 bound_to 7965
  155.9792  140.3379  155.6647 H   0  0  0  0  0  0  0  0  0  0  0  0  # atno 8008 bound_to 7997
  155.6572  140.0712  157.2585 H   0  0  0  0  0  0  0  0  0  0  0  0  # atno 8009 bound_to 7997
  154.4187  140.1715  156.1725 H   0  0  0  0  0  0  0  0  0  0  0  0  # atno 8010 bound_to 7997
  139.7247  143.8902  152.2515 H   0  0  0  0  0  0  0  0  0  0  0  0  # atno 10167 bound_to 10162
  157.4201  131.1037  151.0362 H   0  0  0  0  0  0  0  0  0  0  0  0  # atno 10718 bound_to 10713
  153.4707  135.3701  155.2389 H   0  0  0  0  0  0  0  0  0  0  0  0  # atno 10763 bound_to 10752
  154.8757  135.3931  154.3815 H   0  0  0  0  0  0  0  0  0  0  0  0  # atno 10764 bound_to 10752
  153.4403  135.7084  153.6238 H   0  0  0  0  0  0  0  0  0  0  0  0  # atno 10765 bound_to 10752
  140.7996  133.8224  155.9457 H   0  0  0  0  0  0  0  0  0  0  0  0  # atno 11005 bound_to 11000
  144.7463  140.5076  143.6833 LP  0  0  0  0  0  0  0  0  0  0  0  0  # atno 17320 bound_to 7965
  145.5779  139.1487  143.3251 LP  0  0  0  0  0  0  0  0  0  0  0  0  # atno 17321 bound_to 7965
  139.8808  144.7019  150.8880 LP  0  0  0  0  0  0  0  0  0  0  0  0  # atno 17342 bound_to 10162
  140.7760  143.3663  151.1733 LP  0  0  0  0  0  0  0  0  0  0  0  0  # atno 17343 bound_to 10162
  157.1296  130.6096  149.5526 LP  0  0  0  0  0  0  0  0  0  0  0  0  # atno 17370 bound_to 10713
  155.9878  130.4918  150.7141 LP  0  0  0  0  0  0  0  0  0  0  0  0  # atno 17371 bound_to 10713
  140.9308  134.2024  157.4865 LP  0  0  0  0  0  0  0  0  0  0  0  0  # atno 17394 bound_to 11000
  139.8723  134.9832  156.5187 LP  0  0  0  0  0  0  0  0  0  0  0  0  # atno 17395 bound_to 11000

$$$$
