AV-unprocessed.smi:99|AV-procd|sdf|884|dock1
  -GOLD-   2262017363D 1   1.00000     0.00000
 Structure written by MMmdl.
 52 55  0  0  0  0  0  0  0  0  2 V2000
  147.1392  133.4373  154.3249 O   0  0  0  0  0  0  0  0  0  0  0  0
  146.2382  134.0305  153.7286 C   0  0  0  0  0  0  0  0  0  0  0  0
  145.6616  135.1598  154.1808 O   0  0  0  0  0  0  0  0  0  0  0  0
  145.9147  135.6162  155.5003 C   0  0  0  0  0  0  0  0  0  0  0  0
  147.3955  136.0144  155.6308 C   0  0  1  0  0  0  0  0  0  0  0  0
  147.6689  137.0100  154.6431 O   0  0  0  0  0  0  0  0  0  0  0  0
  147.9503  138.2542  155.2263 C   0  0  2  0  0  0  0  0  0  0  0  0
  149.4224  138.5737  155.0576 N   0  0  0  0  0  0  0  0  0  0  0  0
  150.2889  137.6791  154.4501 C   0  0  0  0  0  0  0  0  0  0  0  0
  151.6006  137.9580  154.3064 C   0  0  0  0  0  0  0  0  0  0  0  0
  152.1217  139.2288  154.8009 C   0  0  0  0  0  0  0  0  0  0  0  0
  153.3172  139.4776  154.6588 O   0  0  0  0  0  0  0  0  0  0  0  0
  151.2515  140.0890  155.4039 N   0  5  0  0  0  0  0  0  0  0  0  0
  149.9245  139.8075  155.5555 C   0  0  0  0  0  0  0  0  0  0  0  0
  149.1340  140.5703  156.1115 O   0  0  0  0  0  0  0  0  0  0  0  0
  147.5980  138.1588  156.7161 C   0  0  1  0  0  0  0  0  0  0  0  0
  146.2700  138.5948  156.9367 O   0  0  0  0  0  0  0  0  0  0  0  0
  147.7875  136.6708  156.9604 C   0  0  1  0  0  0  0  0  0  0  0  0
  147.0927  136.1923  158.1076 O   0  0  0  0  0  0  0  0  0  0  0  0
  147.2373  136.7793  159.3131 C   0  0  0  0  0  0  0  0  0  0  0  0
  147.4853  137.9763  159.4700 O   0  0  0  0  0  0  0  0  0  0  0  0
  147.0878  135.8146  160.4400 C   0  0  0  0  0  0  0  0  0  0  0  0
  146.8632  134.4469  160.1598 C   0  0  0  0  0  0  0  0  0  0  0  0
  146.6969  133.5188  161.2064 C   0  0  0  0  0  0  0  0  0  0  0  0
  146.7555  133.9472  162.5455 C   0  0  0  0  0  0  0  0  0  0  0  0
  146.9877  135.3038  162.8372 C   0  0  0  0  0  0  0  0  0  0  0  0
  147.1576  136.2318  161.7917 C   0  0  0  0  0  0  0  0  0  0  0  0
  145.6903  133.5908  152.4130 C   0  0  0  0  0  0  0  0  0  0  0  0
  144.6950  134.3716  151.7806 C   0  0  0  0  0  0  0  0  0  0  0  0
  144.1385  133.9659  150.5520 C   0  0  0  0  0  0  0  0  0  0  0  0
  144.5710  132.7750  149.9405 C   0  0  0  0  0  0  0  0  0  0  0  0
  145.5630  131.9910  150.5577 C   0  0  0  0  0  0  0  0  0  0  0  0
  146.1213  132.3954  151.7859 C   0  0  0  0  0  0  0  0  0  0  0  0
  145.2778  136.4790  155.6981 H   0  0  0  0  0  0  0  0  0  0  0  0
  145.6592  134.8497  156.2324 H   0  0  0  0  0  0  0  0  0  0  0  0
  148.0201  135.1410  155.4398 H   0  0  0  0  0  0  0  0  0  0  0  0
  147.4188  139.0388  154.6846 H   0  0  0  0  0  0  0  0  0  0  0  0
  149.9253  136.7323  154.0818 H   0  0  0  0  0  0  0  0  0  0  0  0
  152.2612  137.2476  153.8316 H   0  0  0  0  0  0  0  0  0  0  0  0
  148.2680  138.7648  157.3274 H   0  0  0  0  0  0  0  0  0  0  0  0
  145.7161  137.8347  157.0255 H   0  0  0  0  0  0  0  0  0  0  0  0
  148.8569  136.4904  157.0811 H   0  0  0  0  0  0  0  0  0  0  0  0
  146.8081  134.0964  159.1391 H   0  0  0  0  0  0  0  0  0  0  0  0
  146.5214  132.4774  160.9808 H   0  0  0  0  0  0  0  0  0  0  0  0
  146.6246  133.2360  163.3477 H   0  0  0  0  0  0  0  0  0  0  0  0
  147.0343  135.6352  163.8641 H   0  0  0  0  0  0  0  0  0  0  0  0
  147.3393  137.2645  162.0497 H   0  0  0  0  0  0  0  0  0  0  0  0
  144.3418  135.2864  152.2344 H   0  0  0  0  0  0  0  0  0  0  0  0
  143.3759  134.5679  150.0803 H   0  0  0  0  0  0  0  0  0  0  0  0
  144.1416  132.4626  149.0000 H   0  0  0  0  0  0  0  0  0  0  0  0
  145.8942  131.0752  150.0907 H   0  0  0  0  0  0  0  0  0  0  0  0
  146.8746  131.7655  152.2360 H   0  0  0  0  0  0  0  0  0  0  0  0
  1  2  2  0  0  0  0
  2  3  1  0  0  0  0
  2 28  1  0  0  0  0
  3  4  1  0  0  0  0
  4  5  1  0  0  0  0
  4 34  1  0  0  0  0
  4 35  1  0  0  0  0
  5 18  1  0  0  0  0
  5  6  1  0  0  0  0
  5 36  1  0  0  0  0
  6  7  1  0  0  0  0
  7  8  1  0  0  0  0
  7 16  1  0  0  0  0
  7 37  1  0  0  0  0
  8 14  1  0  0  0  0
  8  9  1  0  0  0  0
  9 10  2  0  0  0  0
  9 38  1  0  0  0  0
 10 11  1  0  0  0  0
 10 39  1  0  0  0  0
 11 12  2  0  0  0  0
 11 13  1  0  0  0  0
 13 14  1  0  0  0  0
 14 15  2  0  0  0  0
 16 17  1  0  0  0  0
 16 18  1  0  0  0  0
 16 40  1  0  0  0  0
 17 41  1  0  0  0  0
 18 19  1  0  0  0  0
 18 42  1  0  0  0  0
 19 20  1  0  0  0  0
 20 21  2  0  0  0  0
 20 22  1  0  0  0  0
 22 27  1  0  0  0  0
 22 23  2  0  0  0  0
 23 24  1  0  0  0  0
 23 43  1  0  0  0  0
 24 25  2  0  0  0  0
 24 44  1  0  0  0  0
 25 26  1  0  0  0  0
 25 45  1  0  0  0  0
 26 27  2  0  0  0  0
 26 46  1  0  0  0  0
 27 47  1  0  0  0  0
 28 33  1  0  0  0  0
 28 29  2  0  0  0  0
 29 30  1  0  0  0  0
 29 48  1  0  0  0  0
 30 31  2  0  0  0  0
 30 49  1  0  0  0  0
 31 32  1  0  0  0  0
 31 50  1  0  0  0  0
 32 33  2  0  0  0  0
 32 51  1  0  0  0  0
 33 52  1  0  0  0  0
M  CHG  1  13  -1
M  END
> <s_m_source_file>
AV-unprocessed.smi

> <i_m_source_file_index>
99

> <i_lp_mmshare_version>
43012

> <i_f3d_flags>
0

> <s_epik_input>
W2NIXTFbY0hdW2NIXVtjSF1bY0hdYzFDKD1PKU9bQ0gyXVtDQEBIXTJPW0NAQEhdKG4zW2NIXVtjSF1jKD1PKVtuSF1jMz1PKVtDQEBIXShbT0hdKVtDQEhdMk9DKD1PKWM0W2NIXVtjSF1bY0hdW2NIXVtjSF00

> <s_epik_cmdline>
J2VwaWtfcHl0aG9uJywgJy1waCcsICc3LjAnLCAnLXRuJywgJzgnLCAnLW1hJywgJzIwMCcsICctbWV0YWxfYmluZGluZycsICctaW1hZScsICc8aW5maWxlLm1hZT4nLCAnLW9tYWUnLCAnPG91dGZpbGUubWFlPic=

> <r_lp_tautomer_probability>
1

> <r_epik_Ionization_Penalty>
2.89159

> <r_epik_Ionization_Penalty_Charging>
2.1077e-08

> <r_epik_Ionization_Penalty_Neutral>
2.89159

> <r_epik_State_Penalty>
2.88671

> <r_epik_Charging_Adjusted_Penalty>
2.88671

> <i_epik_Tot_Q>
-1

> <i_epik_Tot_abs_Q>
1

> <r_epik_Metal_State_Penalty>
0.0727308

> <b_epik_Metal_Only>
1

> <s_epik_Chemistry_Notes>
This compound has an ester and may undergo hydrolysis at high or low pH. This compound contains an acetal/aminal-like group ( X-CH(R)-Y where X, Y are N, S, or O) that may be acid/base labile, releasing an aldehyde.

> <s_lp_Force_Field>
OPLS_2005

> <r_lp_Energy>
47.9834

> <b_lp_Chiralities_Consistent>
1

> <s_lp_Variant>
AV-unprocessed.smi:99-20

> <Gold.Version>
5.8.1

> <Gold.Id.Protein>
6NUR|6NUR_protein|mol2

> <Gold.PLP.Fitness>
53.8170

> <Gold.PLP.PLP>
-47.0368

> <Gold.PLP.part.hbond>
-4.2113

> <Gold.PLP.part.metal>
0.0000

> <Gold.PLP.part.buried>
-4.8552

> <Gold.PLP.part.nonpolar>
-39.2573

> <Gold.PLP.part.repulsive>
0.7235

> <Gold.PLP.ligand.clash>
0.0000

> <Gold.PLP.ligand.torsion>
0.5364

> <Gold.PLP.Chemscore.Hbond>
1.5280

> <Gold.PLP.Chemscore.CHOScore>
1.0343

> <Gold.PLP.Chemscore.Metal>
0.0000

> <Gold.Chemscore.Hbonds>
donor molecule, donor type, donor heavy atom, donor atom, acceptor molecule, acceptor atom, score
      P1  H  6934  6947       L1    21  0.56
      P1  H  7997  8009       L1    12  1.00
      L1  C     9    38       P1  7948  0.96

> <Gold.PLP.Chemscore.Internal.Correction>
0.1660

> <Gold.Rescore>
     Score         DG    S(hbond)    S(metal)    S(lipo)     H(rot)  DE(clash)    DE(int)     intcor
     11.53     -14.42       1.55        0.00     100.73       3.13       0.02       2.87       ----

> <Gold.Chemscore.Fitness>
11.5308

> <Gold.Chemscore.DG>
-14.4245

> <Gold.Chemscore.ZeroCoef>
-5.4800

> <Gold.Chemscore.Hbond>
1.5520

> <Gold.Chemscore.Metal>
0.0000

> <Gold.Chemscore.Lipo>
100.7292

> <Gold.Chemscore.Internal_Hbond>
0.0000

> <Gold.Chemscore.DEClash>
0.0212

> <Gold.Chemscore.DEInternal>
2.8725

> <Gold.Chemscore.Rot>
3.1346

> <Gold.Chemscore.Internal.Correction>
   9.000000E+99

> <Gold.Chemscore.Hbonds>
donor molecule, donor type, donor heavy atom, donor atom, acceptor molecule, acceptor atom, score
      P1  H  6934  6947       L1    21  0.56
      P1  H  7997  8009       L1    12  0.99

> <Gold.Chemscore.Hbond.Weighted>
-5.1837

> <Gold.Chemscore.Metal.Weighted>
-0.0000

> <Gold.Chemscore.Lipo.Weighted>
-11.7853

> <Gold.Chemscore.Internal_Hbond.Weighted>
0.0000

> <Gold.Chemscore.DEClash.Weighted>
0.0212

> <Gold.Chemscore.DEInternal.Weighted>
2.8725

> <Gold.Chemscore.Rot.Weighted>
8.0246

> <Gold.Chemscore.Internal.Correction.Weighted>
   9.000000E+99

> <Gold.Protein.RotatedTorsions>
[ 6907 6896 6895 6894 ] final   37.88 input  -60.11 | X-H torsion
[ 7974 7965 7964 7962 ] final  -27.41 input  175.53 | X-H torsion
[ 8008 7997 7996 7995 ] final -112.06 input   59.86 | X-H torsion
[ 10167 10162 10161 10158 ] final  122.50 input  -65.29 | X-H torsion
[ 10718 10713 10712 10709 ] final   -1.52 input   66.30 | X-H torsion
[ 10763 10752 10751 10750 ] final  -22.50 input  -60.55 | X-H torsion
[ 11005 11000 10999 10996 ] final  158.04 input  -57.11 | X-H torsion

> <Gold.Protein.ActiveResidues>
 VAL166  LYS551  ARG553  GLY616  TRP617  ASP618  TYR619  PRO620  LYS621  CYS622 
 ASP623  PHE694  ASN695  SER759  ASP760  ASP761  ALA762  ILE779  LEU786  VAL792 
 PHE793  MET794  SER795  GLU796  ALA797  LYS798  CYS799  TRP800  GLU811  SER814 

> <Gold.Protein.RotatedAtoms>
  152.1491  134.9002  160.0548 H   0  0  0  0  0  0  0  0  0  0  0  0  # atno 6907 bound_to 6896
  152.0041  133.3831  159.4202 H   0  0  0  0  0  0  0  0  0  0  0  0  # atno 6908 bound_to 6896
  150.6873  134.3724  159.5041 H   0  0  0  0  0  0  0  0  0  0  0  0  # atno 6909 bound_to 6896
  146.1359  140.5148  142.8673 H   0  0  0  0  0  0  0  0  0  0  0  0  # atno 7974 bound_to 7965
  154.9994  140.0394  157.2353 H   0  0  0  0  0  0  0  0  0  0  0  0  # atno 8008 bound_to 7997
  154.7557  140.2775  155.6232 H   0  0  0  0  0  0  0  0  0  0  0  0  # atno 8009 bound_to 7997
  156.2894  140.2638  156.2323 H   0  0  0  0  0  0  0  0  0  0  0  0  # atno 8010 bound_to 7997
  139.5855  144.7004  151.3421 H   0  0  0  0  0  0  0  0  0  0  0  0  # atno 10167 bound_to 10162
  156.8044  130.5403  149.5717 H   0  0  0  0  0  0  0  0  0  0  0  0  # atno 10718 bound_to 10713
  153.6529  135.6980  153.5203 H   0  0  0  0  0  0  0  0  0  0  0  0  # atno 10763 bound_to 10752
  153.2692  135.4220  155.0970 H   0  0  0  0  0  0  0  0  0  0  0  0  # atno 10764 bound_to 10752
  154.8471  135.3574  154.6074 H   0  0  0  0  0  0  0  0  0  0  0  0  # atno 10765 bound_to 10752
  140.1827  134.8464  157.2821 H   0  0  0  0  0  0  0  0  0  0  0  0  # atno 11005 bound_to 11000
  144.7740  140.5699  143.6651 LP  0  0  0  0  0  0  0  0  0  0  0  0  # atno 17320 bound_to 7965
  145.5156  139.1478  143.3580 LP  0  0  0  0  0  0  0  0  0  0  0  0  # atno 17321 bound_to 7965
  140.7127  143.7348  150.7597 LP  0  0  0  0  0  0  0  0  0  0  0  0  # atno 17342 bound_to 10162
  140.0891  143.4895  152.2488 LP  0  0  0  0  0  0  0  0  0  0  0  0  # atno 17343 bound_to 10162
  156.1082  130.6020  151.0004 LP  0  0  0  0  0  0  0  0  0  0  0  0  # atno 17370 bound_to 10713
  157.6537  131.0893  150.7994 LP  0  0  0  0  0  0  0  0  0  0  0  0  # atno 17371 bound_to 10713
  140.2249  134.3978  155.7548 LP  0  0  0  0  0  0  0  0  0  0  0  0  # atno 17394 bound_to 11000
  141.2223  133.7185  156.8549 LP  0  0  0  0  0  0  0  0  0  0  0  0  # atno 17395 bound_to 11000

$$$$
