AV-unprocessed.smi:1639|AV-procd|sdf|6551|dock4
  -GOLD-   22720 7233D 1   1.00000     0.00000
 Structure written by MMmdl.
 38 39  0  0  0  0  0  0  0  0  2 V2000
  154.3652  140.9178  160.9773 C   0  0  0  0  0  0  0  0  0  0  0  0
  153.8360  142.2993  160.5687 C   0  0  0  0  0  0  0  0  0  0  0  0
  152.5100  142.5115  161.0347 O   0  0  0  0  0  0  0  0  0  0  0  0
  151.5899  142.9676  160.0509 C   0  0  1  0  0  0  0  0  0  0  0  0
  152.0223  144.3641  159.5708 C   0  0  0  0  0  0  0  0  0  0  0  0
  151.1434  144.8151  158.3934 C   0  0  0  0  0  0  0  0  0  0  0  0
  151.1583  143.7679  157.2661 C   0  0  0  0  0  0  0  0  0  0  0  0
  150.7795  142.4521  157.7748 N   0  0  0  0  0  0  0  0  0  0  0  0
  150.6203  141.5010  156.7603 C   0  0  0  0  0  0  0  0  0  0  0  0
  151.4645  140.3793  156.6140 C   0  0  0  0  0  0  0  0  0  0  0  0
  151.1797  139.5073  155.5488 C   0  0  0  0  0  0  0  0  0  0  0  0
  152.0122  138.2692  155.2905 C   0  0  0  0  0  0  0  0  0  0  0  0
  150.1502  139.7340  154.7078 N   0  0  0  0  0  0  0  0  0  0  0  0
  149.3875  140.8160  154.9002 C   0  0  0  0  0  0  0  0  0  0  0  0
  148.3407  141.0368  154.0378 N   0  0  0  0  0  0  0  0  0  0  0  0
  149.5959  141.6928  155.8933 N   0  3  0  0  0  0  0  0  0  0  0  0
  151.6026  141.9689  158.8805 C   0  0  0  0  0  0  0  0  0  0  0  0
  155.4035  140.7961  160.6685 H   0  0  0  0  0  0  0  0  0  0  0  0
  153.7901  140.1127  160.5202 H   0  0  0  0  0  0  0  0  0  0  0  0
  154.3221  140.7882  162.0589 H   0  0  0  0  0  0  0  0  0  0  0  0
  154.4693  143.0670  161.0137 H   0  0  0  0  0  0  0  0  0  0  0  0
  153.8928  142.4410  159.4884 H   0  0  0  0  0  0  0  0  0  0  0  0
  150.5731  143.0260  160.4449 H   0  0  0  0  0  0  0  0  0  0  0  0
  151.9583  145.0845  160.3866 H   0  0  0  0  0  0  0  0  0  0  0  0
  153.0668  144.3392  159.2577 H   0  0  0  0  0  0  0  0  0  0  0  0
  150.1197  144.9661  158.7387 H   0  0  0  0  0  0  0  0  0  0  0  0
  151.4885  145.7775  158.0149 H   0  0  0  0  0  0  0  0  0  0  0  0
  150.4720  144.0680  156.4731 H   0  0  0  0  0  0  0  0  0  0  0  0
  152.1545  143.7160  156.8244 H   0  0  0  0  0  0  0  0  0  0  0  0
  152.2893  140.1980  157.2879 H   0  0  0  0  0  0  0  0  0  0  0  0
  152.8131  138.1726  156.0242 H   0  0  0  0  0  0  0  0  0  0  0  0
  152.4629  138.3139  154.2987 H   0  0  0  0  0  0  0  0  0  0  0  0
  151.3909  137.3748  155.3457 H   0  0  0  0  0  0  0  0  0  0  0  0
  148.1589  140.3936  153.2807 H   0  0  0  0  0  0  0  0  0  0  0  0
  147.7384  141.8390  154.1539 H   0  0  0  0  0  0  0  0  0  0  0  0
  152.6262  141.8196  158.5344 H   0  0  0  0  0  0  0  0  0  0  0  0
  151.2336  140.9991  159.2174 H   0  0  0  0  0  0  0  0  0  0  0  0
  148.9921  142.5066  156.0099 H   0  0  0  0  0  0  0  0  0  0  0  0
  1  2  1  0  0  0  0
  1 18  1  0  0  0  0
  1 19  1  0  0  0  0
  1 20  1  0  0  0  0
  2  3  1  0  0  0  0
  2 21  1  0  0  0  0
  2 22  1  0  0  0  0
  3  4  1  0  0  0  0
  4 17  1  0  0  0  0
  4  5  1  0  0  0  0
  4 23  1  0  0  0  0
  5  6  1  0  0  0  0
  5 24  1  0  0  0  0
  5 25  1  0  0  0  0
  6  7  1  0  0  0  0
  6 26  1  0  0  0  0
  6 27  1  0  0  0  0
  7  8  1  0  0  0  0
  7 28  1  0  0  0  0
  7 29  1  0  0  0  0
  8  9  1  0  0  0  0
  8 17  1  0  0  0  0
  9 16  1  0  0  0  0
  9 10  2  0  0  0  0
 10 11  1  0  0  0  0
 10 30  1  0  0  0  0
 11 12  1  0  0  0  0
 11 13  2  0  0  0  0
 12 31  1  0  0  0  0
 12 32  1  0  0  0  0
 12 33  1  0  0  0  0
 13 14  1  0  0  0  0
 14 15  1  0  0  0  0
 14 16  2  0  0  0  0
 15 34  1  0  0  0  0
 15 35  1  0  0  0  0
 16 38  1  0  0  0  0
 17 36  1  0  0  0  0
 17 37  1  0  0  0  0
M  CHG  1  16   1
M  END
> <s_m_source_file>
AV-unprocessed.smi

> <i_m_source_file_index>
1639

> <i_lp_mmshare_version>
43012

> <i_f3d_flags>
0

> <s_epik_input>
W0NIM11bQ0gyXU9bQ0BASF0xW0NIMl1bQ0gyXVtDSDJdTihbQ0gyXTEpYzJbY0hdYyhbQ0gzXSluYyhuMilbTkgyXQ==

> <s_epik_cmdline>
J2VwaWtfcHl0aG9uJywgJy1waCcsICc3LjAnLCAnLXRuJywgJzgnLCAnLW1hJywgJzIwMCcsICctbWV0YWxfYmluZGluZycsICctaW1hZScsICc8aW5maWxlLm1hZT4nLCAnLW9tYWUnLCAnPG91dGZpbGUubWFlPic=

> <r_lp_tautomer_probability>
0.424989

> <r_epik_Ionization_Penalty>
0.443088

> <r_epik_Ionization_Penalty_Charging>
0.443085

> <r_epik_Ionization_Penalty_Neutral>
3.21819e-06

> <r_epik_State_Penalty>
1.26241

> <r_epik_Charging_Adjusted_Penalty>
1.70549

> <i_epik_Tot_Q>
1

> <i_epik_Tot_abs_Q>
1

> <r_epik_Metal_State_Penalty>
1.59997

> <b_epik_Metal_Only>
0

> <s_lp_Force_Field>
OPLS_2005

> <r_lp_Energy>
15.005

> <b_lp_Chiralities_Consistent>
1

> <s_lp_Variant>
AV-unprocessed.smi:1639-4

> <Gold.Version>
5.8.1

> <Gold.Id.Protein>
6NUR|6NUR_protein|mol2

> <Gold.PLP.Fitness>
45.1724

> <Gold.PLP.PLP>
-37.1035

> <Gold.PLP.part.hbond>
-3.0000

> <Gold.PLP.part.metal>
0.0000

> <Gold.PLP.part.buried>
-3.4220

> <Gold.PLP.part.nonpolar>
-33.5810

> <Gold.PLP.part.repulsive>
2.8234

> <Gold.PLP.ligand.clash>
0.0000

> <Gold.PLP.ligand.torsion>
0.6464

> <Gold.PLP.Chemscore.Hbond>
3.0739

> <Gold.PLP.Chemscore.CHOScore>
0.0000

> <Gold.PLP.Chemscore.Metal>
0.0000

> <Gold.Chemscore.Hbonds>
donor molecule, donor type, donor heavy atom, donor atom, acceptor molecule, acceptor atom, score
      L1  H    16    38       P1  8028  0.81
      P1  H  7989  7998       L1    13  0.09

> <Gold.PLP.Chemscore.Internal.Correction>
0.1402

> <Gold.Rescore>
     Score         DG    S(hbond)    S(metal)    S(lipo)     H(rot)  DE(clash)    DE(int)     intcor
     16.41     -18.13       1.61        0.00      93.95       1.46       1.24       0.48       ----

> <Gold.Chemscore.Fitness>
16.4080

> <Gold.Chemscore.DG>
-18.1264

> <Gold.Chemscore.ZeroCoef>
-5.4800

> <Gold.Chemscore.Hbond>
1.6112

> <Gold.Chemscore.Metal>
0.0000

> <Gold.Chemscore.Lipo>
93.9509

> <Gold.Chemscore.Internal_Hbond>
0.0000

> <Gold.Chemscore.DEClash>
1.2410

> <Gold.Chemscore.DEInternal>
0.4774

> <Gold.Chemscore.Rot>
1.4560

> <Gold.Chemscore.Internal.Correction>
   9.000000E+99

> <Gold.Chemscore.Hbonds>
donor molecule, donor type, donor heavy atom, donor atom, acceptor molecule, acceptor atom, score
      L1  H    16    38       P1  8028  0.41

> <Gold.Chemscore.Hbond.Weighted>
-5.3814

> <Gold.Chemscore.Metal.Weighted>
-0.0000

> <Gold.Chemscore.Lipo.Weighted>
-10.9922

> <Gold.Chemscore.Internal_Hbond.Weighted>
0.0000

> <Gold.Chemscore.DEClash.Weighted>
1.2410

> <Gold.Chemscore.DEInternal.Weighted>
0.4774

> <Gold.Chemscore.Rot.Weighted>
3.7272

> <Gold.Chemscore.Internal.Correction.Weighted>
   9.000000E+99

> <Gold.Protein.RotatedTorsions>
[ 6907 6896 6895 6894 ] final  128.41 input  -60.11 | X-H torsion
[ 7974 7965 7964 7962 ] final -166.95 input  175.53 | X-H torsion
[ 8008 7997 7996 7995 ] final   66.77 input   59.86 | X-H torsion
[ 10167 10162 10161 10158 ] final  -13.22 input  -65.29 | X-H torsion
[ 10718 10713 10712 10709 ] final   85.34 input   66.30 | X-H torsion
[ 10763 10752 10751 10750 ] final  -50.58 input  -60.55 | X-H torsion
[ 11005 11000 10999 10996 ] final -138.69 input  -57.11 | X-H torsion

> <Gold.Protein.ActiveResidues>
 VAL166  LYS551  ARG553  GLY616  TRP617  ASP618  TYR619  PRO620  LYS621  CYS622 
 ASP623  PHE694  ASN695  SER759  ASP760  ASP761  ALA762  ILE779  LEU786  VAL792 
 PHE793  MET794  SER795  GLU796  ALA797  LYS798  CYS799  TRP800  GLU811  SER814 

> <Gold.Protein.RotatedAtoms>
  152.3722  133.6434  159.6095 H   0  0  0  0  0  0  0  0  0  0  0  0  # atno 6907 bound_to 6896
  150.7677  133.9251  159.3419 H   0  0  0  0  0  0  0  0  0  0  0  0  # atno 6908 bound_to 6896
  151.7072  135.0920  160.0312 H   0  0  0  0  0  0  0  0  0  0  0  0  # atno 6909 bound_to 6896
  144.7234  140.2590  143.6267 H   0  0  0  0  0  0  0  0  0  0  0  0  # atno 7974 bound_to 7965
  155.6826  140.3496  155.4861 H   0  0  0  0  0  0  0  0  0  0  0  0  # atno 8008 bound_to 7997
  155.9594  140.1134  157.0931 H   0  0  0  0  0  0  0  0  0  0  0  0  # atno 8009 bound_to 7997
  154.4139  140.1178  156.5145 H   0  0  0  0  0  0  0  0  0  0  0  0  # atno 8010 bound_to 7997
  140.7177  143.5450  150.9366 H   0  0  0  0  0  0  0  0  0  0  0  0  # atno 10167 bound_to 10162
  157.6913  131.0171  150.2808 H   0  0  0  0  0  0  0  0  0  0  0  0  # atno 10718 bound_to 10713
  154.1127  135.6546  153.4888 H   0  0  0  0  0  0  0  0  0  0  0  0  # atno 10763 bound_to 10752
  153.0251  135.5251  154.7176 H   0  0  0  0  0  0  0  0  0  0  0  0  # atno 10764 bound_to 10752
  154.6360  135.2982  155.0129 H   0  0  0  0  0  0  0  0  0  0  0  0  # atno 10765 bound_to 10752
  140.8591  134.2191  157.4717 H   0  0  0  0  0  0  0  0  0  0  0  0  # atno 11005 bound_to 11000
  145.8154  139.2021  143.1969 LP  0  0  0  0  0  0  0  0  0  0  0  0  # atno 17320 bound_to 7965
  146.0560  140.8020  142.9758 LP  0  0  0  0  0  0  0  0  0  0  0  0  # atno 17321 bound_to 7965
  139.9173  143.6648  152.3104 LP  0  0  0  0  0  0  0  0  0  0  0  0  # atno 17342 bound_to 10162
  139.7052  144.7629  151.1204 LP  0  0  0  0  0  0  0  0  0  0  0  0  # atno 17343 bound_to 10162
  156.3355  130.3807  149.7454 LP  0  0  0  0  0  0  0  0  0  0  0  0  # atno 17370 bound_to 10713
  156.4980  130.8115  151.3121 LP  0  0  0  0  0  0  0  0  0  0  0  0  # atno 17371 bound_to 10713
  139.8706  134.9721  156.4760 LP  0  0  0  0  0  0  0  0  0  0  0  0  # atno 17394 bound_to 11000
  140.8703  133.7993  155.9357 LP  0  0  0  0  0  0  0  0  0  0  0  0  # atno 17395 bound_to 11000

$$$$
