AV-unprocessed.smi:3051|AV-procd|sdf|11634|dock1
  -GOLD-   2272017 23D 1   1.00000     0.00000
 Structure written by MMmdl.
 37 37  0  0  0  0  0  0  0  0  1 V2000
  154.3920  136.3064  158.1867 C   0  0  0  0  0  0  0  0  0  0  0  0
  154.3054  137.3864  157.1005 C   0  0  0  0  0  0  0  0  0  0  0  0
  152.9431  137.5412  156.6056 N   0  0  0  0  0  0  0  0  0  0  0  0
  152.5785  138.3116  155.5684 C   0  0  0  0  0  0  0  0  0  0  0  0
  153.3731  138.9740  154.9016 O   0  0  0  0  0  0  0  0  0  0  0  0
  151.0871  138.3386  155.2291 C   0  0  0  0  0  0  0  0  0  0  0  0
  150.5736  139.6967  155.2346 N   0  0  0  0  0  0  0  0  0  0  0  0
  149.6584  140.2710  154.3742 C   0  0  0  0  0  0  0  0  0  0  0  0
  149.4987  141.5735  154.7544 C   0  0  0  0  0  0  0  0  0  0  0  0
  150.3739  141.6975  155.8677 C   0  0  0  0  0  0  0  0  0  0  0  0
  150.5270  142.9043  156.5608 N   0  0  0  0  0  0  0  0  0  0  0  0
  151.4327  143.0017  157.6999 C   0  0  1  0  0  0  0  0  0  0  0  0
  151.4959  144.4449  158.2286 C   0  0  0  0  0  0  0  0  0  0  0  0
  150.9955  142.0329  158.8093 C   0  0  0  0  0  0  0  0  0  0  0  0
  152.1421  141.5493  159.4901 O   0  0  0  0  0  0  0  0  0  0  0  0
  152.8506  142.5782  160.1582 C   0  0  0  0  0  0  0  0  0  0  0  0
  151.0122  140.5755  156.1629 N   0  0  0  0  0  0  0  0  0  0  0  0
  155.4092  136.2250  158.5701 H   0  0  0  0  0  0  0  0  0  0  0  0
  154.1060  135.3283  157.7988 H   0  0  0  0  0  0  0  0  0  0  0  0
  153.7377  136.5392  159.0275 H   0  0  0  0  0  0  0  0  0  0  0  0
  154.6288  138.3443  157.5081 H   0  0  0  0  0  0  0  0  0  0  0  0
  154.9840  137.1540  156.2783 H   0  0  0  0  0  0  0  0  0  0  0  0
  152.2187  137.0363  157.0962 H   0  0  0  0  0  0  0  0  0  0  0  0
  150.9200  137.9044  154.2424 H   0  0  0  0  0  0  0  0  0  0  0  0
  150.5286  137.7335  155.9452 H   0  0  0  0  0  0  0  0  0  0  0  0
  149.2060  139.7111  153.5690 H   0  0  0  0  0  0  0  0  0  0  0  0
  148.8617  142.3193  154.3023 H   0  0  0  0  0  0  0  0  0  0  0  0
  150.0161  143.7249  156.2686 H   0  0  0  0  0  0  0  0  0  0  0  0
  152.4335  142.7111  157.3776 H   0  0  0  0  0  0  0  0  0  0  0  0
  152.1885  144.5236  159.0669 H   0  0  0  0  0  0  0  0  0  0  0  0
  150.5183  144.7842  158.5727 H   0  0  0  0  0  0  0  0  0  0  0  0
  151.8373  145.1404  157.4617 H   0  0  0  0  0  0  0  0  0  0  0  0
  150.3542  142.5532  159.5228 H   0  0  0  0  0  0  0  0  0  0  0  0
  150.4154  141.2068  158.3937 H   0  0  0  0  0  0  0  0  0  0  0  0
  153.7152  142.1555  160.6697 H   0  0  0  0  0  0  0  0  0  0  0  0
  152.2244  143.0681  160.9051 H   0  0  0  0  0  0  0  0  0  0  0  0
  153.2103  143.3302  159.4547 H   0  0  0  0  0  0  0  0  0  0  0  0
  1  2  1  0  0  0  0
  1 18  1  0  0  0  0
  1 19  1  0  0  0  0
  1 20  1  0  0  0  0
  2  3  1  0  0  0  0
  2 21  1  0  0  0  0
  2 22  1  0  0  0  0
  3  4  1  0  0  0  0
  3 23  1  0  0  0  0
  4  5  2  0  0  0  0
  4  6  1  0  0  0  0
  6  7  1  0  0  0  0
  6 24  1  0  0  0  0
  6 25  1  0  0  0  0
  7 17  1  0  0  0  0
  7  8  1  0  0  0  0
  8  9  2  0  0  0  0
  8 26  1  0  0  0  0
  9 10  1  0  0  0  0
  9 27  1  0  0  0  0
 10 11  1  0  0  0  0
 10 17  2  0  0  0  0
 11 12  1  0  0  0  0
 11 28  1  0  0  0  0
 12 13  1  0  0  0  0
 12 14  1  0  0  0  0
 12 29  1  0  0  0  0
 13 30  1  0  0  0  0
 13 31  1  0  0  0  0
 13 32  1  0  0  0  0
 14 15  1  0  0  0  0
 14 33  1  0  0  0  0
 14 34  1  0  0  0  0
 15 16  1  0  0  0  0
 16 35  1  0  0  0  0
 16 36  1  0  0  0  0
 16 37  1  0  0  0  0
M  END
> <s_m_source_file>
AV-unprocessed.smi

> <i_m_source_file_index>
3051

> <i_lp_mmshare_version>
43012

> <i_f3d_flags>
0

> <s_epik_input>
W0NIM11bQ0gyXVtOSF1DKD1PKVtDSDJdbjFbY0hdW2NIXWMobjEpW05IXVtDQEhdKFtDSDNdKVtDSDJdT1tDSDNd

> <s_epik_cmdline>
J2VwaWtfcHl0aG9uJywgJy1waCcsICc3LjAnLCAnLXRuJywgJzgnLCAnLW1hJywgJzIwMCcsICctbWV0YWxfYmluZGluZycsICctaW1hZScsICc8aW5maWxlLm1hZT4nLCAnLW9tYWUnLCAnPG91dGZpbGUubWFlPic=

> <r_lp_tautomer_probability>
1

> <r_epik_Ionization_Penalty>
0.00023157

> <r_epik_Ionization_Penalty_Charging>
0

> <r_epik_Ionization_Penalty_Neutral>
0.00023157

> <r_epik_State_Penalty>
-0

> <r_epik_Charging_Adjusted_Penalty>
0

> <i_epik_Tot_Q>
0

> <i_epik_Tot_abs_Q>
0

> <r_epik_Metal_State_Penalty>
-0

> <b_epik_Metal_Only>
0

> <s_lp_Force_Field>
OPLS_2005

> <r_lp_Energy>
3.21547

> <b_lp_Chiralities_Consistent>
1

> <s_lp_Variant>
AV-unprocessed.smi:3051-2

> <Gold.Version>
5.8.1

> <Gold.Id.Protein>
6NUR|6NUR_protein|mol2

> <Gold.PLP.Fitness>
40.0002

> <Gold.PLP.PLP>
-32.7040

> <Gold.PLP.part.hbond>
-2.0000

> <Gold.PLP.part.metal>
0.0000

> <Gold.PLP.part.buried>
-3.1714

> <Gold.PLP.part.nonpolar>
-27.3907

> <Gold.PLP.part.repulsive>
0.2333

> <Gold.PLP.ligand.clash>
0.0000

> <Gold.PLP.ligand.torsion>
0.7685

> <Gold.PLP.Chemscore.Hbond>
2.0000

> <Gold.PLP.Chemscore.CHOScore>
0.9267

> <Gold.PLP.Chemscore.Metal>
0.0000

> <Gold.Chemscore.Hbonds>
donor molecule, donor type, donor heavy atom, donor atom, acceptor molecule, acceptor atom, score
      L1  H    11    28       P1  8028  1.00
      P1  H  7997  8009       L1     5  1.00
      L1  C     8    26       P1  7957  0.93

> <Gold.PLP.Chemscore.Internal.Correction>
0.0533

> <Gold.Rescore>
     Score         DG    S(hbond)    S(metal)    S(lipo)     H(rot)  DE(clash)    DE(int)     intcor
     13.53     -14.66       1.95        0.00      70.68       2.19       0.01       1.11       ----

> <Gold.Chemscore.Fitness>
13.5285

> <Gold.Chemscore.DG>
-14.6580

> <Gold.Chemscore.ZeroCoef>
-5.4800

> <Gold.Chemscore.Hbond>
1.9497

> <Gold.Chemscore.Metal>
0.0000

> <Gold.Chemscore.Lipo>
70.6820

> <Gold.Chemscore.Internal_Hbond>
0.0000

> <Gold.Chemscore.DEClash>
0.0149

> <Gold.Chemscore.DEInternal>
1.1147

> <Gold.Chemscore.Rot>
2.1890

> <Gold.Chemscore.Internal.Correction>
   9.000000E+99

> <Gold.Chemscore.Hbonds>
donor molecule, donor type, donor heavy atom, donor atom, acceptor molecule, acceptor atom, score
      L1  H    11    28       P1  8028  0.99
      P1  H  7997  8009       L1     5  0.89

> <Gold.Chemscore.Hbond.Weighted>
-6.5121

> <Gold.Chemscore.Metal.Weighted>
-0.0000

> <Gold.Chemscore.Lipo.Weighted>
-8.2698

> <Gold.Chemscore.Internal_Hbond.Weighted>
0.0000

> <Gold.Chemscore.DEClash.Weighted>
0.0149

> <Gold.Chemscore.DEInternal.Weighted>
1.1147

> <Gold.Chemscore.Rot.Weighted>
5.6039

> <Gold.Chemscore.Internal.Correction.Weighted>
   9.000000E+99

> <Gold.Protein.RotatedTorsions>
[ 6907 6896 6895 6894 ] final -171.30 input  -60.11 | X-H torsion
[ 7974 7965 7964 7962 ] final  165.19 input  175.53 | X-H torsion
[ 8008 7997 7996 7995 ] final -136.13 input   59.86 | X-H torsion
[ 10167 10162 10161 10158 ] final -139.26 input  -65.29 | X-H torsion
[ 10718 10713 10712 10709 ] final  173.89 input   66.30 | X-H torsion
[ 10763 10752 10751 10750 ] final  -12.05 input  -60.55 | X-H torsion
[ 11005 11000 10999 10996 ] final  152.96 input  -57.11 | X-H torsion

> <Gold.Protein.ActiveResidues>
 VAL166  LYS551  ARG553  GLY616  TRP617  ASP618  TYR619  PRO620  LYS621  CYS622 
 ASP623  PHE694  ASN695  SER759  ASP760  ASP761  ALA762  ILE779  LEU786  VAL792 
 PHE793  MET794  SER795  GLU796  ALA797  LYS798  CYS799  TRP800  GLU811  SER814 

> <Gold.Protein.RotatedAtoms>
  151.5216  133.3465  159.2902 H   0  0  0  0  0  0  0  0  0  0  0  0  # atno 6907 bound_to 6896
  150.8648  134.8012  159.7122 H   0  0  0  0  0  0  0  0  0  0  0  0  # atno 6908 bound_to 6896
  152.4656  134.5091  159.9800 H   0  0  0  0  0  0  0  0  0  0  0  0  # atno 6909 bound_to 6896
  144.7513  139.8434  143.6365 H   0  0  0  0  0  0  0  0  0  0  0  0  # atno 7974 bound_to 7965
  155.3901  140.0499  157.3041 H   0  0  0  0  0  0  0  0  0  0  0  0  # atno 8008 bound_to 7997
  154.5040  140.2167  155.9249 H   0  0  0  0  0  0  0  0  0  0  0  0  # atno 8009 bound_to 7997
  156.1503  140.3137  155.8642 H   0  0  0  0  0  0  0  0  0  0  0  0  # atno 8010 bound_to 7997
  139.8397  143.7338  152.2663 H   0  0  0  0  0  0  0  0  0  0  0  0  # atno 10167 bound_to 10162
  156.9576  131.0050  151.2935 H   0  0  0  0  0  0  0  0  0  0  0  0  # atno 10718 bound_to 10713
  153.4928  135.7017  153.5874 H   0  0  0  0  0  0  0  0  0  0  0  0  # atno 10763 bound_to 10752
  153.4039  135.3865  155.2006 H   0  0  0  0  0  0  0  0  0  0  0  0  # atno 10764 bound_to 10752
  154.8716  135.3888  154.4390 H   0  0  0  0  0  0  0  0  0  0  0  0  # atno 10765 bound_to 10752
  140.1355  134.8774  157.2261 H   0  0  0  0  0  0  0  0  0  0  0  0  # atno 11005 bound_to 11000
  146.1466  139.4538  143.0075 LP  0  0  0  0  0  0  0  0  0  0  0  0  # atno 17320 bound_to 7965
  145.6935  141.0157  143.1543 LP  0  0  0  0  0  0  0  0  0  0  0  0  # atno 17321 bound_to 7965
  139.7571  144.7517  151.0419 LP  0  0  0  0  0  0  0  0  0  0  0  0  # atno 17342 bound_to 10162
  140.7799  143.4793  151.0039 LP  0  0  0  0  0  0  0  0  0  0  0  0  # atno 17343 bound_to 10162
  157.5680  130.8291  149.8353 LP  0  0  0  0  0  0  0  0  0  0  0  0  # atno 17370 bound_to 10713
  156.0336  130.3757  150.1621 LP  0  0  0  0  0  0  0  0  0  0  0  0  # atno 17371 bound_to 10713
  140.2788  134.3374  155.7349 LP  0  0  0  0  0  0  0  0  0  0  0  0  # atno 17394 bound_to 11000
  141.2177  133.7466  156.9333 LP  0  0  0  0  0  0  0  0  0  0  0  0  # atno 17395 bound_to 11000

$$$$
