AV-unprocessed.smi:2784|AV-procd|sdf|10742|dock4
  -GOLD-   2272015183D 1   1.00000     0.00000
 Structure written by MMmdl.
 30 31  0  0  0  0  0  0  0  0  2 V2000
  153.1671  142.3912  162.0634 C   0  0  0  0  0  0  0  0  0  0  0  0
  152.0628  142.4733  161.1767 O   0  0  0  0  0  0  0  0  0  0  0  0
  152.3708  143.0882  159.9322 C   0  0  2  0  0  0  0  0  0  0  0  0
  152.2287  144.6161  160.0002 C   0  0  0  0  0  0  0  0  0  0  0  0
  151.7701  145.0230  158.6048 C   0  0  0  0  0  0  0  0  0  0  0  0
  150.8192  143.9010  158.1942 C   0  0  0  0  0  0  0  0  0  0  0  0
  151.3773  142.6201  158.8457 C   0  0  1  0  0  0  0  0  0  0  0  0
  152.0521  141.7778  157.8595 N   0  0  0  0  0  0  0  0  0  0  0  0
  151.5496  140.6719  157.2920 C   0  0  0  0  0  0  0  0  0  0  0  0
  150.4167  140.2876  157.5918 O   0  0  0  0  0  0  0  0  0  0  0  0
  152.3885  140.0835  156.4096 N   0  5  0  0  0  0  0  0  0  0  0  0
  151.8901  139.4009  155.3663 C   0  0  0  0  0  0  0  0  0  0  0  0
  150.8493  139.7580  154.6118 N   0  0  0  0  0  0  0  0  0  0  0  0
  150.7004  138.7514  153.6701 C   0  0  0  0  0  0  0  0  0  0  0  0
  151.6670  137.8119  153.9039 C   0  0  0  0  0  0  0  0  0  0  0  0
  152.4208  138.2080  154.9740 O   0  0  0  0  0  0  0  0  0  0  0  0
  152.8597  141.8884  162.9802 H   0  0  0  0  0  0  0  0  0  0  0  0
  153.5395  143.3794  162.3352 H   0  0  0  0  0  0  0  0  0  0  0  0
  153.9842  141.8171  161.6247 H   0  0  0  0  0  0  0  0  0  0  0  0
  153.3902  142.8355  159.6320 H   0  0  0  0  0  0  0  0  0  0  0  0
  151.4572  144.8854  160.7231 H   0  0  0  0  0  0  0  0  0  0  0  0
  153.1525  145.1117  160.2995 H   0  0  0  0  0  0  0  0  0  0  0  0
  151.2955  146.0045  158.5857 H   0  0  0  0  0  0  0  0  0  0  0  0
  152.6248  145.0488  157.9272 H   0  0  0  0  0  0  0  0  0  0  0  0
  149.8283  144.1055  158.6019 H   0  0  0  0  0  0  0  0  0  0  0  0
  150.7101  143.8307  157.1110 H   0  0  0  0  0  0  0  0  0  0  0  0
  150.5599  142.0576  159.3011 H   0  0  0  0  0  0  0  0  0  0  0  0
  152.9834  142.0549  157.5863 H   0  0  0  0  0  0  0  0  0  0  0  0
  149.9267  138.7829  152.9176 H   0  0  0  0  0  0  0  0  0  0  0  0
  151.9354  136.8755  153.4384 H   0  0  0  0  0  0  0  0  0  0  0  0
  1  2  1  0  0  0  0
  1 17  1  0  0  0  0
  1 18  1  0  0  0  0
  1 19  1  0  0  0  0
  2  3  1  0  0  0  0
  3  7  1  0  0  0  0
  3  4  1  0  0  0  0
  3 20  1  0  0  0  0
  4  5  1  0  0  0  0
  4 21  1  0  0  0  0
  4 22  1  0  0  0  0
  5  6  1  0  0  0  0
  5 23  1  0  0  0  0
  5 24  1  0  0  0  0
  6  7  1  0  0  0  0
  6 25  1  0  0  0  0
  6 26  1  0  0  0  0
  7  8  1  0  0  0  0
  7 27  1  0  0  0  0
  8 28  1  0  0  0  0
  8  9  1  0  0  0  0
  9 11  1  0  0  0  0
  9 10  2  0  0  0  0
 11 12  1  0  0  0  0
 12 16  1  0  0  0  0
 12 13  2  0  0  0  0
 13 14  1  0  0  0  0
 14 29  1  0  0  0  0
 14 15  2  0  0  0  0
 15 30  1  0  0  0  0
 15 16  1  0  0  0  0
M  CHG  1  11  -1
M  END
> <s_m_source_file>
AV-unprocessed.smi

> <i_m_source_file_index>
2784

> <i_lp_mmshare_version>
43012

> <i_f3d_flags>
0

> <s_epik_input>
W0NIM11PW0NAQEhdMVtDSDJdW0NIMl1bQ0gyXVtDQEhdMVtOSF1DKD1PKVtOSF1jMm5bY0hdW2NIXW8y

> <s_epik_cmdline>
J2VwaWtfcHl0aG9uJywgJy1waCcsICc3LjAnLCAnLXRuJywgJzgnLCAnLW1hJywgJzIwMCcsICctbWV0YWxfYmluZGluZycsICctaW1hZScsICc8aW5maWxlLm1hZT4nLCAnLW9tYWUnLCAnPG91dGZpbGUubWFlPic=

> <r_lp_tautomer_probability>
0.107061

> <r_epik_Ionization_Penalty>
10.8857

> <r_epik_Ionization_Penalty_Charging>
7.67908

> <r_epik_Ionization_Penalty_Neutral>
3.20665

> <r_epik_State_Penalty>
5.80296

> <r_epik_Charging_Adjusted_Penalty>
13.482

> <i_epik_Tot_Q>
-1

> <i_epik_Tot_abs_Q>
1

> <r_epik_Metal_State_Penalty>
1.73217

> <b_epik_Metal_Only>
1

> <s_lp_Force_Field>
OPLS_2005

> <r_lp_Energy>
14.4726

> <b_lp_Chiralities_Consistent>
1

> <s_lp_Variant>
AV-unprocessed.smi:2784-17

> <Gold.Version>
5.8.1

> <Gold.Id.Protein>
6NUR|6NUR_protein|mol2

> <Gold.PLP.Fitness>
48.3086

> <Gold.PLP.PLP>
-34.4627

> <Gold.PLP.part.hbond>
-3.2118

> <Gold.PLP.part.metal>
0.0000

> <Gold.PLP.part.buried>
-4.2186

> <Gold.PLP.part.nonpolar>
-28.1712

> <Gold.PLP.part.repulsive>
0.2577

> <Gold.PLP.ligand.clash>
0.0000

> <Gold.PLP.ligand.torsion>
1.0640

> <Gold.PLP.Chemscore.Hbond>
3.0989

> <Gold.PLP.Chemscore.CHOScore>
2.2234

> <Gold.PLP.Chemscore.Metal>
0.0000

> <Gold.Chemscore.Hbonds>
donor molecule, donor type, donor heavy atom, donor atom, acceptor molecule, acceptor atom, score
      P1  H  6933  6945       L1     2  0.06
      P1  H  7989  7998       L1    13  0.70
      P1  H  7997  8008       L1    11  2.00
      L1  C    14    29       P1  7948  0.10
      L1  C    14    29       P1  7957  1.00
      L1  C    15    30       P1  7949  0.98

> <Gold.PLP.Chemscore.Internal.Correction>
0.0070

> <Gold.Rescore>
     Score         DG    S(hbond)    S(metal)    S(lipo)     H(rot)  DE(clash)    DE(int)     intcor
     14.83     -15.84       1.22        0.00      82.34       1.31       0.00       1.01       ----

> <Gold.Chemscore.Fitness>
14.8265

> <Gold.Chemscore.DG>
-15.8400

> <Gold.Chemscore.ZeroCoef>
-5.4800

> <Gold.Chemscore.Hbond>
1.2221

> <Gold.Chemscore.Metal>
0.0000

> <Gold.Chemscore.Lipo>
82.3352

> <Gold.Chemscore.Internal_Hbond>
0.0000

> <Gold.Chemscore.DEClash>
0.0038

> <Gold.Chemscore.DEInternal>
1.0098

> <Gold.Chemscore.Rot>
1.3106

> <Gold.Chemscore.Internal.Correction>
   9.000000E+99

> <Gold.Chemscore.Hbonds>
donor molecule, donor type, donor heavy atom, donor atom, acceptor molecule, acceptor atom, score
      P1  H  6933  6945       L1     2  0.06
      P1  H  7989  7998       L1    13  0.02
      P1  H  7997  8008       L1    11  0.84

> <Gold.Chemscore.Hbond.Weighted>
-4.0818

> <Gold.Chemscore.Metal.Weighted>
-0.0000

> <Gold.Chemscore.Lipo.Weighted>
-9.6332

> <Gold.Chemscore.Internal_Hbond.Weighted>
0.0000

> <Gold.Chemscore.DEClash.Weighted>
0.0038

> <Gold.Chemscore.DEInternal.Weighted>
1.0098

> <Gold.Chemscore.Rot.Weighted>
3.3550

> <Gold.Chemscore.Internal.Correction.Weighted>
   9.000000E+99

> <Gold.Protein.RotatedTorsions>
[ 6907 6896 6895 6894 ] final  111.68 input  -60.11 | X-H torsion
[ 7974 7965 7964 7962 ] final -108.24 input  175.53 | X-H torsion
[ 8008 7997 7996 7995 ] final  -47.25 input   59.86 | X-H torsion
[ 10167 10162 10161 10158 ] final  -20.45 input  -65.29 | X-H torsion
[ 10718 10713 10712 10709 ] final   -8.66 input   66.30 | X-H torsion
[ 10763 10752 10751 10750 ] final  172.01 input  -60.55 | X-H torsion
[ 11005 11000 10999 10996 ] final  -78.81 input  -57.11 | X-H torsion

> <Gold.Protein.ActiveResidues>
 VAL166  LYS551  ARG553  GLY616  TRP617  ASP618  TYR619  PRO620  LYS621  CYS622 
 ASP623  PHE694  ASN695  SER759  ASP760  ASP761  ALA762  ILE779  LEU786  VAL792 
 PHE793  MET794  SER795  GLU796  ALA797  LYS798  CYS799  TRP800  GLU811  SER814 

> <Gold.Protein.RotatedAtoms>
  152.4956  133.8623  159.7255 H   0  0  0  0  0  0  0  0  0  0  0  0  # atno 6907 bound_to 6896
  150.9131  133.6964  159.2856 H   0  0  0  0  0  0  0  0  0  0  0  0  # atno 6908 bound_to 6896
  151.4366  135.1020  159.9710 H   0  0  0  0  0  0  0  0  0  0  0  0  # atno 6909 bound_to 6896
  145.1954  140.9033  143.3400 H   0  0  0  0  0  0  0  0  0  0  0  0  # atno 7974 bound_to 7965
  154.4015  140.1351  156.4144 H   0  0  0  0  0  0  0  0  0  0  0  0  # atno 8008 bound_to 7997
  155.7703  140.3484  155.5223 H   0  0  0  0  0  0  0  0  0  0  0  0  # atno 8009 bound_to 7997
  155.8774  140.0981  157.1499 H   0  0  0  0  0  0  0  0  0  0  0  0  # atno 8010 bound_to 7997
  140.7276  143.4721  151.0232 H   0  0  0  0  0  0  0  0  0  0  0  0  # atno 10167 bound_to 10162
  156.6994  130.5089  149.5921 H   0  0  0  0  0  0  0  0  0  0  0  0  # atno 10718 bound_to 10713
  154.4200  135.2757  155.1981 H   0  0  0  0  0  0  0  0  0  0  0  0  # atno 10763 bound_to 10752
  154.3931  135.6061  153.5858 H   0  0  0  0  0  0  0  0  0  0  0  0  # atno 10764 bound_to 10752
  152.9833  135.5908  154.4495 H   0  0  0  0  0  0  0  0  0  0  0  0  # atno 10765 bound_to 10752
  141.1666  133.7079  156.8028 H   0  0  0  0  0  0  0  0  0  0  0  0  # atno 11005 bound_to 11000
  145.0000  139.3607  143.6172 LP  0  0  0  0  0  0  0  0  0  0  0  0  # atno 17320 bound_to 7965
  146.3428  139.9219  142.8765 LP  0  0  0  0  0  0  0  0  0  0  0  0  # atno 17321 bound_to 7965
  139.8414  143.7559  152.3180 LP  0  0  0  0  0  0  0  0  0  0  0  0  # atno 17342 bound_to 10162
  139.7709  144.7477  151.0226 LP  0  0  0  0  0  0  0  0  0  0  0  0  # atno 17343 bound_to 10162
  156.1740  130.6455  151.0871 LP  0  0  0  0  0  0  0  0  0  0  0  0  # atno 17370 bound_to 10713
  157.6979  131.0787  150.6913 LP  0  0  0  0  0  0  0  0  0  0  0  0  # atno 17371 bound_to 10713
  140.2244  134.8733  157.3411 LP  0  0  0  0  0  0  0  0  0  0  0  0  # atno 17394 bound_to 11000
  140.1955  134.4319  155.7691 LP  0  0  0  0  0  0  0  0  0  0  0  0  # atno 17395 bound_to 11000

$$$$
