AV-unprocessed.smi:66|AV-procd|sdf|620|dock3
  -GOLD-   2262016513D 1   1.00000     0.00000
 Structure written by MMmdl.
 28 30  0  0  0  0  0  0  0  0  2 V2000
  152.9682  139.5582  156.0548 O   0  0  0  0  0  0  0  0  0  0  0  0
  151.7327  139.7317  155.9737 C   0  0  0  0  0  0  0  0  0  0  0  0
  151.1124  140.0369  154.9304 O   0  5  0  0  0  0  0  0  0  0  0  0
  150.9233  139.5580  157.2692 C   0  0  1  0  0  0  0  0  0  0  0  0
  150.9927  138.1220  157.8195 C   0  0  0  0  0  0  0  0  0  0  0  0
  152.1444  138.1629  158.8225 C   0  0  2  0  0  0  0  0  0  0  0  0
  152.0523  137.1469  159.7992 O   0  0  0  0  0  0  0  0  0  0  0  0
  152.0209  139.5624  159.4237 C   0  0  0  0  0  0  0  0  0  0  0  0
  151.4582  140.3820  158.3584 N   0  0  0  0  0  0  0  0  0  0  0  0
  151.1076  141.6855  158.5395 C   0  0  0  0  0  0  0  0  0  0  0  0
  150.7775  142.4259  157.4471 N   0  0  0  0  0  0  0  0  0  0  0  0
  150.4277  143.7092  157.5671 C   0  0  0  0  0  0  0  0  0  0  0  0
  150.3385  144.4492  158.6730 N   0  0  0  0  0  0  0  0  0  0  0  0
  150.6682  143.7187  159.7733 C   0  0  0  0  0  0  0  0  0  0  0  0
  150.6959  144.1389  161.0859 N   0  0  0  0  0  0  0  0  0  0  0  0
  151.0891  143.0510  161.8232 C   0  0  0  0  0  0  0  0  0  0  0  0
  151.3170  141.9735  161.1226 N   0  0  0  0  0  0  0  0  0  0  0  0
  151.0608  142.3482  159.8043 C   0  0  0  0  0  0  0  0  0  0  0  0
  150.4634  145.0757  161.3821 H   0  0  0  0  0  0  0  0  0  0  0  0
  149.8804  139.8087  157.0698 H   0  0  0  0  0  0  0  0  0  0  0  0
  150.0575  137.8920  158.3326 H   0  0  0  0  0  0  0  0  0  0  0  0
  151.1362  137.3643  157.0476 H   0  0  0  0  0  0  0  0  0  0  0  0
  153.0944  138.0690  158.2948 H   0  0  0  0  0  0  0  0  0  0  0  0
  152.6437  137.3580  160.5053 H   0  0  0  0  0  0  0  0  0  0  0  0
  151.3382  139.5667  160.2750 H   0  0  0  0  0  0  0  0  0  0  0  0
  152.9939  139.9289  159.7515 H   0  0  0  0  0  0  0  0  0  0  0  0
  150.1850  144.2139  156.6437 H   0  0  0  0  0  0  0  0  0  0  0  0
  151.2022  143.0825  162.8970 H   0  0  0  0  0  0  0  0  0  0  0  0
  1  2  2  0  0  0  0
  2  3  1  0  0  0  0
  2  4  1  0  0  0  0
  4  5  1  0  0  0  0
  4 20  1  0  0  0  0
  4  9  1  0  0  0  0
  5  6  1  0  0  0  0
  5 21  1  0  0  0  0
  5 22  1  0  0  0  0
  6  7  1  0  0  0  0
  6  8  1  0  0  0  0
  6 23  1  0  0  0  0
  7 24  1  0  0  0  0
  8 25  1  0  0  0  0
  8 26  1  0  0  0  0
  8  9  1  0  0  0  0
  9 10  1  0  0  0  0
 10 11  1  0  0  0  0
 10 18  2  0  0  0  0
 11 12  2  0  0  0  0
 12 27  1  0  0  0  0
 12 13  1  0  0  0  0
 13 14  2  0  0  0  0
 14 15  1  0  0  0  0
 14 18  1  0  0  0  0
 15 16  1  0  0  0  0
 15 19  1  0  0  0  0
 16 17  2  0  0  0  0
 16 28  1  0  0  0  0
 17 18  1  0  0  0  0
M  CHG  1   3  -1
M  END
> <s_m_source_file>
AV-unprocessed.smi

> <i_m_source_file_index>
66

> <i_lp_mmshare_version>
43012

> <i_f3d_flags>
0

> <s_epik_input>
Tz1DKFtPSF0pW0NAQEhdMVtDSDJdW0NAQEhdKFtPSF0pW0NIMl1OMWMobltjSF1uMiljKGMyMylbbkhdW2NIXW4z

> <s_epik_cmdline>
J2VwaWtfcHl0aG9uJywgJy1waCcsICc3LjAnLCAnLXRuJywgJzgnLCAnLW1hJywgJzIwMCcsICctbWV0YWxfYmluZGluZycsICctaW1hZScsICc8aW5maWxlLm1hZT4nLCAnLW9tYWUnLCAnPG91dGZpbGUubWFlPic=

> <r_lp_tautomer_probability>
0.955585

> <r_epik_Ionization_Penalty>
0.00455415

> <r_epik_Ionization_Penalty_Charging>
0.000248217

> <r_epik_Ionization_Penalty_Neutral>
0.00430593

> <r_epik_State_Penalty>
0.0207074

> <r_epik_Charging_Adjusted_Penalty>
0.0209557

> <i_epik_Tot_Q>
-1

> <i_epik_Tot_abs_Q>
1

> <r_epik_Metal_State_Penalty>
0.337372

> <b_epik_Metal_Only>
0

> <s_lp_Force_Field>
OPLS_2005

> <r_lp_Energy>
24.8219

> <b_lp_Chiralities_Consistent>
1

> <s_lp_Variant>
AV-unprocessed.smi:66-4

> <Gold.Version>
5.8.1

> <Gold.Id.Protein>
6NUR|6NUR_protein|mol2

> <Gold.PLP.Fitness>
47.2541

> <Gold.PLP.PLP>
-32.8482

> <Gold.PLP.part.hbond>
-2.9285

> <Gold.PLP.part.metal>
0.0000

> <Gold.PLP.part.buried>
-6.9305

> <Gold.PLP.part.nonpolar>
-24.3947

> <Gold.PLP.part.repulsive>
0.2775

> <Gold.PLP.ligand.clash>
0.0000

> <Gold.PLP.ligand.torsion>
0.2655

> <Gold.PLP.Chemscore.Hbond>
3.9425

> <Gold.PLP.Chemscore.CHOScore>
1.0000

> <Gold.PLP.Chemscore.Metal>
0.0000

> <Gold.Chemscore.Hbonds>
donor molecule, donor type, donor heavy atom, donor atom, acceptor molecule, acceptor atom, score
      P1  H  6896  6909       L1     7  1.00
      P1  H  7989  7998       L1     3  1.00
      P1  H  7997  8008       L1     1  2.00
      L1  C    12    27       P1  8028  0.13

> <Gold.PLP.Chemscore.Internal.Correction>
0.1094

> <Gold.Rescore>
     Score         DG    S(hbond)    S(metal)    S(lipo)     H(rot)  DE(clash)    DE(int)     intcor
     12.60     -13.80       2.88        0.00      27.84       1.78       0.04       1.16       ----

> <Gold.Chemscore.Fitness>
12.5960

> <Gold.Chemscore.DG>
-13.8007

> <Gold.Chemscore.ZeroCoef>
-5.4800

> <Gold.Chemscore.Hbond>
2.8837

> <Gold.Chemscore.Metal>
0.0000

> <Gold.Chemscore.Lipo>
27.8356

> <Gold.Chemscore.Internal_Hbond>
0.0000

> <Gold.Chemscore.DEClash>
0.0421

> <Gold.Chemscore.DEInternal>
1.1626

> <Gold.Chemscore.Rot>
1.7842

> <Gold.Chemscore.Internal.Correction>
   9.000000E+99

> <Gold.Chemscore.Hbonds>
donor molecule, donor type, donor heavy atom, donor atom, acceptor molecule, acceptor atom, score
      P1  H  6896  6909       L1     7  0.42
      P1  H  7989  7998       L1     3  1.00
      P1  H  7997  8008       L1     1  0.94

> <Gold.Chemscore.Hbond.Weighted>
-9.6315

> <Gold.Chemscore.Metal.Weighted>
-0.0000

> <Gold.Chemscore.Lipo.Weighted>
-3.2568

> <Gold.Chemscore.Internal_Hbond.Weighted>
0.0000

> <Gold.Chemscore.DEClash.Weighted>
0.0421

> <Gold.Chemscore.DEInternal.Weighted>
1.1626

> <Gold.Chemscore.Rot.Weighted>
4.5676

> <Gold.Chemscore.Internal.Correction.Weighted>
   9.000000E+99

> <Gold.Protein.RotatedTorsions>
[ 6907 6896 6895 6894 ] final  128.46 input  -60.11 | X-H torsion
[ 7974 7965 7964 7962 ] final   73.79 input  175.53 | X-H torsion
[ 8008 7997 7996 7995 ] final  -20.92 input   59.86 | X-H torsion
[ 10167 10162 10161 10158 ] final  -97.11 input  -65.29 | X-H torsion
[ 10718 10713 10712 10709 ] final -124.27 input   66.30 | X-H torsion
[ 10763 10752 10751 10750 ] final  162.53 input  -60.55 | X-H torsion
[ 11005 11000 10999 10996 ] final  128.51 input  -57.11 | X-H torsion

> <Gold.Protein.ActiveResidues>
 VAL166  LYS551  ARG553  GLY616  TRP617  ASP618  TYR619  PRO620  LYS621  CYS622 
 ASP623  PHE694  ASN695  SER759  ASP760  ASP761  ALA762  ILE779  LEU786  VAL792 
 PHE793  MET794  SER795  GLU796  ALA797  LYS798  CYS799  TRP800  GLU811  SER814 

> <Gold.Protein.RotatedAtoms>
  152.3717  133.6428  159.6092 H   0  0  0  0  0  0  0  0  0  0  0  0  # atno 6907 bound_to 6896
  150.7674  133.9259  159.3421 H   0  0  0  0  0  0  0  0  0  0  0  0  # atno 6908 bound_to 6896
  151.7081  135.0919  160.0314 H   0  0  0  0  0  0  0  0  0  0  0  0  # atno 6909 bound_to 6896
  145.7364  139.2704  143.1511 H   0  0  0  0  0  0  0  0  0  0  0  0  # atno 7974 bound_to 7965
  154.4739  140.2049  155.9927 H   0  0  0  0  0  0  0  0  0  0  0  0  # atno 8008 bound_to 7997
  156.1056  140.3237  155.7972 H   0  0  0  0  0  0  0  0  0  0  0  0  # atno 8009 bound_to 7997
  155.4722  140.0532  157.2969 H   0  0  0  0  0  0  0  0  0  0  0  0  # atno 8010 bound_to 7997
  140.2868  143.3247  152.0386 H   0  0  0  0  0  0  0  0  0  0  0  0  # atno 10167 bound_to 10162
  156.1573  130.6577  151.0000 H   0  0  0  0  0  0  0  0  0  0  0  0  # atno 10718 bound_to 10713
  154.2798  135.2763  155.2702 H   0  0  0  0  0  0  0  0  0  0  0  0  # atno 10763 bound_to 10752
  154.5228  135.5751  153.6698 H   0  0  0  0  0  0  0  0  0  0  0  0  # atno 10764 bound_to 10752
  152.9931  135.6208  154.2957 H   0  0  0  0  0  0  0  0  0  0  0  0  # atno 10765 bound_to 10752
  139.9564  134.9612  156.9012 H   0  0  0  0  0  0  0  0  0  0  0  0  # atno 11005 bound_to 11000
  146.0489  140.8090  142.9791 LP  0  0  0  0  0  0  0  0  0  0  0  0  # atno 17320 bound_to 7965
  144.6880  140.3022  143.7261 LP  0  0  0  0  0  0  0  0  0  0  0  0  # atno 17321 bound_to 7965
  139.4948  144.6553  151.6586 LP  0  0  0  0  0  0  0  0  0  0  0  0  # atno 17342 bound_to 10162
  140.5766  144.0018  150.6245 LP  0  0  0  0  0  0  0  0  0  0  0  0  # atno 17343 bound_to 10162
  157.6705  131.0862  150.7624 LP  0  0  0  0  0  0  0  0  0  0  0  0  # atno 17370 bound_to 10713
  156.7688  130.4822  149.5422 LP  0  0  0  0  0  0  0  0  0  0  0  0  # atno 17371 bound_to 10713
  140.5599  134.0545  155.7395 LP  0  0  0  0  0  0  0  0  0  0  0  0  # atno 17394 bound_to 11000
  141.1236  133.9420  157.2680 LP  0  0  0  0  0  0  0  0  0  0  0  0  # atno 17395 bound_to 11000

$$$$
