AV-unprocessed.smi:19|AV-procd|sdf|109|dock10
  -GOLD-   2262015273D 1   1.00000     0.00000
 Structure written by MMmdl.
 57 60  0  0  0  0  0  0  0  0  1 V2000
  147.7881  141.0780  157.4733 C   0  0  0  0  0  0  0  0  0  0  0  0
  149.0187  141.7760  157.5803 O   0  0  0  0  0  0  0  0  0  0  0  0
  150.1562  141.0207  157.1840 C   0  0  0  0  0  0  0  0  0  0  0  0
  150.3523  141.0290  155.6505 C   0  0  2  0  0  0  0  0  0  0  0  0
  149.2081  140.3421  154.8810 C   0  0  0  0  0  0  0  0  0  0  0  0
  149.2863  138.8933  155.0287 N   0  0  0  0  0  0  0  0  0  0  0  0
  148.1695  138.2139  154.6658 C   0  0  0  0  0  0  0  0  0  0  0  0
  147.0540  138.8927  154.2862 N   0  0  0  0  0  0  0  0  0  0  0  0
  145.9479  138.2302  153.9359 C   0  0  0  0  0  0  0  0  0  0  0  0
  145.7448  136.9128  153.8876 N   0  0  0  0  0  0  0  0  0  0  0  0
  146.8635  136.2245  154.2540 C   0  0  0  0  0  0  0  0  0  0  0  0
  148.1050  136.7919  154.6585 C   0  0  0  0  0  0  0  0  0  0  0  0
  149.0114  135.7814  154.9557 N   0  0  0  0  0  0  0  0  0  0  0  0
  148.3403  134.6814  154.7526 C   0  0  0  0  0  0  0  0  0  0  0  0
  147.0473  134.8530  154.3104 N   0  0  0  0  0  0  0  0  0  0  0  0
  146.0847  133.8031  154.0038 C   0  0  0  0  0  0  0  0  0  0  0  0
  145.8562  133.5433  152.4844 C   0  0  0  0  0  0  0  0  0  0  0  0
  147.2127  133.3186  151.7567 C   0  0  0  0  0  0  0  0  0  0  0  0
  147.9076  132.1926  152.2539 O   0  0  0  0  0  0  0  0  0  0  0  0
  144.9535  132.2979  152.2895 C   0  0  0  0  0  0  0  0  0  0  0  0
  144.4096  132.1611  150.8548 C   0  0  0  0  0  0  0  0  0  0  0  0
  143.7213  133.3450  150.4748 O   0  0  0  0  0  0  0  0  0  0  0  0
  144.5606  134.4923  150.4717 C   0  0  0  0  0  0  0  0  0  0  0  0
  145.0893  134.7535  151.8929 C   0  0  0  0  0  0  0  0  0  0  0  0
  150.5852  138.3501  154.6457 C   0  0  0  0  0  0  0  0  0  0  0  0
  151.7018  139.0441  155.4457 C   0  0  1  0  0  0  0  0  0  0  0  0
  153.0943  138.5993  154.9873 C   0  0  0  0  0  0  0  0  0  0  0  0
  151.6074  140.4581  155.2708 O   0  0  0  0  0  0  0  0  0  0  0  0
  146.9721  141.7376  157.7688 H   0  0  0  0  0  0  0  0  0  0  0  0
  147.7555  140.2025  158.1214 H   0  0  0  0  0  0  0  0  0  0  0  0
  147.6032  140.7603  156.4464 H   0  0  0  0  0  0  0  0  0  0  0  0
  151.0498  141.3907  157.6891 H   0  0  0  0  0  0  0  0  0  0  0  0
  150.0058  140.0011  157.5387 H   0  0  0  0  0  0  0  0  0  0  0  0
  150.4004  142.0652  155.3191 H   0  0  0  0  0  0  0  0  0  0  0  0
  148.2491  140.7368  155.2148 H   0  0  0  0  0  0  0  0  0  0  0  0
  149.2881  140.5812  153.8195 H   0  0  0  0  0  0  0  0  0  0  0  0
  145.1048  138.8434  153.6538 H   0  0  0  0  0  0  0  0  0  0  0  0
  148.7780  133.7066  154.9116 H   0  0  0  0  0  0  0  0  0  0  0  0
  146.4329  132.8911  154.4905 H   0  0  0  0  0  0  0  0  0  0  0  0
  145.1420  134.0517  154.4928 H   0  0  0  0  0  0  0  0  0  0  0  0
  147.0609  133.1855  150.6854 H   0  0  0  0  0  0  0  0  0  0  0  0
  147.8728  134.1782  151.8591 H   0  0  0  0  0  0  0  0  0  0  0  0
  148.0866  131.6075  151.5336 H   0  0  0  0  0  0  0  0  0  0  0  0
  145.4909  131.3871  152.5547 H   0  0  0  0  0  0  0  0  0  0  0  0
  144.1020  132.3585  152.9686 H   0  0  0  0  0  0  0  0  0  0  0  0
  145.2047  131.9424  150.1415 H   0  0  0  0  0  0  0  0  0  0  0  0
  143.7121  131.3247  150.8044 H   0  0  0  0  0  0  0  0  0  0  0  0
  145.3742  134.3677  149.7565 H   0  0  0  0  0  0  0  0  0  0  0  0
  143.9760  135.3475  150.1324 H   0  0  0  0  0  0  0  0  0  0  0  0
  144.2339  134.9855  152.5292 H   0  0  0  0  0  0  0  0  0  0  0  0
  145.7111  135.6493  151.8982 H   0  0  0  0  0  0  0  0  0  0  0  0
  150.6141  137.2756  154.8321 H   0  0  0  0  0  0  0  0  0  0  0  0
  150.7374  138.5006  153.5760 H   0  0  0  0  0  0  0  0  0  0  0  0
  151.6000  138.7979  156.5029 H   0  0  0  0  0  0  0  0  0  0  0  0
  153.2223  137.5235  155.1104 H   0  0  0  0  0  0  0  0  0  0  0  0
  153.8727  139.0949  155.5682 H   0  0  0  0  0  0  0  0  0  0  0  0
  153.2588  138.8383  153.9363 H   0  0  0  0  0  0  0  0  0  0  0  0
  1  2  1  0  0  0  0
  1 29  1  0  0  0  0
  1 30  1  0  0  0  0
  1 31  1  0  0  0  0
  2  3  1  0  0  0  0
  3  4  1  0  0  0  0
  3 32  1  0  0  0  0
  3 33  1  0  0  0  0
  4 28  1  0  0  0  0
  4  5  1  0  0  0  0
  4 34  1  0  0  0  0
  5  6  1  0  0  0  0
  5 35  1  0  0  0  0
  5 36  1  0  0  0  0
  6  7  1  0  0  0  0
  6 25  1  0  0  0  0
  7 12  1  0  0  0  0
  7  8  2  0  0  0  0
  8  9  1  0  0  0  0
  9 10  2  0  0  0  0
  9 37  1  0  0  0  0
 10 11  1  0  0  0  0
 11 15  1  0  0  0  0
 11 12  2  0  0  0  0
 12 13  1  0  0  0  0
 13 14  2  0  0  0  0
 14 15  1  0  0  0  0
 14 38  1  0  0  0  0
 15 16  1  0  0  0  0
 16 17  1  0  0  0  0
 16 39  1  0  0  0  0
 16 40  1  0  0  0  0
 17 24  1  0  0  0  0
 17 18  1  0  0  0  0
 17 20  1  0  0  0  0
 18 19  1  0  0  0  0
 18 41  1  0  0  0  0
 18 42  1  0  0  0  0
 19 43  1  0  0  0  0
 20 21  1  0  0  0  0
 20 44  1  0  0  0  0
 20 45  1  0  0  0  0
 21 22  1  0  0  0  0
 21 46  1  0  0  0  0
 21 47  1  0  0  0  0
 22 23  1  0  0  0  0
 23 24  1  0  0  0  0
 23 48  1  0  0  0  0
 23 49  1  0  0  0  0
 24 50  1  0  0  0  0
 24 51  1  0  0  0  0
 25 26  1  0  0  0  0
 25 52  1  0  0  0  0
 25 53  1  0  0  0  0
 26 27  1  0  0  0  0
 26 28  1  0  0  0  0
 26 54  1  0  0  0  0
 27 55  1  0  0  0  0
 27 56  1  0  0  0  0
 27 57  1  0  0  0  0
M  END
> <s_m_source_file>
AV-unprocessed.smi

> <i_m_source_file_index>
19

> <i_lp_mmshare_version>
43012

> <i_f3d_flags>
0

> <s_epik_input>
W0NIM11PW0NIMl1bQ0BASF0xW0NIMl1OKFtDSDJdW0NASF0oTzEpW0NIM10pYyhuW2NIXW4yKWMoYzIzKW5bY0hdbjNbQ0gyXUM0KFtDSDJdW09IXSlbQ0gyXVtDSDJdT1tDSDJdW0NIMl00

> <s_epik_cmdline>
J2VwaWtfcHl0aG9uJywgJy1waCcsICc3LjAnLCAnLXRuJywgJzgnLCAnLW1hJywgJzIwMCcsICctbWV0YWxfYmluZGluZycsICctaW1hZScsICc8aW5maWxlLm1hZT4nLCAnLW9tYWUnLCAnPG91dGZpbGUubWFlPic=

> <r_lp_tautomer_probability>
1

> <r_epik_Ionization_Penalty>
6.20357e-05

> <r_epik_Ionization_Penalty_Charging>
0

> <r_epik_Ionization_Penalty_Neutral>
6.20357e-05

> <r_epik_State_Penalty>
-0

> <r_epik_Charging_Adjusted_Penalty>
0

> <i_epik_Tot_Q>
0

> <i_epik_Tot_abs_Q>
0

> <r_epik_Metal_State_Penalty>
-0

> <b_epik_Metal_Only>
0

> <s_lp_Force_Field>
OPLS_2005

> <r_lp_Energy>
39.3548

> <b_lp_Chiralities_Consistent>
1

> <s_lp_Variant>
AV-unprocessed.smi:19-1

> <Gold.Version>
5.8.1

> <Gold.Id.Protein>
6NUR|6NUR_protein|mol2

> <Gold.PLP.Fitness>
40.5866

> <Gold.PLP.PLP>
-33.2032

> <Gold.PLP.part.hbond>
-2.0000

> <Gold.PLP.part.metal>
0.0000

> <Gold.PLP.part.buried>
-3.0894

> <Gold.PLP.part.nonpolar>
-28.9814

> <Gold.PLP.part.repulsive>
0.8169

> <Gold.PLP.ligand.clash>
0.0000

> <Gold.PLP.ligand.torsion>
0.7553

> <Gold.PLP.Chemscore.Hbond>
1.8160

> <Gold.PLP.Chemscore.CHOScore>
1.0000

> <Gold.PLP.Chemscore.Metal>
0.0000

> <Gold.Chemscore.Hbonds>
donor molecule, donor type, donor heavy atom, donor atom, acceptor molecule, acceptor atom, score
      L1  H    19    43       P1 10747  1.00
      P1  H  7989  7998       L1    28  0.83
      L1  C     9    37       P1 10175  1.00

> <Gold.PLP.Chemscore.Internal.Correction>
0.4460

> <Gold.Rescore>
     Score         DG    S(hbond)    S(metal)    S(lipo)     H(rot)  DE(clash)    DE(int)     intcor
     10.84     -11.84       1.29        0.00      80.28       2.87       0.14       0.86       ----

> <Gold.Chemscore.Fitness>
10.8408

> <Gold.Chemscore.DG>
-11.8391

> <Gold.Chemscore.ZeroCoef>
-5.4800

> <Gold.Chemscore.Hbond>
1.2937

> <Gold.Chemscore.Metal>
0.0000

> <Gold.Chemscore.Lipo>
80.2789

> <Gold.Chemscore.Internal_Hbond>
0.0000

> <Gold.Chemscore.DEClash>
0.1391

> <Gold.Chemscore.DEInternal>
0.8593

> <Gold.Chemscore.Rot>
2.8729

> <Gold.Chemscore.Internal.Correction>
   9.000000E+99

> <Gold.Chemscore.Hbonds>
donor molecule, donor type, donor heavy atom, donor atom, acceptor molecule, acceptor atom, score
      L1  H    19    43       P1 10747  0.99
      P1  H  7989  7998       L1    28  0.20

> <Gold.Chemscore.Hbond.Weighted>
-4.3211

> <Gold.Chemscore.Metal.Weighted>
-0.0000

> <Gold.Chemscore.Lipo.Weighted>
-9.3926

> <Gold.Chemscore.Internal_Hbond.Weighted>
0.0000

> <Gold.Chemscore.DEClash.Weighted>
0.1391

> <Gold.Chemscore.DEInternal.Weighted>
0.8593

> <Gold.Chemscore.Rot.Weighted>
7.3546

> <Gold.Chemscore.Internal.Correction.Weighted>
   9.000000E+99

> <Gold.Protein.RotatedTorsions>
[ 6907 6896 6895 6894 ] final  -50.86 input  -60.11 | X-H torsion
[ 7974 7965 7964 7962 ] final   89.40 input  175.53 | X-H torsion
[ 8008 7997 7996 7995 ] final    7.33 input   59.86 | X-H torsion
[ 10167 10162 10161 10158 ] final  105.58 input  -65.29 | X-H torsion
[ 10718 10713 10712 10709 ] final   33.93 input   66.30 | X-H torsion
[ 10763 10752 10751 10750 ] final   62.69 input  -60.55 | X-H torsion
[ 11005 11000 10999 10996 ] final -152.35 input  -57.11 | X-H torsion

> <Gold.Protein.ActiveResidues>
 VAL166  LYS551  ARG553  GLY616  TRP617  ASP618  TYR619  PRO620  LYS621  CYS622 
 ASP623  PHE694  ASN695  SER759  ASP760  ASP761  ALA762  ILE779  LEU786  VAL792 
 PHE793  MET794  SER795  GLU796  ALA797  LYS798  CYS799  TRP800  GLU811  SER814 

> <Gold.Protein.RotatedAtoms>
  150.8666  134.8031  159.7123 H   0  0  0  0  0  0  0  0  0  0  0  0  # atno 6907 bound_to 6896
  152.4685  134.5014  159.9735 H   0  0  0  0  0  0  0  0  0  0  0  0  # atno 6908 bound_to 6896
  151.5109  133.3447  159.2920 H   0  0  0  0  0  0  0  0  0  0  0  0  # atno 6909 bound_to 6896
  145.5328  139.2284  143.2609 H   0  0  0  0  0  0  0  0  0  0  0  0  # atno 7974 bound_to 7965
  154.7525  140.2769  155.6280 H   0  0  0  0  0  0  0  0  0  0  0  0  # atno 8008 bound_to 7997
  156.2898  140.2675  156.2209 H   0  0  0  0  0  0  0  0  0  0  0  0  # atno 8009 bound_to 7997
  155.0119  140.0372  157.2392 H   0  0  0  0  0  0  0  0  0  0  0  0  # atno 8010 bound_to 7997
  139.7081  144.7082  151.1073 H   0  0  0  0  0  0  0  0  0  0  0  0  # atno 10167 bound_to 10162
  157.3040  130.7365  149.6684 H   0  0  0  0  0  0  0  0  0  0  0  0  # atno 10718 bound_to 10713
  152.9991  135.5456  154.6233 H   0  0  0  0  0  0  0  0  0  0  0  0  # atno 10763 bound_to 10752
  154.5527  135.2828  155.0995 H   0  0  0  0  0  0  0  0  0  0  0  0  # atno 10764 bound_to 10752
  154.2229  135.6447  153.5203 H   0  0  0  0  0  0  0  0  0  0  0  0  # atno 10765 bound_to 10752
  140.7198  134.3739  157.5185 H   0  0  0  0  0  0  0  0  0  0  0  0  # atno 11005 bound_to 11000
  146.2033  140.6145  142.9092 LP  0  0  0  0  0  0  0  0  0  0  0  0  # atno 17320 bound_to 7965
  144.7617  140.5437  143.6731 LP  0  0  0  0  0  0  0  0  0  0  0  0  # atno 17321 bound_to 7965
  140.7726  143.5331  150.9400 LP  0  0  0  0  0  0  0  0  0  0  0  0  # atno 17342 bound_to 10162
  139.9015  143.6830  152.3130 LP  0  0  0  0  0  0  0  0  0  0  0  0  # atno 17343 bound_to 10162
  155.9673  130.4271  150.4729 LP  0  0  0  0  0  0  0  0  0  0  0  0  # atno 17370 bound_to 10713
  157.2716  131.0588  151.2256 LP  0  0  0  0  0  0  0  0  0  0  0  0  # atno 17371 bound_to 10713
  139.8851  134.8947  156.2664 LP  0  0  0  0  0  0  0  0  0  0  0  0  # atno 17394 bound_to 11000
  141.0013  133.7150  156.0965 LP  0  0  0  0  0  0  0  0  0  0  0  0  # atno 17395 bound_to 11000

$$$$
