AV-unprocessed.smi:224|AV-procd|sdf|1708|dock2
  -GOLD-   2262020173D 1   1.00000     0.00000
 Structure written by MMmdl.
 56 59  0  0  0  0  0  0  0  0  2 V2000
  144.5897  132.4567  148.8960 C   0  0  0  0  0  0  0  0  0  0  0  0
  144.4168  133.4278  150.0712 C   0  0  1  0  0  0  0  0  0  0  0  0
  143.8770  134.6344  149.5708 O   0  0  0  0  0  0  0  0  0  0  0  0
  143.4762  132.8687  151.1550 C   0  0  0  0  0  0  0  0  0  0  0  0
  143.7964  133.4236  152.5005 N   0  3  2  0  0  0  0  0  0  0  0  0
  143.1254  134.7383  152.7064 C   0  0  0  0  0  0  0  0  0  0  0  0
  143.3895  135.3104  154.1051 C   0  0  0  0  0  0  0  0  0  0  0  0
  144.8226  135.4064  154.3429 N   0  0  0  0  0  0  0  0  0  0  0  0
  145.4308  136.5480  153.9234 C   0  0  0  0  0  0  0  0  0  0  0  0
  145.4284  136.8699  152.6021 N   0  0  0  0  0  0  0  0  0  0  0  0
  146.0109  137.9947  152.1771 C   0  0  0  0  0  0  0  0  0  0  0  0
  146.6481  138.9237  152.8908 N   0  0  0  0  0  0  0  0  0  0  0  0
  146.6692  138.6022  154.2155 C   0  0  0  0  0  0  0  0  0  0  0  0
  146.0886  137.4466  154.8115 C   0  0  0  0  0  0  0  0  0  0  0  0
  146.3199  137.4577  156.1821 N   0  0  0  0  0  0  0  0  0  0  0  0
  146.9911  138.5585  156.3850 C   0  0  0  0  0  0  0  0  0  0  0  0
  147.2506  139.3039  155.2574 N   0  0  0  0  0  0  0  0  0  0  0  0
  147.9800  140.5615  155.1954 C   0  0  0  0  0  0  0  0  0  0  0  0
  149.4530  140.3949  154.7552 C   0  0  1  0  0  0  0  0  0  0  0  0
  149.6138  140.9579  153.4643 O   0  0  0  0  0  0  0  0  0  0  0  0
  150.4635  141.0440  155.6967 C   0  0  0  0  0  0  0  0  0  0  0  0
  151.6792  140.1375  155.5663 C   0  0  0  0  0  0  0  0  0  0  0  0
  151.0958  138.8478  155.5002 O   0  0  0  0  0  0  0  0  0  0  0  0
  149.9162  138.9250  154.7058 C   0  0  0  0  0  0  0  0  0  0  0  0
  145.5164  134.1302  154.1986 C   0  0  0  0  0  0  0  0  0  0  0  0
  145.2578  133.4547  152.8282 C   0  0  1  0  0  0  0  0  0  0  0  0
  145.8851  132.0458  152.8716 C   0  0  0  0  0  0  0  0  0  0  0  0
  145.0251  131.5143  149.2290 H   0  0  0  0  0  0  0  0  0  0  0  0
  145.2517  132.8729  148.1358 H   0  0  0  0  0  0  0  0  0  0  0  0
  143.6348  132.2317  148.4192 H   0  0  0  0  0  0  0  0  0  0  0  0
  145.3994  133.6418  150.4916 H   0  0  0  0  0  0  0  0  0  0  0  0
  142.9779  134.7061  149.8541 H   0  0  0  0  0  0  0  0  0  0  0  0
  142.4508  133.0719  150.8556 H   0  0  0  0  0  0  0  0  0  0  0  0
  143.5450  131.7801  151.1877 H   0  0  0  0  0  0  0  0  0  0  0  0
  143.4786  135.4468  151.9549 H   0  0  0  0  0  0  0  0  0  0  0  0
  142.0501  134.6376  152.5601 H   0  0  0  0  0  0  0  0  0  0  0  0
  142.8924  136.2739  154.2078 H   0  0  0  0  0  0  0  0  0  0  0  0
  142.9533  134.6587  154.8629 H   0  0  0  0  0  0  0  0  0  0  0  0
  145.9596  138.1758  151.1136 H   0  0  0  0  0  0  0  0  0  0  0  0
  147.3253  138.8563  157.3684 H   0  0  0  0  0  0  0  0  0  0  0  0
  147.4562  141.2268  154.5079 H   0  0  0  0  0  0  0  0  0  0  0  0
  147.9300  141.0362  156.1764 H   0  0  0  0  0  0  0  0  0  0  0  0
  149.4485  140.2848  152.8217 H   0  0  0  0  0  0  0  0  0  0  0  0
  150.6753  142.0890  155.4659 H   0  0  0  0  0  0  0  0  0  0  0  0
  150.1052  140.9967  156.7255 H   0  0  0  0  0  0  0  0  0  0  0  0
  152.2277  140.3434  154.6459 H   0  0  0  0  0  0  0  0  0  0  0  0
  152.3661  140.2270  156.4082 H   0  0  0  0  0  0  0  0  0  0  0  0
  149.1703  138.2404  155.1109 H   0  0  0  0  0  0  0  0  0  0  0  0
  150.1394  138.5981  153.6889 H   0  0  0  0  0  0  0  0  0  0  0  0
  146.5863  134.2544  154.3726 H   0  0  0  0  0  0  0  0  0  0  0  0
  145.1611  133.4777  154.9973 H   0  0  0  0  0  0  0  0  0  0  0  0
  145.7586  134.0343  152.0518 H   0  0  0  0  0  0  0  0  0  0  0  0
  146.9113  132.0927  153.2377 H   0  0  0  0  0  0  0  0  0  0  0  0
  145.9360  131.5667  151.8957 H   0  0  0  0  0  0  0  0  0  0  0  0
  145.3304  131.3870  153.5406 H   0  0  0  0  0  0  0  0  0  0  0  0
  143.3878  132.7864  153.1696 H   0  0  0  0  0  0  0  0  0  0  0  0
  1  2  1  0  0  0  0
  1 28  1  0  0  0  0
  1 29  1  0  0  0  0
  1 30  1  0  0  0  0
  2  3  1  0  0  0  0
  2  4  1  0  0  0  0
  2 31  1  0  0  0  0
  3 32  1  0  0  0  0
  4  5  1  0  0  0  0
  4 33  1  0  0  0  0
  4 34  1  0  0  0  0
  5 26  1  0  0  0  0
  5  6  1  0  0  0  0
  5 56  1  0  0  0  0
  6  7  1  0  0  0  0
  6 35  1  0  0  0  0
  6 36  1  0  0  0  0
  7  8  1  0  0  0  0
  7 37  1  0  0  0  0
  7 38  1  0  0  0  0
  8  9  1  0  0  0  0
  8 25  1  0  0  0  0
  9 14  1  0  0  0  0
  9 10  2  0  0  0  0
 10 11  1  0  0  0  0
 11 12  2  0  0  0  0
 11 39  1  0  0  0  0
 12 13  1  0  0  0  0
 13 17  1  0  0  0  0
 13 14  2  0  0  0  0
 14 15  1  0  0  0  0
 15 16  2  0  0  0  0
 16 17  1  0  0  0  0
 16 40  1  0  0  0  0
 17 18  1  0  0  0  0
 18 19  1  0  0  0  0
 18 41  1  0  0  0  0
 18 42  1  0  0  0  0
 19 24  1  0  0  0  0
 19 20  1  0  0  0  0
 19 21  1  0  0  0  0
 20 43  1  0  0  0  0
 21 22  1  0  0  0  0
 21 44  1  0  0  0  0
 21 45  1  0  0  0  0
 22 23  1  0  0  0  0
 22 46  1  0  0  0  0
 22 47  1  0  0  0  0
 23 24  1  0  0  0  0
 24 48  1  0  0  0  0
 24 49  1  0  0  0  0
 25 26  1  0  0  0  0
 25 50  1  0  0  0  0
 25 51  1  0  0  0  0
 26 27  1  0  0  0  0
 26 52  1  0  0  0  0
 27 53  1  0  0  0  0
 27 54  1  0  0  0  0
 27 55  1  0  0  0  0
M  CHG  1   5   1
M  END
> <s_m_source_file>
AV-unprocessed.smi

> <i_m_source_file_index>
224

> <i_lp_mmshare_version>
43012

> <i_f3d_flags>
0

> <s_epik_input>
W0NIM11bQ0BIXShbT0hdKVtDSDJdTjFbQ0gyXVtDSDJdTihbQ0gyXVtDQEhdMVtDSDNdKWMobltjSF1uMiljKGMyMyluW2NIXW4zW0NIMl1bQ0BAXTQoW09IXSlbQ0gyXVtDSDJdT1tDSDJdNA==

> <s_epik_cmdline>
J2VwaWtfcHl0aG9uJywgJy1waCcsICc3LjAnLCAnLXRuJywgJzgnLCAnLW1hJywgJzIwMCcsICctbWV0YWxfYmluZGluZycsICctaW1hZScsICc8aW5maWxlLm1hZT4nLCAnLW9tYWUnLCAnPG91dGZpbGUubWFlPic=

> <r_lp_tautomer_probability>
1

> <r_epik_Ionization_Penalty>
0.00516958

> <r_epik_Ionization_Penalty_Charging>
0.00509693

> <r_epik_Ionization_Penalty_Neutral>
7.26542e-05

> <r_epik_State_Penalty>
-0

> <r_epik_Charging_Adjusted_Penalty>
0.00509693

> <i_epik_Tot_Q>
1

> <i_epik_Tot_abs_Q>
1

> <r_epik_Metal_State_Penalty>
-0

> <b_epik_Metal_Only>
0

> <s_lp_Force_Field>
OPLS_2005

> <r_lp_Energy>
48.4109

> <b_lp_Chiralities_Consistent>
1

> <s_lp_Variant>
AV-unprocessed.smi:224-2

> <Gold.Version>
5.8.1

> <Gold.Id.Protein>
6NUR|6NUR_protein|mol2

> <Gold.PLP.Fitness>
49.7817

> <Gold.PLP.PLP>
-36.0101

> <Gold.PLP.part.hbond>
-5.7963

> <Gold.PLP.part.metal>
0.0000

> <Gold.PLP.part.buried>
-4.7165

> <Gold.PLP.part.nonpolar>
-26.3423

> <Gold.PLP.part.repulsive>
0.5238

> <Gold.PLP.ligand.clash>
0.0000

> <Gold.PLP.ligand.torsion>
2.1668

> <Gold.PLP.Chemscore.Hbond>
4.9638

> <Gold.PLP.Chemscore.CHOScore>
0.8976

> <Gold.PLP.Chemscore.Metal>
0.0000

> <Gold.Chemscore.Hbonds>
donor molecule, donor type, donor heavy atom, donor atom, acceptor molecule, acceptor atom, score
      L1  H     3    32       P1 10186  1.00
      L1  H     5    56       P1 10957  2.00
      L1  H    20    43       P1  7957  0.77
      P1  H  7989  7998       L1    20  0.21
      P1  H  8011  8017       L1    20  0.95
      L1  C    11    39       P1 10171  0.92

> <Gold.PLP.Chemscore.Internal.Correction>
0.5210

> <Gold.Rescore>
     Score         DG    S(hbond)    S(metal)    S(lipo)     H(rot)  DE(clash)    DE(int)     intcor
     13.20     -15.57       2.90        0.00      76.88       3.36       0.02       2.35       ----

> <Gold.Chemscore.Fitness>
13.1954

> <Gold.Chemscore.DG>
-15.5700

> <Gold.Chemscore.ZeroCoef>
-5.4800

> <Gold.Chemscore.Hbond>
2.9040

> <Gold.Chemscore.Metal>
0.0000

> <Gold.Chemscore.Lipo>
76.8809

> <Gold.Chemscore.Internal_Hbond>
0.0000

> <Gold.Chemscore.DEClash>
0.0241

> <Gold.Chemscore.DEInternal>
2.3505

> <Gold.Chemscore.Rot>
3.3611

> <Gold.Chemscore.Internal.Correction>
   9.000000E+99

> <Gold.Chemscore.Hbonds>
donor molecule, donor type, donor heavy atom, donor atom, acceptor molecule, acceptor atom, score
      L1  H     3    32       P1 10186  0.72
      L1  H     5    56       P1 10957  0.42
      L1  H    20    43       P1  7957  0.78
      P1  H  7989  7998       L1    20  0.01
      P1  H  8011  8017       L1    20  0.21

> <Gold.Chemscore.Hbond.Weighted>
-9.6994

> <Gold.Chemscore.Metal.Weighted>
-0.0000

> <Gold.Chemscore.Lipo.Weighted>
-8.9951

> <Gold.Chemscore.Internal_Hbond.Weighted>
0.0000

> <Gold.Chemscore.DEClash.Weighted>
0.0241

> <Gold.Chemscore.DEInternal.Weighted>
2.3505

> <Gold.Chemscore.Rot.Weighted>
8.6045

> <Gold.Chemscore.Internal.Correction.Weighted>
   9.000000E+99

> <Gold.Protein.RotatedTorsions>
[ 6907 6896 6895 6894 ] final -108.15 input  -60.11 | X-H torsion
[ 7974 7965 7964 7962 ] final  -45.88 input  175.53 | X-H torsion
[ 8008 7997 7996 7995 ] final  -62.93 input   59.86 | X-H torsion
[ 10167 10162 10161 10158 ] final  -28.08 input  -65.29 | X-H torsion
[ 10718 10713 10712 10709 ] final   19.64 input   66.30 | X-H torsion
[ 10763 10752 10751 10750 ] final   64.42 input  -60.55 | X-H torsion
[ 11005 11000 10999 10996 ] final   58.28 input  -57.11 | X-H torsion

> <Gold.Protein.ActiveResidues>
 VAL166  LYS551  ARG553  GLY616  TRP617  ASP618  TYR619  PRO620  LYS621  CYS622 
 ASP623  PHE694  ASN695  SER759  ASP760  ASP761  ALA762  ILE779  LEU786  VAL792 
 PHE793  MET794  SER795  GLU796  ALA797  LYS798  CYS799  TRP800  GLU811  SER814 

> <Gold.Protein.RotatedAtoms>
  150.7485  133.9720  159.3548 H   0  0  0  0  0  0  0  0  0  0  0  0  # atno 6907 bound_to 6896
  151.7655  135.0797  160.0361 H   0  0  0  0  0  0  0  0  0  0  0  0  # atno 6908 bound_to 6896
  152.3374  133.5991  159.5888 H   0  0  0  0  0  0  0  0  0  0  0  0  # atno 6909 bound_to 6896
  145.9776  140.7318  142.9379 H   0  0  0  0  0  0  0  0  0  0  0  0  # atno 7974 bound_to 7965
  154.4526  140.0985  156.6663 H   0  0  0  0  0  0  0  0  0  0  0  0  # atno 8008 bound_to 7997
  155.5237  140.3479  155.4393 H   0  0  0  0  0  0  0  0  0  0  0  0  # atno 8009 bound_to 7997
  156.0713  140.1350  156.9814 H   0  0  0  0  0  0  0  0  0  0  0  0  # atno 8010 bound_to 7997
  140.7272  143.4039  151.1218 H   0  0  0  0  0  0  0  0  0  0  0  0  # atno 10167 bound_to 10162
  157.1133  130.6518  149.5903 H   0  0  0  0  0  0  0  0  0  0  0  0  # atno 10718 bound_to 10713
  153.0055  135.5394  154.6507 H   0  0  0  0  0  0  0  0  0  0  0  0  # atno 10763 bound_to 10752
  154.5740  135.2844  155.0802 H   0  0  0  0  0  0  0  0  0  0  0  0  # atno 10764 bound_to 10752
  154.1956  135.6492  153.5125 H   0  0  0  0  0  0  0  0  0  0  0  0  # atno 10765 bound_to 10752
  140.0390  134.5902  155.9407 H   0  0  0  0  0  0  0  0  0  0  0  0  # atno 11005 bound_to 11000
  144.6853  140.2854  143.7286 LP  0  0  0  0  0  0  0  0  0  0  0  0  # atno 17320 bound_to 7965
  145.7816  139.1893  143.2154 LP  0  0  0  0  0  0  0  0  0  0  0  0  # atno 17321 bound_to 7965
  139.7663  143.8560  152.3111 LP  0  0  0  0  0  0  0  0  0  0  0  0  # atno 17342 bound_to 10162
  139.8463  144.7186  150.9268 LP  0  0  0  0  0  0  0  0  0  0  0  0  # atno 17343 bound_to 10162
  155.9845  130.4870  150.6987 LP  0  0  0  0  0  0  0  0  0  0  0  0  # atno 17370 bound_to 10713
  157.4540  131.0876  151.0816 LP  0  0  0  0  0  0  0  0  0  0  0  0  # atno 17371 bound_to 10713
  141.1873  133.6559  156.5274 LP  0  0  0  0  0  0  0  0  0  0  0  0  # atno 17394 bound_to 11000
  140.4101  134.7280  157.4831 LP  0  0  0  0  0  0  0  0  0  0  0  0  # atno 17395 bound_to 11000

$$$$
