AV-unprocessed.smi:678|AV-procd|sdf|3313|dock4
  -GOLD-   22720 0273D 1   1.00000     0.00000
 Structure written by MMmdl.
 51 52  0  0  0  0  0  0  0  0  2 V2000
  151.0730  141.8961  156.3830 C   0  0  0  0  0  0  0  0  0  0  0  0
  150.3809  140.7915  155.6039 C   0  0  0  0  0  0  0  0  0  0  0  0
  149.1246  140.9422  155.1311 C   0  0  0  0  0  0  0  0  0  0  0  0
  148.4737  139.8865  154.3938 C   0  0  0  0  0  0  0  0  0  0  0  0
  149.1506  138.7482  154.1858 C   0  0  0  0  0  0  0  0  0  0  0  0
  150.4614  138.5666  154.6646 N   0  0  0  0  0  0  0  0  0  0  0  0
  151.1064  137.2734  154.3796 C   0  0  0  0  0  0  0  0  0  0  0  0
  150.5016  136.1182  155.1886 C   0  0  0  0  0  0  0  0  0  0  0  0
  150.7324  136.0104  156.3936 O   0  0  0  0  0  0  0  0  0  0  0  0
  149.7243  135.2624  154.5083 N   0  0  0  0  0  0  0  0  0  0  0  0
  149.1150  134.0593  155.0645 C   0  0  0  0  0  0  0  0  0  0  0  0
  148.7472  133.0540  153.9578 C   0  0  2  0  0  0  0  0  0  0  0  0
  147.7771  133.6616  152.9259 C   0  0  0  0  0  0  0  0  0  0  0  0
  147.4029  132.6522  151.9037 N   0  3  2  0  0  0  0  0  0  0  0  0
  146.5062  133.1795  150.8430 C   0  0  0  0  0  0  0  0  0  0  0  0
  145.2099  133.8089  151.3981 C   0  0  0  0  0  0  0  0  0  0  0  0
  144.0047  132.9000  151.1145 C   0  0  0  0  0  0  0  0  0  0  0  0
  144.9651  135.2168  150.8295 C   0  0  0  0  0  0  0  0  0  0  0  0
  146.8551  131.4379  152.5532 C   0  0  0  0  0  0  0  0  0  0  0  0
  147.8383  130.8998  153.6051 C   0  0  0  0  0  0  0  0  0  0  0  0
  148.1189  131.9217  154.5511 O   0  0  0  0  0  0  0  0  0  0  0  0
  151.1203  139.5365  155.3730 C   0  0  0  0  0  0  0  0  0  0  0  0
  152.2666  139.3600  155.7922 O   0  0  0  0  0  0  0  0  0  0  0  0
  150.4293  142.7695  156.4924 H   0  0  0  0  0  0  0  0  0  0  0  0
  151.9833  142.2109  155.8716 H   0  0  0  0  0  0  0  0  0  0  0  0
  151.3414  141.5488  157.3811 H   0  0  0  0  0  0  0  0  0  0  0  0
  148.5908  141.8650  155.3055 H   0  0  0  0  0  0  0  0  0  0  0  0
  147.4668  140.0088  154.0228 H   0  0  0  0  0  0  0  0  0  0  0  0
  148.7328  137.9085  153.6499 H   0  0  0  0  0  0  0  0  0  0  0  0
  151.0282  137.0217  153.3213 H   0  0  0  0  0  0  0  0  0  0  0  0
  152.1775  137.3459  154.5787 H   0  0  0  0  0  0  0  0  0  0  0  0
  149.5768  135.4363  153.5245 H   0  0  0  0  0  0  0  0  0  0  0  0
  149.7678  133.5976  155.8073 H   0  0  0  0  0  0  0  0  0  0  0  0
  148.2137  134.3667  155.5956 H   0  0  0  0  0  0  0  0  0  0  0  0
  149.6621  132.7384  153.4521 H   0  0  0  0  0  0  0  0  0  0  0  0
  146.8781  134.0264  153.4255 H   0  0  0  0  0  0  0  0  0  0  0  0
  148.2502  134.5214  152.4533 H   0  0  0  0  0  0  0  0  0  0  0  0
  147.0360  133.9410  150.2684 H   0  0  0  0  0  0  0  0  0  0  0  0
  146.2743  132.3776  150.1403 H   0  0  0  0  0  0  0  0  0  0  0  0
  145.2876  133.8930  152.4815 H   0  0  0  0  0  0  0  0  0  0  0  0
  143.8388  132.7814  150.0431 H   0  0  0  0  0  0  0  0  0  0  0  0
  143.0922  133.3102  151.5484 H   0  0  0  0  0  0  0  0  0  0  0  0
  144.1506  131.9069  151.5407 H   0  0  0  0  0  0  0  0  0  0  0  0
  144.8827  135.1970  149.7423 H   0  0  0  0  0  0  0  0  0  0  0  0
  145.7740  135.8996  151.0902 H   0  0  0  0  0  0  0  0  0  0  0  0
  144.0424  135.6436  151.2236 H   0  0  0  0  0  0  0  0  0  0  0  0
  145.8987  131.6737  153.0229 H   0  0  0  0  0  0  0  0  0  0  0  0
  146.6647  130.6688  151.8038 H   0  0  0  0  0  0  0  0  0  0  0  0
  147.4033  130.0465  154.1255 H   0  0  0  0  0  0  0  0  0  0  0  0
  148.7619  130.5522  153.1390 H   0  0  0  0  0  0  0  0  0  0  0  0
  148.2553  132.3649  151.4437 H   0  0  0  0  0  0  0  0  0  0  0  0
  1  2  1  0  0  0  0
  1 24  1  0  0  0  0
  1 25  1  0  0  0  0
  1 26  1  0  0  0  0
  2 22  1  0  0  0  0
  2  3  2  0  0  0  0
  3  4  1  0  0  0  0
  3 27  1  0  0  0  0
  4  5  2  0  0  0  0
  4 28  1  0  0  0  0
  5  6  1  0  0  0  0
  5 29  1  0  0  0  0
  6  7  1  0  0  0  0
  6 22  1  0  0  0  0
  7  8  1  0  0  0  0
  7 30  1  0  0  0  0
  7 31  1  0  0  0  0
  8  9  2  0  0  0  0
  8 10  1  0  0  0  0
 10 11  1  0  0  0  0
 10 32  1  0  0  0  0
 11 12  1  0  0  0  0
 11 33  1  0  0  0  0
 11 34  1  0  0  0  0
 12 21  1  0  0  0  0
 12 13  1  0  0  0  0
 12 35  1  0  0  0  0
 13 14  1  0  0  0  0
 13 36  1  0  0  0  0
 13 37  1  0  0  0  0
 14 15  1  0  0  0  0
 14 19  1  0  0  0  0
 14 51  1  0  0  0  0
 15 16  1  0  0  0  0
 15 38  1  0  0  0  0
 15 39  1  0  0  0  0
 16 17  1  0  0  0  0
 16 18  1  0  0  0  0
 16 40  1  0  0  0  0
 17 41  1  0  0  0  0
 17 42  1  0  0  0  0
 17 43  1  0  0  0  0
 18 44  1  0  0  0  0
 18 45  1  0  0  0  0
 18 46  1  0  0  0  0
 19 20  1  0  0  0  0
 19 47  1  0  0  0  0
 19 48  1  0  0  0  0
 20 21  1  0  0  0  0
 20 49  1  0  0  0  0
 20 50  1  0  0  0  0
 22 23  2  0  0  0  0
M  CHG  1  14   1
M  END
> <s_m_source_file>
AV-unprocessed.smi

> <i_m_source_file_index>
678

> <i_lp_mmshare_version>
43012

> <i_f3d_flags>
0

> <s_epik_input>
W0NIM11jMVtjSF1bY0hdW2NIXW4oYzE9TylbQ0gyXUMoPU8pW05IXVtDSDJdW0NAQEhdMltDSDJdTihbQ0gyXVtDSDJdTzIpW0NIMl1bQ0hdKFtDSDNdKVtDSDNd

> <s_epik_cmdline>
J2VwaWtfcHl0aG9uJywgJy1waCcsICc3LjAnLCAnLXRuJywgJzgnLCAnLW1hJywgJzIwMCcsICctbWV0YWxfYmluZGluZycsICctaW1hZScsICc8aW5maWxlLm1hZT4nLCAnLW9tYWUnLCAnPG91dGZpbGUubWFlPic=

> <r_lp_tautomer_probability>
1

> <r_epik_Ionization_Penalty>
0.0975937

> <r_epik_Ionization_Penalty_Charging>
0.0975937

> <r_epik_Ionization_Penalty_Neutral>
6.27044e-08

> <r_epik_State_Penalty>
0.0877056

> <r_epik_Charging_Adjusted_Penalty>
0.185299

> <i_epik_Tot_Q>
1

> <i_epik_Tot_abs_Q>
1

> <r_epik_Metal_State_Penalty>
0.0877109

> <b_epik_Metal_Only>
0

> <s_lp_Force_Field>
OPLS_2005

> <r_lp_Energy>
27.0363

> <b_lp_Chiralities_Consistent>
1

> <s_lp_Variant>
AV-unprocessed.smi:678-1

> <Gold.Version>
5.8.1

> <Gold.Id.Protein>
6NUR|6NUR_protein|mol2

> <Gold.PLP.Fitness>
50.1948

> <Gold.PLP.PLP>
-42.6601

> <Gold.PLP.part.hbond>
-2.5872

> <Gold.PLP.part.metal>
0.0000

> <Gold.PLP.part.buried>
-3.3123

> <Gold.PLP.part.nonpolar>
-37.1593

> <Gold.PLP.part.repulsive>
0.1003

> <Gold.PLP.ligand.clash>
0.0000

> <Gold.PLP.ligand.torsion>
1.1478

> <Gold.PLP.Chemscore.Hbond>
2.2290

> <Gold.PLP.Chemscore.CHOScore>
1.0000

> <Gold.PLP.Chemscore.Metal>
0.0000

> <Gold.Chemscore.Hbonds>
donor molecule, donor type, donor heavy atom, donor atom, acceptor molecule, acceptor atom, score
      L1  H    10    32       P1  7948  0.75
      L1  H    14    51       P1 10747  0.83
      P1  H  7997  8008       L1    23  0.42
      L1  C     5    29       P1  7948  1.00

> <Gold.PLP.Chemscore.Internal.Correction>
0.1433

> <Gold.Rescore>
     Score         DG    S(hbond)    S(metal)    S(lipo)     H(rot)  DE(clash)    DE(int)     intcor
     15.31     -16.88       1.64        0.00      91.76       1.89       0.61       0.96       ----

> <Gold.Chemscore.Fitness>
15.3062

> <Gold.Chemscore.DG>
-16.8782

> <Gold.Chemscore.ZeroCoef>
-5.4800

> <Gold.Chemscore.Hbond>
1.6448

> <Gold.Chemscore.Metal>
0.0000

> <Gold.Chemscore.Lipo>
91.7566

> <Gold.Chemscore.Internal_Hbond>
0.0000

> <Gold.Chemscore.DEClash>
0.6078

> <Gold.Chemscore.DEInternal>
0.9641

> <Gold.Chemscore.Rot>
1.8871

> <Gold.Chemscore.Internal.Correction>
   9.000000E+99

> <Gold.Chemscore.Hbonds>
donor molecule, donor type, donor heavy atom, donor atom, acceptor molecule, acceptor atom, score
      L1  H    10    32       P1  7948  0.09
      L1  H    14    51       P1 10747  0.76
      P1  H  7997  8008       L1    23  0.44

> <Gold.Chemscore.Hbond.Weighted>
-5.4936

> <Gold.Chemscore.Metal.Weighted>
-0.0000

> <Gold.Chemscore.Lipo.Weighted>
-10.7355

> <Gold.Chemscore.Internal_Hbond.Weighted>
0.0000

> <Gold.Chemscore.DEClash.Weighted>
0.6078

> <Gold.Chemscore.DEInternal.Weighted>
0.9641

> <Gold.Chemscore.Rot.Weighted>
4.8309

> <Gold.Chemscore.Internal.Correction.Weighted>
   9.000000E+99

> <Gold.Protein.RotatedTorsions>
[ 6907 6896 6895 6894 ] final   -8.91 input  -60.11 | X-H torsion
[ 7974 7965 7964 7962 ] final  -31.06 input  175.53 | X-H torsion
[ 8008 7997 7996 7995 ] final  -33.88 input   59.86 | X-H torsion
[ 10167 10162 10161 10158 ] final    3.69 input  -65.29 | X-H torsion
[ 10718 10713 10712 10709 ] final  -34.34 input   66.30 | X-H torsion
[ 10763 10752 10751 10750 ] final   39.65 input  -60.55 | X-H torsion
[ 11005 11000 10999 10996 ] final   33.07 input  -57.11 | X-H torsion

> <Gold.Protein.ActiveResidues>
 VAL166  LYS551  ARG553  GLY616  TRP617  ASP618  TYR619  PRO620  LYS621  CYS622 
 ASP623  PHE694  ASN695  SER759  ASP760  ASP761  ALA762  ILE779  LEU786  VAL792 
 PHE793  MET794  SER795  GLU796  ALA797  LYS798  CYS799  TRP800  GLU811  SER814 

> <Gold.Protein.RotatedAtoms>
  151.4262  135.1004  159.9628 H   0  0  0  0  0  0  0  0  0  0  0  0  # atno 6907 bound_to 6896
  152.4972  133.8661  159.7285 H   0  0  0  0  0  0  0  0  0  0  0  0  # atno 6908 bound_to 6896
  150.9188  133.6848  159.2865 H   0  0  0  0  0  0  0  0  0  0  0  0  # atno 6909 bound_to 6896
  146.1096  140.5620  142.8784 H   0  0  0  0  0  0  0  0  0  0  0  0  # atno 7974 bound_to 7965
  154.4136  140.1699  156.1959 H   0  0  0  0  0  0  0  0  0  0  0  0  # atno 8008 bound_to 7997
  155.9565  140.3397  155.6429 H   0  0  0  0  0  0  0  0  0  0  0  0  # atno 8009 bound_to 7997
  155.6804  140.0722  157.2477 H   0  0  0  0  0  0  0  0  0  0  0  0  # atno 8010 bound_to 7997
  140.6573  143.7395  150.7676 H   0  0  0  0  0  0  0  0  0  0  0  0  # atno 10167 bound_to 10162
  156.3518  130.4309  149.7698 H   0  0  0  0  0  0  0  0  0  0  0  0  # atno 10718 bound_to 10713
  152.9960  135.6214  154.2500 H   0  0  0  0  0  0  0  0  0  0  0  0  # atno 10763 bound_to 10752
  154.2238  135.2795  155.2916 H   0  0  0  0  0  0  0  0  0  0  0  0  # atno 10764 bound_to 10752
  154.5506  135.5734  153.6977 H   0  0  0  0  0  0  0  0  0  0  0  0  # atno 10765 bound_to 10752
  140.2670  134.3126  155.7839 H   0  0  0  0  0  0  0  0  0  0  0  0  # atno 11005 bound_to 11000
  144.7500  140.5166  143.6809 LP  0  0  0  0  0  0  0  0  0  0  0  0  # atno 17320 bound_to 7965
  145.5691  139.1482  143.3298 LP  0  0  0  0  0  0  0  0  0  0  0  0  # atno 17321 bound_to 7965
  140.1057  143.4746  152.2399 LP  0  0  0  0  0  0  0  0  0  0  0  0  # atno 17342 bound_to 10162
  139.5798  144.7505  151.3669 LP  0  0  0  0  0  0  0  0  0  0  0  0  # atno 17343 bound_to 10162
  156.4896  130.8079  151.3089 LP  0  0  0  0  0  0  0  0  0  0  0  0  # atno 17370 bound_to 10713
  157.7462  130.9980  150.2835 LP  0  0  0  0  0  0  0  0  0  0  0  0  # atno 17371 bound_to 10713
  141.2183  133.7443  156.9275 LP  0  0  0  0  0  0  0  0  0  0  0  0  # atno 17394 bound_to 11000
  140.1410  134.9293  157.2466 LP  0  0  0  0  0  0  0  0  0  0  0  0  # atno 17395 bound_to 11000

$$$$
