AV-unprocessed.smi:2822|AV-procd|sdf|10873|dock3
  -GOLD-   2272015313D 1   1.00000     0.00000
 Structure written by MMmdl.
 40 42  0  0  0  0  0  0  0  0  2 V2000
  153.2959  143.5019  163.6520 Cl  0  0  0  0  0  0  0  0  0  0  0  0
  152.9748  143.1813  161.9833 C   0  0  0  0  0  0  0  0  0  0  0  0
  152.1844  144.0808  161.2384 C   0  0  0  0  0  0  0  0  0  0  0  0
  151.8870  143.9056  159.9338 N   0  0  0  0  0  0  0  0  0  0  0  0
  152.3765  142.8085  159.3201 C   0  0  0  0  0  0  0  0  0  0  0  0
  153.1764  141.8472  159.9701 C   0  0  0  0  0  0  0  0  0  0  0  0
  153.4881  142.0325  161.3377 C   0  0  0  0  0  0  0  0  0  0  0  0
  154.2753  141.1242  162.0624 N   0  0  0  0  0  0  0  0  0  0  0  0
  155.2544  140.2862  161.3874 C   0  0  0  0  0  0  0  0  0  0  0  0
  155.2761  138.8636  161.9638 C   0  0  1  0  0  0  0  0  0  0  0  0
  155.4123  138.8819  163.5029 C   0  0  0  0  0  0  0  0  0  0  0  0
  155.3041  137.5191  164.0775 N   0  3  2  0  0  0  0  0  0  0  0  0
  156.5416  136.7080  163.9168 C   0  0  0  0  0  0  0  0  0  0  0  0
  156.4001  135.3351  164.5899 C   0  0  0  0  0  0  0  0  0  0  0  0
  155.1887  134.5812  164.0300 C   0  0  0  0  0  0  0  0  0  0  0  0
  153.9216  135.4289  164.2061 C   0  0  0  0  0  0  0  0  0  0  0  0
  154.0668  136.8413  163.6008 C   0  0  2  0  0  0  0  0  0  0  0  0
  153.9875  136.8739  162.0599 C   0  0  0  0  0  0  0  0  0  0  0  0
  154.0500  138.2251  161.6182 O   0  0  0  0  0  0  0  0  0  0  0  0
  151.7782  144.9671  161.7032 H   0  0  0  0  0  0  0  0  0  0  0  0
  152.1221  142.6906  158.2773 H   0  0  0  0  0  0  0  0  0  0  0  0
  153.5294  140.9925  159.4133 H   0  0  0  0  0  0  0  0  0  0  0  0
  154.3458  141.2354  163.0641 H   0  0  0  0  0  0  0  0  0  0  0  0
  154.9972  140.2418  160.3284 H   0  0  0  0  0  0  0  0  0  0  0  0
  156.2442  140.7381  161.4639 H   0  0  0  0  0  0  0  0  0  0  0  0
  156.1117  138.3184  161.5219 H   0  0  0  0  0  0  0  0  0  0  0  0
  156.3535  139.3429  163.8050 H   0  0  0  0  0  0  0  0  0  0  0  0
  154.6180  139.4947  163.9316 H   0  0  0  0  0  0  0  0  0  0  0  0
  156.7787  136.5731  162.8615 H   0  0  0  0  0  0  0  0  0  0  0  0
  157.3826  137.2433  164.3589 H   0  0  0  0  0  0  0  0  0  0  0  0
  157.3072  134.7495  164.4375 H   0  0  0  0  0  0  0  0  0  0  0  0
  156.2903  135.4625  165.6678 H   0  0  0  0  0  0  0  0  0  0  0  0
  155.3458  134.3535  162.9752 H   0  0  0  0  0  0  0  0  0  0  0  0
  155.0734  133.6247  164.5407 H   0  0  0  0  0  0  0  0  0  0  0  0
  153.0629  134.9169  163.7707 H   0  0  0  0  0  0  0  0  0  0  0  0
  153.7081  135.5212  165.2720 H   0  0  0  0  0  0  0  0  0  0  0  0
  153.2249  137.4292  163.9704 H   0  0  0  0  0  0  0  0  0  0  0  0
  154.7826  136.2890  161.5960 H   0  0  0  0  0  0  0  0  0  0  0  0
  153.0439  136.4444  161.7230 H   0  0  0  0  0  0  0  0  0  0  0  0
  155.1937  137.6393  165.0745 H   0  0  0  0  0  0  0  0  0  0  0  0
  1  2  1  0  0  0  0
  2  7  1  0  0  0  0
  2  3  2  0  0  0  0
  3  4  1  0  0  0  0
  3 20  1  0  0  0  0
  4  5  2  0  0  0  0
  5  6  1  0  0  0  0
  5 21  1  0  0  0  0
  6  7  2  0  0  0  0
  6 22  1  0  0  0  0
  7  8  1  0  0  0  0
  8  9  1  0  0  0  0
  8 23  1  0  0  0  0
  9 10  1  0  0  0  0
  9 24  1  0  0  0  0
  9 25  1  0  0  0  0
 10 19  1  0  0  0  0
 10 11  1  0  0  0  0
 10 26  1  0  0  0  0
 11 12  1  0  0  0  0
 11 27  1  0  0  0  0
 11 28  1  0  0  0  0
 12 17  1  0  0  0  0
 12 13  1  0  0  0  0
 12 40  1  0  0  0  0
 13 14  1  0  0  0  0
 13 29  1  0  0  0  0
 13 30  1  0  0  0  0
 14 15  1  0  0  0  0
 14 31  1  0  0  0  0
 14 32  1  0  0  0  0
 15 16  1  0  0  0  0
 15 33  1  0  0  0  0
 15 34  1  0  0  0  0
 16 17  1  0  0  0  0
 16 35  1  0  0  0  0
 16 36  1  0  0  0  0
 17 18  1  0  0  0  0
 17 37  1  0  0  0  0
 18 19  1  0  0  0  0
 18 38  1  0  0  0  0
 18 39  1  0  0  0  0
M  CHG  1  12   1
M  END
> <s_m_source_file>
AV-unprocessed.smi

> <i_m_source_file_index>
2822

> <i_lp_mmshare_version>
43012

> <i_f3d_flags>
0

> <s_epik_input>
Q2xjMVtjSF1uW2NIXVtjSF1jMVtOSF1bQ0gyXVtDQEhdKFtDSDJdMilPW0NIMl1bQ0BASF0oTjIzKVtDSDJdW0NIMl1bQ0gyXVtDSDJdMw==

> <s_epik_cmdline>
J2VwaWtfcHl0aG9uJywgJy1waCcsICc3LjAnLCAnLXRuJywgJzgnLCAnLW1hJywgJzIwMCcsICctbWV0YWxfYmluZGluZycsICctaW1hZScsICc8aW5maWxlLm1hZT4nLCAnLW9tYWUnLCAnPG91dGZpbGUubWFlPic=

> <r_lp_tautomer_probability>
0.999999

> <r_epik_Ionization_Penalty>
0.88937

> <r_epik_Ionization_Penalty_Charging>
0.0803403

> <r_epik_Ionization_Penalty_Neutral>
0.80903

> <r_epik_State_Penalty>
0.931884

> <r_epik_Charging_Adjusted_Penalty>
1.01222

> <i_epik_Tot_Q>
1

> <i_epik_Tot_abs_Q>
1

> <r_epik_Metal_State_Penalty>
0.0782275

> <b_epik_Metal_Only>
0

> <s_lp_Force_Field>
OPLS_2005

> <r_lp_Energy>
32.5478

> <b_lp_Chiralities_Consistent>
1

> <s_lp_Variant>
AV-unprocessed.smi:2822-14

> <Gold.Version>
5.8.1

> <Gold.Id.Protein>
6NUR|6NUR_protein|mol2

> <Gold.PLP.Fitness>
41.2394

> <Gold.PLP.PLP>
-41.8880

> <Gold.PLP.part.hbond>
-0.6287

> <Gold.PLP.part.metal>
0.0000

> <Gold.PLP.part.buried>
-5.2992

> <Gold.PLP.part.nonpolar>
-34.9083

> <Gold.PLP.part.repulsive>
0.0653

> <Gold.PLP.ligand.clash>
0.0000

> <Gold.PLP.ligand.torsion>
0.3252

> <Gold.PLP.Chemscore.Hbond>
0.0000

> <Gold.PLP.Chemscore.CHOScore>
0.0000

> <Gold.PLP.Chemscore.Metal>
0.0000

> <Gold.PLP.Chemscore.Internal.Correction>
0.0018

> <Gold.Rescore>
     Score         DG    S(hbond)    S(metal)    S(lipo)     H(rot)  DE(clash)    DE(int)     intcor
     17.24     -17.61       0.00        0.00     129.23       1.17       0.06       0.31       ----

> <Gold.Chemscore.Fitness>
17.2373

> <Gold.Chemscore.DG>
-17.6069

> <Gold.Chemscore.ZeroCoef>
-5.4800

> <Gold.Chemscore.Hbond>
0.0000

> <Gold.Chemscore.Metal>
0.0000

> <Gold.Chemscore.Lipo>
129.2328

> <Gold.Chemscore.Internal_Hbond>
0.0000

> <Gold.Chemscore.DEClash>
0.0582

> <Gold.Chemscore.DEInternal>
0.3114

> <Gold.Chemscore.Rot>
1.1693

> <Gold.Chemscore.Internal.Correction>
   9.000000E+99

> <Gold.Chemscore.Hbond.Weighted>
-0.0000

> <Gold.Chemscore.Metal.Weighted>
-0.0000

> <Gold.Chemscore.Lipo.Weighted>
-15.1202

> <Gold.Chemscore.Internal_Hbond.Weighted>
0.0000

> <Gold.Chemscore.DEClash.Weighted>
0.0582

> <Gold.Chemscore.DEInternal.Weighted>
0.3114

> <Gold.Chemscore.Rot.Weighted>
2.9934

> <Gold.Chemscore.Internal.Correction.Weighted>
   9.000000E+99

> <Gold.Protein.RotatedTorsions>
[ 6907 6896 6895 6894 ] final    3.94 input  -60.11 | X-H torsion
[ 7974 7965 7964 7962 ] final  -54.00 input  175.53 | X-H torsion
[ 8008 7997 7996 7995 ] final   36.18 input   59.86 | X-H torsion
[ 10167 10162 10161 10158 ] final  -71.11 input  -65.29 | X-H torsion
[ 10718 10713 10712 10709 ] final -100.56 input   66.30 | X-H torsion
[ 10763 10752 10751 10750 ] final  -43.26 input  -60.55 | X-H torsion
[ 11005 11000 10999 10996 ] final -121.81 input  -57.11 | X-H torsion

> <Gold.Protein.ActiveResidues>
 VAL166  LYS551  ARG553  GLY616  TRP617  ASP618  TYR619  PRO620  LYS621  CYS622 
 ASP623  PHE694  ASN695  SER759  ASP760  ASP761  ALA762  ILE779  LEU786  VAL792 
 PHE793  MET794  SER795  GLU796  ALA797  LYS798  CYS799  TRP800  GLU811  SER814 

> <Gold.Protein.RotatedAtoms>
  151.6332  135.1021  160.0125 H   0  0  0  0  0  0  0  0  0  0  0  0  # atno 6907 bound_to 6896
  152.4095  133.6937  159.6394 H   0  0  0  0  0  0  0  0  0  0  0  0  # atno 6908 bound_to 6896
  150.7986  133.8566  159.3261 H   0  0  0  0  0  0  0  0  0  0  0  0  # atno 6909 bound_to 6896
  145.8905  140.8074  142.9794 H   0  0  0  0  0  0  0  0  0  0  0  0  # atno 7974 bound_to 7965
  155.1832  140.3301  155.4371 H   0  0  0  0  0  0  0  0  0  0  0  0  # atno 8008 bound_to 7997
  156.2469  140.1923  156.6879 H   0  0  0  0  0  0  0  0  0  0  0  0  # atno 8009 bound_to 7997
  154.6257  140.0589  156.9656 H   0  0  0  0  0  0  0  0  0  0  0  0  # atno 8010 bound_to 7997
  140.5299  143.2322  151.7281 H   0  0  0  0  0  0  0  0  0  0  0  0  # atno 10167 bound_to 10162
  156.0167  130.5333  150.6835 H   0  0  0  0  0  0  0  0  0  0  0  0  # atno 10718 bound_to 10713
  153.9926  135.6703  153.4755 H   0  0  0  0  0  0  0  0  0  0  0  0  # atno 10763 bound_to 10752
  153.0698  135.4980  154.8276 H   0  0  0  0  0  0  0  0  0  0  0  0  # atno 10764 bound_to 10752
  154.7100  135.3095  154.9174 H   0  0  0  0  0  0  0  0  0  0  0  0  # atno 10765 bound_to 10752
  141.0042  134.0358  157.3498 H   0  0  0  0  0  0  0  0  0  0  0  0  # atno 11005 bound_to 11000
  144.6730  140.1522  143.7429 LP  0  0  0  0  0  0  0  0  0  0  0  0  # atno 17320 bound_to 7965
  145.8914  139.2378  143.1547 LP  0  0  0  0  0  0  0  0  0  0  0  0  # atno 17321 bound_to 7965
  139.4950  144.4130  152.0060 LP  0  0  0  0  0  0  0  0  0  0  0  0  # atno 17342 bound_to 10162
  140.3232  144.3404  150.6004 LP  0  0  0  0  0  0  0  0  0  0  0  0  # atno 17343 bound_to 10162
  157.4532  131.0875  151.0824 LP  0  0  0  0  0  0  0  0  0  0  0  0  # atno 17370 bound_to 10713
  157.1333  130.6111  149.5535 LP  0  0  0  0  0  0  0  0  0  0  0  0  # atno 17371 bound_to 10713
  139.9055  135.0178  156.7464 LP  0  0  0  0  0  0  0  0  0  0  0  0  # atno 17394 bound_to 11000
  140.6839  133.9449  155.7926 LP  0  0  0  0  0  0  0  0  0  0  0  0  # atno 17395 bound_to 11000

$$$$
