AV-unprocessed.smi:2911|AV-procd|sdf|11179|dock9
  -GOLD-   2272016 73D 1   1.00000     0.00000
 Structure written by MMmdl.
 41 42  0  0  0  0  0  0  0  0  1 V2000
  155.3752  137.7665  158.3938 C   0  0  0  0  0  0  0  0  0  0  0  0
  154.1897  137.4912  157.5332 C   0  0  0  0  0  0  0  0  0  0  0  0
  153.8701  136.2521  157.1802 N   0  0  0  0  0  0  0  0  0  0  0  0
  152.7294  136.4272  156.3833 O   0  0  0  0  0  0  0  0  0  0  0  0
  152.4912  137.7609  156.3674 C   0  0  0  0  0  0  0  0  0  0  0  0
  151.3551  138.2819  155.5529 C   0  0  0  0  0  0  0  0  0  0  0  0
  150.3737  139.1207  156.3869 C   0  0  0  0  0  0  0  0  0  0  0  0
  151.0200  140.3002  156.9510 N   0  0  0  0  0  0  0  0  0  0  0  0
  151.2926  140.4911  158.2533 C   0  0  0  0  0  0  0  0  0  0  0  0
  150.9797  139.6606  159.1080 O   0  0  0  0  0  0  0  0  0  0  0  0
  151.8806  141.6818  158.5480 N   0  0  0  0  0  0  0  0  0  0  0  0
  152.0876  142.7851  157.5836 C   0  0  0  0  0  0  0  0  0  0  0  0
  151.5571  144.1120  158.1445 C   0  0  0  0  0  0  0  0  0  0  0  0
  152.2331  144.4491  159.4814 C   0  0  1  0  0  0  0  0  0  0  0  0
  151.7030  145.7641  160.0699 C   0  0  0  0  0  0  0  0  0  0  0  0
  152.0572  143.2766  160.4605 C   0  0  0  0  0  0  0  0  0  0  0  0
  152.4980  141.9181  159.8718 C   0  0  2  0  0  0  0  0  0  0  0  0
  154.0240  141.7177  159.8306 C   0  0  0  0  0  0  0  0  0  0  0  0
  153.3811  138.4751  157.0524 N   0  0  0  0  0  0  0  0  0  0  0  0
  155.4563  137.0195  159.1840 H   0  0  0  0  0  0  0  0  0  0  0  0
  155.2926  138.7494  158.8586 H   0  0  0  0  0  0  0  0  0  0  0  0
  156.2865  137.7417  157.7962 H   0  0  0  0  0  0  0  0  0  0  0  0
  151.7620  138.8747  154.7330 H   0  0  0  0  0  0  0  0  0  0  0  0
  150.8365  137.4361  155.0999 H   0  0  0  0  0  0  0  0  0  0  0  0
  149.5487  139.4582  155.7589 H   0  0  0  0  0  0  0  0  0  0  0  0
  149.9318  138.5168  157.1817 H   0  0  0  0  0  0  0  0  0  0  0  0
  151.2802  141.0301  156.3037 H   0  0  0  0  0  0  0  0  0  0  0  0
  153.1539  142.8737  157.3752 H   0  0  0  0  0  0  0  0  0  0  0  0
  151.6278  142.6192  156.6098 H   0  0  0  0  0  0  0  0  0  0  0  0
  151.7352  144.9121  157.4251 H   0  0  0  0  0  0  0  0  0  0  0  0
  150.4760  144.0473  158.2762 H   0  0  0  0  0  0  0  0  0  0  0  0
  153.3001  144.5802  159.2968 H   0  0  0  0  0  0  0  0  0  0  0  0
  150.6340  145.7044  160.2773 H   0  0  0  0  0  0  0  0  0  0  0  0
  151.8628  146.5947  159.3819 H   0  0  0  0  0  0  0  0  0  0  0  0
  152.2102  146.0081  161.0037 H   0  0  0  0  0  0  0  0  0  0  0  0
  152.5993  143.4748  161.3860 H   0  0  0  0  0  0  0  0  0  0  0  0
  151.0046  143.2076  160.7394 H   0  0  0  0  0  0  0  0  0  0  0  0
  152.1275  141.1809  160.5862 H   0  0  0  0  0  0  0  0  0  0  0  0
  154.4534  141.8029  160.8290 H   0  0  0  0  0  0  0  0  0  0  0  0
  154.5189  142.4551  159.1995 H   0  0  0  0  0  0  0  0  0  0  0  0
  154.2786  140.7285  159.4490 H   0  0  0  0  0  0  0  0  0  0  0  0
  1  2  1  0  0  0  0
  1 20  1  0  0  0  0
  1 21  1  0  0  0  0
  1 22  1  0  0  0  0
  2 19  1  0  0  0  0
  2  3  2  0  0  0  0
  3  4  1  0  0  0  0
  4  5  1  0  0  0  0
  5  6  1  0  0  0  0
  5 19  2  0  0  0  0
  6  7  1  0  0  0  0
  6 23  1  0  0  0  0
  6 24  1  0  0  0  0
  7  8  1  0  0  0  0
  7 25  1  0  0  0  0
  7 26  1  0  0  0  0
  8  9  1  0  0  0  0
  8 27  1  0  0  0  0
  9 10  2  0  0  0  0
  9 11  1  0  0  0  0
 11 17  1  0  0  0  0
 11 12  1  0  0  0  0
 12 13  1  0  0  0  0
 12 28  1  0  0  0  0
 12 29  1  0  0  0  0
 13 14  1  0  0  0  0
 13 30  1  0  0  0  0
 13 31  1  0  0  0  0
 14 15  1  0  0  0  0
 14 16  1  0  0  0  0
 14 32  1  0  0  0  0
 15 33  1  0  0  0  0
 15 34  1  0  0  0  0
 15 35  1  0  0  0  0
 16 17  1  0  0  0  0
 16 36  1  0  0  0  0
 16 37  1  0  0  0  0
 17 18  1  0  0  0  0
 17 38  1  0  0  0  0
 18 39  1  0  0  0  0
 18 40  1  0  0  0  0
 18 41  1  0  0  0  0
M  END
> <s_m_source_file>
AV-unprocessed.smi

> <i_m_source_file_index>
2911

> <i_lp_mmshare_version>
43012

> <i_f3d_flags>
0

> <s_epik_input>
W0NIM11jMW5vYyhuMSlbQ0gyXVtDSDJdW05IXUMoPU8pTjJbQ0gyXVtDSDJdW0NAQEhdKFtDSDNdKVtDSDJdW0NASF0yW0NIM10=

> <s_epik_cmdline>
J2VwaWtfcHl0aG9uJywgJy1waCcsICc3LjAnLCAnLXRuJywgJzgnLCAnLW1hJywgJzIwMCcsICctbWV0YWxfYmluZGluZycsICctaW1hZScsICc8aW5maWxlLm1hZT4nLCAnLW9tYWUnLCAnPG91dGZpbGUubWFlPic=

> <r_lp_tautomer_probability>
1

> <r_epik_Ionization_Penalty>
6.61671e-05

> <r_epik_Ionization_Penalty_Charging>
0

> <r_epik_Ionization_Penalty_Neutral>
6.61671e-05

> <r_epik_State_Penalty>
-0

> <r_epik_Charging_Adjusted_Penalty>
0

> <i_epik_Tot_Q>
0

> <i_epik_Tot_abs_Q>
0

> <r_epik_Metal_State_Penalty>
-0

> <b_epik_Metal_Only>
0

> <s_lp_Force_Field>
OPLS_2005

> <r_lp_Energy>
30.51

> <b_lp_Chiralities_Consistent>
1

> <s_lp_Variant>
AV-unprocessed.smi:2911-3

> <Gold.Version>
5.8.1

> <Gold.Id.Protein>
6NUR|6NUR_protein|mol2

> <Gold.PLP.Fitness>
38.8748

> <Gold.PLP.PLP>
-33.2607

> <Gold.PLP.part.hbond>
-3.2284

> <Gold.PLP.part.metal>
0.0000

> <Gold.PLP.part.buried>
-4.5292

> <Gold.PLP.part.nonpolar>
-26.6048

> <Gold.PLP.part.repulsive>
0.0657

> <Gold.PLP.ligand.clash>
0.0000

> <Gold.PLP.ligand.torsion>
0.1219

> <Gold.PLP.Chemscore.Hbond>
1.9440

> <Gold.PLP.Chemscore.CHOScore>
0.0000

> <Gold.PLP.Chemscore.Metal>
0.0000

> <Gold.Chemscore.Hbonds>
donor molecule, donor type, donor heavy atom, donor atom, acceptor molecule, acceptor atom, score
      P1  H  7997  8010       L1    19  1.00
      P1  H 10752 10765       L1     4  0.96

> <Gold.PLP.Chemscore.Internal.Correction>
0.0258

> <Gold.Rescore>
     Score         DG    S(hbond)    S(metal)    S(lipo)     H(rot)  DE(clash)    DE(int)     intcor
     16.13     -16.55       1.50        0.00      86.92       1.61       0.24       0.18       ----

> <Gold.Chemscore.Fitness>
16.1335

> <Gold.Chemscore.DG>
-16.5488

> <Gold.Chemscore.ZeroCoef>
-5.4800

> <Gold.Chemscore.Hbond>
1.5022

> <Gold.Chemscore.Metal>
0.0000

> <Gold.Chemscore.Lipo>
86.9246

> <Gold.Chemscore.Internal_Hbond>
0.0000

> <Gold.Chemscore.DEClash>
0.2401

> <Gold.Chemscore.DEInternal>
0.1752

> <Gold.Chemscore.Rot>
1.6088

> <Gold.Chemscore.Internal.Correction>
   9.000000E+99

> <Gold.Chemscore.Hbonds>
donor molecule, donor type, donor heavy atom, donor atom, acceptor molecule, acceptor atom, score
      P1  H  7997  8010       L1    19  0.67
      P1  H 10752 10765       L1     4  0.24

> <Gold.Chemscore.Hbond.Weighted>
-5.0173

> <Gold.Chemscore.Metal.Weighted>
-0.0000

> <Gold.Chemscore.Lipo.Weighted>
-10.1702

> <Gold.Chemscore.Internal_Hbond.Weighted>
0.0000

> <Gold.Chemscore.DEClash.Weighted>
0.2401

> <Gold.Chemscore.DEInternal.Weighted>
0.1752

> <Gold.Chemscore.Rot.Weighted>
4.1186

> <Gold.Chemscore.Internal.Correction.Weighted>
   9.000000E+99

> <Gold.Protein.RotatedTorsions>
[ 6907 6896 6895 6894 ] final   41.22 input  -60.11 | X-H torsion
[ 7974 7965 7964 7962 ] final  -82.80 input  175.53 | X-H torsion
[ 8008 7997 7996 7995 ] final   55.16 input   59.86 | X-H torsion
[ 10167 10162 10161 10158 ] final  -55.03 input  -65.29 | X-H torsion
[ 10718 10713 10712 10709 ] final   45.68 input   66.30 | X-H torsion
[ 10763 10752 10751 10750 ] final -152.37 input  -60.55 | X-H torsion
[ 11005 11000 10999 10996 ] final  -43.38 input  -57.11 | X-H torsion

> <Gold.Protein.ActiveResidues>
 VAL166  LYS551  ARG553  GLY616  TRP617  ASP618  TYR619  PRO620  LYS621  CYS622 
 ASP623  PHE694  ASN695  SER759  ASP760  ASP761  ALA762  ILE779  LEU786  VAL792 
 PHE793  MET794  SER795  GLU796  ALA797  LYS798  CYS799  TRP800  GLU811  SER814 

> <Gold.Protein.RotatedAtoms>
  152.1926  134.8659  160.0515 H   0  0  0  0  0  0  0  0  0  0  0  0  # atno 6907 bound_to 6896
  151.9542  133.3670  159.4019 H   0  0  0  0  0  0  0  0  0  0  0  0  # atno 6908 bound_to 6896
  150.6938  134.4232  159.5258 H   0  0  0  0  0  0  0  0  0  0  0  0  # atno 6909 bound_to 6896
  145.5285  140.9524  143.1616 H   0  0  0  0  0  0  0  0  0  0  0  0  # atno 7974 bound_to 7965
  155.4965  140.3473  155.4364 H   0  0  0  0  0  0  0  0  0  0  0  0  # atno 8008 bound_to 7997
  156.0942  140.1418  156.9580 H   0  0  0  0  0  0  0  0  0  0  0  0  # atno 8009 bound_to 7997
  154.4653  140.0920  156.6981 H   0  0  0  0  0  0  0  0  0  0  0  0  # atno 8010 bound_to 7997
  140.6397  143.2501  151.5022 H   0  0  0  0  0  0  0  0  0  0  0  0  # atno 10167 bound_to 10162
  157.4401  130.8076  149.7686 H   0  0  0  0  0  0  0  0  0  0  0  0  # atno 10718 bound_to 10713
  154.7998  135.3238  154.7577 H   0  0  0  0  0  0  0  0  0  0  0  0  # atno 10763 bound_to 10752
  153.8247  135.6884  153.4826 H   0  0  0  0  0  0  0  0  0  0  0  0  # atno 10764 bound_to 10752
  153.1709  135.4623  154.9844 H   0  0  0  0  0  0  0  0  0  0  0  0  # atno 10765 bound_to 10752
  141.0380  133.6792  156.2725 H   0  0  0  0  0  0  0  0  0  0  0  0  # atno 11005 bound_to 11000
  144.7638  139.6893  143.7223 LP  0  0  0  0  0  0  0  0  0  0  0  0  # atno 17320 bound_to 7965
  146.2059  139.5384  142.9712 LP  0  0  0  0  0  0  0  0  0  0  0  0  # atno 17321 bound_to 7965
  139.5607  144.2164  152.1686 LP  0  0  0  0  0  0  0  0  0  0  0  0  # atno 17342 bound_to 10162
  140.1431  144.5183  150.6732 LP  0  0  0  0  0  0  0  0  0  0  0  0  # atno 17343 bound_to 10162
  155.9945  130.3917  150.2855 LP  0  0  0  0  0  0  0  0  0  0  0  0  # atno 17370 bound_to 10713
  157.1019  131.0198  151.3082 LP  0  0  0  0  0  0  0  0  0  0  0  0  # atno 17371 bound_to 10713
  140.6287  134.5287  157.5557 LP  0  0  0  0  0  0  0  0  0  0  0  0  # atno 17394 bound_to 11000
  139.9255  134.8065  156.1083 LP  0  0  0  0  0  0  0  0  0  0  0  0  # atno 17395 bound_to 11000

$$$$
