AV-unprocessed.smi:483|AV-procd|sdf|2685|dock8
  -GOLD-   2262023113D 1   1.00000     0.00000
 Structure written by MMmdl.
 44 44  0  0  0  0  0  0  0  0  1 V2000
  141.0676  136.5958  153.4132 C   0  0  0  0  0  0  0  0  0  0  0  0
  142.1988  137.5864  153.1189 C   0  0  0  0  0  0  0  0  0  0  0  0
  143.5847  137.0088  153.4487 C   0  0  0  0  0  0  0  0  0  0  0  0
  144.6521  137.9362  153.0927 N   0  0  0  0  0  0  0  0  0  0  0  0
  145.9565  137.7428  153.3405 C   0  0  0  0  0  0  0  0  0  0  0  0
  146.3951  136.7350  153.8978 O   0  0  0  0  0  0  0  0  0  0  0  0
  146.9086  138.8527  152.8655 C   0  0  2  0  0  0  0  0  0  0  0  0
  146.7987  138.9476  151.3345 C   0  0  0  0  0  0  0  0  0  0  0  0
  148.2933  138.5214  153.1988 N   0  0  0  0  0  0  0  0  0  0  0  0
  149.1628  139.3449  153.8051 C   0  0  0  0  0  0  0  0  0  0  0  0
  148.8766  140.4929  154.1482 O   0  0  0  0  0  0  0  0  0  0  0  0
  150.5580  138.7672  154.0829 C   0  0  0  0  0  0  0  0  0  0  0  0
  151.0299  139.0278  155.4508 N   0  0  0  0  0  0  0  0  0  0  0  0
  150.9050  140.3446  155.8499 N   0  0  0  0  0  0  0  0  0  0  0  0
  151.2930  140.7331  157.0201 C   0  0  0  0  0  0  0  0  0  0  0  0
  151.1178  142.1936  157.3391 C   0  0  0  0  0  0  0  0  0  0  0  0
  151.8653  139.7650  157.9507 C   0  0  0  0  0  0  0  0  0  0  0  0
  152.3020  140.2769  159.3166 C   0  0  0  0  0  0  0  0  0  0  0  0
  151.9834  138.4754  157.5469 C   0  0  0  0  0  0  0  0  0  0  0  0
  152.5386  137.4615  158.3845 C   0  0  0  0  0  0  0  0  0  0  0  0
  152.9741  136.6424  159.0772 N   0  0  0  0  0  0  0  0  0  0  0  0
  151.5524  138.0295  156.2201 C   0  0  0  0  0  0  0  0  0  0  0  0
  151.6477  136.8674  155.8218 O   0  0  0  0  0  0  0  0  0  0  0  0
  140.0976  137.0315  153.1727 H   0  0  0  0  0  0  0  0  0  0  0  0
  141.0544  136.3140  154.4664 H   0  0  0  0  0  0  0  0  0  0  0  0
  141.1792  135.6857  152.8232 H   0  0  0  0  0  0  0  0  0  0  0  0
  142.1559  137.8715  152.0669 H   0  0  0  0  0  0  0  0  0  0  0  0
  142.0352  138.4995  153.6928 H   0  0  0  0  0  0  0  0  0  0  0  0
  143.6574  136.8055  154.5175 H   0  0  0  0  0  0  0  0  0  0  0  0
  143.7328  136.0541  152.9408 H   0  0  0  0  0  0  0  0  0  0  0  0
  144.3791  138.7908  152.6291 H   0  0  0  0  0  0  0  0  0  0  0  0
  146.6318  139.8093  153.3136 H   0  0  0  0  0  0  0  0  0  0  0  0
  145.7843  139.2036  151.0258 H   0  0  0  0  0  0  0  0  0  0  0  0
  147.0681  138.0090  150.8472 H   0  0  0  0  0  0  0  0  0  0  0  0
  147.4598  139.7222  150.9445 H   0  0  0  0  0  0  0  0  0  0  0  0
  148.6063  137.5907  152.9637 H   0  0  0  0  0  0  0  0  0  0  0  0
  150.5200  137.6927  153.8947 H   0  0  0  0  0  0  0  0  0  0  0  0
  151.2729  139.1641  153.3594 H   0  0  0  0  0  0  0  0  0  0  0  0
  150.3744  142.3309  158.1245 H   0  0  0  0  0  0  0  0  0  0  0  0
  150.7879  142.7629  156.4686 H   0  0  0  0  0  0  0  0  0  0  0  0
  152.0560  142.6323  157.6796 H   0  0  0  0  0  0  0  0  0  0  0  0
  152.5699  139.4658  159.9928 H   0  0  0  0  0  0  0  0  0  0  0  0
  151.5015  140.8427  159.7945 H   0  0  0  0  0  0  0  0  0  0  0  0
  153.1718  140.9272  159.2171 H   0  0  0  0  0  0  0  0  0  0  0  0
  1  2  1  0  0  0  0
  1 24  1  0  0  0  0
  1 25  1  0  0  0  0
  1 26  1  0  0  0  0
  2  3  1  0  0  0  0
  2 27  1  0  0  0  0
  2 28  1  0  0  0  0
  3  4  1  0  0  0  0
  3 29  1  0  0  0  0
  3 30  1  0  0  0  0
  4  5  1  0  0  0  0
  4 31  1  0  0  0  0
  5  6  2  0  0  0  0
  5  7  1  0  0  0  0
  7  8  1  0  0  0  0
  7  9  1  0  0  0  0
  7 32  1  0  0  0  0
  8 33  1  0  0  0  0
  8 34  1  0  0  0  0
  8 35  1  0  0  0  0
  9 10  1  0  0  0  0
  9 36  1  0  0  0  0
 10 11  2  0  0  0  0
 10 12  1  0  0  0  0
 12 13  1  0  0  0  0
 12 37  1  0  0  0  0
 12 38  1  0  0  0  0
 13 22  1  0  0  0  0
 13 14  1  0  0  0  0
 14 15  2  0  0  0  0
 15 16  1  0  0  0  0
 15 17  1  0  0  0  0
 16 39  1  0  0  0  0
 16 40  1  0  0  0  0
 16 41  1  0  0  0  0
 17 18  1  0  0  0  0
 17 19  2  0  0  0  0
 18 42  1  0  0  0  0
 18 43  1  0  0  0  0
 18 44  1  0  0  0  0
 19 20  1  0  0  0  0
 19 22  1  0  0  0  0
 20 21  3  0  0  0  0
 22 23  2  0  0  0  0
M  END
> <s_m_source_file>
AV-unprocessed.smi

> <i_m_source_file_index>
483

> <i_lp_mmshare_version>
43012

> <i_f3d_flags>
0

> <s_epik_input>
W0NIM11bQ0gyXVtDSDJdW05IXUMoPU8pW0NASF0oW0NIM10pW05IXUMoPU8pW0NIMl1uMW5jKFtDSDNdKWMoW0NIM10pYyhDI04pYzE9Tw==

> <s_epik_cmdline>
J2VwaWtfcHl0aG9uJywgJy1waCcsICc3LjAnLCAnLXRuJywgJzgnLCAnLW1hJywgJzIwMCcsICctbWV0YWxfYmluZGluZycsICctaW1hZScsICc8aW5maWxlLm1hZT4nLCAnLW9tYWUnLCAnPG91dGZpbGUubWFlPic=

> <r_lp_tautomer_probability>
1

> <r_epik_Ionization_Penalty>
5.96698e-08

> <r_epik_Ionization_Penalty_Charging>
1.88177e-11

> <r_epik_Ionization_Penalty_Neutral>
5.9651e-08

> <r_epik_State_Penalty>
-0

> <r_epik_Charging_Adjusted_Penalty>
1.88177e-11

> <i_epik_Tot_Q>
0

> <i_epik_Tot_abs_Q>
0

> <r_epik_Metal_State_Penalty>
-0

> <b_epik_Metal_Only>
0

> <s_lp_Force_Field>
OPLS_2005

> <r_lp_Energy>
17.9954

> <b_lp_Chiralities_Consistent>
1

> <s_lp_Variant>
AV-unprocessed.smi:483-1

> <Gold.Version>
5.8.1

> <Gold.Id.Protein>
6NUR|6NUR_protein|mol2

> <Gold.PLP.Fitness>
46.4465

> <Gold.PLP.PLP>
-35.4688

> <Gold.PLP.part.hbond>
-5.0000

> <Gold.PLP.part.metal>
0.0000

> <Gold.PLP.part.buried>
-2.6266

> <Gold.PLP.part.nonpolar>
-28.0410

> <Gold.PLP.part.repulsive>
0.3081

> <Gold.PLP.ligand.clash>
0.0000

> <Gold.PLP.ligand.torsion>
0.3889

> <Gold.PLP.Chemscore.Hbond>
3.8960

> <Gold.PLP.Chemscore.CHOScore>
0.0000

> <Gold.PLP.Chemscore.Metal>
0.0000

> <Gold.Chemscore.Hbonds>
donor molecule, donor type, donor heavy atom, donor atom, acceptor molecule, acceptor atom, score
      L1  H     4    31       P1 10175  1.00
      L1  H     9    36       P1  7948  1.00
      P1  H  6896  6908       L1    21  0.83
      P1  H 10752 10765       L1    23  0.70

> <Gold.PLP.Chemscore.Internal.Correction>
0.0675

> <Gold.Rescore>
     Score         DG    S(hbond)    S(metal)    S(lipo)     H(rot)  DE(clash)    DE(int)     intcor
     17.43     -19.40       3.76        0.00      63.63       2.38       0.02       1.95       ----

> <Gold.Chemscore.Fitness>
17.4258

> <Gold.Chemscore.DG>
-19.3978

> <Gold.Chemscore.ZeroCoef>
-5.4800

> <Gold.Chemscore.Hbond>
3.7610

> <Gold.Chemscore.Metal>
0.0000

> <Gold.Chemscore.Lipo>
63.6335

> <Gold.Chemscore.Internal_Hbond>
0.0000

> <Gold.Chemscore.DEClash>
0.0186

> <Gold.Chemscore.DEInternal>
1.9534

> <Gold.Chemscore.Rot>
2.3785

> <Gold.Chemscore.Internal.Correction>
   9.000000E+99

> <Gold.Chemscore.Hbonds>
donor molecule, donor type, donor heavy atom, donor atom, acceptor molecule, acceptor atom, score
      L1  H     4    31       P1 10175  0.99
      L1  H     9    36       P1  7948  0.98
      P1  H  6896  6908       L1    21  0.79
      P1  H 10752 10765       L1    23  0.70

> <Gold.Chemscore.Hbond.Weighted>
-12.5617

> <Gold.Chemscore.Metal.Weighted>
-0.0000

> <Gold.Chemscore.Lipo.Weighted>
-7.4451

> <Gold.Chemscore.Internal_Hbond.Weighted>
0.0000

> <Gold.Chemscore.DEClash.Weighted>
0.0186

> <Gold.Chemscore.DEInternal.Weighted>
1.9534

> <Gold.Chemscore.Rot.Weighted>
6.0890

> <Gold.Chemscore.Internal.Correction.Weighted>
   9.000000E+99

> <Gold.Protein.RotatedTorsions>
[ 6907 6896 6895 6894 ] final  -89.02 input  -60.11 | X-H torsion
[ 7974 7965 7964 7962 ] final   -3.05 input  175.53 | X-H torsion
[ 8008 7997 7996 7995 ] final   67.41 input   59.86 | X-H torsion
[ 10167 10162 10161 10158 ] final   -6.87 input  -65.29 | X-H torsion
[ 10718 10713 10712 10709 ] final   83.29 input   66.30 | X-H torsion
[ 10763 10752 10751 10750 ] final -171.66 input  -60.55 | X-H torsion
[ 11005 11000 10999 10996 ] final -146.21 input  -57.11 | X-H torsion

> <Gold.Protein.ActiveResidues>
 VAL166  LYS551  ARG553  GLY616  TRP617  ASP618  TYR619  PRO620  LYS621  CYS622 
 ASP623  PHE694  ASN695  SER759  ASP760  ASP761  ALA762  ILE779  LEU786  VAL792 
 PHE793  MET794  SER795  GLU796  ALA797  LYS798  CYS799  TRP800  GLU811  SER814 

> <Gold.Protein.RotatedAtoms>
  150.6871  134.2652  159.4565 H   0  0  0  0  0  0  0  0  0  0  0  0  # atno 6907 bound_to 6896
  152.0578  134.9610  160.0584 H   0  0  0  0  0  0  0  0  0  0  0  0  # atno 6908 bound_to 6896
  152.1049  133.4235  159.4641 H   0  0  0  0  0  0  0  0  0  0  0  0  # atno 6909 bound_to 6896
  146.2395  140.1663  142.8332 H   0  0  0  0  0  0  0  0  0  0  0  0  # atno 7974 bound_to 7965
  155.6925  140.3496  155.4899 H   0  0  0  0  0  0  0  0  0  0  0  0  # atno 8008 bound_to 7997
  155.9511  140.1119  157.0998 H   0  0  0  0  0  0  0  0  0  0  0  0  # atno 8009 bound_to 7997
  154.4122  140.1194  156.5040 H   0  0  0  0  0  0  0  0  0  0  0  0  # atno 8010 bound_to 7997
  140.7011  143.6145  150.8671 H   0  0  0  0  0  0  0  0  0  0  0  0  # atno 10167 bound_to 10162
  157.6876  131.0084  150.2502 H   0  0  0  0  0  0  0  0  0  0  0  0  # atno 10718 bound_to 10713
  154.6281  135.2883  155.0249 H   0  0  0  0  0  0  0  0  0  0  0  0  # atno 10763 bound_to 10752
  154.1420  135.6517  153.4948 H   0  0  0  0  0  0  0  0  0  0  0  0  # atno 10764 bound_to 10752
  153.0266  135.5335  154.7097 H   0  0  0  0  0  0  0  0  0  0  0  0  # atno 10765 bound_to 10752
  140.7843  134.3042  157.5035 H   0  0  0  0  0  0  0  0  0  0  0  0  # atno 11005 bound_to 11000
  145.0048  140.8663  143.5260 LP  0  0  0  0  0  0  0  0  0  0  0  0  # atno 17320 bound_to 7965
  145.1687  139.2416  143.5353 LP  0  0  0  0  0  0  0  0  0  0  0  0  # atno 17321 bound_to 7965
  139.9868  143.5891  152.2924 LP  0  0  0  0  0  0  0  0  0  0  0  0  # atno 17342 bound_to 10162
  139.6532  144.7661  151.2108 LP  0  0  0  0  0  0  0  0  0  0  0  0  # atno 17343 bound_to 10162
  156.3100  130.3770  149.7671 LP  0  0  0  0  0  0  0  0  0  0  0  0  # atno 17370 bound_to 10713
  156.5274  130.8242  151.3225 LP  0  0  0  0  0  0  0  0  0  0  0  0  # atno 17371 bound_to 10713
  139.8738  134.9337  156.3587 LP  0  0  0  0  0  0  0  0  0  0  0  0  # atno 17394 bound_to 11000
  140.9452  133.7488  156.0198 LP  0  0  0  0  0  0  0  0  0  0  0  0  # atno 17395 bound_to 11000

$$$$
