AV-unprocessed.smi:2124|AV-procd|sdf|8654|dock1
  -GOLD-   2272011403D 1   1.00000     0.00000
 Structure written by MMmdl.
 47 49  0  0  0  0  0  0  0  0  1 V2000
  151.0598  142.4454  156.8834 C   0  0  0  0  0  0  0  0  0  0  0  0
  150.2991  141.6167  155.8704 C   0  0  0  0  0  0  0  0  0  0  0  0
  150.6732  140.4460  155.4701 N   0  0  0  0  0  0  0  0  0  0  0  0
  149.8825  139.7706  154.5300 C   0  0  0  0  0  0  0  0  0  0  0  0
  150.3850  138.3981  154.1167 C   0  0  0  0  0  0  0  0  0  0  0  0
  148.7398  140.3235  154.0273 C   0  0  0  0  0  0  0  0  0  0  0  0
  147.8473  139.6172  153.0084 C   0  0  0  0  0  0  0  0  0  0  0  0
  146.7999  138.6605  153.5849 C   0  0  0  0  0  0  0  0  0  0  0  0
  146.0043  139.0452  154.4421 O   0  0  0  0  0  0  0  0  0  0  0  0
  146.8112  137.4116  153.0952 N   0  0  0  0  0  0  0  0  0  0  0  0
  145.8864  136.3418  153.4663 C   0  0  2  0  0  0  0  0  0  0  0  0
  146.1204  135.9716  154.9419 C   0  0  0  0  0  0  0  0  0  0  0  0
  146.0765  135.1425  152.5047 C   0  0  2  0  0  0  0  0  0  0  0  0
  145.7580  135.4765  151.0247 C   0  0  0  0  0  0  0  0  0  0  0  0
  144.7438  134.3912  150.6246 C   0  0  1  0  0  0  0  0  0  0  0  0
  145.4482  133.0242  150.5589 C   0  0  0  0  0  0  0  0  0  0  0  0
  145.6921  132.6991  152.0443 C   0  0  0  0  0  0  0  0  0  0  0  0
  145.1306  133.9419  152.7621 C   0  0  2  0  0  0  0  0  0  0  0  0
  143.9168  134.2653  151.8966 C   0  0  0  0  0  0  0  0  0  0  0  0
  148.3220  141.6603  154.4914 C   0  0  0  0  0  0  0  0  0  0  0  0
  147.3081  142.2438  154.1110 O   0  0  0  0  0  0  0  0  0  0  0  0
  149.1413  142.2346  155.4005 N   0  0  0  0  0  0  0  0  0  0  0  0
  148.8969  143.1488  155.7519 H   0  0  0  0  0  0  0  0  0  0  0  0
  151.1582  141.8950  157.8193 H   0  0  0  0  0  0  0  0  0  0  0  0
  150.5543  143.3889  157.0943 H   0  0  0  0  0  0  0  0  0  0  0  0
  152.0593  142.6694  156.5100 H   0  0  0  0  0  0  0  0  0  0  0  0
  150.7098  138.4104  153.0763 H   0  0  0  0  0  0  0  0  0  0  0  0
  149.6012  137.6485  154.2272 H   0  0  0  0  0  0  0  0  0  0  0  0
  151.2314  138.0854  154.7294 H   0  0  0  0  0  0  0  0  0  0  0  0
  147.3506  140.3599  152.3818 H   0  0  0  0  0  0  0  0  0  0  0  0
  148.4683  139.0452  152.3195 H   0  0  0  0  0  0  0  0  0  0  0  0
  147.5019  137.1882  152.3935 H   0  0  0  0  0  0  0  0  0  0  0  0
  144.8625  136.7050  153.3631 H   0  0  0  0  0  0  0  0  0  0  0  0
  145.3983  135.2371  155.2962 H   0  0  0  0  0  0  0  0  0  0  0  0
  146.0227  136.8465  155.5856 H   0  0  0  0  0  0  0  0  0  0  0  0
  147.1182  135.5592  155.0944 H   0  0  0  0  0  0  0  0  0  0  0  0
  147.1131  134.8107  152.5855 H   0  0  0  0  0  0  0  0  0  0  0  0
  145.2977  136.4609  150.9252 H   0  0  0  0  0  0  0  0  0  0  0  0
  146.6489  135.4663  150.3959 H   0  0  0  0  0  0  0  0  0  0  0  0
  144.1749  134.6350  149.7268 H   0  0  0  0  0  0  0  0  0  0  0  0
  144.8016  132.2735  150.1031 H   0  0  0  0  0  0  0  0  0  0  0  0
  146.3739  133.0643  149.9834 H   0  0  0  0  0  0  0  0  0  0  0  0
  145.1403  131.8040  152.3343 H   0  0  0  0  0  0  0  0  0  0  0  0
  146.7456  132.5262  152.2674 H   0  0  0  0  0  0  0  0  0  0  0  0
  144.9031  133.7538  153.8106 H   0  0  0  0  0  0  0  0  0  0  0  0
  143.4115  135.1903  152.1792 H   0  0  0  0  0  0  0  0  0  0  0  0
  143.1846  133.4567  151.8584 H   0  0  0  0  0  0  0  0  0  0  0  0
  1  2  1  0  0  0  0
  1 24  1  0  0  0  0
  1 25  1  0  0  0  0
  1 26  1  0  0  0  0
  2 22  1  0  0  0  0
  2  3  2  0  0  0  0
  3  4  1  0  0  0  0
  4  5  1  0  0  0  0
  4  6  2  0  0  0  0
  5 27  1  0  0  0  0
  5 28  1  0  0  0  0
  5 29  1  0  0  0  0
  6  7  1  0  0  0  0
  6 20  1  0  0  0  0
  7  8  1  0  0  0  0
  7 30  1  0  0  0  0
  7 31  1  0  0  0  0
  8  9  2  0  0  0  0
  8 10  1  0  0  0  0
 10 11  1  0  0  0  0
 10 32  1  0  0  0  0
 11 12  1  0  0  0  0
 11 13  1  0  0  0  0
 11 33  1  0  0  0  0
 12 34  1  0  0  0  0
 12 35  1  0  0  0  0
 12 36  1  0  0  0  0
 13 18  1  0  0  0  0
 13 14  1  0  0  0  0
 13 37  1  0  0  0  0
 14 15  1  0  0  0  0
 14 38  1  0  0  0  0
 14 39  1  0  0  0  0
 15 19  1  0  0  0  0
 15 16  1  0  0  0  0
 15 40  1  0  0  0  0
 16 17  1  0  0  0  0
 16 41  1  0  0  0  0
 16 42  1  0  0  0  0
 17 18  1  0  0  0  0
 17 43  1  0  0  0  0
 17 44  1  0  0  0  0
 18 19  1  0  0  0  0
 18 45  1  0  0  0  0
 19 46  1  0  0  0  0
 19 47  1  0  0  0  0
 20 21  2  0  0  0  0
 20 22  1  0  0  0  0
 22 23  1  0  0  0  0
M  END
> <s_m_source_file>
AV-unprocessed.smi

> <i_m_source_file_index>
2124

> <i_lp_mmshare_version>
43012

> <i_f3d_flags>
0

> <s_epik_input>
W0NIM11jMW5jKFtDSDNdKWMoYyg9TylbbkhdMSlbQ0gyXUMoPU8pW05IXVtDQEhdKFtDSDNdKVtDQEhdKFtDSDJdW0NASF0yMylbQ0BIXShbQ0gyXTMpW0NIMl1bQ0gyXTI=

> <s_epik_cmdline>
J2VwaWtfcHl0aG9uJywgJy1waCcsICc3LjAnLCAnLXRuJywgJzgnLCAnLW1hJywgJzIwMCcsICctbWV0YWxfYmluZGluZycsICctaW1hZScsICc8aW5maWxlLm1hZT4nLCAnLW9tYWUnLCAnPG91dGZpbGUubWFlPic=

> <r_lp_tautomer_probability>
0.839158

> <r_epik_Ionization_Penalty>
0.000383628

> <r_epik_Ionization_Penalty_Charging>
0.00035045

> <r_epik_Ionization_Penalty_Neutral>
3.31781e-05

> <r_epik_State_Penalty>
0.09125

> <r_epik_Charging_Adjusted_Penalty>
0.0916005

> <i_epik_Tot_Q>
0

> <i_epik_Tot_abs_Q>
0

> <r_epik_Metal_State_Penalty>
0.255229

> <b_epik_Metal_Only>
0

> <s_lp_Force_Field>
OPLS_2005

> <r_lp_Energy>
52.554

> <b_lp_Chiralities_Consistent>
1

> <s_lp_Variant>
AV-unprocessed.smi:2124-5

> <Gold.Version>
5.8.1

> <Gold.Id.Protein>
6NUR|6NUR_protein|mol2

> <Gold.PLP.Fitness>
40.8424

> <Gold.PLP.PLP>
-35.7187

> <Gold.PLP.part.hbond>
-2.3121

> <Gold.PLP.part.metal>
0.0000

> <Gold.PLP.part.buried>
-1.5520

> <Gold.PLP.part.nonpolar>
-32.1730

> <Gold.PLP.part.repulsive>
0.5031

> <Gold.PLP.ligand.clash>
0.0000

> <Gold.PLP.ligand.torsion>
0.4636

> <Gold.PLP.Chemscore.Hbond>
1.9920

> <Gold.PLP.Chemscore.CHOScore>
0.0000

> <Gold.PLP.Chemscore.Metal>
0.0000

> <Gold.Chemscore.Hbonds>
donor molecule, donor type, donor heavy atom, donor atom, acceptor molecule, acceptor atom, score
      L1  H    10    32       P1  7948  1.00
      L1  H    22    23       P1  8028  1.00

> <Gold.PLP.Chemscore.Internal.Correction>
0.0748

> <Gold.Rescore>
     Score         DG    S(hbond)    S(metal)    S(lipo)     H(rot)  DE(clash)    DE(int)     intcor
     14.88     -16.53       1.83        0.00      78.49       1.65       1.17       0.49       ----

> <Gold.Chemscore.Fitness>
14.8783

> <Gold.Chemscore.DG>
-16.5347

> <Gold.Chemscore.ZeroCoef>
-5.4800

> <Gold.Chemscore.Hbond>
1.8277

> <Gold.Chemscore.Metal>
0.0000

> <Gold.Chemscore.Lipo>
78.4859

> <Gold.Chemscore.Internal_Hbond>
0.0000

> <Gold.Chemscore.DEClash>
1.1680

> <Gold.Chemscore.DEInternal>
0.4883

> <Gold.Chemscore.Rot>
1.6534

> <Gold.Chemscore.Internal.Correction>
   9.000000E+99

> <Gold.Chemscore.Hbonds>
donor molecule, donor type, donor heavy atom, donor atom, acceptor molecule, acceptor atom, score
      L1  H    10    32       P1  7948  0.95
      L1  H    22    23       P1  8028  0.93

> <Gold.Chemscore.Hbond.Weighted>
-6.1044

> <Gold.Chemscore.Metal.Weighted>
-0.0000

> <Gold.Chemscore.Lipo.Weighted>
-9.1828

> <Gold.Chemscore.Internal_Hbond.Weighted>
0.0000

> <Gold.Chemscore.DEClash.Weighted>
1.1680

> <Gold.Chemscore.DEInternal.Weighted>
0.4883

> <Gold.Chemscore.Rot.Weighted>
4.2326

> <Gold.Chemscore.Internal.Correction.Weighted>
   9.000000E+99

> <Gold.Protein.RotatedTorsions>
[ 6907 6896 6895 6894 ] final   85.20 input  -60.11 | X-H torsion
[ 7974 7965 7964 7962 ] final -128.59 input  175.53 | X-H torsion
[ 8008 7997 7996 7995 ] final  156.64 input   59.86 | X-H torsion
[ 10167 10162 10161 10158 ] final    5.39 input  -65.29 | X-H torsion
[ 10718 10713 10712 10709 ] final -140.88 input   66.30 | X-H torsion
[ 10763 10752 10751 10750 ] final  135.57 input  -60.55 | X-H torsion
[ 11005 11000 10999 10996 ] final   57.31 input  -57.11 | X-H torsion

> <Gold.Protein.ActiveResidues>
 VAL166  LYS551  ARG553  GLY616  TRP617  ASP618  TYR619  PRO620  LYS621  CYS622 
 ASP623  PHE694  ASN695  SER759  ASP760  ASP761  ALA762  ILE779  LEU786  VAL792 
 PHE793  MET794  SER795  GLU796  ALA797  LYS798  CYS799  TRP800  GLU811  SER814 

> <Gold.Protein.RotatedAtoms>
  152.5369  134.2622  159.8939 H   0  0  0  0  0  0  0  0  0  0  0  0  # atno 6907 bound_to 6896
  151.2582  133.4309  159.2622 H   0  0  0  0  0  0  0  0  0  0  0  0  # atno 6908 bound_to 6896
  151.0477  134.9666  159.8251 H   0  0  0  0  0  0  0  0  0  0  0  0  # atno 6909 bound_to 6896
  144.9656  140.7492  143.4702 H   0  0  0  0  0  0  0  0  0  0  0  0  # atno 7974 bound_to 7965
  156.2410  140.1907  156.6987 H   0  0  0  0  0  0  0  0  0  0  0  0  # atno 8008 bound_to 7997
  154.6198  140.0610  156.9627 H   0  0  0  0  0  0  0  0  0  0  0  0  # atno 8009 bound_to 7997
  155.1880  140.3282  155.4366 H   0  0  0  0  0  0  0  0  0  0  0  0  # atno 8010 bound_to 7997
  140.6484  143.7605  150.7536 H   0  0  0  0  0  0  0  0  0  0  0  0  # atno 10167 bound_to 10162
  156.3275  130.7568  151.1679 H   0  0  0  0  0  0  0  0  0  0  0  0  # atno 10718 bound_to 10713
  153.8421  135.3090  155.3427 H   0  0  0  0  0  0  0  0  0  0  0  0  # atno 10763 bound_to 10752
  154.7928  135.4773  154.0094 H   0  0  0  0  0  0  0  0  0  0  0  0  # atno 10764 bound_to 10752
  153.1569  135.6854  153.8891 H   0  0  0  0  0  0  0  0  0  0  0  0  # atno 10765 bound_to 10752
  140.0462  134.5802  155.9319 H   0  0  0  0  0  0  0  0  0  0  0  0  # atno 11005 bound_to 11000
  145.2635  139.1983  143.4879 LP  0  0  0  0  0  0  0  0  0  0  0  0  # atno 17320 bound_to 7965
  146.3366  140.2569  142.8600 LP  0  0  0  0  0  0  0  0  0  0  0  0  # atno 17321 bound_to 7965
  140.1251  143.4577  152.2289 LP  0  0  0  0  0  0  0  0  0  0  0  0  # atno 17342 bound_to 10162
  139.5697  144.7455  151.3925 LP  0  0  0  0  0  0  0  0  0  0  0  0  # atno 17343 bound_to 10162
  157.7424  131.0490  150.5026 LP  0  0  0  0  0  0  0  0  0  0  0  0  # atno 17370 bound_to 10713
  156.5187  130.4157  149.6262 LP  0  0  0  0  0  0  0  0  0  0  0  0  # atno 17371 bound_to 10713
  141.1908  133.6569  156.5428 LP  0  0  0  0  0  0  0  0  0  0  0  0  # atno 17394 bound_to 11000
  140.3989  134.7374  157.4768 LP  0  0  0  0  0  0  0  0  0  0  0  0  # atno 17395 bound_to 11000

$$$$
