AV-unprocessed.smi:155|AV-procd|sdf|1267|dock4
  -GOLD-   2262018523D 1   1.00000     0.00000
 Structure written by MMmdl.
 63 66  0  0  0  0  0  0  0  0  2 V2000
  143.6156  132.2549  150.5056 C   0  0  0  0  0  0  0  0  0  0  0  0
  144.8975  132.9313  150.6715 N   0  0  0  0  0  0  0  0  0  0  0  0
  145.8851  132.2432  149.8506 C   0  0  0  0  0  0  0  0  0  0  0  0
  145.3425  132.9205  152.0650 C   0  0  0  0  0  0  0  0  0  0  0  0
  146.3684  134.0300  152.4064 C   0  0  0  0  0  0  0  0  0  0  0  0
  145.7791  135.3368  152.8044 N   0  3  2  0  0  0  0  0  0  0  0  0
  144.5277  135.2260  153.6045 C   0  0  0  0  0  0  0  0  0  0  0  0
  143.9243  136.5845  154.0197 C   0  0  0  0  0  0  0  0  0  0  0  0
  144.9341  137.5839  154.6183 C   0  0  0  0  0  0  0  0  0  0  0  0
  146.0391  137.8945  153.7073 N   0  0  0  0  0  0  0  0  0  0  0  0
  147.2489  138.2333  154.2245 C   0  0  0  0  0  0  0  0  0  0  0  0
  148.0970  137.2336  154.5831 N   0  0  0  0  0  0  0  0  0  0  0  0
  149.2950  137.5135  155.1041 C   0  0  0  0  0  0  0  0  0  0  0  0
  149.8411  138.7062  155.3442 N   0  0  0  0  0  0  0  0  0  0  0  0
  149.0032  139.7157  154.9740 C   0  0  0  0  0  0  0  0  0  0  0  0
  147.7033  139.5729  154.4092 C   0  0  0  0  0  0  0  0  0  0  0  0
  147.1707  140.8304  154.1436 N   0  0  0  0  0  0  0  0  0  0  0  0
  148.0897  141.6640  154.5481 C   0  0  0  0  0  0  0  0  0  0  0  0
  149.2226  141.0780  155.0627 N   0  0  0  0  0  0  0  0  0  0  0  0
  150.3966  141.7552  155.5861 C   0  0  0  0  0  0  0  0  0  0  0  0
  150.3332  141.9406  157.1197 C   0  0  2  0  0  0  0  0  0  0  0  0
  149.2365  142.7916  157.3977 O   0  0  0  0  0  0  0  0  0  0  0  0
  151.5883  142.6025  157.7337 C   0  0  2  0  0  0  0  0  0  0  0  0
  151.6463  142.6038  159.2731 C   0  0  0  0  0  0  0  0  0  0  0  0
  151.1285  143.9728  159.6509 C   0  0  0  0  0  0  0  0  0  0  0  0
  151.6909  144.8165  158.5204 C   0  0  0  0  0  0  0  0  0  0  0  0
  151.5508  143.9880  157.3748 O   0  0  0  0  0  0  0  0  0  0  0  0
  145.8466  137.8132  152.2576 C   0  0  0  0  0  0  0  0  0  0  0  0
  145.7552  136.3609  151.7241 C   0  0  0  0  0  0  0  0  0  0  0  0
  142.8169  132.7729  151.0345 H   0  0  0  0  0  0  0  0  0  0  0  0
  143.6572  131.2267  150.8683 H   0  0  0  0  0  0  0  0  0  0  0  0
  143.3338  132.2296  149.4521 H   0  0  0  0  0  0  0  0  0  0  0  0
  146.8554  132.7359  149.9208 H   0  0  0  0  0  0  0  0  0  0  0  0
  145.5870  132.2549  148.8013 H   0  0  0  0  0  0  0  0  0  0  0  0
  146.0064  131.2036  150.1593 H   0  0  0  0  0  0  0  0  0  0  0  0
  144.4673  133.0315  152.7072 H   0  0  0  0  0  0  0  0  0  0  0  0
  145.7632  131.9450  152.3099 H   0  0  0  0  0  0  0  0  0  0  0  0
  147.0922  133.7088  153.1542 H   0  0  0  0  0  0  0  0  0  0  0  0
  146.9613  134.2196  151.5108 H   0  0  0  0  0  0  0  0  0  0  0  0
  143.7704  134.6780  153.0465 H   0  0  0  0  0  0  0  0  0  0  0  0
  144.7454  134.6389  154.4975 H   0  0  0  0  0  0  0  0  0  0  0  0
  143.4172  137.0370  153.1673 H   0  0  0  0  0  0  0  0  0  0  0  0
  143.1350  136.4048  154.7503 H   0  0  0  0  0  0  0  0  0  0  0  0
  144.4251  138.5120  154.8805 H   0  0  0  0  0  0  0  0  0  0  0  0
  145.3276  137.1668  155.5465 H   0  0  0  0  0  0  0  0  0  0  0  0
  149.9020  136.6595  155.3670 H   0  0  0  0  0  0  0  0  0  0  0  0
  147.9657  142.7354  154.4856 H   0  0  0  0  0  0  0  0  0  0  0  0
  151.2638  141.1662  155.2923 H   0  0  0  0  0  0  0  0  0  0  0  0
  150.4930  142.7219  155.0895 H   0  0  0  0  0  0  0  0  0  0  0  0
  150.1561  140.9751  157.5958 H   0  0  0  0  0  0  0  0  0  0  0  0
  149.0517  143.2987  156.6213 H   0  0  0  0  0  0  0  0  0  0  0  0
  152.4927  142.1394  157.3356 H   0  0  0  0  0  0  0  0  0  0  0  0
  151.0932  141.8033  159.7594 H   0  0  0  0  0  0  0  0  0  0  0  0
  152.6852  142.5148  159.5941 H   0  0  0  0  0  0  0  0  0  0  0  0
  150.0379  143.9851  159.6282 H   0  0  0  0  0  0  0  0  0  0  0  0
  151.4589  144.3013  160.6366 H   0  0  0  0  0  0  0  0  0  0  0  0
  151.1663  145.7645  158.3976 H   0  0  0  0  0  0  0  0  0  0  0  0
  152.7489  145.0262  158.6848 H   0  0  0  0  0  0  0  0  0  0  0  0
  144.9239  138.3419  152.0166 H   0  0  0  0  0  0  0  0  0  0  0  0
  146.6244  138.3653  151.7293 H   0  0  0  0  0  0  0  0  0  0  0  0
  146.6072  136.1969  151.0633 H   0  0  0  0  0  0  0  0  0  0  0  0
  144.8652  136.2352  151.1062 H   0  0  0  0  0  0  0  0  0  0  0  0
  146.4522  135.7065  153.4607 H   0  0  0  0  0  0  0  0  0  0  0  0
  1  2  1  0  0  0  0
  1 30  1  0  0  0  0
  1 31  1  0  0  0  0
  1 32  1  0  0  0  0
  2  3  1  0  0  0  0
  2  4  1  0  0  0  0
  3 33  1  0  0  0  0
  3 34  1  0  0  0  0
  3 35  1  0  0  0  0
  4  5  1  0  0  0  0
  4 36  1  0  0  0  0
  4 37  1  0  0  0  0
  5  6  1  0  0  0  0
  5 38  1  0  0  0  0
  5 39  1  0  0  0  0
  6 29  1  0  0  0  0
  6  7  1  0  0  0  0
  6 63  1  0  0  0  0
  7  8  1  0  0  0  0
  7 40  1  0  0  0  0
  7 41  1  0  0  0  0
  8  9  1  0  0  0  0
  8 42  1  0  0  0  0
  8 43  1  0  0  0  0
  9 10  1  0  0  0  0
  9 44  1  0  0  0  0
  9 45  1  0  0  0  0
 10 11  1  0  0  0  0
 10 28  1  0  0  0  0
 11 16  1  0  0  0  0
 11 12  2  0  0  0  0
 12 13  1  0  0  0  0
 13 14  2  0  0  0  0
 13 46  1  0  0  0  0
 14 15  1  0  0  0  0
 15 19  1  0  0  0  0
 15 16  2  0  0  0  0
 16 17  1  0  0  0  0
 17 18  2  0  0  0  0
 18 19  1  0  0  0  0
 18 47  1  0  0  0  0
 19 20  1  0  0  0  0
 20 21  1  0  0  0  0
 20 48  1  0  0  0  0
 20 49  1  0  0  0  0
 21 22  1  0  0  0  0
 21 23  1  0  0  0  0
 21 50  1  0  0  0  0
 22 51  1  0  0  0  0
 23 27  1  0  0  0  0
 23 24  1  0  0  0  0
 23 52  1  0  0  0  0
 24 25  1  0  0  0  0
 24 53  1  0  0  0  0
 24 54  1  0  0  0  0
 25 26  1  0  0  0  0
 25 55  1  0  0  0  0
 25 56  1  0  0  0  0
 26 27  1  0  0  0  0
 26 57  1  0  0  0  0
 26 58  1  0  0  0  0
 28 29  1  0  0  0  0
 28 59  1  0  0  0  0
 28 60  1  0  0  0  0
 29 61  1  0  0  0  0
 29 62  1  0  0  0  0
M  CHG  1   6   1
M  END
> <s_m_source_file>
AV-unprocessed.smi

> <i_m_source_file_index>
155

> <i_lp_mmshare_version>
43012

> <i_f3d_flags>
0

> <s_epik_input>
W0NIM11OKFtDSDNdKVtDSDJdW0NIMl1OMVtDSDJdW0NIMl1bQ0gyXU4oW0NIMl1bQ0gyXTEpYyhuW2NIXW4yKWMoYzIzKW5bY0hdbjNbQ0gyXVtDQEhdKFtPSF0pW0NAQEhdNFtDSDJdW0NIMl1bQ0gyXU80

> <s_epik_cmdline>
J2VwaWtfcHl0aG9uJywgJy1waCcsICc3LjAnLCAnLXRuJywgJzgnLCAnLW1hJywgJzIwMCcsICctbWV0YWxfYmluZGluZycsICctaW1hZScsICc8aW5maWxlLm1hZT4nLCAnLW9tYWUnLCAnPG91dGZpbGUubWFlPic=

> <r_epik_Ionization_Penalty>
0.0619615

> <r_epik_Ionization_Penalty_Charging>
0.0161638

> <r_epik_Ionization_Penalty_Neutral>
0.0457976

> <r_epik_State_Penalty>
0.403408

> <r_epik_Charging_Adjusted_Penalty>
0.419572

> <i_epik_Tot_Q>
1

> <i_epik_Tot_abs_Q>
1

> <r_epik_Metal_State_Penalty>
0.404222

> <b_epik_Metal_Only>
0

> <s_lp_Force_Field>
OPLS_2005

> <r_lp_Energy>
58.592

> <b_lp_Chiralities_Consistent>
1

> <s_lp_Variant>
AV-unprocessed.smi:155-1

> <Gold.Version>
5.8.1

> <Gold.Id.Protein>
6NUR|6NUR_protein|mol2

> <Gold.PLP.Fitness>
42.4198

> <Gold.PLP.PLP>
-41.7467

> <Gold.PLP.part.hbond>
-1.0000

> <Gold.PLP.part.metal>
0.0000

> <Gold.PLP.part.buried>
-7.9938

> <Gold.PLP.part.nonpolar>
-34.5778

> <Gold.PLP.part.repulsive>
1.4587

> <Gold.PLP.ligand.clash>
0.0000

> <Gold.PLP.ligand.torsion>
2.7737

> <Gold.PLP.Chemscore.Hbond>
1.0000

> <Gold.PLP.Chemscore.CHOScore>
1.0000

> <Gold.PLP.Chemscore.Metal>
0.0000

> <Gold.Chemscore.Hbonds>
donor molecule, donor type, donor heavy atom, donor atom, acceptor molecule, acceptor atom, score
      L1  H    22    51       P1  8028  1.00
      L1  C    18    47       P1  8028  1.00

> <Gold.PLP.Chemscore.Internal.Correction>
0.2205

> <Gold.Rescore>
     Score         DG    S(hbond)    S(metal)    S(lipo)     H(rot)  DE(clash)    DE(int)     intcor
     11.43     -14.35       0.90        0.00     107.73       2.63       0.32       2.60       ----

> <Gold.Chemscore.Fitness>
11.4313

> <Gold.Chemscore.DG>
-14.3493

> <Gold.Chemscore.ZeroCoef>
-5.4800

> <Gold.Chemscore.Hbond>
0.8994

> <Gold.Chemscore.Metal>
0.0000

> <Gold.Chemscore.Lipo>
107.7287

> <Gold.Chemscore.Internal_Hbond>
0.0000

> <Gold.Chemscore.DEClash>
0.3223

> <Gold.Chemscore.DEInternal>
2.5956

> <Gold.Chemscore.Rot>
2.6324

> <Gold.Chemscore.Internal.Correction>
   9.000000E+99

> <Gold.Chemscore.Hbonds>
donor molecule, donor type, donor heavy atom, donor atom, acceptor molecule, acceptor atom, score
      L1  H    22    51       P1  8028  0.95

> <Gold.Chemscore.Hbond.Weighted>
-3.0039

> <Gold.Chemscore.Metal.Weighted>
-0.0000

> <Gold.Chemscore.Lipo.Weighted>
-12.6043

> <Gold.Chemscore.Internal_Hbond.Weighted>
0.0000

> <Gold.Chemscore.DEClash.Weighted>
0.3223

> <Gold.Chemscore.DEInternal.Weighted>
2.5956

> <Gold.Chemscore.Rot.Weighted>
6.7389

> <Gold.Chemscore.Internal.Correction.Weighted>
   9.000000E+99

> <Gold.Protein.RotatedTorsions>
[ 6907 6896 6895 6894 ] final -179.81 input  -60.11 | X-H torsion
[ 7974 7965 7964 7962 ] final  -47.14 input  175.53 | X-H torsion
[ 8008 7997 7996 7995 ] final -133.17 input   59.86 | X-H torsion
[ 10167 10162 10161 10158 ] final   43.85 input  -65.29 | X-H torsion
[ 10718 10713 10712 10709 ] final  -96.90 input   66.30 | X-H torsion
[ 10763 10752 10751 10750 ] final   53.54 input  -60.55 | X-H torsion
[ 11005 11000 10999 10996 ] final -149.43 input  -57.11 | X-H torsion

> <Gold.Protein.ActiveResidues>
 VAL166  LYS551  ARG553  GLY616  TRP617  ASP618  TYR619  PRO620  LYS621  CYS622 
 ASP623  PHE694  ASN695  SER759  ASP760  ASP761  ALA762  ILE779  LEU786  VAL792 
 PHE793  MET794  SER795  GLU796  ALA797  LYS798  CYS799  TRP800  GLU811  SER814 

> <Gold.Protein.RotatedAtoms>
  151.6595  133.3317  159.3170 H   0  0  0  0  0  0  0  0  0  0  0  0  # atno 6907 bound_to 6896
  150.7920  134.6956  159.6530 H   0  0  0  0  0  0  0  0  0  0  0  0  # atno 6908 bound_to 6896
  152.4002  134.6303  160.0125 H   0  0  0  0  0  0  0  0  0  0  0  0  # atno 6909 bound_to 6896
  145.9647  140.7444  142.9440 H   0  0  0  0  0  0  0  0  0  0  0  0  # atno 7974 bound_to 7965
  155.3411  140.0472  157.3045 H   0  0  0  0  0  0  0  0  0  0  0  0  # atno 8008 bound_to 7997
  154.5277  140.2246  155.8825 H   0  0  0  0  0  0  0  0  0  0  0  0  # atno 8009 bound_to 7997
  156.1756  140.3086  155.9059 H   0  0  0  0  0  0  0  0  0  0  0  0  # atno 8010 bound_to 7997
  140.3403  144.2479  150.6156 H   0  0  0  0  0  0  0  0  0  0  0  0  # atno 10167 bound_to 10162
  156.0072  130.5171  150.6295 H   0  0  0  0  0  0  0  0  0  0  0  0  # atno 10718 bound_to 10713
  152.9796  135.5775  154.4758 H   0  0  0  0  0  0  0  0  0  0  0  0  # atno 10763 bound_to 10752
  154.4314  135.2773  155.1911 H   0  0  0  0  0  0  0  0  0  0  0  0  # atno 10764 bound_to 10752
  154.3618  135.6187  153.5748 H   0  0  0  0  0  0  0  0  0  0  0  0  # atno 10765 bound_to 10752
  140.7508  134.3409  157.5126 H   0  0  0  0  0  0  0  0  0  0  0  0  # atno 11005 bound_to 11000
  144.6823  140.2649  143.7314 LP  0  0  0  0  0  0  0  0  0  0  0  0  # atno 17320 bound_to 7965
  145.7990  139.1957  143.2059 LP  0  0  0  0  0  0  0  0  0  0  0  0  # atno 17321 bound_to 7965
  140.5315  143.2242  151.8230 LP  0  0  0  0  0  0  0  0  0  0  0  0  # atno 17342 bound_to 10162
  139.4841  144.4714  151.9421 LP  0  0  0  0  0  0  0  0  0  0  0  0  # atno 17343 bound_to 10162
  157.4096  131.0821  151.1234 LP  0  0  0  0  0  0  0  0  0  0  0  0  # atno 17370 bound_to 10713
  157.1869  130.6334  149.5691 LP  0  0  0  0  0  0  0  0  0  0  0  0  # atno 17371 bound_to 10713
  139.8788  134.9141  156.3098 LP  0  0  0  0  0  0  0  0  0  0  0  0  # atno 17394 bound_to 11000
  140.9752  133.7302  156.0592 LP  0  0  0  0  0  0  0  0  0  0  0  0  # atno 17395 bound_to 11000

$$$$
