AV-unprocessed.smi:2044|AV-procd|sdf|8299|dock7
  -GOLD-   2272010563D 1   1.00000     0.00000
 Structure written by MMmdl.
 39 40  0  0  0  0  0  0  0  0  1 V2000
  143.8788  132.0018  150.6916 C   0  0  0  0  0  0  0  0  0  0  0  0
  144.3539  133.2395  151.3730 C   0  0  0  0  0  0  0  0  0  0  0  0
  145.5635  133.8747  151.4107 C   0  0  0  0  0  0  0  0  0  0  0  0
  145.3110  134.9942  152.2478 C   0  0  0  0  0  0  0  0  0  0  0  0
  146.3370  135.9271  152.5469 N   0  0  0  0  0  0  0  0  0  0  0  0
  146.2545  137.0088  153.3405 C   0  0  0  0  0  0  0  0  0  0  0  0
  145.2465  137.3664  153.9511 O   0  0  0  0  0  0  0  0  0  0  0  0
  147.4222  137.6661  153.3922 N   0  0  0  0  0  0  0  0  0  0  0  0
  147.6679  138.8790  154.1683 C   0  0  0  0  0  0  0  0  0  0  0  0
  149.1312  139.3988  154.0606 C   0  0  1  0  0  0  0  0  0  0  0  0
  149.1452  140.9184  154.3658 C   0  0  0  0  0  0  0  0  0  0  0  0
  150.0879  138.6379  154.8987 N   0  0  0  0  0  0  0  0  0  0  0  0
  151.4380  139.2132  154.8711 C   0  0  0  0  0  0  0  0  0  0  0  0
  152.4493  138.4130  155.7105 C   0  0  0  0  0  0  0  0  0  0  0  0
  152.4844  137.0656  155.2619 O   0  0  0  0  0  0  0  0  0  0  0  0
  151.2105  136.4429  155.3466 C   0  0  0  0  0  0  0  0  0  0  0  0
  150.1907  137.2281  154.5037 C   0  0  0  0  0  0  0  0  0  0  0  0
  144.0603  135.0387  152.6806 N   0  0  0  0  0  0  0  0  0  0  0  0
  143.4406  133.9149  152.1217 O   0  0  0  0  0  0  0  0  0  0  0  0
  144.7186  131.3691  150.4036 H   0  0  0  0  0  0  0  0  0  0  0  0
  143.3169  132.2489  149.7908 H   0  0  0  0  0  0  0  0  0  0  0  0
  143.2293  131.4218  151.3475 H   0  0  0  0  0  0  0  0  0  0  0  0
  146.4790  133.5822  150.9182 H   0  0  0  0  0  0  0  0  0  0  0  0
  147.2287  135.7526  152.1081 H   0  0  0  0  0  0  0  0  0  0  0  0
  148.1994  137.3016  152.8613 H   0  0  0  0  0  0  0  0  0  0  0  0
  146.9757  139.6477  153.8237 H   0  0  0  0  0  0  0  0  0  0  0  0
  147.3875  138.6529  155.1960 H   0  0  0  0  0  0  0  0  0  0  0  0
  149.4369  139.2825  153.0196 H   0  0  0  0  0  0  0  0  0  0  0  0
  148.4030  141.4663  153.7865 H   0  0  0  0  0  0  0  0  0  0  0  0
  150.0980  141.3816  154.1131 H   0  0  0  0  0  0  0  0  0  0  0  0
  148.9450  141.1108  155.4205 H   0  0  0  0  0  0  0  0  0  0  0  0
  151.7921  139.2744  153.8409 H   0  0  0  0  0  0  0  0  0  0  0  0
  151.4309  140.2281  155.2646 H   0  0  0  0  0  0  0  0  0  0  0  0
  153.4457  138.8442  155.6141 H   0  0  0  0  0  0  0  0  0  0  0  0
  152.1865  138.4468  156.7690 H   0  0  0  0  0  0  0  0  0  0  0  0
  151.2913  135.4183  154.9835 H   0  0  0  0  0  0  0  0  0  0  0  0
  150.8907  136.3888  156.3885 H   0  0  0  0  0  0  0  0  0  0  0  0
  149.2340  136.7233  154.6196 H   0  0  0  0  0  0  0  0  0  0  0  0
  150.4621  137.1580  153.4492 H   0  0  0  0  0  0  0  0  0  0  0  0
  1  2  1  0  0  0  0
  1 20  1  0  0  0  0
  1 21  1  0  0  0  0
  1 22  1  0  0  0  0
  2 19  1  0  0  0  0
  2  3  2  0  0  0  0
  3  4  1  0  0  0  0
  3 23  1  0  0  0  0
  4  5  1  0  0  0  0
  4 18  2  0  0  0  0
  5  6  1  0  0  0  0
  5 24  1  0  0  0  0
  6  7  2  0  0  0  0
  6  8  1  0  0  0  0
  8  9  1  0  0  0  0
  8 25  1  0  0  0  0
  9 10  1  0  0  0  0
  9 26  1  0  0  0  0
  9 27  1  0  0  0  0
 10 11  1  0  0  0  0
 10 12  1  0  0  0  0
 10 28  1  0  0  0  0
 11 29  1  0  0  0  0
 11 30  1  0  0  0  0
 11 31  1  0  0  0  0
 12 17  1  0  0  0  0
 12 13  1  0  0  0  0
 13 14  1  0  0  0  0
 13 32  1  0  0  0  0
 13 33  1  0  0  0  0
 14 15  1  0  0  0  0
 14 34  1  0  0  0  0
 14 35  1  0  0  0  0
 15 16  1  0  0  0  0
 16 17  1  0  0  0  0
 16 36  1  0  0  0  0
 16 37  1  0  0  0  0
 17 38  1  0  0  0  0
 17 39  1  0  0  0  0
 18 19  1  0  0  0  0
M  END
> <s_m_source_file>
AV-unprocessed.smi

> <i_m_source_file_index>
2044

> <i_lp_mmshare_version>
43012

> <i_f3d_flags>
0

> <s_epik_input>
W0NIM11jMVtjSF1jKG5vMSlbTkhdQyg9TylbTkhdW0NIMl1bQ0BIXShbQ0gzXSlOMltDSDJdW0NIMl1PW0NIMl1bQ0gyXTI=

> <s_epik_cmdline>
J2VwaWtfcHl0aG9uJywgJy1waCcsICc3LjAnLCAnLXRuJywgJzgnLCAnLW1hJywgJzIwMCcsICctbWV0YWxfYmluZGluZycsICctaW1hZScsICc8aW5maWxlLm1hZT4nLCAnLW9tYWUnLCAnPG91dGZpbGUubWFlPic=

> <r_epik_Ionization_Penalty>
0.214073

> <r_epik_Ionization_Penalty_Charging>
0

> <r_epik_Ionization_Penalty_Neutral>
0.214073

> <r_epik_State_Penalty>
0.204211

> <r_epik_Charging_Adjusted_Penalty>
0.204211

> <i_epik_Tot_Q>
0

> <i_epik_Tot_abs_Q>
0

> <r_epik_Metal_State_Penalty>
0.217151

> <b_epik_Metal_Only>
0

> <s_lp_Force_Field>
OPLS_2005

> <r_lp_Energy>
26.3951

> <b_lp_Chiralities_Consistent>
1

> <s_lp_Variant>
AV-unprocessed.smi:2044-2

> <Gold.Version>
5.8.1

> <Gold.Id.Protein>
6NUR|6NUR_protein|mol2

> <Gold.PLP.Fitness>
34.6524

> <Gold.PLP.PLP>
-26.1381

> <Gold.PLP.part.hbond>
-3.0000

> <Gold.PLP.part.metal>
0.0000

> <Gold.PLP.part.buried>
-3.2389

> <Gold.PLP.part.nonpolar>
-21.2076

> <Gold.PLP.part.repulsive>
0.6411

> <Gold.PLP.ligand.clash>
0.0000

> <Gold.PLP.ligand.torsion>
0.2499

> <Gold.PLP.Chemscore.Hbond>
2.9920

> <Gold.PLP.Chemscore.CHOScore>
0.0000

> <Gold.PLP.Chemscore.Metal>
0.0000

> <Gold.Chemscore.Hbonds>
donor molecule, donor type, donor heavy atom, donor atom, acceptor molecule, acceptor atom, score
      L1  H     5    24       P1  7948  1.00
      L1  H     8    25       P1  7948  1.00
      P1  H 10752 10765       L1    15  0.22

> <Gold.PLP.Chemscore.Internal.Correction>
0.0380

> <Gold.Rescore>
     Score         DG    S(hbond)    S(metal)    S(lipo)     H(rot)  DE(clash)    DE(int)     intcor
     15.63     -18.31       2.90        0.00      61.20       1.58       0.02       2.66       ----

> <Gold.Chemscore.Fitness>
15.6312

> <Gold.Chemscore.DG>
-18.3097

> <Gold.Chemscore.ZeroCoef>
-5.4800

> <Gold.Chemscore.Hbond>
2.9048

> <Gold.Chemscore.Metal>
0.0000

> <Gold.Chemscore.Lipo>
61.2009

> <Gold.Chemscore.Internal_Hbond>
0.0000

> <Gold.Chemscore.DEClash>
0.0186

> <Gold.Chemscore.DEInternal>
2.6599

> <Gold.Chemscore.Rot>
1.5753

> <Gold.Chemscore.Internal.Correction>
   9.000000E+99

> <Gold.Chemscore.Hbonds>
donor molecule, donor type, donor heavy atom, donor atom, acceptor molecule, acceptor atom, score
      L1  H     5    24       P1  7948  0.95
      L1  H     8    25       P1  7948  0.98

> <Gold.Chemscore.Hbond.Weighted>
-9.7021

> <Gold.Chemscore.Metal.Weighted>
-0.0000

> <Gold.Chemscore.Lipo.Weighted>
-7.1605

> <Gold.Chemscore.Internal_Hbond.Weighted>
0.0000

> <Gold.Chemscore.DEClash.Weighted>
0.0186

> <Gold.Chemscore.DEInternal.Weighted>
2.6599

> <Gold.Chemscore.Rot.Weighted>
4.0329

> <Gold.Chemscore.Internal.Correction.Weighted>
   9.000000E+99

> <Gold.Protein.RotatedTorsions>
[ 6907 6896 6895 6894 ] final -165.49 input  -60.11 | X-H torsion
[ 7974 7965 7964 7962 ] final    1.96 input  175.53 | X-H torsion
[ 8008 7997 7996 7995 ] final  -25.68 input   59.86 | X-H torsion
[ 10167 10162 10161 10158 ] final   74.72 input  -65.29 | X-H torsion
[ 10718 10713 10712 10709 ] final -137.02 input   66.30 | X-H torsion
[ 10763 10752 10751 10750 ] final -156.50 input  -60.55 | X-H torsion
[ 11005 11000 10999 10996 ] final  -31.85 input  -57.11 | X-H torsion

> <Gold.Protein.ActiveResidues>
 VAL166  LYS551  ARG553  GLY616  TRP617  ASP618  TYR619  PRO620  LYS621  CYS622 
 ASP623  PHE694  ASN695  SER759  ASP760  ASP761  ALA762  ILE779  LEU786  VAL792 
 PHE793  MET794  SER795  GLU796  ALA797  LYS798  CYS799  TRP800  GLU811  SER814 

> <Gold.Protein.RotatedAtoms>
  151.4285  133.3677  159.2765 H   0  0  0  0  0  0  0  0  0  0  0  0  # atno 6907 bound_to 6896
  150.9242  134.8661  159.7520 H   0  0  0  0  0  0  0  0  0  0  0  0  # atno 6908 bound_to 6896
  152.4997  134.4225  159.9537 H   0  0  0  0  0  0  0  0  0  0  0  0  # atno 6909 bound_to 6896
  146.2442  140.0907  142.8352 H   0  0  0  0  0  0  0  0  0  0  0  0  # atno 7974 bound_to 7965
  154.4463  140.1920  156.0657 H   0  0  0  0  0  0  0  0  0  0  0  0  # atno 8008 bound_to 7997
  156.0549  140.3304  155.7367 H   0  0  0  0  0  0  0  0  0  0  0  0  # atno 8009 bound_to 7997
  155.5500  140.0594  157.2843 H   0  0  0  0  0  0  0  0  0  0  0  0  # atno 8010 bound_to 7997
  140.0106  144.5617  150.7661 H   0  0  0  0  0  0  0  0  0  0  0  0  # atno 10167 bound_to 10162
  156.2834  130.7334  151.1338 H   0  0  0  0  0  0  0  0  0  0  0  0  # atno 10718 bound_to 10713
  154.7708  135.3144  154.8194 H   0  0  0  0  0  0  0  0  0  0  0  0  # atno 10763 bound_to 10752
  153.8930  135.6823  153.4764 H   0  0  0  0  0  0  0  0  0  0  0  0  # atno 10764 bound_to 10752
  153.1321  135.4775  154.9300 H   0  0  0  0  0  0  0  0  0  0  0  0  # atno 10765 bound_to 10752
  140.9503  133.7225  156.1210 H   0  0  0  0  0  0  0  0  0  0  0  0  # atno 11005 bound_to 11000
  145.0652  140.9116  143.4914 LP  0  0  0  0  0  0  0  0  0  0  0  0  # atno 17320 bound_to 7965
  145.1031  139.2809  143.5676 LP  0  0  0  0  0  0  0  0  0  0  0  0  # atno 17321 bound_to 7965
  140.7383  143.2776  151.3695 LP  0  0  0  0  0  0  0  0  0  0  0  0  # atno 17342 bound_to 10162
  139.6207  144.0912  152.2389 LP  0  0  0  0  0  0  0  0  0  0  0  0  # atno 17343 bound_to 10162
  157.7321  131.0602  150.5643 LP  0  0  0  0  0  0  0  0  0  0  0  0  # atno 17370 bound_to 10713
  156.5752  130.4290  149.6002 LP  0  0  0  0  0  0  0  0  0  0  0  0  # atno 17371 bound_to 10713
  140.7612  134.3937  157.5525 LP  0  0  0  0  0  0  0  0  0  0  0  0  # atno 17394 bound_to 11000
  139.8845  134.8962  156.2697 LP  0  0  0  0  0  0  0  0  0  0  0  0  # atno 17395 bound_to 11000

$$$$
