AV-unprocessed.smi:113|AV-procd|sdf|1097|dock8
  -GOLD-   2262018203D 1   1.00000     0.00000
 Structure written by MMmdl.
 52 55  0  0  0  0  0  0  0  0  1 V2000
  153.1712  138.2537  159.3723 C   0  0  0  0  0  0  0  0  0  0  0  0
  152.7036  139.6586  159.0546 C   0  0  0  0  0  0  0  0  0  0  0  0
  152.0959  139.9532  157.8212 C   0  0  0  0  0  0  0  0  0  0  0  0
  151.6753  141.2779  157.5626 C   0  0  0  0  0  0  0  0  0  0  0  0
  151.0049  141.6523  156.2359 C   0  0  0  0  0  0  0  0  0  0  0  0
  149.6583  141.1452  156.0122 N   0  0  0  0  0  0  0  0  0  0  0  0
  149.4340  140.3551  154.8585 C   0  0  0  0  0  0  0  0  0  0  0  0
  150.3398  140.1076  154.0594 O   0  0  0  0  0  0  0  0  0  0  0  0
  148.0684  139.8474  154.7080 C   0  0  0  0  0  0  0  0  0  0  0  0
  147.7541  138.9864  153.4945 C   0  0  0  0  0  0  0  0  0  0  0  0
  147.1332  140.1447  155.6422 C   0  0  0  0  0  0  0  0  0  0  0  0
  147.3772  140.9247  156.7586 N   0  0  0  0  0  0  0  0  0  0  0  0
  146.2779  141.1403  157.7752 C   0  0  2  0  0  0  0  0  0  0  0  0
  144.9528  140.4476  157.4108 C   0  0  0  0  0  0  0  0  0  0  0  0
  143.9155  141.5505  157.5975 C   0  0  2  0  0  0  0  0  0  0  0  0
  143.3902  141.9509  156.3459 O   0  0  0  0  0  0  0  0  0  0  0  0
  144.6899  142.6747  158.3099 C   0  0  2  0  0  0  0  0  0  0  0  0
  144.2142  144.1191  158.0722 C   0  0  0  0  0  0  0  0  0  0  0  0
  145.0925  145.0352  158.6917 O   0  0  0  0  0  0  0  0  0  0  0  0
  146.0283  142.5059  157.8713 O   0  0  0  0  0  0  0  0  0  0  0  0
  148.6767  141.4282  156.9882 C   0  0  0  0  0  0  0  0  0  0  0  0
  148.9428  142.0686  158.0074 O   0  0  0  0  0  0  0  0  0  0  0  0
  151.8900  142.2533  158.5739 C   0  0  0  0  0  0  0  0  0  0  0  0
  151.4953  143.6018  158.3972 C   0  0  0  0  0  0  0  0  0  0  0  0
  151.7183  144.5520  159.4099 C   0  0  0  0  0  0  0  0  0  0  0  0
  152.3374  144.1648  160.6098 C   0  0  0  0  0  0  0  0  0  0  0  0
  152.7320  142.8275  160.7935 C   0  0  0  0  0  0  0  0  0  0  0  0
  152.5181  141.8567  159.7915 C   0  0  0  0  0  0  0  0  0  0  0  0
  152.9118  140.5831  160.0122 N   0  0  0  0  0  0  0  0  0  0  0  0
  152.6919  137.5233  158.7198 H   0  0  0  0  0  0  0  0  0  0  0  0
  152.9334  137.9907  160.4037 H   0  0  0  0  0  0  0  0  0  0  0  0
  154.2502  138.1770  159.2376 H   0  0  0  0  0  0  0  0  0  0  0  0
  151.9602  139.1651  157.0962 H   0  0  0  0  0  0  0  0  0  0  0  0
  150.9671  142.7374  156.1285 H   0  0  0  0  0  0  0  0  0  0  0  0
  151.6171  141.3203  155.3958 H   0  0  0  0  0  0  0  0  0  0  0  0
  146.7078  138.6805  153.4732 H   0  0  0  0  0  0  0  0  0  0  0  0
  148.3659  138.0835  153.4998 H   0  0  0  0  0  0  0  0  0  0  0  0
  147.9596  139.5343  152.5741 H   0  0  0  0  0  0  0  0  0  0  0  0
  146.1376  139.7481  155.5030 H   0  0  0  0  0  0  0  0  0  0  0  0
  146.6666  140.7877  158.7313 H   0  0  0  0  0  0  0  0  0  0  0  0
  144.9651  140.0362  156.4007 H   0  0  0  0  0  0  0  0  0  0  0  0
  144.7896  139.6236  158.1059 H   0  0  0  0  0  0  0  0  0  0  0  0
  143.0816  141.2087  158.2116 H   0  0  0  0  0  0  0  0  0  0  0  0
  144.0271  141.7610  155.6743 H   0  0  0  0  0  0  0  0  0  0  0  0
  144.6878  142.4727  159.3829 H   0  0  0  0  0  0  0  0  0  0  0  0
  144.2042  144.3317  157.0028 H   0  0  0  0  0  0  0  0  0  0  0  0
  143.1971  144.2749  158.4324 H   0  0  0  0  0  0  0  0  0  0  0  0
  145.9489  144.9441  158.3032 H   0  0  0  0  0  0  0  0  0  0  0  0
  151.0163  143.9327  157.4885 H   0  0  0  0  0  0  0  0  0  0  0  0
  151.4135  145.5781  159.2650 H   0  0  0  0  0  0  0  0  0  0  0  0
  152.5093  144.8922  161.3895 H   0  0  0  0  0  0  0  0  0  0  0  0
  153.2069  142.5416  161.7207 H   0  0  0  0  0  0  0  0  0  0  0  0
  1  2  1  0  0  0  0
  1 30  1  0  0  0  0
  1 31  1  0  0  0  0
  1 32  1  0  0  0  0
  2 29  1  0  0  0  0
  2  3  2  0  0  0  0
  3  4  1  0  0  0  0
  3 33  1  0  0  0  0
  4  5  1  0  0  0  0
  4 23  2  0  0  0  0
  5  6  1  0  0  0  0
  5 34  1  0  0  0  0
  5 35  1  0  0  0  0
  6 21  1  0  0  0  0
  6  7  1  0  0  0  0
  7  8  2  0  0  0  0
  7  9  1  0  0  0  0
  9 10  1  0  0  0  0
  9 11  2  0  0  0  0
 10 36  1  0  0  0  0
 10 37  1  0  0  0  0
 10 38  1  0  0  0  0
 11 12  1  0  0  0  0
 11 39  1  0  0  0  0
 12 13  1  0  0  0  0
 12 21  1  0  0  0  0
 13 20  1  0  0  0  0
 13 14  1  0  0  0  0
 13 40  1  0  0  0  0
 14 15  1  0  0  0  0
 14 41  1  0  0  0  0
 14 42  1  0  0  0  0
 15 16  1  0  0  0  0
 15 17  1  0  0  0  0
 15 43  1  0  0  0  0
 16 44  1  0  0  0  0
 17 18  1  0  0  0  0
 17 20  1  0  0  0  0
 17 45  1  0  0  0  0
 18 19  1  0  0  0  0
 18 46  1  0  0  0  0
 18 47  1  0  0  0  0
 19 48  1  0  0  0  0
 21 22  2  0  0  0  0
 23 28  1  0  0  0  0
 23 24  1  0  0  0  0
 24 25  2  0  0  0  0
 24 49  1  0  0  0  0
 25 26  1  0  0  0  0
 25 50  1  0  0  0  0
 26 27  2  0  0  0  0
 26 51  1  0  0  0  0
 27 28  1  0  0  0  0
 27 52  1  0  0  0  0
 28 29  2  0  0  0  0
M  END
> <s_m_source_file>
AV-unprocessed.smi

> <i_m_source_file_index>
113

> <i_lp_mmshare_version>
43012

> <i_f3d_flags>
0

> <s_epik_input>
W2NIXTFbY0hdW2NIXVtjSF1jKGMxMiluYyhbQ0gzXSlbY0hdYzJbQ0gyXW4zYyg9TyljKFtDSDNdKVtjSF1uKGMzPU8pW0NAQEhdNFtDSDJdW0NAQEhdKFtPSF0pW0NASF0oTzQpW0NIMl1bT0hd

> <s_epik_cmdline>
J2VwaWtfcHl0aG9uJywgJy1waCcsICc3LjAnLCAnLXRuJywgJzgnLCAnLW1hJywgJzIwMCcsICctbWV0YWxfYmluZGluZycsICctaW1hZScsICc8aW5maWxlLm1hZT4nLCAnLW9tYWUnLCAnPG91dGZpbGUubWFlPic=

> <r_lp_tautomer_probability>
1

> <r_epik_Ionization_Penalty>
0.214728

> <r_epik_Ionization_Penalty_Charging>
3.04883e-08

> <r_epik_Ionization_Penalty_Neutral>
0.214728

> <r_epik_State_Penalty>
0.204913

> <r_epik_Charging_Adjusted_Penalty>
0.204913

> <i_epik_Tot_Q>
0

> <i_epik_Tot_abs_Q>
0

> <r_epik_Metal_State_Penalty>
0.000244761

> <b_epik_Metal_Only>
0

> <s_epik_Chemistry_Notes>
This compound contains an acetal/aminal-like group ( X-CH(R)-Y where X, Y are N, S, or O) that may be acid/base labile, releasing an aldehyde.

> <s_lp_Force_Field>
OPLS_2005

> <r_lp_Energy>
37.3201

> <b_lp_Chiralities_Consistent>
1

> <s_lp_Variant>
AV-unprocessed.smi:113-7

> <Gold.Version>
5.8.1

> <Gold.Id.Protein>
6NUR|6NUR_protein|mol2

> <Gold.PLP.Fitness>
50.3017

> <Gold.PLP.PLP>
-44.5639

> <Gold.PLP.part.hbond>
-1.9363

> <Gold.PLP.part.metal>
0.0000

> <Gold.PLP.part.buried>
-7.2690

> <Gold.PLP.part.nonpolar>
-35.3688

> <Gold.PLP.part.repulsive>
1.5070

> <Gold.PLP.ligand.clash>
0.0000

> <Gold.PLP.ligand.torsion>
0.1473

> <Gold.PLP.Chemscore.Hbond>
2.0000

> <Gold.PLP.Chemscore.CHOScore>
0.0000

> <Gold.PLP.Chemscore.Metal>
0.0000

> <Gold.Chemscore.Hbonds>
donor molecule, donor type, donor heavy atom, donor atom, acceptor molecule, acceptor atom, score
      L1  H    19    48       P1  8029  0.14
      P1  H  7989  7998       L1     8  1.00

> <Gold.PLP.Chemscore.Internal.Correction>
0.0325

> <Gold.Rescore>
     Score         DG    S(hbond)    S(metal)    S(lipo)     H(rot)  DE(clash)    DE(int)     intcor
     16.09     -17.64       1.97        0.00     112.30       2.95       0.18       1.37       ----

> <Gold.Chemscore.Fitness>
16.0909

> <Gold.Chemscore.DG>
-17.6403

> <Gold.Chemscore.ZeroCoef>
-5.4800

> <Gold.Chemscore.Hbond>
1.9657

> <Gold.Chemscore.Metal>
0.0000

> <Gold.Chemscore.Lipo>
112.2989

> <Gold.Chemscore.Internal_Hbond>
0.0000

> <Gold.Chemscore.DEClash>
0.1823

> <Gold.Chemscore.DEInternal>
1.3671

> <Gold.Chemscore.Rot>
2.9469

> <Gold.Chemscore.Internal.Correction>
   9.000000E+99

> <Gold.Chemscore.Hbonds>
donor molecule, donor type, donor heavy atom, donor atom, acceptor molecule, acceptor atom, score
      L1  H    19    48       P1  8029  0.13
      P1  H  7989  7998       L1     8  0.94

> <Gold.Chemscore.Hbond.Weighted>
-6.5653

> <Gold.Chemscore.Metal.Weighted>
-0.0000

> <Gold.Chemscore.Lipo.Weighted>
-13.1390

> <Gold.Chemscore.Internal_Hbond.Weighted>
0.0000

> <Gold.Chemscore.DEClash.Weighted>
0.1823

> <Gold.Chemscore.DEInternal.Weighted>
1.3671

> <Gold.Chemscore.Rot.Weighted>
7.5439

> <Gold.Chemscore.Internal.Correction.Weighted>
   9.000000E+99

> <Gold.Protein.RotatedTorsions>
[ 6907 6896 6895 6894 ] final  143.58 input  -60.11 | X-H torsion
[ 7974 7965 7964 7962 ] final  159.98 input  175.53 | X-H torsion
[ 8008 7997 7996 7995 ] final   33.17 input   59.86 | X-H torsion
[ 10167 10162 10161 10158 ] final -173.70 input  -65.29 | X-H torsion
[ 10718 10713 10712 10709 ] final  -78.85 input   66.30 | X-H torsion
[ 10763 10752 10751 10750 ] final   93.15 input  -60.55 | X-H torsion
[ 11005 11000 10999 10996 ] final   23.18 input  -57.11 | X-H torsion

> <Gold.Protein.ActiveResidues>
 VAL166  LYS551  ARG553  GLY616  TRP617  ASP618  TYR619  PRO620  LYS621  CYS622 
 ASP623  PHE694  ASN695  SER759  ASP760  ASP761  ALA762  ILE779  LEU786  VAL792 
 PHE793  MET794  SER795  GLU796  ALA797  LYS798  CYS799  TRP800  GLU811  SER814 

> <Gold.Protein.RotatedAtoms>
  152.2045  133.4865  159.5076 H   0  0  0  0  0  0  0  0  0  0  0  0  # atno 6907 bound_to 6896
  150.6976  134.1547  159.4163 H   0  0  0  0  0  0  0  0  0  0  0  0  # atno 6908 bound_to 6896
  151.9465  135.0189  160.0590 H   0  0  0  0  0  0  0  0  0  0  0  0  # atno 6909 bound_to 6896
  144.7761  139.7692  143.6278 H   0  0  0  0  0  0  0  0  0  0  0  0  # atno 7974 bound_to 7965
  155.1342  140.3260  155.4467 H   0  0  0  0  0  0  0  0  0  0  0  0  # atno 8008 bound_to 7997
  156.2625  140.2005  156.6409 H   0  0  0  0  0  0  0  0  0  0  0  0  # atno 8009 bound_to 7997
  154.6590  140.0549  157.0027 H   0  0  0  0  0  0  0  0  0  0  0  0  # atno 8010 bound_to 7997
  139.5674  144.1723  152.1333 H   0  0  0  0  0  0  0  0  0  0  0  0  # atno 10167 bound_to 10162
  156.0107  130.4529  150.3559 H   0  0  0  0  0  0  0  0  0  0  0  0  # atno 10718 bound_to 10713
  153.2271  135.4336  155.0554 H   0  0  0  0  0  0  0  0  0  0  0  0  # atno 10763 bound_to 10752
  154.8278  135.3370  154.6842 H   0  0  0  0  0  0  0  0  0  0  0  0  # atno 10764 bound_to 10752
  153.7271  135.7013  153.5054 H   0  0  0  0  0  0  0  0  0  0  0  0  # atno 10765 bound_to 10752
  140.3725  134.2007  155.7666 H   0  0  0  0  0  0  0  0  0  0  0  0  # atno 11005 bound_to 11000
  146.1941  139.5198  142.9785 LP  0  0  0  0  0  0  0  0  0  0  0  0  # atno 17320 bound_to 7965
  145.6181  141.0327  143.1929 LP  0  0  0  0  0  0  0  0  0  0  0  0  # atno 17321 bound_to 7965
  140.1249  144.5340  150.6839 LP  0  0  0  0  0  0  0  0  0  0  0  0  # atno 17342 bound_to 10162
  140.6958  143.2403  151.5005 LP  0  0  0  0  0  0  0  0  0  0  0  0  # atno 17343 bound_to 10162
  157.1649  131.0354  151.2823 LP  0  0  0  0  0  0  0  0  0  0  0  0  # atno 17370 bound_to 10713
  157.4279  130.7474  149.6966 LP  0  0  0  0  0  0  0  0  0  0  0  0  # atno 17371 bound_to 10713
  141.1950  133.8116  157.0734 LP  0  0  0  0  0  0  0  0  0  0  0  0  # atno 17394 bound_to 11000
  140.0541  134.9790  157.1189 LP  0  0  0  0  0  0  0  0  0  0  0  0  # atno 17395 bound_to 11000

$$$$
