AV-unprocessed.smi:162|AV-procd|sdf|1376|dock5
  -GOLD-   2262019103D 1   1.00000     0.00000
 Structure written by MMmdl.
 54 57  0  0  0  0  0  0  0  0  1 V2000
  148.7697  141.5139  156.0269 C   0  0  0  0  0  0  0  0  0  0  0  0
  149.5015  142.0478  157.1192 O   0  0  0  0  0  0  0  0  0  0  0  0
  150.8461  141.5943  157.1935 C   0  0  0  0  0  0  0  0  0  0  0  0
  151.4053  141.6721  158.6310 C   0  0  2  0  0  0  0  0  0  0  0  0
  151.7836  143.0951  159.0592 C   0  0  0  0  0  0  0  0  0  0  0  0
  152.9413  142.9143  160.0558 C   0  0  1  0  0  0  0  0  0  0  0  0
  152.6107  143.3498  161.3671 O   0  0  0  0  0  0  0  0  0  0  0  0
  153.7041  143.3063  162.2702 C   0  0  0  0  0  0  0  0  0  0  0  0
  153.1930  141.4023  160.0717 C   0  0  0  0  0  0  0  0  0  0  0  0
  152.6239  140.8988  158.8292 N   0  0  0  0  0  0  0  0  0  0  0  0
  152.4795  139.5564  158.7242 C   0  0  0  0  0  0  0  0  0  0  0  0
  151.4063  138.9298  159.2759 N   0  0  0  0  0  0  0  0  0  0  0  0
  151.2586  137.6084  159.1382 C   0  0  0  0  0  0  0  0  0  0  0  0
  152.0454  136.7426  158.4954 N   0  0  0  0  0  0  0  0  0  0  0  0
  153.1216  137.3697  157.9399 C   0  0  0  0  0  0  0  0  0  0  0  0
  153.4123  138.7606  158.0080 C   0  0  0  0  0  0  0  0  0  0  0  0
  154.5871  139.0364  157.3204 N   0  0  0  0  0  0  0  0  0  0  0  0
  154.9659  137.8740  156.8635 C   0  0  0  0  0  0  0  0  0  0  0  0
  154.1495  136.8159  157.1966 N   0  0  0  0  0  0  0  0  0  0  0  0
  154.3253  135.4236  156.8146 C   0  0  0  0  0  0  0  0  0  0  0  0
  155.5208  134.7136  157.4986 C   0  0  0  0  0  0  0  0  0  0  0  0
  155.2754  134.8262  158.8890 O   0  0  0  0  0  0  0  0  0  0  0  0
  155.6119  133.2138  157.1438 C   0  0  0  0  0  0  0  0  0  0  0  0
  156.8546  132.5526  157.7674 C   0  0  0  0  0  0  0  0  0  0  0  0
  158.0296  133.2468  157.3632 O   0  0  0  0  0  0  0  0  0  0  0  0
  158.0537  134.5987  157.8072 C   0  0  0  0  0  0  0  0  0  0  0  0
  156.8795  135.3783  157.1876 C   0  0  0  0  0  0  0  0  0  0  0  0
  150.6636  141.2860  159.3318 H   0  0  0  0  0  0  0  0  0  0  0  0
  153.8352  143.4232  159.6907 H   0  0  0  0  0  0  0  0  0  0  0  0
  147.7757  141.9600  156.0052 H   0  0  0  0  0  0  0  0  0  0  0  0
  148.6437  140.4349  156.1122 H   0  0  0  0  0  0  0  0  0  0  0  0
  149.2559  141.7362  155.0764 H   0  0  0  0  0  0  0  0  0  0  0  0
  150.9131  140.5822  156.7925 H   0  0  0  0  0  0  0  0  0  0  0  0
  151.4462  142.2250  156.5367 H   0  0  0  0  0  0  0  0  0  0  0  0
  152.1329  143.6743  158.2034 H   0  0  0  0  0  0  0  0  0  0  0  0
  150.9268  143.6195  159.4830 H   0  0  0  0  0  0  0  0  0  0  0  0
  153.3809  143.6565  163.2503 H   0  0  0  0  0  0  0  0  0  0  0  0
  154.5260  143.9434  161.9424 H   0  0  0  0  0  0  0  0  0  0  0  0
  154.0771  142.2880  162.3857 H   0  0  0  0  0  0  0  0  0  0  0  0
  154.2565  141.1721  160.1423 H   0  0  0  0  0  0  0  0  0  0  0  0
  152.6954  140.9563  160.9342 H   0  0  0  0  0  0  0  0  0  0  0  0
  150.3829  137.1848  159.6074 H   0  0  0  0  0  0  0  0  0  0  0  0
  155.8599  137.7551  156.2686 H   0  0  0  0  0  0  0  0  0  0  0  0
  153.3978  134.8953  157.0403 H   0  0  0  0  0  0  0  0  0  0  0  0
  154.4368  135.3850  155.7298 H   0  0  0  0  0  0  0  0  0  0  0  0
  156.1027  134.9384  159.3319 H   0  0  0  0  0  0  0  0  0  0  0  0
  154.7089  132.6891  157.4585 H   0  0  0  0  0  0  0  0  0  0  0  0
  155.6778  133.0913  156.0630 H   0  0  0  0  0  0  0  0  0  0  0  0
  156.7863  132.5306  158.8561 H   0  0  0  0  0  0  0  0  0  0  0  0
  156.9296  131.5165  157.4370 H   0  0  0  0  0  0  0  0  0  0  0  0
  158.0222  134.6368  158.8970 H   0  0  0  0  0  0  0  0  0  0  0  0
  158.9993  135.0487  157.5047 H   0  0  0  0  0  0  0  0  0  0  0  0
  157.0364  135.4143  156.1096 H   0  0  0  0  0  0  0  0  0  0  0  0
  156.8896  136.4125  157.5336 H   0  0  0  0  0  0  0  0  0  0  0  0
  1  2  1  0  0  0  0
  1 30  1  0  0  0  0
  1 31  1  0  0  0  0
  1 32  1  0  0  0  0
  2  3  1  0  0  0  0
  3  4  1  0  0  0  0
  3 33  1  0  0  0  0
  3 34  1  0  0  0  0
  4 28  1  0  0  0  0
  4 10  1  0  0  0  0
  4  5  1  0  0  0  0
  5  6  1  0  0  0  0
  5 35  1  0  0  0  0
  5 36  1  0  0  0  0
  6 29  1  0  0  0  0
  6  7  1  0  0  0  0
  6  9  1  0  0  0  0
  7  8  1  0  0  0  0
  8 37  1  0  0  0  0
  8 38  1  0  0  0  0
  8 39  1  0  0  0  0
  9 10  1  0  0  0  0
  9 40  1  0  0  0  0
  9 41  1  0  0  0  0
 10 11  1  0  0  0  0
 11 16  1  0  0  0  0
 11 12  2  0  0  0  0
 12 13  1  0  0  0  0
 13 14  2  0  0  0  0
 13 42  1  0  0  0  0
 14 15  1  0  0  0  0
 15 19  1  0  0  0  0
 15 16  2  0  0  0  0
 16 17  1  0  0  0  0
 17 18  2  0  0  0  0
 18 19  1  0  0  0  0
 18 43  1  0  0  0  0
 19 20  1  0  0  0  0
 20 21  1  0  0  0  0
 20 44  1  0  0  0  0
 20 45  1  0  0  0  0
 21 27  1  0  0  0  0
 21 22  1  0  0  0  0
 21 23  1  0  0  0  0
 22 46  1  0  0  0  0
 23 24  1  0  0  0  0
 23 47  1  0  0  0  0
 23 48  1  0  0  0  0
 24 25  1  0  0  0  0
 24 49  1  0  0  0  0
 24 50  1  0  0  0  0
 25 26  1  0  0  0  0
 26 27  1  0  0  0  0
 26 51  1  0  0  0  0
 26 52  1  0  0  0  0
 27 53  1  0  0  0  0
 27 54  1  0  0  0  0
M  END
> <s_m_source_file>
AV-unprocessed.smi

> <i_m_source_file_index>
162

> <i_lp_mmshare_version>
43012

> <i_f3d_flags>
0

> <s_epik_input>
W0NIM11PW0NIMl1bQ0BASF0xW0NIMl1bQ0BASF0oT1tDSDNdKVtDSDJdTjFjKG5bY0hdbjIpYyhjMjMpbltjSF1uM1tDSDJdQzQoW09IXSlbQ0gyXVtDSDJdT1tDSDJdW0NIMl00

> <s_epik_cmdline>
J2VwaWtfcHl0aG9uJywgJy1waCcsICc3LjAnLCAnLXRuJywgJzgnLCAnLW1hJywgJzIwMCcsICctbWV0YWxfYmluZGluZycsICctaW1hZScsICc8aW5maWxlLm1hZT4nLCAnLW9tYWUnLCAnPG91dGZpbGUubWFlPic=

> <r_lp_tautomer_probability>
1

> <r_epik_Ionization_Penalty>
0.00660334

> <r_epik_Ionization_Penalty_Charging>
0

> <r_epik_Ionization_Penalty_Neutral>
0.00660334

> <r_epik_State_Penalty>
0.00469459

> <r_epik_Charging_Adjusted_Penalty>
0.00469459

> <i_epik_Tot_Q>
0

> <i_epik_Tot_abs_Q>
0

> <r_epik_Metal_State_Penalty>
-0

> <b_epik_Metal_Only>
0

> <s_lp_Force_Field>
OPLS_2005

> <r_lp_Energy>
45.7705

> <b_lp_Chiralities_Consistent>
1

> <s_lp_Variant>
AV-unprocessed.smi:162-1

> <Gold.Version>
5.8.1

> <Gold.Id.Protein>
6NUR|6NUR_protein|mol2

> <Gold.PLP.Fitness>
41.6909

> <Gold.PLP.PLP>
-35.1548

> <Gold.PLP.part.hbond>
-3.4206

> <Gold.PLP.part.metal>
0.0000

> <Gold.PLP.part.buried>
-7.1391

> <Gold.PLP.part.nonpolar>
-25.3861

> <Gold.PLP.part.repulsive>
0.7307

> <Gold.PLP.ligand.clash>
0.0000

> <Gold.PLP.ligand.torsion>
0.9035

> <Gold.PLP.Chemscore.Hbond>
2.7440

> <Gold.PLP.Chemscore.CHOScore>
0.0000

> <Gold.PLP.Chemscore.Metal>
0.0000

> <Gold.Chemscore.Hbonds>
donor molecule, donor type, donor heavy atom, donor atom, acceptor molecule, acceptor atom, score
      P1  H  6896  6909       L1    14  0.11

> <Gold.PLP.Chemscore.Internal.Correction>
0.1110

> <Gold.Rescore>
     Score         DG    S(hbond)    S(metal)    S(lipo)     H(rot)  DE(clash)    DE(int)     intcor
     13.18     -14.66       2.50        0.00      69.71       2.86       0.09       1.40       ----

> <Gold.Chemscore.Fitness>
13.1770

> <Gold.Chemscore.DG>
-14.6639

> <Gold.Chemscore.ZeroCoef>
-5.4800

> <Gold.Chemscore.Hbond>
2.5030

> <Gold.Chemscore.Metal>
0.0000

> <Gold.Chemscore.Lipo>
69.7112

> <Gold.Chemscore.Internal_Hbond>
0.0000

> <Gold.Chemscore.DEClash>
0.0893

> <Gold.Chemscore.DEInternal>
1.3976

> <Gold.Chemscore.Rot>
2.8642

> <Gold.Chemscore.Internal.Correction>
   9.000000E+99

> <Gold.Chemscore.Hbonds>
donor molecule, donor type, donor heavy atom, donor atom, acceptor molecule, acceptor atom, score
      P1  H  7997  8009       L1    17  0.02

> <Gold.Chemscore.Hbond.Weighted>
-8.3600

> <Gold.Chemscore.Metal.Weighted>
-0.0000

> <Gold.Chemscore.Lipo.Weighted>
-8.1562

> <Gold.Chemscore.Internal_Hbond.Weighted>
0.0000

> <Gold.Chemscore.DEClash.Weighted>
0.0893

> <Gold.Chemscore.DEInternal.Weighted>
1.3976

> <Gold.Chemscore.Rot.Weighted>
7.3324

> <Gold.Chemscore.Internal.Correction.Weighted>
   9.000000E+99

> <Gold.Protein.RotatedTorsions>
[ 6907 6896 6895 6894 ] final  100.17 input  -60.11 | X-H torsion
[ 7974 7965 7964 7962 ] final   86.82 input  175.53 | X-H torsion
[ 8008 7997 7996 7995 ] final  113.78 input   59.86 | X-H torsion
[ 10167 10162 10161 10158 ] final  136.46 input  -65.29 | X-H torsion
[ 10718 10713 10712 10709 ] final -140.10 input   66.30 | X-H torsion
[ 10763 10752 10751 10750 ] final  -50.44 input  -60.55 | X-H torsion
[ 11005 11000 10999 10996 ] final   67.24 input  -57.11 | X-H torsion

> <Gold.Protein.ActiveResidues>
 VAL166  LYS551  ARG553  GLY616  TRP617  ASP618  TYR619  PRO620  LYS621  CYS622 
 ASP623  PHE694  ASN695  SER759  ASP760  ASP761  ALA762  ILE779  LEU786  VAL792 
 PHE793  MET794  SER795  GLU796  ALA797  LYS798  CYS799  TRP800  GLU811  SER814 

> <Gold.Protein.RotatedAtoms>
  152.5377  134.0318  159.8027 H   0  0  0  0  0  0  0  0  0  0  0  0  # atno 6907 bound_to 6896
  151.0487  133.5635  159.2651 H   0  0  0  0  0  0  0  0  0  0  0  0  # atno 6908 bound_to 6896
  151.2577  135.0651  159.9140 H   0  0  0  0  0  0  0  0  0  0  0  0  # atno 6909 bound_to 6896
  145.5672  139.2310  143.2426 H   0  0  0  0  0  0  0  0  0  0  0  0  # atno 7974 bound_to 7965
  156.2280  140.2972  156.0115 H   0  0  0  0  0  0  0  0  0  0  0  0  # atno 8008 bound_to 7997
  155.2304  140.0419  157.2978 H   0  0  0  0  0  0  0  0  0  0  0  0  # atno 8009 bound_to 7997
  154.5947  140.2411  155.7880 H   0  0  0  0  0  0  0  0  0  0  0  0  # atno 8010 bound_to 7997
  139.5179  144.6463  151.5429 H   0  0  0  0  0  0  0  0  0  0  0  0  # atno 10167 bound_to 10162
  156.3184  130.7520  151.1612 H   0  0  0  0  0  0  0  0  0  0  0  0  # atno 10718 bound_to 10713
  154.1104  135.6550  153.4884 H   0  0  0  0  0  0  0  0  0  0  0  0  # atno 10763 bound_to 10752
  153.0258  135.5246  154.7198 H   0  0  0  0  0  0  0  0  0  0  0  0  # atno 10764 bound_to 10752
  154.6376  135.2984  155.0112 H   0  0  0  0  0  0  0  0  0  0  0  0  # atno 10765 bound_to 10752
  139.9783  134.6786  156.0312 H   0  0  0  0  0  0  0  0  0  0  0  0  # atno 11005 bound_to 11000
  146.1810  140.6498  142.9189 LP  0  0  0  0  0  0  0  0  0  0  0  0  # atno 17320 bound_to 7965
  144.7455  140.5055  143.6839 LP  0  0  0  0  0  0  0  0  0  0  0  0  # atno 17321 bound_to 7965
  140.6250  143.9187  150.6557 LP  0  0  0  0  0  0  0  0  0  0  0  0  # atno 17342 bound_to 10162
  140.2472  143.3620  152.1436 LP  0  0  0  0  0  0  0  0  0  0  0  0  # atno 17343 bound_to 10162
  157.7406  131.0514  150.5152 LP  0  0  0  0  0  0  0  0  0  0  0  0  # atno 17370 bound_to 10713
  156.5301  130.4182  149.6206 LP  0  0  0  0  0  0  0  0  0  0  0  0  # atno 17371 bound_to 10713
  141.1457  133.6556  156.3862 LP  0  0  0  0  0  0  0  0  0  0  0  0  # atno 17394 bound_to 11000
  140.5150  134.6359  157.5298 LP  0  0  0  0  0  0  0  0  0  0  0  0  # atno 17395 bound_to 11000

$$$$
