AV-unprocessed.smi:528|AV-procd|sdf|2832|dock8
  -GOLD-   2262023323D 1   1.00000     0.00000
 Structure written by MMmdl.
 45 47  0  0  0  0  0  0  0  0  1 V2000
  151.3639  139.3093  155.1349 C   0  0  0  0  0  0  0  0  0  0  0  0
  150.3618  140.3378  155.6874 C   0  0  1  0  0  0  0  0  0  0  0  0
  151.0850  141.4478  156.3044 N   0  0  0  0  0  0  0  0  0  0  0  0
  150.6233  142.2291  157.2929 C   0  0  0  0  0  0  0  0  0  0  0  0
  149.5204  142.0730  157.8189 O   0  0  0  0  0  0  0  0  0  0  0  0
  151.5711  143.3414  157.7636 C   0  0  0  0  0  0  0  0  0  0  0  0
  152.0301  143.1701  159.1523 N   0  0  0  0  0  0  0  0  0  0  0  0
  152.8749  142.0744  159.4189 C   0  0  0  0  0  0  0  0  0  0  0  0
  153.3533  141.7997  160.6476 C   0  0  0  0  0  0  0  0  0  0  0  0
  154.3051  140.6398  160.8952 C   0  0  0  0  0  0  0  0  0  0  0  0
  153.7511  139.4804  160.5400 F   0  0  0  0  0  0  0  0  0  0  0  0
  155.4165  140.8050  160.1798 F   0  0  0  0  0  0  0  0  0  0  0  0
  154.6473  140.5632  162.1819 F   0  0  0  0  0  0  0  0  0  0  0  0
  152.9810  142.7188  161.7052 C   0  0  0  0  0  0  0  0  0  0  0  0
  152.1771  143.7735  161.4666 C   0  0  0  0  0  0  0  0  0  0  0  0
  151.6454  144.0453  160.1293 C   0  0  0  0  0  0  0  0  0  0  0  0
  150.9028  145.0005  159.9007 O   0  0  0  0  0  0  0  0  0  0  0  0
  149.4198  140.8907  154.5918 C   0  0  2  0  0  0  0  0  0  0  0  0
  148.6899  142.2020  154.9651 C   0  0  0  0  0  0  0  0  0  0  0  0
  147.2235  141.8969  154.6078 C   0  0  2  0  0  0  0  0  0  0  0  0
  146.6381  140.9413  155.6632 C   0  0  0  0  0  0  0  0  0  0  0  0
  147.3260  139.6056  155.3272 C   0  0  0  0  0  0  0  0  0  0  0  0
  148.2469  139.9811  154.1474 C   0  0  1  0  0  0  0  0  0  0  0  0
  147.3697  140.9799  153.3988 C   0  0  0  0  0  0  0  0  0  0  0  0
  150.8521  138.4421  154.7178 H   0  0  0  0  0  0  0  0  0  0  0  0
  152.0279  138.9437  155.9187 H   0  0  0  0  0  0  0  0  0  0  0  0
  151.9834  139.7411  154.3483 H   0  0  0  0  0  0  0  0  0  0  0  0
  149.7603  139.8567  156.4593 H   0  0  0  0  0  0  0  0  0  0  0  0
  152.0056  141.6452  155.9393 H   0  0  0  0  0  0  0  0  0  0  0  0
  152.4202  143.3747  157.0798 H   0  0  0  0  0  0  0  0  0  0  0  0
  151.0769  144.3084  157.6505 H   0  0  0  0  0  0  0  0  0  0  0  0
  153.1069  141.4655  158.5570 H   0  0  0  0  0  0  0  0  0  0  0  0
  153.3479  142.5559  162.7079 H   0  0  0  0  0  0  0  0  0  0  0  0
  151.9171  144.4352  162.2799 H   0  0  0  0  0  0  0  0  0  0  0  0
  150.0270  141.0879  153.7060 H   0  0  0  0  0  0  0  0  0  0  0  0
  148.7993  142.4688  156.0171 H   0  0  0  0  0  0  0  0  0  0  0  0
  149.0731  143.0338  154.3728 H   0  0  0  0  0  0  0  0  0  0  0  0
  146.6185  142.7887  154.4427 H   0  0  0  0  0  0  0  0  0  0  0  0
  146.8447  141.2720  156.6818 H   0  0  0  0  0  0  0  0  0  0  0  0
  145.5564  140.8537  155.5529 H   0  0  0  0  0  0  0  0  0  0  0  0
  147.8567  139.1756  156.1756 H   0  0  0  0  0  0  0  0  0  0  0  0
  146.5843  138.8721  155.0086 H   0  0  0  0  0  0  0  0  0  0  0  0
  148.5605  139.1247  153.5500 H   0  0  0  0  0  0  0  0  0  0  0  0
  146.4221  140.5573  153.0592 H   0  0  0  0  0  0  0  0  0  0  0  0
  147.8719  141.4540  152.5537 H   0  0  0  0  0  0  0  0  0  0  0  0
  1  2  1  0  0  0  0
  1 25  1  0  0  0  0
  1 26  1  0  0  0  0
  1 27  1  0  0  0  0
  2  3  1  0  0  0  0
  2 18  1  0  0  0  0
  2 28  1  0  0  0  0
  3  4  1  0  0  0  0
  3 29  1  0  0  0  0
  4  5  2  0  0  0  0
  4  6  1  0  0  0  0
  6  7  1  0  0  0  0
  6 30  1  0  0  0  0
  6 31  1  0  0  0  0
  7 16  1  0  0  0  0
  7  8  1  0  0  0  0
  8  9  2  0  0  0  0
  8 32  1  0  0  0  0
  9 10  1  0  0  0  0
  9 14  1  0  0  0  0
 10 11  1  0  0  0  0
 10 12  1  0  0  0  0
 10 13  1  0  0  0  0
 14 15  2  0  0  0  0
 14 33  1  0  0  0  0
 15 16  1  0  0  0  0
 15 34  1  0  0  0  0
 16 17  2  0  0  0  0
 18 23  1  0  0  0  0
 18 19  1  0  0  0  0
 18 35  1  0  0  0  0
 19 20  1  0  0  0  0
 19 36  1  0  0  0  0
 19 37  1  0  0  0  0
 20 24  1  0  0  0  0
 20 21  1  0  0  0  0
 20 38  1  0  0  0  0
 21 22  1  0  0  0  0
 21 39  1  0  0  0  0
 21 40  1  0  0  0  0
 22 23  1  0  0  0  0
 22 41  1  0  0  0  0
 22 42  1  0  0  0  0
 23 24  1  0  0  0  0
 23 43  1  0  0  0  0
 24 44  1  0  0  0  0
 24 45  1  0  0  0  0
M  END
> <s_m_source_file>
AV-unprocessed.smi

> <i_m_source_file_index>
528

> <i_lp_mmshare_version>
43012

> <i_f3d_flags>
0

> <s_epik_input>
W0NIMl0xW0NIMl1bQ0BASF0oW0NIMl0yKVtDQEBIXShbQ0gyXVtDQEhdMTIpW0NASF0oW0NIM10pW05IXUMoPU8pW0NIMl1uM1tjSF1jKEMoRikoRilGKVtjSF1bY0hdYzM9Tw==

> <s_epik_cmdline>
J2VwaWtfcHl0aG9uJywgJy1waCcsICc3LjAnLCAnLXRuJywgJzgnLCAnLW1hJywgJzIwMCcsICctbWV0YWxfYmluZGluZycsICctaW1hZScsICc8aW5maWxlLm1hZT4nLCAnLW9tYWUnLCAnPG91dGZpbGUubWFlPic=

> <r_lp_tautomer_probability>
1

> <r_epik_Ionization_Penalty>
4.09479e-08

> <r_epik_Ionization_Penalty_Charging>
1.9321e-08

> <r_epik_Ionization_Penalty_Neutral>
2.16269e-08

> <r_epik_State_Penalty>
-0

> <r_epik_Charging_Adjusted_Penalty>
1.9321e-08

> <i_epik_Tot_Q>
0

> <i_epik_Tot_abs_Q>
0

> <r_epik_Metal_State_Penalty>
-0

> <b_epik_Metal_Only>
0

> <s_lp_Force_Field>
OPLS_2005

> <r_lp_Energy>
63.1325

> <b_lp_Chiralities_Consistent>
1

> <s_lp_Variant>
AV-unprocessed.smi:528-2

> <Gold.Version>
5.8.1

> <Gold.Id.Protein>
6NUR|6NUR_protein|mol2

> <Gold.PLP.Fitness>
51.6673

> <Gold.PLP.PLP>
-53.1152

> <Gold.PLP.part.hbond>
0.0000

> <Gold.PLP.part.metal>
0.0000

> <Gold.PLP.part.buried>
0.0334

> <Gold.PLP.part.nonpolar>
-53.2028

> <Gold.PLP.part.repulsive>
0.3970

> <Gold.PLP.ligand.clash>
0.0000

> <Gold.PLP.ligand.torsion>
0.7757

> <Gold.PLP.Chemscore.Hbond>
0.0000

> <Gold.PLP.Chemscore.CHOScore>
0.0000

> <Gold.PLP.Chemscore.Metal>
0.0000

> <Gold.PLP.Chemscore.Internal.Correction>
0.1035

> <Gold.Rescore>
     Score         DG    S(hbond)    S(metal)    S(lipo)     H(rot)  DE(clash)    DE(int)     intcor
     13.50     -15.00       0.00        0.00     118.87       1.71       0.63       0.88       ----

> <Gold.Chemscore.Fitness>
13.4951

> <Gold.Chemscore.DG>
-15.0039

> <Gold.Chemscore.ZeroCoef>
-5.4800

> <Gold.Chemscore.Hbond>
0.0000

> <Gold.Chemscore.Metal>
0.0000

> <Gold.Chemscore.Lipo>
118.8703

> <Gold.Chemscore.Internal_Hbond>
0.0000

> <Gold.Chemscore.DEClash>
0.6337

> <Gold.Chemscore.DEInternal>
0.8751

> <Gold.Chemscore.Rot>
1.7125

> <Gold.Chemscore.Internal.Correction>
   9.000000E+99

> <Gold.Chemscore.Hbond.Weighted>
-0.0000

> <Gold.Chemscore.Metal.Weighted>
-0.0000

> <Gold.Chemscore.Lipo.Weighted>
-13.9078

> <Gold.Chemscore.Internal_Hbond.Weighted>
0.0000

> <Gold.Chemscore.DEClash.Weighted>
0.6337

> <Gold.Chemscore.DEInternal.Weighted>
0.8751

> <Gold.Chemscore.Rot.Weighted>
4.3840

> <Gold.Chemscore.Internal.Correction.Weighted>
   9.000000E+99

> <Gold.Protein.RotatedTorsions>
[ 6907 6896 6895 6894 ] final    6.06 input  -60.11 | X-H torsion
[ 7974 7965 7964 7962 ] final   69.85 input  175.53 | X-H torsion
[ 8008 7997 7996 7995 ] final   67.75 input   59.86 | X-H torsion
[ 10167 10162 10161 10158 ] final  -40.09 input  -65.29 | X-H torsion
[ 10718 10713 10712 10709 ] final  -29.30 input   66.30 | X-H torsion
[ 10763 10752 10751 10750 ] final  138.10 input  -60.55 | X-H torsion
[ 11005 11000 10999 10996 ] final   95.06 input  -57.11 | X-H torsion

> <Gold.Protein.ActiveResidues>
 VAL166  LYS551  ARG553  GLY616  TRP617  ASP618  TYR619  PRO620  LYS621  CYS622 
 ASP623  PHE694  ASN695  SER759  ASP760  ASP761  ALA762  ILE779  LEU786  VAL792 
 PHE793  MET794  SER795  GLU796  ALA797  LYS798  CYS799  TRP800  GLU811  SER814 

> <Gold.Protein.RotatedAtoms>
  151.6675  135.0981  160.0191 H   0  0  0  0  0  0  0  0  0  0  0  0  # atno 6907 bound_to 6896
  152.3911  133.6676  159.6246 H   0  0  0  0  0  0  0  0  0  0  0  0  # atno 6908 bound_to 6896
  150.7826  133.8870  159.3343 H   0  0  0  0  0  0  0  0  0  0  0  0  # atno 6909 bound_to 6896
  145.7854  139.2908  143.1241 H   0  0  0  0  0  0  0  0  0  0  0  0  # atno 7974 bound_to 7965
  155.6977  140.3495  155.4920 H   0  0  0  0  0  0  0  0  0  0  0  0  # atno 8008 bound_to 7997
  155.9468  140.1112  157.1032 H   0  0  0  0  0  0  0  0  0  0  0  0  # atno 8009 bound_to 7997
  154.4113  140.1202  156.4986 H   0  0  0  0  0  0  0  0  0  0  0  0  # atno 8010 bound_to 7997
  140.7045  143.3174  151.2875 H   0  0  0  0  0  0  0  0  0  0  0  0  # atno 10167 bound_to 10162
  156.4142  130.4414  149.7230 H   0  0  0  0  0  0  0  0  0  0  0  0  # atno 10718 bound_to 10713
  153.8841  135.3041  155.3446 H   0  0  0  0  0  0  0  0  0  0  0  0  # atno 10763 bound_to 10752
  154.7748  135.4867  153.9724 H   0  0  0  0  0  0  0  0  0  0  0  0  # atno 10764 bound_to 10752
  153.1335  135.6809  153.9238 H   0  0  0  0  0  0  0  0  0  0  0  0  # atno 10765 bound_to 10752
  139.8792  134.8879  156.3956 H   0  0  0  0  0  0  0  0  0  0  0  0  # atno 11005 bound_to 11000
  146.0032  140.8502  143.0008 LP  0  0  0  0  0  0  0  0  0  0  0  0  # atno 17320 bound_to 7965
  144.6790  140.2382  143.7347 LP  0  0  0  0  0  0  0  0  0  0  0  0  # atno 17321 bound_to 7965
  139.6618  144.0176  152.2697 LP  0  0  0  0  0  0  0  0  0  0  0  0  # atno 17342 bound_to 10162
  139.9746  144.6470  150.7957 LP  0  0  0  0  0  0  0  0  0  0  0  0  # atno 17343 bound_to 10162
  156.4196  130.7762  151.2779 LP  0  0  0  0  0  0  0  0  0  0  0  0  # atno 17370 bound_to 10713
  157.7507  131.0187  150.3635 LP  0  0  0  0  0  0  0  0  0  0  0  0  # atno 17371 bound_to 10713
  140.9302  133.7584  156.0016 LP  0  0  0  0  0  0  0  0  0  0  0  0  # atno 17394 bound_to 11000
  140.8339  134.3146  157.5339 LP  0  0  0  0  0  0  0  0  0  0  0  0  # atno 17395 bound_to 11000

$$$$
