AV-unprocessed.smi:2839|AV-procd|sdf|10930|dock10
  -GOLD-   2272015373D 1   1.00000     0.00000
 Structure written by MMmdl.
 32 33  0  0  0  0  0  0  0  0  1 V2000
  150.2383  141.7491  153.4242 C   0  0  0  0  0  0  0  0  0  0  0  0
  150.3601  141.4717  154.8495 N   0  0  0  0  0  0  0  0  0  0  0  0
  150.0402  142.3835  155.8291 C   0  0  0  0  0  0  0  0  0  0  0  0
  150.2462  141.9100  157.0101 N   0  0  0  0  0  0  0  0  0  0  0  0
  150.7111  140.6573  156.7587 N   0  0  0  0  0  0  0  0  0  0  0  0
  151.0498  139.7786  157.8796 C   0  0  0  0  0  0  0  0  0  0  0  0
  152.1678  140.3352  158.7718 C   0  0  0  0  0  0  0  0  0  0  0  0
  153.1223  139.6315  159.1058 O   0  0  0  0  0  0  0  0  0  0  0  0
  152.0237  141.6101  159.1636 N   0  0  0  0  0  0  0  0  0  0  0  0
  152.9626  142.3395  160.0121 C   0  0  0  0  0  0  0  0  0  0  0  0
  152.3160  142.6960  161.3647 C   0  0  0  0  0  0  0  0  0  0  0  0
  152.5982  144.1823  161.5920 C   0  0  0  0  0  0  0  0  0  0  0  0
  152.6878  144.7692  160.1872 C   0  0  0  0  0  0  0  0  0  0  0  0
  153.3802  143.6781  159.3707 C   0  0  0  0  0  0  0  0  0  0  0  0
  150.7972  140.3713  155.4517 C   0  0  0  0  0  0  0  0  0  0  0  0
  151.1917  139.3293  154.9288 O   0  0  0  0  0  0  0  0  0  0  0  0
  149.5417  142.5659  153.2293 H   0  0  0  0  0  0  0  0  0  0  0  0
  149.8765  140.8692  152.8906 H   0  0  0  0  0  0  0  0  0  0  0  0
  151.2094  142.0224  153.0102 H   0  0  0  0  0  0  0  0  0  0  0  0
  149.6638  143.3691  155.5499 H   0  0  0  0  0  0  0  0  0  0  0  0
  150.1553  139.6128  158.4823 H   0  0  0  0  0  0  0  0  0  0  0  0
  151.3574  138.8003  157.5072 H   0  0  0  0  0  0  0  0  0  0  0  0
  151.2083  142.1145  158.8475 H   0  0  0  0  0  0  0  0  0  0  0  0
  153.8496  141.7271  160.1853 H   0  0  0  0  0  0  0  0  0  0  0  0
  151.2363  142.5425  161.3287 H   0  0  0  0  0  0  0  0  0  0  0  0
  152.6999  142.0806  162.1789 H   0  0  0  0  0  0  0  0  0  0  0  0
  151.8355  144.6667  162.2023 H   0  0  0  0  0  0  0  0  0  0  0  0
  153.5562  144.3016  162.0996 H   0  0  0  0  0  0  0  0  0  0  0  0
  151.6841  144.9405  159.7954 H   0  0  0  0  0  0  0  0  0  0  0  0
  153.2242  145.7180  160.1605 H   0  0  0  0  0  0  0  0  0  0  0  0
  154.4609  143.7949  159.4594 H   0  0  0  0  0  0  0  0  0  0  0  0
  153.1386  143.7480  158.3090 H   0  0  0  0  0  0  0  0  0  0  0  0
  1  2  1  0  0  0  0
  1 17  1  0  0  0  0
  1 18  1  0  0  0  0
  1 19  1  0  0  0  0
  2 15  1  0  0  0  0
  2  3  1  0  0  0  0
  3  4  2  0  0  0  0
  3 20  1  0  0  0  0
  4  5  1  0  0  0  0
  5  6  1  0  0  0  0
  5 15  1  0  0  0  0
  6  7  1  0  0  0  0
  6 21  1  0  0  0  0
  6 22  1  0  0  0  0
  7  8  2  0  0  0  0
  7  9  1  0  0  0  0
  9 10  1  0  0  0  0
  9 23  1  0  0  0  0
 10 14  1  0  0  0  0
 10 11  1  0  0  0  0
 10 24  1  0  0  0  0
 11 12  1  0  0  0  0
 11 25  1  0  0  0  0
 11 26  1  0  0  0  0
 12 13  1  0  0  0  0
 12 27  1  0  0  0  0
 12 28  1  0  0  0  0
 13 14  1  0  0  0  0
 13 29  1  0  0  0  0
 13 30  1  0  0  0  0
 14 31  1  0  0  0  0
 14 32  1  0  0  0  0
 15 16  2  0  0  0  0
M  END
> <s_m_source_file>
AV-unprocessed.smi

> <i_m_source_file_index>
2839

> <i_lp_mmshare_version>
43012

> <i_f3d_flags>
0

> <s_epik_input>
W0NIM11uMVtjSF1ubihjMT1PKVtDSDJdQyg9TylbTkhdW0NIXTJbQ0gyXVtDSDJdW0NIMl1bQ0gyXTI=

> <s_epik_cmdline>
J2VwaWtfcHl0aG9uJywgJy1waCcsICc3LjAnLCAnLXRuJywgJzgnLCAnLW1hJywgJzIwMCcsICctbWV0YWxfYmluZGluZycsICctaW1hZScsICc8aW5maWxlLm1hZT4nLCAnLW9tYWUnLCAnPG91dGZpbGUubWFlPic=

> <r_lp_tautomer_probability>
1

> <r_epik_Ionization_Penalty>
1.58668e-07

> <r_epik_Ionization_Penalty_Charging>
8.23952e-09

> <r_epik_Ionization_Penalty_Neutral>
1.50429e-07

> <r_epik_State_Penalty>
-0

> <r_epik_Charging_Adjusted_Penalty>
8.23952e-09

> <i_epik_Tot_Q>
0

> <i_epik_Tot_abs_Q>
0

> <r_epik_Metal_State_Penalty>
-0

> <b_epik_Metal_Only>
0

> <s_lp_Force_Field>
OPLS_2005

> <r_lp_Energy>
35.3478

> <b_lp_Chiralities_Consistent>
1

> <s_lp_Variant>
AV-unprocessed.smi:2839-1

> <Gold.Version>
5.8.1

> <Gold.Id.Protein>
6NUR|6NUR_protein|mol2

> <Gold.PLP.Fitness>
42.3155

> <Gold.PLP.PLP>
-34.0670

> <Gold.PLP.part.hbond>
-2.0000

> <Gold.PLP.part.metal>
0.0000

> <Gold.PLP.part.buried>
-0.9818

> <Gold.PLP.part.nonpolar>
-31.1852

> <Gold.PLP.part.repulsive>
0.2044

> <Gold.PLP.ligand.clash>
0.0000

> <Gold.PLP.ligand.torsion>
0.1631

> <Gold.PLP.Chemscore.Hbond>
1.9913

> <Gold.PLP.Chemscore.CHOScore>
0.8657

> <Gold.PLP.Chemscore.Metal>
0.0000

> <Gold.PLP.Chemscore.Internal.Correction>
0.0038

> <Gold.Rescore>
     Score         DG    S(hbond)    S(metal)    S(lipo)     H(rot)  DE(clash)    DE(int)     intcor
     15.63     -15.99       1.97        0.00      71.17       1.72       0.00       0.35       ----

> <Gold.Chemscore.Fitness>
15.6319

> <Gold.Chemscore.DG>
-15.9891

> <Gold.Chemscore.ZeroCoef>
-5.4800

> <Gold.Chemscore.Hbond>
1.9718

> <Gold.Chemscore.Metal>
0.0000

> <Gold.Chemscore.Lipo>
71.1679

> <Gold.Chemscore.Internal_Hbond>
0.0000

> <Gold.Chemscore.DEClash>
0.0048

> <Gold.Chemscore.DEInternal>
0.3525

> <Gold.Chemscore.Rot>
1.7201

> <Gold.Chemscore.Internal.Correction>
   9.000000E+99

> <Gold.Chemscore.Hbond.Weighted>
-6.5858

> <Gold.Chemscore.Metal.Weighted>
-0.0000

> <Gold.Chemscore.Lipo.Weighted>
-8.3267

> <Gold.Chemscore.Internal_Hbond.Weighted>
0.0000

> <Gold.Chemscore.DEClash.Weighted>
0.0048

> <Gold.Chemscore.DEInternal.Weighted>
0.3525

> <Gold.Chemscore.Rot.Weighted>
4.4033

> <Gold.Chemscore.Internal.Correction.Weighted>
   9.000000E+99

> <Gold.Protein.RotatedTorsions>
[ 6907 6896 6895 6894 ] final -149.79 input  -60.11 | X-H torsion
[ 7974 7965 7964 7962 ] final  174.32 input  175.53 | X-H torsion
[ 8008 7997 7996 7995 ] final  128.73 input   59.86 | X-H torsion
[ 10167 10162 10161 10158 ] final  -65.38 input  -65.29 | X-H torsion
[ 10718 10713 10712 10709 ] final  -49.07 input   66.30 | X-H torsion
[ 10763 10752 10751 10750 ] final -119.95 input  -60.55 | X-H torsion
[ 11005 11000 10999 10996 ] final   55.55 input  -57.11 | X-H torsion

> <Gold.Protein.ActiveResidues>
 VAL166  LYS551  ARG553  GLY616  TRP617  ASP618  TYR619  PRO620  LYS621  CYS622 
 ASP623  PHE694  ASN695  SER759  ASP760  ASP761  ALA762  ILE779  LEU786  VAL792 
 PHE793  MET794  SER795  GLU796  ALA797  LYS798  CYS799  TRP800  GLU811  SER814 

> <Gold.Protein.RotatedAtoms>
  151.1892  133.4678  159.2594 H   0  0  0  0  0  0  0  0  0  0  0  0  # atno 6907 bound_to 6896
  151.1181  135.0064  159.8536 H   0  0  0  0  0  0  0  0  0  0  0  0  # atno 6908 bound_to 6896
  152.5454  134.1805  159.8686 H   0  0  0  0  0  0  0  0  0  0  0  0  # atno 6909 bound_to 6896
  144.7224  139.9779  143.6438 H   0  0  0  0  0  0  0  0  0  0  0  0  # atno 7974 bound_to 7965
  156.2921  140.2638  156.2483 H   0  0  0  0  0  0  0  0  0  0  0  0  # atno 8008 bound_to 7997
  154.9908  140.0388  157.2337 H   0  0  0  0  0  0  0  0  0  0  0  0  # atno 8009 bound_to 7997
  154.7687  140.2774  155.6160 H   0  0  0  0  0  0  0  0  0  0  0  0  # atno 8010 bound_to 7997
  140.5733  143.2319  151.6493 H   0  0  0  0  0  0  0  0  0  0  0  0  # atno 10167 bound_to 10162
  156.1927  130.4153  149.9348 H   0  0  0  0  0  0  0  0  0  0  0  0  # atno 10718 bound_to 10713
  154.8631  135.4220  154.2381 H   0  0  0  0  0  0  0  0  0  0  0  0  # atno 10763 bound_to 10752
  153.3352  135.6990  153.6919 H   0  0  0  0  0  0  0  0  0  0  0  0  # atno 10764 bound_to 10752
  153.5920  135.3553  155.2887 H   0  0  0  0  0  0  0  0  0  0  0  0  # atno 10765 bound_to 10752
  140.0598  134.5618  155.9165 H   0  0  0  0  0  0  0  0  0  0  0  0  # atno 11005 bound_to 11000
  146.0511  139.3512  143.0639 LP  0  0  0  0  0  0  0  0  0  0  0  0  # atno 17320 bound_to 7965
  145.8214  140.9677  143.0897 LP  0  0  0  0  0  0  0  0  0  0  0  0  # atno 17321 bound_to 7965
  139.5129  144.3460  152.0696 LP  0  0  0  0  0  0  0  0  0  0  0  0  # atno 17342 bound_to 10162
  140.2600  144.4077  150.6189 LP  0  0  0  0  0  0  0  0  0  0  0  0  # atno 17343 bound_to 10162
  156.7083  130.8960  151.3607 LP  0  0  0  0  0  0  0  0  0  0  0  0  # atno 17370 bound_to 10713
  157.6939  130.9262  150.0590 LP  0  0  0  0  0  0  0  0  0  0  0  0  # atno 17371 bound_to 10713
  141.1968  133.6593  156.5710 LP  0  0  0  0  0  0  0  0  0  0  0  0  # atno 17394 bound_to 11000
  140.3788  134.7542  157.4647 LP  0  0  0  0  0  0  0  0  0  0  0  0  # atno 17395 bound_to 11000

$$$$
