AV-unprocessed.smi:3039|AV-procd|sdf|11594|dock3
  -GOLD-   2272016573D 1   1.00000     0.00000
 Structure written by MMmdl.
 38 39  0  0  0  0  0  0  0  0  1 V2000
  147.5901  141.5062  158.7204 O   0  0  0  0  0  0  0  0  0  0  0  0
  147.8001  142.3125  157.8144 C   0  0  0  0  0  0  0  0  0  0  0  0
  146.7180  142.5867  156.7700 C   0  0  0  0  0  0  0  0  0  0  0  0
  146.9807  141.7761  155.5298 C   0  0  0  0  0  0  0  0  0  0  0  0
  147.2314  142.2405  154.2083 C   0  0  0  0  0  0  0  0  0  0  0  0
  147.3939  141.0906  153.4912 C   0  0  0  0  0  0  0  0  0  0  0  0
  147.2616  140.0061  154.2957 O   0  0  0  0  0  0  0  0  0  0  0  0
  146.9998  140.4534  155.5958 N   0  0  0  0  0  0  0  0  0  0  0  0
  148.9522  142.9879  157.6737 N   0  0  0  0  0  0  0  0  0  0  0  0
  150.1129  142.8927  158.5598 C   0  0  1  0  0  0  0  0  0  0  0  0
  151.1983  142.0201  157.8847 C   0  0  0  0  0  0  0  0  0  0  0  0
  152.0975  141.2794  158.8917 C   0  0  0  0  0  0  0  0  0  0  0  0
  153.1409  142.1526  159.6008 C   0  0  0  0  0  0  0  0  0  0  0  0
  152.5572  143.3611  160.3474 C   0  0  0  0  0  0  0  0  0  0  0  0
  152.0445  144.4494  159.3904 C   0  0  0  0  0  0  0  0  0  0  0  0
  150.5623  144.3290  158.9652 C   0  0  2  0  0  0  0  0  0  0  0  0
  149.6479  144.9379  160.0577 C   0  0  0  0  0  0  0  0  0  0  0  0
  148.2788  144.8483  159.7211 O   0  0  0  0  0  0  0  0  0  0  0  0
  145.7431  142.3330  157.1877 H   0  0  0  0  0  0  0  0  0  0  0  0
  146.6887  143.6538  156.5444 H   0  0  0  0  0  0  0  0  0  0  0  0
  147.2788  143.2565  153.8456 H   0  0  0  0  0  0  0  0  0  0  0  0
  147.5996  140.8877  152.4504 H   0  0  0  0  0  0  0  0  0  0  0  0
  149.0296  143.6282  156.8965 H   0  0  0  0  0  0  0  0  0  0  0  0
  149.7970  142.3783  159.4691 H   0  0  0  0  0  0  0  0  0  0  0  0
  150.7119  141.2507  157.2831 H   0  0  0  0  0  0  0  0  0  0  0  0
  151.7915  142.6042  157.1802 H   0  0  0  0  0  0  0  0  0  0  0  0
  151.4783  140.7726  159.6328 H   0  0  0  0  0  0  0  0  0  0  0  0
  152.6271  140.4859  158.3636 H   0  0  0  0  0  0  0  0  0  0  0  0
  153.6820  141.5288  160.3133 H   0  0  0  0  0  0  0  0  0  0  0  0
  153.8870  142.4903  158.8805 H   0  0  0  0  0  0  0  0  0  0  0  0
  151.7825  143.0533  161.0504 H   0  0  0  0  0  0  0  0  0  0  0  0
  153.3554  143.7913  160.9533 H   0  0  0  0  0  0  0  0  0  0  0  0
  152.2023  145.4243  159.8530 H   0  0  0  0  0  0  0  0  0  0  0  0
  152.6754  144.4719  158.5009 H   0  0  0  0  0  0  0  0  0  0  0  0
  150.4741  144.9692  158.0852 H   0  0  0  0  0  0  0  0  0  0  0  0
  149.8146  144.4518  161.0192 H   0  0  0  0  0  0  0  0  0  0  0  0
  149.8685  145.9963  160.1987 H   0  0  0  0  0  0  0  0  0  0  0  0
  148.1081  145.4351  159.0000 H   0  0  0  0  0  0  0  0  0  0  0  0
  1  2  2  0  0  0  0
  2  3  1  0  0  0  0
  2  9  1  0  0  0  0
  3  4  1  0  0  0  0
  3 19  1  0  0  0  0
  3 20  1  0  0  0  0
  4  8  2  0  0  0  0
  4  5  1  0  0  0  0
  5  6  2  0  0  0  0
  5 21  1  0  0  0  0
  6  7  1  0  0  0  0
  6 22  1  0  0  0  0
  7  8  1  0  0  0  0
  9 10  1  0  0  0  0
  9 23  1  0  0  0  0
 10 16  1  0  0  0  0
 10 11  1  0  0  0  0
 10 24  1  0  0  0  0
 11 12  1  0  0  0  0
 11 25  1  0  0  0  0
 11 26  1  0  0  0  0
 12 13  1  0  0  0  0
 12 27  1  0  0  0  0
 12 28  1  0  0  0  0
 13 14  1  0  0  0  0
 13 29  1  0  0  0  0
 13 30  1  0  0  0  0
 14 15  1  0  0  0  0
 14 31  1  0  0  0  0
 14 32  1  0  0  0  0
 15 16  1  0  0  0  0
 15 33  1  0  0  0  0
 15 34  1  0  0  0  0
 16 17  1  0  0  0  0
 16 35  1  0  0  0  0
 17 18  1  0  0  0  0
 17 36  1  0  0  0  0
 17 37  1  0  0  0  0
 18 38  1  0  0  0  0
M  END
> <s_m_source_file>
AV-unprocessed.smi

> <i_m_source_file_index>
3039

> <i_lp_mmshare_version>
43012

> <i_f3d_flags>
0

> <s_epik_input>
bjFvW2NIXVtjSF1jMVtDSDJdQyg9TylbTkhdW0NAQEhdMltDSDJdW0NIMl1bQ0gyXVtDSDJdW0NIMl1bQ0BIXTJbQ0gyXVtPSF0=

> <s_epik_cmdline>
J2VwaWtfcHl0aG9uJywgJy1waCcsICc3LjAnLCAnLXRuJywgJzgnLCAnLW1hJywgJzIwMCcsICctbWV0YWxfYmluZGluZycsICctaW1hZScsICc8aW5maWxlLm1hZT4nLCAnLW9tYWUnLCAnPG91dGZpbGUubWFlPic=

> <r_lp_tautomer_probability>
1

> <r_epik_Ionization_Penalty>
3.05817e-07

> <r_epik_Ionization_Penalty_Charging>
0

> <r_epik_Ionization_Penalty_Neutral>
3.05817e-07

> <r_epik_State_Penalty>
-0

> <r_epik_Charging_Adjusted_Penalty>
0

> <i_epik_Tot_Q>
0

> <i_epik_Tot_abs_Q>
0

> <r_epik_Metal_State_Penalty>
-0

> <b_epik_Metal_Only>
0

> <s_lp_Force_Field>
OPLS_2005

> <r_lp_Energy>
18.8226

> <b_lp_Chiralities_Consistent>
1

> <s_lp_Variant>
AV-unprocessed.smi:3039-4

> <Gold.Version>
5.8.1

> <Gold.Id.Protein>
6NUR|6NUR_protein|mol2

> <Gold.PLP.Fitness>
43.5579

> <Gold.PLP.PLP>
-35.0181

> <Gold.PLP.part.hbond>
-3.6308

> <Gold.PLP.part.metal>
0.0000

> <Gold.PLP.part.buried>
-4.1439

> <Gold.PLP.part.nonpolar>
-27.6485

> <Gold.PLP.part.repulsive>
0.2339

> <Gold.PLP.ligand.clash>
0.0000

> <Gold.PLP.ligand.torsion>
0.4943

> <Gold.PLP.Chemscore.Hbond>
2.1599

> <Gold.PLP.Chemscore.CHOScore>
1.0000

> <Gold.PLP.Chemscore.Metal>
0.0000

> <Gold.Chemscore.Hbonds>
donor molecule, donor type, donor heavy atom, donor atom, acceptor molecule, acceptor atom, score
      L1  H     9    23       P1  8028  1.00
      L1  H    18    38       P1  8029  1.00
      P1  H  6934  6946       L1     1  0.15
      L1  C     6    22       P1  7957  1.00

> <Gold.PLP.Chemscore.Internal.Correction>
0.0488

> <Gold.Rescore>
     Score         DG    S(hbond)    S(metal)    S(lipo)     H(rot)  DE(clash)    DE(int)     intcor
     16.36     -18.07       2.11        0.00      96.71       2.26       0.05       1.66       ----

> <Gold.Chemscore.Fitness>
16.3625

> <Gold.Chemscore.DG>
-18.0672

> <Gold.Chemscore.ZeroCoef>
-5.4800

> <Gold.Chemscore.Hbond>
2.1142

> <Gold.Chemscore.Metal>
0.0000

> <Gold.Chemscore.Lipo>
96.7131

> <Gold.Chemscore.Internal_Hbond>
0.0000

> <Gold.Chemscore.DEClash>
0.0485

> <Gold.Chemscore.DEInternal>
1.6562

> <Gold.Chemscore.Rot>
2.2616

> <Gold.Chemscore.Internal.Correction>
   9.000000E+99

> <Gold.Chemscore.Hbonds>
donor molecule, donor type, donor heavy atom, donor atom, acceptor molecule, acceptor atom, score
      L1  H     9    23       P1  8028  0.65
      L1  H    18    38       P1  8029  0.99
      P1  H  6934  6946       L1     1  0.14

> <Gold.Chemscore.Hbond.Weighted>
-7.0614

> <Gold.Chemscore.Metal.Weighted>
-0.0000

> <Gold.Chemscore.Lipo.Weighted>
-11.3154

> <Gold.Chemscore.Internal_Hbond.Weighted>
0.0000

> <Gold.Chemscore.DEClash.Weighted>
0.0485

> <Gold.Chemscore.DEInternal.Weighted>
1.6562

> <Gold.Chemscore.Rot.Weighted>
5.7896

> <Gold.Chemscore.Internal.Correction.Weighted>
   9.000000E+99

> <Gold.Protein.RotatedTorsions>
[ 6907 6896 6895 6894 ] final   43.67 input  -60.11 | X-H torsion
[ 7974 7965 7964 7962 ] final -150.96 input  175.53 | X-H torsion
[ 8008 7997 7996 7995 ] final    0.44 input   59.86 | X-H torsion
[ 10167 10162 10161 10158 ] final -174.58 input  -65.29 | X-H torsion
[ 10718 10713 10712 10709 ] final  132.34 input   66.30 | X-H torsion
[ 10763 10752 10751 10750 ] final  -56.44 input  -60.55 | X-H torsion
[ 11005 11000 10999 10996 ] final -130.20 input  -57.11 | X-H torsion

> <Gold.Protein.ActiveResidues>
 VAL166  LYS551  ARG553  GLY616  TRP617  ASP618  TYR619  PRO620  LYS621  CYS622 
 ASP623  PHE694  ASN695  SER759  ASP760  ASP761  ALA762  ILE779  LEU786  VAL792 
 PHE793  MET794  SER795  GLU796  ALA797  LYS798  CYS799  TRP800  GLU811  SER814 

> <Gold.Protein.RotatedAtoms>
  152.2231  134.8394  160.0483 H   0  0  0  0  0  0  0  0  0  0  0  0  # atno 6907 bound_to 6896
  151.9170  133.3570  159.3891 H   0  0  0  0  0  0  0  0  0  0  0  0  # atno 6908 bound_to 6896
  150.7005  134.4599  159.5420 H   0  0  0  0  0  0  0  0  0  0  0  0  # atno 6909 bound_to 6896
  144.7877  140.4862  143.5794 H   0  0  0  0  0  0  0  0  0  0  0  0  # atno 7974 bound_to 7965
  154.6681  140.2606  155.7036 H   0  0  0  0  0  0  0  0  0  0  0  0  # atno 8008 bound_to 7997
  156.2647  140.2835  156.1102 H   0  0  0  0  0  0  0  0  0  0  0  0  # atno 8009 bound_to 7997
  155.1208  140.0377  157.2739 H   0  0  0  0  0  0  0  0  0  0  0  0  # atno 8010 bound_to 7997
  139.5626  144.1833  152.1263 H   0  0  0  0  0  0  0  0  0  0  0  0  # atno 10167 bound_to 10162
  157.4880  131.1089  150.9594 H   0  0  0  0  0  0  0  0  0  0  0  0  # atno 10718 bound_to 10713
  154.2067  135.6401  153.5103 H   0  0  0  0  0  0  0  0  0  0  0  0  # atno 10763 bound_to 10752
  152.9999  135.5464  154.6258 H   0  0  0  0  0  0  0  0  0  0  0  0  # atno 10764 bound_to 10752
  154.5684  135.2915  155.0824 H   0  0  0  0  0  0  0  0  0  0  0  0  # atno 10765 bound_to 10752
  140.9366  134.1249  157.4188 H   0  0  0  0  0  0  0  0  0  0  0  0  # atno 11005 bound_to 11000
  145.5877  139.1493  143.3200 LP  0  0  0  0  0  0  0  0  0  0  0  0  # atno 17320 bound_to 7965
  146.2116  140.6004  142.9057 LP  0  0  0  0  0  0  0  0  0  0  0  0  # atno 17321 bound_to 7965
  140.1349  144.5255  150.6779 LP  0  0  0  0  0  0  0  0  0  0  0  0  # atno 17342 bound_to 10162
  140.6907  143.2374  151.5138 LP  0  0  0  0  0  0  0  0  0  0  0  0  # atno 17343 bound_to 10162
  157.0305  130.5709  149.5342 LP  0  0  0  0  0  0  0  0  0  0  0  0  # atno 17370 bound_to 10713
  156.0157  130.5251  150.8128 LP  0  0  0  0  0  0  0  0  0  0  0  0  # atno 17371 bound_to 10713
  139.8809  135.0023  156.6117 LP  0  0  0  0  0  0  0  0  0  0  0  0  # atno 17394 bound_to 11000
  140.7791  133.8675  155.8553 LP  0  0  0  0  0  0  0  0  0  0  0  0  # atno 17395 bound_to 11000

$$$$
