AV-unprocessed.smi:101|AV-procd|sdf|938|dock2
  -GOLD-   2262017453D 1   1.00000     0.00000
 Structure written by MMmdl.
 43 45  0  0  0  0  0  0  0  0  2 V2000
  146.1352  137.8681  153.8835 C   0  0  0  0  0  0  0  0  0  0  0  0
  147.1658  138.7880  154.5144 C   0  0  0  0  0  0  0  0  0  0  0  0
  148.4862  138.4991  154.5147 C   0  0  0  0  0  0  0  0  0  0  0  0
  149.4205  139.3412  155.0924 N   0  0  0  0  0  0  0  0  0  0  0  0
  150.8937  139.0061  155.0639 C   0  0  1  0  0  0  0  0  0  0  0  0
  151.4756  139.4094  156.2682 O   0  0  0  0  0  0  0  0  0  0  0  0
  152.3465  138.3921  156.7435 C   0  0  1  0  0  0  0  0  0  0  0  0
  152.5600  138.5091  158.2593 C   0  0  0  0  0  0  0  0  0  0  0  0
  152.4511  139.8696  158.6440 O   0  0  0  0  0  0  0  0  0  0  0  0
  153.0802  140.3088  159.7512 C   0  0  0  0  0  0  0  0  0  0  0  0
  154.0041  139.7016  160.2966 O   0  0  0  0  0  0  0  0  0  0  0  0
  152.5448  141.6101  160.2459 C   0  0  0  0  0  0  0  0  0  0  0  0
  151.8456  142.4560  159.3534 C   0  0  0  0  0  0  0  0  0  0  0  0
  151.3267  143.6897  159.7920 C   0  0  0  0  0  0  0  0  0  0  0  0
  151.5006  144.0927  161.1288 C   0  0  0  0  0  0  0  0  0  0  0  0
  152.1962  143.2615  162.0261 C   0  0  0  0  0  0  0  0  0  0  0  0
  152.7165  142.0276  161.5891 C   0  0  0  0  0  0  0  0  0  0  0  0
  151.6882  137.0928  156.2659 C   0  0  1  0  0  0  0  0  0  0  0  0
  150.6666  136.6789  157.1554 O   0  0  0  0  0  0  0  0  0  0  0  0
  151.0944  137.4865  154.9198 C   0  0  2  0  0  0  0  0  0  0  0  0
  152.0014  137.1914  153.8770 O   0  0  0  0  0  0  0  0  0  0  0  0
  148.9994  140.5646  155.6739 C   0  0  0  0  0  0  0  0  0  0  0  0
  149.8614  141.3125  156.1370 O   0  0  0  0  0  0  0  0  0  0  0  0
  147.6687  140.8607  155.6857 N   0  5  0  0  0  0  0  0  0  0  0  0
  146.7243  140.0387  155.1436 C   0  0  0  0  0  0  0  0  0  0  0  0
  145.5254  140.3163  155.1660 O   0  0  0  0  0  0  0  0  0  0  0  0
  146.6038  136.9785  153.4617 H   0  0  0  0  0  0  0  0  0  0  0  0
  145.6040  138.3832  153.0825 H   0  0  0  0  0  0  0  0  0  0  0  0
  145.4073  137.5454  154.6284 H   0  0  0  0  0  0  0  0  0  0  0  0
  148.8151  137.5853  154.0426 H   0  0  0  0  0  0  0  0  0  0  0  0
  151.3260  139.5939  154.2522 H   0  0  0  0  0  0  0  0  0  0  0  0
  153.3026  138.4992  156.2277 H   0  0  0  0  0  0  0  0  0  0  0  0
  151.8341  137.8994  158.7996 H   0  0  0  0  0  0  0  0  0  0  0  0
  153.5559  138.1482  158.5202 H   0  0  0  0  0  0  0  0  0  0  0  0
  151.6985  142.1676  158.3225 H   0  0  0  0  0  0  0  0  0  0  0  0
  150.7942  144.3267  159.1014 H   0  0  0  0  0  0  0  0  0  0  0  0
  151.1016  145.0381  161.4655 H   0  0  0  0  0  0  0  0  0  0  0  0
  152.3317  143.5699  163.0522 H   0  0  0  0  0  0  0  0  0  0  0  0
  153.2468  141.4147  162.3035 H   0  0  0  0  0  0  0  0  0  0  0  0
  152.4099  136.2787  156.1842 H   0  0  0  0  0  0  0  0  0  0  0  0
  151.0686  136.3674  157.9515 H   0  0  0  0  0  0  0  0  0  0  0  0
  150.1525  136.9751  154.7130 H   0  0  0  0  0  0  0  0  0  0  0  0
  151.5007  136.9435  153.1141 H   0  0  0  0  0  0  0  0  0  0  0  0
  1  2  1  0  0  0  0
  1 27  1  0  0  0  0
  1 28  1  0  0  0  0
  1 29  1  0  0  0  0
  2 25  1  0  0  0  0
  2  3  2  0  0  0  0
  3  4  1  0  0  0  0
  3 30  1  0  0  0  0
  4  5  1  0  0  0  0
  4 22  1  0  0  0  0
  5 20  1  0  0  0  0
  5  6  1  0  0  0  0
  5 31  1  0  0  0  0
  6  7  1  0  0  0  0
  7  8  1  0  0  0  0
  7 18  1  0  0  0  0
  7 32  1  0  0  0  0
  8  9  1  0  0  0  0
  8 33  1  0  0  0  0
  8 34  1  0  0  0  0
  9 10  1  0  0  0  0
 10 11  2  0  0  0  0
 10 12  1  0  0  0  0
 12 17  1  0  0  0  0
 12 13  2  0  0  0  0
 13 14  1  0  0  0  0
 13 35  1  0  0  0  0
 14 15  2  0  0  0  0
 14 36  1  0  0  0  0
 15 16  1  0  0  0  0
 15 37  1  0  0  0  0
 16 17  2  0  0  0  0
 16 38  1  0  0  0  0
 17 39  1  0  0  0  0
 18 19  1  0  0  0  0
 18 20  1  0  0  0  0
 18 40  1  0  0  0  0
 19 41  1  0  0  0  0
 20 21  1  0  0  0  0
 20 42  1  0  0  0  0
 21 43  1  0  0  0  0
 22 23  2  0  0  0  0
 22 24  1  0  0  0  0
 24 25  1  0  0  0  0
 25 26  2  0  0  0  0
M  CHG  1  24  -1
M  END
> <s_m_source_file>
AV-unprocessed.smi

> <i_m_source_file_index>
101

> <i_lp_mmshare_version>
43012

> <i_f3d_flags>
0

> <s_epik_input>
Tz1jMVtuSF1jKD1PKW4oW2NIXWMxW0NIM10pW0NAQEhdMk9bQ0BIXShbQ0BASF0oW09IXSlbQ0BIXTJbT0hdKVtDSDJdT0MoPU8pYzNbY0hdW2NIXVtjSF1bY0hdW2NIXTM=

> <s_epik_cmdline>
J2VwaWtfcHl0aG9uJywgJy1waCcsICc3LjAnLCAnLXRuJywgJzgnLCAnLW1hJywgJzIwMCcsICctbWV0YWxfYmluZGluZycsICctaW1hZScsICc8aW5maWxlLm1hZT4nLCAnLW9tYWUnLCAnPG91dGZpbGUubWFlPic=

> <r_lp_tautomer_probability>
0.999537

> <r_epik_Ionization_Penalty>
3.21006

> <r_epik_Ionization_Penalty_Charging>
5.75142e-08

> <r_epik_Ionization_Penalty_Neutral>
3.21006

> <r_epik_State_Penalty>
3.20925

> <r_epik_Charging_Adjusted_Penalty>
3.20925

> <i_epik_Tot_Q>
-1

> <i_epik_Tot_abs_Q>
1

> <r_epik_Metal_State_Penalty>
0.119957

> <b_epik_Metal_Only>
1

> <s_epik_Chemistry_Notes>
This compound has an ester and may undergo hydrolysis at high or low pH. This compound contains an acetal/aminal-like group ( X-CH(R)-Y where X, Y are N, S, or O) that may be acid/base labile, releasing an aldehyde.

> <s_lp_Force_Field>
OPLS_2005

> <r_lp_Energy>
38.3605

> <b_lp_Chiralities_Consistent>
1

> <s_lp_Variant>
AV-unprocessed.smi:101-26

> <Gold.Version>
5.8.1

> <Gold.Id.Protein>
6NUR|6NUR_protein|mol2

> <Gold.PLP.Fitness>
54.6002

> <Gold.PLP.PLP>
-48.8147

> <Gold.PLP.part.hbond>
-2.4441

> <Gold.PLP.part.metal>
0.0000

> <Gold.PLP.part.buried>
-5.2795

> <Gold.PLP.part.nonpolar>
-42.0536

> <Gold.PLP.part.repulsive>
0.3772

> <Gold.PLP.ligand.clash>
0.0423

> <Gold.PLP.ligand.torsion>
1.6294

> <Gold.PLP.Chemscore.Hbond>
1.9760

> <Gold.PLP.Chemscore.CHOScore>
0.9965

> <Gold.PLP.Chemscore.Metal>
0.0000

> <Gold.Chemscore.Hbonds>
donor molecule, donor type, donor heavy atom, donor atom, acceptor molecule, acceptor atom, score
      L1  H    21    43       P1  7949  1.00
      P1  H 10752 10765       L1    21  0.82
      L1  C     3    30       P1  7948  0.93

> <Gold.PLP.Chemscore.Internal.Correction>
0.1691

> <Gold.Rescore>
     Score         DG    S(hbond)    S(metal)    S(lipo)     H(rot)  DE(clash)    DE(int)     intcor
     10.63     -14.67       1.56        0.00     105.46       3.27       0.36       3.68       ----

> <Gold.Chemscore.Fitness>
10.6309

> <Gold.Chemscore.DG>
-14.6687

> <Gold.Chemscore.ZeroCoef>
-5.4800

> <Gold.Chemscore.Hbond>
1.5598

> <Gold.Chemscore.Metal>
0.0000

> <Gold.Chemscore.Lipo>
105.4595

> <Gold.Chemscore.Internal_Hbond>
0.0000

> <Gold.Chemscore.DEClash>
0.3575

> <Gold.Chemscore.DEInternal>
3.6804

> <Gold.Chemscore.Rot>
3.2656

> <Gold.Chemscore.Internal.Correction>
   9.000000E+99

> <Gold.Chemscore.Hbonds>
donor molecule, donor type, donor heavy atom, donor atom, acceptor molecule, acceptor atom, score
      L1  H    21    43       P1  7949  0.89
      P1  H 10752 10765       L1    21  0.13

> <Gold.Chemscore.Hbond.Weighted>
-5.2097

> <Gold.Chemscore.Metal.Weighted>
-0.0000

> <Gold.Chemscore.Lipo.Weighted>
-12.3388

> <Gold.Chemscore.Internal_Hbond.Weighted>
0.0000

> <Gold.Chemscore.DEClash.Weighted>
0.3575

> <Gold.Chemscore.DEInternal.Weighted>
3.6804

> <Gold.Chemscore.Rot.Weighted>
8.3598

> <Gold.Chemscore.Internal.Correction.Weighted>
   9.000000E+99

> <Gold.Protein.RotatedTorsions>
[ 6907 6896 6895 6894 ] final  159.19 input  -60.11 | X-H torsion
[ 7974 7965 7964 7962 ] final -138.89 input  175.53 | X-H torsion
[ 8008 7997 7996 7995 ] final -128.92 input   59.86 | X-H torsion
[ 10167 10162 10161 10158 ] final  149.73 input  -65.29 | X-H torsion
[ 10718 10713 10712 10709 ] final  -70.35 input   66.30 | X-H torsion
[ 10763 10752 10751 10750 ] final  133.99 input  -60.55 | X-H torsion
[ 11005 11000 10999 10996 ] final   65.42 input  -57.11 | X-H torsion

> <Gold.Protein.ActiveResidues>
 VAL166  LYS551  ARG553  GLY616  TRP617  ASP618  TYR619  PRO620  LYS621  CYS622 
 ASP623  PHE694  ASN695  SER759  ASP760  ASP761  ALA762  ILE779  LEU786  VAL792 
 PHE793  MET794  SER795  GLU796  ALA797  LYS798  CYS799  TRP800  GLU811  SER814 

> <Gold.Protein.RotatedAtoms>
  151.9892  133.3785  159.4137 H   0  0  0  0  0  0  0  0  0  0  0  0  # atno 6907 bound_to 6896
  150.6924  134.3955  159.5105 H   0  0  0  0  0  0  0  0  0  0  0  0  # atno 6908 bound_to 6896
  152.1686  134.8853  160.0587 H   0  0  0  0  0  0  0  0  0  0  0  0  # atno 6909 bound_to 6896
  144.8721  140.6383  143.5260 H   0  0  0  0  0  0  0  0  0  0  0  0  # atno 7974 bound_to 7965
  155.2706  140.0440  157.3006 H   0  0  0  0  0  0  0  0  0  0  0  0  # atno 8008 bound_to 7997
  154.5655  140.2359  155.8238 H   0  0  0  0  0  0  0  0  0  0  0  0  # atno 8009 bound_to 7997
  156.2082  140.3006  155.9681 H   0  0  0  0  0  0  0  0  0  0  0  0  # atno 8010 bound_to 7997
  139.4858  144.5578  151.7285 H   0  0  0  0  0  0  0  0  0  0  0  0  # atno 10167 bound_to 10162
  156.0412  130.4330  150.2283 H   0  0  0  0  0  0  0  0  0  0  0  0  # atno 10718 bound_to 10713
  153.8162  135.3122  155.3406 H   0  0  0  0  0  0  0  0  0  0  0  0  # atno 10763 bound_to 10752
  154.8031  135.4714  154.0328 H   0  0  0  0  0  0  0  0  0  0  0  0  # atno 10764 bound_to 10752
  153.1722  135.6879  153.8681 H   0  0  0  0  0  0  0  0  0  0  0  0  # atno 10765 bound_to 10752
  139.9895  134.6614  156.0115 H   0  0  0  0  0  0  0  0  0  0  0  0  # atno 11005 bound_to 11000
  145.4110  139.1580  143.4125 LP  0  0  0  0  0  0  0  0  0  0  0  0  # atno 17320 bound_to 7965
  146.2937  140.4214  142.8729 LP  0  0  0  0  0  0  0  0  0  0  0  0  # atno 17321 bound_to 7965
  140.5143  144.0977  150.6004 LP  0  0  0  0  0  0  0  0  0  0  0  0  # atno 17342 bound_to 10162
  140.3913  143.2751  152.0056 LP  0  0  0  0  0  0  0  0  0  0  0  0  # atno 17343 bound_to 10162
  157.0378  131.0026  151.3293 LP  0  0  0  0  0  0  0  0  0  0  0  0  # atno 17370 bound_to 10713
  157.5231  130.8011  149.7832 LP  0  0  0  0  0  0  0  0  0  0  0  0  # atno 17371 bound_to 10713
  141.1554  133.6543  156.4144 LP  0  0  0  0  0  0  0  0  0  0  0  0  # atno 17394 bound_to 11000
  140.4936  134.6552  157.5220 LP  0  0  0  0  0  0  0  0  0  0  0  0  # atno 17395 bound_to 11000

$$$$
