AV-unprocessed.smi:1984|AV-procd|sdf|8040|dock8
  -GOLD-   2272010233D 1   1.00000     0.00000
 Structure written by MMmdl.
 38 39  0  0  0  0  0  0  0  0  1 V2000
  152.8951  142.6944  162.5145 C   0  0  0  0  0  0  0  0  0  0  0  0
  152.6367  142.8521  161.0452 C   0  0  0  0  0  0  0  0  0  0  0  0
  152.5933  144.0521  160.2822 C   0  0  0  0  0  0  0  0  0  0  0  0
  152.3066  143.6356  159.0128 C   0  0  0  0  0  0  0  0  0  0  0  0
  152.1216  144.4282  157.7607 C   0  0  0  0  0  0  0  0  0  0  0  0
  152.1938  142.2569  159.0577 N   0  0  0  0  0  0  0  0  0  0  0  0
  151.8670  141.3221  157.9885 C   0  0  0  0  0  0  0  0  0  0  0  0
  151.5272  139.9388  158.5494 C   0  0  0  0  0  0  0  0  0  0  0  0
  150.4504  139.4096  158.2759 O   0  0  0  0  0  0  0  0  0  0  0  0
  152.4676  139.3515  159.3059 N   0  0  0  0  0  0  0  0  0  0  0  0
  152.4409  137.9628  159.7470 C   0  0  0  0  0  0  0  0  0  0  0  0
  153.6066  137.1595  159.1352 C   0  0  2  0  0  0  0  0  0  0  0  0
  154.8311  137.0815  160.0663 C   0  0  0  0  0  0  0  0  0  0  0  0
  156.0061  136.5032  159.2714 C   0  0  0  0  0  0  0  0  0  0  0  0
  155.8103  137.1469  157.5679 S   0  0  0  0  0  0  0  0  0  0  0  0
  156.6719  138.3252  157.3883 O   0  0  0  0  0  0  0  0  0  0  0  0
  155.8558  136.0235  156.6199 O   0  0  0  0  0  0  0  0  0  0  0  0
  154.0781  137.7069  157.7753 C   0  0  0  0  0  0  0  0  0  0  0  0
  152.4030  141.7810  160.3055 N   0  0  0  0  0  0  0  0  0  0  0  0
  153.3131  143.6066  162.9407 H   0  0  0  0  0  0  0  0  0  0  0  0
  153.6001  141.8854  162.7091 H   0  0  0  0  0  0  0  0  0  0  0  0
  151.9726  142.4698  163.0502 H   0  0  0  0  0  0  0  0  0  0  0  0
  152.7444  145.0672  160.6182 H   0  0  0  0  0  0  0  0  0  0  0  0
  152.1652  145.4978  157.9670 H   0  0  0  0  0  0  0  0  0  0  0  0
  151.1560  144.2159  157.3019 H   0  0  0  0  0  0  0  0  0  0  0  0
  152.9019  144.1948  157.0362 H   0  0  0  0  0  0  0  0  0  0  0  0
  151.0256  141.7021  157.4091 H   0  0  0  0  0  0  0  0  0  0  0  0
  152.7172  141.2524  157.3081 H   0  0  0  0  0  0  0  0  0  0  0  0
  153.3135  139.8704  159.4925 H   0  0  0  0  0  0  0  0  0  0  0  0
  152.5117  137.9548  160.8350 H   0  0  0  0  0  0  0  0  0  0  0  0
  151.4830  137.5054  159.4939 H   0  0  0  0  0  0  0  0  0  0  0  0
  153.2722  136.1338  158.9709 H   0  0  0  0  0  0  0  0  0  0  0  0
  155.0919  138.0856  160.4031 H   0  0  0  0  0  0  0  0  0  0  0  0
  154.6246  136.4892  160.9582 H   0  0  0  0  0  0  0  0  0  0  0  0
  156.9789  136.7847  159.6744 H   0  0  0  0  0  0  0  0  0  0  0  0
  155.9451  135.4154  159.2296 H   0  0  0  0  0  0  0  0  0  0  0  0
  153.4688  137.3539  156.9426 H   0  0  0  0  0  0  0  0  0  0  0  0
  154.0776  138.7971  157.7666 H   0  0  0  0  0  0  0  0  0  0  0  0
  1  2  1  0  0  0  0
  1 20  1  0  0  0  0
  1 21  1  0  0  0  0
  1 22  1  0  0  0  0
  2 19  2  0  0  0  0
  2  3  1  0  0  0  0
  3  4  2  0  0  0  0
  3 23  1  0  0  0  0
  4  5  1  0  0  0  0
  4  6  1  0  0  0  0
  5 24  1  0  0  0  0
  5 25  1  0  0  0  0
  5 26  1  0  0  0  0
  6  7  1  0  0  0  0
  6 19  1  0  0  0  0
  7  8  1  0  0  0  0
  7 27  1  0  0  0  0
  7 28  1  0  0  0  0
  8  9  2  0  0  0  0
  8 10  1  0  0  0  0
 10 11  1  0  0  0  0
 10 29  1  0  0  0  0
 11 12  1  0  0  0  0
 11 30  1  0  0  0  0
 11 31  1  0  0  0  0
 12 18  1  0  0  0  0
 12 13  1  0  0  0  0
 12 32  1  0  0  0  0
 13 14  1  0  0  0  0
 13 33  1  0  0  0  0
 13 34  1  0  0  0  0
 14 15  1  0  0  0  0
 14 35  1  0  0  0  0
 14 36  1  0  0  0  0
 15 16  2  0  0  0  0
 15 17  2  0  0  0  0
 15 18  1  0  0  0  0
 18 37  1  0  0  0  0
 18 38  1  0  0  0  0
M  END
> <s_m_source_file>
AV-unprocessed.smi

> <i_m_source_file_index>
1984

> <i_lp_mmshare_version>
43012

> <i_f3d_flags>
0

> <s_epik_input>
W0NIM11jMVtjSF1jKFtDSDNdKW4objEpW0NIMl1DKD1PKVtOSF1bQ0gyXVtDQEBIXShbQ0gyXTIpW0NIMl1bQ0gyXVMyKD1PKT1P

> <s_epik_cmdline>
J2VwaWtfcHl0aG9uJywgJy1waCcsICc3LjAnLCAnLXRuJywgJzgnLCAnLW1hJywgJzIwMCcsICctbWV0YWxfYmluZGluZycsICctaW1hZScsICc8aW5maWxlLm1hZT4nLCAnLW9tYWUnLCAnPG91dGZpbGUubWFlPic=

> <r_lp_tautomer_probability>
1

> <r_epik_Ionization_Penalty>
0.000335865

> <r_epik_Ionization_Penalty_Charging>
0

> <r_epik_Ionization_Penalty_Neutral>
0.000335865

> <r_epik_State_Penalty>
-0

> <r_epik_Charging_Adjusted_Penalty>
0

> <i_epik_Tot_Q>
0

> <i_epik_Tot_abs_Q>
0

> <r_epik_Metal_State_Penalty>
-0

> <b_epik_Metal_Only>
0

> <s_lp_Force_Field>
OPLS_2005

> <r_lp_Energy>
1.39039

> <b_lp_Chiralities_Consistent>
1

> <s_lp_Variant>
AV-unprocessed.smi:1984-1

> <Gold.Version>
5.8.1

> <Gold.Id.Protein>
6NUR|6NUR_protein|mol2

> <Gold.PLP.Fitness>
38.6812

> <Gold.PLP.PLP>
-34.9772

> <Gold.PLP.part.hbond>
-2.0000

> <Gold.PLP.part.metal>
0.0000

> <Gold.PLP.part.buried>
-5.5004

> <Gold.PLP.part.nonpolar>
-27.6408

> <Gold.PLP.part.repulsive>
0.1888

> <Gold.PLP.ligand.clash>
0.0000

> <Gold.PLP.ligand.torsion>
0.6115

> <Gold.PLP.Chemscore.Hbond>
1.6400

> <Gold.PLP.Chemscore.CHOScore>
0.0000

> <Gold.PLP.Chemscore.Metal>
0.0000

> <Gold.Chemscore.Hbonds>
donor molecule, donor type, donor heavy atom, donor atom, acceptor molecule, acceptor atom, score
      P1  H  7997  8010       L1    16  0.69
      P1  H 10752 10763       L1    17  0.89

> <Gold.PLP.Chemscore.Internal.Correction>
0.0070

> <Gold.Rescore>
     Score         DG    S(hbond)    S(metal)    S(lipo)     H(rot)  DE(clash)    DE(int)     intcor
     15.17     -17.43       1.66        0.00      91.47       1.68       0.14       2.12       ----

> <Gold.Chemscore.Fitness>
15.1670

> <Gold.Chemscore.DG>
-17.4288

> <Gold.Chemscore.ZeroCoef>
-5.4800

> <Gold.Chemscore.Hbond>
1.6606

> <Gold.Chemscore.Metal>
0.0000

> <Gold.Chemscore.Lipo>
91.4692

> <Gold.Chemscore.Internal_Hbond>
0.0000

> <Gold.Chemscore.DEClash>
0.1447

> <Gold.Chemscore.DEInternal>
2.1171

> <Gold.Chemscore.Rot>
1.6795

> <Gold.Chemscore.Internal.Correction>
   9.000000E+99

> <Gold.Chemscore.Hbonds>
donor molecule, donor type, donor heavy atom, donor atom, acceptor molecule, acceptor atom, score
      P1  H  7997  8010       L1    16  0.70
      P1  H 10752 10763       L1    17  0.85

> <Gold.Chemscore.Hbond.Weighted>
-5.5464

> <Gold.Chemscore.Metal.Weighted>
-0.0000

> <Gold.Chemscore.Lipo.Weighted>
-10.7019

> <Gold.Chemscore.Internal_Hbond.Weighted>
0.0000

> <Gold.Chemscore.DEClash.Weighted>
0.1447

> <Gold.Chemscore.DEInternal.Weighted>
2.1171

> <Gold.Chemscore.Rot.Weighted>
4.2995

> <Gold.Chemscore.Internal.Correction.Weighted>
   9.000000E+99

> <Gold.Protein.RotatedTorsions>
[ 6907 6896 6895 6894 ] final  -20.46 input  -60.11 | X-H torsion
[ 7974 7965 7964 7962 ] final  123.66 input  175.53 | X-H torsion
[ 8008 7997 7996 7995 ] final  -63.32 input   59.86 | X-H torsion
[ 10167 10162 10161 10158 ] final   21.26 input  -65.29 | X-H torsion
[ 10718 10713 10712 10709 ] final  148.51 input   66.30 | X-H torsion
[ 10763 10752 10751 10750 ] final -171.20 input  -60.55 | X-H torsion
[ 11005 11000 10999 10996 ] final -135.90 input  -57.11 | X-H torsion

> <Gold.Protein.ActiveResidues>
 VAL166  LYS551  ARG553  GLY616  TRP617  ASP618  TYR619  PRO620  LYS621  CYS622 
 ASP623  PHE694  ASN695  SER759  ASP760  ASP761  ALA762  ILE779  LEU786  VAL792 
 PHE793  MET794  SER795  GLU796  ALA797  LYS798  CYS799  TRP800  GLU811  SER814 

> <Gold.Protein.RotatedAtoms>
  151.2478  135.0611  159.9049 H   0  0  0  0  0  0  0  0  0  0  0  0  # atno 6907 bound_to 6896
  152.5384  134.0365  159.8058 H   0  0  0  0  0  0  0  0  0  0  0  0  # atno 6908 bound_to 6896
  151.0568  133.5528  159.2669 H   0  0  0  0  0  0  0  0  0  0  0  0  # atno 6909 bound_to 6896
  145.0933  139.3571  143.4849 H   0  0  0  0  0  0  0  0  0  0  0  0  # atno 7974 bound_to 7965
  154.4548  140.0977  156.6724 H   0  0  0  0  0  0  0  0  0  0  0  0  # atno 8008 bound_to 7997
  155.5173  140.3478  155.4381 H   0  0  0  0  0  0  0  0  0  0  0  0  # atno 8009 bound_to 7997
  156.0754  140.1360  156.9766 H   0  0  0  0  0  0  0  0  0  0  0  0  # atno 8010 bound_to 7997
  140.5440  143.9626  150.6536 H   0  0  0  0  0  0  0  0  0  0  0  0  # atno 10167 bound_to 10162
  157.3077  131.0882  151.1340 H   0  0  0  0  0  0  0  0  0  0  0  0  # atno 10718 bound_to 10713
  154.6331  135.2889  155.0193 H   0  0  0  0  0  0  0  0  0  0  0  0  # atno 10763 bound_to 10752
  154.1347  135.6528  153.4933 H   0  0  0  0  0  0  0  0  0  0  0  0  # atno 10764 bound_to 10752
  153.0289  135.5318  154.7166 H   0  0  0  0  0  0  0  0  0  0  0  0  # atno 10765 bound_to 10752
  140.8855  134.1878  157.4563 H   0  0  0  0  0  0  0  0  0  0  0  0  # atno 11005 bound_to 11000
  146.3531  140.0777  142.8619 LP  0  0  0  0  0  0  0  0  0  0  0  0  # atno 17320 bound_to 7965
  145.1040  140.9364  143.4695 LP  0  0  0  0  0  0  0  0  0  0  0  0  # atno 17321 bound_to 7965
  140.3034  143.3245  152.0949 LP  0  0  0  0  0  0  0  0  0  0  0  0  # atno 17342 bound_to 10162
  139.5000  144.6682  151.6306 LP  0  0  0  0  0  0  0  0  0  0  0  0  # atno 17343 bound_to 10162
  157.2674  130.6688  149.6003 LP  0  0  0  0  0  0  0  0  0  0  0  0  # atno 17370 bound_to 10713
  155.9675  130.4489  150.5639 LP  0  0  0  0  0  0  0  0  0  0  0  0  # atno 17371 bound_to 10713
  139.8724  134.9836  156.5204 LP  0  0  0  0  0  0  0  0  0  0  0  0  # atno 17394 bound_to 11000
  140.8410  133.8205  155.9075 LP  0  0  0  0  0  0  0  0  0  0  0  0  # atno 17395 bound_to 11000

$$$$
