AV-unprocessed.smi:557|AV-procd|sdf|2917|dock5
  -GOLD-   2262023413D 1   1.00000     0.00000
 Structure written by MMmdl.
 47 49  0  0  0  0  0  0  0  0  2 V2000
  150.8295  141.5587  156.2637 C   0  0  0  0  0  0  0  0  0  0  0  0
  150.0632  140.7769  155.3173 N   0  0  0  0  0  0  0  0  0  0  0  0
  148.7241  140.8736  155.0059 C   0  0  0  0  0  0  0  0  0  0  0  0
  148.4550  139.9282  154.0568 C   0  0  0  0  0  0  0  0  0  0  0  0
  147.1493  139.6227  153.3778 C   0  0  0  0  0  0  0  0  0  0  0  0
  146.4417  138.4301  154.0341 C   0  0  0  0  0  0  0  0  0  0  0  0
  146.6527  137.2133  153.2547 N   0  0  0  0  0  0  0  0  0  0  0  0
  145.7715  136.2212  153.0440 C   0  0  0  0  0  0  0  0  0  0  0  0
  144.6383  136.2449  153.5198 O   0  0  0  0  0  0  0  0  0  0  0  0
  146.2355  135.2155  152.2830 N   0  0  0  0  0  0  0  0  0  0  0  0
  145.4841  134.0204  151.9126 C   0  0  1  0  0  0  0  0  0  0  0  0
  145.0156  134.0354  150.4623 C   0  0  0  0  0  0  0  0  0  0  0  0
  144.7358  132.5553  150.1987 C   0  0  0  0  0  0  0  0  0  0  0  0
  145.7387  131.8069  150.9900 N   0  3  2  0  0  0  0  0  0  0  0  0
  145.2611  130.5081  151.5239 C   0  0  0  0  0  0  0  0  0  0  0  0
  146.3759  129.8089  152.3223 C   0  0  0  0  0  0  0  0  0  0  0  0
  147.0111  130.7186  153.3944 C   0  0  0  0  0  0  0  0  0  0  0  0
  146.3972  132.1277  153.4114 C   0  0  0  0  0  0  0  0  0  0  0  0
  146.3307  132.7380  151.9929 C   0  0  2  0  0  0  0  0  0  0  0  0
  149.7140  139.2935  153.8565 C   0  0  0  0  0  0  0  0  0  0  0  0
  150.6737  139.8040  154.6104 N   0  0  0  0  0  0  0  0  0  0  0  0
  150.2164  142.3657  156.6658 H   0  0  0  0  0  0  0  0  0  0  0  0
  151.7010  141.9891  155.7695 H   0  0  0  0  0  0  0  0  0  0  0  0
  151.1602  140.9214  157.0841 H   0  0  0  0  0  0  0  0  0  0  0  0
  148.0801  141.6006  155.4786 H   0  0  0  0  0  0  0  0  0  0  0  0
  146.4923  140.4927  153.4079 H   0  0  0  0  0  0  0  0  0  0  0  0
  147.3115  139.4100  152.3205 H   0  0  0  0  0  0  0  0  0  0  0  0
  146.8227  138.2827  155.0461 H   0  0  0  0  0  0  0  0  0  0  0  0
  145.3721  138.6324  154.1131 H   0  0  0  0  0  0  0  0  0  0  0  0
  147.5654  137.1085  152.8349 H   0  0  0  0  0  0  0  0  0  0  0  0
  147.1805  135.2871  151.9345 H   0  0  0  0  0  0  0  0  0  0  0  0
  144.5999  133.9203  152.5457 H   0  0  0  0  0  0  0  0  0  0  0  0
  144.1405  134.6662  150.3032 H   0  0  0  0  0  0  0  0  0  0  0  0
  145.8126  134.3871  149.8053 H   0  0  0  0  0  0  0  0  0  0  0  0
  143.7306  132.3129  150.5477 H   0  0  0  0  0  0  0  0  0  0  0  0
  144.7917  132.3005  149.1402 H   0  0  0  0  0  0  0  0  0  0  0  0
  144.3872  130.6665  152.1581 H   0  0  0  0  0  0  0  0  0  0  0  0
  144.9390  129.8731  150.6979 H   0  0  0  0  0  0  0  0  0  0  0  0
  145.9802  128.9056  152.7875 H   0  0  0  0  0  0  0  0  0  0  0  0
  147.1531  129.4747  151.6338 H   0  0  0  0  0  0  0  0  0  0  0  0
  146.9103  130.2632  154.3802 H   0  0  0  0  0  0  0  0  0  0  0  0
  148.0827  130.7965  153.2069 H   0  0  0  0  0  0  0  0  0  0  0  0
  145.3966  132.0770  153.8429 H   0  0  0  0  0  0  0  0  0  0  0  0
  146.9759  132.7730  154.0724 H   0  0  0  0  0  0  0  0  0  0  0  0
  147.3444  132.9484  151.6476 H   0  0  0  0  0  0  0  0  0  0  0  0
  149.9577  138.4819  153.1871 H   0  0  0  0  0  0  0  0  0  0  0  0
  146.4937  131.5875  150.3560 H   0  0  0  0  0  0  0  0  0  0  0  0
  1  2  1  0  0  0  0
  1 22  1  0  0  0  0
  1 23  1  0  0  0  0
  1 24  1  0  0  0  0
  2 21  1  0  0  0  0
  2  3  1  0  0  0  0
  3  4  2  0  0  0  0
  3 25  1  0  0  0  0
  4  5  1  0  0  0  0
  4 20  1  0  0  0  0
  5  6  1  0  0  0  0
  5 26  1  0  0  0  0
  5 27  1  0  0  0  0
  6  7  1  0  0  0  0
  6 28  1  0  0  0  0
  6 29  1  0  0  0  0
  7  8  1  0  0  0  0
  7 30  1  0  0  0  0
  8  9  2  0  0  0  0
  8 10  1  0  0  0  0
 10 11  1  0  0  0  0
 10 31  1  0  0  0  0
 11 19  1  0  0  0  0
 11 12  1  0  0  0  0
 11 32  1  0  0  0  0
 12 13  1  0  0  0  0
 12 33  1  0  0  0  0
 12 34  1  0  0  0  0
 13 14  1  0  0  0  0
 13 35  1  0  0  0  0
 13 36  1  0  0  0  0
 14 19  1  0  0  0  0
 14 15  1  0  0  0  0
 14 47  1  0  0  0  0
 15 16  1  0  0  0  0
 15 37  1  0  0  0  0
 15 38  1  0  0  0  0
 16 17  1  0  0  0  0
 16 39  1  0  0  0  0
 16 40  1  0  0  0  0
 17 18  1  0  0  0  0
 17 41  1  0  0  0  0
 17 42  1  0  0  0  0
 18 19  1  0  0  0  0
 18 43  1  0  0  0  0
 18 44  1  0  0  0  0
 19 45  1  0  0  0  0
 20 21  2  0  0  0  0
 20 46  1  0  0  0  0
M  CHG  1  14   1
M  END
> <s_m_source_file>
AV-unprocessed.smi

> <i_m_source_file_index>
557

> <i_lp_mmshare_version>
43012

> <i_f3d_flags>
0

> <s_epik_input>
W0NIM11uMVtjSF1jKFtjSF1uMSlbQ0gyXVtDSDJdW05IXUMoPU8pW05IXVtDQEhdKFtDSDJdW0NIMl0yKVtDQEhdKE4yMylbQ0gyXVtDSDJdW0NIMl1bQ0gyXTM=

> <s_epik_cmdline>
J2VwaWtfcHl0aG9uJywgJy1waCcsICc3LjAnLCAnLXRuJywgJzgnLCAnLW1hJywgJzIwMCcsICctbWV0YWxfYmluZGluZycsICctaW1hZScsICc8aW5maWxlLm1hZT4nLCAnLW9tYWUnLCAnPG91dGZpbGUubWFlPic=

> <r_lp_tautomer_probability>
1

> <r_epik_Ionization_Penalty>
0.000956547

> <r_epik_Ionization_Penalty_Charging>
0.000435796

> <r_epik_Ionization_Penalty_Neutral>
0.000520752

> <r_epik_State_Penalty>
-0

> <r_epik_Charging_Adjusted_Penalty>
0.000435796

> <i_epik_Tot_Q>
1

> <i_epik_Tot_abs_Q>
1

> <r_epik_Metal_State_Penalty>
-0

> <b_epik_Metal_Only>
0

> <s_lp_Force_Field>
OPLS_2005

> <r_lp_Energy>
44.9241

> <b_lp_Chiralities_Consistent>
1

> <s_lp_Variant>
AV-unprocessed.smi:557-4

> <Gold.Version>
5.8.1

> <Gold.Id.Protein>
6NUR|6NUR_protein|mol2

> <Gold.PLP.Fitness>
43.3847

> <Gold.PLP.PLP>
-34.0337

> <Gold.PLP.part.hbond>
-3.0000

> <Gold.PLP.part.metal>
0.0000

> <Gold.PLP.part.buried>
-1.8110

> <Gold.PLP.part.nonpolar>
-29.0180

> <Gold.PLP.part.repulsive>
0.2140

> <Gold.PLP.ligand.clash>
0.0000

> <Gold.PLP.ligand.torsion>
0.9748

> <Gold.PLP.Chemscore.Hbond>
3.0000

> <Gold.PLP.Chemscore.CHOScore>
0.7620

> <Gold.PLP.Chemscore.Metal>
0.0000

> <Gold.Chemscore.Hbonds>
donor molecule, donor type, donor heavy atom, donor atom, acceptor molecule, acceptor atom, score
      L1  H     7    30       P1  7948  1.00
      L1  H    10    31       P1  7948  1.00
      P1  H  7989  7998       L1    21  0.90
      L1  C    20    46       P1  7948  0.45
      L1  C    20    46       P1  7957  0.20

> <Gold.PLP.Chemscore.Internal.Correction>
0.0147

> <Gold.Rescore>
     Score         DG    S(hbond)    S(metal)    S(lipo)     H(rot)  DE(clash)    DE(int)     intcor
     21.45     -24.22       3.67        0.00      90.34       1.60       1.87       0.89       ----

> <Gold.Chemscore.Fitness>
21.4533

> <Gold.Chemscore.DG>
-24.2175

> <Gold.Chemscore.ZeroCoef>
-5.4800

> <Gold.Chemscore.Hbond>
3.6730

> <Gold.Chemscore.Metal>
0.0000

> <Gold.Chemscore.Lipo>
90.3431

> <Gold.Chemscore.Internal_Hbond>
0.0000

> <Gold.Chemscore.DEClash>
1.8695

> <Gold.Chemscore.DEInternal>
0.8947

> <Gold.Chemscore.Rot>
1.6018

> <Gold.Chemscore.Internal.Correction>
   9.000000E+99

> <Gold.Chemscore.Hbonds>
donor molecule, donor type, donor heavy atom, donor atom, acceptor molecule, acceptor atom, score
      L1  H     7    30       P1  7948  0.99
      L1  H    10    31       P1  7948  0.94
      P1  H  7989  7998       L1    21  0.09

> <Gold.Chemscore.Hbond.Weighted>
-12.2680

> <Gold.Chemscore.Metal.Weighted>
-0.0000

> <Gold.Chemscore.Lipo.Weighted>
-10.5701

> <Gold.Chemscore.Internal_Hbond.Weighted>
0.0000

> <Gold.Chemscore.DEClash.Weighted>
1.8695

> <Gold.Chemscore.DEInternal.Weighted>
0.8947

> <Gold.Chemscore.Rot.Weighted>
4.1006

> <Gold.Chemscore.Internal.Correction.Weighted>
   9.000000E+99

> <Gold.Protein.RotatedTorsions>
[ 6907 6896 6895 6894 ] final   99.93 input  -60.11 | X-H torsion
[ 7974 7965 7964 7962 ] final   72.78 input  175.53 | X-H torsion
[ 8008 7997 7996 7995 ] final -126.09 input   59.86 | X-H torsion
[ 10167 10162 10161 10158 ] final   70.21 input  -65.29 | X-H torsion
[ 10718 10713 10712 10709 ] final   99.84 input   66.30 | X-H torsion
[ 10763 10752 10751 10750 ] final -179.14 input  -60.55 | X-H torsion
[ 11005 11000 10999 10996 ] final  169.59 input  -57.11 | X-H torsion

> <Gold.Protein.ActiveResidues>
 VAL166  LYS551  ARG553  GLY616  TRP617  ASP618  TYR619  PRO620  LYS621  CYS622 
 ASP623  PHE694  ASN695  SER759  ASP760  ASP761  ALA762  ILE779  LEU786  VAL792 
 PHE793  MET794  SER795  GLU796  ALA797  LYS798  CYS799  TRP800  GLU811  SER814 

> <Gold.Protein.RotatedAtoms>
  152.5382  134.0354  159.8043 H   0  0  0  0  0  0  0  0  0  0  0  0  # atno 6907 bound_to 6896
  151.0518  133.5610  159.2649 H   0  0  0  0  0  0  0  0  0  0  0  0  # atno 6908 bound_to 6896
  151.2541  135.0640  159.9127 H   0  0  0  0  0  0  0  0  0  0  0  0  # atno 6909 bound_to 6896
  145.7491  139.2752  143.1442 H   0  0  0  0  0  0  0  0  0  0  0  0  # atno 7974 bound_to 7965
  155.2241  140.0423  157.2952 H   0  0  0  0  0  0  0  0  0  0  0  0  # atno 8008 bound_to 7997
  154.5931  140.2432  155.7865 H   0  0  0  0  0  0  0  0  0  0  0  0  # atno 8009 bound_to 7997
  156.2272  140.2950  156.0105 H   0  0  0  0  0  0  0  0  0  0  0  0  # atno 8010 bound_to 7997
  140.0595  144.5245  150.7305 H   0  0  0  0  0  0  0  0  0  0  0  0  # atno 10167 bound_to 10162
  157.6867  131.0681  150.5010 H   0  0  0  0  0  0  0  0  0  0  0  0  # atno 10718 bound_to 10713
  154.5388  135.2804  155.1114 H   0  0  0  0  0  0  0  0  0  0  0  0  # atno 10763 bound_to 10752
  154.2605  135.6322  153.5276 H   0  0  0  0  0  0  0  0  0  0  0  0  # atno 10764 bound_to 10752
  152.9974  135.5604  154.5921 H   0  0  0  0  0  0  0  0  0  0  0  0  # atno 10765 bound_to 10752
  140.2994  134.7608  157.3903 H   0  0  0  0  0  0  0  0  0  0  0  0  # atno 11005 bound_to 11000
  146.0374  140.8198  142.9845 LP  0  0  0  0  0  0  0  0  0  0  0  0  # atno 17320 bound_to 7965
  144.6854  140.2859  143.7285 LP  0  0  0  0  0  0  0  0  0  0  0  0  # atno 17321 bound_to 7965
  140.7179  143.2561  151.4375 LP  0  0  0  0  0  0  0  0  0  0  0  0  # atno 17342 bound_to 10162
  139.5903  144.1514  152.2080 LP  0  0  0  0  0  0  0  0  0  0  0  0  # atno 17343 bound_to 10162
  156.5332  130.4190  149.6191 LP  0  0  0  0  0  0  0  0  0  0  0  0  # atno 17370 bound_to 10713
  156.3051  130.7198  151.2078 LP  0  0  0  0  0  0  0  0  0  0  0  0  # atno 17371 bound_to 10713
  140.1123  134.5329  155.8255 LP  0  0  0  0  0  0  0  0  0  0  0  0  # atno 17394 bound_to 11000
  141.2131  133.6728  156.6712 LP  0  0  0  0  0  0  0  0  0  0  0  0  # atno 17395 bound_to 11000

$$$$
