AV-unprocessed.smi:475|AV-procd|sdf|2668|dock4
  -GOLD-   2262023 83D 1   1.00000     0.00000
 Structure written by MMmdl.
 40 42  0  0  0  0  0  0  0  0  2 V2000
  151.3040  137.1210  155.4022 C   0  0  0  0  0  0  0  0  0  0  0  0
  152.5713  137.7473  155.4914 O   0  0  0  0  0  0  0  0  0  0  0  0
  152.4739  139.1546  155.6372 C   0  0  0  0  0  0  0  0  0  0  0  0
  151.9172  139.4997  157.0259 C   0  0  0  0  0  0  0  0  0  0  0  0
  151.5409  140.9166  157.1390 N   0  0  0  0  0  0  0  0  0  0  0  0
  150.6730  141.6568  156.3948 C   0  0  0  0  0  0  0  0  0  0  0  0
  149.7244  141.0816  155.0242 S   0  0  0  0  0  0  0  0  0  0  0  0
  148.6725  139.7535  155.6842 C   0  0  0  0  0  0  0  0  0  0  0  0
  148.3255  138.6900  154.6371 C   0  0  0  0  0  0  0  0  0  0  0  0
  148.6465  137.5119  154.7990 O   0  0  0  0  0  0  0  0  0  0  0  0
  147.6086  139.1383  153.4476 C   0  0  0  0  0  0  0  0  0  0  0  0
  147.1102  140.3571  153.0722 C   0  0  0  0  0  0  0  0  0  0  0  0
  146.4993  140.2019  151.7916 C   0  0  0  0  0  0  0  0  0  0  0  0
  146.6376  138.8944  151.4140 C   0  0  0  0  0  0  0  0  0  0  0  0
  147.3145  138.2540  152.4298 N   0  0  0  0  0  0  0  0  0  0  0  0
  150.6689  142.9215  156.8994 N   0  3  0  0  0  0  0  0  0  0  0  0
  151.5434  142.9923  157.9851 C   0  0  0  0  0  0  0  0  0  0  0  0
  151.8756  144.0565  158.8179 C   0  0  0  0  0  0  0  0  0  0  0  0
  152.8068  143.7908  159.8433 C   0  0  0  0  0  0  0  0  0  0  0  0
  153.3675  142.5081  160.0120 C   0  0  0  0  0  0  0  0  0  0  0  0
  153.0243  141.4372  159.1608 C   0  0  0  0  0  0  0  0  0  0  0  0
  152.1053  141.7079  158.1469 C   0  0  0  0  0  0  0  0  0  0  0  0
  147.5624  137.2744  152.4318 H   0  0  0  0  0  0  0  0  0  0  0  0
  151.4349  136.0448  155.2901 H   0  0  0  0  0  0  0  0  0  0  0  0
  150.7443  137.4840  154.5392 H   0  0  0  0  0  0  0  0  0  0  0  0
  150.7132  137.2962  156.3022 H   0  0  0  0  0  0  0  0  0  0  0  0
  153.4564  139.6117  155.5108 H   0  0  0  0  0  0  0  0  0  0  0  0
  151.8218  139.5647  154.8643 H   0  0  0  0  0  0  0  0  0  0  0  0
  151.0565  138.8769  157.2693 H   0  0  0  0  0  0  0  0  0  0  0  0
  152.6679  139.2942  157.7897 H   0  0  0  0  0  0  0  0  0  0  0  0
  149.1824  139.2789  156.5227 H   0  0  0  0  0  0  0  0  0  0  0  0
  147.7484  140.1888  156.0649 H   0  0  0  0  0  0  0  0  0  0  0  0
  147.1746  141.2661  153.6518 H   0  0  0  0  0  0  0  0  0  0  0  0
  146.0099  140.9683  151.2087 H   0  0  0  0  0  0  0  0  0  0  0  0
  146.3220  138.3640  150.5276 H   0  0  0  0  0  0  0  0  0  0  0  0
  151.4456  145.0394  158.6927 H   0  0  0  0  0  0  0  0  0  0  0  0
  153.0951  144.5861  160.5156 H   0  0  0  0  0  0  0  0  0  0  0  0
  154.0751  142.3409  160.8113 H   0  0  0  0  0  0  0  0  0  0  0  0
  153.4562  140.4577  159.3030 H   0  0  0  0  0  0  0  0  0  0  0  0
  150.1080  143.6776  156.5290 H   0  0  0  0  0  0  0  0  0  0  0  0
  1  2  1  0  0  0  0
  1 24  1  0  0  0  0
  1 25  1  0  0  0  0
  1 26  1  0  0  0  0
  2  3  1  0  0  0  0
  3  4  1  0  0  0  0
  3 27  1  0  0  0  0
  3 28  1  0  0  0  0
  4  5  1  0  0  0  0
  4 29  1  0  0  0  0
  4 30  1  0  0  0  0
  5 22  1  0  0  0  0
  5  6  1  0  0  0  0
  6  7  1  0  0  0  0
  6 16  2  0  0  0  0
  7  8  1  0  0  0  0
  8  9  1  0  0  0  0
  8 31  1  0  0  0  0
  8 32  1  0  0  0  0
  9 10  2  0  0  0  0
  9 11  1  0  0  0  0
 11 15  1  0  0  0  0
 11 12  2  0  0  0  0
 12 13  1  0  0  0  0
 12 33  1  0  0  0  0
 13 14  2  0  0  0  0
 13 34  1  0  0  0  0
 14 15  1  0  0  0  0
 14 35  1  0  0  0  0
 15 23  1  0  0  0  0
 16 17  1  0  0  0  0
 16 40  1  0  0  0  0
 17 22  2  0  0  0  0
 17 18  1  0  0  0  0
 18 19  2  0  0  0  0
 18 36  1  0  0  0  0
 19 20  1  0  0  0  0
 19 37  1  0  0  0  0
 20 21  2  0  0  0  0
 20 38  1  0  0  0  0
 21 22  1  0  0  0  0
 21 39  1  0  0  0  0
M  CHG  1  16   1
M  END
> <s_m_source_file>
AV-unprocessed.smi

> <i_m_source_file_index>
475

> <i_lp_mmshare_version>
43012

> <i_f3d_flags>
0

> <s_epik_input>
W2NIXTFbY0hdW2NIXVtjSF1jKGMxMiluKFtDSDJdW0NIMl1PW0NIM10pYyhuMilTW0NIMl1DKD1PKWMzW2NIXVtjSF1bY0hdW25IXTM=

> <s_epik_cmdline>
J2VwaWtfcHl0aG9uJywgJy1waCcsICc3LjAnLCAnLXRuJywgJzgnLCAnLW1hJywgJzIwMCcsICctbWV0YWxfYmluZGluZycsICctaW1hZScsICc8aW5maWxlLm1hZT4nLCAnLW9tYWUnLCAnPG91dGZpbGUubWFlPic=

> <r_lp_tautomer_probability>
0.9999

> <r_epik_Ionization_Penalty>
2.12955

> <r_epik_Ionization_Penalty_Charging>
2.12955

> <r_epik_Ionization_Penalty_Neutral>
1.90655e-06

> <r_epik_State_Penalty>
2.26782

> <r_epik_Charging_Adjusted_Penalty>
4.39737

> <i_epik_Tot_Q>
1

> <i_epik_Tot_abs_Q>
1

> <r_epik_Metal_State_Penalty>
2.28582

> <b_epik_Metal_Only>
0

> <s_lp_Force_Field>
OPLS_2005

> <r_lp_Energy>
16.0961

> <b_lp_Chiralities_Consistent>
1

> <s_lp_Variant>
AV-unprocessed.smi:475-2

> <Gold.Version>
5.8.1

> <Gold.Id.Protein>
6NUR|6NUR_protein|mol2

> <Gold.PLP.Fitness>
53.7711

> <Gold.PLP.PLP>
-43.7281

> <Gold.PLP.part.hbond>
-3.5625

> <Gold.PLP.part.metal>
0.0000

> <Gold.PLP.part.buried>
1.9253

> <Gold.PLP.part.nonpolar>
-41.9519

> <Gold.PLP.part.repulsive>
0.2677

> <Gold.PLP.ligand.clash>
0.0000

> <Gold.PLP.ligand.torsion>
0.2507

> <Gold.PLP.Chemscore.Hbond>
2.7360

> <Gold.PLP.Chemscore.CHOScore>
0.7371

> <Gold.PLP.Chemscore.Metal>
0.0000

> <Gold.Chemscore.Hbonds>
donor molecule, donor type, donor heavy atom, donor atom, acceptor molecule, acceptor atom, score
      L1  H    15    23       P1  7948  0.74
      L1  H    16    40       P1  8028  2.00
      L1  C    14    35       P1 10171  0.74

> <Gold.PLP.Chemscore.Internal.Correction>
0.1249

> <Gold.Rescore>
     Score         DG    S(hbond)    S(metal)    S(lipo)     H(rot)  DE(clash)    DE(int)     intcor
     18.61     -20.14       1.65        0.00     124.28       2.10       1.20       0.33       ----

> <Gold.Chemscore.Fitness>
18.6073

> <Gold.Chemscore.DG>
-20.1436

> <Gold.Chemscore.ZeroCoef>
-5.4800

> <Gold.Chemscore.Hbond>
1.6499

> <Gold.Chemscore.Metal>
0.0000

> <Gold.Chemscore.Lipo>
124.2805

> <Gold.Chemscore.Internal_Hbond>
0.0000

> <Gold.Chemscore.DEClash>
1.2030

> <Gold.Chemscore.DEInternal>
0.3333

> <Gold.Chemscore.Rot>
2.1046

> <Gold.Chemscore.Internal.Correction>
   9.000000E+99

> <Gold.Chemscore.Hbonds>
donor molecule, donor type, donor heavy atom, donor atom, acceptor molecule, acceptor atom, score
      L1  H    15    23       P1  7948  0.74
      L1  H    16    40       P1  8028  1.00

> <Gold.Chemscore.Hbond.Weighted>
-5.5106

> <Gold.Chemscore.Metal.Weighted>
-0.0000

> <Gold.Chemscore.Lipo.Weighted>
-14.5408

> <Gold.Chemscore.Internal_Hbond.Weighted>
0.0000

> <Gold.Chemscore.DEClash.Weighted>
1.2030

> <Gold.Chemscore.DEInternal.Weighted>
0.3333

> <Gold.Chemscore.Rot.Weighted>
5.3878

> <Gold.Chemscore.Internal.Correction.Weighted>
   9.000000E+99

> <Gold.Protein.RotatedTorsions>
[ 6907 6896 6895 6894 ] final  -54.14 input  -60.11 | X-H torsion
[ 7974 7965 7964 7962 ] final  116.70 input  175.53 | X-H torsion
[ 8008 7997 7996 7995 ] final  133.89 input   59.86 | X-H torsion
[ 10167 10162 10161 10158 ] final  178.69 input  -65.29 | X-H torsion
[ 10718 10713 10712 10709 ] final -110.36 input   66.30 | X-H torsion
[ 10763 10752 10751 10750 ] final -171.26 input  -60.55 | X-H torsion
[ 11005 11000 10999 10996 ] final   10.59 input  -57.11 | X-H torsion

> <Gold.Protein.ActiveResidues>
 VAL166  LYS551  ARG553  GLY616  TRP617  ASP618  TYR619  PRO620  LYS621  CYS622 
 ASP623  PHE694  ASN695  SER759  ASP760  ASP761  ALA762  ILE779  LEU786  VAL792 
 PHE793  MET794  SER795  GLU796  ALA797  LYS798  CYS799  TRP800  GLU811  SER814 

> <Gold.Protein.RotatedAtoms>
  150.8364  134.7639  159.6896 H   0  0  0  0  0  0  0  0  0  0  0  0  # atno 6907 bound_to 6896
  152.4460  134.5490  159.9871 H   0  0  0  0  0  0  0  0  0  0  0  0  # atno 6908 bound_to 6896
  151.5640  133.3361  159.3012 H   0  0  0  0  0  0  0  0  0  0  0  0  # atno 6909 bound_to 6896
  145.1764  139.3073  143.4441 H   0  0  0  0  0  0  0  0  0  0  0  0  # atno 7974 bound_to 7965
  156.2995  140.2510  156.3327 H   0  0  0  0  0  0  0  0  0  0  0  0  # atno 8008 bound_to 7997
  154.9130  140.0403  157.1975 H   0  0  0  0  0  0  0  0  0  0  0  0  # atno 8009 bound_to 7997
  154.8386  140.2887  155.5678 H   0  0  0  0  0  0  0  0  0  0  0  0  # atno 8010 bound_to 7997
  139.5304  144.2650  152.0675 H   0  0  0  0  0  0  0  0  0  0  0  0  # atno 10167 bound_to 10162
  156.0586  130.5811  150.8226 H   0  0  0  0  0  0  0  0  0  0  0  0  # atno 10718 bound_to 10713
  154.6325  135.2888  155.0200 H   0  0  0  0  0  0  0  0  0  0  0  0  # atno 10763 bound_to 10752
  154.1355  135.6526  153.4935 H   0  0  0  0  0  0  0  0  0  0  0  0  # atno 10764 bound_to 10752
  153.0286  135.5320  154.7158 H   0  0  0  0  0  0  0  0  0  0  0  0  # atno 10765 bound_to 10752
  140.5127  134.0636  155.7823 H   0  0  0  0  0  0  0  0  0  0  0  0  # atno 11005 bound_to 11000
  146.3460  140.1928  142.8589 LP  0  0  0  0  0  0  0  0  0  0  0  0  # atno 17320 bound_to 7965
  145.0180  140.8770  143.5184 LP  0  0  0  0  0  0  0  0  0  0  0  0  # atno 17321 bound_to 7965
  140.2113  144.4560  150.6384 LP  0  0  0  0  0  0  0  0  0  0  0  0  # atno 17342 bound_to 10162
  140.6478  143.2217  151.6145 LP  0  0  0  0  0  0  0  0  0  0  0  0  # atno 17343 bound_to 10162
  157.5577  131.0945  150.9604 LP  0  0  0  0  0  0  0  0  0  0  0  0  # atno 17370 bound_to 10713
  156.9849  130.5541  149.5299 LP  0  0  0  0  0  0  0  0  0  0  0  0  # atno 17371 bound_to 10713
  141.1377  133.9193  157.2398 LP  0  0  0  0  0  0  0  0  0  0  0  0  # atno 17394 bound_to 11000
  139.9649  135.0144  156.9361 LP  0  0  0  0  0  0  0  0  0  0  0  0  # atno 17395 bound_to 11000

$$$$
