AV-unprocessed.smi:1751|AV-procd|sdf|7057|dock9
  -GOLD-   22720 8273D 1   1.00000     0.00000
 Structure written by MMmdl.
 35 36  0  0  0  0  0  0  0  0  1 V2000
  150.4193  142.3916  157.4878 C   0  0  0  0  0  0  0  0  0  0  0  0
  151.0392  141.8292  156.3366 O   0  0  0  0  0  0  0  0  0  0  0  0
  150.3317  140.9028  155.5983 C   0  0  0  0  0  0  0  0  0  0  0  0
  148.9269  140.9988  155.5652 C   0  0  0  0  0  0  0  0  0  0  0  0
  148.2005  140.0517  154.8193 C   0  0  0  0  0  0  0  0  0  0  0  0
  148.8936  139.0347  154.1323 C   0  0  0  0  0  0  0  0  0  0  0  0
  148.1227  138.1025  153.3845 N   0  0  0  0  0  0  0  0  0  0  0  0
  146.7869  137.9702  153.3092 C   0  0  0  0  0  0  0  0  0  0  0  0
  145.9640  138.6647  153.9039 O   0  0  0  0  0  0  0  0  0  0  0  0
  146.4503  136.9704  152.4822 N   0  0  0  0  0  0  0  0  0  0  0  0
  145.0879  136.5454  152.1759 C   0  0  0  0  0  0  0  0  0  0  0  0
  145.0683  135.3785  151.1745 C   0  0  1  0  0  0  0  0  0  0  0  0
  146.1338  134.3077  151.4052 C   0  0  0  0  0  0  0  0  0  0  0  0
  145.5241  133.1209  150.6956 C   0  0  0  0  0  0  0  0  0  0  0  0
  144.0397  133.2848  151.0149 C   0  0  0  0  0  0  0  0  0  0  0  0
  143.8332  134.6748  151.2595 O   0  0  0  0  0  0  0  0  0  0  0  0
  150.3080  139.0314  154.2172 C   0  0  0  0  0  0  0  0  0  0  0  0
  151.0106  139.9369  154.9315 N   0  0  0  0  0  0  0  0  0  0  0  0
  151.0986  143.1084  157.9491 H   0  0  0  0  0  0  0  0  0  0  0  0
  150.1904  141.6267  158.2313 H   0  0  0  0  0  0  0  0  0  0  0  0
  149.5036  142.9244  157.2281 H   0  0  0  0  0  0  0  0  0  0  0  0
  148.4161  141.7837  156.1033 H   0  0  0  0  0  0  0  0  0  0  0  0
  147.1222  140.1064  154.7803 H   0  0  0  0  0  0  0  0  0  0  0  0
  148.6570  137.4806  152.7959 H   0  0  0  0  0  0  0  0  0  0  0  0
  147.1941  136.4562  152.0334 H   0  0  0  0  0  0  0  0  0  0  0  0
  144.5421  136.2813  153.0835 H   0  0  0  0  0  0  0  0  0  0  0  0
  144.5653  137.3999  151.7457 H   0  0  0  0  0  0  0  0  0  0  0  0
  145.1570  135.7602  150.1558 H   0  0  0  0  0  0  0  0  0  0  0  0
  147.1117  134.5858  151.0111 H   0  0  0  0  0  0  0  0  0  0  0  0
  146.2393  134.0929  152.4697 H   0  0  0  0  0  0  0  0  0  0  0  0
  145.6882  133.2058  149.6205 H   0  0  0  0  0  0  0  0  0  0  0  0
  145.9298  132.1653  151.0288 H   0  0  0  0  0  0  0  0  0  0  0  0
  143.4046  132.9269  150.2039 H   0  0  0  0  0  0  0  0  0  0  0  0
  143.7778  132.7325  151.9181 H   0  0  0  0  0  0  0  0  0  0  0  0
  150.9165  138.3080  153.6991 H   0  0  0  0  0  0  0  0  0  0  0  0
  1  2  1  0  0  0  0
  1 19  1  0  0  0  0
  1 20  1  0  0  0  0
  1 21  1  0  0  0  0
  2  3  1  0  0  0  0
  3 18  1  0  0  0  0
  3  4  2  0  0  0  0
  4  5  1  0  0  0  0
  4 22  1  0  0  0  0
  5  6  2  0  0  0  0
  5 23  1  0  0  0  0
  6  7  1  0  0  0  0
  6 17  1  0  0  0  0
  7  8  1  0  0  0  0
  7 24  1  0  0  0  0
  8  9  2  0  0  0  0
  8 10  1  0  0  0  0
 10 11  1  0  0  0  0
 10 25  1  0  0  0  0
 11 12  1  0  0  0  0
 11 26  1  0  0  0  0
 11 27  1  0  0  0  0
 12 16  1  0  0  0  0
 12 13  1  0  0  0  0
 12 28  1  0  0  0  0
 13 14  1  0  0  0  0
 13 29  1  0  0  0  0
 13 30  1  0  0  0  0
 14 15  1  0  0  0  0
 14 31  1  0  0  0  0
 14 32  1  0  0  0  0
 15 16  1  0  0  0  0
 15 33  1  0  0  0  0
 15 34  1  0  0  0  0
 17 18  2  0  0  0  0
 17 35  1  0  0  0  0
M  END
> <s_m_source_file>
AV-unprocessed.smi

> <i_m_source_file_index>
1751

> <i_lp_mmshare_version>
43012

> <i_f3d_flags>
0

> <s_epik_input>
W0NIM11PYzFbY0hdW2NIXWMoW2NIXW4xKVtOSF1DKD1PKVtOSF1bQ0gyXVtDQEBIXTJbQ0gyXVtDSDJdW0NIMl1PMg==

> <s_epik_cmdline>
J2VwaWtfcHl0aG9uJywgJy1waCcsICc3LjAnLCAnLXRuJywgJzgnLCAnLW1hJywgJzIwMCcsICctbWV0YWxfYmluZGluZycsICctaW1hZScsICc8aW5maWxlLm1hZT4nLCAnLW9tYWUnLCAnPG91dGZpbGUubWFlPic=

> <r_lp_tautomer_probability>
1

> <r_epik_Ionization_Penalty>
9.01694e-05

> <r_epik_Ionization_Penalty_Charging>
0

> <r_epik_Ionization_Penalty_Neutral>
9.01694e-05

> <r_epik_State_Penalty>
-0

> <r_epik_Charging_Adjusted_Penalty>
0

> <i_epik_Tot_Q>
0

> <i_epik_Tot_abs_Q>
0

> <r_epik_Metal_State_Penalty>
-0

> <b_epik_Metal_Only>
0

> <s_lp_Force_Field>
OPLS_2005

> <r_lp_Energy>
20.1941

> <b_lp_Chiralities_Consistent>
1

> <s_lp_Variant>
AV-unprocessed.smi:1751-2

> <Gold.Version>
5.8.1

> <Gold.Id.Protein>
6NUR|6NUR_protein|mol2

> <Gold.PLP.Fitness>
36.0610

> <Gold.PLP.PLP>
-29.0717

> <Gold.PLP.part.hbond>
-3.3117

> <Gold.PLP.part.metal>
0.0000

> <Gold.PLP.part.buried>
-3.8972

> <Gold.PLP.part.nonpolar>
-22.8362

> <Gold.PLP.part.repulsive>
0.5745

> <Gold.PLP.ligand.clash>
0.0000

> <Gold.PLP.ligand.torsion>
0.5720

> <Gold.PLP.Chemscore.Hbond>
2.7100

> <Gold.PLP.Chemscore.CHOScore>
0.0000

> <Gold.PLP.Chemscore.Metal>
0.0000

> <Gold.Chemscore.Hbonds>
donor molecule, donor type, donor heavy atom, donor atom, acceptor molecule, acceptor atom, score
      L1  H     7    24       P1  7948  1.00
      L1  H    10    25       P1  7948  0.96
      P1  H  7989  7998       L1    18  0.80

> <Gold.PLP.Chemscore.Internal.Correction>
0.0033

> <Gold.Rescore>
     Score         DG    S(hbond)    S(metal)    S(lipo)     H(rot)  DE(clash)    DE(int)     intcor
     13.59     -15.50       1.96        0.00      62.60       1.50       0.18       1.74       ----

> <Gold.Chemscore.Fitness>
13.5871

> <Gold.Chemscore.DG>
-15.5016

> <Gold.Chemscore.ZeroCoef>
-5.4800

> <Gold.Chemscore.Hbond>
1.9550

> <Gold.Chemscore.Metal>
0.0000

> <Gold.Chemscore.Lipo>
62.6019

> <Gold.Chemscore.Internal_Hbond>
0.0000

> <Gold.Chemscore.DEClash>
0.1783

> <Gold.Chemscore.DEInternal>
1.7363

> <Gold.Chemscore.Rot>
1.4971

> <Gold.Chemscore.Internal.Correction>
   9.000000E+99

> <Gold.Chemscore.Hbonds>
donor molecule, donor type, donor heavy atom, donor atom, acceptor molecule, acceptor atom, score
      L1  H     7    24       P1  7948  0.96
      L1  H    10    25       P1  7948  0.92
      P1  H  7989  7998       L1    18  0.04

> <Gold.Chemscore.Hbond.Weighted>
-6.5298

> <Gold.Chemscore.Metal.Weighted>
-0.0000

> <Gold.Chemscore.Lipo.Weighted>
-7.3244

> <Gold.Chemscore.Internal_Hbond.Weighted>
0.0000

> <Gold.Chemscore.DEClash.Weighted>
0.1783

> <Gold.Chemscore.DEInternal.Weighted>
1.7363

> <Gold.Chemscore.Rot.Weighted>
3.8326

> <Gold.Chemscore.Internal.Correction.Weighted>
   9.000000E+99

> <Gold.Protein.RotatedTorsions>
[ 6907 6896 6895 6894 ] final -118.06 input  -60.11 | X-H torsion
[ 7974 7965 7964 7962 ] final  -98.48 input  175.53 | X-H torsion
[ 8008 7997 7996 7995 ] final  -54.75 input   59.86 | X-H torsion
[ 10167 10162 10161 10158 ] final  -66.97 input  -65.29 | X-H torsion
[ 10718 10713 10712 10709 ] final  148.66 input   66.30 | X-H torsion
[ 10763 10752 10751 10750 ] final -139.99 input  -60.55 | X-H torsion
[ 11005 11000 10999 10996 ] final  163.46 input  -57.11 | X-H torsion

> <Gold.Protein.ActiveResidues>
 VAL166  LYS551  ARG553  GLY616  TRP617  ASP618  TYR619  PRO620  LYS621  CYS622 
 ASP623  PHE694  ASN695  SER759  ASP760  ASP761  ALA762  ILE779  LEU786  VAL792 
 PHE793  MET794  SER795  GLU796  ALA797  LYS798  CYS799  TRP800  GLU811  SER814 

> <Gold.Protein.RotatedAtoms>
  150.8188  133.8289  159.3148 H   0  0  0  0  0  0  0  0  0  0  0  0  # atno 6907 bound_to 6896
  151.6053  135.1042  160.0079 H   0  0  0  0  0  0  0  0  0  0  0  0  # atno 6908 bound_to 6896
  152.4278  133.7185  159.6576 H   0  0  0  0  0  0  0  0  0  0  0  0  # atno 6909 bound_to 6896
  145.3201  140.9420  143.2720 H   0  0  0  0  0  0  0  0  0  0  0  0  # atno 7974 bound_to 7965
  154.4172  140.1169  156.5366 H   0  0  0  0  0  0  0  0  0  0  0  0  # atno 8008 bound_to 7997
  155.6551  140.3496  155.4743 H   0  0  0  0  0  0  0  0  0  0  0  0  # atno 8009 bound_to 7997
  155.9760  140.1151  157.0759 H   0  0  0  0  0  0  0  0  0  0  0  0  # atno 8010 bound_to 7997
  140.5617  143.2313  151.6714 H   0  0  0  0  0  0  0  0  0  0  0  0  # atno 10167 bound_to 10162
  157.3058  131.0879  151.1355 H   0  0  0  0  0  0  0  0  0  0  0  0  # atno 10718 bound_to 10713
  154.8592  135.3566  154.5636 H   0  0  0  0  0  0  0  0  0  0  0  0  # atno 10763 bound_to 10752
  153.6250  135.7004  153.5301 H   0  0  0  0  0  0  0  0  0  0  0  0  # atno 10764 bound_to 10752
  153.3097  135.4182  155.1284 H   0  0  0  0  0  0  0  0  0  0  0  0  # atno 10765 bound_to 10752
  140.2360  134.8087  157.3364 H   0  0  0  0  0  0  0  0  0  0  0  0  # atno 11005 bound_to 11000
  144.8946  139.4729  143.6661 LP  0  0  0  0  0  0  0  0  0  0  0  0  # atno 17320 bound_to 7965
  146.3085  139.7664  142.9037 LP  0  0  0  0  0  0  0  0  0  0  0  0  # atno 17321 bound_to 7965
  139.5073  144.3649  152.0526 LP  0  0  0  0  0  0  0  0  0  0  0  0  # atno 17342 bound_to 10162
  140.2777  144.3894  150.6129 LP  0  0  0  0  0  0  0  0  0  0  0  0  # atno 17343 bound_to 10162
  157.2696  130.6698  149.6013 LP  0  0  0  0  0  0  0  0  0  0  0  0  # atno 17370 bound_to 10713
  155.9674  130.4483  150.5615 LP  0  0  0  0  0  0  0  0  0  0  0  0  # atno 17371 bound_to 10713
  140.1701  134.4619  155.7837 LP  0  0  0  0  0  0  0  0  0  0  0  0  # atno 17394 bound_to 11000
  141.2214  133.6938  156.7693 LP  0  0  0  0  0  0  0  0  0  0  0  0  # atno 17395 bound_to 11000

$$$$
