AV-unprocessed.smi:1893|AV-procd|sdf|7675|dock10
  -GOLD-   22720 9413D 1   1.00000     0.00000
 Structure written by MMmdl.
 43 44  0  0  0  0  0  0  0  0  2 V2000
  151.4233  144.9025  159.1969 C   0  0  0  0  0  0  0  0  0  0  0  0
  151.5637  143.4287  159.6337 C   0  0  2  0  0  0  0  0  0  0  0  0
  152.7423  143.3266  160.6285 C   0  0  0  0  0  0  0  0  0  0  0  0
  152.9632  141.8943  161.1193 C   0  0  0  0  0  0  0  0  0  0  0  0
  153.1610  140.9747  159.9152 C   0  0  0  0  0  0  0  0  0  0  0  0
  151.9678  141.0838  158.9564 C   0  0  0  0  0  0  0  0  0  0  0  0
  151.7525  142.4826  158.4838 N   0  3  1  0  0  0  0  0  0  0  0  0
  150.6754  142.5488  157.4543 C   0  0  0  0  0  0  0  0  0  0  0  0
  150.8516  141.5094  156.3265 C   0  0  0  0  0  0  0  0  0  0  0  0
  149.6282  141.3582  155.5484 N   0  0  0  0  0  0  0  0  0  0  0  0
  149.5092  140.6192  154.4337 C   0  0  0  0  0  0  0  0  0  0  0  0
  150.4512  140.0002  153.9375 O   0  0  0  0  0  0  0  0  0  0  0  0
  148.1096  140.5691  153.8005 C   0  0  1  0  0  0  0  0  0  0  0  0
  147.5876  139.1337  153.6036 C   0  0  0  0  0  0  0  0  0  0  0  0
  147.1738  141.3598  154.5881 N   0  0  0  0  0  0  0  0  0  0  0  0
  146.4282  142.4189  154.2602 C   0  0  0  0  0  0  0  0  0  0  0  0
  145.6752  142.8731  155.2521 N   0  0  0  0  0  0  0  0  0  0  0  0
  146.0337  141.9921  156.2326 C   0  0  0  0  0  0  0  0  0  0  0  0
  146.9250  141.0634  155.8862 N   0  0  0  0  0  0  0  0  0  0  0  0
  151.4748  145.5693  160.0583 H   0  0  0  0  0  0  0  0  0  0  0  0
  150.4660  145.1095  158.7203 H   0  0  0  0  0  0  0  0  0  0  0  0
  152.2198  145.1937  158.5115 H   0  0  0  0  0  0  0  0  0  0  0  0
  150.6502  143.1421  160.1576 H   0  0  0  0  0  0  0  0  0  0  0  0
  153.6559  143.6902  160.1554 H   0  0  0  0  0  0  0  0  0  0  0  0
  152.5647  143.9744  161.4881 H   0  0  0  0  0  0  0  0  0  0  0  0
  153.8317  141.8488  161.7771 H   0  0  0  0  0  0  0  0  0  0  0  0
  152.1053  141.5632  161.7062 H   0  0  0  0  0  0  0  0  0  0  0  0
  154.0816  141.2381  159.3922 H   0  0  0  0  0  0  0  0  0  0  0  0
  153.2780  139.9435  160.2503 H   0  0  0  0  0  0  0  0  0  0  0  0
  152.1534  140.4142  158.1190 H   0  0  0  0  0  0  0  0  0  0  0  0
  151.0624  140.7242  159.4482 H   0  0  0  0  0  0  0  0  0  0  0  0
  149.7056  142.4393  157.9417 H   0  0  0  0  0  0  0  0  0  0  0  0
  150.6596  143.5201  156.9664 H   0  0  0  0  0  0  0  0  0  0  0  0
  151.6453  141.8270  155.6496 H   0  0  0  0  0  0  0  0  0  0  0  0
  151.1401  140.5304  156.7078 H   0  0  0  0  0  0  0  0  0  0  0  0
  148.8061  141.8368  155.8883 H   0  0  0  0  0  0  0  0  0  0  0  0
  148.1901  141.0261  152.8124 H   0  0  0  0  0  0  0  0  0  0  0  0
  148.2657  138.5481  152.9818 H   0  0  0  0  0  0  0  0  0  0  0  0
  146.6157  139.1392  153.1096 H   0  0  0  0  0  0  0  0  0  0  0  0
  147.4702  138.6109  154.5536 H   0  0  0  0  0  0  0  0  0  0  0  0
  146.4336  142.8636  153.2756 H   0  0  0  0  0  0  0  0  0  0  0  0
  145.6228  142.0339  157.2307 H   0  0  0  0  0  0  0  0  0  0  0  0
  152.6042  142.7709  158.0239 H   0  0  0  0  0  0  0  0  0  0  0  0
  1  2  1  0  0  0  0
  1 20  1  0  0  0  0
  1 21  1  0  0  0  0
  1 22  1  0  0  0  0
  2  7  1  0  0  0  0
  2  3  1  0  0  0  0
  2 23  1  0  0  0  0
  3  4  1  0  0  0  0
  3 24  1  0  0  0  0
  3 25  1  0  0  0  0
  4  5  1  0  0  0  0
  4 26  1  0  0  0  0
  4 27  1  0  0  0  0
  5  6  1  0  0  0  0
  5 28  1  0  0  0  0
  5 29  1  0  0  0  0
  6  7  1  0  0  0  0
  6 30  1  0  0  0  0
  6 31  1  0  0  0  0
  7  8  1  0  0  0  0
  7 43  1  0  0  0  0
  8  9  1  0  0  0  0
  8 32  1  0  0  0  0
  8 33  1  0  0  0  0
  9 10  1  0  0  0  0
  9 34  1  0  0  0  0
  9 35  1  0  0  0  0
 10 11  1  0  0  0  0
 10 36  1  0  0  0  0
 11 12  2  0  0  0  0
 11 13  1  0  0  0  0
 13 14  1  0  0  0  0
 13 15  1  0  0  0  0
 13 37  1  0  0  0  0
 14 38  1  0  0  0  0
 14 39  1  0  0  0  0
 14 40  1  0  0  0  0
 15 19  1  0  0  0  0
 15 16  1  0  0  0  0
 16 17  2  0  0  0  0
 16 41  1  0  0  0  0
 17 18  1  0  0  0  0
 18 19  2  0  0  0  0
 18 42  1  0  0  0  0
M  CHG  1   7   1
M  END
> <s_m_source_file>
AV-unprocessed.smi

> <i_m_source_file_index>
1893

> <i_lp_mmshare_version>
43012

> <i_f3d_flags>
0

> <s_epik_input>
W0NIM11bQ0BASF0xW0NIMl1bQ0gyXVtDSDJdW0NIMl1OMVtDSDJdW0NIMl1bTkhdQyg9TylbQ0BIXShbQ0gzXSluMltjSF1uW2NIXW4y

> <s_epik_cmdline>
J2VwaWtfcHl0aG9uJywgJy1waCcsICc3LjAnLCAnLXRuJywgJzgnLCAnLW1hJywgJzIwMCcsICctbWV0YWxfYmluZGluZycsICctaW1hZScsICc8aW5maWxlLm1hZT4nLCAnLW9tYWUnLCAnPG91dGZpbGUubWFlPic=

> <r_lp_tautomer_probability>
1

> <r_epik_Ionization_Penalty>
0.00266409

> <r_epik_Ionization_Penalty_Charging>
0.00265606

> <r_epik_Ionization_Penalty_Neutral>
8.02794e-06

> <r_epik_State_Penalty>
0.00184955

> <r_epik_Charging_Adjusted_Penalty>
0.00450561

> <i_epik_Tot_Q>
1

> <i_epik_Tot_abs_Q>
1

> <r_epik_Metal_State_Penalty>
-0

> <b_epik_Metal_Only>
0

> <s_lp_Force_Field>
OPLS_2005

> <r_lp_Energy>
24.8268

> <b_lp_Chiralities_Consistent>
1

> <s_lp_Variant>
AV-unprocessed.smi:1893-5

> <Gold.Version>
5.8.1

> <Gold.Id.Protein>
6NUR|6NUR_protein|mol2

> <Gold.PLP.Fitness>
43.8214

> <Gold.PLP.PLP>
-41.0878

> <Gold.PLP.part.hbond>
-1.0000

> <Gold.PLP.part.metal>
0.0000

> <Gold.PLP.part.buried>
-5.4363

> <Gold.PLP.part.nonpolar>
-35.8419

> <Gold.PLP.part.repulsive>
1.1483

> <Gold.PLP.ligand.clash>
0.0000

> <Gold.PLP.ligand.torsion>
0.1744

> <Gold.PLP.Chemscore.Hbond>
1.0000

> <Gold.PLP.Chemscore.CHOScore>
0.0000

> <Gold.PLP.Chemscore.Metal>
0.0000

> <Gold.Chemscore.Hbonds>
donor molecule, donor type, donor heavy atom, donor atom, acceptor molecule, acceptor atom, score
      P1  H  7989  7998       L1    12  0.98

> <Gold.PLP.Chemscore.Internal.Correction>
0.0824

> <Gold.Rescore>
     Score         DG    S(hbond)    S(metal)    S(lipo)     H(rot)  DE(clash)    DE(int)     intcor
     11.23     -12.95       0.90        0.00      93.51       2.54       0.08       1.64       ----

> <Gold.Chemscore.Fitness>
11.2326

> <Gold.Chemscore.DG>
-12.9455

> <Gold.Chemscore.ZeroCoef>
-5.4800

> <Gold.Chemscore.Hbond>
0.9046

> <Gold.Chemscore.Metal>
0.0000

> <Gold.Chemscore.Lipo>
93.5089

> <Gold.Chemscore.Internal_Hbond>
0.0000

> <Gold.Chemscore.DEClash>
0.0778

> <Gold.Chemscore.DEInternal>
1.6350

> <Gold.Chemscore.Rot>
2.5377

> <Gold.Chemscore.Internal.Correction>
   9.000000E+99

> <Gold.Chemscore.Hbonds>
donor molecule, donor type, donor heavy atom, donor atom, acceptor molecule, acceptor atom, score
      P1  H  7989  7998       L1    12  0.80

> <Gold.Chemscore.Hbond.Weighted>
-3.0215

> <Gold.Chemscore.Metal.Weighted>
-0.0000

> <Gold.Chemscore.Lipo.Weighted>
-10.9405

> <Gold.Chemscore.Internal_Hbond.Weighted>
0.0000

> <Gold.Chemscore.DEClash.Weighted>
0.0778

> <Gold.Chemscore.DEInternal.Weighted>
1.6350

> <Gold.Chemscore.Rot.Weighted>
6.4966

> <Gold.Chemscore.Internal.Correction.Weighted>
   9.000000E+99

> <Gold.Protein.RotatedTorsions>
[ 6907 6896 6895 6894 ] final  136.15 input  -60.11 | X-H torsion
[ 7974 7965 7964 7962 ] final  -54.13 input  175.53 | X-H torsion
[ 8008 7997 7996 7995 ] final    6.75 input   59.86 | X-H torsion
[ 10167 10162 10161 10158 ] final -132.92 input  -65.29 | X-H torsion
[ 10718 10713 10712 10709 ] final  -51.65 input   66.30 | X-H torsion
[ 10763 10752 10751 10750 ] final  177.55 input  -60.55 | X-H torsion
[ 11005 11000 10999 10996 ] final   43.58 input  -57.11 | X-H torsion

> <Gold.Protein.ActiveResidues>
 VAL166  LYS551  ARG553  GLY616  TRP617  ASP618  TYR619  PRO620  LYS621  CYS622 
 ASP623  PHE694  ASN695  SER759  ASP760  ASP761  ALA762  ILE779  LEU786  VAL792 
 PHE793  MET794  SER795  GLU796  ALA797  LYS798  CYS799  TRP800  GLU811  SER814 

> <Gold.Protein.RotatedAtoms>
  152.2925  133.5575  159.5566 H   0  0  0  0  0  0  0  0  0  0  0  0  # atno 6907 bound_to 6896
  150.7242  134.0408  159.3774 H   0  0  0  0  0  0  0  0  0  0  0  0  # atno 6908 bound_to 6896
  151.8312  135.0621  160.0488 H   0  0  0  0  0  0  0  0  0  0  0  0  # atno 6909 bound_to 6896
  145.8891  140.8085  142.9801 H   0  0  0  0  0  0  0  0  0  0  0  0  # atno 7974 bound_to 7965
  154.7450  140.2756  155.6341 H   0  0  0  0  0  0  0  0  0  0  0  0  # atno 8008 bound_to 7997
  156.2882  140.2689  156.2114 H   0  0  0  0  0  0  0  0  0  0  0  0  # atno 8009 bound_to 7997
  155.0210  140.0371  157.2427 H   0  0  0  0  0  0  0  0  0  0  0  0  # atno 8010 bound_to 7997
  139.9036  143.6578  152.2590 H   0  0  0  0  0  0  0  0  0  0  0  0  # atno 10167 bound_to 10162
  156.1691  130.4149  149.9675 H   0  0  0  0  0  0  0  0  0  0  0  0  # atno 10718 bound_to 10713
  154.4960  135.2781  155.1459 H   0  0  0  0  0  0  0  0  0  0  0  0  # atno 10763 bound_to 10752
  154.3111  135.6229  153.5470 H   0  0  0  0  0  0  0  0  0  0  0  0  # atno 10764 bound_to 10752
  152.9895  135.5720  154.5392 H   0  0  0  0  0  0  0  0  0  0  0  0  # atno 10765 bound_to 10752
  140.1632  134.4315  155.8304 H   0  0  0  0  0  0  0  0  0  0  0  0  # atno 11005 bound_to 11000
  144.6730  140.1501  143.7430 LP  0  0  0  0  0  0  0  0  0  0  0  0  # atno 17320 bound_to 7965
  145.8931  139.2387  143.1538 LP  0  0  0  0  0  0  0  0  0  0  0  0  # atno 17321 bound_to 7965
  139.7004  144.7636  151.1284 LP  0  0  0  0  0  0  0  0  0  0  0  0  # atno 17342 bound_to 10162
  140.7701  143.5466  150.9252 LP  0  0  0  0  0  0  0  0  0  0  0  0  # atno 17343 bound_to 10162
  156.7481  130.9105  151.3636 LP  0  0  0  0  0  0  0  0  0  0  0  0  # atno 17370 bound_to 10713
  157.6789  130.9121  150.0219 LP  0  0  0  0  0  0  0  0  0  0  0  0  # atno 17371 bound_to 10713
  141.2211  133.6922  156.7630 LP  0  0  0  0  0  0  0  0  0  0  0  0  # atno 17394 bound_to 11000
  140.2465  134.8573  157.3625 LP  0  0  0  0  0  0  0  0  0  0  0  0  # atno 17395 bound_to 11000

$$$$
