AV-unprocessed.smi:2517|AV-procd|sdf|9900|dock8
  -GOLD-   2272013533D 1   1.00000     0.00000
 Structure written by MMmdl.
 41 42  0  0  0  0  0  0  0  0  1 V2000
  152.1501  145.2432  158.8935 C   0  0  0  0  0  0  0  0  0  0  0  0
  151.2260  144.0789  159.2671 C   0  0  0  0  0  0  0  0  0  0  0  0
  151.9428  142.7573  159.2284 C   0  0  0  0  0  0  0  0  0  0  0  0
  153.0026  142.5564  160.0000 N   0  0  0  0  0  0  0  0  0  0  0  0
  153.3983  141.2879  159.7377 N   0  0  0  0  0  0  0  0  0  0  0  0
  154.5500  140.7484  160.4278 C   0  0  0  0  0  0  0  0  0  0  0  0
  152.5944  140.6722  158.8003 C   0  0  0  0  0  0  0  0  0  0  0  0
  151.6487  141.5981  158.4605 C   0  0  0  0  0  0  0  0  0  0  0  0
  150.5691  141.4814  157.5479 N   0  0  0  0  0  0  0  0  0  0  0  0
  150.6227  141.0902  156.2646 C   0  0  0  0  0  0  0  0  0  0  0  0
  151.6501  140.7899  155.6564 O   0  0  0  0  0  0  0  0  0  0  0  0
  149.4035  141.0664  155.7129 N   0  0  0  0  0  0  0  0  0  0  0  0
  149.1271  140.6696  154.3387 C   0  0  0  0  0  0  0  0  0  0  0  0
  147.6732  140.9879  153.9638 C   0  0  0  0  0  0  0  0  0  0  0  0
  147.3910  142.3843  154.0619 O   0  0  0  0  0  0  0  0  0  0  0  0
  146.0616  142.7748  153.7437 C   0  0  0  0  0  0  0  0  0  0  0  0
  147.1598  140.4934  152.5981 C   0  0  0  0  0  0  0  0  0  0  0  0
  146.5213  139.3011  153.3125 C   0  0  0  0  0  0  0  0  0  0  0  0
  146.5441  140.1438  154.5885 C   0  0  0  0  0  0  0  0  0  0  0  0
  151.6141  146.1916  158.9290 H   0  0  0  0  0  0  0  0  0  0  0  0
  152.5485  145.1233  157.8857 H   0  0  0  0  0  0  0  0  0  0  0  0
  152.9930  145.3105  159.5817 H   0  0  0  0  0  0  0  0  0  0  0  0
  150.8123  144.2505  160.2611 H   0  0  0  0  0  0  0  0  0  0  0  0
  150.3733  144.0611  158.5873 H   0  0  0  0  0  0  0  0  0  0  0  0
  154.7012  139.7061  160.1456 H   0  0  0  0  0  0  0  0  0  0  0  0
  154.3947  140.8044  161.5057 H   0  0  0  0  0  0  0  0  0  0  0  0
  155.4395  141.3203  160.1629 H   0  0  0  0  0  0  0  0  0  0  0  0
  152.7656  139.6566  158.4756 H   0  0  0  0  0  0  0  0  0  0  0  0
  149.6572  141.7111  157.9151 H   0  0  0  0  0  0  0  0  0  0  0  0
  148.6104  141.3244  156.2817 H   0  0  0  0  0  0  0  0  0  0  0  0
  149.8146  141.2044  153.6819 H   0  0  0  0  0  0  0  0  0  0  0  0
  149.3455  139.6100  154.2012 H   0  0  0  0  0  0  0  0  0  0  0  0
  145.9995  143.8629  153.7426 H   0  0  0  0  0  0  0  0  0  0  0  0
  145.3458  142.4109  154.4806 H   0  0  0  0  0  0  0  0  0  0  0  0
  145.7586  142.4248  152.7568 H   0  0  0  0  0  0  0  0  0  0  0  0
  146.4179  141.1572  152.1502 H   0  0  0  0  0  0  0  0  0  0  0  0
  147.9372  140.2249  151.8823 H   0  0  0  0  0  0  0  0  0  0  0  0
  145.5254  139.0349  152.9574 H   0  0  0  0  0  0  0  0  0  0  0  0
  147.1812  138.4336  153.3639 H   0  0  0  0  0  0  0  0  0  0  0  0
  146.8267  139.5949  155.4871 H   0  0  0  0  0  0  0  0  0  0  0  0
  145.6162  140.7001  154.7338 H   0  0  0  0  0  0  0  0  0  0  0  0
  1  2  1  0  0  0  0
  1 20  1  0  0  0  0
  1 21  1  0  0  0  0
  1 22  1  0  0  0  0
  2  3  1  0  0  0  0
  2 23  1  0  0  0  0
  2 24  1  0  0  0  0
  3  8  1  0  0  0  0
  3  4  2  0  0  0  0
  4  5  1  0  0  0  0
  5  6  1  0  0  0  0
  5  7  1  0  0  0  0
  6 25  1  0  0  0  0
  6 26  1  0  0  0  0
  6 27  1  0  0  0  0
  7  8  2  0  0  0  0
  7 28  1  0  0  0  0
  8  9  1  0  0  0  0
  9 10  1  0  0  0  0
  9 29  1  0  0  0  0
 10 11  2  0  0  0  0
 10 12  1  0  0  0  0
 12 13  1  0  0  0  0
 12 30  1  0  0  0  0
 13 14  1  0  0  0  0
 13 31  1  0  0  0  0
 13 32  1  0  0  0  0
 14 19  1  0  0  0  0
 14 15  1  0  0  0  0
 14 17  1  0  0  0  0
 15 16  1  0  0  0  0
 16 33  1  0  0  0  0
 16 34  1  0  0  0  0
 16 35  1  0  0  0  0
 17 18  1  0  0  0  0
 17 36  1  0  0  0  0
 17 37  1  0  0  0  0
 18 19  1  0  0  0  0
 18 38  1  0  0  0  0
 18 39  1  0  0  0  0
 19 40  1  0  0  0  0
 19 41  1  0  0  0  0
M  END
> <s_m_source_file>
AV-unprocessed.smi

> <i_m_source_file_index>
2517

> <i_lp_mmshare_version>
43012

> <i_f3d_flags>
0

> <s_epik_input>
W0NIM11bQ0gyXWMxbm4oW0NIM10pW2NIXWMxW05IXUMoPU8pW05IXVtDSDJdQzIoT1tDSDNdKVtDSDJdW0NIMl1bQ0gyXTI=

> <s_epik_cmdline>
J2VwaWtfcHl0aG9uJywgJy1waCcsICc3LjAnLCAnLXRuJywgJzgnLCAnLW1hJywgJzIwMCcsICctbWV0YWxfYmluZGluZycsICctaW1hZScsICc8aW5maWxlLm1hZT4nLCAnLW9tYWUnLCAnPG91dGZpbGUubWFlPic=

> <r_lp_tautomer_probability>
1

> <r_epik_Ionization_Penalty>
0.000729918

> <r_epik_Ionization_Penalty_Charging>
0

> <r_epik_Ionization_Penalty_Neutral>
0.000729918

> <r_epik_State_Penalty>
-0

> <r_epik_Charging_Adjusted_Penalty>
0

> <i_epik_Tot_Q>
0

> <i_epik_Tot_abs_Q>
0

> <r_epik_Metal_State_Penalty>
-0

> <b_epik_Metal_Only>
0

> <s_lp_Force_Field>
OPLS_2005

> <r_lp_Energy>
14.833

> <b_lp_Chiralities_Consistent>
1

> <s_lp_Variant>
AV-unprocessed.smi:2517-1

> <Gold.Version>
5.8.1

> <Gold.Id.Protein>
6NUR|6NUR_protein|mol2

> <Gold.PLP.Fitness>
37.7395

> <Gold.PLP.PLP>
-37.2916

> <Gold.PLP.part.hbond>
-1.0000

> <Gold.PLP.part.metal>
0.0000

> <Gold.PLP.part.buried>
-1.9777

> <Gold.PLP.part.nonpolar>
-33.4612

> <Gold.PLP.part.repulsive>
0.3028

> <Gold.PLP.ligand.clash>
0.0000

> <Gold.PLP.ligand.torsion>
0.6518

> <Gold.PLP.Chemscore.Hbond>
0.4888

> <Gold.PLP.Chemscore.CHOScore>
0.0000

> <Gold.PLP.Chemscore.Metal>
0.0000

> <Gold.Chemscore.Hbonds>
donor molecule, donor type, donor heavy atom, donor atom, acceptor molecule, acceptor atom, score
      P1  H  7989  7998       L1    11  0.46

> <Gold.PLP.Chemscore.Internal.Correction>
0.2851

> <Gold.Rescore>
     Score         DG    S(hbond)    S(metal)    S(lipo)     H(rot)  DE(clash)    DE(int)     intcor
     14.43     -15.37       0.70        0.00      98.31       1.55       0.26       0.68       ----

> <Gold.Chemscore.Fitness>
14.4344

> <Gold.Chemscore.DG>
-15.3685

> <Gold.Chemscore.ZeroCoef>
-5.4800

> <Gold.Chemscore.Hbond>
0.7044

> <Gold.Chemscore.Metal>
0.0000

> <Gold.Chemscore.Lipo>
98.3053

> <Gold.Chemscore.Internal_Hbond>
0.0000

> <Gold.Chemscore.DEClash>
0.2572

> <Gold.Chemscore.DEInternal>
0.6768

> <Gold.Chemscore.Rot>
1.5493

> <Gold.Chemscore.Internal.Correction>
   9.000000E+99

> <Gold.Chemscore.Hbonds>
donor molecule, donor type, donor heavy atom, donor atom, acceptor molecule, acceptor atom, score
      P1  H  7989  7998       L1    11  0.44

> <Gold.Chemscore.Hbond.Weighted>
-2.3529

> <Gold.Chemscore.Metal.Weighted>
-0.0000

> <Gold.Chemscore.Lipo.Weighted>
-11.5017

> <Gold.Chemscore.Internal_Hbond.Weighted>
0.0000

> <Gold.Chemscore.DEClash.Weighted>
0.2572

> <Gold.Chemscore.DEInternal.Weighted>
0.6768

> <Gold.Chemscore.Rot.Weighted>
3.9661

> <Gold.Chemscore.Internal.Correction.Weighted>
   9.000000E+99

> <Gold.Protein.RotatedTorsions>
[ 6907 6896 6895 6894 ] final  139.76 input  -60.11 | X-H torsion
[ 7974 7965 7964 7962 ] final  141.03 input  175.53 | X-H torsion
[ 8008 7997 7996 7995 ] final   98.42 input   59.86 | X-H torsion
[ 10167 10162 10161 10158 ] final  151.98 input  -65.29 | X-H torsion
[ 10718 10713 10712 10709 ] final  161.65 input   66.30 | X-H torsion
[ 10763 10752 10751 10750 ] final  -47.76 input  -60.55 | X-H torsion
[ 11005 11000 10999 10996 ] final   62.34 input  -57.11 | X-H torsion

> <Gold.Protein.ActiveResidues>
 VAL166  LYS551  ARG553  GLY616  TRP617  ASP618  TYR619  PRO620  LYS621  CYS622 
 ASP623  PHE694  ASN695  SER759  ASP760  ASP761  ALA762  ILE779  LEU786  VAL792 
 PHE793  MET794  SER795  GLU796  ALA797  LYS798  CYS799  TRP800  GLU811  SER814 

> <Gold.Protein.RotatedAtoms>
  152.2511  133.5215  159.5325 H   0  0  0  0  0  0  0  0  0  0  0  0  # atno 6907 bound_to 6896
  150.7094  134.0959  159.3957 H   0  0  0  0  0  0  0  0  0  0  0  0  # atno 6908 bound_to 6896
  151.8879  135.0428  160.0546 H   0  0  0  0  0  0  0  0  0  0  0  0  # atno 6909 bound_to 6896
  144.9132  139.5264  143.5698 H   0  0  0  0  0  0  0  0  0  0  0  0  # atno 7974 bound_to 7965
  156.1003  140.3244  155.7932 H   0  0  0  0  0  0  0  0  0  0  0  0  # atno 8008 bound_to 7997
  155.4849  140.0557  157.2979 H   0  0  0  0  0  0  0  0  0  0  0  0  # atno 8009 bound_to 7997
  154.4692  140.2003  156.0053 H   0  0  0  0  0  0  0  0  0  0  0  0  # atno 8010 bound_to 7997
  139.4836  144.5396  151.7588 H   0  0  0  0  0  0  0  0  0  0  0  0  # atno 10167 bound_to 10162
  157.1336  131.0523  151.2360 H   0  0  0  0  0  0  0  0  0  0  0  0  # atno 10718 bound_to 10713
  154.0666  135.6610  153.4819 H   0  0  0  0  0  0  0  0  0  0  0  0  # atno 10763 bound_to 10752
  153.0406  135.5147  154.7607 H   0  0  0  0  0  0  0  0  0  0  0  0  # atno 10764 bound_to 10752
  154.6660  135.3022  154.9772 H   0  0  0  0  0  0  0  0  0  0  0  0  # atno 10765 bound_to 10752
  140.0099  134.6312  155.9797 H   0  0  0  0  0  0  0  0  0  0  0  0  # atno 11005 bound_to 11000
  146.3169  139.7955  142.8976 LP  0  0  0  0  0  0  0  0  0  0  0  0  # atno 17320 bound_to 7965
  145.3418  141.0289  143.3388 LP  0  0  0  0  0  0  0  0  0  0  0  0  # atno 17321 bound_to 7965
  140.4933  144.1278  150.5955 LP  0  0  0  0  0  0  0  0  0  0  0  0  # atno 17342 bound_to 10162
  140.4146  143.2640  151.9791 LP  0  0  0  0  0  0  0  0  0  0  0  0  # atno 17343 bound_to 10162
  157.4370  130.7523  149.7037 LP  0  0  0  0  0  0  0  0  0  0  0  0  # atno 17370 bound_to 10713
  155.9803  130.4031  150.3538 LP  0  0  0  0  0  0  0  0  0  0  0  0  # atno 17371 bound_to 10713
  141.1703  133.6537  156.4629 LP  0  0  0  0  0  0  0  0  0  0  0  0  # atno 17394 bound_to 11000
  140.4573  134.6873  157.5069 LP  0  0  0  0  0  0  0  0  0  0  0  0  # atno 17395 bound_to 11000

$$$$
