AV-unprocessed.smi:2090|AV-procd|sdf|8534|dock2
  -GOLD-   2272011253D 1   1.00000     0.00000
 Structure written by MMmdl.
 41 42  0  0  0  0  0  0  0  0  3 V2000
  149.6689  140.6239  155.3078 C   0  0  0  0  0  0  0  0  0  0  0  0
  150.4860  139.3880  155.1427 C   0  0  0  0  0  0  0  0  0  0  0  0
  150.1854  138.0584  155.2323 C   0  0  0  0  0  0  0  0  0  0  0  0
  151.4270  137.4249  154.9521 C   0  0  0  0  0  0  0  0  0  0  0  0
  151.6491  136.1014  154.9307 N   0  5  0  0  0  0  0  0  0  0  0  0
  150.6750  135.2421  155.3082 C   0  0  0  0  0  0  0  0  0  0  0  0
  150.6717  134.5342  156.3180 O   0  0  0  0  0  0  0  0  0  0  0  0
  149.6380  135.1980  154.4615 N   0  0  0  0  0  0  0  0  0  0  0  0
  148.4591  134.3591  154.6256 C   0  0  0  0  0  0  0  0  0  0  0  0
  147.1896  135.1389  154.2508 C   0  0  0  0  0  0  0  0  0  0  0  0
  146.6270  134.7009  152.9490 N   0  3  2  0  0  0  0  0  0  0  0  0
  145.2997  135.3098  152.6753 C   0  0  0  0  0  0  0  0  0  0  0  0
  144.8044  134.9536  151.2633 C   0  0  0  0  0  0  0  0  0  0  0  0
  144.7455  133.4307  151.0589 C   0  0  1  0  0  0  0  0  0  0  0  0
  144.2837  133.0649  149.6411 C   0  0  0  0  0  0  0  0  0  0  0  0
  146.1202  132.8231  151.3850 C   0  0  0  0  0  0  0  0  0  0  0  0
  146.5889  133.2224  152.7946 C   0  0  0  0  0  0  0  0  0  0  0  0
  152.3993  138.2937  154.7305 N   0  0  0  0  0  0  0  0  0  0  0  0
  151.8021  139.5550  154.8427 O   0  0  0  0  0  0  0  0  0  0  0  0
  149.0765  140.5750  156.2213 H   0  0  0  0  0  0  0  0  0  0  0  0
  148.9862  140.7488  154.4672 H   0  0  0  0  0  0  0  0  0  0  0  0
  150.3020  141.5097  155.3640 H   0  0  0  0  0  0  0  0  0  0  0  0
  149.2298  137.6093  155.4578 H   0  0  0  0  0  0  0  0  0  0  0  0
  149.6751  135.7946  153.6478 H   0  0  0  0  0  0  0  0  0  0  0  0
  148.5495  133.4732  153.9947 H   0  0  0  0  0  0  0  0  0  0  0  0
  148.4233  134.0182  155.6604 H   0  0  0  0  0  0  0  0  0  0  0  0
  146.4320  135.0520  155.0314 H   0  0  0  0  0  0  0  0  0  0  0  0
  147.4516  136.1966  154.1927 H   0  0  0  0  0  0  0  0  0  0  0  0
  144.5816  134.9722  153.4242 H   0  0  0  0  0  0  0  0  0  0  0  0
  145.3657  136.3948  152.7647 H   0  0  0  0  0  0  0  0  0  0  0  0
  143.8189  135.3908  151.0995 H   0  0  0  0  0  0  0  0  0  0  0  0
  145.4675  135.4019  150.5217 H   0  0  0  0  0  0  0  0  0  0  0  0
  144.0174  133.0209  151.7608 H   0  0  0  0  0  0  0  0  0  0  0  0
  144.9685  133.4540  148.8869 H   0  0  0  0  0  0  0  0  0  0  0  0
  143.2939  133.4723  149.4335 H   0  0  0  0  0  0  0  0  0  0  0  0
  144.2280  131.9834  149.5136 H   0  0  0  0  0  0  0  0  0  0  0  0
  146.0753  131.7360  151.3095 H   0  0  0  0  0  0  0  0  0  0  0  0
  146.8561  133.1533  150.6503 H   0  0  0  0  0  0  0  0  0  0  0  0
  147.5758  132.7958  152.9701 H   0  0  0  0  0  0  0  0  0  0  0  0
  145.9232  132.7940  153.5456 H   0  0  0  0  0  0  0  0  0  0  0  0
  147.2506  135.0562  152.2382 H   0  0  0  0  0  0  0  0  0  0  0  0
  1  2  1  0  0  0  0
  1 20  1  0  0  0  0
  1 21  1  0  0  0  0
  1 22  1  0  0  0  0
  2 19  1  0  0  0  0
  2  3  2  0  0  0  0
  3  4  1  0  0  0  0
  3 23  1  0  0  0  0
  4  5  1  0  0  0  0
  4 18  2  0  0  0  0
  5  6  1  0  0  0  0
  6  7  2  0  0  0  0
  6  8  1  0  0  0  0
  8  9  1  0  0  0  0
  8 24  1  0  0  0  0
  9 10  1  0  0  0  0
  9 25  1  0  0  0  0
  9 26  1  0  0  0  0
 10 11  1  0  0  0  0
 10 27  1  0  0  0  0
 10 28  1  0  0  0  0
 11 17  1  0  0  0  0
 11 12  1  0  0  0  0
 11 41  1  0  0  0  0
 12 13  1  0  0  0  0
 12 29  1  0  0  0  0
 12 30  1  0  0  0  0
 13 14  1  0  0  0  0
 13 31  1  0  0  0  0
 13 32  1  0  0  0  0
 14 15  1  0  0  0  0
 14 16  1  0  0  0  0
 14 33  1  0  0  0  0
 15 34  1  0  0  0  0
 15 35  1  0  0  0  0
 15 36  1  0  0  0  0
 16 17  1  0  0  0  0
 16 37  1  0  0  0  0
 16 38  1  0  0  0  0
 17 39  1  0  0  0  0
 17 40  1  0  0  0  0
 18 19  1  0  0  0  0
M  CHG  1   5  -1
M  CHG  1  11   1
M  END
> <s_m_source_file>
AV-unprocessed.smi

> <i_m_source_file_index>
2090

> <i_lp_mmshare_version>
43012

> <i_f3d_flags>
0

> <s_epik_input>
W0NIM11jMVtjSF1jKG5vMSlbTkhdQyg9TylbTkhdW0NIMl1bQ0gyXU4yW0NIMl1bQ0gyXVtDSF0oW0NIM10pW0NIMl1bQ0gyXTI=

> <s_epik_cmdline>
J2VwaWtfcHl0aG9uJywgJy1waCcsICc3LjAnLCAnLXRuJywgJzgnLCAnLW1hJywgJzIwMCcsICctbWV0YWxfYmluZGluZycsICctaW1hZScsICc8aW5maWxlLm1hZT4nLCAnLW9tYWUnLCAnPG91dGZpbGUubWFlPic=

> <r_epik_Ionization_Penalty>
6.22503

> <r_epik_Ionization_Penalty_Charging>
6.22494

> <r_epik_Ionization_Penalty_Neutral>
9.3589e-05

> <r_epik_State_Penalty>
6.22491

> <r_epik_Charging_Adjusted_Penalty>
12.4498

> <i_epik_Tot_Q>
0

> <i_epik_Tot_abs_Q>
2

> <r_epik_Metal_State_Penalty>
2.16853

> <b_epik_Metal_Only>
1

> <s_lp_Force_Field>
OPLS_2005

> <r_lp_Energy>
5.4778

> <b_lp_Chiralities_Consistent>
1

> <s_lp_Variant>
AV-unprocessed.smi:2090-3

> <Gold.Version>
5.8.1

> <Gold.Id.Protein>
6NUR|6NUR_protein|mol2

> <Gold.PLP.Fitness>
45.6613

> <Gold.PLP.PLP>
-30.6915

> <Gold.PLP.part.hbond>
-4.0000

> <Gold.PLP.part.metal>
0.0000

> <Gold.PLP.part.buried>
-4.4372

> <Gold.PLP.part.nonpolar>
-22.4904

> <Gold.PLP.part.repulsive>
0.2842

> <Gold.PLP.ligand.clash>
0.0000

> <Gold.PLP.ligand.torsion>
1.1972

> <Gold.PLP.Chemscore.Hbond>
5.7680

> <Gold.PLP.Chemscore.CHOScore>
0.0000

> <Gold.PLP.Chemscore.Metal>
0.0000

> <Gold.Chemscore.Hbonds>
donor molecule, donor type, donor heavy atom, donor atom, acceptor molecule, acceptor atom, score
      L1  H     8    24       P1  7948  0.86
      L1  H    11    41       P1  7948  1.69
      P1  H  7989  7998       L1    19  1.00
      P1  H 10752 10764       L1     5  1.72

> <Gold.PLP.Chemscore.Internal.Correction>
0.0602

> <Gold.Rescore>
     Score         DG    S(hbond)    S(metal)    S(lipo)     H(rot)  DE(clash)    DE(int)     intcor
     17.42     -18.90       3.28        0.00      54.66       1.54       0.25       1.24       ----

> <Gold.Chemscore.Fitness>
17.4169

> <Gold.Chemscore.DG>
-18.9018

> <Gold.Chemscore.ZeroCoef>
-5.4800

> <Gold.Chemscore.Hbond>
3.2848

> <Gold.Chemscore.Metal>
0.0000

> <Gold.Chemscore.Lipo>
54.6614

> <Gold.Chemscore.Internal_Hbond>
0.0000

> <Gold.Chemscore.DEClash>
0.2489

> <Gold.Chemscore.DEInternal>
1.2361

> <Gold.Chemscore.Rot>
1.5409

> <Gold.Chemscore.Internal.Correction>
   9.000000E+99

> <Gold.Chemscore.Hbonds>
donor molecule, donor type, donor heavy atom, donor atom, acceptor molecule, acceptor atom, score
      L1  H     8    24       P1  7948  0.16
      L1  H    11    41       P1  7948  0.79
      P1  H  7989  7998       L1    19  0.25
      P1  H 10752 10764       L1     5  0.76

> <Gold.Chemscore.Hbond.Weighted>
-10.9711

> <Gold.Chemscore.Metal.Weighted>
-0.0000

> <Gold.Chemscore.Lipo.Weighted>
-6.3954

> <Gold.Chemscore.Internal_Hbond.Weighted>
0.0000

> <Gold.Chemscore.DEClash.Weighted>
0.2489

> <Gold.Chemscore.DEInternal.Weighted>
1.2361

> <Gold.Chemscore.Rot.Weighted>
3.9446

> <Gold.Chemscore.Internal.Correction.Weighted>
   9.000000E+99

> <Gold.Protein.RotatedTorsions>
[ 6907 6896 6895 6894 ] final  -67.77 input  -60.11 | X-H torsion
[ 7974 7965 7964 7962 ] final  143.50 input  175.53 | X-H torsion
[ 8008 7997 7996 7995 ] final -115.97 input   59.86 | X-H torsion
[ 10167 10162 10161 10158 ] final   48.85 input  -65.29 | X-H torsion
[ 10718 10713 10712 10709 ] final -133.46 input   66.30 | X-H torsion
[ 10763 10752 10751 10750 ] final  -43.31 input  -60.55 | X-H torsion
[ 11005 11000 10999 10996 ] final  -35.46 input  -57.11 | X-H torsion

> <Gold.Protein.ActiveResidues>
 VAL166  LYS551  ARG553  GLY616  TRP617  ASP618  TYR619  PRO620  LYS621  CYS622 
 ASP623  PHE694  ASN695  SER759  ASP760  ASP761  ALA762  ILE779  LEU786  VAL792 
 PHE793  MET794  SER795  GLU796  ALA797  LYS798  CYS799  TRP800  GLU811  SER814 

> <Gold.Protein.RotatedAtoms>
  150.7391  134.5834  159.5949 H   0  0  0  0  0  0  0  0  0  0  0  0  # atno 6907 bound_to 6896
  152.3241  134.7340  160.0315 H   0  0  0  0  0  0  0  0  0  0  0  0  # atno 6908 bound_to 6896
  151.7845  133.3317  159.3518 H   0  0  0  0  0  0  0  0  0  0  0  0  # atno 6909 bound_to 6896
  144.8916  139.5551  143.5796 H   0  0  0  0  0  0  0  0  0  0  0  0  # atno 7974 bound_to 7965
  155.0605  140.0393  157.2575 H   0  0  0  0  0  0  0  0  0  0  0  0  # atno 8008 bound_to 7997
  154.7063  140.2683  155.6647 H   0  0  0  0  0  0  0  0  0  0  0  0  # atno 8009 bound_to 7997
  156.2776  140.2730  156.1690 H   0  0  0  0  0  0  0  0  0  0  0  0  # atno 8010 bound_to 7997
  140.2890  144.3068  150.6245 H   0  0  0  0  0  0  0  0  0  0  0  0  # atno 10167 bound_to 10162
  156.2451  130.7119  151.0996 H   0  0  0  0  0  0  0  0  0  0  0  0  # atno 10718 bound_to 10713
  153.9935  135.6702  153.4755 H   0  0  0  0  0  0  0  0  0  0  0  0  # atno 10763 bound_to 10752
  153.0694  135.4982  154.8268 H   0  0  0  0  0  0  0  0  0  0  0  0  # atno 10764 bound_to 10752
  154.7095  135.3094  154.9181 H   0  0  0  0  0  0  0  0  0  0  0  0  # atno 10765 bound_to 10752
  140.9797  133.7063  156.1663 H   0  0  0  0  0  0  0  0  0  0  0  0  # atno 11005 bound_to 11000
  146.3057  139.7571  142.9058 LP  0  0  0  0  0  0  0  0  0  0  0  0  # atno 17320 bound_to 7965
  145.3774  141.0353  143.3197 LP  0  0  0  0  0  0  0  0  0  0  0  0  # atno 17321 bound_to 7965
  140.5748  143.2177  151.7535 LP  0  0  0  0  0  0  0  0  0  0  0  0  # atno 17342 bound_to 10162
  139.4943  144.4165  152.0024 LP  0  0  0  0  0  0  0  0  0  0  0  0  # atno 17343 bound_to 10162
  157.7192  131.0692  150.6206 LP  0  0  0  0  0  0  0  0  0  0  0  0  # atno 17370 bound_to 10713
  156.6282  130.4425  149.5796 LP  0  0  0  0  0  0  0  0  0  0  0  0  # atno 17371 bound_to 10713
  140.7204  134.4364  157.5575 LP  0  0  0  0  0  0  0  0  0  0  0  0  # atno 17394 bound_to 11000
  139.8945  134.8705  156.2173 LP  0  0  0  0  0  0  0  0  0  0  0  0  # atno 17395 bound_to 11000

$$$$
