AV-unprocessed.smi:171|AV-procd|sdf|1418|dock3
  -GOLD-   2262019183D 1   1.00000     0.00000
 Structure written by MMmdl.
 56 59  0  0  0  0  0  0  0  0  1 V2000
  147.6785  136.6793  158.2315 C   0  0  0  0  0  0  0  0  0  0  0  0
  147.7664  135.6637  157.0801 C   0  0  0  0  0  0  0  0  0  0  0  0
  148.6330  134.4649  157.4974 C   0  0  0  0  0  0  0  0  0  0  0  0
  148.2943  136.2927  155.7626 C   0  0  0  0  0  0  0  0  0  0  0  0
  147.4197  137.4131  155.1271 C   0  0  2  0  0  0  0  0  0  0  0  0
  146.0517  136.8973  154.6247 C   0  0  0  0  0  0  0  0  0  0  0  0
  145.3748  136.1622  155.3412 O   0  0  0  0  0  0  0  0  0  0  0  0
  145.6084  137.2877  153.4173 N   0  0  0  0  0  0  0  0  0  0  0  0
  146.3315  138.1507  152.4877 C   0  0  0  0  0  0  0  0  0  0  0  0
  147.4018  138.9970  153.1906 C   0  0  0  0  0  0  0  0  0  0  0  0
  148.1695  138.1622  154.1046 N   0  0  0  0  0  0  0  0  0  0  0  0
  149.3217  138.7468  154.5017 C   0  0  0  0  0  0  0  0  0  0  0  0
  150.5169  138.1811  154.1911 N   0  0  0  0  0  0  0  0  0  0  0  0
  151.6520  138.7787  154.5675 C   0  0  0  0  0  0  0  0  0  0  0  0
  151.8118  139.9202  155.2419 N   0  0  0  0  0  0  0  0  0  0  0  0
  150.6096  140.4842  155.5553 C   0  0  0  0  0  0  0  0  0  0  0  0
  149.3273  139.9602  155.2357 C   0  0  0  0  0  0  0  0  0  0  0  0
  148.3313  140.7976  155.7199 N   0  0  0  0  0  0  0  0  0  0  0  0
  148.9890  141.7721  156.2860 C   0  0  0  0  0  0  0  0  0  0  0  0
  150.3609  141.6703  156.2233 N   0  0  0  0  0  0  0  0  0  0  0  0
  151.3272  142.6190  156.7515 C   0  0  0  0  0  0  0  0  0  0  0  0
  151.5148  142.5093  158.2835 C   0  0  1  0  0  0  0  0  0  0  0  0
  150.2379  142.5560  158.8996 O   0  0  0  0  0  0  0  0  0  0  0  0
  152.2214  141.2402  158.7365 C   0  0  0  0  0  0  0  0  0  0  0  0
  152.7883  141.6424  160.0927 C   0  0  0  0  0  0  0  0  0  0  0  0
  153.1461  143.0116  159.9514 O   0  0  0  0  0  0  0  0  0  0  0  0
  152.4412  143.6012  158.8595 C   0  0  2  0  0  0  0  0  0  0  0  0
  151.7720  144.9191  159.2802 C   0  0  0  0  0  0  0  0  0  0  0  0
  148.6472  137.1375  158.4329 H   0  0  0  0  0  0  0  0  0  0  0  0
  147.3429  136.1993  159.1511 H   0  0  0  0  0  0  0  0  0  0  0  0
  146.9697  137.4769  158.0143 H   0  0  0  0  0  0  0  0  0  0  0  0
  146.7627  135.2727  156.9166 H   0  0  0  0  0  0  0  0  0  0  0  0
  149.6645  134.7662  157.6822 H   0  0  0  0  0  0  0  0  0  0  0  0
  148.6416  133.6969  156.7228 H   0  0  0  0  0  0  0  0  0  0  0  0
  148.2519  134.0017  158.4079 H   0  0  0  0  0  0  0  0  0  0  0  0
  149.3140  136.6502  155.9124 H   0  0  0  0  0  0  0  0  0  0  0  0
  148.4051  135.5036  155.0178 H   0  0  0  0  0  0  0  0  0  0  0  0
  147.1630  138.1145  155.9226 H   0  0  0  0  0  0  0  0  0  0  0  0
  144.7070  136.9473  153.1152 H   0  0  0  0  0  0  0  0  0  0  0  0
  146.8016  137.5119  151.7392 H   0  0  0  0  0  0  0  0  0  0  0  0
  145.6252  138.7912  151.9591 H   0  0  0  0  0  0  0  0  0  0  0  0
  148.0503  139.4640  152.4470 H   0  0  0  0  0  0  0  0  0  0  0  0
  146.9299  139.8030  153.7553 H   0  0  0  0  0  0  0  0  0  0  0  0
  152.5629  138.2730  154.2828 H   0  0  0  0  0  0  0  0  0  0  0  0
  148.4874  142.6039  156.7590 H   0  0  0  0  0  0  0  0  0  0  0  0
  152.2757  142.4467  156.2414 H   0  0  0  0  0  0  0  0  0  0  0  0
  151.0126  143.6269  156.4776 H   0  0  0  0  0  0  0  0  0  0  0  0
  149.6017  142.2046  158.2955 H   0  0  0  0  0  0  0  0  0  0  0  0
  151.5701  140.3662  158.7861 H   0  0  0  0  0  0  0  0  0  0  0  0
  153.0443  141.0071  158.0595 H   0  0  0  0  0  0  0  0  0  0  0  0
  152.0255  141.5555  160.8675 H   0  0  0  0  0  0  0  0  0  0  0  0
  153.6430  141.0337  160.3886 H   0  0  0  0  0  0  0  0  0  0  0  0
  153.2058  143.8322  158.1167 H   0  0  0  0  0  0  0  0  0  0  0  0
  151.2285  145.3654  158.4472 H   0  0  0  0  0  0  0  0  0  0  0  0
  152.5185  145.6404  159.6129 H   0  0  0  0  0  0  0  0  0  0  0  0
  151.0706  144.7723  160.1017 H   0  0  0  0  0  0  0  0  0  0  0  0
  1  2  1  0  0  0  0
  1 29  1  0  0  0  0
  1 30  1  0  0  0  0
  1 31  1  0  0  0  0
  2  3  1  0  0  0  0
  2  4  1  0  0  0  0
  2 32  1  0  0  0  0
  3 33  1  0  0  0  0
  3 34  1  0  0  0  0
  3 35  1  0  0  0  0
  4  5  1  0  0  0  0
  4 36  1  0  0  0  0
  4 37  1  0  0  0  0
  5 11  1  0  0  0  0
  5  6  1  0  0  0  0
  5 38  1  0  0  0  0
  6  7  2  0  0  0  0
  6  8  1  0  0  0  0
  8  9  1  0  0  0  0
  8 39  1  0  0  0  0
  9 10  1  0  0  0  0
  9 40  1  0  0  0  0
  9 41  1  0  0  0  0
 10 11  1  0  0  0  0
 10 42  1  0  0  0  0
 10 43  1  0  0  0  0
 11 12  1  0  0  0  0
 12 17  1  0  0  0  0
 12 13  2  0  0  0  0
 13 14  1  0  0  0  0
 14 15  2  0  0  0  0
 14 44  1  0  0  0  0
 15 16  1  0  0  0  0
 16 20  1  0  0  0  0
 16 17  2  0  0  0  0
 17 18  1  0  0  0  0
 18 19  2  0  0  0  0
 19 20  1  0  0  0  0
 19 45  1  0  0  0  0
 20 21  1  0  0  0  0
 21 22  1  0  0  0  0
 21 46  1  0  0  0  0
 21 47  1  0  0  0  0
 22 27  1  0  0  0  0
 22 23  1  0  0  0  0
 22 24  1  0  0  0  0
 23 48  1  0  0  0  0
 24 25  1  0  0  0  0
 24 49  1  0  0  0  0
 24 50  1  0  0  0  0
 25 26  1  0  0  0  0
 25 51  1  0  0  0  0
 25 52  1  0  0  0  0
 26 27  1  0  0  0  0
 27 28  1  0  0  0  0
 27 53  1  0  0  0  0
 28 54  1  0  0  0  0
 28 55  1  0  0  0  0
 28 56  1  0  0  0  0
M  END
> <s_m_source_file>
AV-unprocessed.smi

> <i_m_source_file_index>
171

> <i_lp_mmshare_version>
43012

> <i_f3d_flags>
0

> <s_epik_input>
W0NIM11bQ0hdKFtDSDNdKVtDSDJdW0NAQEhdMUMoPU8pW05IXVtDSDJdW0NIMl1OMWMobltjSF1uMiljKGMyMyluW2NIXW4zW0NIMl1bQ0BAXTQoW09IXSlbQ0gyXVtDSDJdT1tDQEhdNFtDSDNd

> <s_epik_cmdline>
J2VwaWtfcHl0aG9uJywgJy1waCcsICc3LjAnLCAnLXRuJywgJzgnLCAnLW1hJywgJzIwMCcsICctbWV0YWxfYmluZGluZycsICctaW1hZScsICc8aW5maWxlLm1hZT4nLCAnLW9tYWUnLCAnPG91dGZpbGUubWFlPic=

> <r_lp_tautomer_probability>
1

> <r_epik_Ionization_Penalty>
0.000670584

> <r_epik_Ionization_Penalty_Charging>
0

> <r_epik_Ionization_Penalty_Neutral>
0.000670584

> <r_epik_State_Penalty>
0.000304767

> <r_epik_Charging_Adjusted_Penalty>
0.000304767

> <i_epik_Tot_Q>
0

> <i_epik_Tot_abs_Q>
0

> <r_epik_Metal_State_Penalty>
-0

> <b_epik_Metal_Only>
0

> <s_lp_Force_Field>
OPLS_2005

> <r_lp_Energy>
41.3949

> <b_lp_Chiralities_Consistent>
1

> <s_lp_Variant>
AV-unprocessed.smi:171-5

> <Gold.Version>
5.8.1

> <Gold.Id.Protein>
6NUR|6NUR_protein|mol2

> <Gold.PLP.Fitness>
40.6868

> <Gold.PLP.PLP>
-39.0334

> <Gold.PLP.part.hbond>
-1.4508

> <Gold.PLP.part.metal>
0.0000

> <Gold.PLP.part.buried>
-5.4138

> <Gold.PLP.part.nonpolar>
-33.1102

> <Gold.PLP.part.repulsive>
0.9223

> <Gold.PLP.ligand.clash>
0.0000

> <Gold.PLP.ligand.torsion>
0.6117

> <Gold.PLP.Chemscore.Hbond>
0.1322

> <Gold.PLP.Chemscore.CHOScore>
0.6817

> <Gold.PLP.Chemscore.Metal>
0.0000

> <Gold.Chemscore.Hbonds>
donor molecule, donor type, donor heavy atom, donor atom, acceptor molecule, acceptor atom, score
      P1  H  7989  7998       L1    15  0.13
      L1  C    19    45       P1  8028  0.68

> <Gold.PLP.Chemscore.Internal.Correction>
0.4351

> <Gold.Rescore>
     Score         DG    S(hbond)    S(metal)    S(lipo)     H(rot)  DE(clash)    DE(int)     intcor
      8.15      -9.20       0.00        0.00      88.84       2.61       0.07       0.98       ----

> <Gold.Chemscore.Fitness>
8.1494

> <Gold.Chemscore.DG>
-9.1997

> <Gold.Chemscore.ZeroCoef>
-5.4800

> <Gold.Chemscore.Hbond>
0.0000

> <Gold.Chemscore.Metal>
0.0000

> <Gold.Chemscore.Lipo>
88.8418

> <Gold.Chemscore.Internal_Hbond>
0.0000

> <Gold.Chemscore.DEClash>
0.0724

> <Gold.Chemscore.DEInternal>
0.9779

> <Gold.Chemscore.Rot>
2.6074

> <Gold.Chemscore.Internal.Correction>
   9.000000E+99

> <Gold.Chemscore.Hbond.Weighted>
-0.0000

> <Gold.Chemscore.Metal.Weighted>
-0.0000

> <Gold.Chemscore.Lipo.Weighted>
-10.3945

> <Gold.Chemscore.Internal_Hbond.Weighted>
0.0000

> <Gold.Chemscore.DEClash.Weighted>
0.0724

> <Gold.Chemscore.DEInternal.Weighted>
0.9779

> <Gold.Chemscore.Rot.Weighted>
6.6748

> <Gold.Chemscore.Internal.Correction.Weighted>
   9.000000E+99

> <Gold.Protein.RotatedTorsions>
[ 6907 6896 6895 6894 ] final -156.25 input  -60.11 | X-H torsion
[ 7974 7965 7964 7962 ] final   43.11 input  175.53 | X-H torsion
[ 8008 7997 7996 7995 ] final  115.30 input   59.86 | X-H torsion
[ 10167 10162 10161 10158 ] final  -74.25 input  -65.29 | X-H torsion
[ 10718 10713 10712 10709 ] final  124.10 input   66.30 | X-H torsion
[ 10763 10752 10751 10750 ] final   19.89 input  -60.55 | X-H torsion
[ 11005 11000 10999 10996 ] final   39.02 input  -57.11 | X-H torsion

> <Gold.Protein.ActiveResidues>
 VAL166  LYS551  ARG553  GLY616  TRP617  ASP618  TYR619  PRO620  LYS621  CYS622 
 ASP623  PHE694  ASN695  SER759  ASP760  ASP761  ALA762  ILE779  LEU786  VAL792 
 PHE793  MET794  SER795  GLU796  ALA797  LYS798  CYS799  TRP800  GLU811  SER814 

> <Gold.Protein.RotatedAtoms>
  151.2847  133.4193  159.2628 H   0  0  0  0  0  0  0  0  0  0  0  0  # atno 6907 bound_to 6896
  151.0330  134.9553  159.8131 H   0  0  0  0  0  0  0  0  0  0  0  0  # atno 6908 bound_to 6896
  152.5349  134.2808  159.9059 H   0  0  0  0  0  0  0  0  0  0  0  0  # atno 6909 bound_to 6896
  146.0684  139.5224  142.9614 H   0  0  0  0  0  0  0  0  0  0  0  0  # atno 7974 bound_to 7965
  156.2373  140.2941  156.0347 H   0  0  0  0  0  0  0  0  0  0  0  0  # atno 8008 bound_to 7997
  155.2055  140.0411  157.2942 H   0  0  0  0  0  0  0  0  0  0  0  0  # atno 8009 bound_to 7997
  154.6102  140.2450  155.7686 H   0  0  0  0  0  0  0  0  0  0  0  0  # atno 8010 bound_to 7997
  140.5043  143.2355  151.7700 H   0  0  0  0  0  0  0  0  0  0  0  0  # atno 10167 bound_to 10162
  157.5612  131.1089  150.8535 H   0  0  0  0  0  0  0  0  0  0  0  0  # atno 10718 bound_to 10713
  153.1123  135.6699  153.9479 H   0  0  0  0  0  0  0  0  0  0  0  0  # atno 10763 bound_to 10752
  153.9018  135.3035  155.3450 H   0  0  0  0  0  0  0  0  0  0  0  0  # atno 10764 bound_to 10752
  154.7542  135.5020  153.9421 H   0  0  0  0  0  0  0  0  0  0  0  0  # atno 10765 bound_to 10752
  140.2068  134.3803  155.8068 H   0  0  0  0  0  0  0  0  0  0  0  0  # atno 11005 bound_to 11000
  145.6436  141.0279  143.1798 LP  0  0  0  0  0  0  0  0  0  0  0  0  # atno 17320 bound_to 7965
  144.7216  139.8011  143.7380 LP  0  0  0  0  0  0  0  0  0  0  0  0  # atno 17321 bound_to 7965
  139.4880  144.4479  151.9688 LP  0  0  0  0  0  0  0  0  0  0  0  0  # atno 17342 bound_to 10162
  140.3569  144.3021  150.5940 LP  0  0  0  0  0  0  0  0  0  0  0  0  # atno 17343 bound_to 10162
  156.9032  130.5254  149.5282 LP  0  0  0  0  0  0  0  0  0  0  0  0  # atno 17370 bound_to 10713
  156.0664  130.5707  150.9298 LP  0  0  0  0  0  0  0  0  0  0  0  0  # atno 17371 bound_to 10713
  141.2227  133.7122  156.8351 LP  0  0  0  0  0  0  0  0  0  0  0  0  # atno 17394 bound_to 11000
  140.1994  134.8908  157.3151 LP  0  0  0  0  0  0  0  0  0  0  0  0  # atno 17395 bound_to 11000

$$$$
