AV-unprocessed.smi:714|AV-procd|sdf|3482|dock8
  -GOLD-   22720 0473D 1   1.00000     0.00000
 Structure written by MMmdl.
 38 39  0  0  0  0  0  0  0  0  1 V2000
  152.7906  143.0561  162.3054 C   0  0  0  0  0  0  0  0  0  0  0  0
  152.8098  142.8884  161.0960 C   0  0  0  0  0  0  0  0  0  0  0  0
  152.8155  142.6761  159.6388 C   0  0  0  0  0  0  0  0  0  0  0  0
  151.7681  141.7590  159.2039 N   0  0  0  0  0  0  0  0  0  0  0  0
  151.9622  140.5779  158.5897 C   0  0  0  0  0  0  0  0  0  0  0  0
  153.0920  140.1471  158.3527 O   0  0  0  0  0  0  0  0  0  0  0  0
  150.7195  139.8856  158.2383 C   0  0  0  0  0  0  0  0  0  0  0  0
  149.6963  140.4740  157.3898 C   0  0  0  0  0  0  0  0  0  0  0  0
  148.5865  139.7795  157.0774 C   0  0  0  0  0  0  0  0  0  0  0  0
  148.3580  138.4197  157.5727 C   0  0  0  0  0  0  0  0  0  0  0  0
  147.3505  137.7864  157.2561 O   0  0  0  0  0  0  0  0  0  0  0  0
  149.3311  137.9050  158.3960 N   0  0  0  0  0  0  0  0  0  0  0  0
  149.2496  136.5507  159.0007 C   0  0  2  0  0  0  0  0  0  0  0  0
  148.9249  135.4479  157.9726 C   0  0  0  0  0  0  0  0  0  0  0  0
  147.7972  134.6091  158.5927 C   0  0  0  0  0  0  0  0  0  0  0  0
  147.3873  135.3260  159.7894 N   0  0  0  0  0  0  0  0  0  0  0  0
  146.2439  134.8661  160.5748 C   0  0  0  0  0  0  0  0  0  0  0  0
  146.6534  134.3668  161.9729 C   0  0  0  0  0  0  0  0  0  0  0  0
  145.5893  133.8302  162.5688 F   0  0  0  0  0  0  0  0  0  0  0  0
  147.6065  133.4384  161.8966 F   0  0  0  0  0  0  0  0  0  0  0  0
  147.0902  135.3821  162.7183 F   0  0  0  0  0  0  0  0  0  0  0  0
  148.1576  136.3861  160.0570 C   0  0  0  0  0  0  0  0  0  0  0  0
  148.0416  137.1420  161.0211 O   0  0  0  0  0  0  0  0  0  0  0  0
  150.4972  138.6398  158.7011 C   0  0  0  0  0  0  0  0  0  0  0  0
  152.7700  143.1996  163.3625 H   0  0  0  0  0  0  0  0  0  0  0  0
  152.7319  143.6440  159.1422 H   0  0  0  0  0  0  0  0  0  0  0  0
  153.7841  142.2582  159.3649 H   0  0  0  0  0  0  0  0  0  0  0  0
  150.8157  142.0492  159.3705 H   0  0  0  0  0  0  0  0  0  0  0  0
  149.8002  141.4723  156.9909 H   0  0  0  0  0  0  0  0  0  0  0  0
  147.8411  140.2368  156.4433 H   0  0  0  0  0  0  0  0  0  0  0  0
  150.1793  136.2851  159.5057 H   0  0  0  0  0  0  0  0  0  0  0  0
  148.6005  135.8547  157.0144 H   0  0  0  0  0  0  0  0  0  0  0  0
  149.8029  134.8345  157.7672 H   0  0  0  0  0  0  0  0  0  0  0  0
  146.9602  134.4947  157.9029 H   0  0  0  0  0  0  0  0  0  0  0  0
  148.1530  133.6146  158.8647 H   0  0  0  0  0  0  0  0  0  0  0  0
  145.5301  135.6849  160.6737 H   0  0  0  0  0  0  0  0  0  0  0  0
  145.7240  134.0748  160.0326 H   0  0  0  0  0  0  0  0  0  0  0  0
  151.2039  138.1213  159.3335 H   0  0  0  0  0  0  0  0  0  0  0  0
  1  2  3  0  0  0  0
  1 25  1  0  0  0  0
  2  3  1  0  0  0  0
  3  4  1  0  0  0  0
  3 26  1  0  0  0  0
  3 27  1  0  0  0  0
  4  5  1  0  0  0  0
  4 28  1  0  0  0  0
  5  6  2  0  0  0  0
  5  7  1  0  0  0  0
  7 24  2  0  0  0  0
  7  8  1  0  0  0  0
  8  9  2  0  0  0  0
  8 29  1  0  0  0  0
  9 10  1  0  0  0  0
  9 30  1  0  0  0  0
 10 11  2  0  0  0  0
 10 12  1  0  0  0  0
 12 13  1  0  0  0  0
 12 24  1  0  0  0  0
 13 22  1  0  0  0  0
 13 14  1  0  0  0  0
 13 31  1  0  0  0  0
 14 15  1  0  0  0  0
 14 32  1  0  0  0  0
 14 33  1  0  0  0  0
 15 16  1  0  0  0  0
 15 34  1  0  0  0  0
 15 35  1  0  0  0  0
 16 17  1  0  0  0  0
 16 22  1  0  0  0  0
 17 18  1  0  0  0  0
 17 36  1  0  0  0  0
 17 37  1  0  0  0  0
 18 19  1  0  0  0  0
 18 20  1  0  0  0  0
 18 21  1  0  0  0  0
 22 23  2  0  0  0  0
 24 38  1  0  0  0  0
M  END
> <s_m_source_file>
AV-unprocessed.smi

> <i_m_source_file_index>
714

> <i_lp_mmshare_version>
43012

> <i_f3d_flags>
0

> <s_epik_input>
W0NIXSNDW0NIMl1bTkhdQyg9TyljMVtjSF1bY0hdYyg9TyluKFtjSF0xKVtDQEBIXTJbQ0gyXVtDSDJdTihDMj1PKVtDSDJdQyhGKShGKUY=

> <s_epik_cmdline>
J2VwaWtfcHl0aG9uJywgJy1waCcsICc3LjAnLCAnLXRuJywgJzgnLCAnLW1hJywgJzIwMCcsICctbWV0YWxfYmluZGluZycsICctaW1hZScsICc8aW5maWxlLm1hZT4nLCAnLW9tYWUnLCAnPG91dGZpbGUubWFlPic=

> <r_lp_tautomer_probability>
1

> <r_epik_Ionization_Penalty>
2.95503e-06

> <r_epik_Ionization_Penalty_Charging>
5.74209e-08

> <r_epik_Ionization_Penalty_Neutral>
2.89761e-06

> <r_epik_State_Penalty>
-0

> <r_epik_Charging_Adjusted_Penalty>
5.74209e-08

> <i_epik_Tot_Q>
0

> <i_epik_Tot_abs_Q>
0

> <r_epik_Metal_State_Penalty>
-0

> <b_epik_Metal_Only>
0

> <s_lp_Force_Field>
OPLS_2005

> <r_lp_Energy>
34.0974

> <b_lp_Chiralities_Consistent>
1

> <s_lp_Variant>
AV-unprocessed.smi:714-1

> <Gold.Version>
5.8.1

> <Gold.Id.Protein>
6NUR|6NUR_protein|mol2

> <Gold.PLP.Fitness>
49.7063

> <Gold.PLP.PLP>
-44.1781

> <Gold.PLP.part.hbond>
-3.0000

> <Gold.PLP.part.metal>
0.0000

> <Gold.PLP.part.buried>
-4.9375

> <Gold.PLP.part.nonpolar>
-35.5233

> <Gold.PLP.part.repulsive>
0.1177

> <Gold.PLP.ligand.clash>
0.0000

> <Gold.PLP.ligand.torsion>
1.2914

> <Gold.PLP.Chemscore.Hbond>
2.6466

> <Gold.PLP.Chemscore.CHOScore>
0.0000

> <Gold.PLP.Chemscore.Metal>
0.0000

> <Gold.Chemscore.Hbonds>
donor molecule, donor type, donor heavy atom, donor atom, acceptor molecule, acceptor atom, score
      P1  H  6931  6943       L1    23  0.98
      P1  H  6934  6947       L1    23  0.67
      P1  H  7997  8009       L1     6  0.99

> <Gold.PLP.Chemscore.Internal.Correction>
0.1712

> <Gold.Rescore>
     Score         DG    S(hbond)    S(metal)    S(lipo)     H(rot)  DE(clash)    DE(int)     intcor
     15.63     -18.11       2.64        0.00      67.79       1.61       0.00       2.48       ----

> <Gold.Chemscore.Fitness>
15.6329

> <Gold.Chemscore.DG>
-18.1106

> <Gold.Chemscore.ZeroCoef>
-5.4800

> <Gold.Chemscore.Hbond>
2.6436

> <Gold.Chemscore.Metal>
0.0000

> <Gold.Chemscore.Lipo>
67.7931

> <Gold.Chemscore.Internal_Hbond>
0.0000

> <Gold.Chemscore.DEClash>
0.0015

> <Gold.Chemscore.DEInternal>
2.4762

> <Gold.Chemscore.Rot>
1.6136

> <Gold.Chemscore.Internal.Correction>
   9.000000E+99

> <Gold.Chemscore.Hbonds>
donor molecule, donor type, donor heavy atom, donor atom, acceptor molecule, acceptor atom, score
      P1  H  6931  6943       L1    23  0.93
      P1  H  6934  6947       L1    23  0.64
      P1  H  7997  8009       L1     6  0.90

> <Gold.Chemscore.Hbond.Weighted>
-8.8295

> <Gold.Chemscore.Metal.Weighted>
-0.0000

> <Gold.Chemscore.Lipo.Weighted>
-7.9318

> <Gold.Chemscore.Internal_Hbond.Weighted>
0.0000

> <Gold.Chemscore.DEClash.Weighted>
0.0015

> <Gold.Chemscore.DEInternal.Weighted>
2.4762

> <Gold.Chemscore.Rot.Weighted>
4.1308

> <Gold.Chemscore.Internal.Correction.Weighted>
   9.000000E+99

> <Gold.Protein.RotatedTorsions>
[ 6907 6896 6895 6894 ] final  -61.07 input  -60.11 | X-H torsion
[ 7974 7965 7964 7962 ] final   45.95 input  175.53 | X-H torsion
[ 8008 7997 7996 7995 ] final  158.97 input   59.86 | X-H torsion
[ 10167 10162 10161 10158 ] final -148.32 input  -65.29 | X-H torsion
[ 10718 10713 10712 10709 ] final -155.05 input   66.30 | X-H torsion
[ 10763 10752 10751 10750 ] final   13.16 input  -60.55 | X-H torsion
[ 11005 11000 10999 10996 ] final -147.59 input  -57.11 | X-H torsion

> <Gold.Protein.ActiveResidues>
 VAL166  LYS551  ARG553  GLY616  TRP617  ASP618  TYR619  PRO620  LYS621  CYS622 
 ASP623  PHE694  ASN695  SER759  ASP760  ASP761  ALA762  ILE779  LEU786  VAL792 
 PHE793  MET794  SER795  GLU796  ALA797  LYS798  CYS799  TRP800  GLU811  SER814 

> <Gold.Protein.RotatedAtoms>
  150.7811  134.6754  159.6413 H   0  0  0  0  0  0  0  0  0  0  0  0  # atno 6907 bound_to 6896
  152.3895  134.6461  160.0122 H   0  0  0  0  0  0  0  0  0  0  0  0  # atno 6908 bound_to 6896
  151.6765  133.3276  159.3245 H   0  0  0  0  0  0  0  0  0  0  0  0  # atno 6909 bound_to 6896
  146.0434  139.4908  142.9764 H   0  0  0  0  0  0  0  0  0  0  0  0  # atno 7974 bound_to 7965
  156.2269  140.1844  156.7342 H   0  0  0  0  0  0  0  0  0  0  0  0  # atno 8008 bound_to 7997
  154.5955  140.0644  156.9326 H   0  0  0  0  0  0  0  0  0  0  0  0  # atno 8009 bound_to 7997
  155.2262  140.3311  155.4311 H   0  0  0  0  0  0  0  0  0  0  0  0  # atno 8010 bound_to 7997
  139.7542  143.8473  152.2593 H   0  0  0  0  0  0  0  0  0  0  0  0  # atno 10167 bound_to 10162
  156.5075  130.8420  151.2633 H   0  0  0  0  0  0  0  0  0  0  0  0  # atno 10718 bound_to 10713
  153.1749  135.6818  153.8557 H   0  0  0  0  0  0  0  0  0  0  0  0  # atno 10763 bound_to 10752
  153.7909  135.3169  155.3379 H   0  0  0  0  0  0  0  0  0  0  0  0  # atno 10764 bound_to 10752
  154.8022  135.4771  154.0397 H   0  0  0  0  0  0  0  0  0  0  0  0  # atno 10765 bound_to 10752
  140.7701  134.3199  157.5077 H   0  0  0  0  0  0  0  0  0  0  0  0  # atno 11005 bound_to 11000
  145.6847  141.0181  143.1587 LP  0  0  0  0  0  0  0  0  0  0  0  0  # atno 17320 bound_to 7965
  144.7085  139.8462  143.7422 LP  0  0  0  0  0  0  0  0  0  0  0  0  # atno 17321 bound_to 7965
  139.8460  144.7187  150.9272 LP  0  0  0  0  0  0  0  0  0  0  0  0  # atno 17342 bound_to 10162
  140.7801  143.3941  151.1260 LP  0  0  0  0  0  0  0  0  0  0  0  0  # atno 17343 bound_to 10162
  157.7455  130.9961  150.2766 LP  0  0  0  0  0  0  0  0  0  0  0  0  # atno 17370 bound_to 10713
  156.3272  130.3795  149.7522 LP  0  0  0  0  0  0  0  0  0  0  0  0  # atno 17371 bound_to 10713
  139.8757  134.9255  156.3377 LP  0  0  0  0  0  0  0  0  0  0  0  0  # atno 17394 bound_to 11000
  140.9582  133.7406  156.0364 LP  0  0  0  0  0  0  0  0  0  0  0  0  # atno 17395 bound_to 11000

$$$$
