AV-unprocessed.smi:1876|AV-procd|sdf|7621|dock3
  -GOLD-   22720 9353D 1   1.00000     0.00000
 Structure written by MMmdl.
 31 32  0  0  0  0  0  0  0  0  1 V2000
  154.3878  141.1347  161.2867 C   0  0  0  0  0  0  0  0  0  0  0  0
  153.4396  141.8856  160.4162 C   0  0  0  0  0  0  0  0  0  0  0  0
  152.6501  141.5155  159.3637 C   0  0  0  0  0  0  0  0  0  0  0  0
  152.0030  142.7286  159.0073 C   0  0  0  0  0  0  0  0  0  0  0  0
  151.0763  142.7719  157.9343 N   0  0  0  0  0  0  0  0  0  0  0  0
  150.2824  141.7791  157.4980 C   0  0  0  0  0  0  0  0  0  0  0  0
  150.2300  140.6481  157.9824 O   0  0  0  0  0  0  0  0  0  0  0  0
  149.5419  142.1715  156.4512 N   0  0  0  0  0  0  0  0  0  0  0  0
  148.6124  141.3245  155.7062 C   0  0  1  0  0  0  0  0  0  0  0  0
  147.2632  142.0366  155.4939 C   0  0  0  0  0  0  0  0  0  0  0  0
  146.3706  141.2136  154.5606 C   0  0  0  0  0  0  0  0  0  0  0  0
  147.0694  140.9829  153.2108 C   0  0  0  0  0  0  0  0  0  0  0  0
  148.4717  140.5842  153.3443 N   0  0  0  0  0  0  0  0  0  0  0  0
  149.2557  140.7754  154.4202 C   0  0  0  0  0  0  0  0  0  0  0  0
  150.4510  140.4857  154.4007 O   0  0  0  0  0  0  0  0  0  0  0  0
  152.3660  143.7471  159.7720 N   0  0  0  0  0  0  0  0  0  0  0  0
  153.2879  143.2118  160.6792 O   0  0  0  0  0  0  0  0  0  0  0  0
  154.5661  140.1329  160.8961 H   0  0  0  0  0  0  0  0  0  0  0  0
  153.9899  141.0381  162.2969 H   0  0  0  0  0  0  0  0  0  0  0  0
  155.3470  141.6490  161.3482 H   0  0  0  0  0  0  0  0  0  0  0  0
  152.5521  140.5339  158.9240 H   0  0  0  0  0  0  0  0  0  0  0  0
  151.0192  143.6501  157.4401 H   0  0  0  0  0  0  0  0  0  0  0  0
  149.6512  143.1185  156.1187 H   0  0  0  0  0  0  0  0  0  0  0  0
  148.4182  140.4344  156.3076 H   0  0  0  0  0  0  0  0  0  0  0  0
  146.7595  142.1890  156.4491 H   0  0  0  0  0  0  0  0  0  0  0  0
  147.4247  143.0265  155.0644 H   0  0  0  0  0  0  0  0  0  0  0  0
  146.1479  140.2531  155.0269 H   0  0  0  0  0  0  0  0  0  0  0  0
  145.4142  141.7142  154.4082 H   0  0  0  0  0  0  0  0  0  0  0  0
  146.5351  140.2269  152.6349 H   0  0  0  0  0  0  0  0  0  0  0  0
  147.0411  141.9012  152.6234 H   0  0  0  0  0  0  0  0  0  0  0  0
  148.9036  140.1858  152.5230 H   0  0  0  0  0  0  0  0  0  0  0  0
  1  2  1  0  0  0  0
  1 18  1  0  0  0  0
  1 19  1  0  0  0  0
  1 20  1  0  0  0  0
  2 17  1  0  0  0  0
  2  3  2  0  0  0  0
  3  4  1  0  0  0  0
  3 21  1  0  0  0  0
  4  5  1  0  0  0  0
  4 16  2  0  0  0  0
  5  6  1  0  0  0  0
  5 22  1  0  0  0  0
  6  7  2  0  0  0  0
  6  8  1  0  0  0  0
  8  9  1  0  0  0  0
  8 23  1  0  0  0  0
  9 14  1  0  0  0  0
  9 10  1  0  0  0  0
  9 24  1  0  0  0  0
 10 11  1  0  0  0  0
 10 25  1  0  0  0  0
 10 26  1  0  0  0  0
 11 12  1  0  0  0  0
 11 27  1  0  0  0  0
 11 28  1  0  0  0  0
 12 13  1  0  0  0  0
 12 29  1  0  0  0  0
 12 30  1  0  0  0  0
 13 14  1  0  0  0  0
 13 31  1  0  0  0  0
 14 15  2  0  0  0  0
 16 17  1  0  0  0  0
M  END
> <s_m_source_file>
AV-unprocessed.smi

> <i_m_source_file_index>
1876

> <i_lp_mmshare_version>
43012

> <i_f3d_flags>
0

> <s_epik_input>
W0NIM11jMVtjSF1jKG5vMSlbTkhdQyg9TylbTkhdW0NAQEhdMltDSDJdW0NIMl1bQ0gyXVtOSF1DMj1P

> <s_epik_cmdline>
J2VwaWtfcHl0aG9uJywgJy1waCcsICc3LjAnLCAnLXRuJywgJzgnLCAnLW1hJywgJzIwMCcsICctbWV0YWxfYmluZGluZycsICctaW1hZScsICc8aW5maWxlLm1hZT4nLCAnLW9tYWUnLCAnPG91dGZpbGUubWFlPic=

> <r_lp_tautomer_probability>
1

> <r_epik_Ionization_Penalty>
2.33177e-05

> <r_epik_Ionization_Penalty_Charging>
0

> <r_epik_Ionization_Penalty_Neutral>
2.33177e-05

> <r_epik_State_Penalty>
-0

> <r_epik_Charging_Adjusted_Penalty>
0

> <i_epik_Tot_Q>
0

> <i_epik_Tot_abs_Q>
0

> <r_epik_Metal_State_Penalty>
-0

> <b_epik_Metal_Only>
0

> <s_lp_Force_Field>
OPLS_2005

> <r_lp_Energy>
6.99083

> <b_lp_Chiralities_Consistent>
1

> <s_lp_Variant>
AV-unprocessed.smi:1876-2

> <Gold.Version>
5.8.1

> <Gold.Id.Protein>
6NUR|6NUR_protein|mol2

> <Gold.PLP.Fitness>
37.7467

> <Gold.PLP.PLP>
-29.5531

> <Gold.PLP.part.hbond>
-2.9216

> <Gold.PLP.part.metal>
0.0000

> <Gold.PLP.part.buried>
-5.7060

> <Gold.PLP.part.nonpolar>
-21.5838

> <Gold.PLP.part.repulsive>
0.3715

> <Gold.PLP.ligand.clash>
0.0000

> <Gold.PLP.ligand.torsion>
0.4122

> <Gold.PLP.Chemscore.Hbond>
2.9920

> <Gold.PLP.Chemscore.CHOScore>
0.0000

> <Gold.PLP.Chemscore.Metal>
0.0000

> <Gold.Chemscore.Hbonds>
donor molecule, donor type, donor heavy atom, donor atom, acceptor molecule, acceptor atom, score
      L1  H     8    23       P1  8028  0.98
      L1  H    13    31       P1  7957  1.00
      P1  H  7989  7998       L1    15  0.98

> <Gold.PLP.Chemscore.Internal.Correction>
0.0421

> <Gold.Rescore>
     Score         DG    S(hbond)    S(metal)    S(lipo)     H(rot)  DE(clash)    DE(int)     intcor
     17.85     -18.51       2.91        0.00      50.13       1.00       0.04       0.62       ----

> <Gold.Chemscore.Fitness>
17.8486

> <Gold.Chemscore.DG>
-18.5149

> <Gold.Chemscore.ZeroCoef>
-5.4800

> <Gold.Chemscore.Hbond>
2.9132

> <Gold.Chemscore.Metal>
0.0000

> <Gold.Chemscore.Lipo>
50.1261

> <Gold.Chemscore.Internal_Hbond>
0.0000

> <Gold.Chemscore.DEClash>
0.0444

> <Gold.Chemscore.DEInternal>
0.6219

> <Gold.Chemscore.Rot>
1.0000

> <Gold.Chemscore.Internal.Correction>
   9.000000E+99

> <Gold.Chemscore.Hbonds>
donor molecule, donor type, donor heavy atom, donor atom, acceptor molecule, acceptor atom, score
      L1  H     8    23       P1  8028  0.93
      L1  H    13    31       P1  7957  0.94
      P1  H  7989  7998       L1    15  0.86

> <Gold.Chemscore.Hbond.Weighted>
-9.7301

> <Gold.Chemscore.Metal.Weighted>
-0.0000

> <Gold.Chemscore.Lipo.Weighted>
-5.8647

> <Gold.Chemscore.Internal_Hbond.Weighted>
0.0000

> <Gold.Chemscore.DEClash.Weighted>
0.0444

> <Gold.Chemscore.DEInternal.Weighted>
0.6219

> <Gold.Chemscore.Rot.Weighted>
2.5600

> <Gold.Chemscore.Internal.Correction.Weighted>
   9.000000E+99

> <Gold.Protein.RotatedTorsions>
[ 6907 6896 6895 6894 ] final -132.14 input  -60.11 | X-H torsion
[ 7974 7965 7964 7962 ] final   52.14 input  175.53 | X-H torsion
[ 8008 7997 7996 7995 ] final -122.87 input   59.86 | X-H torsion
[ 10167 10162 10161 10158 ] final   48.41 input  -65.29 | X-H torsion
[ 10718 10713 10712 10709 ] final   15.45 input   66.30 | X-H torsion
[ 10763 10752 10751 10750 ] final  -94.00 input  -60.55 | X-H torsion
[ 11005 11000 10999 10996 ] final -155.17 input  -57.11 | X-H torsion

> <Gold.Protein.ActiveResidues>
 VAL166  LYS551  ARG553  GLY616  TRP617  ASP618  TYR619  PRO620  LYS621  CYS622 
 ASP623  PHE694  ASN695  SER759  ASP760  ASP761  ALA762  ILE779  LEU786  VAL792 
 PHE793  MET794  SER795  GLU796  ALA797  LYS798  CYS799  TRP800  GLU811  SER814 

> <Gold.Protein.RotatedAtoms>
  150.9590  133.6466  159.2757 H   0  0  0  0  0  0  0  0  0  0  0  0  # atno 6907 bound_to 6896
  151.3795  135.0936  159.9501 H   0  0  0  0  0  0  0  0  0  0  0  0  # atno 6908 bound_to 6896
  152.5140  133.9127  159.7550 H   0  0  0  0  0  0  0  0  0  0  0  0  # atno 6909 bound_to 6896
  145.9844  139.4274  143.0112 H   0  0  0  0  0  0  0  0  0  0  0  0  # atno 7974 bound_to 7965
  155.1713  140.0408  157.2863 H   0  0  0  0  0  0  0  0  0  0  0  0  # atno 8008 bound_to 7997
  154.6268  140.2514  155.7455 H   0  0  0  0  0  0  0  0  0  0  0  0  # atno 8009 bound_to 7997
  156.2463  140.2883  156.0601 H   0  0  0  0  0  0  0  0  0  0  0  0  # atno 8010 bound_to 7997
  140.2936  144.3017  150.6235 H   0  0  0  0  0  0  0  0  0  0  0  0  # atno 10167 bound_to 10162
  157.0537  130.6280  149.5772 H   0  0  0  0  0  0  0  0  0  0  0  0  # atno 10718 bound_to 10713
  154.7013  135.5174  153.8530 H   0  0  0  0  0  0  0  0  0  0  0  0  # atno 10763 bound_to 10752
  153.0706  135.6600  154.0265 H   0  0  0  0  0  0  0  0  0  0  0  0  # atno 10764 bound_to 10752
  154.0124  135.3001  155.3370 H   0  0  0  0  0  0  0  0  0  0  0  0  # atno 10765 bound_to 10752
  140.6894  134.4058  157.5220 H   0  0  0  0  0  0  0  0  0  0  0  0  # atno 11005 bound_to 11000
  145.7723  140.9891  143.1143 LP  0  0  0  0  0  0  0  0  0  0  0  0  # atno 17320 bound_to 7965
  144.6870  139.9462  143.7476 LP  0  0  0  0  0  0  0  0  0  0  0  0  # atno 17321 bound_to 7965
  140.5711  143.2181  151.7597 LP  0  0  0  0  0  0  0  0  0  0  0  0  # atno 17342 bound_to 10162
  139.4932  144.4215  151.9973 LP  0  0  0  0  0  0  0  0  0  0  0  0  # atno 17343 bound_to 10162
  155.9999  130.5076  150.7625 LP  0  0  0  0  0  0  0  0  0  0  0  0  # atno 17370 bound_to 10713
  157.5010  131.0918  151.0314 LP  0  0  0  0  0  0  0  0  0  0  0  0  # atno 17371 bound_to 10713
  139.8928  134.8746  156.2254 LP  0  0  0  0  0  0  0  0  0  0  0  0  # atno 17394 bound_to 11000
  141.0254  133.7018  156.1338 LP  0  0  0  0  0  0  0  0  0  0  0  0  # atno 17395 bound_to 11000

$$$$
