AV-unprocessed.smi:2981|AV-procd|sdf|11374|dock2
  -GOLD-   2272016293D 1   1.00000     0.00000
 Structure written by MMmdl.
 31 32  0  0  0  0  0  0  0  0  1 V2000
  147.6555  137.1824  158.4808 O   0  0  0  0  0  0  0  0  0  0  0  0
  148.7266  136.9614  159.0476 C   0  0  0  0  0  0  0  0  0  0  0  0
  148.7596  136.4066  160.4793 C   0  0  0  0  0  0  0  0  0  0  0  0
  147.4228  136.1664  161.0434 N   0  0  0  0  0  0  0  0  0  0  0  0
  146.5851  137.2671  160.9981 N   0  0  0  0  0  0  0  0  0  0  0  0
  145.3830  137.1685  161.4513 C   0  0  0  0  0  0  0  0  0  0  0  0
  144.8706  135.9394  162.0157 C   0  0  0  0  0  0  0  0  0  0  0  0
  143.2484  135.8670  162.6078 Cl  0  0  0  0  0  0  0  0  0  0  0  0
  145.7020  134.8680  162.0611 C   0  0  0  0  0  0  0  0  0  0  0  0
  145.1614  133.3636  162.7236 Cl  0  0  0  0  0  0  0  0  0  0  0  0
  147.0790  134.9437  161.5539 C   0  0  0  0  0  0  0  0  0  0  0  0
  147.8650  133.9955  161.5793 O   0  0  0  0  0  0  0  0  0  0  0  0
  149.9192  137.2012  158.4819 N   0  0  0  0  0  0  0  0  0  0  0  0
  150.1175  137.7236  157.1338 C   0  0  2  0  0  0  0  0  0  0  0  0
  150.9070  136.7293  156.2625 C   0  0  0  0  0  0  0  0  0  0  0  0
  151.3899  137.4560  155.0010 C   0  0  0  0  0  0  0  0  0  0  0  0
  151.6468  139.2051  155.4870 S   0  0  0  0  0  0  0  0  0  0  0  0
  153.0858  139.4688  155.6397 O   0  0  0  0  0  0  0  0  0  0  0  0
  150.8062  140.0626  154.6378 O   0  0  0  0  0  0  0  0  0  0  0  0
  150.8852  139.0548  157.1466 C   0  0  0  0  0  0  0  0  0  0  0  0
  149.3427  135.4838  160.5014 H   0  0  0  0  0  0  0  0  0  0  0  0
  149.3104  137.1147  161.1011 H   0  0  0  0  0  0  0  0  0  0  0  0
  144.6871  138.0074  161.4338 H   0  0  0  0  0  0  0  0  0  0  0  0
  150.7491  136.9963  159.0195 H   0  0  0  0  0  0  0  0  0  0  0  0
  149.1483  137.8848  156.6574 H   0  0  0  0  0  0  0  0  0  0  0  0
  151.7790  136.3795  156.8171 H   0  0  0  0  0  0  0  0  0  0  0  0
  150.3142  135.8483  156.0136 H   0  0  0  0  0  0  0  0  0  0  0  0
  152.3108  137.0375  154.5945 H   0  0  0  0  0  0  0  0  0  0  0  0
  150.6245  137.4328  154.2251 H   0  0  0  0  0  0  0  0  0  0  0  0
  150.2453  139.9147  157.3465 H   0  0  0  0  0  0  0  0  0  0  0  0
  151.6905  139.0411  157.8819 H   0  0  0  0  0  0  0  0  0  0  0  0
  1  2  2  0  0  0  0
  2  3  1  0  0  0  0
  2 13  1  0  0  0  0
  3  4  1  0  0  0  0
  3 21  1  0  0  0  0
  3 22  1  0  0  0  0
  4 11  1  0  0  0  0
  4  5  1  0  0  0  0
  5  6  2  0  0  0  0
  6  7  1  0  0  0  0
  6 23  1  0  0  0  0
  7  8  1  0  0  0  0
  7  9  2  0  0  0  0
  9 10  1  0  0  0  0
  9 11  1  0  0  0  0
 11 12  2  0  0  0  0
 13 14  1  0  0  0  0
 13 24  1  0  0  0  0
 14 20  1  0  0  0  0
 14 15  1  0  0  0  0
 14 25  1  0  0  0  0
 15 16  1  0  0  0  0
 15 26  1  0  0  0  0
 15 27  1  0  0  0  0
 16 17  1  0  0  0  0
 16 28  1  0  0  0  0
 16 29  1  0  0  0  0
 17 18  2  0  0  0  0
 17 19  2  0  0  0  0
 17 20  1  0  0  0  0
 20 30  1  0  0  0  0
 20 31  1  0  0  0  0
M  END
> <s_m_source_file>
AV-unprocessed.smi

> <i_m_source_file_index>
2981

> <i_lp_mmshare_version>
43012

> <i_f3d_flags>
0

> <s_epik_input>
Tz1TMSg9TylbQ0gyXVtDSDJdW0NASF0oW0NIMl0xKVtOSF1DKD1PKVtDSDJdbjJuW2NIXWMoQ2wpYyhDbCljMj1P

> <s_epik_cmdline>
J2VwaWtfcHl0aG9uJywgJy1waCcsICc3LjAnLCAnLXRuJywgJzgnLCAnLW1hJywgJzIwMCcsICctbWV0YWxfYmluZGluZycsICctaW1hZScsICc8aW5maWxlLm1hZT4nLCAnLW9tYWUnLCAnPG91dGZpbGUubWFlPic=

> <r_lp_tautomer_probability>
1

> <r_epik_Ionization_Penalty>
1.07216e-07

> <r_epik_Ionization_Penalty_Charging>
2.33395e-11

> <r_epik_Ionization_Penalty_Neutral>
1.07193e-07

> <r_epik_State_Penalty>
-0

> <r_epik_Charging_Adjusted_Penalty>
2.33395e-11

> <i_epik_Tot_Q>
0

> <i_epik_Tot_abs_Q>
0

> <r_epik_Metal_State_Penalty>
-0

> <b_epik_Metal_Only>
0

> <s_lp_Force_Field>
OPLS_2005

> <r_lp_Energy>
19.0616

> <b_lp_Chiralities_Consistent>
1

> <s_lp_Variant>
AV-unprocessed.smi:2981-1

> <Gold.Version>
5.8.1

> <Gold.Id.Protein>
6NUR|6NUR_protein|mol2

> <Gold.PLP.Fitness>
40.1085

> <Gold.PLP.PLP>
-31.1775

> <Gold.PLP.part.hbond>
-3.0000

> <Gold.PLP.part.metal>
0.0000

> <Gold.PLP.part.buried>
-6.2026

> <Gold.PLP.part.nonpolar>
-22.5500

> <Gold.PLP.part.repulsive>
0.2196

> <Gold.PLP.ligand.clash>
0.0000

> <Gold.PLP.ligand.torsion>
0.0355

> <Gold.PLP.Chemscore.Hbond>
3.0000

> <Gold.PLP.Chemscore.CHOScore>
0.0000

> <Gold.PLP.Chemscore.Metal>
0.0000

> <Gold.Chemscore.Hbonds>
donor molecule, donor type, donor heavy atom, donor atom, acceptor molecule, acceptor atom, score
      P1  H  6934  6947       L1     5  1.00
      P1  H  7989  7998       L1    19  1.00
      P1  H  7997  8008       L1    18  1.00

> <Gold.PLP.Chemscore.Internal.Correction>
0.0019

> <Gold.Rescore>
     Score         DG    S(hbond)    S(metal)    S(lipo)     H(rot)  DE(clash)    DE(int)     intcor
     15.36     -16.79       2.91        0.00      50.91       1.70       0.00       1.42       ----

> <Gold.Chemscore.Fitness>
15.3598

> <Gold.Chemscore.DG>
-16.7861

> <Gold.Chemscore.ZeroCoef>
-5.4800

> <Gold.Chemscore.Hbond>
2.9083

> <Gold.Chemscore.Metal>
0.0000

> <Gold.Chemscore.Lipo>
50.9144

> <Gold.Chemscore.Internal_Hbond>
0.0000

> <Gold.Chemscore.DEClash>
0.0021

> <Gold.Chemscore.DEInternal>
1.4242

> <Gold.Chemscore.Rot>
1.7049

> <Gold.Chemscore.Internal.Correction>
   9.000000E+99

> <Gold.Chemscore.Hbonds>
donor molecule, donor type, donor heavy atom, donor atom, acceptor molecule, acceptor atom, score
      P1  H  6934  6947       L1     5  0.82
      P1  H  7989  7998       L1    19  0.87
      P1  H  7997  8008       L1    18  0.93

> <Gold.Chemscore.Hbond.Weighted>
-9.7138

> <Gold.Chemscore.Metal.Weighted>
-0.0000

> <Gold.Chemscore.Lipo.Weighted>
-5.9570

> <Gold.Chemscore.Internal_Hbond.Weighted>
0.0000

> <Gold.Chemscore.DEClash.Weighted>
0.0021

> <Gold.Chemscore.DEInternal.Weighted>
1.4242

> <Gold.Chemscore.Rot.Weighted>
4.3646

> <Gold.Chemscore.Internal.Correction.Weighted>
   9.000000E+99

> <Gold.Protein.RotatedTorsions>
[ 6907 6896 6895 6894 ] final  -86.69 input  -60.11 | X-H torsion
[ 7974 7965 7964 7962 ] final -105.32 input  175.53 | X-H torsion
[ 8008 7997 7996 7995 ] final  -34.73 input   59.86 | X-H torsion
[ 10167 10162 10161 10158 ] final   26.65 input  -65.29 | X-H torsion
[ 10718 10713 10712 10709 ] final   20.80 input   66.30 | X-H torsion
[ 10763 10752 10751 10750 ] final  -32.04 input  -60.55 | X-H torsion
[ 11005 11000 10999 10996 ] final  129.99 input  -57.11 | X-H torsion

> <Gold.Protein.ActiveResidues>
 VAL166  LYS551  ARG553  GLY616  TRP617  ASP618  TYR619  PRO620  LYS621  CYS622 
 ASP623  PHE694  ASN695  SER759  ASP760  ASP761  ALA762  ILE779  LEU786  VAL792 
 PHE793  MET794  SER795  GLU796  ALA797  LYS798  CYS799  TRP800  GLU811  SER814 

> <Gold.Protein.RotatedAtoms>
  150.6866  134.3011  159.4706 H   0  0  0  0  0  0  0  0  0  0  0  0  # atno 6907 bound_to 6896
  152.0906  134.9407  160.0581 H   0  0  0  0  0  0  0  0  0  0  0  0  # atno 6908 bound_to 6896
  152.0724  133.4078  159.4502 H   0  0  0  0  0  0  0  0  0  0  0  0  # atno 6909 bound_to 6896
  145.2319  140.9174  143.3199 H   0  0  0  0  0  0  0  0  0  0  0  0  # atno 7974 bound_to 7965
  154.4113  140.1676  156.2097 H   0  0  0  0  0  0  0  0  0  0  0  0  # atno 8008 bound_to 7997
  155.9454  140.3405  155.6339 H   0  0  0  0  0  0  0  0  0  0  0  0  # atno 8009 bound_to 7997
  155.6936  140.0737  157.2429 H   0  0  0  0  0  0  0  0  0  0  0  0  # atno 8010 bound_to 7997
  140.5005  144.0323  150.6331 H   0  0  0  0  0  0  0  0  0  0  0  0  # atno 10167 bound_to 10162
  157.1295  130.6585  149.5947 H   0  0  0  0  0  0  0  0  0  0  0  0  # atno 10718 bound_to 10713
  153.8072  135.6885  153.4846 H   0  0  0  0  0  0  0  0  0  0  0  0  # atno 10763 bound_to 10752
  153.1651  135.4564  154.9824 H   0  0  0  0  0  0  0  0  0  0  0  0  # atno 10764 bound_to 10752
  154.7982  135.3327  154.7556 H   0  0  0  0  0  0  0  0  0  0  0  0  # atno 10765 bound_to 10752
  139.9647  134.9594  156.9229 H   0  0  0  0  0  0  0  0  0  0  0  0  # atno 11005 bound_to 11000
  144.9668  139.3921  143.6328 LP  0  0  0  0  0  0  0  0  0  0  0  0  # atno 17320 bound_to 7965
  146.3351  139.8747  142.8834 LP  0  0  0  0  0  0  0  0  0  0  0  0  # atno 17321 bound_to 7965
  140.3618  143.2904  152.0376 LP  0  0  0  0  0  0  0  0  0  0  0  0  # atno 17342 bound_to 10162
  139.4871  144.6297  151.7094 LP  0  0  0  0  0  0  0  0  0  0  0  0  # atno 17343 bound_to 10162
  155.9811  130.4816  150.6808 LP  0  0  0  0  0  0  0  0  0  0  0  0  # atno 17370 bound_to 10713
  157.4405  131.0860  151.0949 LP  0  0  0  0  0  0  0  0  0  0  0  0  # atno 17371 bound_to 10713
  140.5424  134.0707  155.7345 LP  0  0  0  0  0  0  0  0  0  0  0  0  # atno 17394 bound_to 11000
  141.1326  133.9277  157.2503 LP  0  0  0  0  0  0  0  0  0  0  0  0  # atno 17395 bound_to 11000

$$$$
