AV-unprocessed.smi:776|AV-procd|sdf|3699|dock6
  -GOLD-   22720 1123D 1   1.00000     0.00000
 Structure written by MMmdl.
 44 45  0  0  0  0  0  0  0  0  1 V2000
  152.5729  131.2274  158.9950 C   0  0  0  0  0  0  0  0  0  0  0  0
  152.7119  131.5079  157.4910 C   0  0  0  0  0  0  0  0  0  0  0  0
  153.9735  132.3125  157.1432 C   0  0  0  0  0  0  0  0  0  0  0  0
  151.4754  132.1334  156.9210 C   0  0  0  0  0  0  0  0  0  0  0  0
  150.4925  132.5710  157.7014 N   0  0  0  0  0  0  0  0  0  0  0  0
  149.5500  133.0682  156.7902 O   0  0  0  0  0  0  0  0  0  0  0  0
  150.0932  132.8882  155.5625 C   0  0  0  0  0  0  0  0  0  0  0  0
  149.3028  133.2817  154.3601 C   0  0  0  0  0  0  0  0  0  0  0  0
  148.9710  132.0817  153.4586 C   0  0  0  0  0  0  0  0  0  0  0  0
  148.0944  132.4619  152.3569 N   0  0  0  0  0  0  0  0  0  0  0  0
  146.9936  133.2249  152.4680 C   0  0  0  0  0  0  0  0  0  0  0  0
  146.6485  133.7255  153.5383 O   0  0  0  0  0  0  0  0  0  0  0  0
  146.3872  133.4779  151.2801 N   0  0  0  0  0  0  0  0  0  0  0  0
  146.3864  132.4740  150.1997 C   0  0  0  0  0  0  0  0  0  0  0  0
  145.1099  131.6171  150.3100 C   0  0  0  0  0  0  0  0  0  0  0  0
  143.8455  132.4961  150.2743 C   0  0  0  0  0  0  0  0  0  0  0  0
  143.9365  133.6730  151.2643 C   0  0  0  0  0  0  0  0  0  0  0  0
  145.2698  134.4302  151.0922 C   0  0  1  0  0  0  0  0  0  0  0  0
  145.3375  135.7097  151.9527 C   0  0  0  0  0  0  0  0  0  0  0  0
  151.2840  132.2952  155.5824 N   0  0  0  0  0  0  0  0  0  0  0  0
  151.7079  130.5950  159.1979 H   0  0  0  0  0  0  0  0  0  0  0  0
  152.4516  132.1504  159.5626 H   0  0  0  0  0  0  0  0  0  0  0  0
  153.4544  130.7150  159.3810 H   0  0  0  0  0  0  0  0  0  0  0  0
  152.8265  130.5357  157.0091 H   0  0  0  0  0  0  0  0  0  0  0  0
  154.0836  132.4213  156.0639 H   0  0  0  0  0  0  0  0  0  0  0  0
  154.8698  131.8175  157.5178 H   0  0  0  0  0  0  0  0  0  0  0  0
  153.9407  133.3122  157.5777 H   0  0  0  0  0  0  0  0  0  0  0  0
  148.3847  133.7678  154.6918 H   0  0  0  0  0  0  0  0  0  0  0  0
  149.8696  134.0304  153.8052 H   0  0  0  0  0  0  0  0  0  0  0  0
  149.8853  131.6294  153.0709 H   0  0  0  0  0  0  0  0  0  0  0  0
  148.4649  131.3105  154.0401 H   0  0  0  0  0  0  0  0  0  0  0  0
  148.3440  132.1260  151.4382 H   0  0  0  0  0  0  0  0  0  0  0  0
  146.4184  132.9765  149.2319 H   0  0  0  0  0  0  0  0  0  0  0  0
  147.2610  131.8231  150.2136 H   0  0  0  0  0  0  0  0  0  0  0  0
  145.0775  130.8854  149.5023 H   0  0  0  0  0  0  0  0  0  0  0  0
  145.1323  131.0484  151.2407 H   0  0  0  0  0  0  0  0  0  0  0  0
  143.7175  132.8909  149.2657 H   0  0  0  0  0  0  0  0  0  0  0  0
  142.9606  131.8943  150.4829 H   0  0  0  0  0  0  0  0  0  0  0  0
  143.0942  134.3477  151.1080 H   0  0  0  0  0  0  0  0  0  0  0  0
  143.8506  133.3022  152.2864 H   0  0  0  0  0  0  0  0  0  0  0  0
  145.3226  134.7796  150.0597 H   0  0  0  0  0  0  0  0  0  0  0  0
  144.6110  136.4426  151.6011 H   0  0  0  0  0  0  0  0  0  0  0  0
  146.3220  136.1751  151.8947 H   0  0  0  0  0  0  0  0  0  0  0  0
  145.1087  135.5223  153.0015 H   0  0  0  0  0  0  0  0  0  0  0  0
  1  2  1  0  0  0  0
  1 21  1  0  0  0  0
  1 22  1  0  0  0  0
  1 23  1  0  0  0  0
  2  3  1  0  0  0  0
  2  4  1  0  0  0  0
  2 24  1  0  0  0  0
  3 25  1  0  0  0  0
  3 26  1  0  0  0  0
  3 27  1  0  0  0  0
  4 20  1  0  0  0  0
  4  5  2  0  0  0  0
  5  6  1  0  0  0  0
  6  7  1  0  0  0  0
  7  8  1  0  0  0  0
  7 20  2  0  0  0  0
  8  9  1  0  0  0  0
  8 28  1  0  0  0  0
  8 29  1  0  0  0  0
  9 10  1  0  0  0  0
  9 30  1  0  0  0  0
  9 31  1  0  0  0  0
 10 11  1  0  0  0  0
 10 32  1  0  0  0  0
 11 12  2  0  0  0  0
 11 13  1  0  0  0  0
 13 18  1  0  0  0  0
 13 14  1  0  0  0  0
 14 15  1  0  0  0  0
 14 33  1  0  0  0  0
 14 34  1  0  0  0  0
 15 16  1  0  0  0  0
 15 35  1  0  0  0  0
 15 36  1  0  0  0  0
 16 17  1  0  0  0  0
 16 37  1  0  0  0  0
 16 38  1  0  0  0  0
 17 18  1  0  0  0  0
 17 39  1  0  0  0  0
 17 40  1  0  0  0  0
 18 19  1  0  0  0  0
 18 41  1  0  0  0  0
 19 42  1  0  0  0  0
 19 43  1  0  0  0  0
 19 44  1  0  0  0  0
M  END
> <s_m_source_file>
AV-unprocessed.smi

> <i_m_source_file_index>
776

> <i_lp_mmshare_version>
43012

> <i_f3d_flags>
0

> <s_epik_input>
W0NIM11bQ0hdKFtDSDNdKWMxbm9jKG4xKVtDSDJdW0NIMl1bTkhdQyg9TylOMltDSDJdW0NIMl1bQ0gyXVtDSDJdW0NASF0yW0NIM10=

> <s_epik_cmdline>
J2VwaWtfcHl0aG9uJywgJy1waCcsICc3LjAnLCAnLXRuJywgJzgnLCAnLW1hJywgJzIwMCcsICctbWV0YWxfYmluZGluZycsICctaW1hZScsICc8aW5maWxlLm1hZT4nLCAnLW9tYWUnLCAnPG91dGZpbGUubWFlPic=

> <r_lp_tautomer_probability>
1

> <r_epik_Ionization_Penalty>
6.23032e-05

> <r_epik_Ionization_Penalty_Charging>
0

> <r_epik_Ionization_Penalty_Neutral>
6.23032e-05

> <r_epik_State_Penalty>
-0

> <r_epik_Charging_Adjusted_Penalty>
0

> <i_epik_Tot_Q>
0

> <i_epik_Tot_abs_Q>
0

> <r_epik_Metal_State_Penalty>
-0

> <b_epik_Metal_Only>
0

> <s_lp_Force_Field>
OPLS_2005

> <r_lp_Energy>
26.0958

> <b_lp_Chiralities_Consistent>
1

> <s_lp_Variant>
AV-unprocessed.smi:776-1

> <Gold.Version>
5.8.1

> <Gold.Id.Protein>
6NUR|6NUR_protein|mol2

> <Gold.PLP.Fitness>
40.5751

> <Gold.PLP.PLP>
-34.8657

> <Gold.PLP.part.hbond>
-2.0000

> <Gold.PLP.part.metal>
0.0000

> <Gold.PLP.part.buried>
-4.7446

> <Gold.PLP.part.nonpolar>
-29.1810

> <Gold.PLP.part.repulsive>
0.0825

> <Gold.PLP.ligand.clash>
0.0000

> <Gold.PLP.ligand.torsion>
0.4034

> <Gold.PLP.Chemscore.Hbond>
2.0000

> <Gold.PLP.Chemscore.CHOScore>
0.0000

> <Gold.PLP.Chemscore.Metal>
0.0000

> <Gold.Chemscore.Hbonds>
donor molecule, donor type, donor heavy atom, donor atom, acceptor molecule, acceptor atom, score
      L1  H    10    32       P1 10747  1.00
      P1  H  6896  6907       L1     5  0.94

> <Gold.PLP.Chemscore.Internal.Correction>
0.5160

> <Gold.Rescore>
     Score         DG    S(hbond)    S(metal)    S(lipo)     H(rot)  DE(clash)    DE(int)     intcor
     12.55     -15.93       1.95        0.00      69.76       1.65       0.26       3.12       ----

> <Gold.Chemscore.Fitness>
12.5511

> <Gold.Chemscore.DG>
-15.9254

> <Gold.Chemscore.ZeroCoef>
-5.4800

> <Gold.Chemscore.Hbond>
1.9461

> <Gold.Chemscore.Metal>
0.0000

> <Gold.Chemscore.Lipo>
69.7580

> <Gold.Chemscore.Internal_Hbond>
0.0000

> <Gold.Chemscore.DEClash>
0.2575

> <Gold.Chemscore.DEInternal>
3.1167

> <Gold.Chemscore.Rot>
1.6470

> <Gold.Chemscore.Internal.Correction>
   9.000000E+99

> <Gold.Chemscore.Hbonds>
donor molecule, donor type, donor heavy atom, donor atom, acceptor molecule, acceptor atom, score
      L1  H    10    32       P1 10747  0.97
      P1  H  6896  6907       L1     5  0.36

> <Gold.Chemscore.Hbond.Weighted>
-6.5001

> <Gold.Chemscore.Metal.Weighted>
-0.0000

> <Gold.Chemscore.Lipo.Weighted>
-8.1617

> <Gold.Chemscore.Internal_Hbond.Weighted>
0.0000

> <Gold.Chemscore.DEClash.Weighted>
0.2575

> <Gold.Chemscore.DEInternal.Weighted>
3.1167

> <Gold.Chemscore.Rot.Weighted>
4.2164

> <Gold.Chemscore.Internal.Correction.Weighted>
   9.000000E+99

> <Gold.Protein.RotatedTorsions>
[ 6907 6896 6895 6894 ] final -169.17 input  -60.11 | X-H torsion
[ 7974 7965 7964 7962 ] final -157.21 input  175.53 | X-H torsion
[ 8008 7997 7996 7995 ] final  -81.53 input   59.86 | X-H torsion
[ 10167 10162 10161 10158 ] final   50.69 input  -65.29 | X-H torsion
[ 10718 10713 10712 10709 ] final    5.28 input   66.30 | X-H torsion
[ 10763 10752 10751 10750 ] final  -72.10 input  -60.55 | X-H torsion
[ 11005 11000 10999 10996 ] final  -45.60 input  -57.11 | X-H torsion

> <Gold.Protein.ActiveResidues>
 VAL166  LYS551  ARG553  GLY616  TRP617  ASP618  TYR619  PRO620  LYS621  CYS622 
 ASP623  PHE694  ASN695  SER759  ASP760  ASP761  ALA762  ILE779  LEU786  VAL792 
 PHE793  MET794  SER795  GLU796  ALA797  LYS798  CYS799  TRP800  GLU811  SER814 

> <Gold.Protein.RotatedAtoms>
  151.4873  133.3533  159.2847 H   0  0  0  0  0  0  0  0  0  0  0  0  # atno 6907 bound_to 6896
  150.8858  134.8257  159.7269 H   0  0  0  0  0  0  0  0  0  0  0  0  # atno 6908 bound_to 6896
  152.4792  134.4776  159.9707 H   0  0  0  0  0  0  0  0  0  0  0  0  # atno 6909 bound_to 6896
  144.7558  140.4000  143.6013 H   0  0  0  0  0  0  0  0  0  0  0  0  # atno 7974 bound_to 7965
  154.5993  140.0646  156.9346 H   0  0  0  0  0  0  0  0  0  0  0  0  # atno 8008 bound_to 7997
  155.2160  140.3326  155.4304 H   0  0  0  0  0  0  0  0  0  0  0  0  # atno 8009 bound_to 7997
  156.2307  140.1840  156.7232 H   0  0  0  0  0  0  0  0  0  0  0  0  # atno 8010 bound_to 7997
  140.2697  144.3279  150.6293 H   0  0  0  0  0  0  0  0  0  0  0  0  # atno 10167 bound_to 10162
  156.9050  130.5735  149.5647 H   0  0  0  0  0  0  0  0  0  0  0  0  # atno 10718 bound_to 10713
  154.4410  135.5941  153.6129 H   0  0  0  0  0  0  0  0  0  0  0  0  # atno 10763 bound_to 10752
  152.9805  135.5998  154.3722 H   0  0  0  0  0  0  0  0  0  0  0  0  # atno 10764 bound_to 10752
  154.3572  135.2841  155.2319 H   0  0  0  0  0  0  0  0  0  0  0  0  # atno 10765 bound_to 10752
  141.0526  133.6737  156.3036 H   0  0  0  0  0  0  0  0  0  0  0  0  # atno 11005 bound_to 11000
  145.6784  139.1613  143.2714 LP  0  0  0  0  0  0  0  0  0  0  0  0  # atno 17320 bound_to 7965
  146.1566  140.6849  142.9297 LP  0  0  0  0  0  0  0  0  0  0  0  0  # atno 17321 bound_to 7965
  140.5899  143.2168  151.7272 LP  0  0  0  0  0  0  0  0  0  0  0  0  # atno 17342 bound_to 10162
  139.4992  144.3954  152.0236 LP  0  0  0  0  0  0  0  0  0  0  0  0  # atno 17343 bound_to 10162
  156.0563  130.5624  150.9099 LP  0  0  0  0  0  0  0  0  0  0  0  0  # atno 17370 bound_to 10713
  157.6002  131.0941  150.8972 LP  0  0  0  0  0  0  0  0  0  0  0  0  # atno 17371 bound_to 10713
  140.6026  134.5539  157.5520 LP  0  0  0  0  0  0  0  0  0  0  0  0  # atno 17394 bound_to 11000
  139.9363  134.7870  156.0795 LP  0  0  0  0  0  0  0  0  0  0  0  0  # atno 17395 bound_to 11000

$$$$
