AV-unprocessed.smi:2768|AV-procd|sdf|10649|dock1
  -GOLD-   2272015103D 1   1.00000     0.00000
 Structure written by MMmdl.
 35 36  0  0  0  0  0  0  0  0  1 V2000
  146.6463  135.7871  155.8496 O   0  0  0  0  0  0  0  0  0  0  0  0
  147.1134  135.6092  154.7239 C   0  0  0  0  0  0  0  0  0  0  0  0
  147.6785  136.5908  154.0016 N   0  0  0  0  0  0  0  0  0  0  0  0
  147.7696  137.9930  154.4012 C   0  0  1  0  0  0  0  0  0  0  0  0
  149.2436  138.4095  154.5695 C   0  0  0  0  0  0  0  0  0  0  0  0
  149.3605  139.8851  154.9843 C   0  0  0  0  0  0  0  0  0  0  0  0
  148.6428  140.8051  153.9843 C   0  0  0  0  0  0  0  0  0  0  0  0
  147.1703  140.3957  153.7981 C   0  0  0  0  0  0  0  0  0  0  0  0
  147.0228  138.9132  153.4043 C   0  0  1  0  0  0  0  0  0  0  0  0
  147.5121  138.7338  152.0873 O   0  0  0  0  0  0  0  0  0  0  0  0
  147.0429  134.2248  154.0634 C   0  0  0  0  0  0  0  0  0  0  0  0
  148.2853  133.8063  153.8099 F   0  0  0  0  0  0  0  0  0  0  0  0
  146.4843  133.3585  154.9122 F   0  0  0  0  0  0  0  0  0  0  0  0
  146.2226  134.2981  152.7778 C   0  0  0  0  0  0  0  0  0  0  0  0
  146.0135  133.1511  151.9779 C   0  0  0  0  0  0  0  0  0  0  0  0
  145.2641  133.2818  150.7929 C   0  0  0  0  0  0  0  0  0  0  0  0
  144.7538  134.5475  150.4479 C   0  0  0  0  0  0  0  0  0  0  0  0
  145.0174  135.6319  151.3071 C   0  0  0  0  0  0  0  0  0  0  0  0
  145.7353  135.5172  152.4447 N   0  0  0  0  0  0  0  0  0  0  0  0
  147.2941  138.0984  155.3785 H   0  0  0  0  0  0  0  0  0  0  0  0
  145.9628  138.6570  153.3918 H   0  0  0  0  0  0  0  0  0  0  0  0
  148.0415  136.3558  153.0891 H   0  0  0  0  0  0  0  0  0  0  0  0
  149.7255  137.7809  155.3193 H   0  0  0  0  0  0  0  0  0  0  0  0
  149.7875  138.2492  153.6375 H   0  0  0  0  0  0  0  0  0  0  0  0
  148.9312  140.0204  155.9780 H   0  0  0  0  0  0  0  0  0  0  0  0
  150.4109  140.1675  155.0610 H   0  0  0  0  0  0  0  0  0  0  0  0
  148.6988  141.8388  154.3264 H   0  0  0  0  0  0  0  0  0  0  0  0
  149.1586  140.7721  153.0239 H   0  0  0  0  0  0  0  0  0  0  0  0
  146.6334  140.5706  154.7313 H   0  0  0  0  0  0  0  0  0  0  0  0
  146.6955  141.0337  153.0517 H   0  0  0  0  0  0  0  0  0  0  0  0
  147.7885  137.8352  151.9921 H   0  0  0  0  0  0  0  0  0  0  0  0
  146.4194  132.1904  152.2584 H   0  0  0  0  0  0  0  0  0  0  0  0
  145.0854  132.4264  150.1586 H   0  0  0  0  0  0  0  0  0  0  0  0
  144.1750  134.6846  149.5465 H   0  0  0  0  0  0  0  0  0  0  0  0
  144.6429  136.6177  151.0743 H   0  0  0  0  0  0  0  0  0  0  0  0
  1  2  2  0  0  0  0
  2  3  1  0  0  0  0
  2 11  1  0  0  0  0
  3  4  1  0  0  0  0
  3 22  1  0  0  0  0
  4 20  1  0  0  0  0
  4  9  1  0  0  0  0
  4  5  1  0  0  0  0
  5  6  1  0  0  0  0
  5 23  1  0  0  0  0
  5 24  1  0  0  0  0
  6  7  1  0  0  0  0
  6 25  1  0  0  0  0
  6 26  1  0  0  0  0
  7  8  1  0  0  0  0
  7 27  1  0  0  0  0
  7 28  1  0  0  0  0
  8  9  1  0  0  0  0
  8 29  1  0  0  0  0
  8 30  1  0  0  0  0
  9 21  1  0  0  0  0
  9 10  1  0  0  0  0
 10 31  1  0  0  0  0
 11 12  1  0  0  0  0
 11 13  1  0  0  0  0
 11 14  1  0  0  0  0
 14 19  1  0  0  0  0
 14 15  2  0  0  0  0
 15 16  1  0  0  0  0
 15 32  1  0  0  0  0
 16 17  2  0  0  0  0
 16 33  1  0  0  0  0
 17 18  1  0  0  0  0
 17 34  1  0  0  0  0
 18 19  2  0  0  0  0
 18 35  1  0  0  0  0
M  END
> <s_m_source_file>
AV-unprocessed.smi

> <i_m_source_file_index>
2768

> <i_lp_mmshare_version>
43012

> <i_f3d_flags>
0

> <s_epik_input>
bjFbY0hdW2NIXVtjSF1bY0hdYzFDKEYpKEYpQyg9TylbTkhdW0NAQEhdMltDSDJdW0NIMl1bQ0gyXVtDSDJdW0NASF0yW09IXQ==

> <s_epik_cmdline>
J2VwaWtfcHl0aG9uJywgJy1waCcsICc3LjAnLCAnLXRuJywgJzgnLCAnLW1hJywgJzIwMCcsICctbWV0YWxfYmluZGluZycsICctaW1hZScsICc8aW5maWxlLm1hZT4nLCAnLW9tYWUnLCAnPG91dGZpbGUubWFlPic=

> <r_lp_tautomer_probability>
1

> <r_epik_Ionization_Penalty>
4.19456e-05

> <r_epik_Ionization_Penalty_Charging>
0

> <r_epik_Ionization_Penalty_Neutral>
4.19456e-05

> <r_epik_State_Penalty>
-0

> <r_epik_Charging_Adjusted_Penalty>
0

> <i_epik_Tot_Q>
0

> <i_epik_Tot_abs_Q>
0

> <r_epik_Metal_State_Penalty>
0.0354684

> <b_epik_Metal_Only>
0

> <s_lp_Force_Field>
OPLS_2005

> <r_lp_Energy>
19.7139

> <b_lp_Chiralities_Consistent>
1

> <s_lp_Variant>
AV-unprocessed.smi:2768-2

> <Gold.Version>
5.8.1

> <Gold.Id.Protein>
6NUR|6NUR_protein|mol2

> <Gold.PLP.Fitness>
36.4578

> <Gold.PLP.PLP>
-27.4638

> <Gold.PLP.part.hbond>
-2.9418

> <Gold.PLP.part.metal>
0.0000

> <Gold.PLP.part.buried>
-2.8937

> <Gold.PLP.part.nonpolar>
-22.3924

> <Gold.PLP.part.repulsive>
0.1330

> <Gold.PLP.ligand.clash>
0.0000

> <Gold.PLP.ligand.torsion>
0.0156

> <Gold.PLP.Chemscore.Hbond>
2.0000

> <Gold.PLP.Chemscore.CHOScore>
1.0000

> <Gold.PLP.Chemscore.Metal>
0.0000

> <Gold.Chemscore.Hbonds>
donor molecule, donor type, donor heavy atom, donor atom, acceptor molecule, acceptor atom, score
      L1  H     3    22       P1  7948  1.00
      L1  H    10    31       P1  7948  1.00
      L1  C    18    35       P1 10171  1.00

> <Gold.PLP.Chemscore.Internal.Correction>
0.0253

> <Gold.Rescore>
     Score         DG    S(hbond)    S(metal)    S(lipo)     H(rot)  DE(clash)    DE(int)     intcor
     12.67     -14.33       1.97        0.00      63.20       2.00       0.13       1.53       ----

> <Gold.Chemscore.Fitness>
12.6743

> <Gold.Chemscore.DG>
-14.3327

> <Gold.Chemscore.ZeroCoef>
-5.4800

> <Gold.Chemscore.Hbond>
1.9670

> <Gold.Chemscore.Metal>
0.0000

> <Gold.Chemscore.Lipo>
63.2050

> <Gold.Chemscore.Internal_Hbond>
0.0000

> <Gold.Chemscore.DEClash>
0.1334

> <Gold.Chemscore.DEInternal>
1.5251

> <Gold.Chemscore.Rot>
1.9969

> <Gold.Chemscore.Internal.Correction>
   9.000000E+99

> <Gold.Chemscore.Hbonds>
donor molecule, donor type, donor heavy atom, donor atom, acceptor molecule, acceptor atom, score
      L1  H     3    22       P1  7948  0.93
      L1  H    10    31       P1  7948  0.98

> <Gold.Chemscore.Hbond.Weighted>
-6.5699

> <Gold.Chemscore.Metal.Weighted>
-0.0000

> <Gold.Chemscore.Lipo.Weighted>
-7.3950

> <Gold.Chemscore.Internal_Hbond.Weighted>
0.0000

> <Gold.Chemscore.DEClash.Weighted>
0.1334

> <Gold.Chemscore.DEInternal.Weighted>
1.5251

> <Gold.Chemscore.Rot.Weighted>
5.1122

> <Gold.Chemscore.Internal.Correction.Weighted>
   9.000000E+99

> <Gold.Protein.RotatedTorsions>
[ 6907 6896 6895 6894 ] final   -8.67 input  -60.11 | X-H torsion
[ 7974 7965 7964 7962 ] final -152.00 input  175.53 | X-H torsion
[ 8008 7997 7996 7995 ] final  -58.80 input   59.86 | X-H torsion
[ 10167 10162 10161 10158 ] final  121.94 input  -65.29 | X-H torsion
[ 10718 10713 10712 10709 ] final  169.65 input   66.30 | X-H torsion
[ 10763 10752 10751 10750 ] final  120.85 input  -60.55 | X-H torsion
[ 11005 11000 10999 10996 ] final   58.36 input  -57.11 | X-H torsion

> <Gold.Protein.ActiveResidues>
 VAL166  LYS551  ARG553  GLY616  TRP617  ASP618  TYR619  PRO620  LYS621  CYS622 
 ASP623  PHE694  ASN695  SER759  ASP760  ASP761  ALA762  ILE779  LEU786  VAL792 
 PHE793  MET794  SER795  GLU796  ALA797  LYS798  CYS799  TRP800  GLU811  SER814 

> <Gold.Protein.RotatedAtoms>
  151.4300  135.1008  159.9639 H   0  0  0  0  0  0  0  0  0  0  0  0  # atno 6907 bound_to 6896
  152.4959  133.8626  159.7268 H   0  0  0  0  0  0  0  0  0  0  0  0  # atno 6908 bound_to 6896
  150.9162  133.6878  159.2870 H   0  0  0  0  0  0  0  0  0  0  0  0  # atno 6909 bound_to 6896
  144.7818  140.4722  143.5834 H   0  0  0  0  0  0  0  0  0  0  0  0  # atno 7974 bound_to 7965
  154.4324  140.1076  156.6014 H   0  0  0  0  0  0  0  0  0  0  0  0  # atno 8008 bound_to 7997
  155.5907  140.3492  155.4547 H   0  0  0  0  0  0  0  0  0  0  0  0  # atno 8009 bound_to 7997
  156.0249  140.1247  157.0309 H   0  0  0  0  0  0  0  0  0  0  0  0  # atno 8010 bound_to 7997
  139.5889  144.7017  151.3340 H   0  0  0  0  0  0  0  0  0  0  0  0  # atno 10167 bound_to 10162
  157.0195  131.0228  151.2779 H   0  0  0  0  0  0  0  0  0  0  0  0  # atno 10718 bound_to 10713
  153.6049  135.3441  155.2958 H   0  0  0  0  0  0  0  0  0  0  0  0  # atno 10763 bound_to 10752
  154.8629  135.4236  154.2372 H   0  0  0  0  0  0  0  0  0  0  0  0  # atno 10764 bound_to 10752
  153.3209  135.7038  153.7103 H   0  0  0  0  0  0  0  0  0  0  0  0  # atno 10765 bound_to 10752
  140.0383  134.5910  155.9415 H   0  0  0  0  0  0  0  0  0  0  0  0  # atno 11005 bound_to 11000
  145.6028  139.1505  143.3119 LP  0  0  0  0  0  0  0  0  0  0  0  0  # atno 17320 bound_to 7965
  146.2031  140.6149  142.9093 LP  0  0  0  0  0  0  0  0  0  0  0  0  # atno 17321 bound_to 7965
  140.7156  143.7276  150.7648 LP  0  0  0  0  0  0  0  0  0  0  0  0  # atno 17342 bound_to 10162
  140.0827  143.4953  152.2521 LP  0  0  0  0  0  0  0  0  0  0  0  0  # atno 17343 bound_to 10162
  157.5260  130.8028  149.7862 LP  0  0  0  0  0  0  0  0  0  0  0  0  # atno 17370 bound_to 10713
  156.0107  130.3834  150.2275 LP  0  0  0  0  0  0  0  0  0  0  0  0  # atno 17371 bound_to 10713
  141.1869  133.6558  156.5261 LP  0  0  0  0  0  0  0  0  0  0  0  0  # atno 17394 bound_to 11000
  140.4110  134.7272  157.4836 LP  0  0  0  0  0  0  0  0  0  0  0  0  # atno 17395 bound_to 11000

$$$$
