AV-unprocessed.smi:2925|AV-procd|sdf|11223|dock1
  -GOLD-   2272016113D 1   1.00000     0.00000
 Structure written by MMmdl.
 44 45  0  0  0  0  0  0  0  0  1 V2000
  149.6533  134.9005  157.9678 C   0  0  0  0  0  0  0  0  0  0  0  0
  149.0261  134.4852  156.6287 C   0  0  0  0  0  0  0  0  0  0  0  0
  149.9419  134.7299  155.4124 C   0  0  1  0  0  0  0  0  0  0  0  0
  149.1563  134.6348  154.1815 N   0  0  0  0  0  0  0  0  0  0  0  0
  148.2628  133.6777  153.8937 C   0  0  0  0  0  0  0  0  0  0  0  0
  147.9887  132.7430  154.6475 O   0  0  0  0  0  0  0  0  0  0  0  0
  147.6992  133.8807  152.6900 N   0  0  0  0  0  0  0  0  0  0  0  0
  146.7153  133.0760  152.0951 C   0  0  0  0  0  0  0  0  0  0  0  0
  145.7453  133.6646  151.3474 C   0  0  0  0  0  0  0  0  0  0  0  0
  145.6755  135.1730  151.1697 C   0  0  0  0  0  0  0  0  0  0  0  0
  144.7369  132.8330  150.7231 C   0  0  0  0  0  0  0  0  0  0  0  0
  144.7849  131.5041  150.8862 C   0  0  0  0  0  0  0  0  0  0  0  0
  145.7986  130.8899  151.6357 N   0  0  0  0  0  0  0  0  0  0  0  0
  145.7749  129.4287  151.7401 C   0  0  0  0  0  0  0  0  0  0  0  0
  146.8001  131.6015  152.2285 C   0  0  0  0  0  0  0  0  0  0  0  0
  147.7189  131.0280  152.8184 O   0  0  0  0  0  0  0  0  0  0  0  0
  150.6466  136.1014  155.4888 C   0  0  2  0  0  0  0  0  0  0  0  0
  149.7244  137.3133  155.3321 C   0  0  0  0  0  0  0  0  0  0  0  0
  150.6901  138.3754  154.8615 C   0  0  0  0  0  0  0  0  0  0  0  0
  151.6035  137.5765  153.9374 C   0  0  0  0  0  0  0  0  0  0  0  0
  151.5945  136.2393  154.4320 O   0  0  0  0  0  0  0  0  0  0  0  0
  148.9460  134.7601  158.7854 H   0  0  0  0  0  0  0  0  0  0  0  0
  149.9428  135.9516  157.9560 H   0  0  0  0  0  0  0  0  0  0  0  0
  150.5411  134.3106  158.1971 H   0  0  0  0  0  0  0  0  0  0  0  0
  148.7433  133.4326  156.6738 H   0  0  0  0  0  0  0  0  0  0  0  0
  148.0972  135.0414  156.4987 H   0  0  0  0  0  0  0  0  0  0  0  0
  150.7119  133.9560  155.4202 H   0  0  0  0  0  0  0  0  0  0  0  0
  149.3075  135.3598  153.4955 H   0  0  0  0  0  0  0  0  0  0  0  0
  147.9115  134.7447  152.2136 H   0  0  0  0  0  0  0  0  0  0  0  0
  144.8193  135.4594  150.5586 H   0  0  0  0  0  0  0  0  0  0  0  0
  146.5765  135.5427  150.6795 H   0  0  0  0  0  0  0  0  0  0  0  0
  145.5786  135.6683  152.1364 H   0  0  0  0  0  0  0  0  0  0  0  0
  143.9454  133.2756  150.1362 H   0  0  0  0  0  0  0  0  0  0  0  0
  144.0599  130.8338  150.4479 H   0  0  0  0  0  0  0  0  0  0  0  0
  145.8102  129.1151  152.7845 H   0  0  0  0  0  0  0  0  0  0  0  0
  146.6344  128.9964  151.2258 H   0  0  0  0  0  0  0  0  0  0  0  0
  144.8769  128.9901  151.3039 H   0  0  0  0  0  0  0  0  0  0  0  0
  151.1886  136.1919  156.4317 H   0  0  0  0  0  0  0  0  0  0  0  0
  148.9722  137.1286  154.5637 H   0  0  0  0  0  0  0  0  0  0  0  0
  149.2112  137.5822  156.2558 H   0  0  0  0  0  0  0  0  0  0  0  0
  150.2008  139.2112  154.3607 H   0  0  0  0  0  0  0  0  0  0  0  0
  151.2575  138.7661  155.7072 H   0  0  0  0  0  0  0  0  0  0  0  0
  151.2077  137.5707  152.9213 H   0  0  0  0  0  0  0  0  0  0  0  0
  152.6151  137.9818  153.9044 H   0  0  0  0  0  0  0  0  0  0  0  0
  1  2  1  0  0  0  0
  1 22  1  0  0  0  0
  1 23  1  0  0  0  0
  1 24  1  0  0  0  0
  2  3  1  0  0  0  0
  2 25  1  0  0  0  0
  2 26  1  0  0  0  0
  3  4  1  0  0  0  0
  3 17  1  0  0  0  0
  3 27  1  0  0  0  0
  4  5  1  0  0  0  0
  4 28  1  0  0  0  0
  5  6  2  0  0  0  0
  5  7  1  0  0  0  0
  7  8  1  0  0  0  0
  7 29  1  0  0  0  0
  8 15  1  0  0  0  0
  8  9  2  0  0  0  0
  9 10  1  0  0  0  0
  9 11  1  0  0  0  0
 10 30  1  0  0  0  0
 10 31  1  0  0  0  0
 10 32  1  0  0  0  0
 11 12  2  0  0  0  0
 11 33  1  0  0  0  0
 12 13  1  0  0  0  0
 12 34  1  0  0  0  0
 13 14  1  0  0  0  0
 13 15  1  0  0  0  0
 14 35  1  0  0  0  0
 14 36  1  0  0  0  0
 14 37  1  0  0  0  0
 15 16  2  0  0  0  0
 17 21  1  0  0  0  0
 17 18  1  0  0  0  0
 17 38  1  0  0  0  0
 18 19  1  0  0  0  0
 18 39  1  0  0  0  0
 18 40  1  0  0  0  0
 19 20  1  0  0  0  0
 19 41  1  0  0  0  0
 19 42  1  0  0  0  0
 20 21  1  0  0  0  0
 20 43  1  0  0  0  0
 20 44  1  0  0  0  0
M  END
> <s_m_source_file>
AV-unprocessed.smi

> <i_m_source_file_index>
2925

> <i_lp_mmshare_version>
43012

> <i_f3d_flags>
0

> <s_epik_input>
TzFbQ0gyXVtDSDJdW0NIMl1bQ0BIXTFbQ0BIXShbQ0gyXVtDSDNdKVtOSF1DKD1PKVtOSF1jMmMoW0NIM10pW2NIXVtjSF1uKFtDSDNdKWMyPU8=

> <s_epik_cmdline>
J2VwaWtfcHl0aG9uJywgJy1waCcsICc3LjAnLCAnLXRuJywgJzgnLCAnLW1hJywgJzIwMCcsICctbWV0YWxfYmluZGluZycsICctaW1hZScsICc8aW5maWxlLm1hZT4nLCAnLW9tYWUnLCAnPG91dGZpbGUubWFlPic=

> <r_lp_tautomer_probability>
1

> <r_epik_Ionization_Penalty>
2.58789e-05

> <r_epik_Ionization_Penalty_Charging>
6.72534e-06

> <r_epik_Ionization_Penalty_Neutral>
1.91535e-05

> <r_epik_State_Penalty>
-0

> <r_epik_Charging_Adjusted_Penalty>
6.72534e-06

> <i_epik_Tot_Q>
0

> <i_epik_Tot_abs_Q>
0

> <r_epik_Metal_State_Penalty>
-0

> <b_epik_Metal_Only>
0

> <s_lp_Force_Field>
OPLS_2005

> <r_lp_Energy>
34.616

> <b_lp_Chiralities_Consistent>
1

> <s_lp_Variant>
AV-unprocessed.smi:2925-2

> <Gold.Version>
5.8.1

> <Gold.Id.Protein>
6NUR|6NUR_protein|mol2

> <Gold.PLP.Fitness>
42.5870

> <Gold.PLP.PLP>
-34.1923

> <Gold.PLP.part.hbond>
-3.0000

> <Gold.PLP.part.metal>
0.0000

> <Gold.PLP.part.buried>
-5.7894

> <Gold.PLP.part.nonpolar>
-26.5940

> <Gold.PLP.part.repulsive>
0.2917

> <Gold.PLP.ligand.clash>
0.0000

> <Gold.PLP.ligand.torsion>
0.5916

> <Gold.PLP.Chemscore.Hbond>
3.0000

> <Gold.PLP.Chemscore.CHOScore>
0.0000

> <Gold.PLP.Chemscore.Metal>
0.0000

> <Gold.Chemscore.Hbonds>
donor molecule, donor type, donor heavy atom, donor atom, acceptor molecule, acceptor atom, score
      L1  H     4    28       P1  7948  1.00
      L1  H     7    29       P1  7948  1.00
      P1  H 10752 10765       L1    21  0.90

> <Gold.PLP.Chemscore.Internal.Correction>
0.5779

> <Gold.Rescore>
     Score         DG    S(hbond)    S(metal)    S(lipo)     H(rot)  DE(clash)    DE(int)     intcor
     12.90     -18.94       2.47        0.00      74.20       1.36       0.19       5.85       ----

> <Gold.Chemscore.Fitness>
12.8956

> <Gold.Chemscore.DG>
-18.9373

> <Gold.Chemscore.ZeroCoef>
-5.4800

> <Gold.Chemscore.Hbond>
2.4706

> <Gold.Chemscore.Metal>
0.0000

> <Gold.Chemscore.Lipo>
74.2049

> <Gold.Chemscore.Internal_Hbond>
0.0000

> <Gold.Chemscore.DEClash>
0.1899

> <Gold.Chemscore.DEInternal>
5.8518

> <Gold.Chemscore.Rot>
1.3579

> <Gold.Chemscore.Internal.Correction>
   9.000000E+99

> <Gold.Chemscore.Hbonds>
donor molecule, donor type, donor heavy atom, donor atom, acceptor molecule, acceptor atom, score
      L1  H     4    28       P1  7948  0.25
      L1  H     7    29       P1  7948  0.54
      P1  H 10752 10765       L1    21  0.70

> <Gold.Chemscore.Hbond.Weighted>
-8.2517

> <Gold.Chemscore.Metal.Weighted>
-0.0000

> <Gold.Chemscore.Lipo.Weighted>
-8.6820

> <Gold.Chemscore.Internal_Hbond.Weighted>
0.0000

> <Gold.Chemscore.DEClash.Weighted>
0.1899

> <Gold.Chemscore.DEInternal.Weighted>
5.8518

> <Gold.Chemscore.Rot.Weighted>
3.4763

> <Gold.Chemscore.Internal.Correction.Weighted>
   9.000000E+99

> <Gold.Protein.RotatedTorsions>
[ 6907 6896 6895 6894 ] final  158.91 input  -60.11 | X-H torsion
[ 7974 7965 7964 7962 ] final -147.17 input  175.53 | X-H torsion
[ 8008 7997 7996 7995 ] final   38.73 input   59.86 | X-H torsion
[ 10167 10162 10161 10158 ] final  102.78 input  -65.29 | X-H torsion
[ 10718 10713 10712 10709 ] final -125.96 input   66.30 | X-H torsion
[ 10763 10752 10751 10750 ] final -168.79 input  -60.55 | X-H torsion
[ 11005 11000 10999 10996 ] final -139.81 input  -57.11 | X-H torsion

> <Gold.Protein.ActiveResidues>
 VAL166  LYS551  ARG553  GLY616  TRP617  ASP618  TYR619  PRO620  LYS621  CYS622 
 ASP623  PHE694  ASN695  SER759  ASP760  ASP761  ALA762  ILE779  LEU786  VAL792 
 PHE793  MET794  SER795  GLU796  ALA797  LYS798  CYS799  TRP800  GLU811  SER814 

> <Gold.Protein.RotatedAtoms>
  151.9934  133.3799  159.4153 H   0  0  0  0  0  0  0  0  0  0  0  0  # atno 6907 bound_to 6896
  150.6919  134.3912  159.5086 H   0  0  0  0  0  0  0  0  0  0  0  0  # atno 6908 bound_to 6896
  152.1649  134.8882  160.0589 H   0  0  0  0  0  0  0  0  0  0  0  0  # atno 6909 bound_to 6896
  144.8111  140.5361  143.5642 H   0  0  0  0  0  0  0  0  0  0  0  0  # atno 7974 bound_to 7965
  155.2250  140.3334  155.4310 H   0  0  0  0  0  0  0  0  0  0  0  0  # atno 8008 bound_to 7997
  156.2318  140.1854  156.7269 H   0  0  0  0  0  0  0  0  0  0  0  0  # atno 8009 bound_to 7997
  154.5991  140.0626  156.9329 H   0  0  0  0  0  0  0  0  0  0  0  0  # atno 8010 bound_to 7997
  139.7320  144.7033  151.0707 H   0  0  0  0  0  0  0  0  0  0  0  0  # atno 10167 bound_to 10162
  156.1722  130.6675  151.0195 H   0  0  0  0  0  0  0  0  0  0  0  0  # atno 10718 bound_to 10713
  154.6591  135.2922  154.9890 H   0  0  0  0  0  0  0  0  0  0  0  0  # atno 10763 bound_to 10752
  154.0956  135.6584  153.4863 H   0  0  0  0  0  0  0  0  0  0  0  0  # atno 10764 bound_to 10752
  153.0419  135.5230  154.7534 H   0  0  0  0  0  0  0  0  0  0  0  0  # atno 10765 bound_to 10752
  140.8484  134.2316  157.4773 H   0  0  0  0  0  0  0  0  0  0  0  0  # atno 11005 bound_to 11000
  145.5323  139.1475  143.3493 LP  0  0  0  0  0  0  0  0  0  0  0  0  # atno 17320 bound_to 7965
  146.2409  140.5463  142.8934 LP  0  0  0  0  0  0  0  0  0  0  0  0  # atno 17321 bound_to 7965
  140.7773  143.5031  150.9746 LP  0  0  0  0  0  0  0  0  0  0  0  0  # atno 17342 bound_to 10162
  139.8719  143.7181  152.3165 LP  0  0  0  0  0  0  0  0  0  0  0  0  # atno 17343 bound_to 10162
  157.6811  131.0838  150.7368 LP  0  0  0  0  0  0  0  0  0  0  0  0  # atno 17370 bound_to 10713
  156.7427  130.4744  149.5474 LP  0  0  0  0  0  0  0  0  0  0  0  0  # atno 17371 bound_to 10713
  139.8704  134.9671  156.4584 LP  0  0  0  0  0  0  0  0  0  0  0  0  # atno 17394 bound_to 11000
  140.8818  133.7912  155.9474 LP  0  0  0  0  0  0  0  0  0  0  0  0  # atno 17395 bound_to 11000

$$$$
