AV-unprocessed.smi:2188|AV-procd|sdf|8880|dock2
  -GOLD-   2272012 83D 1   1.00000     0.00000
 Structure written by MMmdl.
 39 41  0  0  0  0  0  0  0  0  1 V2000
  145.0132  137.9821  153.7398 O   0  0  0  0  0  0  0  0  0  0  0  0
  146.2389  137.8611  153.7022 C   0  0  0  0  0  0  0  0  0  0  0  0
  146.8268  136.6676  153.4906 N   0  0  0  0  0  0  0  0  0  0  0  0
  146.1390  135.4024  153.2459 C   0  0  0  0  0  0  0  0  0  0  0  0
  146.4804  134.8164  151.8630 C   0  0  0  0  0  0  0  0  0  0  0  0
  145.4731  133.7909  151.3728 C   0  0  0  0  0  0  0  0  0  0  0  0
  144.0861  134.0266  151.4738 C   0  0  0  0  0  0  0  0  0  0  0  0
  143.1948  133.0345  151.0226 C   0  0  0  0  0  0  0  0  0  0  0  0
  143.7302  131.8468  150.4851 C   0  0  0  0  0  0  0  0  0  0  0  0
  145.0557  131.6116  150.3800 N   0  0  0  0  0  0  0  0  0  0  0  0
  145.9035  132.5668  150.8183 C   0  0  0  0  0  0  0  0  0  0  0  0
  147.2005  138.9632  153.8698 C   0  0  0  0  0  0  0  0  0  0  0  0
  146.8265  140.2199  153.5129 C   0  0  0  0  0  0  0  0  0  0  0  0
  147.7224  141.3425  153.6410 C   0  0  0  0  0  0  0  0  0  0  0  0
  148.9385  141.1213  154.1518 C   0  0  0  0  0  0  0  0  0  0  0  0
  149.3764  139.8644  154.5663 N   0  0  0  0  0  0  0  0  0  0  0  0
  150.6970  139.7975  155.1846 C   0  0  0  0  0  0  0  0  0  0  0  0
  151.4273  138.5401  154.7485 C   0  0  0  0  0  0  0  0  0  0  0  0
  150.4318  137.1417  155.3784 S   0  0  0  0  0  0  0  0  0  0  0  0
  150.9587  135.9021  154.7876 O   0  0  0  0  0  0  0  0  0  0  0  0
  150.3449  137.2646  156.8420 O   0  0  0  0  0  0  0  0  0  0  0  0
  148.9429  137.5067  154.7044 N   0  0  0  0  0  0  0  0  0  0  0  0
  148.5488  138.7154  154.4181 C   0  0  0  0  0  0  0  0  0  0  0  0
  147.8359  136.6403  153.4813 H   0  0  0  0  0  0  0  0  0  0  0  0
  146.4415  134.7001  154.0228 H   0  0  0  0  0  0  0  0  0  0  0  0
  145.0590  135.5191  153.3491 H   0  0  0  0  0  0  0  0  0  0  0  0
  146.5549  135.6212  151.1303 H   0  0  0  0  0  0  0  0  0  0  0  0
  147.4649  134.3482  151.8974 H   0  0  0  0  0  0  0  0  0  0  0  0
  143.7101  134.9461  151.8981 H   0  0  0  0  0  0  0  0  0  0  0  0
  142.1267  133.1783  151.0890 H   0  0  0  0  0  0  0  0  0  0  0  0
  143.0756  131.0647  150.1298 H   0  0  0  0  0  0  0  0  0  0  0  0
  146.9570  132.3463  150.7279 H   0  0  0  0  0  0  0  0  0  0  0  0
  145.8364  140.4207  153.1292 H   0  0  0  0  0  0  0  0  0  0  0  0
  147.4206  142.3327  153.3331 H   0  0  0  0  0  0  0  0  0  0  0  0
  149.6532  141.9224  154.2741 H   0  0  0  0  0  0  0  0  0  0  0  0
  151.2962  140.6645  154.9045 H   0  0  0  0  0  0  0  0  0  0  0  0
  150.5901  139.8298  156.2693 H   0  0  0  0  0  0  0  0  0  0  0  0
  151.5109  138.4674  153.6636 H   0  0  0  0  0  0  0  0  0  0  0  0
  152.4267  138.4813  155.1792 H   0  0  0  0  0  0  0  0  0  0  0  0
  1  2  2  0  0  0  0
  2  3  1  0  0  0  0
  2 12  1  0  0  0  0
  3  4  1  0  0  0  0
  3 24  1  0  0  0  0
  4  5  1  0  0  0  0
  4 25  1  0  0  0  0
  4 26  1  0  0  0  0
  5  6  1  0  0  0  0
  5 27  1  0  0  0  0
  5 28  1  0  0  0  0
  6 11  1  0  0  0  0
  6  7  2  0  0  0  0
  7  8  1  0  0  0  0
  7 29  1  0  0  0  0
  8  9  2  0  0  0  0
  8 30  1  0  0  0  0
  9 10  1  0  0  0  0
  9 31  1  0  0  0  0
 10 11  2  0  0  0  0
 11 32  1  0  0  0  0
 12 23  1  0  0  0  0
 12 13  2  0  0  0  0
 13 14  1  0  0  0  0
 13 33  1  0  0  0  0
 14 15  2  0  0  0  0
 14 34  1  0  0  0  0
 15 16  1  0  0  0  0
 15 35  1  0  0  0  0
 16 23  1  0  0  0  0
 16 17  1  0  0  0  0
 17 18  1  0  0  0  0
 17 36  1  0  0  0  0
 17 37  1  0  0  0  0
 18 19  1  0  0  0  0
 18 38  1  0  0  0  0
 18 39  1  0  0  0  0
 19 20  2  0  0  0  0
 19 21  2  0  0  0  0
 19 22  1  0  0  0  0
 22 23  2  0  0  0  0
M  END
> <s_m_source_file>
AV-unprocessed.smi

> <i_m_source_file_index>
2188

> <i_lp_mmshare_version>
43012

> <i_f3d_flags>
0

> <s_epik_input>
W0NIMl0xW0NIMl1TKD1PKSg9TylOPUMoTjEyKUMoPVtDSF1bQ0hdPVtDSF0yKUMoPU8pW05IXVtDSDJdW0NIMl1jM1tjSF1bY0hdW2NIXW5bY0hdMw==

> <s_epik_cmdline>
J2VwaWtfcHl0aG9uJywgJy1waCcsICc3LjAnLCAnLXRuJywgJzgnLCAnLW1hJywgJzIwMCcsICctbWV0YWxfYmluZGluZycsICctaW1hZScsICc8aW5maWxlLm1hZT4nLCAnLW9tYWUnLCAnPG91dGZpbGUubWFlPic=

> <r_epik_Ionization_Penalty>
0.00945125

> <r_epik_Ionization_Penalty_Charging>
8.06468e-09

> <r_epik_Ionization_Penalty_Neutral>
0.00945124

> <r_epik_State_Penalty>
0.0071398

> <r_epik_Charging_Adjusted_Penalty>
0.0071398

> <i_epik_Tot_Q>
0

> <i_epik_Tot_abs_Q>
0

> <r_epik_Metal_State_Penalty>
0.0479458

> <b_epik_Metal_Only>
0

> <s_lp_Force_Field>
OPLS_2005

> <r_lp_Energy>
29.0495

> <b_lp_Chiralities_Consistent>
1

> <s_lp_Variant>
AV-unprocessed.smi:2188-1

> <Gold.Version>
5.8.1

> <Gold.Id.Protein>
6NUR|6NUR_protein|mol2

> <Gold.PLP.Fitness>
44.5254

> <Gold.PLP.PLP>
-34.9838

> <Gold.PLP.part.hbond>
-2.0000

> <Gold.PLP.part.metal>
0.0000

> <Gold.PLP.part.buried>
-0.7033

> <Gold.PLP.part.nonpolar>
-33.2330

> <Gold.PLP.part.repulsive>
0.9892

> <Gold.PLP.ligand.clash>
0.0000

> <Gold.PLP.ligand.torsion>
0.6045

> <Gold.PLP.Chemscore.Hbond>
1.4960

> <Gold.PLP.Chemscore.CHOScore>
2.0000

> <Gold.PLP.Chemscore.Metal>
0.0000

> <Gold.Chemscore.Hbonds>
donor molecule, donor type, donor heavy atom, donor atom, acceptor molecule, acceptor atom, score
      L1  H     3    24       P1  7948  0.50
      P1  H 10752 10765       L1    20  0.99
      L1  C     9    31       P1 10952  1.00
      L1  C    11    32       P1 10747  0.96

> <Gold.PLP.Chemscore.Internal.Correction>
0.2625

> <Gold.Rescore>
     Score         DG    S(hbond)    S(metal)    S(lipo)     H(rot)  DE(clash)    DE(int)     intcor
     13.50     -17.12       1.51        0.00      88.46       1.47       1.45       2.17       ----

> <Gold.Chemscore.Fitness>
13.5043

> <Gold.Chemscore.DG>
-17.1205

> <Gold.Chemscore.ZeroCoef>
-5.4800

> <Gold.Chemscore.Hbond>
1.5114

> <Gold.Chemscore.Metal>
0.0000

> <Gold.Chemscore.Lipo>
88.4639

> <Gold.Chemscore.Internal_Hbond>
0.0000

> <Gold.Chemscore.DEClash>
1.4507

> <Gold.Chemscore.DEInternal>
2.1655

> <Gold.Chemscore.Rot>
1.4679

> <Gold.Chemscore.Internal.Correction>
   9.000000E+99

> <Gold.Chemscore.Hbonds>
donor molecule, donor type, donor heavy atom, donor atom, acceptor molecule, acceptor atom, score
      L1  H     3    24       P1  7948  0.48
      P1  H 10752 10765       L1    20  0.91

> <Gold.Chemscore.Hbond.Weighted>
-5.0480

> <Gold.Chemscore.Metal.Weighted>
-0.0000

> <Gold.Chemscore.Lipo.Weighted>
-10.3503

> <Gold.Chemscore.Internal_Hbond.Weighted>
0.0000

> <Gold.Chemscore.DEClash.Weighted>
1.4507

> <Gold.Chemscore.DEInternal.Weighted>
2.1655

> <Gold.Chemscore.Rot.Weighted>
3.7578

> <Gold.Chemscore.Internal.Correction.Weighted>
   9.000000E+99

> <Gold.Protein.RotatedTorsions>
[ 6907 6896 6895 6894 ] final  -56.40 input  -60.11 | X-H torsion
[ 7974 7965 7964 7962 ] final  -52.21 input  175.53 | X-H torsion
[ 8008 7997 7996 7995 ] final  135.95 input   59.86 | X-H torsion
[ 10167 10162 10161 10158 ] final -135.98 input  -65.29 | X-H torsion
[ 10718 10713 10712 10709 ] final -173.47 input   66.30 | X-H torsion
[ 10763 10752 10751 10750 ] final  164.07 input  -60.55 | X-H torsion
[ 11005 11000 10999 10996 ] final   91.44 input  -57.11 | X-H torsion

> <Gold.Protein.ActiveResidues>
 VAL166  LYS551  ARG553  GLY616  TRP617  ASP618  TYR619  PRO620  LYS621  CYS622 
 ASP623  PHE694  ASN695  SER759  ASP760  ASP761  ALA762  ILE779  LEU786  VAL792 
 PHE793  MET794  SER795  GLU796  ALA797  LYS798  CYS799  TRP800  GLU811  SER814 

> <Gold.Protein.RotatedAtoms>
  150.8171  134.7358  159.6738 H   0  0  0  0  0  0  0  0  0  0  0  0  # atno 6907 bound_to 6896
  152.4289  134.5813  159.9958 H   0  0  0  0  0  0  0  0  0  0  0  0  # atno 6908 bound_to 6896
  151.6007  133.3319  159.3083 H   0  0  0  0  0  0  0  0  0  0  0  0  # atno 6909 bound_to 6896
  145.9104  140.7919  142.9698 H   0  0  0  0  0  0  0  0  0  0  0  0  # atno 7974 bound_to 7965
  156.3004  140.2457  156.3666 H   0  0  0  0  0  0  0  0  0  0  0  0  # atno 8008 bound_to 7997
  154.8827  140.0412  157.1811 H   0  0  0  0  0  0  0  0  0  0  0  0  # atno 8009 bound_to 7997
  154.8679  140.2930  155.5503 H   0  0  0  0  0  0  0  0  0  0  0  0  # atno 8010 bound_to 7997
  139.8724  143.6941  152.2638 H   0  0  0  0  0  0  0  0  0  0  0  0  # atno 10167 bound_to 10162
  156.7707  130.9447  151.3120 H   0  0  0  0  0  0  0  0  0  0  0  0  # atno 10718 bound_to 10713
  154.3034  135.2758  155.2600 H   0  0  0  0  0  0  0  0  0  0  0  0  # atno 10763 bound_to 10752
  154.5027  135.5804  153.6547 H   0  0  0  0  0  0  0  0  0  0  0  0  # atno 10764 bound_to 10752
  152.9897  135.6162  154.3206 H   0  0  0  0  0  0  0  0  0  0  0  0  # atno 10765 bound_to 10752
  139.8839  134.8674  156.3428 H   0  0  0  0  0  0  0  0  0  0  0  0  # atno 11005 bound_to 11000
  144.6743  140.1817  143.7405 LP  0  0  0  0  0  0  0  0  0  0  0  0  # atno 17320 bound_to 7965
  145.8678  139.2256  143.1679 LP  0  0  0  0  0  0  0  0  0  0  0  0  # atno 17321 bound_to 7965
  139.7271  144.7590  151.0861 LP  0  0  0  0  0  0  0  0  0  0  0  0  # atno 17342 bound_to 10162
  140.7758  143.5134  150.9625 LP  0  0  0  0  0  0  0  0  0  0  0  0  # atno 17343 bound_to 10162
  157.6692  130.9035  150.0001 LP  0  0  0  0  0  0  0  0  0  0  0  0  # atno 17370 bound_to 10713
  156.1280  130.3644  149.9778 LP  0  0  0  0  0  0  0  0  0  0  0  0  # atno 17371 bound_to 10713
  140.9647  133.7366  156.0450 LP  0  0  0  0  0  0  0  0  0  0  0  0  # atno 17394 bound_to 11000
  140.7946  134.3579  157.5456 LP  0  0  0  0  0  0  0  0  0  0  0  0  # atno 17395 bound_to 11000

$$$$
