AV-unprocessed.smi:730|AV-procd|sdf|3525|dock5
  -GOLD-   22720 0523D 1   1.00000     0.00000
 Structure written by MMmdl.
 40 41  0  0  0  0  0  0  0  0  1 V2000
  147.7213  141.3999  156.7743 C   0  0  0  0  0  0  0  0  0  0  0  0
  147.7512  141.2878  155.2369 C   0  0  0  0  0  0  0  0  0  0  0  0
  146.8863  142.4194  154.6505 C   0  0  0  0  0  0  0  0  0  0  0  0
  149.2066  141.4663  154.7658 C   0  0  0  0  0  0  0  0  0  0  0  0
  147.2243  139.9534  154.7872 C   0  0  0  0  0  0  0  0  0  0  0  0
  147.7145  138.9753  153.9644 C   0  0  0  0  0  0  0  0  0  0  0  0
  146.6948  137.9875  153.9886 C   0  0  0  0  0  0  0  0  0  0  0  0
  146.8255  136.7882  153.2429 N   0  0  0  0  0  0  0  0  0  0  0  0
  145.9829  135.7414  153.2218 C   0  0  0  0  0  0  0  0  0  0  0  0
  144.9467  135.6510  153.8807 O   0  0  0  0  0  0  0  0  0  0  0  0
  146.4106  134.7887  152.3808 N   0  0  0  0  0  0  0  0  0  0  0  0
  145.7242  133.5240  152.1247 C   0  0  1  0  0  0  0  0  0  0  0  0
  144.2754  133.7786  151.6663 C   0  0  0  0  0  0  0  0  0  0  0  0
  144.2980  133.6406  150.1451 C   0  0  0  0  0  0  0  0  0  0  0  0
  145.3211  132.5370  149.8992 C   0  0  0  0  0  0  0  0  0  0  0  0
  146.4053  132.7675  150.9611 C   0  0  2  0  0  0  0  0  0  0  0  0
  146.9390  131.5304  151.3860 O   0  0  0  0  0  0  0  0  0  0  0  0
  145.6705  138.3267  154.7544 N   0  0  0  0  0  0  0  0  0  0  0  0
  146.0035  139.5847  155.2684 O   0  0  0  0  0  0  0  0  0  0  0  0
  148.0997  142.3658  157.1108 H   0  0  0  0  0  0  0  0  0  0  0  0
  148.3346  140.6289  157.2422 H   0  0  0  0  0  0  0  0  0  0  0  0
  146.7070  141.2949  157.1619 H   0  0  0  0  0  0  0  0  0  0  0  0
  145.8471  142.3286  154.9691 H   0  0  0  0  0  0  0  0  0  0  0  0
  146.8966  142.4063  153.5599 H   0  0  0  0  0  0  0  0  0  0  0  0
  147.2434  143.3999  154.9672 H   0  0  0  0  0  0  0  0  0  0  0  0
  149.6163  142.4233  155.0911 H   0  0  0  0  0  0  0  0  0  0  0  0
  149.2822  141.4327  153.6782 H   0  0  0  0  0  0  0  0  0  0  0  0
  149.8504  140.6810  155.1636 H   0  0  0  0  0  0  0  0  0  0  0  0
  148.6534  138.9686  153.4312 H   0  0  0  0  0  0  0  0  0  0  0  0
  147.6444  136.7241  152.6568 H   0  0  0  0  0  0  0  0  0  0  0  0
  147.2719  134.9470  151.8788 H   0  0  0  0  0  0  0  0  0  0  0  0
  145.7218  132.9211  153.0355 H   0  0  0  0  0  0  0  0  0  0  0  0
  143.6279  133.0065  152.0841 H   0  0  0  0  0  0  0  0  0  0  0  0
  143.8745  134.7400  151.9901 H   0  0  0  0  0  0  0  0  0  0  0  0
  143.3179  133.4065  149.7291 H   0  0  0  0  0  0  0  0  0  0  0  0
  144.6417  134.5721  149.6935 H   0  0  0  0  0  0  0  0  0  0  0  0
  144.8379  131.5702  150.0513 H   0  0  0  0  0  0  0  0  0  0  0  0
  145.7187  132.5496  148.8840 H   0  0  0  0  0  0  0  0  0  0  0  0
  147.2116  133.3628  150.5293 H   0  0  0  0  0  0  0  0  0  0  0  0
  147.6150  131.2714  150.7784 H   0  0  0  0  0  0  0  0  0  0  0  0
  1  2  1  0  0  0  0
  1 20  1  0  0  0  0
  1 21  1  0  0  0  0
  1 22  1  0  0  0  0
  2  3  1  0  0  0  0
  2  4  1  0  0  0  0
  2  5  1  0  0  0  0
  3 23  1  0  0  0  0
  3 24  1  0  0  0  0
  3 25  1  0  0  0  0
  4 26  1  0  0  0  0
  4 27  1  0  0  0  0
  4 28  1  0  0  0  0
  5 19  1  0  0  0  0
  5  6  2  0  0  0  0
  6  7  1  0  0  0  0
  6 29  1  0  0  0  0
  7  8  1  0  0  0  0
  7 18  2  0  0  0  0
  8  9  1  0  0  0  0
  8 30  1  0  0  0  0
  9 10  2  0  0  0  0
  9 11  1  0  0  0  0
 11 12  1  0  0  0  0
 11 31  1  0  0  0  0
 12 16  1  0  0  0  0
 12 13  1  0  0  0  0
 12 32  1  0  0  0  0
 13 14  1  0  0  0  0
 13 33  1  0  0  0  0
 13 34  1  0  0  0  0
 14 15  1  0  0  0  0
 14 35  1  0  0  0  0
 14 36  1  0  0  0  0
 15 16  1  0  0  0  0
 15 37  1  0  0  0  0
 15 38  1  0  0  0  0
 16 17  1  0  0  0  0
 16 39  1  0  0  0  0
 17 40  1  0  0  0  0
 18 19  1  0  0  0  0
M  END
> <s_m_source_file>
AV-unprocessed.smi

> <i_m_source_file_index>
730

> <i_lp_mmshare_version>
43012

> <i_f3d_flags>
0

> <s_epik_input>
W0NIM11DKFtDSDNdKShbQ0gzXSljMVtjSF1jKG5vMSlbTkhdQyg9TylbTkhdW0NAQEhdMltDSDJdW0NIMl1bQ0gyXVtDQEhdMltPSF0=

> <s_epik_cmdline>
J2VwaWtfcHl0aG9uJywgJy1waCcsICc3LjAnLCAnLXRuJywgJzgnLCAnLW1hJywgJzIwMCcsICctbWV0YWxfYmluZGluZycsICctaW1hZScsICc8aW5maWxlLm1hZT4nLCAnLW9tYWUnLCAnPG91dGZpbGUubWFlPic=

> <r_lp_tautomer_probability>
1

> <r_epik_Ionization_Penalty>
2.23071e-05

> <r_epik_Ionization_Penalty_Charging>
0

> <r_epik_Ionization_Penalty_Neutral>
2.23071e-05

> <r_epik_State_Penalty>
-0

> <r_epik_Charging_Adjusted_Penalty>
0

> <i_epik_Tot_Q>
0

> <i_epik_Tot_abs_Q>
0

> <r_epik_Metal_State_Penalty>
-0

> <b_epik_Metal_Only>
0

> <s_lp_Force_Field>
OPLS_2005

> <r_lp_Energy>
16.5613

> <b_lp_Chiralities_Consistent>
1

> <s_lp_Variant>
AV-unprocessed.smi:730-4

> <Gold.Version>
5.8.1

> <Gold.Id.Protein>
6NUR|6NUR_protein|mol2

> <Gold.PLP.Fitness>
36.6449

> <Gold.PLP.PLP>
-28.5240

> <Gold.PLP.part.hbond>
-2.8395

> <Gold.PLP.part.metal>
0.0000

> <Gold.PLP.part.buried>
-2.7329

> <Gold.PLP.part.nonpolar>
-23.1445

> <Gold.PLP.part.repulsive>
0.2708

> <Gold.PLP.ligand.clash>
0.0000

> <Gold.PLP.ligand.torsion>
0.2085

> <Gold.PLP.Chemscore.Hbond>
2.8437

> <Gold.PLP.Chemscore.CHOScore>
0.0000

> <Gold.PLP.Chemscore.Metal>
0.0000

> <Gold.Chemscore.Hbonds>
donor molecule, donor type, donor heavy atom, donor atom, acceptor molecule, acceptor atom, score
      L1  H     8    30       P1  7948  1.00
      L1  H    11    31       P1  7948  0.76
      L1  H    17    40       P1 10747  0.94

> <Gold.PLP.Chemscore.Internal.Correction>
0.0068

> <Gold.Rescore>
     Score         DG    S(hbond)    S(metal)    S(lipo)     H(rot)  DE(clash)    DE(int)     intcor
     16.27     -18.45       2.82        0.00      67.81       1.71       0.06       2.13       ----

> <Gold.Chemscore.Fitness>
16.2658

> <Gold.Chemscore.DG>
-18.4475

> <Gold.Chemscore.ZeroCoef>
-5.4800

> <Gold.Chemscore.Hbond>
2.8198

> <Gold.Chemscore.Metal>
0.0000

> <Gold.Chemscore.Lipo>
67.8065

> <Gold.Chemscore.Internal_Hbond>
0.0000

> <Gold.Chemscore.DEClash>
0.0561

> <Gold.Chemscore.DEInternal>
2.1256

> <Gold.Chemscore.Rot>
1.7125

> <Gold.Chemscore.Internal.Correction>
   9.000000E+99

> <Gold.Chemscore.Hbonds>
donor molecule, donor type, donor heavy atom, donor atom, acceptor molecule, acceptor atom, score
      L1  H     8    30       P1  7948  0.99
      L1  H    11    31       P1  7948  0.67
      L1  H    17    40       P1 10747  0.90

> <Gold.Chemscore.Hbond.Weighted>
-9.4182

> <Gold.Chemscore.Metal.Weighted>
-0.0000

> <Gold.Chemscore.Lipo.Weighted>
-7.9334

> <Gold.Chemscore.Internal_Hbond.Weighted>
0.0000

> <Gold.Chemscore.DEClash.Weighted>
0.0561

> <Gold.Chemscore.DEInternal.Weighted>
2.1256

> <Gold.Chemscore.Rot.Weighted>
4.3841

> <Gold.Chemscore.Internal.Correction.Weighted>
   9.000000E+99

> <Gold.Protein.RotatedTorsions>
[ 6907 6896 6895 6894 ] final   81.61 input  -60.11 | X-H torsion
[ 7974 7965 7964 7962 ] final  -35.80 input  175.53 | X-H torsion
[ 8008 7997 7996 7995 ] final    5.55 input   59.86 | X-H torsion
[ 10167 10162 10161 10158 ] final   91.36 input  -65.29 | X-H torsion
[ 10718 10713 10712 10709 ] final  125.32 input   66.30 | X-H torsion
[ 10763 10752 10751 10750 ] final -128.96 input  -60.55 | X-H torsion
[ 11005 11000 10999 10996 ] final -122.54 input  -57.11 | X-H torsion

> <Gold.Protein.ActiveResidues>
 VAL166  LYS551  ARG553  GLY616  TRP617  ASP618  TYR619  PRO620  LYS621  CYS622 
 ASP623  PHE694  ASN695  SER759  ASP760  ASP761  ALA762  ILE779  LEU786  VAL792 
 PHE793  MET794  SER795  GLU796  ALA797  LYS798  CYS799  TRP800  GLU811  SER814 

> <Gold.Protein.RotatedAtoms>
  152.5273  134.3178  159.9136 H   0  0  0  0  0  0  0  0  0  0  0  0  # atno 6907 bound_to 6896
  151.3127  133.4067  159.2656 H   0  0  0  0  0  0  0  0  0  0  0  0  # atno 6908 bound_to 6896
  151.0025  134.9350  159.8019 H   0  0  0  0  0  0  0  0  0  0  0  0  # atno 6909 bound_to 6896
  146.0716  140.6202  142.8950 H   0  0  0  0  0  0  0  0  0  0  0  0  # atno 7974 bound_to 7965
  154.7297  140.2728  155.6467 H   0  0  0  0  0  0  0  0  0  0  0  0  # atno 8008 bound_to 7997
  156.2846  140.2718  156.1919 H   0  0  0  0  0  0  0  0  0  0  0  0  # atno 8009 bound_to 7997
  155.0397  140.0371  157.2495 H   0  0  0  0  0  0  0  0  0  0  0  0  # atno 8010 bound_to 7997
  139.8382  144.6654  150.9316 H   0  0  0  0  0  0  0  0  0  0  0  0  # atno 10167 bound_to 10162
  157.5512  131.1094  150.8698 H   0  0  0  0  0  0  0  0  0  0  0  0  # atno 10718 bound_to 10713
  154.8757  135.3911  154.3842 H   0  0  0  0  0  0  0  0  0  0  0  0  # atno 10763 bound_to 10752
  153.4586  135.7029  153.6069 H   0  0  0  0  0  0  0  0  0  0  0  0  # atno 10764 bound_to 10752
  153.4578  135.3819  155.2289 H   0  0  0  0  0  0  0  0  0  0  0  0  # atno 10765 bound_to 10752
  140.9988  134.0433  157.3564 H   0  0  0  0  0  0  0  0  0  0  0  0  # atno 11005 bound_to 11000
  144.7235  140.4451  143.6990 LP  0  0  0  0  0  0  0  0  0  0  0  0  # atno 17320 bound_to 7965
  145.6381  139.1546  143.2931 LP  0  0  0  0  0  0  0  0  0  0  0  0  # atno 17321 bound_to 7965
  140.7800  143.3937  151.1266 LP  0  0  0  0  0  0  0  0  0  0  0  0  # atno 17342 bound_to 10162
  139.7586  143.8670  152.3095 LP  0  0  0  0  0  0  0  0  0  0  0  0  # atno 17343 bound_to 10162
  156.9222  130.5319  149.5279 LP  0  0  0  0  0  0  0  0  0  0  0  0  # atno 17370 bound_to 10713
  156.0579  130.5637  150.9130 LP  0  0  0  0  0  0  0  0  0  0  0  0  # atno 17371 bound_to 10713
  139.9028  135.0170  156.7348 LP  0  0  0  0  0  0  0  0  0  0  0  0  # atno 17394 bound_to 11000
  140.6923  133.9379  155.7974 LP  0  0  0  0  0  0  0  0  0  0  0  0  # atno 17395 bound_to 11000

$$$$
