AV-unprocessed.smi:1323|AV-procd|sdf|5466|dock6
  -GOLD-   22720 5 33D 1   1.00000     0.00000
 Structure written by MMmdl.
 45 46  0  0  0  0  0  0  0  0  1 V2000
  144.7978  138.0300  161.3711 C   0  0  0  0  0  0  0  0  0  0  0  0
  145.3951  136.8259  162.1164 C   0  0  1  0  0  0  0  0  0  0  0  0
  144.7258  135.5016  161.6909 C   0  0  0  0  0  0  0  0  0  0  0  0
  145.2957  134.3040  162.4684 C   0  0  0  0  0  0  0  0  0  0  0  0
  146.8258  134.2277  162.3455 C   0  0  0  0  0  0  0  0  0  0  0  0
  147.4855  135.5502  162.7652 C   0  0  0  0  0  0  0  0  0  0  0  0
  146.9298  136.7418  161.9545 C   0  0  1  0  0  0  0  0  0  0  0  0
  147.1947  136.6153  160.5624 O   0  0  0  0  0  0  0  0  0  0  0  0
  148.5579  136.5365  160.1772 C   0  0  0  0  0  0  0  0  0  0  0  0
  148.6353  136.5396  158.6424 C   0  0  0  0  0  0  0  0  0  0  0  0
  149.2503  137.7634  158.1347 N   0  0  0  0  0  0  0  0  0  0  0  0
  148.5887  138.8987  157.8587 C   0  0  0  0  0  0  0  0  0  0  0  0
  147.3791  139.0366  158.0462 O   0  0  0  0  0  0  0  0  0  0  0  0
  149.4235  140.0623  157.3076 C   0  0  0  0  0  0  0  0  0  0  0  0
  148.8008  140.6855  156.1279 N   0  0  0  0  0  0  0  0  0  0  0  0
  147.5265  141.2619  156.3026 C   0  0  0  0  0  0  0  0  0  0  0  0
  146.8575  141.8275  155.2855 C   0  0  0  0  0  0  0  0  0  0  0  0
  147.4769  141.8349  153.9813 C   0  0  0  0  0  0  0  0  0  0  0  0
  148.6968  141.2897  153.8040 C   0  0  0  0  0  0  0  0  0  0  0  0
  149.4348  140.6780  154.9149 C   0  0  0  0  0  0  0  0  0  0  0  0
  150.5544  140.1894  154.7635 O   0  0  0  0  0  0  0  0  0  0  0  0
  144.9375  137.9436  160.2930 H   0  0  0  0  0  0  0  0  0  0  0  0
  145.2629  138.9617  161.6939 H   0  0  0  0  0  0  0  0  0  0  0  0
  143.7271  138.1141  161.5592 H   0  0  0  0  0  0  0  0  0  0  0  0
  145.1846  136.9744  163.1765 H   0  0  0  0  0  0  0  0  0  0  0  0
  143.6486  135.5584  161.8512 H   0  0  0  0  0  0  0  0  0  0  0  0
  144.8661  135.3408  160.6210 H   0  0  0  0  0  0  0  0  0  0  0  0
  145.0195  134.3895  163.5202 H   0  0  0  0  0  0  0  0  0  0  0  0
  144.8474  133.3784  162.1062 H   0  0  0  0  0  0  0  0  0  0  0  0
  147.2069  133.4097  162.9571 H   0  0  0  0  0  0  0  0  0  0  0  0
  147.1037  133.9989  161.3167 H   0  0  0  0  0  0  0  0  0  0  0  0
  147.2971  135.7216  163.8258 H   0  0  0  0  0  0  0  0  0  0  0  0
  148.5683  135.4776  162.6701 H   0  0  0  0  0  0  0  0  0  0  0  0
  147.3785  137.6679  162.3173 H   0  0  0  0  0  0  0  0  0  0  0  0
  149.1084  137.3899  160.5752 H   0  0  0  0  0  0  0  0  0  0  0  0
  149.0218  135.6310  160.5676 H   0  0  0  0  0  0  0  0  0  0  0  0
  149.1739  135.6598  158.2863 H   0  0  0  0  0  0  0  0  0  0  0  0
  147.6298  136.4722  158.2271 H   0  0  0  0  0  0  0  0  0  0  0  0
  150.2442  137.7370  157.9592 H   0  0  0  0  0  0  0  0  0  0  0  0
  149.5483  140.7982  158.1031 H   0  0  0  0  0  0  0  0  0  0  0  0
  150.4337  139.7197  157.0748 H   0  0  0  0  0  0  0  0  0  0  0  0
  147.1302  141.2049  157.3060 H   0  0  0  0  0  0  0  0  0  0  0  0
  145.8790  142.2593  155.4369 H   0  0  0  0  0  0  0  0  0  0  0  0
  146.9586  142.2768  153.1430 H   0  0  0  0  0  0  0  0  0  0  0  0
  149.1438  141.3017  152.8207 H   0  0  0  0  0  0  0  0  0  0  0  0
  1  2  1  0  0  0  0
  1 22  1  0  0  0  0
  1 23  1  0  0  0  0
  1 24  1  0  0  0  0
  2  7  1  0  0  0  0
  2  3  1  0  0  0  0
  2 25  1  0  0  0  0
  3  4  1  0  0  0  0
  3 26  1  0  0  0  0
  3 27  1  0  0  0  0
  4  5  1  0  0  0  0
  4 28  1  0  0  0  0
  4 29  1  0  0  0  0
  5  6  1  0  0  0  0
  5 30  1  0  0  0  0
  5 31  1  0  0  0  0
  6  7  1  0  0  0  0
  6 32  1  0  0  0  0
  6 33  1  0  0  0  0
  7  8  1  0  0  0  0
  7 34  1  0  0  0  0
  8  9  1  0  0  0  0
  9 10  1  0  0  0  0
  9 35  1  0  0  0  0
  9 36  1  0  0  0  0
 10 11  1  0  0  0  0
 10 37  1  0  0  0  0
 10 38  1  0  0  0  0
 11 12  1  0  0  0  0
 11 39  1  0  0  0  0
 12 13  2  0  0  0  0
 12 14  1  0  0  0  0
 14 15  1  0  0  0  0
 14 40  1  0  0  0  0
 14 41  1  0  0  0  0
 15 20  1  0  0  0  0
 15 16  1  0  0  0  0
 16 17  2  0  0  0  0
 16 42  1  0  0  0  0
 17 18  1  0  0  0  0
 17 43  1  0  0  0  0
 18 19  2  0  0  0  0
 18 44  1  0  0  0  0
 19 20  1  0  0  0  0
 19 45  1  0  0  0  0
 20 21  2  0  0  0  0
M  END
> <s_m_source_file>
AV-unprocessed.smi

> <i_m_source_file_index>
1323

> <i_lp_mmshare_version>
43012

> <i_f3d_flags>
0

> <s_epik_input>
W0NIM11bQ0BASF0xW0NIMl1bQ0gyXVtDSDJdW0NIMl1bQ0BIXTFPW0NIMl1bQ0gyXVtOSF1DKD1PKVtDSDJdbjJbY0hdW2NIXVtjSF1bY0hdYzI9Tw==

> <s_epik_cmdline>
J2VwaWtfcHl0aG9uJywgJy1waCcsICc3LjAnLCAnLXRuJywgJzgnLCAnLW1hJywgJzIwMCcsICctbWV0YWxfYmluZGluZycsICctaW1hZScsICc8aW5maWxlLm1hZT4nLCAnLW9tYWUnLCAnPG91dGZpbGUubWFlPic=

> <r_lp_tautomer_probability>
1

> <r_epik_Ionization_Penalty>
4.02412e-07

> <r_epik_Ionization_Penalty_Charging>
3.74552e-07

> <r_epik_Ionization_Penalty_Neutral>
2.78599e-08

> <r_epik_State_Penalty>
-0

> <r_epik_Charging_Adjusted_Penalty>
3.74552e-07

> <i_epik_Tot_Q>
0

> <i_epik_Tot_abs_Q>
0

> <r_epik_Metal_State_Penalty>
-0

> <b_epik_Metal_Only>
0

> <s_lp_Force_Field>
OPLS_2005

> <r_lp_Energy>
18.6453

> <b_lp_Chiralities_Consistent>
1

> <s_lp_Variant>
AV-unprocessed.smi:1323-2

> <Gold.Version>
5.8.1

> <Gold.Id.Protein>
6NUR|6NUR_protein|mol2

> <Gold.PLP.Fitness>
40.7266

> <Gold.PLP.PLP>
-39.0167

> <Gold.PLP.part.hbond>
-2.0000

> <Gold.PLP.part.metal>
0.0000

> <Gold.PLP.part.buried>
-3.2137

> <Gold.PLP.part.nonpolar>
-33.4610

> <Gold.PLP.part.repulsive>
0.1937

> <Gold.PLP.ligand.clash>
0.0000

> <Gold.PLP.ligand.torsion>
0.6875

> <Gold.PLP.Chemscore.Hbond>
1.0000

> <Gold.PLP.Chemscore.CHOScore>
0.0000

> <Gold.PLP.Chemscore.Metal>
0.0000

> <Gold.Chemscore.Hbonds>
donor molecule, donor type, donor heavy atom, donor atom, acceptor molecule, acceptor atom, score
      P1  H  7989  7998       L1    21  1.00

> <Gold.PLP.Chemscore.Internal.Correction>
0.0848

> <Gold.Rescore>
     Score         DG    S(hbond)    S(metal)    S(lipo)     H(rot)  DE(clash)    DE(int)     intcor
     11.78     -14.00       0.98        0.00      87.27       1.94       0.16       2.06       ----

> <Gold.Chemscore.Fitness>
11.7795

> <Gold.Chemscore.DG>
-13.9966

> <Gold.Chemscore.ZeroCoef>
-5.4800

> <Gold.Chemscore.Hbond>
0.9796

> <Gold.Chemscore.Metal>
0.0000

> <Gold.Chemscore.Lipo>
87.2721

> <Gold.Chemscore.Internal_Hbond>
0.0000

> <Gold.Chemscore.DEClash>
0.1562

> <Gold.Chemscore.DEInternal>
2.0609

> <Gold.Chemscore.Rot>
1.9398

> <Gold.Chemscore.Internal.Correction>
   9.000000E+99

> <Gold.Chemscore.Hbonds>
donor molecule, donor type, donor heavy atom, donor atom, acceptor molecule, acceptor atom, score
      P1  H  7989  7998       L1    21  0.95

> <Gold.Chemscore.Hbond.Weighted>
-3.2717

> <Gold.Chemscore.Metal.Weighted>
-0.0000

> <Gold.Chemscore.Lipo.Weighted>
-10.2108

> <Gold.Chemscore.Internal_Hbond.Weighted>
0.0000

> <Gold.Chemscore.DEClash.Weighted>
0.1562

> <Gold.Chemscore.DEInternal.Weighted>
2.0609

> <Gold.Chemscore.Rot.Weighted>
4.9659

> <Gold.Chemscore.Internal.Correction.Weighted>
   9.000000E+99

> <Gold.Protein.RotatedTorsions>
[ 6907 6896 6895 6894 ] final  108.45 input  -60.11 | X-H torsion
[ 7974 7965 7964 7962 ] final    2.67 input  175.53 | X-H torsion
[ 8008 7997 7996 7995 ] final   14.75 input   59.86 | X-H torsion
[ 10167 10162 10161 10158 ] final -150.80 input  -65.29 | X-H torsion
[ 10718 10713 10712 10709 ] final  -13.02 input   66.30 | X-H torsion
[ 10763 10752 10751 10750 ] final   81.38 input  -60.55 | X-H torsion
[ 11005 11000 10999 10996 ] final  -62.75 input  -57.11 | X-H torsion

> <Gold.Protein.ActiveResidues>
 VAL166  LYS551  ARG553  GLY616  TRP617  ASP618  TYR619  PRO620  LYS621  CYS622 
 ASP623  PHE694  ASN695  SER759  ASP760  ASP761  ALA762  ILE779  LEU786  VAL792 
 PHE793  MET794  SER795  GLU796  ALA797  LYS798  CYS799  TRP800  GLU811  SER814 

> <Gold.Protein.RotatedAtoms>
  152.5111  133.9087  159.7477 H   0  0  0  0  0  0  0  0  0  0  0  0  # atno 6907 bound_to 6896
  150.9486  133.6566  159.2783 H   0  0  0  0  0  0  0  0  0  0  0  0  # atno 6908 bound_to 6896
  151.3853  135.0952  159.9561 H   0  0  0  0  0  0  0  0  0  0  0  0  # atno 6909 bound_to 6896
  146.2444  140.0801  142.8357 H   0  0  0  0  0  0  0  0  0  0  0  0  # atno 7974 bound_to 7965
  154.8529  140.2932  155.5587 H   0  0  0  0  0  0  0  0  0  0  0  0  # atno 8008 bound_to 7997
  156.3017  140.2492  156.3423 H   0  0  0  0  0  0  0  0  0  0  0  0  # atno 8009 bound_to 7997
  154.9002  140.0391  157.1878 H   0  0  0  0  0  0  0  0  0  0  0  0  # atno 8010 bound_to 7997
  139.7322  143.8790  152.2538 H   0  0  0  0  0  0  0  0  0  0  0  0  # atno 10167 bound_to 10162
  156.6362  130.4915  149.6111 H   0  0  0  0  0  0  0  0  0  0  0  0  # atno 10718 bound_to 10713
  153.1112  135.4767  154.9038 H   0  0  0  0  0  0  0  0  0  0  0  0  # atno 10763 bound_to 10752
  154.7483  135.3099  154.8607 H   0  0  0  0  0  0  0  0  0  0  0  0  # atno 10764 bound_to 10752
  153.9196  135.6856  153.4801 H   0  0  0  0  0  0  0  0  0  0  0  0  # atno 10765 bound_to 10752
  141.1370  133.6643  156.5575 H   0  0  0  0  0  0  0  0  0  0  0  0  # atno 11005 bound_to 11000
  145.0741  140.9175  143.4865 LP  0  0  0  0  0  0  0  0  0  0  0  0  # atno 17320 bound_to 7965
  145.0940  139.2869  143.5720 LP  0  0  0  0  0  0  0  0  0  0  0  0  # atno 17321 bound_to 7965
  139.8717  144.7065  150.8980 LP  0  0  0  0  0  0  0  0  0  0  0  0  # atno 17342 bound_to 10162
  140.7773  143.3733  151.1609 LP  0  0  0  0  0  0  0  0  0  0  0  0  # atno 17343 bound_to 10162
  156.2195  130.6728  151.1353 LP  0  0  0  0  0  0  0  0  0  0  0  0  # atno 17370 bound_to 10713
  157.7185  131.0696  150.6232 LP  0  0  0  0  0  0  0  0  0  0  0  0  # atno 17371 bound_to 10713
  140.4014  134.7353  157.4782 LP  0  0  0  0  0  0  0  0  0  0  0  0  # atno 17394 bound_to 11000
  140.0493  134.6154  155.8882 LP  0  0  0  0  0  0  0  0  0  0  0  0  # atno 17395 bound_to 11000

$$$$
