AV-unprocessed.smi:456|AV-procd|sdf|2617|dock7
  -GOLD-   2262023 13D 1   1.00000     0.00000
 Structure written by MMmdl.
 33 35  0  0  0  0  0  0  0  0  2 V2000
  152.4836  137.7660  154.6381 O   0  0  0  0  0  0  0  0  0  0  0  0
  151.6034  138.8437  154.8790 C   0  0  2  0  0  0  0  0  0  0  0  0
  151.8964  139.3961  156.2881 C   0  0  0  0  0  0  0  0  0  0  0  0
  151.3299  140.7343  156.4989 N   0  0  0  0  0  0  0  0  0  0  0  0
  150.4444  141.4377  155.7420 C   0  0  0  0  0  0  0  0  0  0  0  0
  150.2392  142.6353  156.3576 N   0  3  0  0  0  0  0  0  0  0  0  0
  151.0030  142.6964  157.5257 C   0  0  0  0  0  0  0  0  0  0  0  0
  151.1306  143.6989  158.4818 C   0  0  0  0  0  0  0  0  0  0  0  0
  152.0028  143.4412  159.5600 C   0  0  0  0  0  0  0  0  0  0  0  0
  152.1634  144.3834  160.5193 F   0  0  0  0  0  0  0  0  0  0  0  0
  152.7100  142.2238  159.6576 C   0  0  0  0  0  0  0  0  0  0  0  0
  153.5387  142.0178  160.7084 F   0  0  0  0  0  0  0  0  0  0  0  0
  152.5721  141.2145  158.6819 C   0  0  0  0  0  0  0  0  0  0  0  0
  151.7069  141.4780  157.6215 C   0  0  0  0  0  0  0  0  0  0  0  0
  150.1440  138.4454  154.7084 C   0  0  0  0  0  0  0  0  0  0  0  0
  149.6455  137.2662  155.3051 C   0  0  0  0  0  0  0  0  0  0  0  0
  148.2906  136.9127  155.1546 C   0  0  0  0  0  0  0  0  0  0  0  0
  147.4257  137.7369  154.4095 C   0  0  0  0  0  0  0  0  0  0  0  0
  147.9162  138.9154  153.8154 C   0  0  0  0  0  0  0  0  0  0  0  0
  149.2714  139.2688  153.9647 C   0  0  0  0  0  0  0  0  0  0  0  0
  153.3272  138.1163  154.3949 H   0  0  0  0  0  0  0  0  0  0  0  0
  151.8442  139.6071  154.1380 H   0  0  0  0  0  0  0  0  0  0  0  0
  151.4846  138.7367  157.0536 H   0  0  0  0  0  0  0  0  0  0  0  0
  152.9704  139.4495  156.4724 H   0  0  0  0  0  0  0  0  0  0  0  0
  149.9927  141.1079  154.8171 H   0  0  0  0  0  0  0  0  0  0  0  0
  150.5923  144.6325  158.4107 H   0  0  0  0  0  0  0  0  0  0  0  0
  153.1178  140.2863  158.7653 H   0  0  0  0  0  0  0  0  0  0  0  0
  150.3003  136.6301  155.8828 H   0  0  0  0  0  0  0  0  0  0  0  0
  147.9148  136.0092  155.6118 H   0  0  0  0  0  0  0  0  0  0  0  0
  146.3867  137.4654  154.2941 H   0  0  0  0  0  0  0  0  0  0  0  0
  147.2528  139.5487  153.2450 H   0  0  0  0  0  0  0  0  0  0  0  0
  149.6372  140.1775  153.5096 H   0  0  0  0  0  0  0  0  0  0  0  0
  149.6223  143.3554  156.0036 H   0  0  0  0  0  0  0  0  0  0  0  0
  1  2  1  0  0  0  0
  1 21  1  0  0  0  0
  2  3  1  0  0  0  0
  2 15  1  0  0  0  0
  2 22  1  0  0  0  0
  3  4  1  0  0  0  0
  3 23  1  0  0  0  0
  3 24  1  0  0  0  0
  4 14  1  0  0  0  0
  4  5  1  0  0  0  0
  5  6  2  0  0  0  0
  5 25  1  0  0  0  0
  6  7  1  0  0  0  0
  6 33  1  0  0  0  0
  7 14  2  0  0  0  0
  7  8  1  0  0  0  0
  8  9  2  0  0  0  0
  8 26  1  0  0  0  0
  9 10  1  0  0  0  0
  9 11  1  0  0  0  0
 11 12  1  0  0  0  0
 11 13  2  0  0  0  0
 13 14  1  0  0  0  0
 13 27  1  0  0  0  0
 15 20  1  0  0  0  0
 15 16  2  0  0  0  0
 16 17  1  0  0  0  0
 16 28  1  0  0  0  0
 17 18  2  0  0  0  0
 17 29  1  0  0  0  0
 18 19  1  0  0  0  0
 18 30  1  0  0  0  0
 19 20  2  0  0  0  0
 19 31  1  0  0  0  0
 20 32  1  0  0  0  0
M  CHG  1   6   1
M  END
> <s_m_source_file>
AV-unprocessed.smi

> <i_m_source_file_index>
456

> <i_lp_mmshare_version>
43012

> <i_f3d_flags>
0

> <s_epik_input>
W2NIXTFbY0hdW2NIXVtjSF1bY0hdYzFbQ0BIXShbT0hdKVtDSDJdbihbY0hdbjIpYyhjMjMpW2NIXWMoRiljKEYpW2NIXTM=

> <s_epik_cmdline>
J2VwaWtfcHl0aG9uJywgJy1waCcsICc3LjAnLCAnLXRuJywgJzgnLCAnLW1hJywgJzIwMCcsICctbWV0YWxfYmluZGluZycsICctaW1hZScsICc8aW5maWxlLm1hZT4nLCAnLW9tYWUnLCAnPG91dGZpbGUubWFlPic=

> <r_epik_Ionization_Penalty>
2.16139

> <r_epik_Ionization_Penalty_Charging>
2.16138

> <r_epik_Ionization_Penalty_Neutral>
1.34362e-06

> <r_epik_State_Penalty>
2.30198

> <r_epik_Charging_Adjusted_Penalty>
4.46337

> <i_epik_Tot_Q>
1

> <i_epik_Tot_abs_Q>
1

> <r_epik_Metal_State_Penalty>
6.38245

> <b_epik_Metal_Only>
0

> <s_lp_Force_Field>
OPLS_2005

> <r_lp_Energy>
16.094

> <b_lp_Chiralities_Consistent>
1

> <s_lp_Variant>
AV-unprocessed.smi:456-3

> <Gold.Version>
5.8.1

> <Gold.Id.Protein>
6NUR|6NUR_protein|mol2

> <Gold.PLP.Fitness>
49.4848

> <Gold.PLP.PLP>
-43.5591

> <Gold.PLP.part.hbond>
-2.0000

> <Gold.PLP.part.metal>
0.0000

> <Gold.PLP.part.buried>
-4.7172

> <Gold.PLP.part.nonpolar>
-37.9332

> <Gold.PLP.part.repulsive>
0.0900

> <Gold.PLP.ligand.clash>
0.0000

> <Gold.PLP.ligand.torsion>
0.5619

> <Gold.PLP.Chemscore.Hbond>
2.3454

> <Gold.PLP.Chemscore.CHOScore>
0.0000

> <Gold.PLP.Chemscore.Metal>
0.0000

> <Gold.Chemscore.Hbonds>
donor molecule, donor type, donor heavy atom, donor atom, acceptor molecule, acceptor atom, score
      L1  H     6    33       P1  8028  2.00
      P1  H 10752 10765       L1     1  0.34

> <Gold.PLP.Chemscore.Internal.Correction>
0.0133

> <Gold.Rescore>
     Score         DG    S(hbond)    S(metal)    S(lipo)     H(rot)  DE(clash)    DE(int)     intcor
     15.23     -15.87       1.29        0.00      96.22       2.03       0.13       0.51       ----

> <Gold.Chemscore.Fitness>
15.2323

> <Gold.Chemscore.DG>
-15.8730

> <Gold.Chemscore.ZeroCoef>
-5.4800

> <Gold.Chemscore.Hbond>
1.2937

> <Gold.Chemscore.Metal>
0.0000

> <Gold.Chemscore.Lipo>
96.2170

> <Gold.Chemscore.Internal_Hbond>
0.0000

> <Gold.Chemscore.DEClash>
0.1258

> <Gold.Chemscore.DEInternal>
0.5149

> <Gold.Chemscore.Rot>
2.0256

> <Gold.Chemscore.Internal.Correction>
   9.000000E+99

> <Gold.Chemscore.Hbonds>
donor molecule, donor type, donor heavy atom, donor atom, acceptor molecule, acceptor atom, score
      L1  H     6    33       P1  8028  0.98
      P1  H 10752 10765       L1     1  0.07

> <Gold.Chemscore.Hbond.Weighted>
-4.3211

> <Gold.Chemscore.Metal.Weighted>
-0.0000

> <Gold.Chemscore.Lipo.Weighted>
-11.2574

> <Gold.Chemscore.Internal_Hbond.Weighted>
0.0000

> <Gold.Chemscore.DEClash.Weighted>
0.1258

> <Gold.Chemscore.DEInternal.Weighted>
0.5149

> <Gold.Chemscore.Rot.Weighted>
5.1855

> <Gold.Chemscore.Internal.Correction.Weighted>
   9.000000E+99

> <Gold.Protein.RotatedTorsions>
[ 6907 6896 6895 6894 ] final  -12.19 input  -60.11 | X-H torsion
[ 7974 7965 7964 7962 ] final  116.40 input  175.53 | X-H torsion
[ 8008 7997 7996 7995 ] final  157.59 input   59.86 | X-H torsion
[ 10167 10162 10161 10158 ] final  -10.62 input  -65.29 | X-H torsion
[ 10718 10713 10712 10709 ] final -131.45 input   66.30 | X-H torsion
[ 10763 10752 10751 10750 ] final  170.36 input  -60.55 | X-H torsion
[ 11005 11000 10999 10996 ] final  -66.70 input  -57.11 | X-H torsion

> <Gold.Protein.ActiveResidues>
 VAL166  LYS551  ARG553  GLY616  TRP617  ASP618  TYR619  PRO620  LYS621  CYS622 
 ASP623  PHE694  ASN695  SER759  ASP760  ASP761  ALA762  ILE779  LEU786  VAL792 
 PHE793  MET794  SER795  GLU796  ALA797  LYS798  CYS799  TRP800  GLU811  SER814 

> <Gold.Protein.RotatedAtoms>
  151.3744  135.0928  159.9475 H   0  0  0  0  0  0  0  0  0  0  0  0  # atno 6907 bound_to 6896
  152.5126  133.9133  159.7509 H   0  0  0  0  0  0  0  0  0  0  0  0  # atno 6908 bound_to 6896
  150.9553  133.6449  159.2793 H   0  0  0  0  0  0  0  0  0  0  0  0  # atno 6909 bound_to 6896
  145.1801  139.3054  143.4422 H   0  0  0  0  0  0  0  0  0  0  0  0  # atno 7974 bound_to 7965
  156.2355  140.1881  156.7132 H   0  0  0  0  0  0  0  0  0  0  0  0  # atno 8008 bound_to 7997
  154.6098  140.0623  156.9506 H   0  0  0  0  0  0  0  0  0  0  0  0  # atno 8009 bound_to 7997
  155.2035  140.3294  155.4342 H   0  0  0  0  0  0  0  0  0  0  0  0  # atno 8010 bound_to 7997
  140.7118  143.5729  150.9074 H   0  0  0  0  0  0  0  0  0  0  0  0  # atno 10167 bound_to 10162
  156.2246  130.6999  151.0793 H   0  0  0  0  0  0  0  0  0  0  0  0  # atno 10718 bound_to 10713
  154.3965  135.2754  155.2123 H   0  0  0  0  0  0  0  0  0  0  0  0  # atno 10763 bound_to 10752
  154.4167  135.6009  153.5989 H   0  0  0  0  0  0  0  0  0  0  0  0  # atno 10764 bound_to 10752
  152.9831  135.5962  154.4227 H   0  0  0  0  0  0  0  0  0  0  0  0  # atno 10765 bound_to 10752
  141.1489  133.6704  156.6180 H   0  0  0  0  0  0  0  0  0  0  0  0  # atno 11005 bound_to 11000
  146.3454  140.1978  142.8589 LP  0  0  0  0  0  0  0  0  0  0  0  0  # atno 17320 bound_to 7965
  145.0145  140.8742  143.5204 LP  0  0  0  0  0  0  0  0  0  0  0  0  # atno 17321 bound_to 7965
  139.9455  143.6333  152.3043 LP  0  0  0  0  0  0  0  0  0  0  0  0  # atno 17342 bound_to 10162
  139.6833  144.7654  151.1570 LP  0  0  0  0  0  0  0  0  0  0  0  0  # atno 17343 bound_to 10162
  157.7104  131.0737  150.6521 LP  0  0  0  0  0  0  0  0  0  0  0  0  # atno 17370 bound_to 10713
  156.6585  130.4505  149.5695 LP  0  0  0  0  0  0  0  0  0  0  0  0  # atno 17371 bound_to 10713
  140.3563  134.7726  157.4502 LP  0  0  0  0  0  0  0  0  0  0  0  0  # atno 17394 bound_to 11000
  140.0820  134.5717  155.8530 LP  0  0  0  0  0  0  0  0  0  0  0  0  # atno 17395 bound_to 11000

$$$$
