AV-unprocessed.smi:1285|AV-procd|sdf|5367|dock7
  -GOLD-   22720 4513D 1   1.00000     0.00000
 Structure written by MMmdl.
 46 47  0  0  0  0  0  0  0  0  1 V2000
  148.8222  137.1405  157.8308 C   0  0  0  0  0  0  0  0  0  0  0  0
  149.3102  135.9170  157.0335 C   0  0  0  0  0  0  0  0  0  0  0  0
  149.0819  135.9814  155.4893 C   0  0  1  0  0  0  0  0  0  0  0  0
  149.6497  134.6586  154.9078 C   0  0  0  0  0  0  0  0  0  0  0  0
  147.5417  136.0240  155.2222 C   0  0  0  0  0  0  0  0  0  0  0  0
  147.1706  135.7235  153.8392 N   0  0  0  0  0  0  0  0  0  0  0  0
  145.9849  135.2466  153.4267 C   0  0  0  0  0  0  0  0  0  0  0  0
  145.0524  135.0009  154.1926 O   0  0  0  0  0  0  0  0  0  0  0  0
  145.8353  135.0219  151.9145 C   0  0  2  0  0  0  0  0  0  0  0  0
  144.7398  135.9104  151.2901 C   0  0  0  0  0  0  0  0  0  0  0  0
  145.6322  133.6057  151.6344 N   0  0  0  0  0  0  0  0  0  0  0  0
  145.5305  132.9705  150.4645 C   0  0  0  0  0  0  0  0  0  0  0  0
  145.3981  131.6560  150.5739 N   0  0  0  0  0  0  0  0  0  0  0  0
  145.4420  131.5354  151.9340 C   0  0  0  0  0  0  0  0  0  0  0  0
  145.5933  132.6703  152.6162 N   0  0  0  0  0  0  0  0  0  0  0  0
  149.7851  137.1522  154.8922 N   0  0  0  0  0  0  0  0  0  0  0  0
  149.1439  138.4522  155.1237 C   0  0  0  0  0  0  0  0  0  0  0  0
  149.8453  139.5862  154.3565 C   0  0  0  0  0  0  0  0  0  0  0  0
  151.2203  139.6324  154.7183 O   0  0  0  0  0  0  0  0  0  0  0  0
  151.8926  138.4067  154.4558 C   0  0  0  0  0  0  0  0  0  0  0  0
  151.2091  137.2669  155.2298 C   0  0  0  0  0  0  0  0  0  0  0  0
  149.0116  137.0007  158.8950 H   0  0  0  0  0  0  0  0  0  0  0  0
  147.7513  137.3041  157.7113 H   0  0  0  0  0  0  0  0  0  0  0  0
  149.3365  138.0523  157.5288 H   0  0  0  0  0  0  0  0  0  0  0  0
  150.3725  135.7952  157.2480 H   0  0  0  0  0  0  0  0  0  0  0  0
  148.8470  135.0212  157.4472 H   0  0  0  0  0  0  0  0  0  0  0  0
  149.3423  133.7892  155.4894 H   0  0  0  0  0  0  0  0  0  0  0  0
  150.7400  134.6611  154.8885 H   0  0  0  0  0  0  0  0  0  0  0  0
  149.3074  134.4820  153.8877 H   0  0  0  0  0  0  0  0  0  0  0  0
  147.0296  135.2831  155.8356 H   0  0  0  0  0  0  0  0  0  0  0  0
  147.1189  136.9860  155.5121 H   0  0  0  0  0  0  0  0  0  0  0  0
  147.8757  135.8973  153.1380 H   0  0  0  0  0  0  0  0  0  0  0  0
  146.7799  135.3056  151.4471 H   0  0  0  0  0  0  0  0  0  0  0  0
  144.9377  136.9666  151.4768 H   0  0  0  0  0  0  0  0  0  0  0  0
  143.7497  135.6862  151.6892 H   0  0  0  0  0  0  0  0  0  0  0  0
  144.6981  135.7728  150.2093 H   0  0  0  0  0  0  0  0  0  0  0  0
  145.5583  133.4802  149.5125 H   0  0  0  0  0  0  0  0  0  0  0  0
  145.3670  130.5821  152.4361 H   0  0  0  0  0  0  0  0  0  0  0  0
  148.1019  138.4352  154.8091 H   0  0  0  0  0  0  0  0  0  0  0  0
  149.1505  138.6944  156.1862 H   0  0  0  0  0  0  0  0  0  0  0  0
  149.7497  139.4411  153.2793 H   0  0  0  0  0  0  0  0  0  0  0  0
  149.3830  140.5447  154.5927 H   0  0  0  0  0  0  0  0  0  0  0  0
  151.8886  138.2023  153.3841 H   0  0  0  0  0  0  0  0  0  0  0  0
  152.9351  138.4997  154.7602 H   0  0  0  0  0  0  0  0  0  0  0  0
  151.3315  137.4492  156.2975 H   0  0  0  0  0  0  0  0  0  0  0  0
  151.7411  136.3449  155.0031 H   0  0  0  0  0  0  0  0  0  0  0  0
  1  2  1  0  0  0  0
  1 22  1  0  0  0  0
  1 23  1  0  0  0  0
  1 24  1  0  0  0  0
  2  3  1  0  0  0  0
  2 25  1  0  0  0  0
  2 26  1  0  0  0  0
  3  4  1  0  0  0  0
  3  5  1  0  0  0  0
  3 16  1  0  0  0  0
  4 27  1  0  0  0  0
  4 28  1  0  0  0  0
  4 29  1  0  0  0  0
  5  6  1  0  0  0  0
  5 30  1  0  0  0  0
  5 31  1  0  0  0  0
  6  7  1  0  0  0  0
  6 32  1  0  0  0  0
  7  8  2  0  0  0  0
  7  9  1  0  0  0  0
  9 10  1  0  0  0  0
  9 11  1  0  0  0  0
  9 33  1  0  0  0  0
 10 34  1  0  0  0  0
 10 35  1  0  0  0  0
 10 36  1  0  0  0  0
 11 15  1  0  0  0  0
 11 12  1  0  0  0  0
 12 13  2  0  0  0  0
 12 37  1  0  0  0  0
 13 14  1  0  0  0  0
 14 15  2  0  0  0  0
 14 38  1  0  0  0  0
 16 21  1  0  0  0  0
 16 17  1  0  0  0  0
 17 18  1  0  0  0  0
 17 39  1  0  0  0  0
 17 40  1  0  0  0  0
 18 19  1  0  0  0  0
 18 41  1  0  0  0  0
 18 42  1  0  0  0  0
 19 20  1  0  0  0  0
 20 21  1  0  0  0  0
 20 43  1  0  0  0  0
 20 44  1  0  0  0  0
 21 45  1  0  0  0  0
 21 46  1  0  0  0  0
M  END
> <s_m_source_file>
AV-unprocessed.smi

> <i_m_source_file_index>
1285

> <i_lp_mmshare_version>
43012

> <i_f3d_flags>
0

> <s_epik_input>
W0NIMl0xW0NIMl1PW0NIMl1bQ0gyXU4xW0NAQF0oW0NIM10pKFtDSDJdW0NIM10pW0NIMl1bTkhdQyg9TylbQ0BIXShbQ0gzXSluMltjSF1uW2NIXW4y

> <s_epik_cmdline>
J2VwaWtfcHl0aG9uJywgJy1waCcsICc3LjAnLCAnLXRuJywgJzgnLCAnLW1hJywgJzIwMCcsICctbWV0YWxfYmluZGluZycsICctaW1hZScsICc8aW5maWxlLm1hZT4nLCAnLW9tYWUnLCAnPG91dGZpbGUubWFlPic=

> <r_lp_tautomer_probability>
1

> <r_epik_Ionization_Penalty>
0.285697

> <r_epik_Ionization_Penalty_Charging>
0

> <r_epik_Ionization_Penalty_Neutral>
0.285697

> <r_epik_State_Penalty>
0.278478

> <r_epik_Charging_Adjusted_Penalty>
0.278478

> <i_epik_Tot_Q>
0

> <i_epik_Tot_abs_Q>
0

> <r_epik_Metal_State_Penalty>
0.278477

> <b_epik_Metal_Only>
0

> <s_lp_Force_Field>
OPLS_2005

> <r_lp_Energy>
49.2775

> <b_lp_Chiralities_Consistent>
1

> <s_lp_Variant>
AV-unprocessed.smi:1285-1

> <Gold.Version>
5.8.1

> <Gold.Id.Protein>
6NUR|6NUR_protein|mol2

> <Gold.PLP.Fitness>
36.7078

> <Gold.PLP.PLP>
-28.6212

> <Gold.PLP.part.hbond>
-2.0000

> <Gold.PLP.part.metal>
0.0000

> <Gold.PLP.part.buried>
-6.9060

> <Gold.PLP.part.nonpolar>
-21.0287

> <Gold.PLP.part.repulsive>
0.5541

> <Gold.PLP.ligand.clash>
0.0000

> <Gold.PLP.ligand.torsion>
0.5494

> <Gold.PLP.Chemscore.Hbond>
2.0000

> <Gold.PLP.Chemscore.CHOScore>
0.9970

> <Gold.PLP.Chemscore.Metal>
0.0000

> <Gold.Chemscore.Hbonds>
donor molecule, donor type, donor heavy atom, donor atom, acceptor molecule, acceptor atom, score
      L1  H     6    32       P1  7948  1.00
      P1  H  7989  7998       L1    19  0.75
      L1  C    12    37       P1  7921  1.00

> <Gold.PLP.Chemscore.Internal.Correction>
0.1945

> <Gold.Rescore>
     Score         DG    S(hbond)    S(metal)    S(lipo)     H(rot)  DE(clash)    DE(int)     intcor
      7.02      -9.09       1.34        0.00      51.39       2.68       0.26       1.81       ----

> <Gold.Chemscore.Fitness>
7.0214

> <Gold.Chemscore.DG>
-9.0885

> <Gold.Chemscore.ZeroCoef>
-5.4800

> <Gold.Chemscore.Hbond>
1.3359

> <Gold.Chemscore.Metal>
0.0000

> <Gold.Chemscore.Lipo>
51.3906

> <Gold.Chemscore.Internal_Hbond>
0.0000

> <Gold.Chemscore.DEClash>
0.2616

> <Gold.Chemscore.DEInternal>
1.8055

> <Gold.Chemscore.Rot>
2.6821

> <Gold.Chemscore.Internal.Correction>
   9.000000E+99

> <Gold.Chemscore.Hbonds>
donor molecule, donor type, donor heavy atom, donor atom, acceptor molecule, acceptor atom, score
      L1  H     6    32       P1  7948  1.00
      P1  H  7989  7998       L1    19  0.07

> <Gold.Chemscore.Hbond.Weighted>
-4.4619

> <Gold.Chemscore.Metal.Weighted>
-0.0000

> <Gold.Chemscore.Lipo.Weighted>
-6.0127

> <Gold.Chemscore.Internal_Hbond.Weighted>
0.0000

> <Gold.Chemscore.DEClash.Weighted>
0.2616

> <Gold.Chemscore.DEInternal.Weighted>
1.8055

> <Gold.Chemscore.Rot.Weighted>
6.8661

> <Gold.Chemscore.Internal.Correction.Weighted>
   9.000000E+99

> <Gold.Protein.RotatedTorsions>
[ 6907 6896 6895 6894 ] final  -78.32 input  -60.11 | X-H torsion
[ 7974 7965 7964 7962 ] final  112.75 input  175.53 | X-H torsion
[ 8008 7997 7996 7995 ] final  -39.84 input   59.86 | X-H torsion
[ 10167 10162 10161 10158 ] final   69.76 input  -65.29 | X-H torsion
[ 10718 10713 10712 10709 ] final   48.46 input   66.30 | X-H torsion
[ 10763 10752 10751 10750 ] final  106.69 input  -60.55 | X-H torsion
[ 11005 11000 10999 10996 ] final   15.20 input  -57.11 | X-H torsion

> <Gold.Protein.ActiveResidues>
 VAL166  LYS551  ARG553  GLY616  TRP617  ASP618  TYR619  PRO620  LYS621  CYS622 
 ASP623  PHE694  ASN695  SER759  ASP760  ASP761  ALA762  ILE779  LEU786  VAL792 
 PHE793  MET794  SER795  GLU796  ALA797  LYS798  CYS799  TRP800  GLU811  SER814 

> <Gold.Protein.RotatedAtoms>
  150.6976  134.4289  159.5238 H   0  0  0  0  0  0  0  0  0  0  0  0  # atno 6907 bound_to 6896
  152.2019  134.8577  160.0516 H   0  0  0  0  0  0  0  0  0  0  0  0  # atno 6908 bound_to 6896
  151.9494  133.3626  159.4031 H   0  0  0  0  0  0  0  0  0  0  0  0  # atno 6909 bound_to 6896
  145.2257  139.2842  143.4195 H   0  0  0  0  0  0  0  0  0  0  0  0  # atno 7974 bound_to 7965
  154.4018  140.1541  156.2928 H   0  0  0  0  0  0  0  0  0  0  0  0  # atno 8008 bound_to 7997
  155.8770  140.3446  155.5839 H   0  0  0  0  0  0  0  0  0  0  0  0  # atno 8009 bound_to 7997
  155.7710  140.0830  157.2098 H   0  0  0  0  0  0  0  0  0  0  0  0  # atno 8010 bound_to 7997
  140.0643  144.5206  150.7272 H   0  0  0  0  0  0  0  0  0  0  0  0  # atno 10167 bound_to 10162
  157.4688  130.8242  149.7965 H   0  0  0  0  0  0  0  0  0  0  0  0  # atno 10718 bound_to 10713
  153.3964  135.3869  155.1958 H   0  0  0  0  0  0  0  0  0  0  0  0  # atno 10763 bound_to 10752
  154.8725  135.3761  154.4673 H   0  0  0  0  0  0  0  0  0  0  0  0  # atno 10764 bound_to 10752
  153.5165  135.7087  153.5815 H   0  0  0  0  0  0  0  0  0  0  0  0  # atno 10765 bound_to 10752
  140.4610  134.1128  155.7716 H   0  0  0  0  0  0  0  0  0  0  0  0  # atno 11005 bound_to 11000
  146.3365  140.2576  142.8601 LP  0  0  0  0  0  0  0  0  0  0  0  0  # atno 17320 bound_to 7965
  144.9724  140.8381  143.5447 LP  0  0  0  0  0  0  0  0  0  0  0  0  # atno 17321 bound_to 7965
  140.7156  143.2542  151.4443 LP  0  0  0  0  0  0  0  0  0  0  0  0  # atno 17342 bound_to 10162
  139.5874  144.1573  152.2046 LP  0  0  0  0  0  0  0  0  0  0  0  0  # atno 17343 bound_to 10162
  156.0063  130.3854  150.2419 LP  0  0  0  0  0  0  0  0  0  0  0  0  # atno 17370 bound_to 10713
  157.0600  131.0087  151.3225 LP  0  0  0  0  0  0  0  0  0  0  0  0  # atno 17371 bound_to 10713
  141.1621  133.8772  157.1818 LP  0  0  0  0  0  0  0  0  0  0  0  0  # atno 17394 bound_to 11000
  139.9946  135.0052  157.0052 LP  0  0  0  0  0  0  0  0  0  0  0  0  # atno 17395 bound_to 11000

$$$$
