AV-unprocessed.smi:447|AV-procd|sdf|2602|dock5
  -GOLD-   2262022593D 1   1.00000     0.00000
 Structure written by MMmdl.
 46 48  0  0  0  0  0  0  0  0  2 V2000
  147.2365  133.4182  151.8442 C   0  0  0  0  0  0  0  0  0  0  0  0
  146.9267  133.7972  153.2878 C   0  0  0  0  0  0  0  0  0  0  0  0
  146.0365  133.2124  153.9014 O   0  0  0  0  0  0  0  0  0  0  0  0
  147.6673  134.7831  153.8168 N   0  0  0  0  0  0  0  0  0  0  0  0
  147.5865  135.2632  155.1957 C   0  0  1  0  0  0  0  0  0  0  0  0
  147.8691  134.0949  156.1507 C   0  0  0  0  0  0  0  0  0  0  0  0
  148.5122  136.4120  155.4867 C   0  0  0  0  0  0  0  0  0  0  0  0
  149.4086  136.9658  154.6191 N   0  3  0  0  0  0  0  0  0  0  0  0
  150.1091  137.9936  155.2486 C   0  0  0  0  0  0  0  0  0  0  0  0
  151.1053  138.8414  154.7745 C   0  0  0  0  0  0  0  0  0  0  0  0
  151.6214  139.7840  155.6879 C   0  0  0  0  0  0  0  0  0  0  0  0
  151.1490  139.8554  157.0146 C   0  0  0  0  0  0  0  0  0  0  0  0
  150.1392  138.9893  157.4832 C   0  0  0  0  0  0  0  0  0  0  0  0
  149.6294  138.0650  156.5716 C   0  0  0  0  0  0  0  0  0  0  0  0
  148.6431  137.0773  156.6731 N   0  0  0  0  0  0  0  0  0  0  0  0
  147.9528  136.8908  157.9600 C   0  0  0  0  0  0  0  0  0  0  0  0
  148.9060  136.5414  159.1219 C   0  0  2  0  0  0  0  0  0  0  0  0
  150.0216  135.8676  158.5788 O   0  0  0  0  0  0  0  0  0  0  0  0
  148.2323  135.7309  160.2192 C   0  0  0  0  0  0  0  0  0  0  0  0
  148.0487  136.2940  161.5005 C   0  0  0  0  0  0  0  0  0  0  0  0
  147.4420  135.5427  162.5256 C   0  0  0  0  0  0  0  0  0  0  0  0
  147.0057  134.2281  162.2726 C   0  0  0  0  0  0  0  0  0  0  0  0
  147.1781  133.6643  160.9941 C   0  0  0  0  0  0  0  0  0  0  0  0
  147.7931  134.4119  159.9714 C   0  0  0  0  0  0  0  0  0  0  0  0
  147.2154  134.2994  151.2026 H   0  0  0  0  0  0  0  0  0  0  0  0
  146.5051  132.7033  151.4657 H   0  0  0  0  0  0  0  0  0  0  0  0
  148.2248  132.9629  151.7765 H   0  0  0  0  0  0  0  0  0  0  0  0
  148.3724  135.2068  153.2313 H   0  0  0  0  0  0  0  0  0  0  0  0
  146.5633  135.6001  155.3642 H   0  0  0  0  0  0  0  0  0  0  0  0
  147.7550  134.3961  157.1920 H   0  0  0  0  0  0  0  0  0  0  0  0
  148.8844  133.7169  156.0258 H   0  0  0  0  0  0  0  0  0  0  0  0
  147.1813  133.2674  155.9737 H   0  0  0  0  0  0  0  0  0  0  0  0
  151.4713  138.7857  153.7597 H   0  0  0  0  0  0  0  0  0  0  0  0
  152.3967  140.4640  155.3656 H   0  0  0  0  0  0  0  0  0  0  0  0
  151.5699  140.5890  157.6869 H   0  0  0  0  0  0  0  0  0  0  0  0
  149.7860  139.0506  158.5019 H   0  0  0  0  0  0  0  0  0  0  0  0
  147.3936  137.7990  158.1848 H   0  0  0  0  0  0  0  0  0  0  0  0
  147.2094  136.1040  157.8232 H   0  0  0  0  0  0  0  0  0  0  0  0
  149.2938  137.4598  159.5620 H   0  0  0  0  0  0  0  0  0  0  0  0
  150.0875  136.0882  157.6620 H   0  0  0  0  0  0  0  0  0  0  0  0
  148.3754  137.3032  161.7038 H   0  0  0  0  0  0  0  0  0  0  0  0
  147.3053  135.9772  163.5046 H   0  0  0  0  0  0  0  0  0  0  0  0
  146.5348  133.6549  163.0573 H   0  0  0  0  0  0  0  0  0  0  0  0
  146.8411  132.6572  160.7981 H   0  0  0  0  0  0  0  0  0  0  0  0
  147.9245  133.9702  158.9944 H   0  0  0  0  0  0  0  0  0  0  0  0
  149.5242  136.6606  153.6614 H   0  0  0  0  0  0  0  0  0  0  0  0
  1  2  1  0  0  0  0
  1 25  1  0  0  0  0
  1 26  1  0  0  0  0
  1 27  1  0  0  0  0
  2  3  2  0  0  0  0
  2  4  1  0  0  0  0
  4  5  1  0  0  0  0
  4 28  1  0  0  0  0
  5  6  1  0  0  0  0
  5  7  1  0  0  0  0
  5 29  1  0  0  0  0
  6 30  1  0  0  0  0
  6 31  1  0  0  0  0
  6 32  1  0  0  0  0
  7 15  1  0  0  0  0
  7  8  2  0  0  0  0
  8  9  1  0  0  0  0
  8 46  1  0  0  0  0
  9 14  2  0  0  0  0
  9 10  1  0  0  0  0
 10 11  2  0  0  0  0
 10 33  1  0  0  0  0
 11 12  1  0  0  0  0
 11 34  1  0  0  0  0
 12 13  2  0  0  0  0
 12 35  1  0  0  0  0
 13 14  1  0  0  0  0
 13 36  1  0  0  0  0
 14 15  1  0  0  0  0
 15 16  1  0  0  0  0
 16 17  1  0  0  0  0
 16 37  1  0  0  0  0
 16 38  1  0  0  0  0
 17 18  1  0  0  0  0
 17 19  1  0  0  0  0
 17 39  1  0  0  0  0
 18 40  1  0  0  0  0
 19 24  1  0  0  0  0
 19 20  2  0  0  0  0
 20 21  1  0  0  0  0
 20 41  1  0  0  0  0
 21 22  2  0  0  0  0
 21 42  1  0  0  0  0
 22 23  1  0  0  0  0
 22 43  1  0  0  0  0
 23 24  2  0  0  0  0
 23 44  1  0  0  0  0
 24 45  1  0  0  0  0
M  CHG  1   8   1
M  END
> <s_m_source_file>
AV-unprocessed.smi

> <i_m_source_file_index>
447

> <i_lp_mmshare_version>
43012

> <i_f3d_flags>
0

> <s_epik_input>
W0NIM11DKD1PKVtOSF1bQ0BIXShbQ0gzXSljKG4xKW4oYyhjMTIpW2NIXVtjSF1bY0hdW2NIXTIpW0NIMl1bQ0BIXShbT0hdKWMzW2NIXVtjSF1bY0hdW2NIXVtjSF0z

> <s_epik_cmdline>
J2VwaWtfcHl0aG9uJywgJy1waCcsICc3LjAnLCAnLXRuJywgJzgnLCAnLW1hJywgJzIwMCcsICctbWV0YWxfYmluZGluZycsICctaW1hZScsICc8aW5maWxlLm1hZT4nLCAnLW9tYWUnLCAnPG91dGZpbGUubWFlPic=

> <r_epik_Ionization_Penalty>
0.950381

> <r_epik_Ionization_Penalty_Charging>
0.950379

> <r_epik_Ionization_Penalty_Neutral>
1.42115e-06

> <r_epik_State_Penalty>
0.994584

> <r_epik_Charging_Adjusted_Penalty>
1.94496

> <i_epik_Tot_Q>
1

> <i_epik_Tot_abs_Q>
1

> <r_epik_Metal_State_Penalty>
1.10485

> <b_epik_Metal_Only>
0

> <s_lp_Force_Field>
OPLS_2005

> <r_lp_Energy>
11.3805

> <b_lp_Chiralities_Consistent>
1

> <s_lp_Variant>
AV-unprocessed.smi:447-6

> <Gold.Version>
5.8.1

> <Gold.Id.Protein>
6NUR|6NUR_protein|mol2

> <Gold.PLP.Fitness>
47.7485

> <Gold.PLP.PLP>
-36.5593

> <Gold.PLP.part.hbond>
-3.0000

> <Gold.PLP.part.metal>
0.0000

> <Gold.PLP.part.buried>
-3.7728

> <Gold.PLP.part.nonpolar>
-29.7094

> <Gold.PLP.part.repulsive>
0.1006

> <Gold.PLP.ligand.clash>
0.0000

> <Gold.PLP.ligand.torsion>
0.4390

> <Gold.PLP.Chemscore.Hbond>
4.0000

> <Gold.PLP.Chemscore.CHOScore>
0.0000

> <Gold.PLP.Chemscore.Metal>
0.0000

> <Gold.Chemscore.Hbonds>
donor molecule, donor type, donor heavy atom, donor atom, acceptor molecule, acceptor atom, score
      L1  H     4    28       P1  7948  1.00
      L1  H     8    46       P1  7948  2.00
      P1  H  6896  6908       L1    18  1.00

> <Gold.PLP.Chemscore.Internal.Correction>
0.0672

> <Gold.Rescore>
     Score         DG    S(hbond)    S(metal)    S(lipo)     H(rot)  DE(clash)    DE(int)     intcor
     18.75     -19.22       2.95        0.00      86.02       2.41       0.05       0.42       ----

> <Gold.Chemscore.Fitness>
18.7455

> <Gold.Chemscore.DG>
-19.2208

> <Gold.Chemscore.ZeroCoef>
-5.4800

> <Gold.Chemscore.Hbond>
2.9490

> <Gold.Chemscore.Metal>
0.0000

> <Gold.Chemscore.Lipo>
86.0153

> <Gold.Chemscore.Internal_Hbond>
0.0000

> <Gold.Chemscore.DEClash>
0.0515

> <Gold.Chemscore.DEInternal>
0.4239

> <Gold.Chemscore.Rot>
2.4112

> <Gold.Chemscore.Internal.Correction>
   9.000000E+99

> <Gold.Chemscore.Hbonds>
donor molecule, donor type, donor heavy atom, donor atom, acceptor molecule, acceptor atom, score
      L1  H     4    28       P1  7948  0.93
      L1  H     8    46       P1  7948  0.78
      P1  H  6896  6908       L1    18  0.89

> <Gold.Chemscore.Hbond.Weighted>
-9.8497

> <Gold.Chemscore.Metal.Weighted>
-0.0000

> <Gold.Chemscore.Lipo.Weighted>
-10.0638

> <Gold.Chemscore.Internal_Hbond.Weighted>
0.0000

> <Gold.Chemscore.DEClash.Weighted>
0.0515

> <Gold.Chemscore.DEInternal.Weighted>
0.4239

> <Gold.Chemscore.Rot.Weighted>
6.1727

> <Gold.Chemscore.Internal.Correction.Weighted>
   9.000000E+99

> <Gold.Protein.RotatedTorsions>
[ 6907 6896 6895 6894 ] final  173.14 input  -60.11 | X-H torsion
[ 7974 7965 7964 7962 ] final   42.32 input  175.53 | X-H torsion
[ 8008 7997 7996 7995 ] final  110.20 input   59.86 | X-H torsion
[ 10167 10162 10161 10158 ] final -126.89 input  -65.29 | X-H torsion
[ 10718 10713 10712 10709 ] final  -19.60 input   66.30 | X-H torsion
[ 10763 10752 10751 10750 ] final   74.77 input  -60.55 | X-H torsion
[ 11005 11000 10999 10996 ] final  -22.48 input  -57.11 | X-H torsion

> <Gold.Protein.ActiveResidues>
 VAL166  LYS551  ARG553  GLY616  TRP617  ASP618  TYR619  PRO620  LYS621  CYS622 
 ASP623  PHE694  ASN695  SER759  ASP760  ASP761  ALA762  ILE779  LEU786  VAL792 
 PHE793  MET794  SER795  GLU796  ALA797  LYS798  CYS799  TRP800  GLU811  SER814 

> <Gold.Protein.RotatedAtoms>
  151.7731  133.3343  159.3449 H   0  0  0  0  0  0  0  0  0  0  0  0  # atno 6907 bound_to 6896
  150.7454  134.6000  159.6041 H   0  0  0  0  0  0  0  0  0  0  0  0  # atno 6908 bound_to 6896
  152.3327  134.7240  160.0336 H   0  0  0  0  0  0  0  0  0  0  0  0  # atno 6909 bound_to 6896
  146.0750  139.5313  142.9573 H   0  0  0  0  0  0  0  0  0  0  0  0  # atno 7974 bound_to 7965
  156.2035  140.3043  155.9578 H   0  0  0  0  0  0  0  0  0  0  0  0  # atno 8008 bound_to 7997
  155.2896  140.0441  157.3039 H   0  0  0  0  0  0  0  0  0  0  0  0  # atno 8009 bound_to 7997
  154.5602  140.2318  155.8355 H   0  0  0  0  0  0  0  0  0  0  0  0  # atno 8010 bound_to 7997
  139.9667  143.5890  152.2427 H   0  0  0  0  0  0  0  0  0  0  0  0  # atno 10167 bound_to 10162
  156.5435  130.4684  149.6487 H   0  0  0  0  0  0  0  0  0  0  0  0  # atno 10718 bound_to 10713
  153.0609  135.5013  154.8091 H   0  0  0  0  0  0  0  0  0  0  0  0  # atno 10763 bound_to 10752
  154.6881  135.2979  154.9521 H   0  0  0  0  0  0  0  0  0  0  0  0  # atno 10764 bound_to 10752
  154.0285  135.6732  153.4831 H   0  0  0  0  0  0  0  0  0  0  0  0  # atno 10765 bound_to 10752
  140.8661  133.7754  156.0131 H   0  0  0  0  0  0  0  0  0  0  0  0  # atno 11005 bound_to 11000
  145.6323  141.0301  143.1856 LP  0  0  0  0  0  0  0  0  0  0  0  0  # atno 17320 bound_to 7965
  144.7255  139.7888  143.7366 LP  0  0  0  0  0  0  0  0  0  0  0  0  # atno 17321 bound_to 7965
  139.6512  144.7661  151.2144 LP  0  0  0  0  0  0  0  0  0  0  0  0  # atno 17342 bound_to 10162
  140.7535  143.6157  150.8561 LP  0  0  0  0  0  0  0  0  0  0  0  0  # atno 17343 bound_to 10162
  156.2950  130.7145  151.2003 LP  0  0  0  0  0  0  0  0  0  0  0  0  # atno 17370 bound_to 10713
  157.7401  131.0521  150.5189 LP  0  0  0  0  0  0  0  0  0  0  0  0  # atno 17371 bound_to 10713
  140.8628  134.2820  157.5227 LP  0  0  0  0  0  0  0  0  0  0  0  0  # atno 17394 bound_to 11000
  139.8709  134.9527  156.4122 LP  0  0  0  0  0  0  0  0  0  0  0  0  # atno 17395 bound_to 11000

$$$$
