AV-unprocessed.smi:308|AV-procd|sdf|2290|dock3
  -GOLD-   2262022193D 1   1.00000     0.00000
 Structure written by MMmdl.
 50 51  0  0  0  0  0  0  0  0  4 V2000
  148.3832  131.9088  155.4946 C   0  0  0  0  0  0  0  0  0  0  0  0
  148.3690  132.7244  154.1899 C   0  0  2  0  0  0  0  0  0  0  0  0
  149.7569  133.2780  153.8176 C   0  0  0  0  0  0  0  0  0  0  0  0
  150.1729  134.4575  154.7144 C   0  0  0  0  0  0  0  0  0  0  0  0
  149.1505  135.5395  154.6852 N   0  3  2  0  0  0  0  0  0  0  0  0
  149.5628  136.7762  155.4034 C   0  0  0  0  0  0  0  0  0  0  0  0
  151.0836  137.0153  155.3235 C   0  0  0  0  0  0  0  0  0  0  0  0
  151.3483  138.3473  154.7739 N   0  5  0  0  0  0  0  0  0  0  0  0
  151.1597  139.5154  155.4442 C   0  0  0  0  0  0  0  0  0  0  0  0
  150.4243  140.4565  155.1260 O   0  0  0  0  0  0  0  0  0  0  0  0
  151.9078  139.5834  156.5601 N   0  0  0  0  0  0  0  0  0  0  0  0
  151.9689  140.6107  157.5403 C   0  0  0  0  0  0  0  0  0  0  0  0
  152.8456  140.4297  158.6294 C   0  0  0  0  0  0  0  0  0  0  0  0
  152.9241  141.4119  159.6380 C   0  0  0  0  0  0  0  0  0  0  0  0
  152.1135  142.5709  159.5576 C   0  0  0  0  0  0  0  0  0  0  0  0
  152.1332  143.5970  160.5269 N   0  0  0  0  0  0  0  0  0  0  0  0
  151.6315  144.9239  160.1877 C   0  0  0  0  0  0  0  0  0  0  0  0
  152.6191  143.3150  161.8713 C   0  0  0  0  0  0  0  0  0  0  0  0
  151.2756  142.6926  158.4991 N   0  3  0  0  0  0  0  0  0  0  0  0
  151.1696  141.7776  157.5115 C   0  0  0  0  0  0  0  0  0  0  0  0
  147.8156  135.0448  155.1086 C   0  0  0  0  0  0  0  0  0  0  0  0
  147.3492  133.8774  154.2206 C   0  0  0  0  0  0  0  0  0  0  0  0
  148.6747  132.5113  156.3545 H   0  0  0  0  0  0  0  0  0  0  0  0
  149.0812  131.0742  155.4255 H   0  0  0  0  0  0  0  0  0  0  0  0
  147.3972  131.4928  155.7037 H   0  0  0  0  0  0  0  0  0  0  0  0
  148.0656  132.0364  153.3997 H   0  0  0  0  0  0  0  0  0  0  0  0
  150.5058  132.4867  153.8672 H   0  0  0  0  0  0  0  0  0  0  0  0
  149.7411  133.6137  152.7797 H   0  0  0  0  0  0  0  0  0  0  0  0
  150.3236  134.1224  155.7411 H   0  0  0  0  0  0  0  0  0  0  0  0
  151.1331  134.8421  154.3699 H   0  0  0  0  0  0  0  0  0  0  0  0
  149.0609  137.6461  154.9765 H   0  0  0  0  0  0  0  0  0  0  0  0
  149.2378  136.7311  156.4438 H   0  0  0  0  0  0  0  0  0  0  0  0
  151.5098  136.9071  156.3209 H   0  0  0  0  0  0  0  0  0  0  0  0
  151.5280  136.2199  154.7239 H   0  0  0  0  0  0  0  0  0  0  0  0
  152.5544  138.8192  156.6909 H   0  0  0  0  0  0  0  0  0  0  0  0
  153.4619  139.5446  158.6928 H   0  0  0  0  0  0  0  0  0  0  0  0
  153.6075  141.2571  160.4594 H   0  0  0  0  0  0  0  0  0  0  0  0
  152.2109  145.3544  159.3702 H   0  0  0  0  0  0  0  0  0  0  0  0
  151.6976  145.6037  161.0373 H   0  0  0  0  0  0  0  0  0  0  0  0
  150.5857  144.8722  159.8830 H   0  0  0  0  0  0  0  0  0  0  0  0
  152.0241  142.5285  162.3365 H   0  0  0  0  0  0  0  0  0  0  0  0
  152.5596  144.1980  162.5080 H   0  0  0  0  0  0  0  0  0  0  0  0
  153.6610  142.9949  161.8430 H   0  0  0  0  0  0  0  0  0  0  0  0
  150.4411  142.0129  156.7504 H   0  0  0  0  0  0  0  0  0  0  0  0
  147.8509  134.7449  156.1566 H   0  0  0  0  0  0  0  0  0  0  0  0
  147.0875  135.8538  155.0362 H   0  0  0  0  0  0  0  0  0  0  0  0
  147.1983  134.2468  153.2050 H   0  0  0  0  0  0  0  0  0  0  0  0
  146.3770  133.5148  154.5570 H   0  0  0  0  0  0  0  0  0  0  0  0
  149.0466  135.8227  153.7205 H   0  0  0  0  0  0  0  0  0  0  0  0
  150.6859  143.5231  158.4451 H   0  0  0  0  0  0  0  0  0  0  0  0
  1  2  1  0  0  0  0
  1 23  1  0  0  0  0
  1 24  1  0  0  0  0
  1 25  1  0  0  0  0
  2 22  1  0  0  0  0
  2  3  1  0  0  0  0
  2 26  1  0  0  0  0
  3  4  1  0  0  0  0
  3 27  1  0  0  0  0
  3 28  1  0  0  0  0
  4  5  1  0  0  0  0
  4 29  1  0  0  0  0
  4 30  1  0  0  0  0
  5  6  1  0  0  0  0
  5 21  1  0  0  0  0
  5 49  1  0  0  0  0
  6  7  1  0  0  0  0
  6 31  1  0  0  0  0
  6 32  1  0  0  0  0
  7  8  1  0  0  0  0
  7 33  1  0  0  0  0
  7 34  1  0  0  0  0
  8  9  1  0  0  0  0
  9 10  2  0  0  0  0
  9 11  1  0  0  0  0
 11 12  1  0  0  0  0
 11 35  1  0  0  0  0
 12 20  1  0  0  0  0
 12 13  2  0  0  0  0
 13 14  1  0  0  0  0
 13 36  1  0  0  0  0
 14 15  2  0  0  0  0
 14 37  1  0  0  0  0
 15 16  1  0  0  0  0
 15 19  1  0  0  0  0
 16 17  1  0  0  0  0
 16 18  1  0  0  0  0
 17 38  1  0  0  0  0
 17 39  1  0  0  0  0
 17 40  1  0  0  0  0
 18 41  1  0  0  0  0
 18 42  1  0  0  0  0
 18 43  1  0  0  0  0
 19 20  2  0  0  0  0
 19 50  1  0  0  0  0
 20 44  1  0  0  0  0
 21 22  1  0  0  0  0
 21 45  1  0  0  0  0
 21 46  1  0  0  0  0
 22 47  1  0  0  0  0
 22 48  1  0  0  0  0
M  CHG  1   5   1
M  CHG  1   8  -1
M  CHG  1  19   1
M  END
> <s_m_source_file>
AV-unprocessed.smi

> <i_m_source_file_index>
308

> <i_lp_mmshare_version>
43012

> <i_f3d_flags>
0

> <s_epik_input>
W0NIM11bQ0hdMVtDSDJdW0NIMl1OKFtDSDJdW0NIMl0xKVtDSDJdW0NIMl1bTkhdQyg9TylbTkhdYzJbY0hdW2NIXWMoTihbQ0gzXSlbQ0gzXSluW2NIXTI=

> <s_epik_cmdline>
J2VwaWtfcHl0aG9uJywgJy1waCcsICc3LjAnLCAnLXRuJywgJzgnLCAnLW1hJywgJzIwMCcsICctbWV0YWxfYmluZGluZycsICctaW1hZScsICc8aW5maWxlLm1hZT4nLCAnLW9tYWUnLCAnPG91dGZpbGUubWFlPic=

> <r_lp_tautomer_probability>
0.999994

> <r_epik_Ionization_Penalty>
7.42107

> <r_epik_Ionization_Penalty_Charging>
7.42107

> <r_epik_Ionization_Penalty_Neutral>
3.68925e-06

> <r_epik_State_Penalty>
7.0982

> <r_epik_Charging_Adjusted_Penalty>
14.5193

> <i_epik_Tot_Q>
1

> <i_epik_Tot_abs_Q>
3

> <r_epik_Metal_State_Penalty>
3.28646

> <b_epik_Metal_Only>
1

> <s_lp_Force_Field>
OPLS_2005

> <r_lp_Energy>
21.4752

> <b_lp_Chiralities_Consistent>
1

> <s_lp_Variant>
AV-unprocessed.smi:308-6

> <Gold.Version>
5.8.1

> <Gold.Id.Protein>
6NUR|6NUR_protein|mol2

> <Gold.PLP.Fitness>
48.4983

> <Gold.PLP.PLP>
-42.2674

> <Gold.PLP.part.hbond>
-2.0000

> <Gold.PLP.part.metal>
0.0000

> <Gold.PLP.part.buried>
-6.6284

> <Gold.PLP.part.nonpolar>
-34.0812

> <Gold.PLP.part.repulsive>
0.3439

> <Gold.PLP.ligand.clash>
0.0000

> <Gold.PLP.ligand.torsion>
1.4485

> <Gold.PLP.Chemscore.Hbond>
3.0000

> <Gold.PLP.Chemscore.CHOScore>
0.0000

> <Gold.PLP.Chemscore.Metal>
0.0000

> <Gold.Chemscore.Hbonds>
donor molecule, donor type, donor heavy atom, donor atom, acceptor molecule, acceptor atom, score
      L1  H     5    49       P1  7948  2.00
      P1  H  7989  7998       L1    10  0.50

> <Gold.PLP.Chemscore.Internal.Correction>
0.1280

> <Gold.Rescore>
     Score         DG    S(hbond)    S(metal)    S(lipo)     H(rot)  DE(clash)    DE(int)     intcor
     15.65     -18.30       1.93        0.00      85.71       1.42       0.03       2.62       ----

> <Gold.Chemscore.Fitness>
15.6532

> <Gold.Chemscore.DG>
-18.3049

> <Gold.Chemscore.ZeroCoef>
-5.4800

> <Gold.Chemscore.Hbond>
1.9290

> <Gold.Chemscore.Metal>
0.0000

> <Gold.Chemscore.Lipo>
85.7052

> <Gold.Chemscore.Internal_Hbond>
0.0000

> <Gold.Chemscore.DEClash>
0.0270

> <Gold.Chemscore.DEInternal>
2.6247

> <Gold.Chemscore.Rot>
1.4241

> <Gold.Chemscore.Internal.Correction>
   9.000000E+99

> <Gold.Chemscore.Hbonds>
donor molecule, donor type, donor heavy atom, donor atom, acceptor molecule, acceptor atom, score
      L1  H     5    49       P1  7948  0.88
      P1  H  7989  7998       L1    10  0.03

> <Gold.Chemscore.Hbond.Weighted>
-6.4430

> <Gold.Chemscore.Metal.Weighted>
-0.0000

> <Gold.Chemscore.Lipo.Weighted>
-10.0275

> <Gold.Chemscore.Internal_Hbond.Weighted>
0.0000

> <Gold.Chemscore.DEClash.Weighted>
0.0270

> <Gold.Chemscore.DEInternal.Weighted>
2.6247

> <Gold.Chemscore.Rot.Weighted>
3.6456

> <Gold.Chemscore.Internal.Correction.Weighted>
   9.000000E+99

> <Gold.Protein.RotatedTorsions>
[ 6907 6896 6895 6894 ] final -111.31 input  -60.11 | X-H torsion
[ 7974 7965 7964 7962 ] final  -31.73 input  175.53 | X-H torsion
[ 8008 7997 7996 7995 ] final    0.38 input   59.86 | X-H torsion
[ 10167 10162 10161 10158 ] final  163.56 input  -65.29 | X-H torsion
[ 10718 10713 10712 10709 ] final  104.94 input   66.30 | X-H torsion
[ 10763 10752 10751 10750 ] final   88.72 input  -60.55 | X-H torsion
[ 11005 11000 10999 10996 ] final  117.89 input  -57.11 | X-H torsion

> <Gold.Protein.ActiveResidues>
 VAL166  LYS551  ARG553  GLY616  TRP617  ASP618  TYR619  PRO620  LYS621  CYS622 
 ASP623  PHE694  ASN695  SER759  ASP760  ASP761  ALA762  ILE779  LEU786  VAL792 
 PHE793  MET794  SER795  GLU796  ALA797  LYS798  CYS799  TRP800  GLU811  SER814 

> <Gold.Protein.RotatedAtoms>
  150.7682  133.9253  159.3410 H   0  0  0  0  0  0  0  0  0  0  0  0  # atno 6907 bound_to 6896
  151.7146  135.0904  160.0283 H   0  0  0  0  0  0  0  0  0  0  0  0  # atno 6908 bound_to 6896
  152.3688  133.6354  159.6107 H   0  0  0  0  0  0  0  0  0  0  0  0  # atno 6909 bound_to 6896
  146.1045  140.5704  142.8806 H   0  0  0  0  0  0  0  0  0  0  0  0  # atno 7974 bound_to 7965
  154.6674  140.2604  155.7044 H   0  0  0  0  0  0  0  0  0  0  0  0  # atno 8008 bound_to 7997
  156.2644  140.2836  156.1091 H   0  0  0  0  0  0  0  0  0  0  0  0  # atno 8009 bound_to 7997
  155.1219  140.0377  157.2742 H   0  0  0  0  0  0  0  0  0  0  0  0  # atno 8010 bound_to 7997
  139.4875  144.4325  151.9053 H   0  0  0  0  0  0  0  0  0  0  0  0  # atno 10167 bound_to 10162
  157.6723  131.0816  150.5781 H   0  0  0  0  0  0  0  0  0  0  0  0  # atno 10718 bound_to 10713
  153.1797  135.4497  155.0011 H   0  0  0  0  0  0  0  0  0  0  0  0  # atno 10763 bound_to 10752
  154.8021  135.3260  154.7525 H   0  0  0  0  0  0  0  0  0  0  0  0  # atno 10764 bound_to 10752
  153.7991  135.6964  153.4913 H   0  0  0  0  0  0  0  0  0  0  0  0  # atno 10765 bound_to 10752
  139.9090  134.9615  156.7420 H   0  0  0  0  0  0  0  0  0  0  0  0  # atno 11005 bound_to 11000
  144.7459  140.5067  143.6836 LP  0  0  0  0  0  0  0  0  0  0  0  0  # atno 17320 bound_to 7965
  145.5789  139.1487  143.3246 LP  0  0  0  0  0  0  0  0  0  0  0  0  # atno 17321 bound_to 7965
  140.3773  144.2780  150.5912 LP  0  0  0  0  0  0  0  0  0  0  0  0  # atno 17342 bound_to 10162
  140.5265  143.2253  151.8307 LP  0  0  0  0  0  0  0  0  0  0  0  0  # atno 17343 bound_to 10162
  156.6082  130.4373  149.5869 LP  0  0  0  0  0  0  0  0  0  0  0  0  # atno 17370 bound_to 10713
  156.2451  130.6874  151.1593 LP  0  0  0  0  0  0  0  0  0  0  0  0  # atno 17371 bound_to 10713
  140.6842  133.9447  155.7928 LP  0  0  0  0  0  0  0  0  0  0  0  0  # atno 17394 bound_to 11000
  141.0488  134.0515  157.3810 LP  0  0  0  0  0  0  0  0  0  0  0  0  # atno 17395 bound_to 11000

$$$$
