AV-unprocessed.smi:3187|AV-procd|sdf|12178|dock6
  -GOLD-   2272018 13D 1   1.00000     0.00000
 Structure written by MMmdl.
 41 42  0  0  0  0  0  0  0  0  2 V2000
  154.0552  140.6402  160.8517 C   0  0  0  0  0  0  0  0  0  0  0  0
  153.3291  141.9742  160.7773 C   0  0  0  0  0  0  0  0  0  0  0  0
  153.0551  142.6728  161.8967 C   0  0  0  0  0  0  0  0  0  0  0  0
  152.3959  144.0406  161.9260 C   0  0  0  0  0  0  0  0  0  0  0  0
  151.8963  144.5024  160.5470 C   0  0  0  0  0  0  0  0  0  0  0  0
  152.8489  144.0589  159.4226 C   0  0  2  0  0  0  0  0  0  0  0  0
  152.4870  144.7009  158.0722 C   0  0  0  0  0  0  0  0  0  0  0  0
  152.9803  142.5102  159.3819 C   0  0  2  0  0  0  0  0  0  0  0  0
  151.7327  141.8165  158.7739 C   0  0  0  0  0  0  0  0  0  0  0  0
  151.9766  140.4071  158.4131 N   0  3  0  0  0  0  0  0  0  0  0  0
  151.1162  139.8984  157.3261 C   0  0  0  0  0  0  0  0  0  0  0  0
  151.0921  140.8622  156.1297 C   0  0  0  0  0  0  0  0  0  0  0  0
  150.0995  140.4846  155.1416 N   0  0  0  0  0  0  0  0  0  0  0  0
  150.0224  139.2838  154.4482 C   0  0  0  0  0  0  0  0  0  0  0  0
  148.9210  139.3743  153.6271 C   0  0  0  0  0  0  0  0  0  0  0  0
  148.3106  140.6147  153.7977 N   0  0  0  0  0  0  0  0  0  0  0  0
  149.0668  141.2187  154.7045 C   0  0  0  0  0  0  0  0  0  0  0  0
  154.8819  140.6135  160.1414 H   0  0  0  0  0  0  0  0  0  0  0  0
  153.3879  139.8061  160.6424 H   0  0  0  0  0  0  0  0  0  0  0  0
  154.4704  140.4775  161.8470 H   0  0  0  0  0  0  0  0  0  0  0  0
  153.3421  142.2736  162.8588 H   0  0  0  0  0  0  0  0  0  0  0  0
  151.5737  144.0334  162.6419 H   0  0  0  0  0  0  0  0  0  0  0  0
  153.1341  144.7488  162.3033 H   0  0  0  0  0  0  0  0  0  0  0  0
  150.8990  144.1018  160.3658 H   0  0  0  0  0  0  0  0  0  0  0  0
  151.7866  145.5875  160.5493 H   0  0  0  0  0  0  0  0  0  0  0  0
  153.8366  144.4480  159.6770 H   0  0  0  0  0  0  0  0  0  0  0  0
  151.4545  144.4994  157.7871 H   0  0  0  0  0  0  0  0  0  0  0  0
  153.1371  144.3381  157.2755 H   0  0  0  0  0  0  0  0  0  0  0  0
  152.6008  145.7843  158.1181 H   0  0  0  0  0  0  0  0  0  0  0  0
  153.8301  142.2887  158.7346 H   0  0  0  0  0  0  0  0  0  0  0  0
  150.8951  141.8603  159.4704 H   0  0  0  0  0  0  0  0  0  0  0  0
  151.4184  142.3265  157.8640 H   0  0  0  0  0  0  0  0  0  0  0  0
  152.9409  140.3106  158.1283 H   0  0  0  0  0  0  0  0  0  0  0  0
  151.4907  138.9270  157.0008 H   0  0  0  0  0  0  0  0  0  0  0  0
  150.1057  139.7407  157.7058 H   0  0  0  0  0  0  0  0  0  0  0  0
  150.8923  141.8816  156.4629 H   0  0  0  0  0  0  0  0  0  0  0  0
  152.0679  140.8770  155.6427 H   0  0  0  0  0  0  0  0  0  0  0  0
  150.7363  138.4858  154.5919 H   0  0  0  0  0  0  0  0  0  0  0  0
  148.5244  138.6483  152.9325 H   0  0  0  0  0  0  0  0  0  0  0  0
  148.8601  142.2162  155.0644 H   0  0  0  0  0  0  0  0  0  0  0  0
  151.8248  139.8403  159.2352 H   0  0  0  0  0  0  0  0  0  0  0  0
  1  2  1  0  0  0  0
  1 18  1  0  0  0  0
  1 19  1  0  0  0  0
  1 20  1  0  0  0  0
  2  8  1  0  0  0  0
  2  3  2  0  0  0  0
  3  4  1  0  0  0  0
  3 21  1  0  0  0  0
  4  5  1  0  0  0  0
  4 22  1  0  0  0  0
  4 23  1  0  0  0  0
  5  6  1  0  0  0  0
  5 24  1  0  0  0  0
  5 25  1  0  0  0  0
  6  7  1  0  0  0  0
  6  8  1  0  0  0  0
  6 26  1  0  0  0  0
  7 27  1  0  0  0  0
  7 28  1  0  0  0  0
  7 29  1  0  0  0  0
  8  9  1  0  0  0  0
  8 30  1  0  0  0  0
  9 10  1  0  0  0  0
  9 31  1  0  0  0  0
  9 32  1  0  0  0  0
 10 11  1  0  0  0  0
 10 33  1  0  0  0  0
 10 41  1  0  0  0  0
 11 12  1  0  0  0  0
 11 34  1  0  0  0  0
 11 35  1  0  0  0  0
 12 13  1  0  0  0  0
 12 36  1  0  0  0  0
 12 37  1  0  0  0  0
 13 17  1  0  0  0  0
 13 14  1  0  0  0  0
 14 15  2  0  0  0  0
 14 38  1  0  0  0  0
 15 16  1  0  0  0  0
 15 39  1  0  0  0  0
 16 17  2  0  0  0  0
 17 40  1  0  0  0  0
M  CHG  1  10   1
M  END
> <s_m_source_file>
AV-unprocessed.smi

> <i_m_source_file_index>
3187

> <i_lp_mmshare_version>
43012

> <i_f3d_flags>
0

> <s_epik_input>
W0NIM11DMT1bQ0hdW0NIMl1bQ0gyXVtDQEBIXShbQ0gzXSlbQ0BIXTFbQ0gyXVtOSF1bQ0gyXVtDSDJdbjJbY0hdW2NIXW5bY0hdMg==

> <s_epik_cmdline>
J2VwaWtfcHl0aG9uJywgJy1waCcsICc3LjAnLCAnLXRuJywgJzgnLCAnLW1hJywgJzIwMCcsICctbWV0YWxfYmluZGluZycsICctaW1hZScsICc8aW5maWxlLm1hZT4nLCAnLW9tYWUnLCAnPG91dGZpbGUubWFlPic=

> <r_lp_tautomer_probability>
1

> <r_epik_Ionization_Penalty>
0.0501625

> <r_epik_Ionization_Penalty_Charging>
0.0501625

> <r_epik_Ionization_Penalty_Neutral>
0

> <r_epik_State_Penalty>
0.0972392

> <r_epik_Charging_Adjusted_Penalty>
0.147402

> <i_epik_Tot_Q>
1

> <i_epik_Tot_abs_Q>
1

> <r_epik_Metal_State_Penalty>
0.000104376

> <b_epik_Metal_Only>
0

> <s_lp_Force_Field>
OPLS_2005

> <r_lp_Energy>
17.7506

> <b_lp_Chiralities_Consistent>
1

> <s_lp_Variant>
AV-unprocessed.smi:3187-4

> <Gold.Version>
5.8.1

> <Gold.Id.Protein>
6NUR|6NUR_protein|mol2

> <Gold.PLP.Fitness>
51.0541

> <Gold.PLP.PLP>
-46.3104

> <Gold.PLP.part.hbond>
0.0000

> <Gold.PLP.part.metal>
0.0000

> <Gold.PLP.part.buried>
-1.6423

> <Gold.PLP.part.nonpolar>
-44.6675

> <Gold.PLP.part.repulsive>
1.1070

> <Gold.PLP.ligand.clash>
0.0000

> <Gold.PLP.ligand.torsion>
0.2842

> <Gold.PLP.Chemscore.Hbond>
0.0000

> <Gold.PLP.Chemscore.CHOScore>
1.7484

> <Gold.PLP.Chemscore.Metal>
0.0000

> <Gold.Chemscore.Hbonds>
donor molecule, donor type, donor heavy atom, donor atom, acceptor molecule, acceptor atom, score
      L1  C    15    39       P1  7948  0.70
      L1  C    15    39       P1  7957  0.13
      L1  C    17    40       P1  8028  0.92

> <Gold.PLP.Chemscore.Internal.Correction>
0.0671

> <Gold.Rescore>
     Score         DG    S(hbond)    S(metal)    S(lipo)     H(rot)  DE(clash)    DE(int)     intcor
     15.40     -15.81       0.00        0.00     129.51       1.89       0.16       0.25       ----

> <Gold.Chemscore.Fitness>
15.4000

> <Gold.Chemscore.DG>
-15.8067

> <Gold.Chemscore.ZeroCoef>
-5.4800

> <Gold.Chemscore.Hbond>
0.0000

> <Gold.Chemscore.Metal>
0.0000

> <Gold.Chemscore.Lipo>
129.5127

> <Gold.Chemscore.Internal_Hbond>
0.0000

> <Gold.Chemscore.DEClash>
0.1611

> <Gold.Chemscore.DEInternal>
0.2457

> <Gold.Chemscore.Rot>
1.8853

> <Gold.Chemscore.Internal.Correction>
   9.000000E+99

> <Gold.Chemscore.Hbond.Weighted>
-0.0000

> <Gold.Chemscore.Metal.Weighted>
-0.0000

> <Gold.Chemscore.Lipo.Weighted>
-15.1530

> <Gold.Chemscore.Internal_Hbond.Weighted>
0.0000

> <Gold.Chemscore.DEClash.Weighted>
0.1611

> <Gold.Chemscore.DEInternal.Weighted>
0.2457

> <Gold.Chemscore.Rot.Weighted>
4.8263

> <Gold.Chemscore.Internal.Correction.Weighted>
   9.000000E+99

> <Gold.Protein.RotatedTorsions>
[ 6907 6896 6895 6894 ] final  173.73 input  -60.11 | X-H torsion
[ 7974 7965 7964 7962 ] final  145.24 input  175.53 | X-H torsion
[ 8008 7997 7996 7995 ] final  125.24 input   59.86 | X-H torsion
[ 10167 10162 10161 10158 ] final   27.36 input  -65.29 | X-H torsion
[ 10718 10713 10712 10709 ] final  176.68 input   66.30 | X-H torsion
[ 10763 10752 10751 10750 ] final  109.72 input  -60.55 | X-H torsion
[ 11005 11000 10999 10996 ] final   73.66 input  -57.11 | X-H torsion

> <Gold.Protein.ActiveResidues>
 VAL166  LYS551  ARG553  GLY616  TRP617  ASP618  TYR619  PRO620  LYS621  CYS622 
 ASP623  PHE694  ASN695  SER759  ASP760  ASP761  ALA762  ILE779  LEU786  VAL792 
 PHE793  MET794  SER795  GLU796  ALA797  LYS798  CYS799  TRP800  GLU811  SER814 

> <Gold.Protein.RotatedAtoms>
  151.7637  133.3335  159.3424 H   0  0  0  0  0  0  0  0  0  0  0  0  # atno 6907 bound_to 6896
  150.7488  134.6082  159.6081 H   0  0  0  0  0  0  0  0  0  0  0  0  # atno 6908 bound_to 6896
  152.3388  134.7164  160.0321 H   0  0  0  0  0  0  0  0  0  0  0  0  # atno 6909 bound_to 6896
  144.8769  139.5759  143.5861 H   0  0  0  0  0  0  0  0  0  0  0  0  # atno 7974 bound_to 7965
  156.2828  140.2721  156.1918 H   0  0  0  0  0  0  0  0  0  0  0  0  # atno 8008 bound_to 7997
  155.0451  140.0386  157.2541 H   0  0  0  0  0  0  0  0  0  0  0  0  # atno 8009 bound_to 7997
  154.7242  140.2694  155.6519 H   0  0  0  0  0  0  0  0  0  0  0  0  # atno 8010 bound_to 7997
  140.4945  144.0414  150.6309 H   0  0  0  0  0  0  0  0  0  0  0  0  # atno 10167 bound_to 10162
  156.9166  130.9927  151.3012 H   0  0  0  0  0  0  0  0  0  0  0  0  # atno 10718 bound_to 10713
  153.4387  135.3771  155.2215 H   0  0  0  0  0  0  0  0  0  0  0  0  # atno 10763 bound_to 10752
  154.8753  135.3857  154.4179 H   0  0  0  0  0  0  0  0  0  0  0  0  # atno 10764 bound_to 10752
  153.4722  135.7087  153.6050 H   0  0  0  0  0  0  0  0  0  0  0  0  # atno 10765 bound_to 10752
  139.9429  134.7366  156.1053 H   0  0  0  0  0  0  0  0  0  0  0  0  # atno 11005 bound_to 11000
  146.2968  139.7304  142.9120 LP  0  0  0  0  0  0  0  0  0  0  0  0  # atno 17320 bound_to 7965
  145.4026  141.0387  143.3062 LP  0  0  0  0  0  0  0  0  0  0  0  0  # atno 17321 bound_to 7965
  140.3692  143.2864  152.0297 LP  0  0  0  0  0  0  0  0  0  0  0  0  # atno 17342 bound_to 10162
  139.4858  144.6243  151.7195 LP  0  0  0  0  0  0  0  0  0  0  0  0  # atno 17343 bound_to 10162
  157.5934  130.8460  149.8693 LP  0  0  0  0  0  0  0  0  0  0  0  0  # atno 17370 bound_to 10713
  156.0511  130.3717  150.1200 LP  0  0  0  0  0  0  0  0  0  0  0  0  # atno 17371 bound_to 10713
  141.1070  133.6656  156.2887 LP  0  0  0  0  0  0  0  0  0  0  0  0  # atno 17394 bound_to 11000
  140.5907  134.5654  157.5499 LP  0  0  0  0  0  0  0  0  0  0  0  0  # atno 17395 bound_to 11000

$$$$
