AV-unprocessed.smi:264|AV-procd|sdf|2007|dock8
  -GOLD-   2262021203D 1   1.00000     0.00000
 Structure written by MMmdl.
 52 56  0  0  0  0  0  0  0  0  1 V2000
  152.9057  144.6199  157.5413 C   0  0  0  0  0  0  0  0  0  0  0  0
  152.3452  143.8366  158.7386 C   0  0  2  0  0  0  0  0  0  0  0  0
  153.4471  143.4720  159.5664 O   0  0  0  0  0  0  0  0  0  0  0  0
  153.1585  142.2407  160.2041 C   0  0  0  0  0  0  0  0  0  0  0  0
  152.4648  141.4552  159.1019 C   0  0  0  0  0  0  0  0  0  0  0  0
  151.5977  142.5103  158.4209 C   0  0  1  0  0  0  0  0  0  0  0  0
  150.3508  142.5494  159.0954 O   0  0  0  0  0  0  0  0  0  0  0  0
  151.3207  142.2153  156.9231 C   0  0  0  0  0  0  0  0  0  0  0  0
  150.7471  140.8985  156.6879 N   0  0  0  0  0  0  0  0  0  0  0  0
  149.5208  140.4466  157.1200 C   0  0  0  0  0  0  0  0  0  0  0  0
  149.2278  139.2208  156.7814 N   0  0  0  0  0  0  0  0  0  0  0  0
  150.3303  138.7979  156.0481 C   0  0  0  0  0  0  0  0  0  0  0  0
  150.6755  137.5843  155.3885 C   0  0  0  0  0  0  0  0  0  0  0  0
  149.8502  136.5070  155.3554 N   0  0  0  0  0  0  0  0  0  0  0  0
  148.4547  136.8131  155.0657 C   0  0  0  0  0  0  0  0  0  0  0  0
  147.5750  135.5994  155.3950 C   0  0  0  0  0  0  0  0  0  0  0  0
  148.0447  134.4512  154.6904 O   0  0  0  0  0  0  0  0  0  0  0  0
  149.4012  134.0961  154.9770 C   0  0  1  0  0  0  0  0  0  0  0  0
  149.5473  133.5470  156.4016 C   0  0  0  0  0  0  0  0  0  0  0  0
  150.3521  132.2672  156.2211 C   0  0  0  0  0  0  0  0  0  0  0  0
  149.8623  131.7750  154.9883 O   0  0  0  0  0  0  0  0  0  0  0  0
  149.7782  132.8833  154.1043 C   0  0  0  0  0  0  0  0  0  0  0  0
  150.3218  135.3019  154.6775 C   0  0  0  0  0  0  0  0  0  0  0  0
  151.8881  137.5314  154.7739 N   0  0  0  0  0  0  0  0  0  0  0  0
  152.7007  138.5918  154.7893 C   0  0  0  0  0  0  0  0  0  0  0  0
  152.5052  139.7845  155.3539 N   0  0  0  0  0  0  0  0  0  0  0  0
  151.2968  139.8416  155.9832 C   0  0  0  0  0  0  0  0  0  0  0  0
  152.1112  144.9452  156.8696 H   0  0  0  0  0  0  0  0  0  0  0  0
  153.6159  144.0228  156.9686 H   0  0  0  0  0  0  0  0  0  0  0  0
  153.4308  145.5132  157.8802 H   0  0  0  0  0  0  0  0  0  0  0  0
  151.7049  144.5056  159.3165 H   0  0  0  0  0  0  0  0  0  0  0  0
  154.0637  141.7526  160.5658 H   0  0  0  0  0  0  0  0  0  0  0  0
  152.4909  142.4090  161.0503 H   0  0  0  0  0  0  0  0  0  0  0  0
  153.2224  141.0885  158.4085 H   0  0  0  0  0  0  0  0  0  0  0  0
  151.9068  140.5935  159.4714 H   0  0  0  0  0  0  0  0  0  0  0  0
  150.4320  143.1259  159.8399 H   0  0  0  0  0  0  0  0  0  0  0  0
  150.6390  142.9595  156.5094 H   0  0  0  0  0  0  0  0  0  0  0  0
  152.2409  142.2831  156.3425 H   0  0  0  0  0  0  0  0  0  0  0  0
  148.8484  141.0583  157.7038 H   0  0  0  0  0  0  0  0  0  0  0  0
  148.1056  137.6769  155.6303 H   0  0  0  0  0  0  0  0  0  0  0  0
  148.3600  137.0667  154.0089 H   0  0  0  0  0  0  0  0  0  0  0  0
  147.5623  135.4149  156.4698 H   0  0  0  0  0  0  0  0  0  0  0  0
  146.5444  135.7949  155.0992 H   0  0  0  0  0  0  0  0  0  0  0  0
  150.0182  134.2445  157.0952 H   0  0  0  0  0  0  0  0  0  0  0  0
  148.5691  133.2860  156.8079 H   0  0  0  0  0  0  0  0  0  0  0  0
  151.4194  132.4798  156.1392 H   0  0  0  0  0  0  0  0  0  0  0  0
  150.1998  131.5535  157.0308 H   0  0  0  0  0  0  0  0  0  0  0  0
  149.0597  132.6932  153.3066 H   0  0  0  0  0  0  0  0  0  0  0  0
  150.7560  133.0211  153.6395 H   0  0  0  0  0  0  0  0  0  0  0  0
  150.3414  135.4899  153.6029 H   0  0  0  0  0  0  0  0  0  0  0  0
  151.3442  135.0734  154.9831 H   0  0  0  0  0  0  0  0  0  0  0  0
  153.6417  138.4667  154.2742 H   0  0  0  0  0  0  0  0  0  0  0  0
  1  2  1  0  0  0  0
  1 28  1  0  0  0  0
  1 29  1  0  0  0  0
  1 30  1  0  0  0  0
  2  6  1  0  0  0  0
  2  3  1  0  0  0  0
  2 31  1  0  0  0  0
  3  4  1  0  0  0  0
  4  5  1  0  0  0  0
  4 32  1  0  0  0  0
  4 33  1  0  0  0  0
  5  6  1  0  0  0  0
  5 34  1  0  0  0  0
  5 35  1  0  0  0  0
  6  7  1  0  0  0  0
  6  8  1  0  0  0  0
  7 36  1  0  0  0  0
  8  9  1  0  0  0  0
  8 37  1  0  0  0  0
  8 38  1  0  0  0  0
  9 27  1  0  0  0  0
  9 10  1  0  0  0  0
 10 11  2  0  0  0  0
 10 39  1  0  0  0  0
 11 12  1  0  0  0  0
 12 27  2  0  0  0  0
 12 13  1  0  0  0  0
 13 14  1  0  0  0  0
 13 24  2  0  0  0  0
 14 23  1  0  0  0  0
 14 15  1  0  0  0  0
 15 16  1  0  0  0  0
 15 40  1  0  0  0  0
 15 41  1  0  0  0  0
 16 17  1  0  0  0  0
 16 42  1  0  0  0  0
 16 43  1  0  0  0  0
 17 18  1  0  0  0  0
 18 22  1  0  0  0  0
 18 19  1  0  0  0  0
 18 23  1  0  0  0  0
 19 20  1  0  0  0  0
 19 44  1  0  0  0  0
 19 45  1  0  0  0  0
 20 21  1  0  0  0  0
 20 46  1  0  0  0  0
 20 47  1  0  0  0  0
 21 22  1  0  0  0  0
 22 48  1  0  0  0  0
 22 49  1  0  0  0  0
 23 50  1  0  0  0  0
 23 51  1  0  0  0  0
 24 25  1  0  0  0  0
 25 26  2  0  0  0  0
 25 52  1  0  0  0  0
 26 27  1  0  0  0  0
M  END
> <s_m_source_file>
AV-unprocessed.smi

> <i_m_source_file_index>
264

> <i_lp_mmshare_version>
43012

> <i_f3d_flags>
0

> <s_epik_input>
W0NIMl0xW0NIMl1PW0NAQEhdKFtDSDNdKVtDQEBdMShbT0hdKVtDSDJdbihbY0hdbjIpYyhjMjMpbltjSF1uYzNOKFtDSDJdNClbQ0gyXVtDSDJdT1tDQF00NVtDSDJdW0NIMl1PW0NIMl01

> <s_epik_cmdline>
J2VwaWtfcHl0aG9uJywgJy1waCcsICc3LjAnLCAnLXRuJywgJzgnLCAnLW1hJywgJzIwMCcsICctbWV0YWxfYmluZGluZycsICctaW1hZScsICc8aW5maWxlLm1hZT4nLCAnLW9tYWUnLCAnPG91dGZpbGUubWFlPic=

> <r_lp_tautomer_probability>
1

> <r_epik_Ionization_Penalty>
0.00539389

> <r_epik_Ionization_Penalty_Charging>
0

> <r_epik_Ionization_Penalty_Neutral>
0.00539389

> <r_epik_State_Penalty>
0.00375441

> <r_epik_Charging_Adjusted_Penalty>
0.00375441

> <i_epik_Tot_Q>
0

> <i_epik_Tot_abs_Q>
0

> <r_epik_Metal_State_Penalty>
-0

> <b_epik_Metal_Only>
0

> <s_lp_Force_Field>
OPLS_2005

> <r_lp_Energy>
54.1721

> <b_lp_Chiralities_Consistent>
1

> <s_lp_Variant>
AV-unprocessed.smi:264-1

> <Gold.Version>
5.8.1

> <Gold.Id.Protein>
6NUR|6NUR_protein|mol2

> <Gold.PLP.Fitness>
46.6915

> <Gold.PLP.PLP>
-42.3940

> <Gold.PLP.part.hbond>
-3.6069

> <Gold.PLP.part.metal>
0.0000

> <Gold.PLP.part.buried>
-6.7544

> <Gold.PLP.part.nonpolar>
-31.1776

> <Gold.PLP.part.repulsive>
0.3212

> <Gold.PLP.ligand.clash>
0.0000

> <Gold.PLP.ligand.torsion>
0.2425

> <Gold.PLP.Chemscore.Hbond>
1.4986

> <Gold.PLP.Chemscore.CHOScore>
0.0000

> <Gold.PLP.Chemscore.Metal>
0.0000

> <Gold.Chemscore.Hbonds>
donor molecule, donor type, donor heavy atom, donor atom, acceptor molecule, acceptor atom, score
      P1  H  7989  7998       L1    26  0.12
      P1  H  7997  8008       L1    26  0.98
      P1  H 10752 10765       L1    24  0.42

> <Gold.PLP.Chemscore.Internal.Correction>
0.2869

> <Gold.Rescore>
     Score         DG    S(hbond)    S(metal)    S(lipo)     H(rot)  DE(clash)    DE(int)     intcor
     11.94     -12.31       0.26        0.00      96.90       2.11       0.07       0.31       ----

> <Gold.Chemscore.Fitness>
11.9367

> <Gold.Chemscore.DG>
-12.3099

> <Gold.Chemscore.ZeroCoef>
-5.4800

> <Gold.Chemscore.Hbond>
0.2649

> <Gold.Chemscore.Metal>
0.0000

> <Gold.Chemscore.Lipo>
96.9002

> <Gold.Chemscore.Internal_Hbond>
0.0000

> <Gold.Chemscore.DEClash>
0.0664

> <Gold.Chemscore.DEInternal>
0.3069

> <Gold.Chemscore.Rot>
2.1063

> <Gold.Chemscore.Internal.Correction>
   9.000000E+99

> <Gold.Chemscore.Hbonds>
donor molecule, donor type, donor heavy atom, donor atom, acceptor molecule, acceptor atom, score
      P1  H  7997  8008       L1    26  0.28
      P1  H 10752 10765       L1    24  0.32

> <Gold.Chemscore.Hbond.Weighted>
-0.8848

> <Gold.Chemscore.Metal.Weighted>
-0.0000

> <Gold.Chemscore.Lipo.Weighted>
-11.3373

> <Gold.Chemscore.Internal_Hbond.Weighted>
0.0000

> <Gold.Chemscore.DEClash.Weighted>
0.0664

> <Gold.Chemscore.DEInternal.Weighted>
0.3069

> <Gold.Chemscore.Rot.Weighted>
5.3921

> <Gold.Chemscore.Internal.Correction.Weighted>
   9.000000E+99

> <Gold.Protein.RotatedTorsions>
[ 6907 6896 6895 6894 ] final  -52.80 input  -60.11 | X-H torsion
[ 7974 7965 7964 7962 ] final    1.29 input  175.53 | X-H torsion
[ 8008 7997 7996 7995 ] final  -27.43 input   59.86 | X-H torsion
[ 10167 10162 10161 10158 ] final -162.46 input  -65.29 | X-H torsion
[ 10718 10713 10712 10709 ] final  -45.95 input   66.30 | X-H torsion
[ 10763 10752 10751 10750 ] final  152.92 input  -60.55 | X-H torsion
[ 11005 11000 10999 10996 ] final  -25.27 input  -57.11 | X-H torsion

> <Gold.Protein.ActiveResidues>
 VAL166  LYS551  ARG553  GLY616  TRP617  ASP618  TYR619  PRO620  LYS621  CYS622 
 ASP623  PHE694  ASN695  SER759  ASP760  ASP761  ALA762  ILE779  LEU786  VAL792 
 PHE793  MET794  SER795  GLU796  ALA797  LYS798  CYS799  TRP800  GLU811  SER814 

> <Gold.Protein.RotatedAtoms>
  150.8484  134.7801  159.6988 H   0  0  0  0  0  0  0  0  0  0  0  0  # atno 6907 bound_to 6896
  152.4555  134.5297  159.9817 H   0  0  0  0  0  0  0  0  0  0  0  0  # atno 6908 bound_to 6896
  151.5423  133.3393  159.2973 H   0  0  0  0  0  0  0  0  0  0  0  0  # atno 6909 bound_to 6896
  146.2439  140.1010  142.8348 H   0  0  0  0  0  0  0  0  0  0  0  0  # atno 7974 bound_to 7965
  154.4378  140.1872  156.0930 H   0  0  0  0  0  0  0  0  0  0  0  0  # atno 8008 bound_to 7997
  156.0351  140.3326  155.7156 H   0  0  0  0  0  0  0  0  0  0  0  0  # atno 8009 bound_to 7997
  155.5782  140.0619  157.2780 H   0  0  0  0  0  0  0  0  0  0  0  0  # atno 8010 bound_to 7997
  139.6390  144.0295  152.2077 H   0  0  0  0  0  0  0  0  0  0  0  0  # atno 10167 bound_to 10162
  156.2232  130.4167  149.8966 H   0  0  0  0  0  0  0  0  0  0  0  0  # atno 10718 bound_to 10713
  154.1278  135.2828  155.3192 H   0  0  0  0  0  0  0  0  0  0  0  0  # atno 10763 bound_to 10752
  154.6377  135.5413  153.7756 H   0  0  0  0  0  0  0  0  0  0  0  0  # atno 10764 bound_to 10752
  153.0291  135.6478  154.1430 H   0  0  0  0  0  0  0  0  0  0  0  0  # atno 10765 bound_to 10752
  140.8922  133.7581  156.0435 H   0  0  0  0  0  0  0  0  0  0  0  0  # atno 11005 bound_to 11000
  145.0569  140.9059  143.4962 LP  0  0  0  0  0  0  0  0  0  0  0  0  # atno 17320 bound_to 7965
  145.1118  139.2752  143.5633 LP  0  0  0  0  0  0  0  0  0  0  0  0  # atno 17321 bound_to 7965
  139.9979  144.6314  150.7755 LP  0  0  0  0  0  0  0  0  0  0  0  0  # atno 17342 bound_to 10162
  140.7481  143.2917  151.3314 LP  0  0  0  0  0  0  0  0  0  0  0  0  # atno 17343 bound_to 10162
  156.6606  130.8780  151.3546 LP  0  0  0  0  0  0  0  0  0  0  0  0  # atno 17370 bound_to 10713
  157.7098  130.9426  150.1050 LP  0  0  0  0  0  0  0  0  0  0  0  0  # atno 17371 bound_to 10713
  140.8333  134.3152  157.5341 LP  0  0  0  0  0  0  0  0  0  0  0  0  # atno 17394 bound_to 11000
  139.8731  134.9375  156.3690 LP  0  0  0  0  0  0  0  0  0  0  0  0  # atno 17395 bound_to 11000

$$$$
