AV-unprocessed.smi:3337|AV-procd|sdf|12863|dock1
  -GOLD-   2272019263D 1   1.00000     0.00000
 Structure written by MMmdl.
 46 47  0  0  0  0  0  0  0  0  2 V2000
  142.0790  136.2687  153.5742 C   0  0  0  0  0  0  0  0  0  0  0  0
  143.0813  136.2355  152.4117 C   0  0  2  0  0  0  0  0  0  0  0  0
  143.5892  134.8083  152.1468 C   0  0  0  0  0  0  0  0  0  0  0  0
  144.6059  134.8010  150.9932 C   0  0  2  0  0  0  0  0  0  0  0  0
  145.1432  133.3880  150.7259 C   0  0  0  0  0  0  0  0  0  0  0  0
  145.7497  135.7916  151.2851 C   0  0  0  0  0  0  0  0  0  0  0  0
  145.2314  137.1620  151.5318 N   0  3  2  0  0  0  0  0  0  0  0  0
  146.3242  138.1564  151.6776 C   0  0  0  0  0  0  0  0  0  0  0  0
  146.6720  138.4346  153.1529 C   0  0  0  0  0  0  0  0  0  0  0  0
  148.0994  138.6712  153.3322 N   0  0  0  0  0  0  0  0  0  0  0  0
  148.7529  138.5672  154.5006 C   0  0  0  0  0  0  0  0  0  0  0  0
  148.1985  138.2340  155.5488 O   0  0  0  0  0  0  0  0  0  0  0  0
  150.2551  138.8903  154.4756 C   0  0  2  0  0  0  0  0  0  0  0  0
  151.1318  137.6527  154.7540 C   0  0  0  0  0  0  0  0  0  0  0  0
  150.5504  139.9884  155.3874 N   0  0  0  0  0  0  0  0  0  0  0  0
  151.3601  140.0288  156.4480 C   0  0  0  0  0  0  0  0  0  0  0  0
  151.4248  141.2172  157.0317 N   0  0  0  0  0  0  0  0  0  0  0  0
  150.5785  141.9168  156.2192 C   0  0  0  0  0  0  0  0  0  0  0  0
  150.0367  141.2317  155.2124 N   0  0  0  0  0  0  0  0  0  0  0  0
  144.2688  137.1838  152.6653 C   0  0  0  0  0  0  0  0  0  0  0  0
  142.5391  135.9354  154.5050 H   0  0  0  0  0  0  0  0  0  0  0  0
  141.2244  135.6213  153.3752 H   0  0  0  0  0  0  0  0  0  0  0  0
  141.6965  137.2770  153.7347 H   0  0  0  0  0  0  0  0  0  0  0  0
  142.5582  136.5803  151.5183 H   0  0  0  0  0  0  0  0  0  0  0  0
  144.0510  134.4061  153.0500 H   0  0  0  0  0  0  0  0  0  0  0  0
  142.7502  134.1531  151.9085 H   0  0  0  0  0  0  0  0  0  0  0  0
  144.0935  135.1332  150.0890 H   0  0  0  0  0  0  0  0  0  0  0  0
  145.6782  132.9960  151.5917 H   0  0  0  0  0  0  0  0  0  0  0  0
  145.8307  133.3828  149.8796 H   0  0  0  0  0  0  0  0  0  0  0  0
  144.3326  132.6966  150.4945 H   0  0  0  0  0  0  0  0  0  0  0  0
  146.3288  135.4612  152.1492 H   0  0  0  0  0  0  0  0  0  0  0  0
  146.4320  135.8090  150.4342 H   0  0  0  0  0  0  0  0  0  0  0  0
  147.1996  137.8191  151.1204 H   0  0  0  0  0  0  0  0  0  0  0  0
  146.0184  139.1001  151.2234 H   0  0  0  0  0  0  0  0  0  0  0  0
  146.1364  139.3190  153.4992 H   0  0  0  0  0  0  0  0  0  0  0  0
  146.3645  137.6136  153.8011 H   0  0  0  0  0  0  0  0  0  0  0  0
  148.6250  138.9507  152.5161 H   0  0  0  0  0  0  0  0  0  0  0  0
  150.4988  139.2356  153.4692 H   0  0  0  0  0  0  0  0  0  0  0  0
  150.9328  136.8598  154.0323 H   0  0  0  0  0  0  0  0  0  0  0  0
  150.9609  137.2428  155.7503 H   0  0  0  0  0  0  0  0  0  0  0  0
  152.1902  137.9038  154.6789 H   0  0  0  0  0  0  0  0  0  0  0  0
  151.9164  139.1722  156.7987 H   0  0  0  0  0  0  0  0  0  0  0  0
  150.3604  142.9638  156.3705 H   0  0  0  0  0  0  0  0  0  0  0  0
  143.8887  138.1938  152.8149 H   0  0  0  0  0  0  0  0  0  0  0  0
  144.7850  136.9038  153.5852 H   0  0  0  0  0  0  0  0  0  0  0  0
  144.7173  137.4206  150.7019 H   0  0  0  0  0  0  0  0  0  0  0  0
  1  2  1  0  0  0  0
  1 21  1  0  0  0  0
  1 22  1  0  0  0  0
  1 23  1  0  0  0  0
  2 20  1  0  0  0  0
  2  3  1  0  0  0  0
  2 24  1  0  0  0  0
  3  4  1  0  0  0  0
  3 25  1  0  0  0  0
  3 26  1  0  0  0  0
  4  5  1  0  0  0  0
  4  6  1  0  0  0  0
  4 27  1  0  0  0  0
  5 28  1  0  0  0  0
  5 29  1  0  0  0  0
  5 30  1  0  0  0  0
  6  7  1  0  0  0  0
  6 31  1  0  0  0  0
  6 32  1  0  0  0  0
  7  8  1  0  0  0  0
  7 20  1  0  0  0  0
  7 46  1  0  0  0  0
  8  9  1  0  0  0  0
  8 33  1  0  0  0  0
  8 34  1  0  0  0  0
  9 10  1  0  0  0  0
  9 35  1  0  0  0  0
  9 36  1  0  0  0  0
 10 11  1  0  0  0  0
 10 37  1  0  0  0  0
 11 12  2  0  0  0  0
 11 13  1  0  0  0  0
 13 14  1  0  0  0  0
 13 15  1  0  0  0  0
 13 38  1  0  0  0  0
 14 39  1  0  0  0  0
 14 40  1  0  0  0  0
 14 41  1  0  0  0  0
 15 19  1  0  0  0  0
 15 16  1  0  0  0  0
 16 17  2  0  0  0  0
 16 42  1  0  0  0  0
 17 18  1  0  0  0  0
 18 19  2  0  0  0  0
 18 43  1  0  0  0  0
 20 44  1  0  0  0  0
 20 45  1  0  0  0  0
M  CHG  1   7   1
M  END
> <s_m_source_file>
AV-unprocessed.smi

> <i_m_source_file_index>
3337

> <i_lp_mmshare_version>
43012

> <i_f3d_flags>
0

> <s_epik_input>
W0NIM11bQ0BASF0xW0NIMl1bQ0BASF0oW0NIM10pW0NIMl1OKFtDSDJdMSlbQ0gyXVtDSDJdW05IXUMoPU8pW0NASF0oW0NIM10pbjJbY0hdbltjSF1uMg==

> <s_epik_cmdline>
J2VwaWtfcHl0aG9uJywgJy1waCcsICc3LjAnLCAnLXRuJywgJzgnLCAnLW1hJywgJzIwMCcsICctbWV0YWxfYmluZGluZycsICctaW1hZScsICc8aW5maWxlLm1hZT4nLCAnLW9tYWUnLCAnPG91dGZpbGUubWFlPic=

> <r_lp_tautomer_probability>
1

> <r_epik_Ionization_Penalty>
0.00175613

> <r_epik_Ionization_Penalty_Charging>
0.00174812

> <r_epik_Ionization_Penalty_Neutral>
8.01354e-06

> <r_epik_State_Penalty>
0.00118332

> <r_epik_Charging_Adjusted_Penalty>
0.00293143

> <i_epik_Tot_Q>
1

> <i_epik_Tot_abs_Q>
1

> <r_epik_Metal_State_Penalty>
-0

> <b_epik_Metal_Only>
0

> <s_lp_Force_Field>
OPLS_2005

> <r_lp_Energy>
22.1479

> <b_lp_Chiralities_Consistent>
1

> <s_lp_Variant>
AV-unprocessed.smi:3337-3

> <Gold.Version>
5.8.1

> <Gold.Id.Protein>
6NUR|6NUR_protein|mol2

> <Gold.PLP.Fitness>
46.3160

> <Gold.PLP.PLP>
-39.0579

> <Gold.PLP.part.hbond>
-4.0000

> <Gold.PLP.part.metal>
0.0000

> <Gold.PLP.part.buried>
-3.1927

> <Gold.PLP.part.nonpolar>
-33.3487

> <Gold.PLP.part.repulsive>
0.2701

> <Gold.PLP.ligand.clash>
0.0000

> <Gold.PLP.ligand.torsion>
0.9273

> <Gold.PLP.Chemscore.Hbond>
2.0000

> <Gold.PLP.Chemscore.CHOScore>
1.0000

> <Gold.PLP.Chemscore.Metal>
0.0000

> <Gold.Chemscore.Hbonds>
donor molecule, donor type, donor heavy atom, donor atom, acceptor molecule, acceptor atom, score
      L1  H     7    46       P1 10171  1.00
      L1  H    10    37       P1  7957  1.00
      L1  C    18    43       P1  8028  1.00

> <Gold.PLP.Chemscore.Internal.Correction>
0.1128

> <Gold.Rescore>
     Score         DG    S(hbond)    S(metal)    S(lipo)     H(rot)  DE(clash)    DE(int)     intcor
     12.76     -13.79       1.97        0.00      69.89       2.51       0.18       0.86       ----

> <Gold.Chemscore.Fitness>
12.7559

> <Gold.Chemscore.DG>
-13.7901

> <Gold.Chemscore.ZeroCoef>
-5.4800

> <Gold.Chemscore.Hbond>
1.9660

> <Gold.Chemscore.Metal>
0.0000

> <Gold.Chemscore.Lipo>
69.8852

> <Gold.Chemscore.Internal_Hbond>
0.0000

> <Gold.Chemscore.DEClash>
0.1761

> <Gold.Chemscore.DEInternal>
0.8581

> <Gold.Chemscore.Rot>
2.5129

> <Gold.Chemscore.Internal.Correction>
   9.000000E+99

> <Gold.Chemscore.Hbonds>
donor molecule, donor type, donor heavy atom, donor atom, acceptor molecule, acceptor atom, score
      L1  H     7    46       P1 10171  0.94
      L1  H    10    37       P1  7957  0.97

> <Gold.Chemscore.Hbond.Weighted>
-6.5666

> <Gold.Chemscore.Metal.Weighted>
-0.0000

> <Gold.Chemscore.Lipo.Weighted>
-8.1766

> <Gold.Chemscore.Internal_Hbond.Weighted>
0.0000

> <Gold.Chemscore.DEClash.Weighted>
0.1761

> <Gold.Chemscore.DEInternal.Weighted>
0.8581

> <Gold.Chemscore.Rot.Weighted>
6.4331

> <Gold.Chemscore.Internal.Correction.Weighted>
   9.000000E+99

> <Gold.Protein.RotatedTorsions>
[ 6907 6896 6895 6894 ] final  -94.27 input  -60.11 | X-H torsion
[ 7974 7965 7964 7962 ] final   13.92 input  175.53 | X-H torsion
[ 8008 7997 7996 7995 ] final   24.25 input   59.86 | X-H torsion
[ 10167 10162 10161 10158 ] final  123.94 input  -65.29 | X-H torsion
[ 10718 10713 10712 10709 ] final   53.66 input   66.30 | X-H torsion
[ 10763 10752 10751 10750 ] final  -75.48 input  -60.55 | X-H torsion
[ 11005 11000 10999 10996 ] final   16.31 input  -57.11 | X-H torsion

> <Gold.Protein.ActiveResidues>
 VAL166  LYS551  ARG553  GLY616  TRP617  ASP618  TYR619  PRO620  LYS621  CYS622 
 ASP623  PHE694  ASN695  SER759  ASP760  ASP761  ALA762  ILE779  LEU786  VAL792 
 PHE793  MET794  SER795  GLU796  ALA797  LYS798  CYS799  TRP800  GLU811  SER814 

> <Gold.Protein.RotatedAtoms>
  150.6938  134.1838  159.4258 H   0  0  0  0  0  0  0  0  0  0  0  0  # atno 6907 bound_to 6896
  151.9811  135.0025  160.0566 H   0  0  0  0  0  0  0  0  0  0  0  0  # atno 6908 bound_to 6896
  152.1754  133.4636  159.4967 H   0  0  0  0  0  0  0  0  0  0  0  0  # atno 6909 bound_to 6896
  146.2318  139.9118  142.8523 H   0  0  0  0  0  0  0  0  0  0  0  0  # atno 7974 bound_to 7965
  154.9934  140.3116  155.4897 H   0  0  0  0  0  0  0  0  0  0  0  0  # atno 8008 bound_to 7997
  156.2936  140.2245  156.4980 H   0  0  0  0  0  0  0  0  0  0  0  0  # atno 8009 bound_to 7997
  154.7683  140.0454  157.1019 H   0  0  0  0  0  0  0  0  0  0  0  0  # atno 8010 bound_to 7997
  139.5770  144.6968  151.3627 H   0  0  0  0  0  0  0  0  0  0  0  0  # atno 10167 bound_to 10162
  157.5187  130.8550  149.8529 H   0  0  0  0  0  0  0  0  0  0  0  0  # atno 10718 bound_to 10713
  154.4870  135.5830  153.6431 H   0  0  0  0  0  0  0  0  0  0  0  0  # atno 10763 bound_to 10752
  152.9856  135.6103  154.3173 H   0  0  0  0  0  0  0  0  0  0  0  0  # atno 10764 bound_to 10752
  154.3069  135.2845  155.2564 H   0  0  0  0  0  0  0  0  0  0  0  0  # atno 10765 bound_to 10752
  140.4485  134.1249  155.7699 H   0  0  0  0  0  0  0  0  0  0  0  0  # atno 11005 bound_to 11000
  145.2222  140.9940  143.4039 LP  0  0  0  0  0  0  0  0  0  0  0  0  # atno 17320 bound_to 7965
  144.9600  139.3990  143.6360 LP  0  0  0  0  0  0  0  0  0  0  0  0  # atno 17321 bound_to 7965
  140.7052  143.7532  150.7469 LP  0  0  0  0  0  0  0  0  0  0  0  0  # atno 17342 bound_to 10162
  140.1055  143.4748  152.2401 LP  0  0  0  0  0  0  0  0  0  0  0  0  # atno 17343 bound_to 10162
  156.0338  130.3757  150.1615 LP  0  0  0  0  0  0  0  0  0  0  0  0  # atno 17370 bound_to 10713
  156.9804  130.9862  151.3439 LP  0  0  0  0  0  0  0  0  0  0  0  0  # atno 17371 bound_to 10713
  141.1674  133.8675  157.1672 LP  0  0  0  0  0  0  0  0  0  0  0  0  # atno 17394 bound_to 11000
  140.0022  135.0023  157.0216 LP  0  0  0  0  0  0  0  0  0  0  0  0  # atno 17395 bound_to 11000

$$$$
