AV-unprocessed.smi:1071|AV-procd|sdf|4682|dock3
  -GOLD-   22720 3203D 1   1.00000     0.00000
 Structure written by MMmdl.
 46 47  0  0  0  0  0  0  0  0  1 V2000
  152.7570  143.9084  158.5653 C   0  0  0  0  0  0  0  0  0  0  0  0
  152.1380  142.6445  158.4003 O   0  0  0  0  0  0  0  0  0  0  0  0
  152.9820  141.5722  158.7850 C   0  0  0  0  0  0  0  0  0  0  0  0
  152.3265  140.2497  158.3782 C   0  0  0  0  0  0  0  0  0  0  0  0
  152.5749  140.0233  156.9939 O   0  0  0  0  0  0  0  0  0  0  0  0
  151.9606  138.9502  156.3813 C   0  0  0  0  0  0  0  0  0  0  0  0
  151.8162  138.9669  154.9800 C   0  0  0  0  0  0  0  0  0  0  0  0
  151.1932  137.8751  154.3455 C   0  0  0  0  0  0  0  0  0  0  0  0
  150.7398  136.7928  155.1365 C   0  0  0  0  0  0  0  0  0  0  0  0
  150.0804  135.6443  154.6214 N   0  0  0  0  0  0  0  0  0  0  0  0
  149.9299  134.4322  155.1909 C   0  0  0  0  0  0  0  0  0  0  0  0
  150.4882  134.0922  156.2332 O   0  0  0  0  0  0  0  0  0  0  0  0
  149.1975  133.5848  154.4261 N   0  0  0  0  0  0  0  0  0  0  0  0
  147.9455  134.0298  153.7932 C   0  0  0  0  0  0  0  0  0  0  0  0
  146.7650  133.6787  154.7233 C   0  0  0  0  0  0  0  0  0  0  0  0
  146.7252  132.2342  154.9647 N   0  0  0  0  0  0  0  0  0  0  0  0
  145.6287  131.9174  155.8678 C   0  0  0  0  0  0  0  0  0  0  0  0
  147.9890  131.7622  155.5368 C   0  0  0  0  0  0  0  0  0  0  0  0
  149.1529  132.1168  154.5863 C   0  0  2  0  0  0  0  0  0  0  0  0
  150.4816  131.4566  155.0100 C   0  0  0  0  0  0  0  0  0  0  0  0
  150.9172  136.8811  156.5326 C   0  0  0  0  0  0  0  0  0  0  0  0
  151.5149  137.9236  157.1467 N   0  0  0  0  0  0  0  0  0  0  0  0
  152.0679  144.6961  158.2607 H   0  0  0  0  0  0  0  0  0  0  0  0
  153.6543  143.9908  157.9506 H   0  0  0  0  0  0  0  0  0  0  0  0
  153.0286  144.0827  159.6074 H   0  0  0  0  0  0  0  0  0  0  0  0
  153.9567  141.6689  158.3040 H   0  0  0  0  0  0  0  0  0  0  0  0
  153.1420  141.5920  159.8641 H   0  0  0  0  0  0  0  0  0  0  0  0
  152.7423  139.4355  158.9745 H   0  0  0  0  0  0  0  0  0  0  0  0
  151.2533  140.2977  158.5701 H   0  0  0  0  0  0  0  0  0  0  0  0
  152.1740  139.8052  154.4006 H   0  0  0  0  0  0  0  0  0  0  0  0
  151.0643  137.8989  153.2748 H   0  0  0  0  0  0  0  0  0  0  0  0
  149.5636  135.7904  153.7665 H   0  0  0  0  0  0  0  0  0  0  0  0
  147.9294  135.0999  153.5829 H   0  0  0  0  0  0  0  0  0  0  0  0
  147.8256  133.5417  152.8247 H   0  0  0  0  0  0  0  0  0  0  0  0
  146.8593  134.2154  155.6690 H   0  0  0  0  0  0  0  0  0  0  0  0
  145.8272  133.9959  154.2654 H   0  0  0  0  0  0  0  0  0  0  0  0
  145.5691  130.8413  156.0347 H   0  0  0  0  0  0  0  0  0  0  0  0
  144.6779  132.2408  155.4429 H   0  0  0  0  0  0  0  0  0  0  0  0
  145.7562  132.4069  156.8345 H   0  0  0  0  0  0  0  0  0  0  0  0
  148.1512  132.2053  156.5209 H   0  0  0  0  0  0  0  0  0  0  0  0
  147.9374  130.6814  155.6743 H   0  0  0  0  0  0  0  0  0  0  0  0
  148.9274  131.6956  153.6046 H   0  0  0  0  0  0  0  0  0  0  0  0
  150.4188  130.3737  154.9009 H   0  0  0  0  0  0  0  0  0  0  0  0
  150.7321  131.6515  156.0522 H   0  0  0  0  0  0  0  0  0  0  0  0
  151.3102  131.7981  154.3889 H   0  0  0  0  0  0  0  0  0  0  0  0
  150.5747  136.0869  157.1799 H   0  0  0  0  0  0  0  0  0  0  0  0
  1  2  1  0  0  0  0
  1 23  1  0  0  0  0
  1 24  1  0  0  0  0
  1 25  1  0  0  0  0
  2  3  1  0  0  0  0
  3  4  1  0  0  0  0
  3 26  1  0  0  0  0
  3 27  1  0  0  0  0
  4  5  1  0  0  0  0
  4 28  1  0  0  0  0
  4 29  1  0  0  0  0
  5  6  1  0  0  0  0
  6 22  1  0  0  0  0
  6  7  2  0  0  0  0
  7  8  1  0  0  0  0
  7 30  1  0  0  0  0
  8  9  2  0  0  0  0
  8 31  1  0  0  0  0
  9 10  1  0  0  0  0
  9 21  1  0  0  0  0
 10 11  1  0  0  0  0
 10 32  1  0  0  0  0
 11 12  2  0  0  0  0
 11 13  1  0  0  0  0
 13 19  1  0  0  0  0
 13 14  1  0  0  0  0
 14 15  1  0  0  0  0
 14 33  1  0  0  0  0
 14 34  1  0  0  0  0
 15 16  1  0  0  0  0
 15 35  1  0  0  0  0
 15 36  1  0  0  0  0
 16 17  1  0  0  0  0
 16 18  1  0  0  0  0
 17 37  1  0  0  0  0
 17 38  1  0  0  0  0
 17 39  1  0  0  0  0
 18 19  1  0  0  0  0
 18 40  1  0  0  0  0
 18 41  1  0  0  0  0
 19 20  1  0  0  0  0
 19 42  1  0  0  0  0
 20 43  1  0  0  0  0
 20 44  1  0  0  0  0
 20 45  1  0  0  0  0
 21 22  2  0  0  0  0
 21 46  1  0  0  0  0
M  END
> <s_m_source_file>
AV-unprocessed.smi

> <i_m_source_file_index>
1071

> <i_lp_mmshare_version>
43012

> <i_f3d_flags>
0

> <s_epik_input>
W0NIM11PW0NIMl1bQ0gyXU9jMVtjSF1bY0hdYyhbY0hdbjEpW05IXUMoPU8pTjJbQ0gyXVtDSDJdTihbQ0gzXSlbQ0gyXVtDQEhdMltDSDNd

> <s_epik_cmdline>
J2VwaWtfcHl0aG9uJywgJy1waCcsICc3LjAnLCAnLXRuJywgJzgnLCAnLW1hJywgJzIwMCcsICctbWV0YWxfYmluZGluZycsICctaW1hZScsICc8aW5maWxlLm1hZT4nLCAnLW9tYWUnLCAnPG91dGZpbGUubWFlPic=

> <r_lp_tautomer_probability>
1

> <r_epik_Ionization_Penalty>
0.623446

> <r_epik_Ionization_Penalty_Charging>
0

> <r_epik_Ionization_Penalty_Neutral>
0.623446

> <r_epik_State_Penalty>
0.639577

> <r_epik_Charging_Adjusted_Penalty>
0.639577

> <i_epik_Tot_Q>
0

> <i_epik_Tot_abs_Q>
0

> <r_epik_Metal_State_Penalty>
0.639567

> <b_epik_Metal_Only>
0

> <s_lp_Force_Field>
OPLS_2005

> <r_lp_Energy>
48.0993

> <b_lp_Chiralities_Consistent>
1

> <s_lp_Variant>
AV-unprocessed.smi:1071-6

> <Gold.Version>
5.8.1

> <Gold.Id.Protein>
6NUR|6NUR_protein|mol2

> <Gold.PLP.Fitness>
36.5995

> <Gold.PLP.PLP>
-31.9581

> <Gold.PLP.part.hbond>
-2.1559

> <Gold.PLP.part.metal>
0.0000

> <Gold.PLP.part.buried>
-3.3306

> <Gold.PLP.part.nonpolar>
-26.2241

> <Gold.PLP.part.repulsive>
0.1684

> <Gold.PLP.ligand.clash>
0.0000

> <Gold.PLP.ligand.torsion>
0.9145

> <Gold.PLP.Chemscore.Hbond>
1.9500

> <Gold.PLP.Chemscore.CHOScore>
0.0000

> <Gold.PLP.Chemscore.Metal>
0.0000

> <Gold.Chemscore.Hbonds>
donor molecule, donor type, donor heavy atom, donor atom, acceptor molecule, acceptor atom, score
      L1  H    10    32       P1  7948  1.00
      P1  H  7997  8008       L1     5  1.00

> <Gold.PLP.Chemscore.Internal.Correction>
0.6205

> <Gold.Rescore>
     Score         DG    S(hbond)    S(metal)    S(lipo)     H(rot)  DE(clash)    DE(int)     intcor
      8.73     -11.94       0.44        0.00      77.22       1.57       0.03       3.18       ----

> <Gold.Chemscore.Fitness>
8.7271

> <Gold.Chemscore.DG>
-11.9420

> <Gold.Chemscore.ZeroCoef>
-5.4800

> <Gold.Chemscore.Hbond>
0.4362

> <Gold.Chemscore.Metal>
0.0000

> <Gold.Chemscore.Lipo>
77.2248

> <Gold.Chemscore.Internal_Hbond>
0.0000

> <Gold.Chemscore.DEClash>
0.0329

> <Gold.Chemscore.DEInternal>
3.1821

> <Gold.Chemscore.Rot>
1.5743

> <Gold.Chemscore.Internal.Correction>
   9.000000E+99

> <Gold.Chemscore.Hbonds>
donor molecule, donor type, donor heavy atom, donor atom, acceptor molecule, acceptor atom, score
      L1  H    10    32       P1  7948  0.33
      P1  H  7997  8008       L1     5  0.68

> <Gold.Chemscore.Hbond.Weighted>
-1.4569

> <Gold.Chemscore.Metal.Weighted>
-0.0000

> <Gold.Chemscore.Lipo.Weighted>
-9.0353

> <Gold.Chemscore.Internal_Hbond.Weighted>
0.0000

> <Gold.Chemscore.DEClash.Weighted>
0.0329

> <Gold.Chemscore.DEInternal.Weighted>
3.1821

> <Gold.Chemscore.Rot.Weighted>
4.0301

> <Gold.Chemscore.Internal.Correction.Weighted>
   9.000000E+99

> <Gold.Protein.RotatedTorsions>
[ 6907 6896 6895 6894 ] final  140.78 input  -60.11 | X-H torsion
[ 7974 7965 7964 7962 ] final -165.44 input  175.53 | X-H torsion
[ 8008 7997 7996 7995 ] final  -52.58 input   59.86 | X-H torsion
[ 10167 10162 10161 10158 ] final  -50.44 input  -65.29 | X-H torsion
[ 10718 10713 10712 10709 ] final  -75.05 input   66.30 | X-H torsion
[ 10763 10752 10751 10750 ] final  -68.61 input  -60.55 | X-H torsion
[ 11005 11000 10999 10996 ] final   98.26 input  -57.11 | X-H torsion

> <Gold.Protein.ActiveResidues>
 VAL166  LYS551  ARG553  GLY616  TRP617  ASP618  TYR619  PRO620  LYS621  CYS622 
 ASP623  PHE694  ASN695  SER759  ASP760  ASP761  ALA762  ILE779  LEU786  VAL792 
 PHE793  MET794  SER795  GLU796  ALA797  LYS798  CYS799  TRP800  GLU811  SER814 

> <Gold.Protein.RotatedAtoms>
  152.2389  133.5119  159.5258 H   0  0  0  0  0  0  0  0  0  0  0  0  # atno 6907 bound_to 6896
  150.7058  134.1116  159.4011 H   0  0  0  0  0  0  0  0  0  0  0  0  # atno 6908 bound_to 6896
  151.9037  135.0367  160.0559 H   0  0  0  0  0  0  0  0  0  0  0  0  # atno 6909 bound_to 6896
  144.7270  140.2813  143.6235 H   0  0  0  0  0  0  0  0  0  0  0  0  # atno 7974 bound_to 7965
  154.4110  140.1220  156.5014 H   0  0  0  0  0  0  0  0  0  0  0  0  # atno 8008 bound_to 7997
  155.6891  140.3495  155.4866 H   0  0  0  0  0  0  0  0  0  0  0  0  # atno 8009 bound_to 7997
  155.9485  140.1100  157.0987 H   0  0  0  0  0  0  0  0  0  0  0  0  # atno 8010 bound_to 7997
  140.6637  143.2658  151.4359 H   0  0  0  0  0  0  0  0  0  0  0  0  # atno 10167 bound_to 10162
  156.0221  130.4431  150.2984 H   0  0  0  0  0  0  0  0  0  0  0  0  # atno 10718 bound_to 10713
  154.3915  135.6051  153.5846 H   0  0  0  0  0  0  0  0  0  0  0  0  # atno 10763 bound_to 10752
  152.9787  135.5885  154.4291 H   0  0  0  0  0  0  0  0  0  0  0  0  # atno 10764 bound_to 10752
  154.4076  135.2844  155.2035 H   0  0  0  0  0  0  0  0  0  0  0  0  # atno 10765 bound_to 10752
  139.8773  134.9040  156.4429 H   0  0  0  0  0  0  0  0  0  0  0  0  # atno 11005 bound_to 11000
  145.7946  139.1940  143.2083 LP  0  0  0  0  0  0  0  0  0  0  0  0  # atno 17320 bound_to 7965
  146.0727  140.7851  142.9680 LP  0  0  0  0  0  0  0  0  0  0  0  0  # atno 17321 bound_to 7965
  139.5879  144.1563  152.2052 LP  0  0  0  0  0  0  0  0  0  0  0  0  # atno 17342 bound_to 10162
  140.0909  144.5621  150.7055 LP  0  0  0  0  0  0  0  0  0  0  0  0  # atno 17343 bound_to 10162
  157.1087  131.0215  151.3056 LP  0  0  0  0  0  0  0  0  0  0  0  0  # atno 17370 bound_to 10713
  157.4721  130.7715  149.7334 LP  0  0  0  0  0  0  0  0  0  0  0  0  # atno 17371 bound_to 10713
  140.8987  133.7795  155.9654 LP  0  0  0  0  0  0  0  0  0  0  0  0  # atno 17394 bound_to 11000
  140.8675  134.2766  157.5206 LP  0  0  0  0  0  0  0  0  0  0  0  0  # atno 17395 bound_to 11000

$$$$
