AV-unprocessed.smi:2331|AV-procd|sdf|9315|dock1
  -GOLD-   2272012533D 1   1.00000     0.00000
 Structure written by MMmdl.
 49 50  0  0  0  0  0  0  0  0  1 V2000
  152.2110  144.3961  157.8545 C   0  0  0  0  0  0  0  0  0  0  0  0
  151.6621  144.2626  159.2904 C   0  0  0  0  0  0  0  0  0  0  0  0
  151.7673  145.6579  159.9524 C   0  0  0  0  0  0  0  0  0  0  0  0
  150.1644  143.8671  159.2219 C   0  0  0  0  0  0  0  0  0  0  0  0
  149.8987  142.9355  158.1297 N   0  0  0  0  0  0  0  0  0  0  0  0
  148.6867  142.5749  157.6794 C   0  0  0  0  0  0  0  0  0  0  0  0
  147.6415  143.0387  158.1365 O   0  0  0  0  0  0  0  0  0  0  0  0
  148.7288  141.7172  156.6312 N   0  0  0  0  0  0  0  0  0  0  0  0
  147.5880  141.4793  155.7351 C   0  0  0  0  0  0  0  0  0  0  0  0
  148.1367  140.7808  154.4926 C   0  0  0  0  0  0  0  0  0  0  0  0
  149.6298  141.0751  154.5195 C   0  0  0  0  0  0  0  0  0  0  0  0
  149.9760  141.2349  156.0111 C   0  0  2  0  0  0  0  0  0  0  0  0
  150.5811  139.9552  156.6868 C   0  0  0  0  0  0  0  0  0  0  0  0
  151.8000  139.4514  155.8887 C   0  0  0  0  0  0  0  0  0  0  0  0
  150.9970  140.1400  158.1599 C   0  0  0  0  0  0  0  0  0  0  0  0
  149.6350  138.9031  156.6648 O   0  0  0  0  0  0  0  0  0  0  0  0
  152.4640  143.1877  160.0504 C   0  0  0  0  0  0  0  0  0  0  0  0
  152.7155  143.2576  161.4430 C   0  0  0  0  0  0  0  0  0  0  0  0
  153.4420  142.2198  162.0601 C   0  0  0  0  0  0  0  0  0  0  0  0
  153.9194  141.1482  161.3951 N   0  0  0  0  0  0  0  0  0  0  0  0
  153.6820  141.0782  160.0696 C   0  0  0  0  0  0  0  0  0  0  0  0
  152.9657  142.0606  159.3584 C   0  0  0  0  0  0  0  0  0  0  0  0
  151.6781  145.1668  157.2964 H   0  0  0  0  0  0  0  0  0  0  0  0
  152.1132  143.4690  157.2895 H   0  0  0  0  0  0  0  0  0  0  0  0
  153.2676  144.6663  157.8591 H   0  0  0  0  0  0  0  0  0  0  0  0
  151.1982  146.4026  159.3947 H   0  0  0  0  0  0  0  0  0  0  0  0
  152.7996  146.0078  159.9886 H   0  0  0  0  0  0  0  0  0  0  0  0
  151.3770  145.6600  160.9706 H   0  0  0  0  0  0  0  0  0  0  0  0
  149.8464  143.4461  160.1774 H   0  0  0  0  0  0  0  0  0  0  0  0
  149.5431  144.7482  159.0576 H   0  0  0  0  0  0  0  0  0  0  0  0
  150.7051  142.5289  157.6779 H   0  0  0  0  0  0  0  0  0  0  0  0
  146.8217  140.8729  156.2202 H   0  0  0  0  0  0  0  0  0  0  0  0
  147.1347  142.4311  155.4517 H   0  0  0  0  0  0  0  0  0  0  0  0
  147.9674  139.7063  154.5684 H   0  0  0  0  0  0  0  0  0  0  0  0
  147.6602  141.1234  153.5738 H   0  0  0  0  0  0  0  0  0  0  0  0
  150.2101  140.3124  154.0017 H   0  0  0  0  0  0  0  0  0  0  0  0
  149.8135  142.0201  154.0065 H   0  0  0  0  0  0  0  0  0  0  0  0
  150.7259  142.0250  156.0856 H   0  0  0  0  0  0  0  0  0  0  0  0
  152.5857  140.2070  155.8560 H   0  0  0  0  0  0  0  0  0  0  0  0
  151.5459  139.1999  154.8595 H   0  0  0  0  0  0  0  0  0  0  0  0
  152.2297  138.5561  156.3397 H   0  0  0  0  0  0  0  0  0  0  0  0
  151.7322  140.9378  158.2654 H   0  0  0  0  0  0  0  0  0  0  0  0
  151.4486  139.2318  158.5608 H   0  0  0  0  0  0  0  0  0  0  0  0
  150.1464  140.3764  158.7995 H   0  0  0  0  0  0  0  0  0  0  0  0
  148.8376  139.2076  157.0702 H   0  0  0  0  0  0  0  0  0  0  0  0
  152.3674  144.0765  162.0529 H   0  0  0  0  0  0  0  0  0  0  0  0
  153.6429  142.2519  163.1207 H   0  0  0  0  0  0  0  0  0  0  0  0
  154.0726  140.2106  159.5585 H   0  0  0  0  0  0  0  0  0  0  0  0
  152.8037  141.9395  158.2977 H   0  0  0  0  0  0  0  0  0  0  0  0
  1  2  1  0  0  0  0
  1 23  1  0  0  0  0
  1 24  1  0  0  0  0
  1 25  1  0  0  0  0
  2  3  1  0  0  0  0
  2  4  1  0  0  0  0
  2 17  1  0  0  0  0
  3 26  1  0  0  0  0
  3 27  1  0  0  0  0
  3 28  1  0  0  0  0
  4  5  1  0  0  0  0
  4 29  1  0  0  0  0
  4 30  1  0  0  0  0
  5  6  1  0  0  0  0
  5 31  1  0  0  0  0
  6  7  2  0  0  0  0
  6  8  1  0  0  0  0
  8 12  1  0  0  0  0
  8  9  1  0  0  0  0
  9 10  1  0  0  0  0
  9 32  1  0  0  0  0
  9 33  1  0  0  0  0
 10 11  1  0  0  0  0
 10 34  1  0  0  0  0
 10 35  1  0  0  0  0
 11 12  1  0  0  0  0
 11 36  1  0  0  0  0
 11 37  1  0  0  0  0
 12 13  1  0  0  0  0
 12 38  1  0  0  0  0
 13 14  1  0  0  0  0
 13 15  1  0  0  0  0
 13 16  1  0  0  0  0
 14 39  1  0  0  0  0
 14 40  1  0  0  0  0
 14 41  1  0  0  0  0
 15 42  1  0  0  0  0
 15 43  1  0  0  0  0
 15 44  1  0  0  0  0
 16 45  1  0  0  0  0
 17 22  1  0  0  0  0
 17 18  2  0  0  0  0
 18 19  1  0  0  0  0
 18 46  1  0  0  0  0
 19 20  2  0  0  0  0
 19 47  1  0  0  0  0
 20 21  1  0  0  0  0
 21 22  2  0  0  0  0
 21 48  1  0  0  0  0
 22 49  1  0  0  0  0
M  END
> <s_m_source_file>
AV-unprocessed.smi

> <i_m_source_file_index>
2331

> <i_lp_mmshare_version>
43012

> <i_f3d_flags>
0

> <s_epik_input>
W2NIXTFbY0hdbltjSF1bY0hdYzFDKFtDSDNdKShbQ0gzXSlbQ0gyXVtOSF1DKD1PKU4yW0NIMl1bQ0gyXVtDSDJdW0NASF0yQyhbQ0gzXSkoW0NIM10pW09IXQ==

> <s_epik_cmdline>
J2VwaWtfcHl0aG9uJywgJy1waCcsICc3LjAnLCAnLXRuJywgJzgnLCAnLW1hJywgJzIwMCcsICctbWV0YWxfYmluZGluZycsICctaW1hZScsICc8aW5maWxlLm1hZT4nLCAnLW9tYWUnLCAnPG91dGZpbGUubWFlPic=

> <r_epik_Ionization_Penalty>
0.0581496

> <r_epik_Ionization_Penalty_Charging>
0

> <r_epik_Ionization_Penalty_Neutral>
0.0581496

> <r_epik_State_Penalty>
0.0501956

> <r_epik_Charging_Adjusted_Penalty>
0.0501956

> <i_epik_Tot_Q>
0

> <i_epik_Tot_abs_Q>
0

> <r_epik_Metal_State_Penalty>
0.0456895

> <b_epik_Metal_Only>
0

> <s_lp_Force_Field>
OPLS_2005

> <r_lp_Energy>
50.0165

> <b_lp_Chiralities_Consistent>
1

> <s_lp_Variant>
AV-unprocessed.smi:2331-2

> <Gold.Version>
5.8.1

> <Gold.Id.Protein>
6NUR|6NUR_protein|mol2

> <Gold.PLP.Fitness>
44.5204

> <Gold.PLP.PLP>
-48.6179

> <Gold.PLP.part.hbond>
-0.2020

> <Gold.PLP.part.metal>
0.0000

> <Gold.PLP.part.buried>
-3.0139

> <Gold.PLP.part.nonpolar>
-46.1163

> <Gold.PLP.part.repulsive>
0.2675

> <Gold.PLP.ligand.clash>
1.2095

> <Gold.PLP.ligand.torsion>
1.6222

> <Gold.PLP.Chemscore.Hbond>
0.0000

> <Gold.PLP.Chemscore.CHOScore>
0.0000

> <Gold.PLP.Chemscore.Metal>
0.0000

> <Gold.PLP.Chemscore.Internal.Correction>
0.3564

> <Gold.Rescore>
     Score         DG    S(hbond)    S(metal)    S(lipo)     H(rot)  DE(clash)    DE(int)     intcor
     15.16     -15.84       0.00        0.00     130.89       1.94       0.03       0.65       ----

> <Gold.Chemscore.Fitness>
15.1644

> <Gold.Chemscore.DG>
-15.8409

> <Gold.Chemscore.ZeroCoef>
-5.4800

> <Gold.Chemscore.Hbond>
0.0000

> <Gold.Chemscore.Metal>
0.0000

> <Gold.Chemscore.Lipo>
130.8934

> <Gold.Chemscore.Internal_Hbond>
0.0000

> <Gold.Chemscore.DEClash>
0.0297

> <Gold.Chemscore.DEInternal>
0.6468

> <Gold.Chemscore.Rot>
1.9350

> <Gold.Chemscore.Internal.Correction>
   9.000000E+99

> <Gold.Chemscore.Hbond.Weighted>
-0.0000

> <Gold.Chemscore.Metal.Weighted>
-0.0000

> <Gold.Chemscore.Lipo.Weighted>
-15.3145

> <Gold.Chemscore.Internal_Hbond.Weighted>
0.0000

> <Gold.Chemscore.DEClash.Weighted>
0.0297

> <Gold.Chemscore.DEInternal.Weighted>
0.6468

> <Gold.Chemscore.Rot.Weighted>
4.9536

> <Gold.Chemscore.Internal.Correction.Weighted>
   9.000000E+99

> <Gold.Protein.RotatedTorsions>
[ 6907 6896 6895 6894 ] final  157.54 input  -60.11 | X-H torsion
[ 7974 7965 7964 7962 ] final  -75.10 input  175.53 | X-H torsion
[ 8008 7997 7996 7995 ] final  -33.72 input   59.86 | X-H torsion
[ 10167 10162 10161 10158 ] final   52.75 input  -65.29 | X-H torsion
[ 10718 10713 10712 10709 ] final  117.31 input   66.30 | X-H torsion
[ 10763 10752 10751 10750 ] final    8.64 input  -60.55 | X-H torsion
[ 11005 11000 10999 10996 ] final  -63.34 input  -57.11 | X-H torsion

> <Gold.Protein.ActiveResidues>
 VAL166  LYS551  ARG553  GLY616  TRP617  ASP618  TYR619  PRO620  LYS621  CYS622 
 ASP623  PHE694  ASN695  SER759  ASP760  ASP761  ALA762  ILE779  LEU786  VAL792 
 PHE793  MET794  SER795  GLU796  ALA797  LYS798  CYS799  TRP800  GLU811  SER814 

> <Gold.Protein.RotatedAtoms>
  152.0136  133.3871  159.4229 H   0  0  0  0  0  0  0  0  0  0  0  0  # atno 6907 bound_to 6896
  150.6897  134.3703  159.4998 H   0  0  0  0  0  0  0  0  0  0  0  0  # atno 6908 bound_to 6896
  152.1467  134.9020  160.0601 H   0  0  0  0  0  0  0  0  0  0  0  0  # atno 6909 bound_to 6896
  145.6304  140.9339  143.1090 H   0  0  0  0  0  0  0  0  0  0  0  0  # atno 7974 bound_to 7965
  154.4141  140.1703  156.1933 H   0  0  0  0  0  0  0  0  0  0  0  0  # atno 8008 bound_to 7997
  155.9585  140.3395  155.6446 H   0  0  0  0  0  0  0  0  0  0  0  0  # atno 8009 bound_to 7997
  155.6779  140.0719  157.2486 H   0  0  0  0  0  0  0  0  0  0  0  0  # atno 8010 bound_to 7997
  140.2481  144.3510  150.6357 H   0  0  0  0  0  0  0  0  0  0  0  0  # atno 10167 bound_to 10162
  157.6104  131.1036  150.7597 H   0  0  0  0  0  0  0  0  0  0  0  0  # atno 10718 bound_to 10713
  153.2228  135.6883  153.7981 H   0  0  0  0  0  0  0  0  0  0  0  0  # atno 10763 bound_to 10752
  153.7173  135.3273  155.3260 H   0  0  0  0  0  0  0  0  0  0  0  0  # atno 10764 bound_to 10752
  154.8277  135.4605  154.1082 H   0  0  0  0  0  0  0  0  0  0  0  0  # atno 10765 bound_to 10752
  141.1390  133.6651  156.5666 H   0  0  0  0  0  0  0  0  0  0  0  0  # atno 11005 bound_to 11000
  144.7196  139.8077  143.7387 LP  0  0  0  0  0  0  0  0  0  0  0  0  # atno 17320 bound_to 7965
  146.1361  139.4407  143.0138 LP  0  0  0  0  0  0  0  0  0  0  0  0  # atno 17321 bound_to 7965
  140.6062  143.2168  151.6976 LP  0  0  0  0  0  0  0  0  0  0  0  0  # atno 17342 bound_to 10162
  139.5055  144.3714  152.0466 LP  0  0  0  0  0  0  0  0  0  0  0  0  # atno 17343 bound_to 10162
  156.7976  130.4910  149.5375 LP  0  0  0  0  0  0  0  0  0  0  0  0  # atno 17370 bound_to 10713
  156.1205  130.6107  151.0187 LP  0  0  0  0  0  0  0  0  0  0  0  0  # atno 17371 bound_to 10713
  140.3946  134.7410  157.4743 LP  0  0  0  0  0  0  0  0  0  0  0  0  # atno 17394 bound_to 11000
  140.0541  134.6089  155.8827 LP  0  0  0  0  0  0  0  0  0  0  0  0  # atno 17395 bound_to 11000

$$$$
