AV-unprocessed.smi:213|AV-procd|sdf|1637|dock8
  -GOLD-   2262020 03D 1   1.00000     0.00000
 Structure written by MMmdl.
 59 62  0  0  0  0  0  0  0  0  2 V2000
  145.6523  138.0245  155.2384 C   0  0  0  0  0  0  0  0  0  0  0  0
  146.3361  137.2349  154.1105 C   0  0  2  0  0  0  0  0  0  0  0  0
  147.3888  136.2482  154.6721 C   0  0  0  0  0  0  0  0  0  0  0  0
  147.6829  135.1229  153.7488 N   0  3  0  0  0  0  0  0  0  0  0  0
  148.5309  134.0746  154.3601 C   0  0  0  0  0  0  0  0  0  0  0  0
  148.8775  133.0019  153.3139 C   0  0  0  0  0  0  0  0  0  0  0  0
  147.6794  132.4492  152.7820 O   0  0  0  0  0  0  0  0  0  0  0  0
  146.8838  133.4293  152.1266 C   0  0  0  0  0  0  0  0  0  0  0  0
  146.4764  134.5199  153.1311 C   0  0  0  0  0  0  0  0  0  0  0  0
  146.8901  138.1321  153.0848 N   0  0  0  0  0  0  0  0  0  0  0  0
  146.3112  138.1357  151.7417 C   0  0  0  0  0  0  0  0  0  0  0  0
  147.4168  139.3045  153.5279 C   0  0  0  0  0  0  0  0  0  0  0  0
  146.7223  140.4594  153.3423 N   0  0  0  0  0  0  0  0  0  0  0  0
  147.1944  141.6157  153.8159 C   0  0  0  0  0  0  0  0  0  0  0  0
  148.3179  141.8393  154.4984 N   0  0  0  0  0  0  0  0  0  0  0  0
  149.0303  140.6903  154.6728 C   0  0  0  0  0  0  0  0  0  0  0  0
  148.6549  139.3915  154.2257 C   0  0  0  0  0  0  0  0  0  0  0  0
  149.6260  138.4672  154.5920 N   0  0  0  0  0  0  0  0  0  0  0  0
  150.5207  139.1766  155.2229 C   0  0  0  0  0  0  0  0  0  0  0  0
  150.2484  140.5234  155.3087 N   0  0  0  0  0  0  0  0  0  0  0  0
  151.0760  141.5323  155.9509 C   0  0  0  0  0  0  0  0  0  0  0  0
  150.6045  141.9393  157.3662 C   0  0  2  0  0  0  0  0  0  0  0  0
  149.3449  142.5743  157.2759 O   0  0  0  0  0  0  0  0  0  0  0  0
  151.6111  142.8147  158.1536 C   0  0  1  0  0  0  0  0  0  0  0  0
  151.8456  144.2610  157.6898 C   0  0  0  0  0  0  0  0  0  0  0  0
  152.2650  144.9821  158.9635 C   0  0  0  0  0  0  0  0  0  0  0  0
  152.0131  143.9669  160.0818 C   0  0  0  0  0  0  0  0  0  0  0  0
  151.1859  142.9716  159.4975 O   0  0  0  0  0  0  0  0  0  0  0  0
  145.1461  137.3513  155.9306 H   0  0  0  0  0  0  0  0  0  0  0  0
  144.9011  138.7061  154.8381 H   0  0  0  0  0  0  0  0  0  0  0  0
  146.3638  138.6108  155.8195 H   0  0  0  0  0  0  0  0  0  0  0  0
  145.5444  136.6371  153.6640 H   0  0  0  0  0  0  0  0  0  0  0  0
  148.3097  136.7983  154.8700 H   0  0  0  0  0  0  0  0  0  0  0  0
  147.0640  135.8493  155.6343 H   0  0  0  0  0  0  0  0  0  0  0  0
  149.4494  134.5176  154.7471 H   0  0  0  0  0  0  0  0  0  0  0  0
  148.0079  133.6240  155.2050 H   0  0  0  0  0  0  0  0  0  0  0  0
  149.4854  133.4236  152.5114 H   0  0  0  0  0  0  0  0  0  0  0  0
  149.4623  132.2043  153.7723 H   0  0  0  0  0  0  0  0  0  0  0  0
  147.4314  133.8581  151.2860 H   0  0  0  0  0  0  0  0  0  0  0  0
  145.9968  132.9476  151.7151 H   0  0  0  0  0  0  0  0  0  0  0  0
  145.8394  134.0940  153.9080 H   0  0  0  0  0  0  0  0  0  0  0  0
  145.8879  135.2781  152.6160 H   0  0  0  0  0  0  0  0  0  0  0  0
  146.9511  138.6783  151.0446 H   0  0  0  0  0  0  0  0  0  0  0  0
  145.3280  138.6073  151.7419 H   0  0  0  0  0  0  0  0  0  0  0  0
  146.2019  137.1230  151.3558 H   0  0  0  0  0  0  0  0  0  0  0  0
  146.5811  142.4849  153.6283 H   0  0  0  0  0  0  0  0  0  0  0  0
  151.4164  138.7354  155.6358 H   0  0  0  0  0  0  0  0  0  0  0  0
  152.1051  141.1715  155.9794 H   0  0  0  0  0  0  0  0  0  0  0  0
  151.0841  142.4137  155.3086 H   0  0  0  0  0  0  0  0  0  0  0  0
  150.4495  141.0156  157.9251 H   0  0  0  0  0  0  0  0  0  0  0  0
  149.3640  143.1698  156.5421 H   0  0  0  0  0  0  0  0  0  0  0  0
  152.5700  142.2938  158.1944 H   0  0  0  0  0  0  0  0  0  0  0  0
  152.6015  144.3345  156.9088 H   0  0  0  0  0  0  0  0  0  0  0  0
  150.9344  144.7210  157.3082 H   0  0  0  0  0  0  0  0  0  0  0  0
  153.3136  145.2803  158.9361 H   0  0  0  0  0  0  0  0  0  0  0  0
  151.6657  145.8820  159.1067 H   0  0  0  0  0  0  0  0  0  0  0  0
  152.9504  143.5089  160.4012 H   0  0  0  0  0  0  0  0  0  0  0  0
  151.5382  144.4136  160.9555 H   0  0  0  0  0  0  0  0  0  0  0  0
  148.2306  135.5159  152.9959 H   0  0  0  0  0  0  0  0  0  0  0  0
  1  2  1  0  0  0  0
  1 29  1  0  0  0  0
  1 30  1  0  0  0  0
  1 31  1  0  0  0  0
  2  3  1  0  0  0  0
  2 10  1  0  0  0  0
  2 32  1  0  0  0  0
  3  4  1  0  0  0  0
  3 33  1  0  0  0  0
  3 34  1  0  0  0  0
  4  9  1  0  0  0  0
  4  5  1  0  0  0  0
  4 59  1  0  0  0  0
  5  6  1  0  0  0  0
  5 35  1  0  0  0  0
  5 36  1  0  0  0  0
  6  7  1  0  0  0  0
  6 37  1  0  0  0  0
  6 38  1  0  0  0  0
  7  8  1  0  0  0  0
  8  9  1  0  0  0  0
  8 39  1  0  0  0  0
  8 40  1  0  0  0  0
  9 41  1  0  0  0  0
  9 42  1  0  0  0  0
 10 11  1  0  0  0  0
 10 12  1  0  0  0  0
 11 43  1  0  0  0  0
 11 44  1  0  0  0  0
 11 45  1  0  0  0  0
 12 17  1  0  0  0  0
 12 13  2  0  0  0  0
 13 14  1  0  0  0  0
 14 15  2  0  0  0  0
 14 46  1  0  0  0  0
 15 16  1  0  0  0  0
 16 20  1  0  0  0  0
 16 17  2  0  0  0  0
 17 18  1  0  0  0  0
 18 19  2  0  0  0  0
 19 20  1  0  0  0  0
 19 47  1  0  0  0  0
 20 21  1  0  0  0  0
 21 22  1  0  0  0  0
 21 48  1  0  0  0  0
 21 49  1  0  0  0  0
 22 23  1  0  0  0  0
 22 24  1  0  0  0  0
 22 50  1  0  0  0  0
 23 51  1  0  0  0  0
 24 28  1  0  0  0  0
 24 25  1  0  0  0  0
 24 52  1  0  0  0  0
 25 26  1  0  0  0  0
 25 53  1  0  0  0  0
 25 54  1  0  0  0  0
 26 27  1  0  0  0  0
 26 55  1  0  0  0  0
 26 56  1  0  0  0  0
 27 28  1  0  0  0  0
 27 57  1  0  0  0  0
 27 58  1  0  0  0  0
M  CHG  1   4   1
M  END
> <s_m_source_file>
AV-unprocessed.smi

> <i_m_source_file_index>
213

> <i_lp_mmshare_version>
43012

> <i_f3d_flags>
0

> <s_epik_input>
W0NIMl0xW0NIMl1PW0NIMl1bQ0gyXU4xW0NIMl1bQ0BASF0oW0NIM10pTihbQ0gzXSljKG5bY0hdbjIpYyhjMjMpbltjSF1uM1tDSDJdW0NASF0oW09IXSlbQ0BASF00W0NIMl1bQ0gyXVtDSDJdTzQ=

> <s_epik_cmdline>
J2VwaWtfcHl0aG9uJywgJy1waCcsICc3LjAnLCAnLXRuJywgJzgnLCAnLW1hJywgJzIwMCcsICctbWV0YWxfYmluZGluZycsICctaW1hZScsICc8aW5maWxlLm1hZT4nLCAnLW9tYWUnLCAnPG91dGZpbGUubWFlPic=

> <r_lp_tautomer_probability>
1

> <r_epik_Ionization_Penalty>
0.399679

> <r_epik_Ionization_Penalty_Charging>
0.399433

> <r_epik_Ionization_Penalty_Neutral>
0.000246213

> <r_epik_State_Penalty>
0.286032

> <r_epik_Charging_Adjusted_Penalty>
0.685465

> <i_epik_Tot_Q>
1

> <i_epik_Tot_abs_Q>
1

> <r_epik_Metal_State_Penalty>
0.286072

> <b_epik_Metal_Only>
0

> <s_lp_Force_Field>
OPLS_2005

> <r_lp_Energy>
48.2471

> <b_lp_Chiralities_Consistent>
1

> <s_lp_Variant>
AV-unprocessed.smi:213-5

> <Gold.Version>
5.8.1

> <Gold.Id.Protein>
6NUR|6NUR_protein|mol2

> <Gold.PLP.Fitness>
55.4359

> <Gold.PLP.PLP>
-49.4855

> <Gold.PLP.part.hbond>
-2.1137

> <Gold.PLP.part.metal>
0.0000

> <Gold.PLP.part.buried>
-3.6897

> <Gold.PLP.part.nonpolar>
-44.3600

> <Gold.PLP.part.repulsive>
0.6809

> <Gold.PLP.ligand.clash>
0.0000

> <Gold.PLP.ligand.torsion>
2.0584

> <Gold.PLP.Chemscore.Hbond>
3.0000

> <Gold.PLP.Chemscore.CHOScore>
0.0000

> <Gold.PLP.Chemscore.Metal>
0.0000

> <Gold.Chemscore.Hbonds>
donor molecule, donor type, donor heavy atom, donor atom, acceptor molecule, acceptor atom, score
      L1  H     4    59       P1  7948  1.89
      L1  H    23    51       P1  8028  1.00

> <Gold.PLP.Chemscore.Internal.Correction>
1.0672

> <Gold.Rescore>
     Score         DG    S(hbond)    S(metal)    S(lipo)     H(rot)  DE(clash)    DE(int)     intcor
     14.76     -16.74       1.99        0.00     101.39       2.83       0.13       1.85       ----

> <Gold.Chemscore.Fitness>
14.7623

> <Gold.Chemscore.DG>
-16.7426

> <Gold.Chemscore.ZeroCoef>
-5.4800

> <Gold.Chemscore.Hbond>
1.9859

> <Gold.Chemscore.Metal>
0.0000

> <Gold.Chemscore.Lipo>
101.3892

> <Gold.Chemscore.Internal_Hbond>
0.0000

> <Gold.Chemscore.DEClash>
0.1275

> <Gold.Chemscore.DEInternal>
1.8528

> <Gold.Chemscore.Rot>
2.8254

> <Gold.Chemscore.Internal.Correction>
   9.000000E+99

> <Gold.Chemscore.Hbonds>
donor molecule, donor type, donor heavy atom, donor atom, acceptor molecule, acceptor atom, score
      L1  H     4    59       P1  7948  0.90
      L1  H    23    51       P1  8028  0.97

> <Gold.Chemscore.Hbond.Weighted>
-6.6331

> <Gold.Chemscore.Metal.Weighted>
-0.0000

> <Gold.Chemscore.Lipo.Weighted>
-11.8625

> <Gold.Chemscore.Internal_Hbond.Weighted>
0.0000

> <Gold.Chemscore.DEClash.Weighted>
0.1275

> <Gold.Chemscore.DEInternal.Weighted>
1.8528

> <Gold.Chemscore.Rot.Weighted>
7.2330

> <Gold.Chemscore.Internal.Correction.Weighted>
   9.000000E+99

> <Gold.Protein.RotatedTorsions>
[ 6907 6896 6895 6894 ] final   14.88 input  -60.11 | X-H torsion
[ 7974 7965 7964 7962 ] final  -29.51 input  175.53 | X-H torsion
[ 8008 7997 7996 7995 ] final  -89.49 input   59.86 | X-H torsion
[ 10167 10162 10161 10158 ] final -145.43 input  -65.29 | X-H torsion
[ 10718 10713 10712 10709 ] final   87.32 input   66.30 | X-H torsion
[ 10763 10752 10751 10750 ] final   27.75 input  -60.55 | X-H torsion
[ 11005 11000 10999 10996 ] final  -48.48 input  -57.11 | X-H torsion

> <Gold.Protein.ActiveResidues>
 VAL166  LYS551  ARG553  GLY616  TRP617  ASP618  TYR619  PRO620  LYS621  CYS622 
 ASP623  PHE694  ASN695  SER759  ASP760  ASP761  ALA762  ILE779  LEU786  VAL792 
 PHE793  MET794  SER795  GLU796  ALA797  LYS798  CYS799  TRP800  GLU811  SER814 

> <Gold.Protein.RotatedAtoms>
  151.8093  135.0686  160.0410 H   0  0  0  0  0  0  0  0  0  0  0  0  # atno 6907 bound_to 6896
  152.3032  133.5672  159.5641 H   0  0  0  0  0  0  0  0  0  0  0  0  # atno 6908 bound_to 6896
  150.7283  134.0176  159.3732 H   0  0  0  0  0  0  0  0  0  0  0  0  # atno 6909 bound_to 6896
  146.1211  140.5421  142.8735 H   0  0  0  0  0  0  0  0  0  0  0  0  # atno 7974 bound_to 7965
  154.6872  140.0541  157.0327 H   0  0  0  0  0  0  0  0  0  0  0  0  # atno 8008 bound_to 7997
  155.0867  140.3215  155.4566 H   0  0  0  0  0  0  0  0  0  0  0  0  # atno 8009 bound_to 7997
  156.2715  140.2055  156.5995 H   0  0  0  0  0  0  0  0  0  0  0  0  # atno 8010 bound_to 7997
  139.7806  143.8106  152.2638 H   0  0  0  0  0  0  0  0  0  0  0  0  # atno 10167 bound_to 10162
  157.6939  131.0251  150.3105 H   0  0  0  0  0  0  0  0  0  0  0  0  # atno 10718 bound_to 10713
  153.0535  135.6529  154.0634 H   0  0  0  0  0  0  0  0  0  0  0  0  # atno 10763 bound_to 10752
  154.0317  135.2911  155.3369 H   0  0  0  0  0  0  0  0  0  0  0  0  # atno 10764 bound_to 10752
  154.6838  135.5310  153.8365 H   0  0  0  0  0  0  0  0  0  0  0  0  # atno 10765 bound_to 10752
  141.0703  133.6681  156.3448 H   0  0  0  0  0  0  0  0  0  0  0  0  # atno 11005 bound_to 11000
  144.7598  140.5395  143.6743 LP  0  0  0  0  0  0  0  0  0  0  0  0  # atno 17320 bound_to 7965
  145.5463  139.1476  143.3419 LP  0  0  0  0  0  0  0  0  0  0  0  0  # atno 17321 bound_to 7965
  139.8168  144.7313  150.9625 LP  0  0  0  0  0  0  0  0  0  0  0  0  # atno 17342 bound_to 10162
  140.7818  143.4197  151.0860 LP  0  0  0  0  0  0  0  0  0  0  0  0  # atno 17343 bound_to 10162
  156.3607  130.3846  149.7253 LP  0  0  0  0  0  0  0  0  0  0  0  0  # atno 17370 bound_to 10713
  156.4700  130.7992  151.3010 LP  0  0  0  0  0  0  0  0  0  0  0  0  # atno 17371 bound_to 10713
  140.5687  134.5862  157.5452 LP  0  0  0  0  0  0  0  0  0  0  0  0  # atno 17394 bound_to 11000
  139.9517  134.7605  156.0433 LP  0  0  0  0  0  0  0  0  0  0  0  0  # atno 17395 bound_to 11000

$$$$
