AV-unprocessed.smi:902|AV-procd|sdf|4094|dock2
  -GOLD-   22720 1583D 1   1.00000     0.00000
 Structure written by MMmdl.
 42 44  0  0  0  0  0  0  0  0  1 V2000
  152.6188  138.6698  154.8886 C   0  0  0  0  0  0  0  0  0  0  0  0
  151.7563  139.6087  155.5790 N   0  0  0  0  0  0  0  0  0  0  0  0
  152.2593  140.3991  156.5508 N   0  0  0  0  0  0  0  0  0  0  0  0
  151.2335  141.1325  156.9726 C   0  0  0  0  0  0  0  0  0  0  0  0
  151.4355  142.1418  158.0706 C   0  0  0  0  0  0  0  0  0  0  0  0
  151.6153  143.6296  157.7360 C   0  0  0  0  0  0  0  0  0  0  0  0
  152.6021  143.7290  158.9039 C   0  0  0  0  0  0  0  0  0  0  0  0
  152.7671  142.2072  158.8322 C   0  0  0  0  0  0  0  0  0  0  0  0
  150.0256  140.8341  156.2771 C   0  0  0  0  0  0  0  0  0  0  0  0
  150.4141  139.8583  155.4006 C   0  0  0  0  0  0  0  0  0  0  0  0
  149.6722  139.1959  154.4741 N   0  0  0  0  0  0  0  0  0  0  0  0
  148.3665  139.3348  154.1861 C   0  0  0  0  0  0  0  0  0  0  0  0
  147.5886  140.1067  154.7473 O   0  0  0  0  0  0  0  0  0  0  0  0
  148.0037  138.5134  153.1909 N   0  0  0  0  0  0  0  0  0  0  0  0
  146.6686  138.4433  152.6074 C   0  0  0  0  0  0  0  0  0  0  0  0
  145.8753  137.1632  152.8665 C   0  0  0  0  0  0  0  0  0  0  0  0
  146.3482  136.4227  154.1139 C   0  0  0  0  0  0  0  0  0  0  0  0
  147.6227  135.8433  153.9254 O   0  0  0  0  0  0  0  0  0  0  0  0
  144.3841  137.2020  152.5927 C   0  0  0  0  0  0  0  0  0  0  0  0
  145.2866  136.3825  151.7089 C   0  0  0  0  0  0  0  0  0  0  0  0
  152.1435  137.6891  154.8550 H   0  0  0  0  0  0  0  0  0  0  0  0
  153.5761  138.5784  155.4036 H   0  0  0  0  0  0  0  0  0  0  0  0
  152.7944  139.0173  153.8706 H   0  0  0  0  0  0  0  0  0  0  0  0
  150.6257  142.0462  158.7966 H   0  0  0  0  0  0  0  0  0  0  0  0
  152.0937  143.7973  156.7697 H   0  0  0  0  0  0  0  0  0  0  0  0
  150.7135  144.2324  157.8470 H   0  0  0  0  0  0  0  0  0  0  0  0
  153.5083  144.2954  158.6877 H   0  0  0  0  0  0  0  0  0  0  0  0
  152.1287  144.0582  159.8301 H   0  0  0  0  0  0  0  0  0  0  0  0
  152.7638  141.7016  159.7981 H   0  0  0  0  0  0  0  0  0  0  0  0
  153.6232  141.9084  158.2252 H   0  0  0  0  0  0  0  0  0  0  0  0
  149.0501  141.2758  156.4136 H   0  0  0  0  0  0  0  0  0  0  0  0
  150.1768  138.5140  153.9273 H   0  0  0  0  0  0  0  0  0  0  0  0
  148.7079  137.9133  152.7874 H   0  0  0  0  0  0  0  0  0  0  0  0
  146.0959  139.2834  153.0010 H   0  0  0  0  0  0  0  0  0  0  0  0
  146.7386  138.6139  151.5316 H   0  0  0  0  0  0  0  0  0  0  0  0
  146.3732  137.1026  154.9661 H   0  0  0  0  0  0  0  0  0  0  0  0
  145.6466  135.6247  154.3592 H   0  0  0  0  0  0  0  0  0  0  0  0
  148.0216  136.2347  153.1632 H   0  0  0  0  0  0  0  0  0  0  0  0
  143.7226  136.6618  153.2671 H   0  0  0  0  0  0  0  0  0  0  0  0
  143.9667  138.1136  152.1692 H   0  0  0  0  0  0  0  0  0  0  0  0
  145.4708  136.7505  150.7017 H   0  0  0  0  0  0  0  0  0  0  0  0
  145.2365  135.2997  151.8048 H   0  0  0  0  0  0  0  0  0  0  0  0
  1  2  1  0  0  0  0
  1 21  1  0  0  0  0
  1 22  1  0  0  0  0
  1 23  1  0  0  0  0
  2 10  1  0  0  0  0
  2  3  1  0  0  0  0
  3  4  2  0  0  0  0
  4  5  1  0  0  0  0
  4  9  1  0  0  0  0
  5  8  1  0  0  0  0
  5  6  1  0  0  0  0
  5 24  1  0  0  0  0
  6  7  1  0  0  0  0
  6 25  1  0  0  0  0
  6 26  1  0  0  0  0
  7  8  1  0  0  0  0
  7 27  1  0  0  0  0
  7 28  1  0  0  0  0
  8 29  1  0  0  0  0
  8 30  1  0  0  0  0
  9 10  2  0  0  0  0
  9 31  1  0  0  0  0
 10 11  1  0  0  0  0
 11 12  1  0  0  0  0
 11 32  1  0  0  0  0
 12 13  2  0  0  0  0
 12 14  1  0  0  0  0
 14 15  1  0  0  0  0
 14 33  1  0  0  0  0
 15 16  1  0  0  0  0
 15 34  1  0  0  0  0
 15 35  1  0  0  0  0
 16 20  1  0  0  0  0
 16 17  1  0  0  0  0
 16 19  1  0  0  0  0
 17 18  1  0  0  0  0
 17 36  1  0  0  0  0
 17 37  1  0  0  0  0
 18 38  1  0  0  0  0
 19 20  1  0  0  0  0
 19 39  1  0  0  0  0
 19 40  1  0  0  0  0
 20 41  1  0  0  0  0
 20 42  1  0  0  0  0
M  END
> <s_m_source_file>
AV-unprocessed.smi

> <i_m_source_file_index>
902

> <i_lp_mmshare_version>
43012

> <i_f3d_flags>
0

> <s_epik_input>
W0NIMl0xW0NIMl1bQ0gyXVtDSF0xYyhubjJbQ0gzXSlbY0hdYzJbTkhdQyg9TylbTkhdW0NIMl1DMyhbQ0gyXVtPSF0pW0NIMl1bQ0gyXTM=

> <s_epik_cmdline>
J2VwaWtfcHl0aG9uJywgJy1waCcsICc3LjAnLCAnLXRuJywgJzgnLCAnLW1hJywgJzIwMCcsICctbWV0YWxfYmluZGluZycsICctaW1hZScsICc8aW5maWxlLm1hZT4nLCAnLW9tYWUnLCAnPG91dGZpbGUubWFlPic=

> <r_lp_tautomer_probability>
1

> <r_epik_Ionization_Penalty>
9.68756e-05

> <r_epik_Ionization_Penalty_Charging>
0

> <r_epik_Ionization_Penalty_Neutral>
9.68756e-05

> <r_epik_State_Penalty>
-0

> <r_epik_Charging_Adjusted_Penalty>
0

> <i_epik_Tot_Q>
0

> <i_epik_Tot_abs_Q>
0

> <r_epik_Metal_State_Penalty>
-0

> <b_epik_Metal_Only>
0

> <s_lp_Force_Field>
OPLS_2005

> <r_lp_Energy>
26.4992

> <b_lp_Chiralities_Consistent>
1

> <s_lp_Variant>
AV-unprocessed.smi:902-1

> <Gold.Version>
5.8.1

> <Gold.Id.Protein>
6NUR|6NUR_protein|mol2

> <Gold.PLP.Fitness>
43.5164

> <Gold.PLP.PLP>
-36.7222

> <Gold.PLP.part.hbond>
-3.8031

> <Gold.PLP.part.metal>
0.0000

> <Gold.PLP.part.buried>
-1.7466

> <Gold.PLP.part.nonpolar>
-32.3017

> <Gold.PLP.part.repulsive>
0.1924

> <Gold.PLP.ligand.clash>
0.0000

> <Gold.PLP.ligand.torsion>
1.3797

> <Gold.PLP.Chemscore.Hbond>
2.7344

> <Gold.PLP.Chemscore.CHOScore>
0.0000

> <Gold.PLP.Chemscore.Metal>
0.0000

> <Gold.Chemscore.Hbonds>
donor molecule, donor type, donor heavy atom, donor atom, acceptor molecule, acceptor atom, score
      L1  H    14    33       P1  7948  0.88
      L1  H    18    38       P1  7948  1.00
      P1  H  7997  8010       L1     3  0.84

> <Gold.PLP.Chemscore.Internal.Correction>
1.3506

> <Gold.Rescore>
     Score         DG    S(hbond)    S(metal)    S(lipo)     H(rot)  DE(clash)    DE(int)     intcor
     14.27     -18.62       2.63        0.00      86.87       2.26       0.43       3.91       ----

> <Gold.Chemscore.Fitness>
14.2719

> <Gold.Chemscore.DG>
-18.6206

> <Gold.Chemscore.ZeroCoef>
-5.4800

> <Gold.Chemscore.Hbond>
2.6254

> <Gold.Chemscore.Metal>
0.0000

> <Gold.Chemscore.Lipo>
86.8729

> <Gold.Chemscore.Internal_Hbond>
0.0000

> <Gold.Chemscore.DEClash>
0.4348

> <Gold.Chemscore.DEInternal>
3.9140

> <Gold.Chemscore.Rot>
2.2626

> <Gold.Chemscore.Internal.Correction>
   9.000000E+99

> <Gold.Chemscore.Hbonds>
donor molecule, donor type, donor heavy atom, donor atom, acceptor molecule, acceptor atom, score
      L1  H    14    33       P1  7948  0.86
      L1  H    18    38       P1  7948  0.96
      P1  H  7997  8010       L1     3  0.39

> <Gold.Chemscore.Hbond.Weighted>
-8.7687

> <Gold.Chemscore.Metal.Weighted>
-0.0000

> <Gold.Chemscore.Lipo.Weighted>
-10.1641

> <Gold.Chemscore.Internal_Hbond.Weighted>
0.0000

> <Gold.Chemscore.DEClash.Weighted>
0.4348

> <Gold.Chemscore.DEInternal.Weighted>
3.9140

> <Gold.Chemscore.Rot.Weighted>
5.7922

> <Gold.Chemscore.Internal.Correction.Weighted>
   9.000000E+99

> <Gold.Protein.RotatedTorsions>
[ 6907 6896 6895 6894 ] final  112.12 input  -60.11 | X-H torsion
[ 7974 7965 7964 7962 ] final -169.68 input  175.53 | X-H torsion
[ 8008 7997 7996 7995 ] final   73.13 input   59.86 | X-H torsion
[ 10167 10162 10161 10158 ] final -131.90 input  -65.29 | X-H torsion
[ 10718 10713 10712 10709 ] final  127.50 input   66.30 | X-H torsion
[ 10763 10752 10751 10750 ] final -105.44 input  -60.55 | X-H torsion
[ 11005 11000 10999 10996 ] final  152.31 input  -57.11 | X-H torsion

> <Gold.Protein.ActiveResidues>
 VAL166  LYS551  ARG553  GLY616  TRP617  ASP618  TYR619  PRO620  LYS621  CYS622 
 ASP623  PHE694  ASN695  SER759  ASP760  ASP761  ALA762  ILE779  LEU786  VAL792 
 PHE793  MET794  SER795  GLU796  ALA797  LYS798  CYS799  TRP800  GLU811  SER814 

> <Gold.Protein.RotatedAtoms>
  152.4933  133.8561  159.7226 H   0  0  0  0  0  0  0  0  0  0  0  0  # atno 6907 bound_to 6896
  150.9085  133.7018  159.2867 H   0  0  0  0  0  0  0  0  0  0  0  0  # atno 6908 bound_to 6896
  151.4435  135.1027  159.9729 H   0  0  0  0  0  0  0  0  0  0  0  0  # atno 6909 bound_to 6896
  144.7181  140.2184  143.6319 H   0  0  0  0  0  0  0  0  0  0  0  0  # atno 7974 bound_to 7965
  155.7791  140.3482  155.5287 H   0  0  0  0  0  0  0  0  0  0  0  0  # atno 8008 bound_to 7997
  155.8747  140.0992  157.1547 H   0  0  0  0  0  0  0  0  0  0  0  0  # atno 8009 bound_to 7997
  154.4020  140.1334  156.4109 H   0  0  0  0  0  0  0  0  0  0  0  0  # atno 8010 bound_to 7997
  139.9141  143.6459  152.2569 H   0  0  0  0  0  0  0  0  0  0  0  0  # atno 10167 bound_to 10162
  157.5327  131.1098  150.8984 H   0  0  0  0  0  0  0  0  0  0  0  0  # atno 10718 bound_to 10713
  154.7947  135.4749  154.0133 H   0  0  0  0  0  0  0  0  0  0  0  0  # atno 10763 bound_to 10752
  153.1685  135.6821  153.8649 H   0  0  0  0  0  0  0  0  0  0  0  0  # atno 10764 bound_to 10752
  153.8239  135.3200  155.3390 H   0  0  0  0  0  0  0  0  0  0  0  0  # atno 10765 bound_to 10752
  140.1297  134.8810  157.2186 H   0  0  0  0  0  0  0  0  0  0  0  0  # atno 11005 bound_to 11000
  145.8524  139.2182  143.1764 LP  0  0  0  0  0  0  0  0  0  0  0  0  # atno 17320 bound_to 7965
  146.0248  140.8314  142.9905 LP  0  0  0  0  0  0  0  0  0  0  0  0  # atno 17321 bound_to 7965
  139.6917  144.7646  151.1427 LP  0  0  0  0  0  0  0  0  0  0  0  0  # atno 17342 bound_to 10162
  140.7678  143.5580  150.9131 LP  0  0  0  0  0  0  0  0  0  0  0  0  # atno 17343 bound_to 10162
  156.9560  130.5437  149.5284 LP  0  0  0  0  0  0  0  0  0  0  0  0  # atno 17370 bound_to 10713
  156.0435  130.5514  150.8826 LP  0  0  0  0  0  0  0  0  0  0  0  0  # atno 17371 bound_to 10713
  140.2859  134.3297  155.7329 LP  0  0  0  0  0  0  0  0  0  0  0  0  # atno 17394 bound_to 11000
  141.2168  133.7505  156.9431 LP  0  0  0  0  0  0  0  0  0  0  0  0  # atno 17395 bound_to 11000

$$$$
