AV-unprocessed.smi:1762|AV-procd|sdf|7117|dock10
  -GOLD-   22720 8343D 1   1.00000     0.00000
 Structure written by MMmdl.
 53 54  0  0  0  0  0  0  0  0  2 V2000
  152.4340  138.2293  154.7596 C   0  0  0  0  0  0  0  0  0  0  0  0
  151.2160  137.3496  154.4564 C   0  0  2  0  0  0  0  0  0  0  0  0
  149.8997  138.0024  154.9151 C   0  0  0  0  0  0  0  0  0  0  0  0
  148.7355  137.1060  154.6586 N   0  3  2  0  0  0  0  0  0  0  0  0
  147.4172  137.7450  154.9988 C   0  0  1  0  0  0  0  0  0  0  0  0
  147.0089  137.4327  156.4551 C   0  0  0  0  0  0  0  0  0  0  0  0
  146.0012  136.7628  156.6853 O   0  0  0  0  0  0  0  0  0  0  0  0
  147.7994  137.9230  157.4217 N   0  0  0  0  0  0  0  0  0  0  0  0
  147.5874  137.7274  158.8499 C   0  0  0  0  0  0  0  0  0  0  0  0
  147.6905  136.2388  159.2096 C   0  0  0  0  0  0  0  0  0  0  0  0
  147.5356  135.9948  160.6991 C   0  0  0  0  0  0  0  0  0  0  0  0
  147.3934  134.6848  161.2042 C   0  0  0  0  0  0  0  0  0  0  0  0
  147.2620  134.5130  162.5959 C   0  0  0  0  0  0  0  0  0  0  0  0
  147.2789  135.6514  163.4243 C   0  0  0  0  0  0  0  0  0  0  0  0
  147.4263  136.9167  162.8218 C   0  0  0  0  0  0  0  0  0  0  0  0
  147.5522  137.0925  161.4887 N   0  0  0  0  0  0  0  0  0  0  0  0
  147.3581  139.2871  154.7281 C   0  0  0  0  0  0  0  0  0  0  0  0
  146.1083  139.9793  155.3112 C   0  0  0  0  0  0  0  0  0  0  0  0
  147.5169  139.6516  153.2386 C   0  0  0  0  0  0  0  0  0  0  0  0
  148.9902  135.7893  155.3068 C   0  0  0  0  0  0  0  0  0  0  0  0
  150.3384  135.1969  154.8535 C   0  0  2  0  0  0  0  0  0  0  0  0
  150.6574  133.8782  155.5666 C   0  0  0  0  0  0  0  0  0  0  0  0
  151.3805  136.1177  155.1447 O   0  0  0  0  0  0  0  0  0  0  0  0
  152.3631  139.1895  154.2478 H   0  0  0  0  0  0  0  0  0  0  0  0
  153.3546  137.7462  154.4312 H   0  0  0  0  0  0  0  0  0  0  0  0
  152.5240  138.4254  155.8285 H   0  0  0  0  0  0  0  0  0  0  0  0
  151.1812  137.1646  153.3812 H   0  0  0  0  0  0  0  0  0  0  0  0
  149.9491  138.2340  155.9805 H   0  0  0  0  0  0  0  0  0  0  0  0
  149.7916  138.9529  154.3934 H   0  0  0  0  0  0  0  0  0  0  0  0
  146.6779  137.2803  154.3431 H   0  0  0  0  0  0  0  0  0  0  0  0
  148.6101  138.4604  157.1500 H   0  0  0  0  0  0  0  0  0  0  0  0
  148.3354  138.3015  159.3985 H   0  0  0  0  0  0  0  0  0  0  0  0
  146.6081  138.1089  159.1448 H   0  0  0  0  0  0  0  0  0  0  0  0
  146.9238  135.6728  158.6778 H   0  0  0  0  0  0  0  0  0  0  0  0
  148.6507  135.8405  158.8790 H   0  0  0  0  0  0  0  0  0  0  0  0
  147.3858  133.8300  160.5438 H   0  0  0  0  0  0  0  0  0  0  0  0
  147.1517  133.5260  163.0199 H   0  0  0  0  0  0  0  0  0  0  0  0
  147.1814  135.5575  164.4959 H   0  0  0  0  0  0  0  0  0  0  0  0
  147.4444  137.8110  163.4270 H   0  0  0  0  0  0  0  0  0  0  0  0
  148.2307  139.7406  155.1957 H   0  0  0  0  0  0  0  0  0  0  0  0
  145.1980  139.6658  154.7996 H   0  0  0  0  0  0  0  0  0  0  0  0
  146.1810  141.0620  155.2051 H   0  0  0  0  0  0  0  0  0  0  0  0
  145.9786  139.7667  156.3720 H   0  0  0  0  0  0  0  0  0  0  0  0
  146.6492  139.3577  152.6476 H   0  0  0  0  0  0  0  0  0  0  0  0
  148.3957  139.1722  152.8065 H   0  0  0  0  0  0  0  0  0  0  0  0
  147.6397  140.7279  153.1141 H   0  0  0  0  0  0  0  0  0  0  0  0
  148.9711  135.9085  156.3914 H   0  0  0  0  0  0  0  0  0  0  0  0
  148.2219  135.0642  155.0467 H   0  0  0  0  0  0  0  0  0  0  0  0
  150.3134  135.0100  153.7783 H   0  0  0  0  0  0  0  0  0  0  0  0
  149.8904  133.1289  155.3695 H   0  0  0  0  0  0  0  0  0  0  0  0
  150.7193  134.0178  156.6465 H   0  0  0  0  0  0  0  0  0  0  0  0
  151.6111  133.4725  155.2282 H   0  0  0  0  0  0  0  0  0  0  0  0
  148.7129  136.9349  153.6631 H   0  0  0  0  0  0  0  0  0  0  0  0
  1  2  1  0  0  0  0
  1 24  1  0  0  0  0
  1 25  1  0  0  0  0
  1 26  1  0  0  0  0
  2 23  1  0  0  0  0
  2  3  1  0  0  0  0
  2 27  1  0  0  0  0
  3  4  1  0  0  0  0
  3 28  1  0  0  0  0
  3 29  1  0  0  0  0
  4  5  1  0  0  0  0
  4 20  1  0  0  0  0
  4 53  1  0  0  0  0
  5  6  1  0  0  0  0
  5 17  1  0  0  0  0
  5 30  1  0  0  0  0
  6  7  2  0  0  0  0
  6  8  1  0  0  0  0
  8  9  1  0  0  0  0
  8 31  1  0  0  0  0
  9 10  1  0  0  0  0
  9 32  1  0  0  0  0
  9 33  1  0  0  0  0
 10 11  1  0  0  0  0
 10 34  1  0  0  0  0
 10 35  1  0  0  0  0
 11 16  1  0  0  0  0
 11 12  2  0  0  0  0
 12 13  1  0  0  0  0
 12 36  1  0  0  0  0
 13 14  2  0  0  0  0
 13 37  1  0  0  0  0
 14 15  1  0  0  0  0
 14 38  1  0  0  0  0
 15 16  2  0  0  0  0
 15 39  1  0  0  0  0
 17 18  1  0  0  0  0
 17 19  1  0  0  0  0
 17 40  1  0  0  0  0
 18 41  1  0  0  0  0
 18 42  1  0  0  0  0
 18 43  1  0  0  0  0
 19 44  1  0  0  0  0
 19 45  1  0  0  0  0
 19 46  1  0  0  0  0
 20 21  1  0  0  0  0
 20 47  1  0  0  0  0
 20 48  1  0  0  0  0
 21 22  1  0  0  0  0
 21 23  1  0  0  0  0
 21 49  1  0  0  0  0
 22 50  1  0  0  0  0
 22 51  1  0  0  0  0
 22 52  1  0  0  0  0
M  CHG  1   4   1
M  END
> <s_m_source_file>
AV-unprocessed.smi

> <i_m_source_file_index>
1762

> <i_lp_mmshare_version>
43012

> <i_f3d_flags>
0

> <s_epik_input>
W0NIM11bQ0BASF0xW0NIMl1OKFtDSDJdW0NASF0oTzEpW0NIM10pW0NAQEhdKFtDSF0oW0NIM10pW0NIM10pQyg9TylbTkhdW0NIMl1bQ0gyXWMyW2NIXVtjSF1bY0hdW2NIXW4y

> <s_epik_cmdline>
J2VwaWtfcHl0aG9uJywgJy1waCcsICc3LjAnLCAnLXRuJywgJzgnLCAnLW1hJywgJzIwMCcsICctbWV0YWxfYmluZGluZycsICctaW1hZScsICc8aW5maWxlLm1hZT4nLCAnLW9tYWUnLCAnPG91dGZpbGUubWFlPic=

> <r_epik_Ionization_Penalty>
2.27005

> <r_epik_Ionization_Penalty_Charging>
2.24983

> <r_epik_Ionization_Penalty_Neutral>
0.0202209

> <r_epik_State_Penalty>
2.40228

> <r_epik_Charging_Adjusted_Penalty>
4.65211

> <i_epik_Tot_Q>
1

> <i_epik_Tot_abs_Q>
1

> <r_epik_Metal_State_Penalty>
2.40762

> <b_epik_Metal_Only>
0

> <s_lp_Force_Field>
OPLS_2005

> <r_lp_Energy>
21.958

> <b_lp_Chiralities_Consistent>
1

> <s_lp_Variant>
AV-unprocessed.smi:1762-19

> <Gold.Version>
5.8.1

> <Gold.Id.Protein>
6NUR|6NUR_protein|mol2

> <Gold.PLP.Fitness>
46.7017

> <Gold.PLP.PLP>
-35.6722

> <Gold.PLP.part.hbond>
-4.0000

> <Gold.PLP.part.metal>
0.0000

> <Gold.PLP.part.buried>
-3.9212

> <Gold.PLP.part.nonpolar>
-28.5997

> <Gold.PLP.part.repulsive>
0.1636

> <Gold.PLP.ligand.clash>
0.0000

> <Gold.PLP.ligand.torsion>
0.8448

> <Gold.PLP.Chemscore.Hbond>
4.1560

> <Gold.PLP.Chemscore.CHOScore>
0.0000

> <Gold.PLP.Chemscore.Metal>
0.0000

> <Gold.Chemscore.Hbonds>
donor molecule, donor type, donor heavy atom, donor atom, acceptor molecule, acceptor atom, score
      L1  H     4    53       P1  7948  2.00
      P1  H  6931  6943       L1    16  0.30
      P1  H  6934  6947       L1    16  0.83
      P1  H 10752 10765       L1    23  0.95

> <Gold.PLP.Chemscore.Internal.Correction>
0.2512

> <Gold.Rescore>
     Score         DG    S(hbond)    S(metal)    S(lipo)     H(rot)  DE(clash)    DE(int)     intcor
     18.26     -18.86       1.97        0.00      94.38       1.66       0.15       0.44       ----

> <Gold.Chemscore.Fitness>
18.2632

> <Gold.Chemscore.DG>
-18.8595

> <Gold.Chemscore.ZeroCoef>
-5.4800

> <Gold.Chemscore.Hbond>
1.9748

> <Gold.Chemscore.Metal>
0.0000

> <Gold.Chemscore.Lipo>
94.3787

> <Gold.Chemscore.Internal_Hbond>
0.0000

> <Gold.Chemscore.DEClash>
0.1523

> <Gold.Chemscore.DEInternal>
0.4440

> <Gold.Chemscore.Rot>
1.6635

> <Gold.Chemscore.Internal.Correction>
   9.000000E+99

> <Gold.Chemscore.Hbonds>
donor molecule, donor type, donor heavy atom, donor atom, acceptor molecule, acceptor atom, score
      L1  H     4    53       P1  7948  0.99
      P1  H  6934  6947       L1    16  0.64
      P1  H 10752 10765       L1    23  0.18

> <Gold.Chemscore.Hbond.Weighted>
-6.5958

> <Gold.Chemscore.Metal.Weighted>
-0.0000

> <Gold.Chemscore.Lipo.Weighted>
-11.0423

> <Gold.Chemscore.Internal_Hbond.Weighted>
0.0000

> <Gold.Chemscore.DEClash.Weighted>
0.1523

> <Gold.Chemscore.DEInternal.Weighted>
0.4440

> <Gold.Chemscore.Rot.Weighted>
4.2586

> <Gold.Chemscore.Internal.Correction.Weighted>
   9.000000E+99

> <Gold.Protein.RotatedTorsions>
[ 6907 6896 6895 6894 ] final   -7.96 input  -60.11 | X-H torsion
[ 7974 7965 7964 7962 ] final   37.13 input  175.53 | X-H torsion
[ 8008 7997 7996 7995 ] final   28.27 input   59.86 | X-H torsion
[ 10167 10162 10161 10158 ] final  -36.20 input  -65.29 | X-H torsion
[ 10718 10713 10712 10709 ] final  121.49 input   66.30 | X-H torsion
[ 10763 10752 10751 10750 ] final  171.07 input  -60.55 | X-H torsion
[ 11005 11000 10999 10996 ] final   69.08 input  -57.11 | X-H torsion

> <Gold.Protein.ActiveResidues>
 VAL166  LYS551  ARG553  GLY616  TRP617  ASP618  TYR619  PRO620  LYS621  CYS622 
 ASP623  PHE694  ASN695  SER759  ASP760  ASP761  ALA762  ILE779  LEU786  VAL792 
 PHE793  MET794  SER795  GLU796  ALA797  LYS798  CYS799  TRP800  GLU811  SER814 

> <Gold.Protein.RotatedAtoms>
  151.4413  135.1020  159.9670 H   0  0  0  0  0  0  0  0  0  0  0  0  # atno 6907 bound_to 6896
  152.4921  133.8526  159.7220 H   0  0  0  0  0  0  0  0  0  0  0  0  # atno 6908 bound_to 6896
  150.9086  133.6967  159.2888 H   0  0  0  0  0  0  0  0  0  0  0  0  # atno 6909 bound_to 6896
  146.1160  139.5932  142.9321 H   0  0  0  0  0  0  0  0  0  0  0  0  # atno 7974 bound_to 7965
  155.0560  140.3185  155.4676 H   0  0  0  0  0  0  0  0  0  0  0  0  # atno 8008 bound_to 7997
  156.2824  140.2137  156.5631 H   0  0  0  0  0  0  0  0  0  0  0  0  # atno 8009 bound_to 7997
  154.7171  140.0493  157.0592 H   0  0  0  0  0  0  0  0  0  0  0  0  # atno 8010 bound_to 7997
  140.7148  143.3425  151.2327 H   0  0  0  0  0  0  0  0  0  0  0  0  # atno 10167 bound_to 10162
  157.5814  131.1074  150.8180 H   0  0  0  0  0  0  0  0  0  0  0  0  # atno 10718 bound_to 10713
  154.4066  135.2755  155.2063 H   0  0  0  0  0  0  0  0  0  0  0  0  # atno 10763 bound_to 10752
  154.4066  135.6032  153.5932 H   0  0  0  0  0  0  0  0  0  0  0  0  # atno 10764 bound_to 10752
  152.9831  135.5939  154.4342 H   0  0  0  0  0  0  0  0  0  0  0  0  # atno 10765 bound_to 10752
  139.9674  134.6958  156.0517 H   0  0  0  0  0  0  0  0  0  0  0  0  # atno 11005 bound_to 11000
  145.5565  141.0408  143.2249 LP  0  0  0  0  0  0  0  0  0  0  0  0  # atno 17320 bound_to 7965
  144.7553  139.7089  143.7256 LP  0  0  0  0  0  0  0  0  0  0  0  0  # atno 17321 bound_to 7965
  139.6936  143.9650  152.2871 LP  0  0  0  0  0  0  0  0  0  0  0  0  # atno 17342 bound_to 10162
  139.9320  144.6735  150.8353 LP  0  0  0  0  0  0  0  0  0  0  0  0  # atno 17343 bound_to 10162
  156.8625  130.5118  149.5302 LP  0  0  0  0  0  0  0  0  0  0  0  0  # atno 17370 bound_to 10713
  156.0860  130.5858  150.9649 LP  0  0  0  0  0  0  0  0  0  0  0  0  # atno 17371 bound_to 10713
  141.1354  133.6576  156.3579 LP  0  0  0  0  0  0  0  0  0  0  0  0  # atno 17394 bound_to 11000
  140.5367  134.6160  157.5367 LP  0  0  0  0  0  0  0  0  0  0  0  0  # atno 17395 bound_to 11000

$$$$
