AV-unprocessed.smi:1389|AV-procd|sdf|5653|dock4
  -GOLD-   22720 5273D 1   1.00000     0.00000
 Structure written by MMmdl.
 53 55  0  0  0  0  0  0  0  0  3 V2000
  154.5719  138.9467  162.8237 C   0  0  0  0  0  0  0  0  0  0  0  0
  154.0542  137.7143  162.0501 C   0  0  1  0  0  0  0  0  0  0  0  0
  154.3721  137.8702  160.5388 C   0  0  0  0  0  0  0  0  0  0  0  0
  153.3990  138.6868  159.8129 N   0  0  0  0  0  0  0  0  0  0  0  0
  153.5088  140.0047  159.5903 C   0  0  0  0  0  0  0  0  0  0  0  0
  154.4864  140.6722  159.9261 O   0  0  0  0  0  0  0  0  0  0  0  0
  152.4148  140.4939  158.9823 N   0  0  0  0  0  0  0  0  0  0  0  0
  152.1358  141.8527  158.6585 C   0  0  0  0  0  0  0  0  0  0  0  0
  152.6083  142.9119  159.4757 C   0  0  0  0  0  0  0  0  0  0  0  0
  152.2986  144.2453  159.1482 C   0  0  0  0  0  0  0  0  0  0  0  0
  151.5240  144.5018  158.0043 C   0  0  0  0  0  0  0  0  0  0  0  0
  151.1069  143.4749  157.2356 N   0  3  0  0  0  0  0  0  0  0  0  0
  151.3842  142.1714  157.4896 C   0  0  0  0  0  0  0  0  0  0  0  0
  150.8883  141.2038  156.5861 N   0  0  0  0  0  0  0  0  0  0  0  0
  149.9274  141.5803  155.5557 C   0  0  0  0  0  0  0  0  0  0  0  0
  149.9058  140.4023  154.5856 C   0  0  0  0  0  0  0  0  0  0  0  0
  151.3570  139.9321  154.6099 C   0  0  0  0  0  0  0  0  0  0  0  0
  151.8016  140.1983  156.0523 C   0  0  0  0  0  0  0  0  0  0  0  0
  154.5549  136.4240  162.6276 N   0  3  0  0  0  0  0  0  0  0  0  0
  153.8672  136.0233  163.8867 C   0  0  0  0  0  0  0  0  0  0  0  0
  154.4231  134.6979  164.4340 C   0  0  0  0  0  0  0  0  0  0  0  0
  154.3048  133.6834  163.4488 O   0  0  0  0  0  0  0  0  0  0  0  0
  155.0590  133.9985  162.2889 C   0  0  0  0  0  0  0  0  0  0  0  0
  154.5210  135.2938  161.6584 C   0  0  0  0  0  0  0  0  0  0  0  0
  154.3089  139.8716  162.3096 H   0  0  0  0  0  0  0  0  0  0  0  0
  155.6566  138.9277  162.9319 H   0  0  0  0  0  0  0  0  0  0  0  0
  154.1336  139.0202  163.8188 H   0  0  0  0  0  0  0  0  0  0  0  0
  152.9674  137.7154  162.1486 H   0  0  0  0  0  0  0  0  0  0  0  0
  155.3506  138.3314  160.4071 H   0  0  0  0  0  0  0  0  0  0  0  0
  154.4720  136.8892  160.0709 H   0  0  0  0  0  0  0  0  0  0  0  0
  152.5554  138.2230  159.5090 H   0  0  0  0  0  0  0  0  0  0  0  0
  151.6483  139.8492  158.8576 H   0  0  0  0  0  0  0  0  0  0  0  0
  153.2096  142.7206  160.3518 H   0  0  0  0  0  0  0  0  0  0  0  0
  152.6486  145.0583  159.7676 H   0  0  0  0  0  0  0  0  0  0  0  0
  151.2339  145.4901  157.6772 H   0  0  0  0  0  0  0  0  0  0  0  0
  148.9417  141.7734  155.9801 H   0  0  0  0  0  0  0  0  0  0  0  0
  150.2598  142.4781  155.0328 H   0  0  0  0  0  0  0  0  0  0  0  0
  149.2529  139.6156  154.9662 H   0  0  0  0  0  0  0  0  0  0  0  0
  149.5614  140.6782  153.5886 H   0  0  0  0  0  0  0  0  0  0  0  0
  151.4719  138.8883  154.3162 H   0  0  0  0  0  0  0  0  0  0  0  0
  151.9486  140.5403  153.9242 H   0  0  0  0  0  0  0  0  0  0  0  0
  152.8421  140.5232  156.0929 H   0  0  0  0  0  0  0  0  0  0  0  0
  151.7048  139.2882  156.6449 H   0  0  0  0  0  0  0  0  0  0  0  0
  153.9989  136.7780  164.6605 H   0  0  0  0  0  0  0  0  0  0  0  0
  152.7957  135.9301  163.7035 H   0  0  0  0  0  0  0  0  0  0  0  0
  155.4647  134.8080  164.7400 H   0  0  0  0  0  0  0  0  0  0  0  0
  153.8633  134.3948  165.3190 H   0  0  0  0  0  0  0  0  0  0  0  0
  156.1168  134.0956  162.5394 H   0  0  0  0  0  0  0  0  0  0  0  0
  154.9751  133.1742  161.5803 H   0  0  0  0  0  0  0  0  0  0  0  0
  153.4976  135.1406  161.3122 H   0  0  0  0  0  0  0  0  0  0  0  0
  155.1268  135.5135  160.7809 H   0  0  0  0  0  0  0  0  0  0  0  0
  155.5247  136.5724  162.8673 H   0  0  0  0  0  0  0  0  0  0  0  0
  150.5543  143.6945  156.4066 H   0  0  0  0  0  0  0  0  0  0  0  0
  1  2  1  0  0  0  0
  1 25  1  0  0  0  0
  1 26  1  0  0  0  0
  1 27  1  0  0  0  0
  2  3  1  0  0  0  0
  2 19  1  0  0  0  0
  2 28  1  0  0  0  0
  3  4  1  0  0  0  0
  3 29  1  0  0  0  0
  3 30  1  0  0  0  0
  4  5  1  0  0  0  0
  4 31  1  0  0  0  0
  5  6  2  0  0  0  0
  5  7  1  0  0  0  0
  7  8  1  0  0  0  0
  7 32  1  0  0  0  0
  8 13  1  0  0  0  0
  8  9  2  0  0  0  0
  9 10  1  0  0  0  0
  9 33  1  0  0  0  0
 10 11  2  0  0  0  0
 10 34  1  0  0  0  0
 11 12  1  0  0  0  0
 11 35  1  0  0  0  0
 12 13  2  0  0  0  0
 12 53  1  0  0  0  0
 13 14  1  0  0  0  0
 14 18  1  0  0  0  0
 14 15  1  0  0  0  0
 15 16  1  0  0  0  0
 15 36  1  0  0  0  0
 15 37  1  0  0  0  0
 16 17  1  0  0  0  0
 16 38  1  0  0  0  0
 16 39  1  0  0  0  0
 17 18  1  0  0  0  0
 17 40  1  0  0  0  0
 17 41  1  0  0  0  0
 18 42  1  0  0  0  0
 18 43  1  0  0  0  0
 19 24  1  0  0  0  0
 19 20  1  0  0  0  0
 19 52  1  0  0  0  0
 20 21  1  0  0  0  0
 20 44  1  0  0  0  0
 20 45  1  0  0  0  0
 21 22  1  0  0  0  0
 21 46  1  0  0  0  0
 21 47  1  0  0  0  0
 22 23  1  0  0  0  0
 23 24  1  0  0  0  0
 23 48  1  0  0  0  0
 23 49  1  0  0  0  0
 24 50  1  0  0  0  0
 24 51  1  0  0  0  0
M  CHG  1  12   1
M  CHG  1  19   1
M  END
> <s_m_source_file>
AV-unprocessed.smi

> <i_m_source_file_index>
1389

> <i_lp_mmshare_version>
43012

> <i_f3d_flags>
0

> <s_epik_input>
W0NIMl0xW0NIMl1PW0NIMl1bQ0gyXU4xW0NASF0oW0NIM10pW0NIMl1bTkhdQyg9TylbTkhdYzJbY0hdW2NIXVtjSF1uYzJOM1tDSDJdW0NIMl1bQ0gyXVtDSDJdMw==

> <s_epik_cmdline>
J2VwaWtfcHl0aG9uJywgJy1waCcsICc3LjAnLCAnLXRuJywgJzgnLCAnLW1hJywgJzIwMCcsICctbWV0YWxfYmluZGluZycsICctaW1hZScsICc8aW5maWxlLm1hZT4nLCAnLW9tYWUnLCAnPG91dGZpbGUubWFlPic=

> <r_lp_tautomer_probability>
0.999994

> <r_epik_Ionization_Penalty>
1.80872

> <r_epik_Ionization_Penalty_Charging>
1.8087

> <r_epik_Ionization_Penalty_Neutral>
2.02981e-05

> <r_epik_State_Penalty>
1.84892

> <r_epik_Charging_Adjusted_Penalty>
3.65762

> <i_epik_Tot_Q>
2

> <i_epik_Tot_abs_Q>
2

> <r_epik_Metal_State_Penalty>
1.9311

> <b_epik_Metal_Only>
0

> <s_lp_Force_Field>
OPLS_2005

> <r_lp_Energy>
68.1678

> <b_lp_Chiralities_Consistent>
1

> <s_lp_Variant>
AV-unprocessed.smi:1389-8

> <Gold.Version>
5.8.1

> <Gold.Id.Protein>
6NUR|6NUR_protein|mol2

> <Gold.PLP.Fitness>
47.6140

> <Gold.PLP.PLP>
-43.7799

> <Gold.PLP.part.hbond>
-1.0000

> <Gold.PLP.part.metal>
0.0000

> <Gold.PLP.part.buried>
-3.0439

> <Gold.PLP.part.nonpolar>
-40.3298

> <Gold.PLP.part.repulsive>
0.2628

> <Gold.PLP.ligand.clash>
0.0000

> <Gold.PLP.ligand.torsion>
1.3097

> <Gold.PLP.Chemscore.Hbond>
2.0000

> <Gold.PLP.Chemscore.CHOScore>
0.0000

> <Gold.PLP.Chemscore.Metal>
0.0000

> <Gold.Chemscore.Hbonds>
donor molecule, donor type, donor heavy atom, donor atom, acceptor molecule, acceptor atom, score
      L1  H    12    53       P1  8028  1.60

> <Gold.PLP.Chemscore.Internal.Correction>
0.4536

> <Gold.Rescore>
     Score         DG    S(hbond)    S(metal)    S(lipo)     H(rot)  DE(clash)    DE(int)     intcor
     15.71     -18.35       0.97        0.00     118.57       1.66       0.29       2.35       ----

> <Gold.Chemscore.Fitness>
15.7145

> <Gold.Chemscore.DG>
-18.3518

> <Gold.Chemscore.ZeroCoef>
-5.4800

> <Gold.Chemscore.Hbond>
0.9743

> <Gold.Chemscore.Metal>
0.0000

> <Gold.Chemscore.Lipo>
118.5658

> <Gold.Chemscore.Internal_Hbond>
0.0000

> <Gold.Chemscore.DEClash>
0.2916

> <Gold.Chemscore.DEInternal>
2.3457

> <Gold.Chemscore.Rot>
1.6620

> <Gold.Chemscore.Internal.Correction>
   9.000000E+99

> <Gold.Chemscore.Hbonds>
donor molecule, donor type, donor heavy atom, donor atom, acceptor molecule, acceptor atom, score
      L1  H    12    53       P1  8028  0.74

> <Gold.Chemscore.Hbond.Weighted>
-3.2543

> <Gold.Chemscore.Metal.Weighted>
-0.0000

> <Gold.Chemscore.Lipo.Weighted>
-13.8722

> <Gold.Chemscore.Internal_Hbond.Weighted>
0.0000

> <Gold.Chemscore.DEClash.Weighted>
0.2916

> <Gold.Chemscore.DEInternal.Weighted>
2.3457

> <Gold.Chemscore.Rot.Weighted>
4.2547

> <Gold.Chemscore.Internal.Correction.Weighted>
   9.000000E+99

> <Gold.Protein.RotatedTorsions>
[ 6907 6896 6895 6894 ] final  -70.54 input  -60.11 | X-H torsion
[ 7974 7965 7964 7962 ] final  -87.83 input  175.53 | X-H torsion
[ 8008 7997 7996 7995 ] final  165.49 input   59.86 | X-H torsion
[ 10167 10162 10161 10158 ] final  108.82 input  -65.29 | X-H torsion
[ 10718 10713 10712 10709 ] final -116.62 input   66.30 | X-H torsion
[ 10763 10752 10751 10750 ] final  -81.47 input  -60.55 | X-H torsion
[ 11005 11000 10999 10996 ] final  -13.58 input  -57.11 | X-H torsion

> <Gold.Protein.ActiveResidues>
 VAL166  LYS551  ARG553  GLY616  TRP617  ASP618  TYR619  PRO620  LYS621  CYS622 
 ASP623  PHE694  ASN695  SER759  ASP760  ASP761  ALA762  ILE779  LEU786  VAL792 
 PHE793  MET794  SER795  GLU796  ALA797  LYS798  CYS799  TRP800  GLU811  SER814 

> <Gold.Protein.RotatedAtoms>
  150.7253  134.5438  159.5760 H   0  0  0  0  0  0  0  0  0  0  0  0  # atno 6907 bound_to 6896
  152.2942  134.7683  160.0380 H   0  0  0  0  0  0  0  0  0  0  0  0  # atno 6908 bound_to 6896
  151.8286  133.3370  159.3643 H   0  0  0  0  0  0  0  0  0  0  0  0  # atno 6909 bound_to 6896
  145.4613  140.9561  143.1968 H   0  0  0  0  0  0  0  0  0  0  0  0  # atno 7974 bound_to 7965
  156.1796  140.1669  156.8298 H   0  0  0  0  0  0  0  0  0  0  0  0  # atno 8008 bound_to 7997
  154.5345  140.0749  156.8437 H   0  0  0  0  0  0  0  0  0  0  0  0  # atno 8009 bound_to 7997
  155.3338  140.3380  155.4241 H   0  0  0  0  0  0  0  0  0  0  0  0  # atno 8010 bound_to 7997
  139.6815  144.7117  151.1506 H   0  0  0  0  0  0  0  0  0  0  0  0  # atno 10167 bound_to 10162
  156.0977  130.6146  150.9060 H   0  0  0  0  0  0  0  0  0  0  0  0  # atno 10718 bound_to 10713
  154.5639  135.5625  153.7033 H   0  0  0  0  0  0  0  0  0  0  0  0  # atno 10763 bound_to 10752
  153.0027  135.6280  154.2207 H   0  0  0  0  0  0  0  0  0  0  0  0  # atno 10764 bound_to 10752
  154.2145  135.2872  155.2926 H   0  0  0  0  0  0  0  0  0  0  0  0  # atno 10765 bound_to 10752
  140.7776  133.8388  155.9263 H   0  0  0  0  0  0  0  0  0  0  0  0  # atno 11005 bound_to 11000
  144.8001  139.6157  143.7075 LP  0  0  0  0  0  0  0  0  0  0  0  0  # atno 17320 bound_to 7965
  146.2449  139.6078  142.9466 LP  0  0  0  0  0  0  0  0  0  0  0  0  # atno 17321 bound_to 7965
  140.7654  143.5691  150.9015 LP  0  0  0  0  0  0  0  0  0  0  0  0  # atno 17342 bound_to 10162
  139.9364  143.6433  152.3064 LP  0  0  0  0  0  0  0  0  0  0  0  0  # atno 17343 bound_to 10162
  157.6141  131.0934  150.8743 LP  0  0  0  0  0  0  0  0  0  0  0  0  # atno 17370 bound_to 10713
  156.8877  130.5202  149.5287 LP  0  0  0  0  0  0  0  0  0  0  0  0  # atno 17371 bound_to 10713
  140.9514  134.1774  157.4725 LP  0  0  0  0  0  0  0  0  0  0  0  0  # atno 17394 bound_to 11000
  139.8747  134.9910  156.5530 LP  0  0  0  0  0  0  0  0  0  0  0  0  # atno 17395 bound_to 11000

$$$$
