AV-unprocessed.smi:2460|AV-procd|sdf|9714|dock3
  -GOLD-   2272013353D 1   1.00000     0.00000
 Structure written by MMmdl.
 46 48  0  0  0  0  0  0  0  0  1 V2000
  147.1282  130.4290  153.3774 C   0  0  0  0  0  0  0  0  0  0  0  0
  148.4287  130.9591  154.0005 C   0  0  0  0  0  0  0  0  0  0  0  0
  149.5151  129.8702  154.0190 C   0  0  0  0  0  0  0  0  0  0  0  0
  148.9184  132.2444  153.3219 C   0  0  0  0  0  0  0  0  0  0  0  0
  149.4966  133.0449  154.4724 C   0  0  1  0  0  0  0  0  0  0  0  0
  149.5150  134.4755  154.1736 N   0  0  0  0  0  0  0  0  0  0  0  0
  149.9799  135.4298  154.9908 C   0  0  0  0  0  0  0  0  0  0  0  0
  150.4746  135.1997  156.0937 O   0  0  0  0  0  0  0  0  0  0  0  0
  149.8460  136.6467  154.4380 N   0  0  0  0  0  0  0  0  0  0  0  0
  150.1629  137.9111  155.0025 C   0  0  0  0  0  0  0  0  0  0  0  0
  150.6634  138.1172  156.3120 C   0  0  0  0  0  0  0  0  0  0  0  0
  150.9234  139.3555  156.7852 N   0  0  0  0  0  0  0  0  0  0  0  0
  150.6737  140.3820  155.9679 C   0  0  0  0  0  0  0  0  0  0  0  0
  151.0074  141.7476  156.4826 C   0  0  0  0  0  0  0  0  0  0  0  0
  151.7322  141.9237  157.8014 C   0  0  0  0  0  0  0  0  0  0  0  0
  150.2871  142.3212  157.6858 C   0  0  0  0  0  0  0  0  0  0  0  0
  150.2052  140.3093  154.7188 N   0  0  0  0  0  0  0  0  0  0  0  0
  149.9407  139.0758  154.2383 C   0  0  0  0  0  0  0  0  0  0  0  0
  148.5662  132.6585  155.6435 C   0  0  0  0  0  0  0  0  0  0  0  0
  149.2956  132.6485  156.9961 C   0  0  0  0  0  0  0  0  0  0  0  0
  147.2708  133.4929  155.7291 C   0  0  0  0  0  0  0  0  0  0  0  0
  148.1673  131.3192  155.3562 O   0  0  0  0  0  0  0  0  0  0  0  0
  147.2744  130.1571  152.3316 H   0  0  0  0  0  0  0  0  0  0  0  0
  146.3351  131.1762  153.4200 H   0  0  0  0  0  0  0  0  0  0  0  0
  146.7713  129.5439  153.9050 H   0  0  0  0  0  0  0  0  0  0  0  0
  149.7752  129.5555  153.0081 H   0  0  0  0  0  0  0  0  0  0  0  0
  149.1774  128.9881  154.5638 H   0  0  0  0  0  0  0  0  0  0  0  0
  150.4269  130.2231  154.5013 H   0  0  0  0  0  0  0  0  0  0  0  0
  149.6421  132.0615  152.5267 H   0  0  0  0  0  0  0  0  0  0  0  0
  148.0779  132.7817  152.8793 H   0  0  0  0  0  0  0  0  0  0  0  0
  150.5100  132.6841  154.6605 H   0  0  0  0  0  0  0  0  0  0  0  0
  149.1318  134.7571  153.2832 H   0  0  0  0  0  0  0  0  0  0  0  0
  149.5011  136.6693  153.4894 H   0  0  0  0  0  0  0  0  0  0  0  0
  150.8446  137.3092  157.0030 H   0  0  0  0  0  0  0  0  0  0  0  0
  151.2600  142.4254  155.6696 H   0  0  0  0  0  0  0  0  0  0  0  0
  151.9601  141.0301  158.3796 H   0  0  0  0  0  0  0  0  0  0  0  0
  152.4702  142.7206  157.8647 H   0  0  0  0  0  0  0  0  0  0  0  0
  150.0569  143.3845  157.6712 H   0  0  0  0  0  0  0  0  0  0  0  0
  149.5538  141.6922  158.1866 H   0  0  0  0  0  0  0  0  0  0  0  0
  149.5514  139.0200  153.2323 H   0  0  0  0  0  0  0  0  0  0  0  0
  149.6134  133.6507  157.2839 H   0  0  0  0  0  0  0  0  0  0  0  0
  150.1819  132.0140  156.9639 H   0  0  0  0  0  0  0  0  0  0  0  0
  148.6495  132.2679  157.7877 H   0  0  0  0  0  0  0  0  0  0  0  0
  147.4778  134.5316  155.9882 H   0  0  0  0  0  0  0  0  0  0  0  0
  146.6029  133.0955  156.4939 H   0  0  0  0  0  0  0  0  0  0  0  0
  146.7235  133.4862  154.7865 H   0  0  0  0  0  0  0  0  0  0  0  0
  1  2  1  0  0  0  0
  1 23  1  0  0  0  0
  1 24  1  0  0  0  0
  1 25  1  0  0  0  0
  2 22  1  0  0  0  0
  2  3  1  0  0  0  0
  2  4  1  0  0  0  0
  3 26  1  0  0  0  0
  3 27  1  0  0  0  0
  3 28  1  0  0  0  0
  4  5  1  0  0  0  0
  4 29  1  0  0  0  0
  4 30  1  0  0  0  0
  5  6  1  0  0  0  0
  5 19  1  0  0  0  0
  5 31  1  0  0  0  0
  6  7  1  0  0  0  0
  6 32  1  0  0  0  0
  7  8  2  0  0  0  0
  7  9  1  0  0  0  0
  9 10  1  0  0  0  0
  9 33  1  0  0  0  0
 10 18  1  0  0  0  0
 10 11  2  0  0  0  0
 11 12  1  0  0  0  0
 11 34  1  0  0  0  0
 12 13  2  0  0  0  0
 13 14  1  0  0  0  0
 13 17  1  0  0  0  0
 14 16  1  0  0  0  0
 14 15  1  0  0  0  0
 14 35  1  0  0  0  0
 15 16  1  0  0  0  0
 15 36  1  0  0  0  0
 15 37  1  0  0  0  0
 16 38  1  0  0  0  0
 16 39  1  0  0  0  0
 17 18  2  0  0  0  0
 18 40  1  0  0  0  0
 19 20  1  0  0  0  0
 19 21  1  0  0  0  0
 19 22  1  0  0  0  0
 20 41  1  0  0  0  0
 20 42  1  0  0  0  0
 20 43  1  0  0  0  0
 21 44  1  0  0  0  0
 21 45  1  0  0  0  0
 21 46  1  0  0  0  0
M  END
> <s_m_source_file>
AV-unprocessed.smi

> <i_m_source_file_index>
2460

> <i_lp_mmshare_version>
43012

> <i_f3d_flags>
0

> <s_epik_input>
W0NIM11DMShbQ0gzXSlbQ0gyXVtDQEhdKEMoTzEpKFtDSDNdKVtDSDNdKVtOSF1DKD1PKVtOSF1jMltjSF1uYyhuW2NIXTIpW0NIXTNbQ0gyXVtDSDJdMw==

> <s_epik_cmdline>
J2VwaWtfcHl0aG9uJywgJy1waCcsICc3LjAnLCAnLXRuJywgJzgnLCAnLW1hJywgJzIwMCcsICctbWV0YWxfYmluZGluZycsICctaW1hZScsICc8aW5maWxlLm1hZT4nLCAnLW9tYWUnLCAnPG91dGZpbGUubWFlPic=

> <r_lp_tautomer_probability>
1

> <r_epik_Ionization_Penalty>
2.38399e-05

> <r_epik_Ionization_Penalty_Charging>
0

> <r_epik_Ionization_Penalty_Neutral>
2.38399e-05

> <r_epik_State_Penalty>
-0

> <r_epik_Charging_Adjusted_Penalty>
0

> <i_epik_Tot_Q>
0

> <i_epik_Tot_abs_Q>
0

> <r_epik_Metal_State_Penalty>
-0

> <b_epik_Metal_Only>
0

> <s_lp_Force_Field>
OPLS_2005

> <r_lp_Energy>
18.1124

> <b_lp_Chiralities_Consistent>
1

> <s_lp_Variant>
AV-unprocessed.smi:2460-1

> <Gold.Version>
5.8.1

> <Gold.Id.Protein>
6NUR|6NUR_protein|mol2

> <Gold.PLP.Fitness>
41.2417

> <Gold.PLP.PLP>
-30.2655

> <Gold.PLP.part.hbond>
-3.1486

> <Gold.PLP.part.metal>
0.0000

> <Gold.PLP.part.buried>
-5.0951

> <Gold.PLP.part.nonpolar>
-22.8070

> <Gold.PLP.part.repulsive>
0.1888

> <Gold.PLP.ligand.clash>
0.0000

> <Gold.PLP.ligand.torsion>
0.0846

> <Gold.PLP.Chemscore.Hbond>
2.6720

> <Gold.PLP.Chemscore.CHOScore>
1.0000

> <Gold.PLP.Chemscore.Metal>
0.0000

> <Gold.Chemscore.Hbonds>
donor molecule, donor type, donor heavy atom, donor atom, acceptor molecule, acceptor atom, score
      L1  H     6    32       P1  7948  0.67
      L1  H     9    33       P1  7948  1.00
      P1  H  7989  7998       L1    17  1.00
      L1  C    18    40       P1  7957  1.00

> <Gold.PLP.Chemscore.Internal.Correction>
0.1294

> <Gold.Rescore>
     Score         DG    S(hbond)    S(metal)    S(lipo)     H(rot)  DE(clash)    DE(int)     intcor
     13.41     -15.91       1.67        0.00      67.35       1.18       0.04       2.47       ----

> <Gold.Chemscore.Fitness>
13.4060

> <Gold.Chemscore.DG>
-15.9131

> <Gold.Chemscore.ZeroCoef>
-5.4800

> <Gold.Chemscore.Hbond>
1.6676

> <Gold.Chemscore.Metal>
0.0000

> <Gold.Chemscore.Lipo>
67.3506

> <Gold.Chemscore.Internal_Hbond>
0.0000

> <Gold.Chemscore.DEClash>
0.0396

> <Gold.Chemscore.DEInternal>
2.4674

> <Gold.Chemscore.Rot>
1.1785

> <Gold.Chemscore.Internal.Correction>
   9.000000E+99

> <Gold.Chemscore.Hbonds>
donor molecule, donor type, donor heavy atom, donor atom, acceptor molecule, acceptor atom, score
      L1  H     6    32       P1  7948  0.06
      L1  H     9    33       P1  7948  0.78
      P1  H  7989  7998       L1    17  0.20

> <Gold.Chemscore.Hbond.Weighted>
-5.5699

> <Gold.Chemscore.Metal.Weighted>
-0.0000

> <Gold.Chemscore.Lipo.Weighted>
-7.8800

> <Gold.Chemscore.Internal_Hbond.Weighted>
0.0000

> <Gold.Chemscore.DEClash.Weighted>
0.0396

> <Gold.Chemscore.DEInternal.Weighted>
2.4674

> <Gold.Chemscore.Rot.Weighted>
3.0169

> <Gold.Chemscore.Internal.Correction.Weighted>
   9.000000E+99

> <Gold.Protein.RotatedTorsions>
[ 6907 6896 6895 6894 ] final    6.66 input  -60.11 | X-H torsion
[ 7974 7965 7964 7962 ] final  -88.17 input  175.53 | X-H torsion
[ 8008 7997 7996 7995 ] final -106.11 input   59.86 | X-H torsion
[ 10167 10162 10161 10158 ] final  -82.93 input  -65.29 | X-H torsion
[ 10718 10713 10712 10709 ] final   54.62 input   66.30 | X-H torsion
[ 10763 10752 10751 10750 ] final  164.24 input  -60.55 | X-H torsion
[ 11005 11000 10999 10996 ] final  146.63 input  -57.11 | X-H torsion

> <Gold.Protein.ActiveResidues>
 VAL166  LYS551  ARG553  GLY616  TRP617  ASP618  TYR619  PRO620  LYS621  CYS622 
 ASP623  PHE694  ASN695  SER759  ASP760  ASP761  ALA762  ILE779  LEU786  VAL792 
 PHE793  MET794  SER795  GLU796  ALA797  LYS798  CYS799  TRP800  GLU811  SER814 

> <Gold.Protein.RotatedAtoms>
  151.6774  135.0967  160.0209 H   0  0  0  0  0  0  0  0  0  0  0  0  # atno 6907 bound_to 6896
  152.3856  133.6602  159.6204 H   0  0  0  0  0  0  0  0  0  0  0  0  # atno 6908 bound_to 6896
  150.7782  133.8958  159.3368 H   0  0  0  0  0  0  0  0  0  0  0  0  # atno 6909 bound_to 6896
  145.4567  140.9561  143.1992 H   0  0  0  0  0  0  0  0  0  0  0  0  # atno 7974 bound_to 7965
  154.9097  140.0410  157.1939 H   0  0  0  0  0  0  0  0  0  0  0  0  # atno 8008 bound_to 7997
  154.8360  140.2907  155.5669 H   0  0  0  0  0  0  0  0  0  0  0  0  # atno 8009 bound_to 7997
  156.2989  140.2491  156.3294 H   0  0  0  0  0  0  0  0  0  0  0  0  # atno 8010 bound_to 7997
  140.4274  143.2561  151.8807 H   0  0  0  0  0  0  0  0  0  0  0  0  # atno 10167 bound_to 10162
  157.5273  130.8606  149.8639 H   0  0  0  0  0  0  0  0  0  0  0  0  # atno 10718 bound_to 10713
  154.3058  135.2758  155.2589 H   0  0  0  0  0  0  0  0  0  0  0  0  # atno 10763 bound_to 10752
  154.5006  135.5809  153.6531 H   0  0  0  0  0  0  0  0  0  0  0  0  # atno 10764 bound_to 10752
  152.9894  135.6157  154.3232 H   0  0  0  0  0  0  0  0  0  0  0  0  # atno 10765 bound_to 10752
  140.0809  134.9097  157.1499 H   0  0  0  0  0  0  0  0  0  0  0  0  # atno 11005 bound_to 11000
  144.8028  139.6109  143.7064 LP  0  0  0  0  0  0  0  0  0  0  0  0  # atno 17320 bound_to 7965
  146.2474  139.6126  142.9450 LP  0  0  0  0  0  0  0  0  0  0  0  0  # atno 17321 bound_to 7965
  139.4784  144.5372  151.8581 LP  0  0  0  0  0  0  0  0  0  0  0  0  # atno 17342 bound_to 10162
  140.4466  144.1913  150.5894 LP  0  0  0  0  0  0  0  0  0  0  0  0  # atno 17343 bound_to 10162
  156.0396  130.3742  150.1469 LP  0  0  0  0  0  0  0  0  0  0  0  0  # atno 17370 bound_to 10713
  156.9655  130.9818  151.3470 LP  0  0  0  0  0  0  0  0  0  0  0  0  # atno 17371 bound_to 10713
  140.3489  134.2621  155.7201 LP  0  0  0  0  0  0  0  0  0  0  0  0  # atno 17394 bound_to 11000
  141.2046  133.7881  157.0277 LP  0  0  0  0  0  0  0  0  0  0  0  0  # atno 17395 bound_to 11000

$$$$
