AV-unprocessed.smi:2106|AV-procd|sdf|8595|dock1
  -GOLD-   2272011333D 1   1.00000     0.00000
 Structure written by MMmdl.
 47 48  0  0  0  0  0  0  0  0  1 V2000
  154.4196  140.9392  160.5986 C   0  0  0  0  0  0  0  0  0  0  0  0
  153.4001  141.9139  160.0877 C   0  0  0  0  0  0  0  0  0  0  0  0
  152.8850  143.0712  160.7357 C   0  0  0  0  0  0  0  0  0  0  0  0
  151.9912  143.5895  159.8414 C   0  0  0  0  0  0  0  0  0  0  0  0
  151.1236  144.8009  159.9419 C   0  0  0  0  0  0  0  0  0  0  0  0
  152.0036  142.7586  158.7344 N   0  0  0  0  0  0  0  0  0  0  0  0
  151.2314  142.8520  157.5057 C   0  0  0  0  0  0  0  0  0  0  0  0
  150.2320  141.7003  157.3951 C   0  0  0  0  0  0  0  0  0  0  0  0
  150.6311  140.5364  157.4254 O   0  0  0  0  0  0  0  0  0  0  0  0
  148.9401  142.0407  157.2675 N   0  0  0  0  0  0  0  0  0  0  0  0
  147.8232  141.1067  157.1714 C   0  0  0  0  0  0  0  0  0  0  0  0
  147.0574  141.2710  155.8436 C   0  0  0  0  0  0  0  0  0  0  0  0
  145.9899  142.2713  155.8489 N   0  0  0  0  0  0  0  0  0  0  0  0
  145.8094  142.8600  154.5289 C   0  0  0  0  0  0  0  0  0  0  0  0
  144.7305  143.9581  154.5346 C   0  0  1  0  0  0  0  0  0  0  0  0
  144.4735  144.5216  153.1331 C   0  0  0  0  0  0  0  0  0  0  0  0
  143.5051  143.4176  155.0259 O   0  0  0  0  0  0  0  0  0  0  0  0
  143.5873  142.7826  156.3030 C   0  0  2  0  0  0  0  0  0  0  0  0
  143.7143  143.8067  157.4438 C   0  0  0  0  0  0  0  0  0  0  0  0
  144.7118  141.7283  156.3035 C   0  0  0  0  0  0  0  0  0  0  0  0
  152.8698  141.7330  158.8894 N   0  0  0  0  0  0  0  0  0  0  0  0
  154.7862  141.2323  161.5827 H   0  0  0  0  0  0  0  0  0  0  0  0
  155.2780  140.8809  159.9292 H   0  0  0  0  0  0  0  0  0  0  0  0
  153.9954  139.9387  160.6874 H   0  0  0  0  0  0  0  0  0  0  0  0
  153.1329  143.4611  161.7118 H   0  0  0  0  0  0  0  0  0  0  0  0
  151.3042  145.3324  160.8764 H   0  0  0  0  0  0  0  0  0  0  0  0
  150.0690  144.5277  159.9109 H   0  0  0  0  0  0  0  0  0  0  0  0
  151.3210  145.4919  159.1222 H   0  0  0  0  0  0  0  0  0  0  0  0
  150.7011  143.8044  157.4834 H   0  0  0  0  0  0  0  0  0  0  0  0
  151.9102  142.8507  156.6511 H   0  0  0  0  0  0  0  0  0  0  0  0
  148.7132  143.0241  157.2444 H   0  0  0  0  0  0  0  0  0  0  0  0
  148.2424  140.1014  157.2121 H   0  0  0  0  0  0  0  0  0  0  0  0
  147.1632  141.1833  158.0361 H   0  0  0  0  0  0  0  0  0  0  0  0
  147.7847  141.5296  155.0726 H   0  0  0  0  0  0  0  0  0  0  0  0
  146.6456  140.3051  155.5473 H   0  0  0  0  0  0  0  0  0  0  0  0
  146.7518  143.2873  154.1842 H   0  0  0  0  0  0  0  0  0  0  0  0
  145.5391  142.0831  153.8119 H   0  0  0  0  0  0  0  0  0  0  0  0
  145.0488  144.7773  155.1800 H   0  0  0  0  0  0  0  0  0  0  0  0
  145.3797  144.9593  152.7133 H   0  0  0  0  0  0  0  0  0  0  0  0
  143.7107  145.3000  153.1612 H   0  0  0  0  0  0  0  0  0  0  0  0
  144.1303  143.7431  152.4514 H   0  0  0  0  0  0  0  0  0  0  0  0
  142.6405  142.2617  156.4473 H   0  0  0  0  0  0  0  0  0  0  0  0
  143.6630  143.3125  158.4141 H   0  0  0  0  0  0  0  0  0  0  0  0
  142.9069  144.5377  157.4030 H   0  0  0  0  0  0  0  0  0  0  0  0
  144.6591  144.3483  157.4058 H   0  0  0  0  0  0  0  0  0  0  0  0
  144.4194  140.9013  155.6544 H   0  0  0  0  0  0  0  0  0  0  0  0
  144.8041  141.3121  157.3056 H   0  0  0  0  0  0  0  0  0  0  0  0
  1  2  1  0  0  0  0
  1 22  1  0  0  0  0
  1 23  1  0  0  0  0
  1 24  1  0  0  0  0
  2 21  2  0  0  0  0
  2  3  1  0  0  0  0
  3  4  2  0  0  0  0
  3 25  1  0  0  0  0
  4  5  1  0  0  0  0
  4  6  1  0  0  0  0
  5 26  1  0  0  0  0
  5 27  1  0  0  0  0
  5 28  1  0  0  0  0
  6  7  1  0  0  0  0
  6 21  1  0  0  0  0
  7  8  1  0  0  0  0
  7 29  1  0  0  0  0
  7 30  1  0  0  0  0
  8  9  2  0  0  0  0
  8 10  1  0  0  0  0
 10 11  1  0  0  0  0
 10 31  1  0  0  0  0
 11 12  1  0  0  0  0
 11 32  1  0  0  0  0
 11 33  1  0  0  0  0
 12 13  1  0  0  0  0
 12 34  1  0  0  0  0
 12 35  1  0  0  0  0
 13 20  1  0  0  0  0
 13 14  1  0  0  0  0
 14 15  1  0  0  0  0
 14 36  1  0  0  0  0
 14 37  1  0  0  0  0
 15 16  1  0  0  0  0
 15 17  1  0  0  0  0
 15 38  1  0  0  0  0
 16 39  1  0  0  0  0
 16 40  1  0  0  0  0
 16 41  1  0  0  0  0
 17 18  1  0  0  0  0
 18 19  1  0  0  0  0
 18 20  1  0  0  0  0
 18 42  1  0  0  0  0
 19 43  1  0  0  0  0
 19 44  1  0  0  0  0
 19 45  1  0  0  0  0
 20 46  1  0  0  0  0
 20 47  1  0  0  0  0
M  END
> <s_m_source_file>
AV-unprocessed.smi

> <i_m_source_file_index>
2106

> <i_lp_mmshare_version>
43012

> <i_f3d_flags>
0

> <s_epik_input>
W0NIM11jMVtjSF1jKFtDSDNdKW4objEpW0NIMl1DKD1PKVtOSF1bQ0gyXVtDSDJdTjJbQ0gyXVtDQEBIXShbQ0gzXSlPW0NAQEhdKFtDSDNdKVtDSDJdMg==

> <s_epik_cmdline>
J2VwaWtfcHl0aG9uJywgJy1waCcsICc3LjAnLCAnLXRuJywgJzgnLCAnLW1hJywgJzIwMCcsICctbWV0YWxfYmluZGluZycsICctaW1hZScsICc8aW5maWxlLm1hZT4nLCAnLW9tYWUnLCAnPG91dGZpbGUubWFlPic=

> <r_lp_tautomer_probability>
1

> <r_epik_Ionization_Penalty>
0.197284

> <r_epik_Ionization_Penalty_Charging>
0

> <r_epik_Ionization_Penalty_Neutral>
0.197284

> <r_epik_State_Penalty>
0.186684

> <r_epik_Charging_Adjusted_Penalty>
0.186684

> <i_epik_Tot_Q>
0

> <i_epik_Tot_abs_Q>
0

> <r_epik_Metal_State_Penalty>
0.186634

> <b_epik_Metal_Only>
0

> <s_lp_Force_Field>
OPLS_2005

> <r_lp_Energy>
25.1516

> <b_lp_Chiralities_Consistent>
1

> <s_lp_Variant>
AV-unprocessed.smi:2106-3

> <Gold.Version>
5.8.1

> <Gold.Id.Protein>
6NUR|6NUR_protein|mol2

> <Gold.PLP.Fitness>
45.0584

> <Gold.PLP.PLP>
-43.1616

> <Gold.PLP.part.hbond>
-1.0000

> <Gold.PLP.part.metal>
0.0000

> <Gold.PLP.part.buried>
-8.2079

> <Gold.PLP.part.nonpolar>
-35.3842

> <Gold.PLP.part.repulsive>
0.7777

> <Gold.PLP.ligand.clash>
0.0000

> <Gold.PLP.ligand.torsion>
0.5688

> <Gold.PLP.Chemscore.Hbond>
0.9920

> <Gold.PLP.Chemscore.CHOScore>
0.0000

> <Gold.PLP.Chemscore.Metal>
0.0000

> <Gold.Chemscore.Hbonds>
donor molecule, donor type, donor heavy atom, donor atom, acceptor molecule, acceptor atom, score
      L1  H    10    31       P1  8028  0.21

> <Gold.PLP.Chemscore.Internal.Correction>
0.0584

> <Gold.Rescore>
     Score         DG    S(hbond)    S(metal)    S(lipo)     H(rot)  DE(clash)    DE(int)     intcor
     14.01     -15.72       0.74        0.00     102.85       1.67       0.19       1.51       ----

> <Gold.Chemscore.Fitness>
14.0130

> <Gold.Chemscore.DG>
-15.7195

> <Gold.Chemscore.ZeroCoef>
-5.4800

> <Gold.Chemscore.Hbond>
0.7394

> <Gold.Chemscore.Metal>
0.0000

> <Gold.Chemscore.Lipo>
102.8533

> <Gold.Chemscore.Internal_Hbond>
0.0000

> <Gold.Chemscore.DEClash>
0.1946

> <Gold.Chemscore.DEInternal>
1.5120

> <Gold.Chemscore.Rot>
1.6657

> <Gold.Chemscore.Internal.Correction>
   9.000000E+99

> <Gold.Chemscore.Hbonds>
donor molecule, donor type, donor heavy atom, donor atom, acceptor molecule, acceptor atom, score
      L1  H    10    31       P1  8028  0.11

> <Gold.Chemscore.Hbond.Weighted>
-2.4698

> <Gold.Chemscore.Metal.Weighted>
-0.0000

> <Gold.Chemscore.Lipo.Weighted>
-12.0338

> <Gold.Chemscore.Internal_Hbond.Weighted>
0.0000

> <Gold.Chemscore.DEClash.Weighted>
0.1946

> <Gold.Chemscore.DEInternal.Weighted>
1.5120

> <Gold.Chemscore.Rot.Weighted>
4.2641

> <Gold.Chemscore.Internal.Correction.Weighted>
   9.000000E+99

> <Gold.Protein.RotatedTorsions>
[ 6907 6896 6895 6894 ] final  166.17 input  -60.11 | X-H torsion
[ 7974 7965 7964 7962 ] final  -16.24 input  175.53 | X-H torsion
[ 8008 7997 7996 7995 ] final   85.29 input   59.86 | X-H torsion
[ 10167 10162 10161 10158 ] final  151.04 input  -65.29 | X-H torsion
[ 10718 10713 10712 10709 ] final  -30.12 input   66.30 | X-H torsion
[ 10763 10752 10751 10750 ] final  -13.09 input  -60.55 | X-H torsion
[ 11005 11000 10999 10996 ] final  -10.75 input  -57.11 | X-H torsion

> <Gold.Protein.ActiveResidues>
 VAL166  LYS551  ARG553  GLY616  TRP617  ASP618  TYR619  PRO620  LYS621  CYS622 
 ASP623  PHE694  ASN695  SER759  ASP760  ASP761  ALA762  ILE779  LEU786  VAL792 
 PHE793  MET794  SER795  GLU796  ALA797  LYS798  CYS799  TRP800  GLU811  SER814 

> <Gold.Protein.RotatedAtoms>
  151.8831  133.3499  159.3772 H   0  0  0  0  0  0  0  0  0  0  0  0  # atno 6907 bound_to 6896
  150.7122  134.4999  159.5565 H   0  0  0  0  0  0  0  0  0  0  0  0  # atno 6908 bound_to 6896
  152.2554  134.8090  160.0490 H   0  0  0  0  0  0  0  0  0  0  0  0  # atno 6909 bound_to 6896
  146.1996  140.3608  142.8428 H   0  0  0  0  0  0  0  0  0  0  0  0  # atno 7974 bound_to 7965
  155.9481  140.3403  155.6384 H   0  0  0  0  0  0  0  0  0  0  0  0  # atno 8008 bound_to 7997
  155.6955  140.0754  157.2450 H   0  0  0  0  0  0  0  0  0  0  0  0  # atno 8009 bound_to 7997
  154.4116  140.1649  156.2120 H   0  0  0  0  0  0  0  0  0  0  0  0  # atno 8010 bound_to 7997
  139.4844  144.5473  151.7462 H   0  0  0  0  0  0  0  0  0  0  0  0  # atno 10167 bound_to 10162
  156.4038  130.4395  149.7302 H   0  0  0  0  0  0  0  0  0  0  0  0  # atno 10718 bound_to 10713
  153.5081  135.7016  153.5795 H   0  0  0  0  0  0  0  0  0  0  0  0  # atno 10763 bound_to 10752
  153.3898  135.3899  155.1915 H   0  0  0  0  0  0  0  0  0  0  0  0  # atno 10764 bound_to 10752
  154.8705  135.3855  154.4558 H   0  0  0  0  0  0  0  0  0  0  0  0  # atno 10765 bound_to 10752
  140.7480  133.8615  155.9022 H   0  0  0  0  0  0  0  0  0  0  0  0  # atno 11005 bound_to 11000
  144.8655  140.7200  143.6080 LP  0  0  0  0  0  0  0  0  0  0  0  0  # atno 17320 bound_to 7965
  145.3527  139.1702  143.4426 LP  0  0  0  0  0  0  0  0  0  0  0  0  # atno 17321 bound_to 7965
  140.5022  144.1152  150.5974 LP  0  0  0  0  0  0  0  0  0  0  0  0  # atno 17342 bound_to 10162
  140.4049  143.2685  151.9903 LP  0  0  0  0  0  0  0  0  0  0  0  0  # atno 17343 bound_to 10162
  156.4308  130.7814  151.2834 LP  0  0  0  0  0  0  0  0  0  0  0  0  # atno 17370 bound_to 10713
  157.7505  131.0154  150.3505 LP  0  0  0  0  0  0  0  0  0  0  0  0  # atno 17371 bound_to 10713
  140.9776  134.1448  157.4522 LP  0  0  0  0  0  0  0  0  0  0  0  0  # atno 17394 bound_to 11000
  139.8793  135.0000  156.5985 LP  0  0  0  0  0  0  0  0  0  0  0  0  # atno 17395 bound_to 11000

$$$$
