AV-unprocessed.smi:1605|AV-procd|sdf|6456|dock10
  -GOLD-   22720 7113D 1   1.00000     0.00000
 Structure written by MMmdl.
 52 54  0  0  0  0  0  0  0  0  3 V2000
  144.8884  132.3182  149.7581 C   0  0  0  0  0  0  0  0  0  0  0  0
  145.9225  132.4511  150.7212 O   0  0  0  0  0  0  0  0  0  0  0  0
  145.6724  133.4314  151.7195 C   0  0  2  0  0  0  0  0  0  0  0  0
  145.5604  134.7921  151.0165 C   0  0  0  0  0  0  0  0  0  0  0  0
  145.3958  135.9341  152.0327 C   0  0  0  0  0  0  0  0  0  0  0  0
  146.5187  135.9495  153.0053 N   0  3  1  0  0  0  0  0  0  0  0  0
  146.4669  137.1293  153.9077 C   0  0  0  0  0  0  0  0  0  0  0  0
  145.8985  138.3898  153.2185 C   0  0  1  0  0  0  0  0  0  0  0  0
  145.1918  139.1547  154.1756 O   0  0  0  0  0  0  0  0  0  0  0  0
  146.9872  139.2696  152.5618 C   0  0  0  0  0  0  0  0  0  0  0  0
  147.6441  140.2136  153.4816 N   0  0  0  0  0  0  0  0  0  0  0  0
  147.2909  141.4813  153.8308 C   0  0  0  0  0  0  0  0  0  0  0  0
  148.2163  141.9367  154.7198 N   0  3  0  0  0  0  0  0  0  0  0  0
  149.1695  140.9430  154.9510 C   0  0  0  0  0  0  0  0  0  0  0  0
  150.2944  140.9335  155.7674 C   0  0  0  0  0  0  0  0  0  0  0  0
  151.0697  139.7520  155.7840 C   0  0  0  0  0  0  0  0  0  0  0  0
  152.3104  139.7102  156.6598 C   0  0  0  0  0  0  0  0  0  0  0  0
  150.7014  138.6270  155.0018 C   0  0  0  0  0  0  0  0  0  0  0  0
  151.5388  137.3597  155.0286 C   0  0  0  0  0  0  0  0  0  0  0  0
  149.5526  138.6565  154.1798 C   0  0  0  0  0  0  0  0  0  0  0  0
  148.8040  139.8313  154.1673 C   0  0  0  0  0  0  0  0  0  0  0  0
  146.6241  134.6548  153.7299 C   0  0  0  0  0  0  0  0  0  0  0  0
  146.8153  133.4850  152.7502 C   0  0  0  0  0  0  0  0  0  0  0  0
  145.1814  131.5780  149.0136 H   0  0  0  0  0  0  0  0  0  0  0  0
  144.7083  133.2601  149.2387 H   0  0  0  0  0  0  0  0  0  0  0  0
  143.9546  131.9810  150.2072 H   0  0  0  0  0  0  0  0  0  0  0  0
  144.7259  133.2208  152.2211 H   0  0  0  0  0  0  0  0  0  0  0  0
  146.4509  134.9697  150.4119 H   0  0  0  0  0  0  0  0  0  0  0  0
  144.7157  134.7857  150.3267 H   0  0  0  0  0  0  0  0  0  0  0  0
  145.3581  136.8827  151.4957 H   0  0  0  0  0  0  0  0  0  0  0  0
  144.4495  135.8328  152.5666 H   0  0  0  0  0  0  0  0  0  0  0  0
  145.8463  136.8965  154.7743 H   0  0  0  0  0  0  0  0  0  0  0  0
  147.4678  137.3251  154.2958 H   0  0  0  0  0  0  0  0  0  0  0  0
  145.1932  138.1116  152.4364 H   0  0  0  0  0  0  0  0  0  0  0  0
  144.7657  139.8769  153.7398 H   0  0  0  0  0  0  0  0  0  0  0  0
  147.7702  138.6311  152.1507 H   0  0  0  0  0  0  0  0  0  0  0  0
  146.5821  139.8252  151.7153 H   0  0  0  0  0  0  0  0  0  0  0  0
  146.4335  142.0290  153.4672 H   0  0  0  0  0  0  0  0  0  0  0  0
  150.5666  141.7924  156.3634 H   0  0  0  0  0  0  0  0  0  0  0  0
  152.2189  138.9305  157.4160 H   0  0  0  0  0  0  0  0  0  0  0  0
  152.4678  140.6583  157.1747 H   0  0  0  0  0  0  0  0  0  0  0  0
  153.1975  139.5077  156.0589 H   0  0  0  0  0  0  0  0  0  0  0  0
  151.1127  136.5868  154.3881 H   0  0  0  0  0  0  0  0  0  0  0  0
  151.5957  136.9587  156.0407 H   0  0  0  0  0  0  0  0  0  0  0  0
  152.5510  137.5626  154.6776 H   0  0  0  0  0  0  0  0  0  0  0  0
  149.2764  137.8004  153.5823 H   0  0  0  0  0  0  0  0  0  0  0  0
  147.4636  134.6709  154.4234 H   0  0  0  0  0  0  0  0  0  0  0  0
  145.7258  134.4972  154.3291 H   0  0  0  0  0  0  0  0  0  0  0  0
  146.8713  132.5529  153.3119 H   0  0  0  0  0  0  0  0  0  0  0  0
  147.7707  133.5936  152.2346 H   0  0  0  0  0  0  0  0  0  0  0  0
  147.3596  136.0501  152.4550 H   0  0  0  0  0  0  0  0  0  0  0  0
  148.1942  142.8567  155.1411 H   0  0  0  0  0  0  0  0  0  0  0  0
  1  2  1  0  0  0  0
  1 24  1  0  0  0  0
  1 25  1  0  0  0  0
  1 26  1  0  0  0  0
  2  3  1  0  0  0  0
  3 23  1  0  0  0  0
  3  4  1  0  0  0  0
  3 27  1  0  0  0  0
  4  5  1  0  0  0  0
  4 28  1  0  0  0  0
  4 29  1  0  0  0  0
  5  6  1  0  0  0  0
  5 30  1  0  0  0  0
  5 31  1  0  0  0  0
  6  7  1  0  0  0  0
  6 22  1  0  0  0  0
  6 51  1  0  0  0  0
  7  8  1  0  0  0  0
  7 32  1  0  0  0  0
  7 33  1  0  0  0  0
  8  9  1  0  0  0  0
  8 10  1  0  0  0  0
  8 34  1  0  0  0  0
  9 35  1  0  0  0  0
 10 11  1  0  0  0  0
 10 36  1  0  0  0  0
 10 37  1  0  0  0  0
 11 21  1  0  0  0  0
 11 12  1  0  0  0  0
 12 13  2  0  0  0  0
 12 38  1  0  0  0  0
 13 14  1  0  0  0  0
 13 52  1  0  0  0  0
 14 21  2  0  0  0  0
 14 15  1  0  0  0  0
 15 16  2  0  0  0  0
 15 39  1  0  0  0  0
 16 17  1  0  0  0  0
 16 18  1  0  0  0  0
 17 40  1  0  0  0  0
 17 41  1  0  0  0  0
 17 42  1  0  0  0  0
 18 19  1  0  0  0  0
 18 20  2  0  0  0  0
 19 43  1  0  0  0  0
 19 44  1  0  0  0  0
 19 45  1  0  0  0  0
 20 21  1  0  0  0  0
 20 46  1  0  0  0  0
 22 23  1  0  0  0  0
 22 47  1  0  0  0  0
 22 48  1  0  0  0  0
 23 49  1  0  0  0  0
 23 50  1  0  0  0  0
M  CHG  1   6   1
M  CHG  1  13   1
M  END
> <s_m_source_file>
AV-unprocessed.smi

> <i_m_source_file_index>
1605

> <i_lp_mmshare_version>
43012

> <i_f3d_flags>
0

> <s_epik_input>
W0NIM11PW0NIXTFbQ0gyXVtDSDJdTihbQ0gyXVtDSDJdMSlbQ0gyXVtDQEhdKFtPSF0pW0NIMl1uKFtjSF1uMiljKGMyMylbY0hdYyhbQ0gzXSljKFtjSF0zKVtDSDNd

> <s_epik_cmdline>
J2VwaWtfcHl0aG9uJywgJy1waCcsICc3LjAnLCAnLXRuJywgJzgnLCAnLW1hJywgJzIwMCcsICctbWV0YWxfYmluZGluZycsICctaW1hZScsICc8aW5maWxlLm1hZT4nLCAnLW9tYWUnLCAnPG91dGZpbGUubWFlPic=

> <r_epik_Ionization_Penalty>
1.19848

> <r_epik_Ionization_Penalty_Charging>
1.19848

> <r_epik_Ionization_Penalty_Neutral>
1.67134e-06

> <r_epik_State_Penalty>
1.2782

> <r_epik_Charging_Adjusted_Penalty>
2.47668

> <i_epik_Tot_Q>
2

> <i_epik_Tot_abs_Q>
2

> <r_epik_Metal_State_Penalty>
5.29544

> <b_epik_Metal_Only>
0

> <s_lp_Force_Field>
OPLS_2005

> <r_lp_Energy>
33.6993

> <b_lp_Chiralities_Consistent>
1

> <s_lp_Variant>
AV-unprocessed.smi:1605-6

> <Gold.Version>
5.8.1

> <Gold.Id.Protein>
6NUR|6NUR_protein|mol2

> <Gold.PLP.Fitness>
54.3495

> <Gold.PLP.PLP>
-41.9044

> <Gold.PLP.part.hbond>
-3.0000

> <Gold.PLP.part.metal>
0.0000

> <Gold.PLP.part.buried>
0.1107

> <Gold.PLP.part.nonpolar>
-38.7859

> <Gold.PLP.part.repulsive>
0.3336

> <Gold.PLP.ligand.clash>
0.0000

> <Gold.PLP.ligand.torsion>
1.2768

> <Gold.PLP.Chemscore.Hbond>
4.9840

> <Gold.PLP.Chemscore.CHOScore>
0.0000

> <Gold.PLP.Chemscore.Metal>
0.0000

> <Gold.Chemscore.Hbonds>
donor molecule, donor type, donor heavy atom, donor atom, acceptor molecule, acceptor atom, score
      L1  H     6    51       P1  7948  2.00
      L1  H     9    35       P1 10175  0.99
      L1  H    13    52       P1  8028  1.98

> <Gold.PLP.Chemscore.Internal.Correction>
0.0467

> <Gold.Rescore>
     Score         DG    S(hbond)    S(metal)    S(lipo)     H(rot)  DE(clash)    DE(int)     intcor
     19.38     -21.06       2.91        0.00     100.17       2.28       0.36       1.32       ----

> <Gold.Chemscore.Fitness>
19.3783

> <Gold.Chemscore.DG>
-21.0610

> <Gold.Chemscore.ZeroCoef>
-5.4800

> <Gold.Chemscore.Hbond>
2.9064

> <Gold.Chemscore.Metal>
0.0000

> <Gold.Chemscore.Lipo>
100.1739

> <Gold.Chemscore.Internal_Hbond>
0.0000

> <Gold.Chemscore.DEClash>
0.3580

> <Gold.Chemscore.DEInternal>
1.3247

> <Gold.Chemscore.Rot>
2.2839

> <Gold.Chemscore.Internal.Correction>
   9.000000E+99

> <Gold.Chemscore.Hbonds>
donor molecule, donor type, donor heavy atom, donor atom, acceptor molecule, acceptor atom, score
      L1  H     6    51       P1  7948  1.00
      L1  H     9    35       P1 10175  0.94
      L1  H    13    52       P1  8028  0.90

> <Gold.Chemscore.Hbond.Weighted>
-9.7075

> <Gold.Chemscore.Metal.Weighted>
-0.0000

> <Gold.Chemscore.Lipo.Weighted>
-11.7204

> <Gold.Chemscore.Internal_Hbond.Weighted>
0.0000

> <Gold.Chemscore.DEClash.Weighted>
0.3580

> <Gold.Chemscore.DEInternal.Weighted>
1.3247

> <Gold.Chemscore.Rot.Weighted>
5.8469

> <Gold.Chemscore.Internal.Correction.Weighted>
   9.000000E+99

> <Gold.Protein.RotatedTorsions>
[ 6907 6896 6895 6894 ] final  166.31 input  -60.11 | X-H torsion
[ 7974 7965 7964 7962 ] final  -16.67 input  175.53 | X-H torsion
[ 8008 7997 7996 7995 ] final -111.72 input   59.86 | X-H torsion
[ 10167 10162 10161 10158 ] final  -16.04 input  -65.29 | X-H torsion
[ 10718 10713 10712 10709 ] final  -81.74 input   66.30 | X-H torsion
[ 10763 10752 10751 10750 ] final  170.18 input  -60.55 | X-H torsion
[ 11005 11000 10999 10996 ] final  -71.24 input  -57.11 | X-H torsion

> <Gold.Protein.ActiveResidues>
 VAL166  LYS551  ARG553  GLY616  TRP617  ASP618  TYR619  PRO620  LYS621  CYS622 
 ASP623  PHE694  ASN695  SER759  ASP760  ASP761  ALA762  ILE779  LEU786  VAL792 
 PHE793  MET794  SER795  GLU796  ALA797  LYS798  CYS799  TRP800  GLU811  SER814 

> <Gold.Protein.RotatedAtoms>
  151.8809  133.3495  159.3765 H   0  0  0  0  0  0  0  0  0  0  0  0  # atno 6907 bound_to 6896
  150.7128  134.5020  159.5575 H   0  0  0  0  0  0  0  0  0  0  0  0  # atno 6908 bound_to 6896
  152.2571  134.8073  160.0487 H   0  0  0  0  0  0  0  0  0  0  0  0  # atno 6909 bound_to 6896
  146.1977  140.3669  142.8435 H   0  0  0  0  0  0  0  0  0  0  0  0  # atno 7974 bound_to 7965
  154.9941  140.0395  157.2332 H   0  0  0  0  0  0  0  0  0  0  0  0  # atno 8008 bound_to 7997
  154.7602  140.2783  155.6198 H   0  0  0  0  0  0  0  0  0  0  0  0  # atno 8009 bound_to 7997
  156.2902  140.2630  156.2378 H   0  0  0  0  0  0  0  0  0  0  0  0  # atno 8010 bound_to 7997
  140.7228  143.5156  150.9695 H   0  0  0  0  0  0  0  0  0  0  0  0  # atno 10167 bound_to 10162
  156.0045  130.4613  150.3998 H   0  0  0  0  0  0  0  0  0  0  0  0  # atno 10718 bound_to 10713
  154.3938  135.2754  155.2138 H   0  0  0  0  0  0  0  0  0  0  0  0  # atno 10763 bound_to 10752
  154.4193  135.6004  153.6004 H   0  0  0  0  0  0  0  0  0  0  0  0  # atno 10764 bound_to 10752
  152.9831  135.5968  154.4197 H   0  0  0  0  0  0  0  0  0  0  0  0  # atno 10765 bound_to 10752
  141.1589  133.6812  156.6875 H   0  0  0  0  0  0  0  0  0  0  0  0  # atno 11005 bound_to 11000
  144.8615  140.7146  143.6104 LP  0  0  0  0  0  0  0  0  0  0  0  0  # atno 17320 bound_to 7965
  145.3589  139.1687  143.4394 LP  0  0  0  0  0  0  0  0  0  0  0  0  # atno 17321 bound_to 7965
  139.8872  143.6998  152.3150 LP  0  0  0  0  0  0  0  0  0  0  0  0  # atno 17342 bound_to 10162
  139.7301  144.7584  151.0815 LP  0  0  0  0  0  0  0  0  0  0  0  0  # atno 17343 bound_to 10162
  157.2068  131.0451  151.2621 LP  0  0  0  0  0  0  0  0  0  0  0  0  # atno 17370 bound_to 10713
  157.3925  130.7290  149.6708 LP  0  0  0  0  0  0  0  0  0  0  0  0  # atno 17371 bound_to 10713
  140.3055  134.8129  157.4133 LP  0  0  0  0  0  0  0  0  0  0  0  0  # atno 17394 bound_to 11000
  140.1224  134.5202  155.8173 LP  0  0  0  0  0  0  0  0  0  0  0  0  # atno 17395 bound_to 11000

$$$$
