AV-unprocessed.smi:1327|AV-procd|sdf|5477|dock6
  -GOLD-   22720 5 53D 1   1.00000     0.00000
 Structure written by MMmdl.
 40 41  0  0  0  0  0  0  0  0  1 V2000
  151.8871  138.7589  159.2312 O   0  0  0  0  0  0  0  0  0  0  0  0
  152.8593  139.6397  158.5661 S   0  0  0  0  0  0  0  0  0  0  0  0
  154.3054  139.4626  158.7691 O   0  0  0  0  0  0  0  0  0  0  0  0
  152.5585  139.6087  156.8706 N   0  0  0  0  0  0  0  0  0  0  0  0
  152.3475  138.3179  156.2176 C   0  0  0  0  0  0  0  0  0  0  0  0
  151.8841  138.5012  154.7629 C   0  0  0  0  0  0  0  0  0  0  0  0
  150.5799  139.2724  154.6386 C   0  0  0  0  0  0  0  0  0  0  0  0
  149.3927  138.6141  154.2522 C   0  0  0  0  0  0  0  0  0  0  0  0
  148.2107  139.3712  154.1389 C   0  0  0  0  0  0  0  0  0  0  0  0
  148.2604  140.7514  154.4132 C   0  0  0  0  0  0  0  0  0  0  0  0
  149.4951  141.3152  154.7912 C   0  0  0  0  0  0  0  0  0  0  0  0
  150.6339  140.5980  154.9042 N   0  0  0  0  0  0  0  0  0  0  0  0
  152.4311  141.2880  158.8952 N   0  0  0  0  0  0  0  0  0  0  0  0
  151.5556  141.9803  157.9328 C   0  0  0  0  0  0  0  0  0  0  0  0
  150.7011  143.0897  158.5767 C   0  0  0  0  0  0  0  0  0  0  0  0
  151.5013  144.3478  158.9476 C   0  0  0  0  0  0  0  0  0  0  0  0
  152.1938  144.2923  160.3208 C   0  0  0  0  0  0  0  0  0  0  0  0
  152.7674  142.9245  160.7294 C   0  0  0  0  0  0  0  0  0  0  0  0
  153.4221  142.1358  159.5858 C   0  0  0  0  0  0  0  0  0  0  0  0
  153.2030  140.2093  156.3560 H   0  0  0  0  0  0  0  0  0  0  0  0
  153.2712  137.7392  156.2503 H   0  0  0  0  0  0  0  0  0  0  0  0
  151.5995  137.7611  156.7823 H   0  0  0  0  0  0  0  0  0  0  0  0
  152.6566  139.0298  154.2034 H   0  0  0  0  0  0  0  0  0  0  0  0
  151.7764  137.5294  154.2788 H   0  0  0  0  0  0  0  0  0  0  0  0
  149.3865  137.5541  154.0443 H   0  0  0  0  0  0  0  0  0  0  0  0
  147.2831  138.9019  153.8461 H   0  0  0  0  0  0  0  0  0  0  0  0
  147.3741  141.3635  154.3355 H   0  0  0  0  0  0  0  0  0  0  0  0
  149.5696  142.3705  155.0078 H   0  0  0  0  0  0  0  0  0  0  0  0
  152.1576  142.3745  157.1134 H   0  0  0  0  0  0  0  0  0  0  0  0
  150.8774  141.2539  157.4860 H   0  0  0  0  0  0  0  0  0  0  0  0
  149.9451  143.3818  157.8469 H   0  0  0  0  0  0  0  0  0  0  0  0
  150.1478  142.7097  159.4364 H   0  0  0  0  0  0  0  0  0  0  0  0
  152.2395  144.5472  158.1697 H   0  0  0  0  0  0  0  0  0  0  0  0
  150.8349  145.2109  158.9401 H   0  0  0  0  0  0  0  0  0  0  0  0
  152.9931  145.0343  160.3285 H   0  0  0  0  0  0  0  0  0  0  0  0
  151.4911  144.6104  161.0918 H   0  0  0  0  0  0  0  0  0  0  0  0
  153.5047  143.0902  161.5156 H   0  0  0  0  0  0  0  0  0  0  0  0
  151.9880  142.3162  161.1910 H   0  0  0  0  0  0  0  0  0  0  0  0
  154.2008  141.5014  160.0087 H   0  0  0  0  0  0  0  0  0  0  0  0
  153.9286  142.7890  158.8742 H   0  0  0  0  0  0  0  0  0  0  0  0
  1  2  2  0  0  0  0
  2  3  2  0  0  0  0
  2  4  1  0  0  0  0
  2 13  1  0  0  0  0
  4  5  1  0  0  0  0
  4 20  1  0  0  0  0
  5  6  1  0  0  0  0
  5 21  1  0  0  0  0
  5 22  1  0  0  0  0
  6  7  1  0  0  0  0
  6 23  1  0  0  0  0
  6 24  1  0  0  0  0
  7 12  1  0  0  0  0
  7  8  2  0  0  0  0
  8  9  1  0  0  0  0
  8 25  1  0  0  0  0
  9 10  2  0  0  0  0
  9 26  1  0  0  0  0
 10 11  1  0  0  0  0
 10 27  1  0  0  0  0
 11 12  2  0  0  0  0
 11 28  1  0  0  0  0
 13 19  1  0  0  0  0
 13 14  1  0  0  0  0
 14 15  1  0  0  0  0
 14 29  1  0  0  0  0
 14 30  1  0  0  0  0
 15 16  1  0  0  0  0
 15 31  1  0  0  0  0
 15 32  1  0  0  0  0
 16 17  1  0  0  0  0
 16 33  1  0  0  0  0
 16 34  1  0  0  0  0
 17 18  1  0  0  0  0
 17 35  1  0  0  0  0
 17 36  1  0  0  0  0
 18 19  1  0  0  0  0
 18 37  1  0  0  0  0
 18 38  1  0  0  0  0
 19 39  1  0  0  0  0
 19 40  1  0  0  0  0
M  END
> <s_m_source_file>
AV-unprocessed.smi

> <i_m_source_file_index>
1327

> <i_lp_mmshare_version>
43012

> <i_f3d_flags>
0

> <s_epik_input>
W0NIMl0xW0NIMl1bQ0gyXVtDSDJdW0NIMl1bQ0gyXU4xUyg9TykoPU8pW05IXVtDSDJdW0NIMl1jMltjSF1bY0hdW2NIXVtjSF1uMg==

> <s_epik_cmdline>
J2VwaWtfcHl0aG9uJywgJy1waCcsICc3LjAnLCAnLXRuJywgJzgnLCAnLW1hJywgJzIwMCcsICctbWV0YWxfYmluZGluZycsICctaW1hZScsICc8aW5maWxlLm1hZT4nLCAnLW9tYWUnLCAnPG91dGZpbGUubWFlPic=

> <r_lp_tautomer_probability>
1

> <r_epik_Ionization_Penalty>
0.00665037

> <r_epik_Ionization_Penalty_Charging>
0

> <r_epik_Ionization_Penalty_Neutral>
0.00665037

> <r_epik_State_Penalty>
-0

> <r_epik_Charging_Adjusted_Penalty>
0

> <i_epik_Tot_Q>
0

> <i_epik_Tot_abs_Q>
0

> <r_epik_Metal_State_Penalty>
0.361784

> <b_epik_Metal_Only>
0

> <s_lp_Force_Field>
OPLS_2005

> <r_lp_Energy>
15.8899

> <b_lp_Chiralities_Consistent>
1

> <s_lp_Variant>
AV-unprocessed.smi:1327-1

> <Gold.Version>
5.8.1

> <Gold.Id.Protein>
6NUR|6NUR_protein|mol2

> <Gold.PLP.Fitness>
49.2216

> <Gold.PLP.PLP>
-42.9183

> <Gold.PLP.part.hbond>
-3.0000

> <Gold.PLP.part.metal>
0.0000

> <Gold.PLP.part.buried>
-3.4161

> <Gold.PLP.part.nonpolar>
-36.4624

> <Gold.PLP.part.repulsive>
0.0864

> <Gold.PLP.ligand.clash>
0.0000

> <Gold.PLP.ligand.torsion>
1.7047

> <Gold.PLP.Chemscore.Hbond>
1.5280

> <Gold.PLP.Chemscore.CHOScore>
1.0000

> <Gold.PLP.Chemscore.Metal>
0.0000

> <Gold.Chemscore.Hbonds>
donor molecule, donor type, donor heavy atom, donor atom, acceptor molecule, acceptor atom, score
      P1  H  7989  7998       L1    12  0.59
      P1  H  7997  8010       L1     3  1.00
      L1  C    11    28       P1  8028  1.00

> <Gold.PLP.Chemscore.Internal.Correction>
2.1286

> <Gold.Rescore>
     Score         DG    S(hbond)    S(metal)    S(lipo)     H(rot)  DE(clash)    DE(int)     intcor
     15.15     -18.09       1.00        0.00     111.48       1.47       0.02       2.92       ----

> <Gold.Chemscore.Fitness>
15.1497

> <Gold.Chemscore.DG>
-18.0896

> <Gold.Chemscore.ZeroCoef>
-5.4800

> <Gold.Chemscore.Hbond>
0.9988

> <Gold.Chemscore.Metal>
0.0000

> <Gold.Chemscore.Lipo>
111.4804

> <Gold.Chemscore.Internal_Hbond>
0.0000

> <Gold.Chemscore.DEClash>
0.0202

> <Gold.Chemscore.DEInternal>
2.9197

> <Gold.Chemscore.Rot>
1.4725

> <Gold.Chemscore.Internal.Correction>
   9.000000E+99

> <Gold.Chemscore.Hbonds>
donor molecule, donor type, donor heavy atom, donor atom, acceptor molecule, acceptor atom, score
      P1  H  7989  7998       L1    12  0.03
      P1  H  7997  8010       L1     3  0.70

> <Gold.Chemscore.Hbond.Weighted>
-3.3361

> <Gold.Chemscore.Metal.Weighted>
-0.0000

> <Gold.Chemscore.Lipo.Weighted>
-13.0432

> <Gold.Chemscore.Internal_Hbond.Weighted>
0.0000

> <Gold.Chemscore.DEClash.Weighted>
0.0202

> <Gold.Chemscore.DEInternal.Weighted>
2.9197

> <Gold.Chemscore.Rot.Weighted>
3.7697

> <Gold.Chemscore.Internal.Correction.Weighted>
   9.000000E+99

> <Gold.Protein.RotatedTorsions>
[ 6907 6896 6895 6894 ] final  -54.54 input  -60.11 | X-H torsion
[ 7974 7965 7964 7962 ] final   19.18 input  175.53 | X-H torsion
[ 8008 7997 7996 7995 ] final   -2.64 input   59.86 | X-H torsion
[ 10167 10162 10161 10158 ] final   16.26 input  -65.29 | X-H torsion
[ 10718 10713 10712 10709 ] final  120.05 input   66.30 | X-H torsion
[ 10763 10752 10751 10750 ] final -152.77 input  -60.55 | X-H torsion
[ 11005 11000 10999 10996 ] final   11.13 input  -57.11 | X-H torsion

> <Gold.Protein.ActiveResidues>
 VAL166  LYS551  ARG553  GLY616  TRP617  ASP618  TYR619  PRO620  LYS621  CYS622 
 ASP623  PHE694  ASN695  SER759  ASP760  ASP761  ALA762  ILE779  LEU786  VAL792 
 PHE793  MET794  SER795  GLU796  ALA797  LYS798  CYS799  TRP800  GLU811  SER814 

> <Gold.Protein.RotatedAtoms>
  150.8329  134.7590  159.6868 H   0  0  0  0  0  0  0  0  0  0  0  0  # atno 6907 bound_to 6896
  152.4431  134.5547  159.9887 H   0  0  0  0  0  0  0  0  0  0  0  0  # atno 6908 bound_to 6896
  151.5704  133.3353  159.3024 H   0  0  0  0  0  0  0  0  0  0  0  0  # atno 6909 bound_to 6896
  146.2158  139.8350  142.8652 H   0  0  0  0  0  0  0  0  0  0  0  0  # atno 7974 bound_to 7965
  154.6336  140.2529  155.7405 H   0  0  0  0  0  0  0  0  0  0  0  0  # atno 8008 bound_to 7997
  156.2492  140.2902  156.0618 H   0  0  0  0  0  0  0  0  0  0  0  0  # atno 8009 bound_to 7997
  155.1706  140.0386  157.2852 H   0  0  0  0  0  0  0  0  0  0  0  0  # atno 8010 bound_to 7997
  140.5810  143.8981  150.6789 H   0  0  0  0  0  0  0  0  0  0  0  0  # atno 10167 bound_to 10162
  157.5918  131.1063  150.7982 H   0  0  0  0  0  0  0  0  0  0  0  0  # atno 10718 bound_to 10713
  154.7972  135.3228  154.7638 H   0  0  0  0  0  0  0  0  0  0  0  0  # atno 10763 bound_to 10752
  153.8313  135.6879  153.4818 H   0  0  0  0  0  0  0  0  0  0  0  0  # atno 10764 bound_to 10752
  153.1670  135.4638  154.9793 H   0  0  0  0  0  0  0  0  0  0  0  0  # atno 10765 bound_to 10752
  140.5067  134.0692  155.7807 H   0  0  0  0  0  0  0  0  0  0  0  0  # atno 11005 bound_to 11000
  145.2958  141.0180  143.3637 LP  0  0  0  0  0  0  0  0  0  0  0  0  # atno 17320 bound_to 7965
  144.9043  139.4609  143.6617 LP  0  0  0  0  0  0  0  0  0  0  0  0  # atno 17321 bound_to 7965
  140.2480  143.3614  152.1430 LP  0  0  0  0  0  0  0  0  0  0  0  0  # atno 17342 bound_to 10162
  139.5170  144.6985  151.5562 LP  0  0  0  0  0  0  0  0  0  0  0  0  # atno 17343 bound_to 10162
  156.8402  130.5045  149.5322 LP  0  0  0  0  0  0  0  0  0  0  0  0  # atno 17370 bound_to 10713
  156.0974  130.5943  150.9837 LP  0  0  0  0  0  0  0  0  0  0  0  0  # atno 17371 bound_to 10713
  141.1407  133.9143  157.2332 LP  0  0  0  0  0  0  0  0  0  0  0  0  # atno 17394 bound_to 11000
  139.9682  135.0136  156.9443 LP  0  0  0  0  0  0  0  0  0  0  0  0  # atno 17395 bound_to 11000

$$$$
