AV-unprocessed.smi:1575|AV-procd|sdf|6340|dock4
  -GOLD-   22720 6553D 1   1.00000     0.00000
 Structure written by MMmdl.
 41 41  0  0  0  0  0  0  0  0  1 V2000
  151.1031  138.5418  154.6650 C   0  0  0  0  0  0  0  0  0  0  0  0
  150.8466  138.6601  156.0918 N   0  0  0  0  0  0  0  0  0  0  0  0
  151.7568  139.0591  156.9916 C   0  0  0  0  0  0  0  0  0  0  0  0
  152.9138  139.3577  156.6900 O   0  0  0  0  0  0  0  0  0  0  0  0
  151.2890  139.1058  158.4566 C   0  0  1  0  0  0  0  0  0  0  0  0
  151.4254  140.5656  158.9514 C   0  0  0  0  0  0  0  0  0  0  0  0
  152.8722  141.1077  159.0085 C   0  0  0  0  0  0  0  0  0  0  0  0
  153.6929  140.3454  160.0597 C   0  0  0  0  0  0  0  0  0  0  0  0
  152.9223  142.6197  159.2850 C   0  0  0  0  0  0  0  0  0  0  0  0
  149.8837  138.7086  158.5460 N   0  0  0  0  0  0  0  0  0  0  0  0
  149.4420  137.4934  158.9046 C   0  0  0  0  0  0  0  0  0  0  0  0
  150.1919  136.5763  159.2421 O   0  0  0  0  0  0  0  0  0  0  0  0
  147.9196  137.2984  158.8966 C   0  0  0  0  0  0  0  0  0  0  0  0
  147.4303  136.5930  160.0898 N   0  0  0  0  0  0  0  0  0  0  0  0
  147.9407  135.3476  160.4275 C   0  0  0  0  0  0  0  0  0  0  0  0
  147.5240  134.6377  161.5027 C   0  0  0  0  0  0  0  0  0  0  0  0
  146.4864  135.1676  162.3808 C   0  0  0  0  0  0  0  0  0  0  0  0
  146.0432  134.6012  163.3773 O   0  0  0  0  0  0  0  0  0  0  0  0
  145.9974  136.4220  162.0072 N   0  0  0  0  0  0  0  0  0  0  0  0
  146.4218  137.1587  160.9003 C   0  0  0  0  0  0  0  0  0  0  0  0
  145.9204  138.2562  160.6587 O   0  0  0  0  0  0  0  0  0  0  0  0
  145.2758  136.8287  162.5843 H   0  0  0  0  0  0  0  0  0  0  0  0
  150.2198  138.1511  154.1598 H   0  0  0  0  0  0  0  0  0  0  0  0
  151.9337  137.8612  154.4736 H   0  0  0  0  0  0  0  0  0  0  0  0
  151.3423  139.5142  154.2328 H   0  0  0  0  0  0  0  0  0  0  0  0
  149.9186  138.4287  156.4160 H   0  0  0  0  0  0  0  0  0  0  0  0
  151.9112  138.4394  159.0561 H   0  0  0  0  0  0  0  0  0  0  0  0
  150.8343  141.2242  158.3126 H   0  0  0  0  0  0  0  0  0  0  0  0
  150.9825  140.6457  159.9460 H   0  0  0  0  0  0  0  0  0  0  0  0
  153.3510  140.9295  158.0451 H   0  0  0  0  0  0  0  0  0  0  0  0
  153.2817  140.4832  161.0604 H   0  0  0  0  0  0  0  0  0  0  0  0
  154.7281  140.6879  160.0750 H   0  0  0  0  0  0  0  0  0  0  0  0
  153.7065  139.2756  159.8498 H   0  0  0  0  0  0  0  0  0  0  0  0
  152.4146  142.8694  160.2172 H   0  0  0  0  0  0  0  0  0  0  0  0
  152.4541  143.1918  158.4844 H   0  0  0  0  0  0  0  0  0  0  0  0
  153.9522  142.9688  159.3654 H   0  0  0  0  0  0  0  0  0  0  0  0
  149.1994  139.4025  158.2822 H   0  0  0  0  0  0  0  0  0  0  0  0
  147.4536  138.2817  158.8166 H   0  0  0  0  0  0  0  0  0  0  0  0
  147.6160  136.7615  157.9952 H   0  0  0  0  0  0  0  0  0  0  0  0
  148.7082  134.9135  159.8029 H   0  0  0  0  0  0  0  0  0  0  0  0
  147.9598  133.6719  161.7134 H   0  0  0  0  0  0  0  0  0  0  0  0
  1  2  1  0  0  0  0
  1 23  1  0  0  0  0
  1 24  1  0  0  0  0
  1 25  1  0  0  0  0
  2  3  1  0  0  0  0
  2 26  1  0  0  0  0
  3  4  2  0  0  0  0
  3  5  1  0  0  0  0
  5  6  1  0  0  0  0
  5 10  1  0  0  0  0
  5 27  1  0  0  0  0
  6  7  1  0  0  0  0
  6 28  1  0  0  0  0
  6 29  1  0  0  0  0
  7  8  1  0  0  0  0
  7  9  1  0  0  0  0
  7 30  1  0  0  0  0
  8 31  1  0  0  0  0
  8 32  1  0  0  0  0
  8 33  1  0  0  0  0
  9 34  1  0  0  0  0
  9 35  1  0  0  0  0
  9 36  1  0  0  0  0
 10 11  1  0  0  0  0
 10 37  1  0  0  0  0
 11 12  2  0  0  0  0
 11 13  1  0  0  0  0
 13 14  1  0  0  0  0
 13 38  1  0  0  0  0
 13 39  1  0  0  0  0
 14 20  1  0  0  0  0
 14 15  1  0  0  0  0
 15 16  2  0  0  0  0
 15 40  1  0  0  0  0
 16 17  1  0  0  0  0
 16 41  1  0  0  0  0
 17 18  2  0  0  0  0
 17 19  1  0  0  0  0
 19 22  1  0  0  0  0
 19 20  1  0  0  0  0
 20 21  2  0  0  0  0
M  END
> <s_m_source_file>
AV-unprocessed.smi

> <i_m_source_file_index>
1575

> <i_lp_mmshare_version>
43012

> <i_f3d_flags>
0

> <s_epik_input>
W0NIM11bTkhdQyg9TylbQ0BIXShbQ0gyXVtDSF0oW0NIM10pW0NIM10pW05IXUMoPU8pW0NIMl1uMVtjSF1bY0hdYyg9TylbbkhdYzE9Tw==

> <s_epik_cmdline>
J2VwaWtfcHl0aG9uJywgJy1waCcsICc3LjAnLCAnLXRuJywgJzgnLCAnLW1hJywgJzIwMCcsICctbWV0YWxfYmluZGluZycsICctaW1hZScsICc8aW5maWxlLm1hZT4nLCAnLW9tYWUnLCAnPG91dGZpbGUubWFlPic=

> <r_lp_tautomer_probability>
0.999537

> <r_epik_Ionization_Penalty>
0.00357166

> <r_epik_Ionization_Penalty_Charging>
0.00357161

> <r_epik_Ionization_Penalty_Neutral>
5.44484e-08

> <r_epik_State_Penalty>
0.00253761

> <r_epik_Charging_Adjusted_Penalty>
0.00610921

> <i_epik_Tot_Q>
0

> <i_epik_Tot_abs_Q>
0

> <r_epik_Metal_State_Penalty>
0.368734

> <b_epik_Metal_Only>
0

> <s_lp_Force_Field>
OPLS_2005

> <r_lp_Energy>
5.11716

> <b_lp_Chiralities_Consistent>
1

> <s_lp_Variant>
AV-unprocessed.smi:1575-2

> <Gold.Version>
5.8.1

> <Gold.Id.Protein>
6NUR|6NUR_protein|mol2

> <Gold.PLP.Fitness>
41.0601

> <Gold.PLP.PLP>
-33.1444

> <Gold.PLP.part.hbond>
-4.0000

> <Gold.PLP.part.metal>
0.0000

> <Gold.PLP.part.buried>
-6.2589

> <Gold.PLP.part.nonpolar>
-23.9495

> <Gold.PLP.part.repulsive>
0.2942

> <Gold.PLP.ligand.clash>
0.0000

> <Gold.PLP.ligand.torsion>
0.5755

> <Gold.PLP.Chemscore.Hbond>
3.0000

> <Gold.PLP.Chemscore.CHOScore>
0.0000

> <Gold.PLP.Chemscore.Metal>
0.0000

> <Gold.Chemscore.Hbonds>
donor molecule, donor type, donor heavy atom, donor atom, acceptor molecule, acceptor atom, score
      P1  H  6896  6908       L1    12  1.00
      P1  H  6934  6947       L1    21  0.62
      P1  H  7997  8009       L1     4  1.00

> <Gold.PLP.Chemscore.Internal.Correction>
0.0667

> <Gold.Rescore>
     Score         DG    S(hbond)    S(metal)    S(lipo)     H(rot)  DE(clash)    DE(int)     intcor
     13.37     -14.21       2.90        0.00      53.19       2.81       0.01       0.83       ----

> <Gold.Chemscore.Fitness>
13.3671

> <Gold.Chemscore.DG>
-14.2059

> <Gold.Chemscore.ZeroCoef>
-5.4800

> <Gold.Chemscore.Hbond>
2.9010

> <Gold.Chemscore.Metal>
0.0000

> <Gold.Chemscore.Lipo>
53.1872

> <Gold.Chemscore.Internal_Hbond>
0.0000

> <Gold.Chemscore.DEClash>
0.0126

> <Gold.Chemscore.DEInternal>
0.8262

> <Gold.Chemscore.Rot>
2.8072

> <Gold.Chemscore.Internal.Correction>
   9.000000E+99

> <Gold.Chemscore.Hbonds>
donor molecule, donor type, donor heavy atom, donor atom, acceptor molecule, acceptor atom, score
      P1  H  6896  6908       L1    12  0.94
      P1  H  6934  6947       L1    21  0.10
      P1  H  7997  8009       L1     4  0.99

> <Gold.Chemscore.Hbond.Weighted>
-9.6894

> <Gold.Chemscore.Metal.Weighted>
-0.0000

> <Gold.Chemscore.Lipo.Weighted>
-6.2229

> <Gold.Chemscore.Internal_Hbond.Weighted>
0.0000

> <Gold.Chemscore.DEClash.Weighted>
0.0126

> <Gold.Chemscore.DEInternal.Weighted>
0.8262

> <Gold.Chemscore.Rot.Weighted>
7.1864

> <Gold.Chemscore.Internal.Correction.Weighted>
   9.000000E+99

> <Gold.Protein.RotatedTorsions>
[ 6907 6896 6895 6894 ] final -177.09 input  -60.11 | X-H torsion
[ 7974 7965 7964 7962 ] final -148.79 input  175.53 | X-H torsion
[ 8008 7997 7996 7995 ] final -160.50 input   59.86 | X-H torsion
[ 10167 10162 10161 10158 ] final   44.53 input  -65.29 | X-H torsion
[ 10718 10713 10712 10709 ] final  163.98 input   66.30 | X-H torsion
[ 10763 10752 10751 10750 ] final -103.50 input  -60.55 | X-H torsion
[ 11005 11000 10999 10996 ] final  121.47 input  -57.11 | X-H torsion

> <Gold.Protein.ActiveResidues>
 VAL166  LYS551  ARG553  GLY616  TRP617  ASP618  TYR619  PRO620  LYS621  CYS622 
 ASP623  PHE694  ASN695  SER759  ASP760  ASP761  ALA762  ILE779  LEU786  VAL792 
 PHE793  MET794  SER795  GLU796  ALA797  LYS798  CYS799  TRP800  GLU811  SER814 

> <Gold.Protein.RotatedAtoms>
  151.6154  133.3343  159.3076 H   0  0  0  0  0  0  0  0  0  0  0  0  # atno 6907 bound_to 6896
  150.8134  134.7306  159.6720 H   0  0  0  0  0  0  0  0  0  0  0  0  # atno 6908 bound_to 6896
  152.4230  134.5925  160.0029 H   0  0  0  0  0  0  0  0  0  0  0  0  # atno 6909 bound_to 6896
  144.8008  140.5151  143.5709 H   0  0  0  0  0  0  0  0  0  0  0  0  # atno 7974 bound_to 7965
  155.7783  140.0861  157.2072 H   0  0  0  0  0  0  0  0  0  0  0  0  # atno 8008 bound_to 7997
  154.3992  140.1512  156.3080 H   0  0  0  0  0  0  0  0  0  0  0  0  # atno 8009 bound_to 7997
  155.8679  140.3427  155.5803 H   0  0  0  0  0  0  0  0  0  0  0  0  # atno 8010 bound_to 7997
  140.3334  144.2560  150.6165 H   0  0  0  0  0  0  0  0  0  0  0  0  # atno 10167 bound_to 10162
  157.1009  131.0442  151.2498 H   0  0  0  0  0  0  0  0  0  0  0  0  # atno 10718 bound_to 10713
  154.7812  135.4821  153.9848 H   0  0  0  0  0  0  0  0  0  0  0  0  # atno 10763 bound_to 10752
  153.1496  135.6788  153.8910 H   0  0  0  0  0  0  0  0  0  0  0  0  # atno 10764 bound_to 10752
  153.8558  135.3161  155.3413 H   0  0  0  0  0  0  0  0  0  0  0  0  # atno 10765 bound_to 10752
  139.9227  134.9639  156.7963 H   0  0  0  0  0  0  0  0  0  0  0  0  # atno 11005 bound_to 11000
  145.5559  139.1478  143.3368 LP  0  0  0  0  0  0  0  0  0  0  0  0  # atno 17320 bound_to 7965
  146.2288  140.5696  142.8984 LP  0  0  0  0  0  0  0  0  0  0  0  0  # atno 17321 bound_to 7965
  140.5376  143.2230  151.8137 LP  0  0  0  0  0  0  0  0  0  0  0  0  # atno 17342 bound_to 10162
  139.4852  144.4641  151.9505 LP  0  0  0  0  0  0  0  0  0  0  0  0  # atno 17343 bound_to 10162
  157.4641  130.7670  149.7263 LP  0  0  0  0  0  0  0  0  0  0  0  0  # atno 17370 bound_to 10713
  155.9874  130.3967  150.3167 LP  0  0  0  0  0  0  0  0  0  0  0  0  # atno 17371 bound_to 10713
  140.6426  133.9805  155.7715 LP  0  0  0  0  0  0  0  0  0  0  0  0  # atno 17394 bound_to 11000
  141.0761  134.0132  157.3455 LP  0  0  0  0  0  0  0  0  0  0  0  0  # atno 17395 bound_to 11000

$$$$
