AV-unprocessed.smi:99|AV-procd|sdf|894|dock2
  -GOLD-   2262017383D 1   1.00000     0.00000
 Structure written by MMmdl.
 52 55  0  0  0  0  0  0  0  0  2 V2000
  148.9762  135.1442  158.5261 O   0  0  0  0  0  0  0  0  0  0  0  0
  147.8421  134.8953  158.9396 C   0  0  0  0  0  0  0  0  0  0  0  0
  146.8087  134.5736  158.1390 O   0  0  0  0  0  0  0  0  0  0  0  0
  146.9949  134.4241  156.7408 C   0  0  0  0  0  0  0  0  0  0  0  0
  146.4484  135.6726  156.0374 C   0  0  1  0  0  0  0  0  0  0  0  0
  146.9226  136.8532  156.6804 O   0  0  0  0  0  0  0  0  0  0  0  0
  147.0829  137.8878  155.7477 C   0  0  1  0  0  0  0  0  0  0  0  0
  148.5231  138.3533  155.7620 N   0  0  0  0  0  0  0  0  0  0  0  0
  149.2979  138.3140  154.6143 C   0  0  0  0  0  0  0  0  0  0  0  0
  150.5777  138.7395  154.6160 C   0  0  0  0  0  0  0  0  0  0  0  0
  151.1599  139.2561  155.8515 C   0  0  0  0  0  0  0  0  0  0  0  0
  152.3303  139.6326  155.8463 O   0  0  0  0  0  0  0  0  0  0  0  0
  150.3715  139.2996  156.9641 N   0  5  0  0  0  0  0  0  0  0  0  0
  149.0739  138.8760  156.9639 C   0  0  0  0  0  0  0  0  0  0  0  0
  148.3479  138.9308  157.9567 O   0  0  0  0  0  0  0  0  0  0  0  0
  146.7212  137.3321  154.3616 C   0  0  2  0  0  0  0  0  0  0  0  0
  145.3850  137.6680  154.0355 O   0  0  0  0  0  0  0  0  0  0  0  0
  146.9100  135.8421  154.5909 C   0  0  2  0  0  0  0  0  0  0  0  0
  146.1910  135.0613  153.6407 O   0  0  0  0  0  0  0  0  0  0  0  0
  146.5719  133.8005  153.3387 C   0  0  0  0  0  0  0  0  0  0  0  0
  147.4426  133.1796  153.9517 O   0  0  0  0  0  0  0  0  0  0  0  0
  145.7961  133.2186  152.2066 C   0  0  0  0  0  0  0  0  0  0  0  0
  146.0270  131.8757  151.8272 C   0  0  0  0  0  0  0  0  0  0  0  0
  145.2907  131.2896  150.7795 C   0  0  0  0  0  0  0  0  0  0  0  0
  144.3158  132.0404  150.0972 C   0  0  0  0  0  0  0  0  0  0  0  0
  144.0792  133.3782  150.4629 C   0  0  0  0  0  0  0  0  0  0  0  0
  144.8138  133.9659  151.5112 C   0  0  0  0  0  0  0  0  0  0  0  0
  147.4707  134.8954  160.3843 C   0  0  0  0  0  0  0  0  0  0  0  0
  146.7067  133.8252  160.9050 C   0  0  0  0  0  0  0  0  0  0  0  0
  146.3230  133.8109  162.2602 C   0  0  0  0  0  0  0  0  0  0  0  0
  146.6981  134.8666  163.1115 C   0  0  0  0  0  0  0  0  0  0  0  0
  147.4617  135.9350  162.6069 C   0  0  0  0  0  0  0  0  0  0  0  0
  147.8486  135.9494  161.2530 C   0  0  0  0  0  0  0  0  0  0  0  0
  148.0603  134.3105  156.5385 H   0  0  0  0  0  0  0  0  0  0  0  0
  146.4905  133.5324  156.3655 H   0  0  0  0  0  0  0  0  0  0  0  0
  145.3583  135.6889  156.0885 H   0  0  0  0  0  0  0  0  0  0  0  0
  146.4878  138.7486  156.0579 H   0  0  0  0  0  0  0  0  0  0  0  0
  148.8815  137.9428  153.6903 H   0  0  0  0  0  0  0  0  0  0  0  0
  151.1667  138.7026  153.7114 H   0  0  0  0  0  0  0  0  0  0  0  0
  147.3826  137.7199  153.5857 H   0  0  0  0  0  0  0  0  0  0  0  0
  145.3759  138.5413  153.6755 H   0  0  0  0  0  0  0  0  0  0  0  0
  147.9808  135.6396  154.5402 H   0  0  0  0  0  0  0  0  0  0  0  0
  146.7648  131.2769  152.3416 H   0  0  0  0  0  0  0  0  0  0  0  0
  145.4723  130.2616  150.5025 H   0  0  0  0  0  0  0  0  0  0  0  0
  143.7500  131.5906  149.2947 H   0  0  0  0  0  0  0  0  0  0  0  0
  143.3311  133.9557  149.9399 H   0  0  0  0  0  0  0  0  0  0  0  0
  144.6045  134.9939  151.7695 H   0  0  0  0  0  0  0  0  0  0  0  0
  146.4016  133.0066  160.2691 H   0  0  0  0  0  0  0  0  0  0  0  0
  145.7370  132.9897  162.6460 H   0  0  0  0  0  0  0  0  0  0  0  0
  146.4002  134.8572  164.1496 H   0  0  0  0  0  0  0  0  0  0  0  0
  147.7475  136.7485  163.2572 H   0  0  0  0  0  0  0  0  0  0  0  0
  148.4289  136.7884  160.8979 H   0  0  0  0  0  0  0  0  0  0  0  0
  1  2  2  0  0  0  0
  2  3  1  0  0  0  0
  2 28  1  0  0  0  0
  3  4  1  0  0  0  0
  4  5  1  0  0  0  0
  4 34  1  0  0  0  0
  4 35  1  0  0  0  0
  5 18  1  0  0  0  0
  5  6  1  0  0  0  0
  5 36  1  0  0  0  0
  6  7  1  0  0  0  0
  7  8  1  0  0  0  0
  7 16  1  0  0  0  0
  7 37  1  0  0  0  0
  8 14  1  0  0  0  0
  8  9  1  0  0  0  0
  9 10  2  0  0  0  0
  9 38  1  0  0  0  0
 10 11  1  0  0  0  0
 10 39  1  0  0  0  0
 11 12  2  0  0  0  0
 11 13  1  0  0  0  0
 13 14  1  0  0  0  0
 14 15  2  0  0  0  0
 16 17  1  0  0  0  0
 16 18  1  0  0  0  0
 16 40  1  0  0  0  0
 17 41  1  0  0  0  0
 18 19  1  0  0  0  0
 18 42  1  0  0  0  0
 19 20  1  0  0  0  0
 20 21  2  0  0  0  0
 20 22  1  0  0  0  0
 22 27  1  0  0  0  0
 22 23  2  0  0  0  0
 23 24  1  0  0  0  0
 23 43  1  0  0  0  0
 24 25  2  0  0  0  0
 24 44  1  0  0  0  0
 25 26  1  0  0  0  0
 25 45  1  0  0  0  0
 26 27  2  0  0  0  0
 26 46  1  0  0  0  0
 27 47  1  0  0  0  0
 28 33  1  0  0  0  0
 28 29  2  0  0  0  0
 29 30  1  0  0  0  0
 29 48  1  0  0  0  0
 30 31  2  0  0  0  0
 30 49  1  0  0  0  0
 31 32  1  0  0  0  0
 31 50  1  0  0  0  0
 32 33  2  0  0  0  0
 32 51  1  0  0  0  0
 33 52  1  0  0  0  0
M  CHG  1  13  -1
M  END
> <s_m_source_file>
AV-unprocessed.smi

> <i_m_source_file_index>
99

> <i_lp_mmshare_version>
43012

> <i_f3d_flags>
0

> <s_epik_input>
W2NIXTFbY0hdW2NIXVtjSF1bY0hdYzFDKD1PKU9bQ0gyXVtDQEBIXTJPW0NAQEhdKG4zW2NIXVtjSF1jKD1PKVtuSF1jMz1PKVtDQEBIXShbT0hdKVtDQEhdMk9DKD1PKWM0W2NIXVtjSF1bY0hdW2NIXVtjSF00

> <s_epik_cmdline>
J2VwaWtfcHl0aG9uJywgJy1waCcsICc3LjAnLCAnLXRuJywgJzgnLCAnLW1hJywgJzIwMCcsICctbWV0YWxfYmluZGluZycsICctaW1hZScsICc8aW5maWxlLm1hZT4nLCAnLW9tYWUnLCAnPG91dGZpbGUubWFlPic=

> <r_lp_tautomer_probability>
1

> <r_epik_Ionization_Penalty>
2.89159

> <r_epik_Ionization_Penalty_Charging>
2.1077e-08

> <r_epik_Ionization_Penalty_Neutral>
2.89159

> <r_epik_State_Penalty>
2.88671

> <r_epik_Charging_Adjusted_Penalty>
2.88671

> <i_epik_Tot_Q>
-1

> <i_epik_Tot_abs_Q>
1

> <r_epik_Metal_State_Penalty>
0.0727308

> <b_epik_Metal_Only>
1

> <s_epik_Chemistry_Notes>
This compound has an ester and may undergo hydrolysis at high or low pH. This compound contains an acetal/aminal-like group ( X-CH(R)-Y where X, Y are N, S, or O) that may be acid/base labile, releasing an aldehyde.

> <s_lp_Force_Field>
OPLS_2005

> <r_lp_Energy>
45.2634

> <b_lp_Chiralities_Consistent>
1

> <s_lp_Variant>
AV-unprocessed.smi:99-30

> <Gold.Version>
5.8.1

> <Gold.Id.Protein>
6NUR|6NUR_protein|mol2

> <Gold.PLP.Fitness>
52.9675

> <Gold.PLP.PLP>
-46.7604

> <Gold.PLP.part.hbond>
-2.7733

> <Gold.PLP.part.metal>
0.0000

> <Gold.PLP.part.buried>
-5.3045

> <Gold.PLP.part.nonpolar>
-38.8082

> <Gold.PLP.part.repulsive>
0.1773

> <Gold.PLP.ligand.clash>
0.0000

> <Gold.PLP.ligand.torsion>
1.5825

> <Gold.PLP.Chemscore.Hbond>
2.0071

> <Gold.PLP.Chemscore.CHOScore>
1.0000

> <Gold.PLP.Chemscore.Metal>
0.0000

> <Gold.Chemscore.Hbonds>
donor molecule, donor type, donor heavy atom, donor atom, acceptor molecule, acceptor atom, score
      P1  H  6896  6907       L1     1  0.96
      P1  H  7997  8010       L1    12  0.80
      L1  C     9    38       P1  7948  1.00

> <Gold.PLP.Chemscore.Internal.Correction>
0.3508

> <Gold.Rescore>
     Score         DG    S(hbond)    S(metal)    S(lipo)     H(rot)  DE(clash)    DE(int)     intcor
     14.25     -16.60       1.99        0.00     106.94       3.13       0.04       2.31       ----

> <Gold.Chemscore.Fitness>
14.2476

> <Gold.Chemscore.DG>
-16.6042

> <Gold.Chemscore.ZeroCoef>
-5.4800

> <Gold.Chemscore.Hbond>
1.9871

> <Gold.Chemscore.Metal>
0.0000

> <Gold.Chemscore.Lipo>
106.9392

> <Gold.Chemscore.Internal_Hbond>
0.0000

> <Gold.Chemscore.DEClash>
0.0438

> <Gold.Chemscore.DEInternal>
2.3128

> <Gold.Chemscore.Rot>
3.1346

> <Gold.Chemscore.Internal.Correction>
   9.000000E+99

> <Gold.Chemscore.Hbonds>
donor molecule, donor type, donor heavy atom, donor atom, acceptor molecule, acceptor atom, score
      P1  H  6896  6907       L1     1  0.90
      P1  H  7997  8010       L1    12  0.79

> <Gold.Chemscore.Hbond.Weighted>
-6.6368

> <Gold.Chemscore.Metal.Weighted>
-0.0000

> <Gold.Chemscore.Lipo.Weighted>
-12.5119

> <Gold.Chemscore.Internal_Hbond.Weighted>
0.0000

> <Gold.Chemscore.DEClash.Weighted>
0.0438

> <Gold.Chemscore.DEInternal.Weighted>
2.3128

> <Gold.Chemscore.Rot.Weighted>
8.0246

> <Gold.Chemscore.Internal.Correction.Weighted>
   9.000000E+99

> <Gold.Protein.RotatedTorsions>
[ 6907 6896 6895 6894 ] final  -80.94 input  -60.11 | X-H torsion
[ 7974 7965 7964 7962 ] final  -31.07 input  175.53 | X-H torsion
[ 8008 7997 7996 7995 ] final   81.29 input   59.86 | X-H torsion
[ 10167 10162 10161 10158 ] final    6.25 input  -65.29 | X-H torsion
[ 10718 10713 10712 10709 ] final  -73.44 input   66.30 | X-H torsion
[ 10763 10752 10751 10750 ] final  105.83 input  -60.55 | X-H torsion
[ 11005 11000 10999 10996 ] final  -15.98 input  -57.11 | X-H torsion

> <Gold.Protein.ActiveResidues>
 VAL166  LYS551  ARG553  GLY616  TRP617  ASP618  TYR619  PRO620  LYS621  CYS622 
 ASP623  PHE694  ASN695  SER759  ASP760  ASP761  ALA762  ILE779  LEU786  VAL792 
 PHE793  MET794  SER795  GLU796  ALA797  LYS798  CYS799  TRP800  GLU811  SER814 

> <Gold.Protein.RotatedAtoms>
  150.6920  134.3892  159.5068 H   0  0  0  0  0  0  0  0  0  0  0  0  # atno 6907 bound_to 6896
  152.1683  134.8852  160.0545 H   0  0  0  0  0  0  0  0  0  0  0  0  # atno 6908 bound_to 6896
  151.9888  133.3749  159.4173 H   0  0  0  0  0  0  0  0  0  0  0  0  # atno 6909 bound_to 6896
  146.1095  140.5620  142.8784 H   0  0  0  0  0  0  0  0  0  0  0  0  # atno 7974 bound_to 7965
  155.8951  140.3436  155.5985 H   0  0  0  0  0  0  0  0  0  0  0  0  # atno 8008 bound_to 7997
  155.7565  140.0827  157.2195 H   0  0  0  0  0  0  0  0  0  0  0  0  # atno 8009 bound_to 7997
  154.4037  140.1543  156.2771 H   0  0  0  0  0  0  0  0  0  0  0  0  # atno 8010 bound_to 7997
  140.6438  143.7711  150.7467 H   0  0  0  0  0  0  0  0  0  0  0  0  # atno 10167 bound_to 10162
  156.0280  130.4394  150.2742 H   0  0  0  0  0  0  0  0  0  0  0  0  # atno 10718 bound_to 10713
  153.3847  135.3897  155.1882 H   0  0  0  0  0  0  0  0  0  0  0  0  # atno 10763 bound_to 10752
  154.8712  135.3734  154.4812 H   0  0  0  0  0  0  0  0  0  0  0  0  # atno 10764 bound_to 10752
  153.5293  135.7086  153.5753 H   0  0  0  0  0  0  0  0  0  0  0  0  # atno 10765 bound_to 10752
  140.8021  133.8205  155.9480 H   0  0  0  0  0  0  0  0  0  0  0  0  # atno 11005 bound_to 11000
  144.7499  140.5165  143.6809 LP  0  0  0  0  0  0  0  0  0  0  0  0  # atno 17320 bound_to 7965
  145.5692  139.1482  143.3298 LP  0  0  0  0  0  0  0  0  0  0  0  0  # atno 17321 bound_to 7965
  140.1348  143.4493  152.2231 LP  0  0  0  0  0  0  0  0  0  0  0  0  # atno 17342 bound_to 10162
  139.5648  144.7428  151.4054 LP  0  0  0  0  0  0  0  0  0  0  0  0  # atno 17343 bound_to 10162
  157.0845  131.0152  151.3144 LP  0  0  0  0  0  0  0  0  0  0  0  0  # atno 17370 bound_to 10713
  157.4901  130.7817  149.7499 LP  0  0  0  0  0  0  0  0  0  0  0  0  # atno 17371 bound_to 10713
  140.9283  134.2054  157.4881 LP  0  0  0  0  0  0  0  0  0  0  0  0  # atno 17394 bound_to 11000
  139.8721  134.9822  156.5147 LP  0  0  0  0  0  0  0  0  0  0  0  0  # atno 17395 bound_to 11000

$$$$
