AV-unprocessed.smi:2526|AV-procd|sdf|9941|dock10
  -GOLD-   2272013583D 1   1.00000     0.00000
 Structure written by MMmdl.
 28 29  0  0  0  0  0  0  0  0  1 V2000
  151.1118  138.3243  154.4490 C   0  0  0  0  0  0  0  0  0  0  0  0
  151.0056  139.4870  155.3041 N   0  0  0  0  0  0  0  0  0  0  0  0
  151.3174  139.6006  156.6413 C   0  0  0  0  0  0  0  0  0  0  0  0
  151.0478  140.8867  157.0220 C   0  0  0  0  0  0  0  0  0  0  0  0
  151.2127  141.5411  158.3740 C   0  0  1  0  0  0  0  0  0  0  0  0
  152.5228  141.2187  158.9492 N   0  0  0  0  0  0  0  0  0  0  0  0
  153.3233  142.0353  159.6575 C   0  0  0  0  0  0  0  0  0  0  0  0
  154.3845  141.6383  160.1330 O   0  0  0  0  0  0  0  0  0  0  0  0
  152.9142  143.5030  159.8471 C   0  0  0  0  0  0  0  0  0  0  0  0
  151.4221  143.7552  159.5860 C   0  0  0  0  0  0  0  0  0  0  0  0
  150.9799  143.0686  158.2888 C   0  0  2  0  0  0  0  0  0  0  0  0
  149.5839  143.3702  158.0270 N   0  0  0  0  0  0  0  0  0  0  0  0
  150.5704  141.4863  155.8206 C   0  0  0  0  0  0  0  0  0  0  0  0
  150.5432  140.6478  154.7978 N   0  0  0  0  0  0  0  0  0  0  0  0
  151.8118  137.6079  154.8801 H   0  0  0  0  0  0  0  0  0  0  0  0
  151.4701  138.6161  153.4610 H   0  0  0  0  0  0  0  0  0  0  0  0
  150.1341  137.8519  154.3510 H   0  0  0  0  0  0  0  0  0  0  0  0
  151.7023  138.7647  157.2072 H   0  0  0  0  0  0  0  0  0  0  0  0
  150.4852  141.1237  159.0721 H   0  0  0  0  0  0  0  0  0  0  0  0
  152.8353  140.2662  158.8279 H   0  0  0  0  0  0  0  0  0  0  0  0
  153.1774  143.8281  160.8541 H   0  0  0  0  0  0  0  0  0  0  0  0
  153.5105  144.1030  159.1590 H   0  0  0  0  0  0  0  0  0  0  0  0
  150.8340  143.3854  160.4276 H   0  0  0  0  0  0  0  0  0  0  0  0
  151.2411  144.8292  159.5283 H   0  0  0  0  0  0  0  0  0  0  0  0
  151.5681  143.4769  157.4655 H   0  0  0  0  0  0  0  0  0  0  0  0
  149.3205  144.2128  158.5176 H   0  0  0  0  0  0  0  0  0  0  0  0
  149.4573  143.5606  157.0432 H   0  0  0  0  0  0  0  0  0  0  0  0
  150.2425  142.5035  155.6643 H   0  0  0  0  0  0  0  0  0  0  0  0
  1  2  1  0  0  0  0
  1 15  1  0  0  0  0
  1 16  1  0  0  0  0
  1 17  1  0  0  0  0
  2 14  1  0  0  0  0
  2  3  1  0  0  0  0
  3  4  2  0  0  0  0
  3 18  1  0  0  0  0
  4  5  1  0  0  0  0
  4 13  1  0  0  0  0
  5 11  1  0  0  0  0
  5  6  1  0  0  0  0
  5 19  1  0  0  0  0
  6  7  1  0  0  0  0
  6 20  1  0  0  0  0
  7  8  2  0  0  0  0
  7  9  1  0  0  0  0
  9 10  1  0  0  0  0
  9 21  1  0  0  0  0
  9 22  1  0  0  0  0
 10 11  1  0  0  0  0
 10 23  1  0  0  0  0
 10 24  1  0  0  0  0
 11 12  1  0  0  0  0
 11 25  1  0  0  0  0
 12 26  1  0  0  0  0
 12 27  1  0  0  0  0
 13 14  2  0  0  0  0
 13 28  1  0  0  0  0
M  END
> <s_m_source_file>
AV-unprocessed.smi

> <i_m_source_file_index>
2526

> <i_lp_mmshare_version>
43012

> <i_f3d_flags>
0

> <s_epik_input>
W0NIM11uMVtjSF1jKFtjSF1uMSlbQ0BASF0yW05IXUMoPU8pW0NIMl1bQ0gyXVtDQEhdMltOSDJd

> <s_epik_cmdline>
J2VwaWtfcHl0aG9uJywgJy1waCcsICc3LjAnLCAnLXRuJywgJzgnLCAnLW1hJywgJzIwMCcsICctbWV0YWxfYmluZGluZycsICctaW1hZScsICc8aW5maWxlLm1hZT4nLCAnLW9tYWUnLCAnPG91dGZpbGUubWFlPic=

> <r_lp_tautomer_probability>
1

> <r_epik_Ionization_Penalty>
2.50279

> <r_epik_Ionization_Penalty_Charging>
0

> <r_epik_Ionization_Penalty_Neutral>
2.50279

> <r_epik_State_Penalty>
2.66754

> <r_epik_Charging_Adjusted_Penalty>
2.66754

> <i_epik_Tot_Q>
0

> <i_epik_Tot_abs_Q>
0

> <r_epik_Metal_State_Penalty>
2.66721

> <b_epik_Metal_Only>
0

> <s_lp_Force_Field>
OPLS_2005

> <r_lp_Energy>
8.34042

> <b_lp_Chiralities_Consistent>
1

> <s_lp_Variant>
AV-unprocessed.smi:2526-8

> <Gold.Version>
5.8.1

> <Gold.Id.Protein>
6NUR|6NUR_protein|mol2

> <Gold.PLP.Fitness>
38.0607

> <Gold.PLP.PLP>
-29.8293

> <Gold.PLP.part.hbond>
-2.8625

> <Gold.PLP.part.metal>
0.0000

> <Gold.PLP.part.buried>
-3.9390

> <Gold.PLP.part.nonpolar>
-23.4536

> <Gold.PLP.part.repulsive>
0.2086

> <Gold.PLP.ligand.clash>
0.0000

> <Gold.PLP.ligand.torsion>
0.2173

> <Gold.PLP.Chemscore.Hbond>
1.8800

> <Gold.PLP.Chemscore.CHOScore>
1.0000

> <Gold.PLP.Chemscore.Metal>
0.0000

> <Gold.Chemscore.Hbonds>
donor molecule, donor type, donor heavy atom, donor atom, acceptor molecule, acceptor atom, score
      L1  H    12    27       P1  8028  0.98
      P1  H  7989  7998       L1    14  0.93
      L1  C    13    28       P1  8028  0.84

> <Gold.PLP.Chemscore.Internal.Correction>
0.0260

> <Gold.Rescore>
     Score         DG    S(hbond)    S(metal)    S(lipo)     H(rot)  DE(clash)    DE(int)     intcor
     15.71     -15.77       1.62        0.00      63.46       1.00       0.04       0.02       ----

> <Gold.Chemscore.Fitness>
15.7077

> <Gold.Chemscore.DG>
-15.7686

> <Gold.Chemscore.ZeroCoef>
-5.4800

> <Gold.Chemscore.Hbond>
1.6238

> <Gold.Chemscore.Metal>
0.0000

> <Gold.Chemscore.Lipo>
63.4623

> <Gold.Chemscore.Internal_Hbond>
0.0000

> <Gold.Chemscore.DEClash>
0.0415

> <Gold.Chemscore.DEInternal>
0.0194

> <Gold.Chemscore.Rot>
1.0000

> <Gold.Chemscore.Internal.Correction>
   9.000000E+99

> <Gold.Chemscore.Hbonds>
donor molecule, donor type, donor heavy atom, donor atom, acceptor molecule, acceptor atom, score
      L1  H    12    27       P1  8028  0.82
      P1  H  7989  7998       L1    14  0.26

> <Gold.Chemscore.Hbond.Weighted>
-5.4235

> <Gold.Chemscore.Metal.Weighted>
-0.0000

> <Gold.Chemscore.Lipo.Weighted>
-7.4251

> <Gold.Chemscore.Internal_Hbond.Weighted>
0.0000

> <Gold.Chemscore.DEClash.Weighted>
0.0415

> <Gold.Chemscore.DEInternal.Weighted>
0.0194

> <Gold.Chemscore.Rot.Weighted>
2.5600

> <Gold.Chemscore.Internal.Correction.Weighted>
   9.000000E+99

> <Gold.Protein.RotatedTorsions>
[ 6907 6896 6895 6894 ] final -159.76 input  -60.11 | X-H torsion
[ 7974 7965 7964 7962 ] final  106.93 input  175.53 | X-H torsion
[ 8008 7997 7996 7995 ] final  -22.65 input   59.86 | X-H torsion
[ 10167 10162 10161 10158 ] final   81.87 input  -65.29 | X-H torsion
[ 10718 10713 10712 10709 ] final   43.59 input   66.30 | X-H torsion
[ 10763 10752 10751 10750 ] final  -89.32 input  -60.55 | X-H torsion
[ 11005 11000 10999 10996 ] final -170.92 input  -57.11 | X-H torsion

> <Gold.Protein.ActiveResidues>
 VAL166  LYS551  ARG553  GLY616  TRP617  ASP618  TYR619  PRO620  LYS621  CYS622 
 ASP623  PHE694  ASN695  SER759  ASP760  ASP761  ALA762  ILE779  LEU786  VAL792 
 PHE793  MET794  SER795  GLU796  ALA797  LYS798  CYS799  TRP800  GLU811  SER814 

> <Gold.Protein.RotatedAtoms>
  151.3386  133.3971  159.2668 H   0  0  0  0  0  0  0  0  0  0  0  0  # atno 6907 bound_to 6896
  150.9897  134.9235  159.7902 H   0  0  0  0  0  0  0  0  0  0  0  0  # atno 6908 bound_to 6896
  152.5243  134.3350  159.9249 H   0  0  0  0  0  0  0  0  0  0  0  0  # atno 6909 bound_to 6896
  145.3003  139.2572  143.3817 H   0  0  0  0  0  0  0  0  0  0  0  0  # atno 7974 bound_to 7965
  154.4631  140.2002  156.0189 H   0  0  0  0  0  0  0  0  0  0  0  0  # atno 8008 bound_to 7997
  156.0878  140.3262  155.7747 H   0  0  0  0  0  0  0  0  0  0  0  0  # atno 8009 bound_to 7997
  155.5006  140.0553  157.2930 H   0  0  0  0  0  0  0  0  0  0  0  0  # atno 8010 bound_to 7997
  139.9348  144.6129  150.8310 H   0  0  0  0  0  0  0  0  0  0  0  0  # atno 10167 bound_to 10162
  157.4176  130.7950  149.7486 H   0  0  0  0  0  0  0  0  0  0  0  0  # atno 10718 bound_to 10713
  154.6540  135.5345  153.7936 H   0  0  0  0  0  0  0  0  0  0  0  0  # atno 10763 bound_to 10752
  153.0403  135.6489  154.0973 H   0  0  0  0  0  0  0  0  0  0  0  0  # atno 10764 bound_to 10752
  154.0888  135.2941  155.3255 H   0  0  0  0  0  0  0  0  0  0  0  0  # atno 10765 bound_to 10752
  140.5141  134.5773  157.5028 H   0  0  0  0  0  0  0  0  0  0  0  0  # atno 11005 bound_to 11000
  146.3154  140.3515  142.8656 LP  0  0  0  0  0  0  0  0  0  0  0  0  # atno 17320 bound_to 7965
  144.9099  140.7745  143.5814 LP  0  0  0  0  0  0  0  0  0  0  0  0  # atno 17321 bound_to 7965
  140.7627  143.3206  151.2631 LP  0  0  0  0  0  0  0  0  0  0  0  0  # atno 17342 bound_to 10162
  139.6753  143.9949  152.2777 LP  0  0  0  0  0  0  0  0  0  0  0  0  # atno 17343 bound_to 10162
  155.9870  130.3970  150.3185 LP  0  0  0  0  0  0  0  0  0  0  0  0  # atno 17370 bound_to 10713
  157.1330  131.0277  151.2961 LP  0  0  0  0  0  0  0  0  0  0  0  0  # atno 17371 bound_to 10713
  139.9642  134.7400  156.0172 LP  0  0  0  0  0  0  0  0  0  0  0  0  # atno 17394 bound_to 11000
  141.1370  133.6573  156.3621 LP  0  0  0  0  0  0  0  0  0  0  0  0  # atno 17395 bound_to 11000

$$$$
