AV-unprocessed.smi:1625|AV-procd|sdf|6505|dock1
  -GOLD-   22720 7173D 1   1.00000     0.00000
 Structure written by MMmdl.
 49 51  0  0  0  0  0  0  0  0  2 V2000
  147.5280  139.8751  154.4422 O   0  0  0  0  0  0  0  0  0  0  0  0
  148.3450  139.3148  153.7122 C   0  0  0  0  0  0  0  0  0  0  0  0
  148.0133  138.7068  152.5646 N   0  0  0  0  0  0  0  0  0  0  0  0
  146.6606  138.6148  152.0191 C   0  0  0  0  0  0  0  0  0  0  0  0
  145.8179  137.4854  152.6510 C   0  0  0  0  0  0  0  0  0  0  0  0
  146.2100  136.1372  152.1752 N   0  3  0  0  0  0  0  0  0  0  0  0
  146.0121  135.0383  153.1504 C   0  0  0  0  0  0  0  0  0  0  0  0
  145.4443  133.8461  152.3677 C   0  0  0  0  0  0  0  0  0  0  0  0
  145.6619  134.2071  150.9013 C   0  0  0  0  0  0  0  0  0  0  0  0
  145.5703  135.7292  150.9095 C   0  0  0  0  0  0  0  0  0  0  0  0
  149.6635  139.2183  153.9518 N   0  0  0  0  0  0  0  0  0  0  0  0
  150.4029  139.7790  155.0274 C   0  0  0  0  0  0  0  0  0  0  0  0
  149.7952  140.7884  155.7984 C   0  0  0  0  0  0  0  0  0  0  0  0
  150.5016  141.3478  156.8798 C   0  0  0  0  0  0  0  0  0  0  0  0
  151.8033  140.8767  157.1722 C   0  0  0  0  0  0  0  0  0  0  0  0
  152.5353  141.4294  158.2459 N   0  0  0  0  0  0  0  0  0  0  0  0
  152.1280  142.7399  158.7497 C   0  0  0  0  0  0  0  0  0  0  0  0
  153.1920  143.3006  159.7081 C   0  0  0  0  0  0  0  0  0  0  0  0
  153.4363  142.3647  160.7525 O   0  0  0  0  0  0  0  0  0  0  0  0
  153.9386  141.1313  160.2496 C   0  0  0  0  0  0  0  0  0  0  0  0
  152.9059  140.4929  159.3044 C   0  0  0  0  0  0  0  0  0  0  0  0
  152.3766  139.8864  156.4450 N   0  0  0  0  0  0  0  0  0  0  0  0
  151.6982  139.3552  155.4066 C   0  0  0  0  0  0  0  0  0  0  0  0
  148.7482  138.2574  152.0374 H   0  0  0  0  0  0  0  0  0  0  0  0
  146.1738  139.5750  152.1915 H   0  0  0  0  0  0  0  0  0  0  0  0
  146.7080  138.4881  150.9366 H   0  0  0  0  0  0  0  0  0  0  0  0
  145.8766  137.5311  153.7393 H   0  0  0  0  0  0  0  0  0  0  0  0
  144.7688  137.6428  152.3972 H   0  0  0  0  0  0  0  0  0  0  0  0
  146.9737  134.7924  153.6018 H   0  0  0  0  0  0  0  0  0  0  0  0
  145.3324  135.3226  153.9550 H   0  0  0  0  0  0  0  0  0  0  0  0
  145.9147  132.9010  152.6409 H   0  0  0  0  0  0  0  0  0  0  0  0
  144.3754  133.7546  152.5656 H   0  0  0  0  0  0  0  0  0  0  0  0
  146.6587  133.8962  150.5845 H   0  0  0  0  0  0  0  0  0  0  0  0
  144.9350  133.7407  150.2354 H   0  0  0  0  0  0  0  0  0  0  0  0
  144.5223  136.0343  150.9103 H   0  0  0  0  0  0  0  0  0  0  0  0
  146.0566  136.1856  150.0467 H   0  0  0  0  0  0  0  0  0  0  0  0
  150.1941  138.6408  153.3159 H   0  0  0  0  0  0  0  0  0  0  0  0
  148.7991  141.1357  155.5653 H   0  0  0  0  0  0  0  0  0  0  0  0
  150.0341  142.1168  157.4763 H   0  0  0  0  0  0  0  0  0  0  0  0
  151.9855  143.4360  157.9221 H   0  0  0  0  0  0  0  0  0  0  0  0
  151.1721  142.6472  159.2670 H   0  0  0  0  0  0  0  0  0  0  0  0
  154.1194  143.5191  159.1758 H   0  0  0  0  0  0  0  0  0  0  0  0
  152.8473  144.2382  160.1443 H   0  0  0  0  0  0  0  0  0  0  0  0
  154.8873  141.2951  159.7354 H   0  0  0  0  0  0  0  0  0  0  0  0
  154.1428  140.4640  161.0869 H   0  0  0  0  0  0  0  0  0  0  0  0
  152.0088  140.2214  159.8624 H   0  0  0  0  0  0  0  0  0  0  0  0
  153.3196  139.5696  158.9015 H   0  0  0  0  0  0  0  0  0  0  0  0
  152.2124  138.5581  154.8925 H   0  0  0  0  0  0  0  0  0  0  0  0
  147.2011  136.1690  151.9825 H   0  0  0  0  0  0  0  0  0  0  0  0
  1  2  2  0  0  0  0
  2  3  1  0  0  0  0
  2 11  1  0  0  0  0
  3  4  1  0  0  0  0
  3 24  1  0  0  0  0
  4  5  1  0  0  0  0
  4 25  1  0  0  0  0
  4 26  1  0  0  0  0
  5  6  1  0  0  0  0
  5 27  1  0  0  0  0
  5 28  1  0  0  0  0
  6 10  1  0  0  0  0
  6  7  1  0  0  0  0
  6 49  1  0  0  0  0
  7  8  1  0  0  0  0
  7 29  1  0  0  0  0
  7 30  1  0  0  0  0
  8  9  1  0  0  0  0
  8 31  1  0  0  0  0
  8 32  1  0  0  0  0
  9 10  1  0  0  0  0
  9 33  1  0  0  0  0
  9 34  1  0  0  0  0
 10 35  1  0  0  0  0
 10 36  1  0  0  0  0
 11 12  1  0  0  0  0
 11 37  1  0  0  0  0
 12 23  1  0  0  0  0
 12 13  2  0  0  0  0
 13 14  1  0  0  0  0
 13 38  1  0  0  0  0
 14 15  2  0  0  0  0
 14 39  1  0  0  0  0
 15 16  1  0  0  0  0
 15 22  1  0  0  0  0
 16 21  1  0  0  0  0
 16 17  1  0  0  0  0
 17 18  1  0  0  0  0
 17 40  1  0  0  0  0
 17 41  1  0  0  0  0
 18 19  1  0  0  0  0
 18 42  1  0  0  0  0
 18 43  1  0  0  0  0
 19 20  1  0  0  0  0
 20 21  1  0  0  0  0
 20 44  1  0  0  0  0
 20 45  1  0  0  0  0
 21 46  1  0  0  0  0
 21 47  1  0  0  0  0
 22 23  2  0  0  0  0
 23 48  1  0  0  0  0
M  CHG  1   6   1
M  END
> <s_m_source_file>
AV-unprocessed.smi

> <i_m_source_file_index>
1625

> <i_lp_mmshare_version>
43012

> <i_f3d_flags>
0

> <s_epik_input>
W0NIMl0xW0NIMl1bQ0gyXVtDSDJdTjFbQ0gyXVtDSDJdW05IXUMoPU8pW05IXWMyW2NIXVtjSF1jKG5bY0hdMilOM1tDSDJdW0NIMl1PW0NIMl1bQ0gyXTM=

> <s_epik_cmdline>
J2VwaWtfcHl0aG9uJywgJy1waCcsICc3LjAnLCAnLXRuJywgJzgnLCAnLW1hJywgJzIwMCcsICctbWV0YWxfYmluZGluZycsICctaW1hZScsICc8aW5maWxlLm1hZT4nLCAnLW9tYWUnLCAnPG91dGZpbGUubWFlPic=

> <r_lp_tautomer_probability>
1

> <r_epik_Ionization_Penalty>
0.00378777

> <r_epik_Ionization_Penalty_Charging>
0.00210487

> <r_epik_Ionization_Penalty_Neutral>
0.0016829

> <r_epik_State_Penalty>
-0

> <r_epik_Charging_Adjusted_Penalty>
0.00210487

> <i_epik_Tot_Q>
1

> <i_epik_Tot_abs_Q>
1

> <r_epik_Metal_State_Penalty>
-0

> <b_epik_Metal_Only>
0

> <s_lp_Force_Field>
OPLS_2005

> <r_lp_Energy>
50.0619

> <b_lp_Chiralities_Consistent>
1

> <s_lp_Variant>
AV-unprocessed.smi:1625-1

> <Gold.Version>
5.8.1

> <Gold.Id.Protein>
6NUR|6NUR_protein|mol2

> <Gold.PLP.Fitness>
52.9970

> <Gold.PLP.PLP>
-44.0194

> <Gold.PLP.part.hbond>
-4.8546

> <Gold.PLP.part.metal>
0.0000

> <Gold.PLP.part.buried>
-3.8977

> <Gold.PLP.part.nonpolar>
-35.2633

> <Gold.PLP.part.repulsive>
0.3096

> <Gold.PLP.ligand.clash>
0.0000

> <Gold.PLP.ligand.torsion>
0.8659

> <Gold.PLP.Chemscore.Hbond>
3.4290

> <Gold.PLP.Chemscore.CHOScore>
0.0000

> <Gold.PLP.Chemscore.Metal>
0.0000

> <Gold.Chemscore.Hbonds>
donor molecule, donor type, donor heavy atom, donor atom, acceptor molecule, acceptor atom, score
      L1  H     3    24       P1  7948  0.51
      L1  H     6    49       P1  7948  2.00
      P1  H  7997  8009       L1    22  1.00

> <Gold.PLP.Chemscore.Internal.Correction>
0.4224

> <Gold.Rescore>
     Score         DG    S(hbond)    S(metal)    S(lipo)     H(rot)  DE(clash)    DE(int)     intcor
     18.77     -21.06       2.36        0.00     101.89       1.65       0.22       2.07       ----

> <Gold.Chemscore.Fitness>
18.7728

> <Gold.Chemscore.DG>
-21.0560

> <Gold.Chemscore.ZeroCoef>
-5.4800

> <Gold.Chemscore.Hbond>
2.3586

> <Gold.Chemscore.Metal>
0.0000

> <Gold.Chemscore.Lipo>
101.8895

> <Gold.Chemscore.Internal_Hbond>
0.0000

> <Gold.Chemscore.DEClash>
0.2166

> <Gold.Chemscore.DEInternal>
2.0666

> <Gold.Chemscore.Rot>
1.6495

> <Gold.Chemscore.Internal.Correction>
   9.000000E+99

> <Gold.Chemscore.Hbonds>
donor molecule, donor type, donor heavy atom, donor atom, acceptor molecule, acceptor atom, score
      L1  H     3    24       P1  7948  0.49
      L1  H     6    49       P1  7948  1.00
      P1  H  7997  8009       L1    22  0.75

> <Gold.Chemscore.Hbond.Weighted>
-7.8778

> <Gold.Chemscore.Metal.Weighted>
-0.0000

> <Gold.Chemscore.Lipo.Weighted>
-11.9211

> <Gold.Chemscore.Internal_Hbond.Weighted>
0.0000

> <Gold.Chemscore.DEClash.Weighted>
0.2166

> <Gold.Chemscore.DEInternal.Weighted>
2.0666

> <Gold.Chemscore.Rot.Weighted>
4.2228

> <Gold.Chemscore.Internal.Correction.Weighted>
   9.000000E+99

> <Gold.Protein.RotatedTorsions>
[ 6907 6896 6895 6894 ] final -175.16 input  -60.11 | X-H torsion
[ 7974 7965 7964 7962 ] final -130.99 input  175.53 | X-H torsion
[ 8008 7997 7996 7995 ] final -161.28 input   59.86 | X-H torsion
[ 10167 10162 10161 10158 ] final   90.20 input  -65.29 | X-H torsion
[ 10718 10713 10712 10709 ] final  134.17 input   66.30 | X-H torsion
[ 10763 10752 10751 10750 ] final    4.15 input  -60.55 | X-H torsion
[ 11005 11000 10999 10996 ] final -119.95 input  -57.11 | X-H torsion

> <Gold.Protein.ActiveResidues>
 VAL166  LYS551  ARG553  GLY616  TRP617  ASP618  TYR619  PRO620  LYS621  CYS622 
 ASP623  PHE694  ASN695  SER759  ASP760  ASP761  ALA762  ILE779  LEU786  VAL792 
 PHE793  MET794  SER795  GLU796  ALA797  LYS798  CYS799  TRP800  GLU811  SER814 

> <Gold.Protein.RotatedAtoms>
  151.5840  133.3374  159.3013 H   0  0  0  0  0  0  0  0  0  0  0  0  # atno 6907 bound_to 6896
  150.8297  134.7548  159.6854 H   0  0  0  0  0  0  0  0  0  0  0  0  # atno 6908 bound_to 6896
  152.4382  134.5650  159.9956 H   0  0  0  0  0  0  0  0  0  0  0  0  # atno 6909 bound_to 6896
  144.9422  140.7251  143.4840 H   0  0  0  0  0  0  0  0  0  0  0  0  # atno 7974 bound_to 7965
  155.7898  140.0877  157.2015 H   0  0  0  0  0  0  0  0  0  0  0  0  # atno 8008 bound_to 7997
  154.3986  140.1492  156.3208 H   0  0  0  0  0  0  0  0  0  0  0  0  # atno 8009 bound_to 7997
  155.8570  140.3432  155.5733 H   0  0  0  0  0  0  0  0  0  0  0  0  # atno 8010 bound_to 7997
  139.8497  144.6600  150.9185 H   0  0  0  0  0  0  0  0  0  0  0  0  # atno 10167 bound_to 10162
  157.4699  131.1079  150.9815 H   0  0  0  0  0  0  0  0  0  0  0  0  # atno 10718 bound_to 10713
  153.2747  135.6935  153.7445 H   0  0  0  0  0  0  0  0  0  0  0  0  # atno 10763 bound_to 10752
  153.6455  135.3386  155.3085 H   0  0  0  0  0  0  0  0  0  0  0  0  # atno 10764 bound_to 10752
  154.8476  135.4442  154.1781 H   0  0  0  0  0  0  0  0  0  0  0  0  # atno 10765 bound_to 10752
  141.0179  134.0168  157.3324 H   0  0  0  0  0  0  0  0  0  0  0  0  # atno 11005 bound_to 11000
  145.2974  139.1862  143.4708 LP  0  0  0  0  0  0  0  0  0  0  0  0  # atno 17320 bound_to 7965
  146.3290  140.2960  142.8618 LP  0  0  0  0  0  0  0  0  0  0  0  0  # atno 17321 bound_to 7965
  140.7789  143.3838  151.1429 LP  0  0  0  0  0  0  0  0  0  0  0  0  # atno 17342 bound_to 10162
  139.7478  143.8826  152.3068 LP  0  0  0  0  0  0  0  0  0  0  0  0  # atno 17343 bound_to 10162
  157.0584  130.5815  149.5381 LP  0  0  0  0  0  0  0  0  0  0  0  0  # atno 17370 bound_to 10713
  156.0068  130.5156  150.7857 LP  0  0  0  0  0  0  0  0  0  0  0  0  # atno 17371 bound_to 10713
  139.9128  135.0193  156.7760 LP  0  0  0  0  0  0  0  0  0  0  0  0  # atno 17394 bound_to 11000
  140.6624  133.9633  155.7812 LP  0  0  0  0  0  0  0  0  0  0  0  0  # atno 17395 bound_to 11000

$$$$
