AV-unprocessed.smi:100|AV-procd|sdf|897|dock7
  -GOLD-   2262017393D 1   1.00000     0.00000
 Structure written by MMmdl.
 31 33  0  0  0  0  0  0  0  0  1 V2000
  152.8889  140.7918  159.3535 N   0  0  0  0  0  0  0  0  0  0  0  0
  152.5109  140.2480  158.1885 C   0  0  0  0  0  0  0  0  0  0  0  0
  153.1976  139.1771  157.7246 N   0  0  0  0  0  0  0  0  0  0  0  0
  152.8386  138.6154  156.5652 C   0  0  0  0  0  0  0  0  0  0  0  0
  151.8478  138.9631  155.7386 N   0  0  0  0  0  0  0  0  0  0  0  0
  151.1607  140.0451  156.2089 C   0  0  0  0  0  0  0  0  0  0  0  0
  151.4259  140.7404  157.4205 C   0  0  0  0  0  0  0  0  0  0  0  0
  150.5203  141.7820  157.5762 N   0  0  0  0  0  0  0  0  0  0  0  0
  149.7647  141.7024  156.5133 C   0  0  0  0  0  0  0  0  0  0  0  0
  150.0844  140.6870  155.6371 N   0  0  0  0  0  0  0  0  0  0  0  0
  149.4213  140.3222  154.3510 C   0  0  2  0  0  0  0  0  0  0  0  0
  148.2505  141.0780  154.2585 O   0  0  0  0  0  0  0  0  0  0  0  0
  147.1504  140.2602  153.8737 C   0  0  1  0  0  0  0  0  0  0  0  0
  147.0332  140.2578  152.3371 C   0  0  0  0  0  0  0  0  0  0  0  0
  146.0705  139.3102  151.9284 O   0  0  0  0  0  0  0  0  0  0  0  0
  147.5105  138.8905  154.4536 C   0  0  2  0  0  0  0  0  0  0  0  0
  147.1324  138.8401  155.7320 F   0  0  0  0  0  0  0  0  0  0  0  0
  149.0281  138.8362  154.3749 C   0  0  1  0  0  0  0  0  0  0  0  0
  149.4455  138.1540  153.2093 O   0  0  0  0  0  0  0  0  0  0  0  0
  152.3910  141.5905  159.7196 H   0  0  0  0  0  0  0  0  0  0  0  0
  153.6698  140.4032  159.8620 H   0  0  0  0  0  0  0  0  0  0  0  0
  153.4295  137.7662  156.2550 H   0  0  0  0  0  0  0  0  0  0  0  0
  148.9472  142.3869  156.3384 H   0  0  0  0  0  0  0  0  0  0  0  0
  150.1286  140.5934  153.5656 H   0  0  0  0  0  0  0  0  0  0  0  0
  146.2233  140.6280  154.3161 H   0  0  0  0  0  0  0  0  0  0  0  0
  146.7792  141.2428  151.9446 H   0  0  0  0  0  0  0  0  0  0  0  0
  147.9832  139.9674  151.8876 H   0  0  0  0  0  0  0  0  0  0  0  0
  145.2103  139.6721  152.0765 H   0  0  0  0  0  0  0  0  0  0  0  0
  147.0136  138.0586  153.9527 H   0  0  0  0  0  0  0  0  0  0  0  0
  149.4606  138.3266  155.2376 H   0  0  0  0  0  0  0  0  0  0  0  0
  149.7703  138.7911  152.5908 H   0  0  0  0  0  0  0  0  0  0  0  0
  1  2  1  0  0  0  0
  1 20  1  0  0  0  0
  1 21  1  0  0  0  0
  2  7  1  0  0  0  0
  2  3  2  0  0  0  0
  3  4  1  0  0  0  0
  4  5  2  0  0  0  0
  4 22  1  0  0  0  0
  5  6  1  0  0  0  0
  6 10  1  0  0  0  0
  6  7  2  0  0  0  0
  7  8  1  0  0  0  0
  8  9  2  0  0  0  0
  9 10  1  0  0  0  0
  9 23  1  0  0  0  0
 10 11  1  0  0  0  0
 11 18  1  0  0  0  0
 11 12  1  0  0  0  0
 11 24  1  0  0  0  0
 12 13  1  0  0  0  0
 13 14  1  0  0  0  0
 13 16  1  0  0  0  0
 13 25  1  0  0  0  0
 14 15  1  0  0  0  0
 14 26  1  0  0  0  0
 14 27  1  0  0  0  0
 15 28  1  0  0  0  0
 16 17  1  0  0  0  0
 16 18  1  0  0  0  0
 16 29  1  0  0  0  0
 18 19  1  0  0  0  0
 18 30  1  0  0  0  0
 19 31  1  0  0  0  0
M  END
> <s_m_source_file>
AV-unprocessed.smi

> <i_m_source_file_index>
100

> <i_lp_mmshare_version>
43012

> <i_f3d_flags>
0

> <s_epik_input>
bjFbY0hdbmMoW05IMl0pYyhjMTIpbltjSF1uMltDQEBIXTNPW0NAQEhdKFtDSDJdW09IXSlbQ0BIXShGKVtDQEhdM1tPSF0=

> <s_epik_cmdline>
J2VwaWtfcHl0aG9uJywgJy1waCcsICc3LjAnLCAnLXRuJywgJzgnLCAnLW1hJywgJzIwMCcsICctbWV0YWxfYmluZGluZycsICctaW1hZScsICc8aW5maWxlLm1hZT4nLCAnLW9tYWUnLCAnPG91dGZpbGUubWFlPic=

> <r_lp_tautomer_probability>
1

> <r_epik_Ionization_Penalty>
0.000750324

> <r_epik_Ionization_Penalty_Charging>
0

> <r_epik_Ionization_Penalty_Neutral>
0.000750324

> <r_epik_State_Penalty>
-0

> <r_epik_Charging_Adjusted_Penalty>
0

> <i_epik_Tot_Q>
0

> <i_epik_Tot_abs_Q>
0

> <r_epik_Metal_State_Penalty>
-0

> <b_epik_Metal_Only>
0

> <s_epik_Chemistry_Notes>
This compound contains an acetal/aminal-like group ( X-CH(R)-Y where X, Y are N, S, or O) that may be acid/base labile, releasing an aldehyde.

> <s_lp_Force_Field>
OPLS_2005

> <r_lp_Energy>
27.7777

> <b_lp_Chiralities_Consistent>
1

> <s_lp_Variant>
AV-unprocessed.smi:100-1

> <Gold.Version>
5.8.1

> <Gold.Id.Protein>
6NUR|6NUR_protein|mol2

> <Gold.PLP.Fitness>
35.3562

> <Gold.PLP.PLP>
-23.7918

> <Gold.PLP.part.hbond>
-4.4589

> <Gold.PLP.part.metal>
0.0000

> <Gold.PLP.part.buried>
0.2306

> <Gold.PLP.part.nonpolar>
-19.5631

> <Gold.PLP.part.repulsive>
0.3043

> <Gold.PLP.ligand.clash>
0.0000

> <Gold.PLP.ligand.torsion>
0.1400

> <Gold.PLP.Chemscore.Hbond>
2.9424

> <Gold.PLP.Chemscore.CHOScore>
1.0000

> <Gold.PLP.Chemscore.Metal>
0.0000

> <Gold.Chemscore.Hbonds>
donor molecule, donor type, donor heavy atom, donor atom, acceptor molecule, acceptor atom, score
      L1  H    15    28       P1 10175  1.00
      L1  H    19    31       P1  7957  1.00
      P1  H  7997  8010       L1     3  0.94
      L1  C     9    23       P1  8028  1.00

> <Gold.PLP.Chemscore.Internal.Correction>
0.0172

> <Gold.Rescore>
     Score         DG    S(hbond)    S(metal)    S(lipo)     H(rot)  DE(clash)    DE(int)     intcor
      6.19      -7.15       1.97        0.00      27.74       3.19       0.88       0.09       ----

> <Gold.Chemscore.Fitness>
6.1871

> <Gold.Chemscore.DG>
-7.1503

> <Gold.Chemscore.ZeroCoef>
-5.4800

> <Gold.Chemscore.Hbond>
1.9735

> <Gold.Chemscore.Metal>
0.0000

> <Gold.Chemscore.Lipo>
27.7386

> <Gold.Chemscore.Internal_Hbond>
0.0000

> <Gold.Chemscore.DEClash>
0.8751

> <Gold.Chemscore.DEInternal>
0.0881

> <Gold.Chemscore.Rot>
3.1901

> <Gold.Chemscore.Internal.Correction>
   9.000000E+99

> <Gold.Chemscore.Hbonds>
donor molecule, donor type, donor heavy atom, donor atom, acceptor molecule, acceptor atom, score
      L1  H    15    28       P1 10175  0.93
      L1  H    19    31       P1  7957  0.64
      P1  H  7997  8010       L1     3  0.05

> <Gold.Chemscore.Hbond.Weighted>
-6.5916

> <Gold.Chemscore.Metal.Weighted>
-0.0000

> <Gold.Chemscore.Lipo.Weighted>
-3.2454

> <Gold.Chemscore.Internal_Hbond.Weighted>
0.0000

> <Gold.Chemscore.DEClash.Weighted>
0.8751

> <Gold.Chemscore.DEInternal.Weighted>
0.0881

> <Gold.Chemscore.Rot.Weighted>
8.1667

> <Gold.Chemscore.Internal.Correction.Weighted>
   9.000000E+99

> <Gold.Protein.RotatedTorsions>
[ 6907 6896 6895 6894 ] final  -42.94 input  -60.11 | X-H torsion
[ 7974 7965 7964 7962 ] final   52.21 input  175.53 | X-H torsion
[ 8008 7997 7996 7995 ] final   20.49 input   59.86 | X-H torsion
[ 10167 10162 10161 10158 ] final  165.12 input  -65.29 | X-H torsion
[ 10718 10713 10712 10709 ] final   89.61 input   66.30 | X-H torsion
[ 10763 10752 10751 10750 ] final -174.26 input  -60.55 | X-H torsion
[ 11005 11000 10999 10996 ] final   22.64 input  -57.11 | X-H torsion

> <Gold.Protein.ActiveResidues>
 VAL166  LYS551  ARG553  GLY616  TRP617  ASP618  TYR619  PRO620  LYS621  CYS622 
 ASP623  PHE694  ASN695  SER759  ASP760  ASP761  ALA762  ILE779  LEU786  VAL792 
 PHE793  MET794  SER795  GLU796  ALA797  LYS798  CYS799  TRP800  GLU811  SER814 

> <Gold.Protein.RotatedAtoms>
  150.9495  134.8897  159.7662 H   0  0  0  0  0  0  0  0  0  0  0  0  # atno 6907 bound_to 6896
  152.5114  134.3826  159.9366 H   0  0  0  0  0  0  0  0  0  0  0  0  # atno 6908 bound_to 6896
  151.3843  133.3770  159.2748 H   0  0  0  0  0  0  0  0  0  0  0  0  # atno 6909 bound_to 6896
  145.9836  139.4267  143.0116 H   0  0  0  0  0  0  0  0  0  0  0  0  # atno 7974 bound_to 7965
  154.9364  140.3047  155.5142 H   0  0  0  0  0  0  0  0  0  0  0  0  # atno 8008 bound_to 7997
  156.2999  140.2344  156.4366 H   0  0  0  0  0  0  0  0  0  0  0  0  # atno 8009 bound_to 7997
  154.8187  140.0424  157.1384 H   0  0  0  0  0  0  0  0  0  0  0  0  # atno 8010 bound_to 7997
  139.4900  144.4165  151.9237 H   0  0  0  0  0  0  0  0  0  0  0  0  # atno 10167 bound_to 10162
  157.6956  131.0340  150.3452 H   0  0  0  0  0  0  0  0  0  0  0  0  # atno 10718 bound_to 10713
  154.5982  135.2852  155.0563 H   0  0  0  0  0  0  0  0  0  0  0  0  # atno 10763 bound_to 10752
  154.1838  135.6452  153.5045 H   0  0  0  0  0  0  0  0  0  0  0  0  # atno 10764 bound_to 10752
  153.0147  135.5430  154.6692 H   0  0  0  0  0  0  0  0  0  0  0  0  # atno 10765 bound_to 10752
  140.3783  134.1948  155.7664 H   0  0  0  0  0  0  0  0  0  0  0  0  # atno 11005 bound_to 11000
  145.7733  140.9887  143.1138 LP  0  0  0  0  0  0  0  0  0  0  0  0  # atno 17320 bound_to 7965
  144.6868  139.9474  143.7477 LP  0  0  0  0  0  0  0  0  0  0  0  0  # atno 17321 bound_to 7965
  140.3608  144.2975  150.5934 LP  0  0  0  0  0  0  0  0  0  0  0  0  # atno 17342 bound_to 10162
  140.5404  143.2224  151.8093 LP  0  0  0  0  0  0  0  0  0  0  0  0  # atno 17343 bound_to 10162
  156.3908  130.3897  149.7031 LP  0  0  0  0  0  0  0  0  0  0  0  0  # atno 17370 bound_to 10713
  156.4382  130.7848  151.2869 LP  0  0  0  0  0  0  0  0  0  0  0  0  # atno 17371 bound_to 10713
  141.1932  133.8156  157.0809 LP  0  0  0  0  0  0  0  0  0  0  0  0  # atno 17394 bound_to 11000
  140.0498  134.9811  157.1115 LP  0  0  0  0  0  0  0  0  0  0  0  0  # atno 17395 bound_to 11000

$$$$
