AV-unprocessed.smi:54|AV-procd|sdf|553|dock3
  -GOLD-   2262016453D 1   1.00000     0.00000
 Structure written by MMmdl.
 43 45  0  0  0  0  0  0  0  0  2 V2000
  151.0531  144.5353  159.3337 C   0  0  0  0  0  0  0  0  0  0  0  0
  151.9136  143.2613  159.3645 C   0  0  0  0  0  0  0  0  0  0  0  0
  153.4052  143.5930  159.1903 C   0  0  0  0  0  0  0  0  0  0  0  0
  151.4450  142.2707  158.2899 C   0  0  0  0  0  0  0  0  0  0  0  0
  150.4447  142.5389  157.6209 O   0  0  0  0  0  0  0  0  0  0  0  0
  152.1975  141.1573  158.1532 N   0  0  0  0  0  0  0  0  0  0  0  0
  151.9996  140.0846  157.2787 C   0  0  0  0  0  0  0  0  0  0  0  0
  150.8725  139.9870  156.6096 N   0  0  0  0  0  0  0  0  0  0  0  0
  150.8307  138.8632  155.8054 C   0  0  0  0  0  0  0  0  0  0  0  0
  151.7975  137.9048  155.6620 C   0  0  0  0  0  0  0  0  0  0  0  0
  151.4067  136.9146  154.7689 N   0  0  0  0  0  0  0  0  0  0  0  0
  150.1923  137.3272  154.4115 C   0  0  0  0  0  0  0  0  0  0  0  0
  149.7743  138.4729  154.9841 N   0  0  0  0  0  0  0  0  0  0  0  0
  148.4456  139.1282  154.7662 C   0  0  2  0  0  0  0  0  0  0  0  0
  147.7269  138.4235  153.8063 O   0  0  0  0  0  0  0  0  0  0  0  0
  146.8423  139.3123  153.1293 C   0  0  2  0  0  0  0  0  0  0  0  0
  146.8658  138.9978  151.6221 C   0  0  0  0  0  0  0  0  0  0  0  0
  146.4899  137.6626  151.3504 O   0  0  0  0  0  0  0  0  0  0  0  0
  147.2469  140.7490  153.5202 C   0  0  1  0  0  0  0  0  0  0  0  0
  146.2738  141.2877  154.3955 O   0  0  0  0  0  0  0  0  0  0  0  0
  148.5659  140.5715  154.2609 C   0  0  2  0  0  0  0  0  0  0  0  0
  149.6670  140.7716  153.3948 O   0  0  0  0  0  0  0  0  0  0  0  0
  153.0356  138.0747  156.4595 C   0  0  0  0  0  0  0  0  0  0  0  0
  153.9292  137.2357  156.3629 O   0  0  0  0  0  0  0  0  0  0  0  0
  153.0736  139.1824  157.2593 N   0  5  0  0  0  0  0  0  0  0  0  0
  147.9302  139.0597  155.7253 H   0  0  0  0  0  0  0  0  0  0  0  0
  145.8387  139.0913  153.4971 H   0  0  0  0  0  0  0  0  0  0  0  0
  147.3336  141.4204  152.6646 H   0  0  0  0  0  0  0  0  0  0  0  0
  148.6746  141.2517  155.1069 H   0  0  0  0  0  0  0  0  0  0  0  0
  149.9947  144.3013  159.4555 H   0  0  0  0  0  0  0  0  0  0  0  0
  151.1687  145.0751  158.3929 H   0  0  0  0  0  0  0  0  0  0  0  0
  151.3329  145.2136  160.1402 H   0  0  0  0  0  0  0  0  0  0  0  0
  151.7869  142.7947  160.3430 H   0  0  0  0  0  0  0  0  0  0  0  0
  154.0159  142.6893  159.1970 H   0  0  0  0  0  0  0  0  0  0  0  0
  153.7587  144.2323  159.9998 H   0  0  0  0  0  0  0  0  0  0  0  0
  153.5940  144.1158  158.2518 H   0  0  0  0  0  0  0  0  0  0  0  0
  153.0427  141.1353  158.7043 H   0  0  0  0  0  0  0  0  0  0  0  0
  149.5806  136.7729  153.7150 H   0  0  0  0  0  0  0  0  0  0  0  0
  146.2134  139.6822  151.0802 H   0  0  0  0  0  0  0  0  0  0  0  0
  147.8728  139.1439  151.2310 H   0  0  0  0  0  0  0  0  0  0  0  0
  147.2736  137.1525  151.2130 H   0  0  0  0  0  0  0  0  0  0  0  0
  145.4413  140.8875  154.1972 H   0  0  0  0  0  0  0  0  0  0  0  0
  149.5985  140.1535  152.6816 H   0  0  0  0  0  0  0  0  0  0  0  0
  1  2  1  0  0  0  0
  1 30  1  0  0  0  0
  1 31  1  0  0  0  0
  1 32  1  0  0  0  0
  2  3  1  0  0  0  0
  2  4  1  0  0  0  0
  2 33  1  0  0  0  0
  3 34  1  0  0  0  0
  3 35  1  0  0  0  0
  3 36  1  0  0  0  0
  4  5  2  0  0  0  0
  4  6  1  0  0  0  0
  6 37  1  0  0  0  0
  6  7  1  0  0  0  0
  7 25  1  0  0  0  0
  7  8  2  0  0  0  0
  8  9  1  0  0  0  0
  9 13  1  0  0  0  0
  9 10  2  0  0  0  0
 10 11  1  0  0  0  0
 10 23  1  0  0  0  0
 11 12  2  0  0  0  0
 12 13  1  0  0  0  0
 12 38  1  0  0  0  0
 13 14  1  0  0  0  0
 14 26  1  0  0  0  0
 14 21  1  0  0  0  0
 14 15  1  0  0  0  0
 15 16  1  0  0  0  0
 16 27  1  0  0  0  0
 16 17  1  0  0  0  0
 16 19  1  0  0  0  0
 17 18  1  0  0  0  0
 17 39  1  0  0  0  0
 17 40  1  0  0  0  0
 18 41  1  0  0  0  0
 19 28  1  0  0  0  0
 19 20  1  0  0  0  0
 19 21  1  0  0  0  0
 20 42  1  0  0  0  0
 21 29  1  0  0  0  0
 21 22  1  0  0  0  0
 22 43  1  0  0  0  0
 23 24  2  0  0  0  0
 23 25  1  0  0  0  0
M  CHG  1  25  -1
M  END
> <s_m_source_file>
AV-unprocessed.smi

> <i_m_source_file_index>
54

> <i_lp_mmshare_version>
43012

> <i_f3d_flags>
0

> <s_epik_input>
W0NIM11bQ0hdKFtDSDNdKUMoPU8pW05IXWMobjEpW25IXWMoPU8pYyhjMTIpbltjSF1uMltDQEBIXTNPW0NASF0oW0NIMl1bT0hdKVtDQEBIXShbT0hdKVtDQEhdM1tPSF0=

> <s_epik_cmdline>
J2VwaWtfcHl0aG9uJywgJy1waCcsICc3LjAnLCAnLXRuJywgJzgnLCAnLW1hJywgJzIwMCcsICctbWV0YWxfYmluZGluZycsICctaW1hZScsICc8aW5maWxlLm1hZT4nLCAnLW9tYWUnLCAnPG91dGZpbGUubWFlPic=

> <r_lp_tautomer_probability>
0.85571

> <r_epik_Ionization_Penalty>
1.75936

> <r_epik_Ionization_Penalty_Charging>
4.55893e-11

> <r_epik_Ionization_Penalty_Neutral>
1.75936

> <r_epik_State_Penalty>
1.72072

> <r_epik_Charging_Adjusted_Penalty>
1.72072

> <i_epik_Tot_Q>
-1

> <i_epik_Tot_abs_Q>
1

> <r_epik_Metal_State_Penalty>
0.400338

> <b_epik_Metal_Only>
1

> <s_epik_Chemistry_Notes>
This compound contains an acetal/aminal-like group ( X-CH(R)-Y where X, Y are N, S, or O) that may be acid/base labile, releasing an aldehyde.

> <s_lp_Force_Field>
OPLS_2005

> <r_lp_Energy>
60.6136

> <b_lp_Chiralities_Consistent>
1

> <s_lp_Variant>
AV-unprocessed.smi:54-25

> <Gold.Version>
5.8.1

> <Gold.Id.Protein>
6NUR|6NUR_protein|mol2

> <Gold.PLP.Fitness>
61.3160

> <Gold.PLP.PLP>
-40.0115

> <Gold.PLP.part.hbond>
-7.3750

> <Gold.PLP.part.metal>
0.0000

> <Gold.PLP.part.buried>
-4.2536

> <Gold.PLP.part.nonpolar>
-30.3440

> <Gold.PLP.part.repulsive>
0.5516

> <Gold.PLP.ligand.clash>
0.0000

> <Gold.PLP.ligand.torsion>
0.1336

> <Gold.PLP.Chemscore.Hbond>
6.2478

> <Gold.PLP.Chemscore.CHOScore>
0.9225

> <Gold.PLP.Chemscore.Metal>
0.0000

> <Gold.Chemscore.Hbonds>
donor molecule, donor type, donor heavy atom, donor atom, acceptor molecule, acceptor atom, score
      L1  H    18    41       P1  7948  1.00
      L1  H    22    43       P1  7957  0.86
      P1  H  7989  7998       L1    22  0.29
      P1  H  7997  8010       L1    25  2.00
      P1  H  8011  8017       L1    22  0.90
      P1  H 10752 10763       L1    24  0.20
      P1  H 10752 10765       L1    11  1.00
      L1  C    12    38       P1  7948  0.92

> <Gold.PLP.Chemscore.Internal.Correction>
0.0609

> <Gold.Rescore>
     Score         DG    S(hbond)    S(metal)    S(lipo)     H(rot)  DE(clash)    DE(int)     intcor
     14.73     -16.45       3.86        0.00      71.53       4.02       0.26       1.45       ----

> <Gold.Chemscore.Fitness>
14.7303

> <Gold.Chemscore.DG>
-16.4452

> <Gold.Chemscore.ZeroCoef>
-5.4800

> <Gold.Chemscore.Hbond>
3.8580

> <Gold.Chemscore.Metal>
0.0000

> <Gold.Chemscore.Lipo>
71.5268

> <Gold.Chemscore.Internal_Hbond>
0.0000

> <Gold.Chemscore.DEClash>
0.2621

> <Gold.Chemscore.DEInternal>
1.4527

> <Gold.Chemscore.Rot>
4.0192

> <Gold.Chemscore.Internal.Correction>
   9.000000E+99

> <Gold.Chemscore.Hbonds>
donor molecule, donor type, donor heavy atom, donor atom, acceptor molecule, acceptor atom, score
      L1  H    18    41       P1  7948  0.95
      L1  H    20    42       P1 10175  0.02
      L1  H    22    43       P1  7957  0.78
      P1  H  7989  7998       L1    22  0.06
      P1  H  7997  8010       L1    25  0.46
      P1  H  8011  8017       L1    22  0.17
      P1  H 10752 10763       L1    24  0.20
      P1  H 10752 10765       L1    11  0.77

> <Gold.Chemscore.Hbond.Weighted>
-12.8858

> <Gold.Chemscore.Metal.Weighted>
-0.0000

> <Gold.Chemscore.Lipo.Weighted>
-8.3686

> <Gold.Chemscore.Internal_Hbond.Weighted>
0.0000

> <Gold.Chemscore.DEClash.Weighted>
0.2621

> <Gold.Chemscore.DEInternal.Weighted>
1.4527

> <Gold.Chemscore.Rot.Weighted>
10.2893

> <Gold.Chemscore.Internal.Correction.Weighted>
   9.000000E+99

> <Gold.Protein.RotatedTorsions>
[ 6907 6896 6895 6894 ] final -165.05 input  -60.11 | X-H torsion
[ 7974 7965 7964 7962 ] final -175.59 input  175.53 | X-H torsion
[ 8008 7997 7996 7995 ] final   40.24 input   59.86 | X-H torsion
[ 10167 10162 10161 10158 ] final  -33.83 input  -65.29 | X-H torsion
[ 10718 10713 10712 10709 ] final   95.48 input   66.30 | X-H torsion
[ 10763 10752 10751 10750 ] final  163.68 input  -60.55 | X-H torsion
[ 11005 11000 10999 10996 ] final -172.24 input  -57.11 | X-H torsion

> <Gold.Protein.ActiveResidues>
 VAL166  LYS551  ARG553  GLY616  TRP617  ASP618  TYR619  PRO620  LYS621  CYS622 
 ASP623  PHE694  ASN695  SER759  ASP760  ASP761  ALA762  ILE779  LEU786  VAL792 
 PHE793  MET794  SER795  GLU796  ALA797  LYS798  CYS799  TRP800  GLU811  SER814 

> <Gold.Protein.RotatedAtoms>
  151.4216  133.3696  159.2756 H   0  0  0  0  0  0  0  0  0  0  0  0  # atno 6907 bound_to 6896
  150.9289  134.8707  159.7549 H   0  0  0  0  0  0  0  0  0  0  0  0  # atno 6908 bound_to 6896
  152.5019  134.4159  159.9516 H   0  0  0  0  0  0  0  0  0  0  0  0  # atno 6909 bound_to 6896
  144.7128  140.1298  143.6399 H   0  0  0  0  0  0  0  0  0  0  0  0  # atno 7974 bound_to 7965
  155.2499  140.3351  155.4283 H   0  0  0  0  0  0  0  0  0  0  0  0  # atno 8008 bound_to 7997
  156.2220  140.1813  156.7498 H   0  0  0  0  0  0  0  0  0  0  0  0  # atno 8009 bound_to 7997
  154.5840  140.0649  156.9129 H   0  0  0  0  0  0  0  0  0  0  0  0  # atno 8010 bound_to 7997
  140.7197  143.3591  151.1998 H   0  0  0  0  0  0  0  0  0  0  0  0  # atno 10167 bound_to 10162
  157.6938  131.0547  150.4346 H   0  0  0  0  0  0  0  0  0  0  0  0  # atno 10718 bound_to 10713
  154.2974  135.2759  155.2627 H   0  0  0  0  0  0  0  0  0  0  0  0  # atno 10763 bound_to 10752
  154.5079  135.5790  153.6585 H   0  0  0  0  0  0  0  0  0  0  0  0  # atno 10764 bound_to 10752
  152.9905  135.6174  154.3143 H   0  0  0  0  0  0  0  0  0  0  0  0  # atno 10765 bound_to 10752
  140.4992  134.5910  157.4982 H   0  0  0  0  0  0  0  0  0  0  0  0  # atno 11005 bound_to 11000
  145.9297  139.2598  143.1332 LP  0  0  0  0  0  0  0  0  0  0  0  0  # atno 17320 bound_to 7965
  145.9535  140.8890  143.0247 LP  0  0  0  0  0  0  0  0  0  0  0  0  # atno 17321 bound_to 7965
  139.7139  143.9331  152.2959 LP  0  0  0  0  0  0  0  0  0  0  0  0  # atno 17342 bound_to 10162
  139.9066  144.6881  150.8608 LP  0  0  0  0  0  0  0  0  0  0  0  0  # atno 17343 bound_to 10162
  156.4710  130.4052  149.6518 LP  0  0  0  0  0  0  0  0  0  0  0  0  # atno 17370 bound_to 10713
  156.3599  130.7476  151.2446 LP  0  0  0  0  0  0  0  0  0  0  0  0  # atno 17371 bound_to 10713
  139.9723  134.7272  156.0017 LP  0  0  0  0  0  0  0  0  0  0  0  0  # atno 17394 bound_to 11000
  141.1444  133.6558  156.3824 LP  0  0  0  0  0  0  0  0  0  0  0  0  # atno 17395 bound_to 11000

$$$$
