AV-unprocessed.smi:1291|AV-procd|sdf|5392|dock3
  -GOLD-   22720 4543D 1   1.00000     0.00000
 Structure written by MMmdl.
 43 45  0  0  0  0  0  0  0  0  1 V2000
  151.8618  137.1047  154.9113 O   0  0  0  0  0  0  0  0  0  0  0  0
  151.9636  138.4534  154.5004 C   0  0  0  0  0  0  0  0  0  0  0  0
  151.8195  139.4462  155.6192 C   0  0  0  0  0  0  0  0  0  0  0  0
  152.6338  139.4750  156.6772 N   0  0  0  0  0  0  0  0  0  0  0  0
  152.1394  140.5309  157.4166 C   0  0  0  0  0  0  0  0  0  0  0  0
  152.5701  141.0695  158.6503 C   0  0  0  0  0  0  0  0  0  0  0  0
  151.8982  142.1698  159.2223 C   0  0  0  0  0  0  0  0  0  0  0  0
  150.7894  142.7465  158.5699 C   0  0  0  0  0  0  0  0  0  0  0  0
  150.3453  142.2262  157.3391 C   0  0  0  0  0  0  0  0  0  0  0  0
  151.0186  141.1267  156.7730 C   0  0  0  0  0  0  0  0  0  0  0  0
  150.8430  140.3884  155.6061 N   0  0  0  0  0  0  0  0  0  0  0  0
  149.8185  140.6069  154.5922 C   0  0  0  0  0  0  0  0  0  0  0  0
  148.8857  139.3927  154.4015 C   0  0  1  0  0  0  0  0  0  0  0  0
  149.2290  138.7207  153.2051 O   0  0  0  0  0  0  0  0  0  0  0  0
  149.0032  138.3980  155.5675 C   0  0  0  0  0  0  0  0  0  0  0  0
  147.9268  137.4771  155.5049 O   0  0  0  0  0  0  0  0  0  0  0  0
  148.2485  136.2126  156.0637 C   0  0  0  0  0  0  0  0  0  0  0  0
  148.2584  135.0956  155.0332 C   0  0  0  0  0  0  0  0  0  0  0  0
  147.0939  134.7725  154.3010 C   0  0  0  0  0  0  0  0  0  0  0  0
  147.1160  133.7285  153.3560 C   0  0  0  0  0  0  0  0  0  0  0  0
  148.2995  132.9974  153.1403 C   0  0  0  0  0  0  0  0  0  0  0  0
  149.4605  133.3092  153.8728 C   0  0  0  0  0  0  0  0  0  0  0  0
  149.4405  134.3531  154.8185 C   0  0  0  0  0  0  0  0  0  0  0  0
  150.5632  134.6393  155.5206 F   0  0  0  0  0  0  0  0  0  0  0  0
  150.9470  136.8778  154.9764 H   0  0  0  0  0  0  0  0  0  0  0  0
  152.9323  138.5964  154.0213 H   0  0  0  0  0  0  0  0  0  0  0  0
  151.1960  138.6400  153.7501 H   0  0  0  0  0  0  0  0  0  0  0  0
  153.4186  140.6345  159.1571 H   0  0  0  0  0  0  0  0  0  0  0  0
  152.2351  142.5727  160.1661 H   0  0  0  0  0  0  0  0  0  0  0  0
  150.2794  143.5882  159.0152 H   0  0  0  0  0  0  0  0  0  0  0  0
  149.4956  142.6654  156.8382 H   0  0  0  0  0  0  0  0  0  0  0  0
  149.2376  141.4862  154.8739 H   0  0  0  0  0  0  0  0  0  0  0  0
  150.3058  140.8607  153.6505 H   0  0  0  0  0  0  0  0  0  0  0  0
  147.8556  139.7405  154.3217 H   0  0  0  0  0  0  0  0  0  0  0  0
  149.5697  139.3530  152.5913 H   0  0  0  0  0  0  0  0  0  0  0  0
  149.9677  137.8869  155.5532 H   0  0  0  0  0  0  0  0  0  0  0  0
  148.9369  138.9344  156.5154 H   0  0  0  0  0  0  0  0  0  0  0  0
  149.2320  136.2654  156.5337 H   0  0  0  0  0  0  0  0  0  0  0  0
  147.5278  135.9554  156.8414 H   0  0  0  0  0  0  0  0  0  0  0  0
  146.1761  135.3203  154.4561 H   0  0  0  0  0  0  0  0  0  0  0  0
  146.2238  133.4885  152.7968 H   0  0  0  0  0  0  0  0  0  0  0  0
  148.3162  132.1970  152.4154 H   0  0  0  0  0  0  0  0  0  0  0  0
  150.3678  132.7464  153.7100 H   0  0  0  0  0  0  0  0  0  0  0  0
  1  2  1  0  0  0  0
  1 25  1  0  0  0  0
  2  3  1  0  0  0  0
  2 26  1  0  0  0  0
  2 27  1  0  0  0  0
  3 11  1  0  0  0  0
  3  4  2  0  0  0  0
  4  5  1  0  0  0  0
  5 10  2  0  0  0  0
  5  6  1  0  0  0  0
  6  7  2  0  0  0  0
  6 28  1  0  0  0  0
  7  8  1  0  0  0  0
  7 29  1  0  0  0  0
  8  9  2  0  0  0  0
  8 30  1  0  0  0  0
  9 10  1  0  0  0  0
  9 31  1  0  0  0  0
 10 11  1  0  0  0  0
 11 12  1  0  0  0  0
 12 13  1  0  0  0  0
 12 32  1  0  0  0  0
 12 33  1  0  0  0  0
 13 14  1  0  0  0  0
 13 15  1  0  0  0  0
 13 34  1  0  0  0  0
 14 35  1  0  0  0  0
 15 16  1  0  0  0  0
 15 36  1  0  0  0  0
 15 37  1  0  0  0  0
 16 17  1  0  0  0  0
 17 18  1  0  0  0  0
 17 38  1  0  0  0  0
 17 39  1  0  0  0  0
 18 23  1  0  0  0  0
 18 19  2  0  0  0  0
 19 20  1  0  0  0  0
 19 40  1  0  0  0  0
 20 21  2  0  0  0  0
 20 41  1  0  0  0  0
 21 22  1  0  0  0  0
 21 42  1  0  0  0  0
 22 23  2  0  0  0  0
 22 43  1  0  0  0  0
 23 24  1  0  0  0  0
M  END
> <s_m_source_file>
AV-unprocessed.smi

> <i_m_source_file_index>
1291

> <i_lp_mmshare_version>
43012

> <i_f3d_flags>
0

> <s_epik_input>
W2NIXTFbY0hdW2NIXVtjSF1jKGMxMiluKGMobjIpW0NIMl1bT0hdKVtDSDJdW0NASF0oW09IXSlbQ0gyXU9bQ0gyXWMzW2NIXVtjSF1bY0hdW2NIXWMzRg==

> <s_epik_cmdline>
J2VwaWtfcHl0aG9uJywgJy1waCcsICc3LjAnLCAnLXRuJywgJzgnLCAnLW1hJywgJzIwMCcsICctbWV0YWxfYmluZGluZycsICctaW1hZScsICc8aW5maWxlLm1hZT4nLCAnLW9tYWUnLCAnPG91dGZpbGUubWFlPic=

> <r_epik_Ionization_Penalty>
0.0649918

> <r_epik_Ionization_Penalty_Charging>
0

> <r_epik_Ionization_Penalty_Neutral>
0.0649918

> <r_epik_State_Penalty>
0.0565791

> <r_epik_Charging_Adjusted_Penalty>
0.0565791

> <i_epik_Tot_Q>
0

> <i_epik_Tot_abs_Q>
0

> <r_epik_Metal_State_Penalty>
5.93658e-05

> <b_epik_Metal_Only>
0

> <s_lp_Force_Field>
OPLS_2005

> <r_lp_Energy>
17.1818

> <b_lp_Chiralities_Consistent>
1

> <s_lp_Variant>
AV-unprocessed.smi:1291-2

> <Gold.Version>
5.8.1

> <Gold.Id.Protein>
6NUR|6NUR_protein|mol2

> <Gold.PLP.Fitness>
50.2814

> <Gold.PLP.PLP>
-43.6198

> <Gold.PLP.part.hbond>
-3.7204

> <Gold.PLP.part.metal>
0.0000

> <Gold.PLP.part.buried>
-3.9246

> <Gold.PLP.part.nonpolar>
-35.2685

> <Gold.PLP.part.repulsive>
0.0541

> <Gold.PLP.ligand.clash>
0.0000

> <Gold.PLP.ligand.torsion>
1.2588

> <Gold.PLP.Chemscore.Hbond>
2.9920

> <Gold.PLP.Chemscore.CHOScore>
0.0000

> <Gold.PLP.Chemscore.Metal>
0.0000

> <Gold.Chemscore.Hbonds>
donor molecule, donor type, donor heavy atom, donor atom, acceptor molecule, acceptor atom, score
      L1  H    14    35       P1  7957  1.00
      P1  H  7997  8008       L1     4  0.95
      P1  H 10752 10764       L1     1  0.99

> <Gold.PLP.Chemscore.Internal.Correction>
0.2031

> <Gold.Rescore>
     Score         DG    S(hbond)    S(metal)    S(lipo)     H(rot)  DE(clash)    DE(int)     intcor
     13.43     -15.79       2.42        0.00      91.87       3.33       0.06       2.30       ----

> <Gold.Chemscore.Fitness>
13.4273

> <Gold.Chemscore.DG>
-15.7851

> <Gold.Chemscore.ZeroCoef>
-5.4800

> <Gold.Chemscore.Hbond>
2.4206

> <Gold.Chemscore.Metal>
0.0000

> <Gold.Chemscore.Lipo>
91.8726

> <Gold.Chemscore.Internal_Hbond>
0.0000

> <Gold.Chemscore.DEClash>
0.0580

> <Gold.Chemscore.DEInternal>
2.2998

> <Gold.Chemscore.Rot>
3.3316

> <Gold.Chemscore.Internal.Correction>
   9.000000E+99

> <Gold.Chemscore.Hbonds>
donor molecule, donor type, donor heavy atom, donor atom, acceptor molecule, acceptor atom, score
      L1  H    14    35       P1  7957  0.94
      P1  H  7997  8008       L1     4  0.20
      P1  H 10752 10764       L1     1  0.81

> <Gold.Chemscore.Hbond.Weighted>
-8.0848

> <Gold.Chemscore.Metal.Weighted>
-0.0000

> <Gold.Chemscore.Lipo.Weighted>
-10.7491

> <Gold.Chemscore.Internal_Hbond.Weighted>
0.0000

> <Gold.Chemscore.DEClash.Weighted>
0.0580

> <Gold.Chemscore.DEInternal.Weighted>
2.2998

> <Gold.Chemscore.Rot.Weighted>
8.5288

> <Gold.Chemscore.Internal.Correction.Weighted>
   9.000000E+99

> <Gold.Protein.RotatedTorsions>
[ 6907 6896 6895 6894 ] final -134.10 input  -60.11 | X-H torsion
[ 7974 7965 7964 7962 ] final -166.03 input  175.53 | X-H torsion
[ 8008 7997 7996 7995 ] final  -42.33 input   59.86 | X-H torsion
[ 10167 10162 10161 10158 ] final  139.75 input  -65.29 | X-H torsion
[ 10718 10713 10712 10709 ] final  177.00 input   66.30 | X-H torsion
[ 10763 10752 10751 10750 ] final  -69.92 input  -60.55 | X-H torsion
[ 11005 11000 10999 10996 ] final  101.01 input  -57.11 | X-H torsion

> <Gold.Protein.ActiveResidues>
 VAL166  LYS551  ARG553  GLY616  TRP617  ASP618  TYR619  PRO620  LYS621  CYS622 
 ASP623  PHE694  ASN695  SER759  ASP760  ASP761  ALA762  ILE779  LEU786  VAL792 
 PHE793  MET794  SER795  GLU796  ALA797  LYS798  CYS799  TRP800  GLU811  SER814 

> <Gold.Protein.RotatedAtoms>
  150.9819  133.6237  159.2721 H   0  0  0  0  0  0  0  0  0  0  0  0  # atno 6907 bound_to 6896
  151.3489  135.0879  159.9406 H   0  0  0  0  0  0  0  0  0  0  0  0  # atno 6908 bound_to 6896
  152.5218  133.9415  159.7683 H   0  0  0  0  0  0  0  0  0  0  0  0  # atno 6909 bound_to 6896
  144.7255  140.2727  143.6248 H   0  0  0  0  0  0  0  0  0  0  0  0  # atno 7974 bound_to 7965
  154.3999  140.1476  156.3337 H   0  0  0  0  0  0  0  0  0  0  0  0  # atno 8008 bound_to 7997
  155.8420  140.3461  155.5617 H   0  0  0  0  0  0  0  0  0  0  0  0  # atno 8009 bound_to 7997
  155.8077  140.0879  157.1912 H   0  0  0  0  0  0  0  0  0  0  0  0  # atno 8010 bound_to 7997
  139.5069  144.6276  151.5899 H   0  0  0  0  0  0  0  0  0  0  0  0  # atno 10167 bound_to 10162
  156.9118  130.9912  151.3019 H   0  0  0  0  0  0  0  0  0  0  0  0  # atno 10718 bound_to 10713
  154.4104  135.6010  153.5949 H   0  0  0  0  0  0  0  0  0  0  0  0  # atno 10763 bound_to 10752
  152.9790  135.5928  154.4077 H   0  0  0  0  0  0  0  0  0  0  0  0  # atno 10764 bound_to 10752
  154.3889  135.2842  155.2145 H   0  0  0  0  0  0  0  0  0  0  0  0  # atno 10765 bound_to 10752
  139.8772  134.9165  156.4842 H   0  0  0  0  0  0  0  0  0  0  0  0  # atno 11005 bound_to 11000
  145.8027  139.1971  143.2038 LP  0  0  0  0  0  0  0  0  0  0  0  0  # atno 17320 bound_to 7965
  146.0663  140.7917  142.9710 LP  0  0  0  0  0  0  0  0  0  0  0  0  # atno 17321 bound_to 7965
  140.5998  143.9631  150.6378 LP  0  0  0  0  0  0  0  0  0  0  0  0  # atno 17342 bound_to 10162
  140.2839  143.3371  152.1126 LP  0  0  0  0  0  0  0  0  0  0  0  0  # atno 17343 bound_to 10162
  157.5962  130.8479  149.8733 LP  0  0  0  0  0  0  0  0  0  0  0  0  # atno 17370 bound_to 10713
  156.0532  130.3713  150.1152 LP  0  0  0  0  0  0  0  0  0  0  0  0  # atno 17371 bound_to 10713
  140.8705  133.7992  155.9359 LP  0  0  0  0  0  0  0  0  0  0  0  0  # atno 17394 bound_to 11000
  140.8957  134.2440  157.5070 LP  0  0  0  0  0  0  0  0  0  0  0  0  # atno 17395 bound_to 11000

$$$$
