AV-unprocessed.smi:1971|AV-procd|sdf|7964|dock5
  -GOLD-   2272010133D 1   1.00000     0.00000
 Structure written by MMmdl.
 44 45  0  0  0  0  0  0  0  0  2 V2000
  151.0037  141.2852  156.0851 C   0  0  0  0  0  0  0  0  0  0  0  0
  151.5763  139.9020  155.7433 C   0  0  0  0  0  0  0  0  0  0  0  0
  151.0490  139.3861  154.4775 N   0  0  0  0  0  0  0  0  0  0  0  0
  151.5824  138.0613  154.1489 C   0  0  0  0  0  0  0  0  0  0  0  0
  151.0118  136.9621  155.0696 C   0  0  0  0  0  0  0  0  0  0  0  0
  149.5283  136.9347  154.9789 N   0  3  0  0  0  0  0  0  0  0  0  0
  148.8536  135.8100  155.6915 C   0  0  2  0  0  0  0  0  0  0  0  0
  149.2740  135.6951  157.1739 C   0  0  0  0  0  0  0  0  0  0  0  0
  149.0368  134.4873  154.9172 C   0  0  0  0  0  0  0  0  0  0  0  0
  148.3985  134.5347  153.6055 N   0  0  0  0  0  0  0  0  0  0  0  0
  147.3962  133.7334  153.2188 C   0  0  0  0  0  0  0  0  0  0  0  0
  146.9190  132.8541  153.9365 O   0  0  0  0  0  0  0  0  0  0  0  0
  146.9965  134.0178  151.9667 N   0  0  0  0  0  0  0  0  0  0  0  0
  145.9331  133.4300  151.2318 C   0  0  0  0  0  0  0  0  0  0  0  0
  146.0871  132.4428  150.3415 N   0  0  0  0  0  0  0  0  0  0  0  0
  144.8710  132.0534  149.7745 C   0  0  0  0  0  0  0  0  0  0  0  0
  143.7933  132.7594  150.2482 C   0  0  0  0  0  0  0  0  0  0  0  0
  144.2655  133.9470  151.4342 S   0  0  0  0  0  0  0  0  0  0  0  0
  148.9691  138.2709  155.3029 C   0  0  0  0  0  0  0  0  0  0  0  0
  149.5852  139.3472  154.3845 C   0  0  0  0  0  0  0  0  0  0  0  0
  151.5127  141.7023  156.9541 H   0  0  0  0  0  0  0  0  0  0  0  0
  149.9419  141.2417  156.3257 H   0  0  0  0  0  0  0  0  0  0  0  0
  151.1375  141.9847  155.2593 H   0  0  0  0  0  0  0  0  0  0  0  0
  152.6582  140.0029  155.6485 H   0  0  0  0  0  0  0  0  0  0  0  0
  151.4027  139.2089  156.5656 H   0  0  0  0  0  0  0  0  0  0  0  0
  151.3357  137.8333  153.1110 H   0  0  0  0  0  0  0  0  0  0  0  0
  152.6713  138.0780  154.2074 H   0  0  0  0  0  0  0  0  0  0  0  0
  151.4247  136.0018  154.7634 H   0  0  0  0  0  0  0  0  0  0  0  0
  151.3335  137.1251  156.0984 H   0  0  0  0  0  0  0  0  0  0  0  0
  147.7840  136.0249  155.6752 H   0  0  0  0  0  0  0  0  0  0  0  0
  148.6558  134.9704  157.7039 H   0  0  0  0  0  0  0  0  0  0  0  0
  149.1675  136.6434  157.6998 H   0  0  0  0  0  0  0  0  0  0  0  0
  150.3089  135.3684  157.2767 H   0  0  0  0  0  0  0  0  0  0  0  0
  150.0979  134.2771  154.7762 H   0  0  0  0  0  0  0  0  0  0  0  0
  148.6238  133.6564  155.4904 H   0  0  0  0  0  0  0  0  0  0  0  0
  148.7361  135.2274  152.9533 H   0  0  0  0  0  0  0  0  0  0  0  0
  147.4989  134.7503  151.4877 H   0  0  0  0  0  0  0  0  0  0  0  0
  144.8645  131.2625  149.0390 H   0  0  0  0  0  0  0  0  0  0  0  0
  142.7547  132.6522  149.9728 H   0  0  0  0  0  0  0  0  0  0  0  0
  147.8890  138.2590  155.1534 H   0  0  0  0  0  0  0  0  0  0  0  0
  149.1334  138.5141  156.3524 H   0  0  0  0  0  0  0  0  0  0  0  0
  149.1606  140.3252  154.6071 H   0  0  0  0  0  0  0  0  0  0  0  0
  149.3142  139.1345  153.3495 H   0  0  0  0  0  0  0  0  0  0  0  0
  149.3161  136.7936  154.0016 H   0  0  0  0  0  0  0  0  0  0  0  0
  1  2  1  0  0  0  0
  1 21  1  0  0  0  0
  1 22  1  0  0  0  0
  1 23  1  0  0  0  0
  2  3  1  0  0  0  0
  2 24  1  0  0  0  0
  2 25  1  0  0  0  0
  3 20  1  0  0  0  0
  3  4  1  0  0  0  0
  4  5  1  0  0  0  0
  4 26  1  0  0  0  0
  4 27  1  0  0  0  0
  5  6  1  0  0  0  0
  5 28  1  0  0  0  0
  5 29  1  0  0  0  0
  6  7  1  0  0  0  0
  6 19  1  0  0  0  0
  6 44  1  0  0  0  0
  7  8  1  0  0  0  0
  7  9  1  0  0  0  0
  7 30  1  0  0  0  0
  8 31  1  0  0  0  0
  8 32  1  0  0  0  0
  8 33  1  0  0  0  0
  9 10  1  0  0  0  0
  9 34  1  0  0  0  0
  9 35  1  0  0  0  0
 10 11  1  0  0  0  0
 10 36  1  0  0  0  0
 11 12  2  0  0  0  0
 11 13  1  0  0  0  0
 13 14  1  0  0  0  0
 13 37  1  0  0  0  0
 14 18  1  0  0  0  0
 14 15  2  0  0  0  0
 15 16  1  0  0  0  0
 16 17  2  0  0  0  0
 16 38  1  0  0  0  0
 17 18  1  0  0  0  0
 17 39  1  0  0  0  0
 19 20  1  0  0  0  0
 19 40  1  0  0  0  0
 19 41  1  0  0  0  0
 20 42  1  0  0  0  0
 20 43  1  0  0  0  0
M  CHG  1   6   1
M  END
> <s_m_source_file>
AV-unprocessed.smi

> <i_m_source_file_index>
1971

> <i_lp_mmshare_version>
43012

> <i_f3d_flags>
0

> <s_epik_input>
W0NIM11bQ0gyXU4xW0NIMl1bQ0gyXU4oW0NIMl1bQ0gyXTEpW0NASF0oW0NIM10pW0NIMl1bTkhdQyg9TylbTkhdYzJuW2NIXVtjSF1zMg==

> <s_epik_cmdline>
J2VwaWtfcHl0aG9uJywgJy1waCcsICc3LjAnLCAnLXRuJywgJzgnLCAnLW1hJywgJzIwMCcsICctbWV0YWxfYmluZGluZycsICctaW1hZScsICc8aW5maWxlLm1hZT4nLCAnLW9tYWUnLCAnPG91dGZpbGUubWFlPic=

> <r_epik_Ionization_Penalty>
0.150098

> <r_epik_Ionization_Penalty_Charging>
0.148467

> <r_epik_Ionization_Penalty_Neutral>
0.00163072

> <r_epik_State_Penalty>
0.974087

> <r_epik_Charging_Adjusted_Penalty>
1.12255

> <i_epik_Tot_Q>
1

> <i_epik_Tot_abs_Q>
1

> <r_epik_Metal_State_Penalty>
1.00741

> <b_epik_Metal_Only>
0

> <s_lp_Force_Field>
OPLS_2005

> <r_lp_Energy>
20.3005

> <b_lp_Chiralities_Consistent>
1

> <s_lp_Variant>
AV-unprocessed.smi:1971-3

> <Gold.Version>
5.8.1

> <Gold.Id.Protein>
6NUR|6NUR_protein|mol2

> <Gold.PLP.Fitness>
43.9371

> <Gold.PLP.PLP>
-32.5130

> <Gold.PLP.part.hbond>
-3.0940

> <Gold.PLP.part.metal>
0.0000

> <Gold.PLP.part.buried>
-4.4272

> <Gold.PLP.part.nonpolar>
-25.0093

> <Gold.PLP.part.repulsive>
0.4146

> <Gold.PLP.ligand.clash>
0.0000

> <Gold.PLP.ligand.torsion>
1.0398

> <Gold.PLP.Chemscore.Hbond>
3.4597

> <Gold.PLP.Chemscore.CHOScore>
1.0000

> <Gold.PLP.Chemscore.Metal>
0.0000

> <Gold.Chemscore.Hbonds>
donor molecule, donor type, donor heavy atom, donor atom, acceptor molecule, acceptor atom, score
      L1  H     6    44       P1  7948  1.04
      L1  H    10    36       P1  7948  0.83
      L1  H    13    37       P1  7948  0.80
      P1  H  7989  7998       L1     3  0.70
      L1  C    17    39       P1 10186  1.00

> <Gold.PLP.Chemscore.Internal.Correction>
0.1245

> <Gold.Rescore>
     Score         DG    S(hbond)    S(metal)    S(lipo)     H(rot)  DE(clash)    DE(int)     intcor
     14.45     -15.61       1.73        0.00      76.48       1.79       0.16       1.00       ----

> <Gold.Chemscore.Fitness>
14.4478

> <Gold.Chemscore.DG>
-15.6057

> <Gold.Chemscore.ZeroCoef>
-5.4800

> <Gold.Chemscore.Hbond>
1.7275

> <Gold.Chemscore.Metal>
0.0000

> <Gold.Chemscore.Lipo>
76.4763

> <Gold.Chemscore.Internal_Hbond>
0.0000

> <Gold.Chemscore.DEClash>
0.1613

> <Gold.Chemscore.DEInternal>
0.9965

> <Gold.Chemscore.Rot>
1.7937

> <Gold.Chemscore.Internal.Correction>
   9.000000E+99

> <Gold.Chemscore.Hbonds>
donor molecule, donor type, donor heavy atom, donor atom, acceptor molecule, acceptor atom, score
      L1  H     6    44       P1  7948  0.50
      L1  H    10    36       P1  7948  0.45
      L1  H    13    37       P1  7948  0.25
      P1  H  7989  7998       L1     3  0.05

> <Gold.Chemscore.Hbond.Weighted>
-5.7699

> <Gold.Chemscore.Metal.Weighted>
-0.0000

> <Gold.Chemscore.Lipo.Weighted>
-8.9477

> <Gold.Chemscore.Internal_Hbond.Weighted>
0.0000

> <Gold.Chemscore.DEClash.Weighted>
0.1613

> <Gold.Chemscore.DEInternal.Weighted>
0.9965

> <Gold.Chemscore.Rot.Weighted>
4.5919

> <Gold.Chemscore.Internal.Correction.Weighted>
   9.000000E+99

> <Gold.Protein.RotatedTorsions>
[ 6907 6896 6895 6894 ] final  -46.52 input  -60.11 | X-H torsion
[ 7974 7965 7964 7962 ] final   24.44 input  175.53 | X-H torsion
[ 8008 7997 7996 7995 ] final   98.94 input   59.86 | X-H torsion
[ 10167 10162 10161 10158 ] final -115.87 input  -65.29 | X-H torsion
[ 10718 10713 10712 10709 ] final  154.16 input   66.30 | X-H torsion
[ 10763 10752 10751 10750 ] final  -81.26 input  -60.55 | X-H torsion
[ 11005 11000 10999 10996 ] final   57.14 input  -57.11 | X-H torsion

> <Gold.Protein.ActiveResidues>
 VAL166  LYS551  ARG553  GLY616  TRP617  ASP618  TYR619  PRO620  LYS621  CYS622 
 ASP623  PHE694  ASN695  SER759  ASP760  ASP761  ALA762  ILE779  LEU786  VAL792 
 PHE793  MET794  SER795  GLU796  ALA797  LYS798  CYS799  TRP800  GLU811  SER814 

> <Gold.Protein.RotatedAtoms>
  150.9104  134.8521  159.7421 H   0  0  0  0  0  0  0  0  0  0  0  0  # atno 6907 bound_to 6896
  152.4941  134.4368  159.9540 H   0  0  0  0  0  0  0  0  0  0  0  0  # atno 6908 bound_to 6896
  151.4411  133.3604  159.2817 H   0  0  0  0  0  0  0  0  0  0  0  0  # atno 6909 bound_to 6896
  146.1937  139.7604  142.8813 H   0  0  0  0  0  0  0  0  0  0  0  0  # atno 7974 bound_to 7965
  156.1055  140.3236  155.8000 H   0  0  0  0  0  0  0  0  0  0  0  0  # atno 8008 bound_to 7997
  155.4763  140.0550  157.2990 H   0  0  0  0  0  0  0  0  0  0  0  0  # atno 8009 bound_to 7997
  154.4725  140.2017  155.9974 H   0  0  0  0  0  0  0  0  0  0  0  0  # atno 8010 bound_to 7997
  140.0854  143.4749  152.1901 H   0  0  0  0  0  0  0  0  0  0  0  0  # atno 10167 bound_to 10162
  157.2353  131.0747  151.1827 H   0  0  0  0  0  0  0  0  0  0  0  0  # atno 10718 bound_to 10713
  154.5614  135.5632  153.7010 H   0  0  0  0  0  0  0  0  0  0  0  0  # atno 10763 bound_to 10752
  153.0019  135.6275  154.2240 H   0  0  0  0  0  0  0  0  0  0  0  0  # atno 10764 bound_to 10752
  154.2178  135.2871  155.2915 H   0  0  0  0  0  0  0  0  0  0  0  0  # atno 10765 bound_to 10752
  140.0475  134.5784  155.9304 H   0  0  0  0  0  0  0  0  0  0  0  0  # atno 11005 bound_to 11000
  145.3712  141.0343  143.3230 LP  0  0  0  0  0  0  0  0  0  0  0  0  # atno 17320 bound_to 7965
  144.8537  139.5282  143.6844 LP  0  0  0  0  0  0  0  0  0  0  0  0  # atno 17321 bound_to 7965
  139.5755  144.7485  151.3776 LP  0  0  0  0  0  0  0  0  0  0  0  0  # atno 17342 bound_to 10162
  140.7056  143.7522  150.7477 LP  0  0  0  0  0  0  0  0  0  0  0  0  # atno 17343 bound_to 10162
  157.3436  130.7046  149.6396 LP  0  0  0  0  0  0  0  0  0  0  0  0  # atno 17370 bound_to 10713
  155.9673  130.4273  150.4736 LP  0  0  0  0  0  0  0  0  0  0  0  0  # atno 17371 bound_to 10713
  141.1914  133.6571  156.5456 LP  0  0  0  0  0  0  0  0  0  0  0  0  # atno 17394 bound_to 11000
  140.3969  134.7390  157.4756 LP  0  0  0  0  0  0  0  0  0  0  0  0  # atno 17395 bound_to 11000

$$$$
