AV-unprocessed.smi:2224|AV-procd|sdf|8991|dock10
  -GOLD-   2272012203D 1   1.00000     0.00000
 Structure written by MMmdl.
 44 46  0  0  0  0  0  0  0  0  1 V2000
  145.1163  132.1017  149.7998 C   0  0  0  0  0  0  0  0  0  0  0  0
  144.7824  133.1380  150.8522 C   0  0  0  0  0  0  0  0  0  0  0  0
  143.4682  133.2812  151.3370 C   0  0  0  0  0  0  0  0  0  0  0  0
  143.2242  134.2657  152.3148 C   0  0  0  0  0  0  0  0  0  0  0  0
  141.8360  134.4726  152.8835 C   0  0  0  0  0  0  0  0  0  0  0  0
  144.1892  135.0740  152.8037 N   0  0  0  0  0  0  0  0  0  0  0  0
  145.4579  134.9456  152.3426 C   0  0  0  0  0  0  0  0  0  0  0  0
  146.5436  135.7443  152.7894 N   0  0  0  0  0  0  0  0  0  0  0  0
  146.5680  136.6195  153.8097 C   0  0  0  0  0  0  0  0  0  0  0  0
  145.6177  136.8844  154.5467 O   0  0  0  0  0  0  0  0  0  0  0  0
  147.7751  137.1886  153.9283 N   0  0  0  0  0  0  0  0  0  0  0  0
  148.1204  138.1974  154.9229 C   0  0  2  0  0  0  0  0  0  0  0  0
  148.4854  139.5393  154.2874 C   0  0  1  0  0  0  0  0  0  0  0  0
  147.8708  140.8933  154.2772 C   0  0  0  0  0  0  0  0  0  0  0  0
  149.1559  141.7121  154.5739 C   0  0  0  0  0  0  0  0  0  0  0  0
  150.1657  140.7444  154.9520 O   0  0  0  0  0  0  0  0  0  0  0  0
  149.4180  139.6660  155.4759 C   0  0  2  0  0  0  0  0  0  0  0  0
  149.6227  138.1397  155.3944 C   0  0  0  0  0  0  0  0  0  0  0  0
  149.8606  137.4435  156.7348 C   0  0  0  0  0  0  0  0  0  0  0  0
  150.7058  137.6097  154.4326 C   0  0  0  0  0  0  0  0  0  0  0  0
  145.7887  133.9805  151.3652 C   0  0  0  0  0  0  0  0  0  0  0  0
  144.2241  131.5690  149.4693 H   0  0  0  0  0  0  0  0  0  0  0  0
  145.8214  131.3725  150.1991 H   0  0  0  0  0  0  0  0  0  0  0  0
  145.5698  132.5784  148.9304 H   0  0  0  0  0  0  0  0  0  0  0  0
  142.6691  132.6537  150.9696 H   0  0  0  0  0  0  0  0  0  0  0  0
  141.1028  133.8437  152.3776 H   0  0  0  0  0  0  0  0  0  0  0  0
  141.5287  135.5125  152.7684 H   0  0  0  0  0  0  0  0  0  0  0  0
  141.8228  134.2253  153.9452 H   0  0  0  0  0  0  0  0  0  0  0  0
  147.3979  135.6483  152.2612 H   0  0  0  0  0  0  0  0  0  0  0  0
  148.5016  136.9131  153.2841 H   0  0  0  0  0  0  0  0  0  0  0  0
  147.3958  138.2906  155.7372 H   0  0  0  0  0  0  0  0  0  0  0  0
  149.0134  139.3806  153.3441 H   0  0  0  0  0  0  0  0  0  0  0  0
  147.4236  141.1495  153.3163 H   0  0  0  0  0  0  0  0  0  0  0  0
  147.1218  141.0082  155.0621 H   0  0  0  0  0  0  0  0  0  0  0  0
  149.4946  142.2699  153.7004 H   0  0  0  0  0  0  0  0  0  0  0  0
  148.9856  142.4222  155.3841 H   0  0  0  0  0  0  0  0  0  0  0  0
  148.9142  139.9615  156.4035 H   0  0  0  0  0  0  0  0  0  0  0  0
  150.8415  137.6872  157.1438 H   0  0  0  0  0  0  0  0  0  0  0  0
  149.8020  136.3586  156.6403 H   0  0  0  0  0  0  0  0  0  0  0  0
  149.1190  137.7401  157.4773 H   0  0  0  0  0  0  0  0  0  0  0  0
  151.7052  137.8406  154.8025 H   0  0  0  0  0  0  0  0  0  0  0  0
  150.6436  138.0254  153.4288 H   0  0  0  0  0  0  0  0  0  0  0  0
  150.6446  136.5262  154.3261 H   0  0  0  0  0  0  0  0  0  0  0  0
  146.8039  133.8872  151.0067 H   0  0  0  0  0  0  0  0  0  0  0  0
  1  2  1  0  0  0  0
  1 22  1  0  0  0  0
  1 23  1  0  0  0  0
  1 24  1  0  0  0  0
  2 21  1  0  0  0  0
  2  3  2  0  0  0  0
  3  4  1  0  0  0  0
  3 25  1  0  0  0  0
  4  5  1  0  0  0  0
  4  6  2  0  0  0  0
  5 26  1  0  0  0  0
  5 27  1  0  0  0  0
  5 28  1  0  0  0  0
  6  7  1  0  0  0  0
  7  8  1  0  0  0  0
  7 21  2  0  0  0  0
  8  9  1  0  0  0  0
  8 29  1  0  0  0  0
  9 10  2  0  0  0  0
  9 11  1  0  0  0  0
 11 12  1  0  0  0  0
 11 30  1  0  0  0  0
 12 18  1  0  0  0  0
 12 13  1  0  0  0  0
 12 31  1  0  0  0  0
 13 17  1  0  0  0  0
 13 14  1  0  0  0  0
 13 32  1  0  0  0  0
 14 15  1  0  0  0  0
 14 33  1  0  0  0  0
 14 34  1  0  0  0  0
 15 16  1  0  0  0  0
 15 35  1  0  0  0  0
 15 36  1  0  0  0  0
 16 17  1  0  0  0  0
 17 18  1  0  0  0  0
 17 37  1  0  0  0  0
 18 19  1  0  0  0  0
 18 20  1  0  0  0  0
 19 38  1  0  0  0  0
 19 39  1  0  0  0  0
 19 40  1  0  0  0  0
 20 41  1  0  0  0  0
 20 42  1  0  0  0  0
 20 43  1  0  0  0  0
 21 44  1  0  0  0  0
M  END
> <s_m_source_file>
AV-unprocessed.smi

> <i_m_source_file_index>
2224

> <i_lp_mmshare_version>
43012

> <i_f3d_flags>
0

> <s_epik_input>
W0NIM11jMVtjSF1jKFtDSDNdKW5jKFtjSF0xKVtOSF1DKD1PKVtOSF1bQ0BIXTJDKFtDSDNdKShbQ0gzXSlbQ0BIXShbQ0BASF0yMylPW0NIMl1bQ0gyXTM=

> <s_epik_cmdline>
J2VwaWtfcHl0aG9uJywgJy1waCcsICc3LjAnLCAnLXRuJywgJzgnLCAnLW1hJywgJzIwMCcsICctbWV0YWxfYmluZGluZycsICctaW1hZScsICc8aW5maWxlLm1hZT4nLCAnLW9tYWUnLCAnPG91dGZpbGUubWFlPic=

> <r_lp_tautomer_probability>
1

> <r_epik_Ionization_Penalty>
0.000276544

> <r_epik_Ionization_Penalty_Charging>
0

> <r_epik_Ionization_Penalty_Neutral>
0.000276544

> <r_epik_State_Penalty>
-0

> <r_epik_Charging_Adjusted_Penalty>
0

> <i_epik_Tot_Q>
0

> <i_epik_Tot_abs_Q>
0

> <r_epik_Metal_State_Penalty>
-0

> <b_epik_Metal_Only>
0

> <s_lp_Force_Field>
OPLS_2005

> <r_lp_Energy>
62.2425

> <b_lp_Chiralities_Consistent>
1

> <s_lp_Variant>
AV-unprocessed.smi:2224-1

> <Gold.Version>
5.8.1

> <Gold.Id.Protein>
6NUR|6NUR_protein|mol2

> <Gold.PLP.Fitness>
39.9463

> <Gold.PLP.PLP>
-31.5558

> <Gold.PLP.part.hbond>
-3.0000

> <Gold.PLP.part.metal>
0.0000

> <Gold.PLP.part.buried>
-2.9755

> <Gold.PLP.part.nonpolar>
-25.6747

> <Gold.PLP.part.repulsive>
0.2347

> <Gold.PLP.ligand.clash>
0.0000

> <Gold.PLP.ligand.torsion>
0.2099

> <Gold.PLP.Chemscore.Hbond>
2.8480

> <Gold.PLP.Chemscore.CHOScore>
0.0000

> <Gold.PLP.Chemscore.Metal>
0.0000

> <Gold.Chemscore.Hbonds>
donor molecule, donor type, donor heavy atom, donor atom, acceptor molecule, acceptor atom, score
      L1  H     8    29       P1  7948  1.00
      L1  H    11    30       P1  7948  1.00
      P1  H  7989  7998       L1    16  0.77

> <Gold.PLP.Chemscore.Internal.Correction>
0.2664

> <Gold.Rescore>
     Score         DG    S(hbond)    S(metal)    S(lipo)     H(rot)  DE(clash)    DE(int)     intcor
     18.85     -20.99       2.48        0.00      83.79       1.00       0.64       1.50       ----

> <Gold.Chemscore.Fitness>
18.8452

> <Gold.Chemscore.DG>
-20.9950

> <Gold.Chemscore.ZeroCoef>
-5.4800

> <Gold.Chemscore.Hbond>
2.4766

> <Gold.Chemscore.Metal>
0.0000

> <Gold.Chemscore.Lipo>
83.7886

> <Gold.Chemscore.Internal_Hbond>
0.0000

> <Gold.Chemscore.DEClash>
0.6449

> <Gold.Chemscore.DEInternal>
1.5049

> <Gold.Chemscore.Rot>
1.0000

> <Gold.Chemscore.Internal.Correction>
   9.000000E+99

> <Gold.Chemscore.Hbonds>
donor molecule, donor type, donor heavy atom, donor atom, acceptor molecule, acceptor atom, score
      L1  H     8    29       P1  7948  0.95
      L1  H    11    30       P1  7948  0.95
      P1  H  7989  7998       L1    16  0.37

> <Gold.Chemscore.Hbond.Weighted>
-8.2717

> <Gold.Chemscore.Metal.Weighted>
-0.0000

> <Gold.Chemscore.Lipo.Weighted>
-9.8033

> <Gold.Chemscore.Internal_Hbond.Weighted>
0.0000

> <Gold.Chemscore.DEClash.Weighted>
0.6449

> <Gold.Chemscore.DEInternal.Weighted>
1.5049

> <Gold.Chemscore.Rot.Weighted>
2.5600

> <Gold.Chemscore.Internal.Correction.Weighted>
   9.000000E+99

> <Gold.Protein.RotatedTorsions>
[ 6907 6896 6895 6894 ] final -117.13 input  -60.11 | X-H torsion
[ 7974 7965 7964 7962 ] final -135.79 input  175.53 | X-H torsion
[ 8008 7997 7996 7995 ] final  -99.01 input   59.86 | X-H torsion
[ 10167 10162 10161 10158 ] final  -58.21 input  -65.29 | X-H torsion
[ 10718 10713 10712 10709 ] final  160.56 input   66.30 | X-H torsion
[ 10763 10752 10751 10750 ] final  -24.35 input  -60.55 | X-H torsion
[ 11005 11000 10999 10996 ] final  -92.26 input  -57.11 | X-H torsion

> <Gold.Protein.ActiveResidues>
 VAL166  LYS551  ARG553  GLY616  TRP617  ASP618  TYR619  PRO620  LYS621  CYS622 
 ASP623  PHE694  ASN695  SER759  ASP760  ASP761  ALA762  ILE779  LEU786  VAL792 
 PHE793  MET794  SER795  GLU796  ALA797  LYS798  CYS799  TRP800  GLU811  SER814 

> <Gold.Protein.RotatedAtoms>
  150.8111  133.8420  159.3181 H   0  0  0  0  0  0  0  0  0  0  0  0  # atno 6907 bound_to 6896
  151.6205  135.1031  160.0110 H   0  0  0  0  0  0  0  0  0  0  0  0  # atno 6908 bound_to 6896
  152.4203  133.7065  159.6511 H   0  0  0  0  0  0  0  0  0  0  0  0  # atno 6909 bound_to 6896
  144.8983  140.6737  143.5101 H   0  0  0  0  0  0  0  0  0  0  0  0  # atno 7974 bound_to 7965
  154.8090  140.0451  157.1329 H   0  0  0  0  0  0  0  0  0  0  0  0  # atno 8008 bound_to 7997
  154.9390  140.3050  155.5110 H   0  0  0  0  0  0  0  0  0  0  0  0  # atno 8009 bound_to 7997
  156.2970  140.2309  156.4457 H   0  0  0  0  0  0  0  0  0  0  0  0  # atno 8010 bound_to 7997
  140.6211  143.2420  151.5478 H   0  0  0  0  0  0  0  0  0  0  0  0  # atno 10167 bound_to 10162
  157.1486  131.0558  151.2291 H   0  0  0  0  0  0  0  0  0  0  0  0  # atno 10718 bound_to 10713
  153.6824  135.6966  153.5114 H   0  0  0  0  0  0  0  0  0  0  0  0  # atno 10763 bound_to 10752
  153.2475  135.4286  155.0762 H   0  0  0  0  0  0  0  0  0  0  0  0  # atno 10764 bound_to 10752
  154.8396  135.3523  154.6367 H   0  0  0  0  0  0  0  0  0  0  0  0  # atno 10765 bound_to 10752
  141.1526  133.7809  156.9995 H   0  0  0  0  0  0  0  0  0  0  0  0  # atno 11005 bound_to 11000
  145.3661  139.1670  143.4357 LP  0  0  0  0  0  0  0  0  0  0  0  0  # atno 17320 bound_to 7965
  146.3094  140.3728  142.8676 LP  0  0  0  0  0  0  0  0  0  0  0  0  # atno 17321 bound_to 7965
  139.5439  144.2572  152.1405 LP  0  0  0  0  0  0  0  0  0  0  0  0  # atno 17342 bound_to 10162
  140.1793  144.4860  150.6537 LP  0  0  0  0  0  0  0  0  0  0  0  0  # atno 17343 bound_to 10162
  157.4241  130.7454  149.6937 LP  0  0  0  0  0  0  0  0  0  0  0  0  # atno 17370 bound_to 10713
  155.9774  130.4063  150.3711 LP  0  0  0  0  0  0  0  0  0  0  0  0  # atno 17371 bound_to 10713
  140.0949  134.9570  157.1834 LP  0  0  0  0  0  0  0  0  0  0  0  0  # atno 17394 bound_to 11000
  140.3395  134.2719  155.7214 LP  0  0  0  0  0  0  0  0  0  0  0  0  # atno 17395 bound_to 11000

$$$$
