AV-unprocessed.smi:1852|AV-procd|sdf|7526|dock2
  -GOLD-   22720 9233D 1   1.00000     0.00000
 Structure written by MMmdl.
 46 48  0  0  0  0  0  0  0  0  2 V2000
  151.6630  144.7046  160.2991 C   0  0  0  0  0  0  0  0  0  0  0  0
  152.2017  143.2918  160.2054 C   0  0  0  0  0  0  0  0  0  0  0  0
  153.1881  142.8448  161.1058 C   0  0  0  0  0  0  0  0  0  0  0  0
  153.6813  141.5308  161.0127 C   0  0  0  0  0  0  0  0  0  0  0  0
  153.1921  140.6559  160.0207 C   0  0  0  0  0  0  0  0  0  0  0  0
  153.7289  139.2390  159.9371 C   0  0  0  0  0  0  0  0  0  0  0  0
  152.2024  141.0927  159.1104 C   0  0  0  0  0  0  0  0  0  0  0  0
  151.7717  140.1891  158.1625 O   0  0  0  0  0  0  0  0  0  0  0  0
  150.8212  140.6159  157.1962 C   0  0  0  0  0  0  0  0  0  0  0  0
  151.3139  140.2216  155.7970 C   0  0  0  0  0  0  0  0  0  0  0  0
  150.2141  139.7570  154.9364 N   0  0  0  0  0  0  0  0  0  0  0  0
  150.0943  138.6168  154.1964 C   0  0  0  0  0  0  0  0  0  0  0  0
  151.0908  137.5055  154.0780 C   0  0  0  0  0  0  0  0  0  0  0  0
  150.4741  136.1844  154.0808 N   0  0  0  0  0  0  0  0  0  0  0  0
  150.8388  135.1681  154.8757 C   0  0  0  0  0  0  0  0  0  0  0  0
  151.7338  135.2298  155.7170 O   0  0  0  0  0  0  0  0  0  0  0  0
  148.8858  138.6696  153.5679 N   0  3  0  0  0  0  0  0  0  0  0  0
  148.2305  139.8555  153.9001 C   0  0  0  0  0  0  0  0  0  0  0  0
  146.9920  140.3527  153.5060 C   0  0  0  0  0  0  0  0  0  0  0  0
  146.6207  141.6104  154.0249 C   0  0  0  0  0  0  0  0  0  0  0  0
  147.4676  142.3229  154.8981 C   0  0  0  0  0  0  0  0  0  0  0  0
  148.7192  141.8071  155.2927 C   0  0  0  0  0  0  0  0  0  0  0  0
  149.0788  140.5615  154.7773 C   0  0  0  0  0  0  0  0  0  0  0  0
  151.7120  142.4193  159.2127 C   0  0  0  0  0  0  0  0  0  0  0  0
  152.2270  145.2988  161.0187 H   0  0  0  0  0  0  0  0  0  0  0  0
  150.6188  144.6893  160.6124 H   0  0  0  0  0  0  0  0  0  0  0  0
  151.7237  145.1994  159.3294 H   0  0  0  0  0  0  0  0  0  0  0  0
  153.5703  143.5057  161.8699 H   0  0  0  0  0  0  0  0  0  0  0  0
  154.4371  141.1977  161.7088 H   0  0  0  0  0  0  0  0  0  0  0  0
  154.2304  139.0808  158.9822 H   0  0  0  0  0  0  0  0  0  0  0  0
  152.9144  138.5190  160.0210 H   0  0  0  0  0  0  0  0  0  0  0  0
  154.4436  139.0345  160.7346 H   0  0  0  0  0  0  0  0  0  0  0  0
  149.8557  140.1438  157.3853 H   0  0  0  0  0  0  0  0  0  0  0  0
  150.6855  141.6970  157.2466 H   0  0  0  0  0  0  0  0  0  0  0  0
  151.7875  141.0738  155.3103 H   0  0  0  0  0  0  0  0  0  0  0  0
  152.0779  139.4469  155.8562 H   0  0  0  0  0  0  0  0  0  0  0  0
  151.6388  137.6276  153.1434 H   0  0  0  0  0  0  0  0  0  0  0  0
  151.8298  137.5722  154.8771 H   0  0  0  0  0  0  0  0  0  0  0  0
  149.7271  136.0257  153.4202 H   0  0  0  0  0  0  0  0  0  0  0  0
  150.2297  134.2735  154.6734 H   0  0  0  0  0  0  0  0  0  0  0  0
  146.3428  139.8103  152.8346 H   0  0  0  0  0  0  0  0  0  0  0  0
  145.6683  142.0378  153.7462 H   0  0  0  0  0  0  0  0  0  0  0  0
  147.1521  143.2860  155.2727 H   0  0  0  0  0  0  0  0  0  0  0  0
  149.3612  142.3662  155.9569 H   0  0  0  0  0  0  0  0  0  0  0  0
  150.9596  142.7926  158.5346 H   0  0  0  0  0  0  0  0  0  0  0  0
  148.5379  137.9449  152.9536 H   0  0  0  0  0  0  0  0  0  0  0  0
  1  2  1  0  0  0  0
  1 25  1  0  0  0  0
  1 26  1  0  0  0  0
  1 27  1  0  0  0  0
  2 24  1  0  0  0  0
  2  3  2  0  0  0  0
  3  4  1  0  0  0  0
  3 28  1  0  0  0  0
  4  5  2  0  0  0  0
  4 29  1  0  0  0  0
  5  6  1  0  0  0  0
  5  7  1  0  0  0  0
  6 30  1  0  0  0  0
  6 31  1  0  0  0  0
  6 32  1  0  0  0  0
  7  8  1  0  0  0  0
  7 24  2  0  0  0  0
  8  9  1  0  0  0  0
  9 10  1  0  0  0  0
  9 33  1  0  0  0  0
  9 34  1  0  0  0  0
 10 11  1  0  0  0  0
 10 35  1  0  0  0  0
 10 36  1  0  0  0  0
 11 23  1  0  0  0  0
 11 12  1  0  0  0  0
 12 13  1  0  0  0  0
 12 17  2  0  0  0  0
 13 14  1  0  0  0  0
 13 37  1  0  0  0  0
 13 38  1  0  0  0  0
 14 15  1  0  0  0  0
 14 39  1  0  0  0  0
 15 16  2  0  0  0  0
 15 40  1  0  0  0  0
 17 18  1  0  0  0  0
 17 46  1  0  0  0  0
 18 23  2  0  0  0  0
 18 19  1  0  0  0  0
 19 20  2  0  0  0  0
 19 41  1  0  0  0  0
 20 21  1  0  0  0  0
 20 42  1  0  0  0  0
 21 22  2  0  0  0  0
 21 43  1  0  0  0  0
 22 23  1  0  0  0  0
 22 44  1  0  0  0  0
 24 45  1  0  0  0  0
M  CHG  1  17   1
M  END
> <s_m_source_file>
AV-unprocessed.smi

> <i_m_source_file_index>
1852

> <i_lp_mmshare_version>
43012

> <i_f3d_flags>
0

> <s_epik_input>
W0NIM11jMVtjSF1bY0hdYyhbQ0gzXSljKFtjSF0xKU9bQ0gyXVtDSDJdbihjKG4yKVtDSDJdW05IXVtDSF09TyljKGMyMylbY0hdW2NIXVtjSF1bY0hdMw==

> <s_epik_cmdline>
J2VwaWtfcHl0aG9uJywgJy1waCcsICc3LjAnLCAnLXRuJywgJzgnLCAnLW1hJywgJzIwMCcsICctbWV0YWxfYmluZGluZycsICctaW1hZScsICc8aW5maWxlLm1hZT4nLCAnLW9tYWUnLCAnPG91dGZpbGUubWFlPic=

> <r_lp_tautomer_probability>
1

> <r_epik_Ionization_Penalty>
1.39865

> <r_epik_Ionization_Penalty_Charging>
1.39865

> <r_epik_Ionization_Penalty_Neutral>
7.38905e-08

> <r_epik_State_Penalty>
1.48061

> <r_epik_Charging_Adjusted_Penalty>
2.87925

> <i_epik_Tot_Q>
1

> <i_epik_Tot_abs_Q>
1

> <r_epik_Metal_State_Penalty>
1.53473

> <b_epik_Metal_Only>
0

> <s_lp_Force_Field>
OPLS_2005

> <r_lp_Energy>
13.537

> <b_lp_Chiralities_Consistent>
1

> <s_lp_Variant>
AV-unprocessed.smi:1852-2

> <Gold.Version>
5.8.1

> <Gold.Id.Protein>
6NUR|6NUR_protein|mol2

> <Gold.PLP.Fitness>
64.5176

> <Gold.PLP.PLP>
-54.4184

> <Gold.PLP.part.hbond>
-5.0000

> <Gold.PLP.part.metal>
0.0000

> <Gold.PLP.part.buried>
2.2466

> <Gold.PLP.part.nonpolar>
-50.9866

> <Gold.PLP.part.repulsive>
0.1495

> <Gold.PLP.ligand.clash>
0.0000

> <Gold.PLP.ligand.torsion>
0.9924

> <Gold.PLP.Chemscore.Hbond>
3.9424

> <Gold.PLP.Chemscore.CHOScore>
0.0000

> <Gold.PLP.Chemscore.Metal>
0.0000

> <Gold.Chemscore.Hbonds>
donor molecule, donor type, donor heavy atom, donor atom, acceptor molecule, acceptor atom, score
      L1  H    14    39       P1  7948  0.80
      L1  H    17    46       P1  7948  1.75
      P1  H 10752 10764       L1    16  0.83

> <Gold.PLP.Chemscore.Internal.Correction>
0.2568

> <Gold.Rescore>
     Score         DG    S(hbond)    S(metal)    S(lipo)     H(rot)  DE(clash)    DE(int)     intcor
     18.93     -21.71       1.77        0.00     141.51       2.44       1.34       1.44       ----

> <Gold.Chemscore.Fitness>
18.9326

> <Gold.Chemscore.DG>
-21.7075

> <Gold.Chemscore.ZeroCoef>
-5.4800

> <Gold.Chemscore.Hbond>
1.7723

> <Gold.Chemscore.Metal>
0.0000

> <Gold.Chemscore.Lipo>
141.5143

> <Gold.Chemscore.Internal_Hbond>
0.0000

> <Gold.Chemscore.DEClash>
1.3398

> <Gold.Chemscore.DEInternal>
1.4350

> <Gold.Chemscore.Rot>
2.4411

> <Gold.Chemscore.Internal.Correction>
   9.000000E+99

> <Gold.Chemscore.Hbonds>
donor molecule, donor type, donor heavy atom, donor atom, acceptor molecule, acceptor atom, score
      L1  H    14    39       P1  7948  0.11
      L1  H    17    46       P1  7948  0.82
      P1  H 10752 10764       L1    16  0.76

> <Gold.Chemscore.Hbond.Weighted>
-5.9196

> <Gold.Chemscore.Metal.Weighted>
-0.0000

> <Gold.Chemscore.Lipo.Weighted>
-16.5572

> <Gold.Chemscore.Internal_Hbond.Weighted>
0.0000

> <Gold.Chemscore.DEClash.Weighted>
1.3398

> <Gold.Chemscore.DEInternal.Weighted>
1.4350

> <Gold.Chemscore.Rot.Weighted>
6.2493

> <Gold.Chemscore.Internal.Correction.Weighted>
   9.000000E+99

> <Gold.Protein.RotatedTorsions>
[ 6907 6896 6895 6894 ] final  -76.49 input  -60.11 | X-H torsion
[ 7974 7965 7964 7962 ] final -157.93 input  175.53 | X-H torsion
[ 8008 7997 7996 7995 ] final   42.56 input   59.86 | X-H torsion
[ 10167 10162 10161 10158 ] final  -78.80 input  -65.29 | X-H torsion
[ 10718 10713 10712 10709 ] final   85.83 input   66.30 | X-H torsion
[ 10763 10752 10751 10750 ] final  -19.11 input  -60.55 | X-H torsion
[ 11005 11000 10999 10996 ] final   80.40 input  -57.11 | X-H torsion

> <Gold.Protein.ActiveResidues>
 VAL166  LYS551  ARG553  GLY616  TRP617  ASP618  TYR619  PRO620  LYS621  CYS622 
 ASP623  PHE694  ASN695  SER759  ASP760  ASP761  ALA762  ILE779  LEU786  VAL792 
 PHE793  MET794  SER795  GLU796  ALA797  LYS798  CYS799  TRP800  GLU811  SER814 

> <Gold.Protein.RotatedAtoms>
  150.7026  134.4564  159.5359 H   0  0  0  0  0  0  0  0  0  0  0  0  # atno 6907 bound_to 6896
  152.2247  134.8377  160.0490 H   0  0  0  0  0  0  0  0  0  0  0  0  # atno 6908 bound_to 6896
  151.9214  133.3551  159.3935 H   0  0  0  0  0  0  0  0  0  0  0  0  # atno 6909 bound_to 6896
  144.7527  140.3899  143.6036 H   0  0  0  0  0  0  0  0  0  0  0  0  # atno 7974 bound_to 7965
  155.2882  140.3377  155.4254 H   0  0  0  0  0  0  0  0  0  0  0  0  # atno 8008 bound_to 7997
  156.2058  140.1750  156.7842 H   0  0  0  0  0  0  0  0  0  0  0  0  # atno 8009 bound_to 7997
  154.5619  140.0686  156.8816 H   0  0  0  0  0  0  0  0  0  0  0  0  # atno 8010 bound_to 7997
  140.4650  143.2443  151.8292 H   0  0  0  0  0  0  0  0  0  0  0  0  # atno 10167 bound_to 10162
  157.6920  131.0191  150.2882 H   0  0  0  0  0  0  0  0  0  0  0  0  # atno 10718 bound_to 10713
  153.5997  135.7000  153.5389 H   0  0  0  0  0  0  0  0  0  0  0  0  # atno 10763 bound_to 10752
  153.3108  135.4102  155.1333 H   0  0  0  0  0  0  0  0  0  0  0  0  # atno 10764 bound_to 10752
  154.8585  135.3671  154.5532 H   0  0  0  0  0  0  0  0  0  0  0  0  # atno 10765 bound_to 10752
  139.9136  134.7917  156.1904 H   0  0  0  0  0  0  0  0  0  0  0  0  # atno 11005 bound_to 11000
  145.6888  139.1634  143.2659 LP  0  0  0  0  0  0  0  0  0  0  0  0  # atno 17320 bound_to 7965
  146.1498  140.6941  142.9327 LP  0  0  0  0  0  0  0  0  0  0  0  0  # atno 17321 bound_to 7965
  139.4811  144.4962  151.9120 LP  0  0  0  0  0  0  0  0  0  0  0  0  # atno 17342 bound_to 10162
  140.4048  144.2447  150.5891 LP  0  0  0  0  0  0  0  0  0  0  0  0  # atno 17343 bound_to 10162
  156.3417  130.3816  149.7403 LP  0  0  0  0  0  0  0  0  0  0  0  0  # atno 17370 bound_to 10713
  156.4910  130.8085  151.3094 LP  0  0  0  0  0  0  0  0  0  0  0  0  # atno 17371 bound_to 10713
  141.0587  133.6852  156.1910 LP  0  0  0  0  0  0  0  0  0  0  0  0  # atno 17394 bound_to 11000
  140.6695  134.4882  157.5586 LP  0  0  0  0  0  0  0  0  0  0  0  0  # atno 17395 bound_to 11000

$$$$
