AV-unprocessed.smi:1978|AV-procd|sdf|8008|dock3
  -GOLD-   2272010193D 1   1.00000     0.00000
 Structure written by MMmdl.
 44 45  0  0  0  0  0  0  0  0  3 V2000
  152.9345  142.4649  161.0940 C   0  0  0  0  0  0  0  0  0  0  0  0
  152.7242  141.7088  159.8273 C   0  0  0  0  0  0  0  0  0  0  0  0
  151.8418  141.8527  158.7941 C   0  0  0  0  0  0  0  0  0  0  0  0
  152.1986  140.7941  157.9169 C   0  0  0  0  0  0  0  0  0  0  0  0
  151.5003  140.6003  156.6958 N   0  0  0  0  0  0  0  0  0  0  0  0
  151.8564  139.8618  155.6290 C   0  0  0  0  0  0  0  0  0  0  0  0
  152.9176  139.2266  155.6334 O   0  0  0  0  0  0  0  0  0  0  0  0
  150.9382  139.9298  154.6256 N   0  5  0  0  0  0  0  0  0  0  0  0
  150.3512  138.7726  153.9482 C   0  0  0  0  0  0  0  0  0  0  0  0
  149.2349  138.1248  154.8115 C   0  0  2  0  0  0  0  0  0  0  0  0
  149.7234  136.9216  155.6622 C   0  0  0  0  0  0  0  0  0  0  0  0
  148.0567  137.8034  153.9450 N   0  3  1  0  0  0  0  0  0  0  0  0
  147.0180  136.9060  154.5334 C   0  0  0  0  0  0  0  0  0  0  0  0
  146.0505  136.4000  153.4520 C   0  0  0  0  0  0  0  0  0  0  0  0
  145.4079  137.5685  152.6955 C   0  0  0  0  0  0  0  0  0  0  0  0
  146.4978  138.4862  152.1224 C   0  0  0  0  0  0  0  0  0  0  0  0
  147.4821  138.9708  153.2079 C   0  0  1  0  0  0  0  0  0  0  0  0
  146.8572  140.0359  154.1331 C   0  0  0  0  0  0  0  0  0  0  0  0
  153.2086  140.0692  158.3750 N   0  0  0  0  0  0  0  0  0  0  0  0
  153.5501  140.6515  159.6015 O   0  0  0  0  0  0  0  0  0  0  0  0
  152.1891  143.2526  161.2057 H   0  0  0  0  0  0  0  0  0  0  0  0
  153.9209  142.9286  161.1079 H   0  0  0  0  0  0  0  0  0  0  0  0
  152.8583  141.8030  161.9566 H   0  0  0  0  0  0  0  0  0  0  0  0
  151.0670  142.5966  158.6844 H   0  0  0  0  0  0  0  0  0  0  0  0
  150.6208  141.0884  156.6154 H   0  0  0  0  0  0  0  0  0  0  0  0
  149.9320  139.0481  152.9790 H   0  0  0  0  0  0  0  0  0  0  0  0
  151.1068  138.0192  153.7245 H   0  0  0  0  0  0  0  0  0  0  0  0
  148.9112  138.8927  155.5158 H   0  0  0  0  0  0  0  0  0  0  0  0
  150.4748  137.2246  156.3934 H   0  0  0  0  0  0  0  0  0  0  0  0
  150.1646  136.1256  155.0598 H   0  0  0  0  0  0  0  0  0  0  0  0
  148.9059  136.4805  156.2316 H   0  0  0  0  0  0  0  0  0  0  0  0
  147.4938  136.0450  155.0038 H   0  0  0  0  0  0  0  0  0  0  0  0
  146.4619  137.4236  155.3152 H   0  0  0  0  0  0  0  0  0  0  0  0
  146.5891  135.7615  152.7505 H   0  0  0  0  0  0  0  0  0  0  0  0
  145.2775  135.7786  153.9049 H   0  0  0  0  0  0  0  0  0  0  0  0
  144.7750  137.1911  151.8919 H   0  0  0  0  0  0  0  0  0  0  0  0
  144.7556  138.1309  153.3643 H   0  0  0  0  0  0  0  0  0  0  0  0
  147.0520  137.9412  151.3570 H   0  0  0  0  0  0  0  0  0  0  0  0
  146.0427  139.3377  151.6152 H   0  0  0  0  0  0  0  0  0  0  0  0
  148.3054  139.4534  152.6790 H   0  0  0  0  0  0  0  0  0  0  0  0
  146.4439  140.8582  153.5490 H   0  0  0  0  0  0  0  0  0  0  0  0
  147.5983  140.4692  154.8041 H   0  0  0  0  0  0  0  0  0  0  0  0
  146.0493  139.6340  154.7437 H   0  0  0  0  0  0  0  0  0  0  0  0
  148.4713  137.2491  153.2093 H   0  0  0  0  0  0  0  0  0  0  0  0
  1  2  1  0  0  0  0
  1 21  1  0  0  0  0
  1 22  1  0  0  0  0
  1 23  1  0  0  0  0
  2 20  1  0  0  0  0
  2  3  2  0  0  0  0
  3  4  1  0  0  0  0
  3 24  1  0  0  0  0
  4  5  1  0  0  0  0
  4 19  2  0  0  0  0
  5  6  1  0  0  0  0
  5 25  1  0  0  0  0
  6  7  2  0  0  0  0
  6  8  1  0  0  0  0
  8  9  1  0  0  0  0
  9 10  1  0  0  0  0
  9 26  1  0  0  0  0
  9 27  1  0  0  0  0
 10 11  1  0  0  0  0
 10 12  1  0  0  0  0
 10 28  1  0  0  0  0
 11 29  1  0  0  0  0
 11 30  1  0  0  0  0
 11 31  1  0  0  0  0
 12 17  1  0  0  0  0
 12 13  1  0  0  0  0
 12 44  1  0  0  0  0
 13 14  1  0  0  0  0
 13 32  1  0  0  0  0
 13 33  1  0  0  0  0
 14 15  1  0  0  0  0
 14 34  1  0  0  0  0
 14 35  1  0  0  0  0
 15 16  1  0  0  0  0
 15 36  1  0  0  0  0
 15 37  1  0  0  0  0
 16 17  1  0  0  0  0
 16 38  1  0  0  0  0
 16 39  1  0  0  0  0
 17 18  1  0  0  0  0
 17 40  1  0  0  0  0
 18 41  1  0  0  0  0
 18 42  1  0  0  0  0
 18 43  1  0  0  0  0
 19 20  1  0  0  0  0
M  CHG  1   8  -1
M  CHG  1  12   1
M  END
> <s_m_source_file>
AV-unprocessed.smi

> <i_m_source_file_index>
1978

> <i_lp_mmshare_version>
43012

> <i_f3d_flags>
0

> <s_epik_input>
W0NIM11jMVtjSF1jKG5vMSlbTkhdQyg9TylbTkhdW0NIMl1bQ0BIXShbQ0gzXSlOMltDSDJdW0NIMl1bQ0gyXVtDSDJdW0NASF0yW0NIM10=

> <s_epik_cmdline>
J2VwaWtfcHl0aG9uJywgJy1waCcsICc3LjAnLCAnLXRuJywgJzgnLCAnLW1hJywgJzIwMCcsICctbWV0YWxfYmluZGluZycsICctaW1hZScsICc8aW5maWxlLm1hZT4nLCAnLW9tYWUnLCAnPG91dGZpbGUubWFlPic=

> <r_epik_Ionization_Penalty>
6.7666

> <r_epik_Ionization_Penalty_Charging>
6.7666

> <r_epik_Ionization_Penalty_Neutral>
5.77131e-06

> <r_epik_State_Penalty>
6.79217

> <r_epik_Charging_Adjusted_Penalty>
13.5588

> <i_epik_Tot_Q>
0

> <i_epik_Tot_abs_Q>
2

> <r_epik_Metal_State_Penalty>
2.72569

> <b_epik_Metal_Only>
1

> <s_lp_Force_Field>
OPLS_2005

> <r_lp_Energy>
20.2617

> <b_lp_Chiralities_Consistent>
1

> <s_lp_Variant>
AV-unprocessed.smi:1978-17

> <Gold.Version>
5.8.1

> <Gold.Id.Protein>
6NUR|6NUR_protein|mol2

> <Gold.PLP.Fitness>
43.0593

> <Gold.PLP.PLP>
-33.3595

> <Gold.PLP.part.hbond>
-4.0000

> <Gold.PLP.part.metal>
0.0000

> <Gold.PLP.part.buried>
-3.2268

> <Gold.PLP.part.nonpolar>
-25.7562

> <Gold.PLP.part.repulsive>
0.2006

> <Gold.PLP.ligand.clash>
0.0000

> <Gold.PLP.ligand.torsion>
1.3544

> <Gold.PLP.Chemscore.Hbond>
4.0663

> <Gold.PLP.Chemscore.CHOScore>
0.0000

> <Gold.PLP.Chemscore.Metal>
0.0000

> <Gold.Chemscore.Hbonds>
donor molecule, donor type, donor heavy atom, donor atom, acceptor molecule, acceptor atom, score
      L1  H    12    44       P1  7948  2.00
      P1  H  7989  7998       L1     8  1.00
      P1  H  7997  8008       L1     7  1.00
      P1  H  7997  8010       L1    19  0.07

> <Gold.PLP.Chemscore.Internal.Correction>
0.2095

> <Gold.Rescore>
     Score         DG    S(hbond)    S(metal)    S(lipo)     H(rot)  DE(clash)    DE(int)     intcor
     16.11     -18.94       2.57        0.00      74.96       1.52       0.16       2.67       ----

> <Gold.Chemscore.Fitness>
16.1053

> <Gold.Chemscore.DG>
-18.9378

> <Gold.Chemscore.ZeroCoef>
-5.4800

> <Gold.Chemscore.Hbond>
2.5677

> <Gold.Chemscore.Metal>
0.0000

> <Gold.Chemscore.Lipo>
74.9604

> <Gold.Chemscore.Internal_Hbond>
0.0000

> <Gold.Chemscore.DEClash>
0.1631

> <Gold.Chemscore.DEInternal>
2.6694

> <Gold.Chemscore.Rot>
1.5190

> <Gold.Chemscore.Internal.Correction>
   9.000000E+99

> <Gold.Chemscore.Hbonds>
donor molecule, donor type, donor heavy atom, donor atom, acceptor molecule, acceptor atom, score
      L1  H    12    44       P1  7948  1.00
      P1  H  7989  7998       L1     8  0.32
      P1  H  7997  8008       L1     7  0.91
      P1  H  7997  8010       L1    19  0.02

> <Gold.Chemscore.Hbond.Weighted>
-8.5760

> <Gold.Chemscore.Metal.Weighted>
-0.0000

> <Gold.Chemscore.Lipo.Weighted>
-8.7704

> <Gold.Chemscore.Internal_Hbond.Weighted>
0.0000

> <Gold.Chemscore.DEClash.Weighted>
0.1631

> <Gold.Chemscore.DEInternal.Weighted>
2.6694

> <Gold.Chemscore.Rot.Weighted>
3.8886

> <Gold.Chemscore.Internal.Correction.Weighted>
   9.000000E+99

> <Gold.Protein.RotatedTorsions>
[ 6907 6896 6895 6894 ] final  -12.12 input  -60.11 | X-H torsion
[ 7974 7965 7964 7962 ] final   65.46 input  175.53 | X-H torsion
[ 8008 7997 7996 7995 ] final  -13.03 input   59.86 | X-H torsion
[ 10167 10162 10161 10158 ] final -133.97 input  -65.29 | X-H torsion
[ 10718 10713 10712 10709 ] final  -93.03 input   66.30 | X-H torsion
[ 10763 10752 10751 10750 ] final -174.10 input  -60.55 | X-H torsion
[ 11005 11000 10999 10996 ] final    4.88 input  -57.11 | X-H torsion

> <Gold.Protein.ActiveResidues>
 VAL166  LYS551  ARG553  GLY616  TRP617  ASP618  TYR619  PRO620  LYS621  CYS622 
 ASP623  PHE694  ASN695  SER759  ASP760  ASP761  ALA762  ILE779  LEU786  VAL792 
 PHE793  MET794  SER795  GLU796  ALA797  LYS798  CYS799  TRP800  GLU811  SER814 

> <Gold.Protein.RotatedAtoms>
  151.3755  135.0930  159.9478 H   0  0  0  0  0  0  0  0  0  0  0  0  # atno 6907 bound_to 6896
  152.5123  133.9123  159.7504 H   0  0  0  0  0  0  0  0  0  0  0  0  # atno 6908 bound_to 6896
  150.9545  133.6457  159.2794 H   0  0  0  0  0  0  0  0  0  0  0  0  # atno 6909 bound_to 6896
  145.8382  139.3179  143.0947 H   0  0  0  0  0  0  0  0  0  0  0  0  # atno 7974 bound_to 7965
  154.5327  140.2260  155.8776 H   0  0  0  0  0  0  0  0  0  0  0  0  # atno 8008 bound_to 7997
  156.1780  140.3107  155.9059 H   0  0  0  0  0  0  0  0  0  0  0  0  # atno 8009 bound_to 7997
  155.3418  140.0451  157.3035 H   0  0  0  0  0  0  0  0  0  0  0  0  # atno 8010 bound_to 7997
  139.8929  143.6701  152.2609 H   0  0  0  0  0  0  0  0  0  0  0  0  # atno 10167 bound_to 10162
  156.0008  130.5011  150.5715 H   0  0  0  0  0  0  0  0  0  0  0  0  # atno 10718 bound_to 10713
  154.6002  135.2854  155.0543 H   0  0  0  0  0  0  0  0  0  0  0  0  # atno 10763 bound_to 10752
  154.1811  135.6456  153.5038 H   0  0  0  0  0  0  0  0  0  0  0  0  # atno 10764 bound_to 10752
  153.0154  135.5424  154.6718 H   0  0  0  0  0  0  0  0  0  0  0  0  # atno 10765 bound_to 10752
  140.5769  134.0049  155.8031 H   0  0  0  0  0  0  0  0  0  0  0  0  # atno 11005 bound_to 11000
  145.9495  140.8919  143.0266 LP  0  0  0  0  0  0  0  0  0  0  0  0  # atno 17320 bound_to 7965
  144.6735  140.1660  143.7418 LP  0  0  0  0  0  0  0  0  0  0  0  0  # atno 17321 bound_to 7965
  139.7094  144.7623  151.1138 LP  0  0  0  0  0  0  0  0  0  0  0  0  # atno 17342 bound_to 10162
  140.7723  143.5351  150.9378 LP  0  0  0  0  0  0  0  0  0  0  0  0  # atno 17343 bound_to 10162
  157.3609  131.0749  151.1637 LP  0  0  0  0  0  0  0  0  0  0  0  0  # atno 17370 bound_to 10713
  157.2422  130.6574  149.5894 LP  0  0  0  0  0  0  0  0  0  0  0  0  # atno 17371 bound_to 10713
  141.1021  133.9752  157.3061 LP  0  0  0  0  0  0  0  0  0  0  0  0  # atno 17394 bound_to 11000
  139.9335  135.0198  156.8480 LP  0  0  0  0  0  0  0  0  0  0  0  0  # atno 17395 bound_to 11000

$$$$
