AV-unprocessed.smi:408|AV-procd|sdf|2503|dock7
  -GOLD-   2262022453D 1   1.00000     0.00000
 Structure written by MMmdl.
 41 42  0  0  0  0  0  0  0  0  1 V2000
  152.1414  142.7619  160.2180 C   0  0  0  0  0  0  0  0  0  0  0  0
  151.7790  143.8665  159.2111 C   0  0  0  0  0  0  0  0  0  0  0  0
  151.4470  145.1733  159.9476 C   0  0  0  0  0  0  0  0  0  0  0  0
  150.6210  143.4590  158.2774 C   0  0  0  0  0  0  0  0  0  0  0  0
  150.9313  142.2453  157.3811 C   0  0  0  0  0  0  0  0  0  0  0  0
  149.9183  142.0732  156.3460 N   0  0  0  0  0  0  0  0  0  0  0  0
  149.3435  140.9063  156.0148 C   0  0  0  0  0  0  0  0  0  0  0  0
  149.6165  139.8409  156.5701 O   0  0  0  0  0  0  0  0  0  0  0  0
  148.3201  140.9547  154.8741 C   0  0  0  0  0  0  0  0  0  0  0  0
  147.0759  141.6896  155.2857 C   0  0  0  0  0  0  0  0  0  0  0  0
  145.9564  141.9140  154.5214 C   0  0  0  0  0  0  0  0  0  0  0  0
  144.7404  142.8113  155.3909 S   0  0  0  0  0  0  0  0  0  0  0  0
  145.8215  142.8657  156.7747 C   0  0  0  0  0  0  0  0  0  0  0  0
  145.4526  143.5088  157.9877 N   0  0  0  0  0  0  0  0  0  0  0  0
  145.9136  143.3411  159.2447 C   0  0  0  0  0  0  0  0  0  0  0  0
  146.8097  142.5289  159.4687 O   0  0  0  0  0  0  0  0  0  0  0  0
  145.3312  144.1696  160.3456 C   0  0  0  0  0  0  0  0  0  0  0  0
  145.9682  144.0539  161.7178 C   0  0  0  0  0  0  0  0  0  0  0  0
  144.6154  143.4427  161.4664 C   0  0  0  0  0  0  0  0  0  0  0  0
  146.9738  142.2178  156.5763 N   0  0  0  0  0  0  0  0  0  0  0  0
  151.2829  142.4876  160.8316 H   0  0  0  0  0  0  0  0  0  0  0  0
  152.9364  143.0893  160.8885 H   0  0  0  0  0  0  0  0  0  0  0  0
  152.4966  141.8616  159.7174 H   0  0  0  0  0  0  0  0  0  0  0  0
  152.6584  144.0587  158.5947 H   0  0  0  0  0  0  0  0  0  0  0  0
  150.5670  145.0586  160.5814 H   0  0  0  0  0  0  0  0  0  0  0  0
  151.2475  145.9824  159.2444 H   0  0  0  0  0  0  0  0  0  0  0  0
  152.2752  145.4897  160.5825 H   0  0  0  0  0  0  0  0  0  0  0  0
  149.7251  143.2606  158.8675 H   0  0  0  0  0  0  0  0  0  0  0  0
  150.3764  144.3085  157.6382 H   0  0  0  0  0  0  0  0  0  0  0  0
  151.9183  142.3452  156.9261 H   0  0  0  0  0  0  0  0  0  0  0  0
  150.9523  141.3303  157.9722 H   0  0  0  0  0  0  0  0  0  0  0  0
  149.6405  142.9009  155.8386 H   0  0  0  0  0  0  0  0  0  0  0  0
  148.7652  141.4298  153.9985 H   0  0  0  0  0  0  0  0  0  0  0  0
  148.0828  139.9314  154.5811 H   0  0  0  0  0  0  0  0  0  0  0  0
  145.7750  141.6078  153.5021 H   0  0  0  0  0  0  0  0  0  0  0  0
  144.7593  144.2353  157.8842 H   0  0  0  0  0  0  0  0  0  0  0  0
  144.9966  145.1682  160.0711 H   0  0  0  0  0  0  0  0  0  0  0  0
  146.8037  143.3694  161.8534 H   0  0  0  0  0  0  0  0  0  0  0  0
  146.0139  144.9597  162.3189 H   0  0  0  0  0  0  0  0  0  0  0  0
  143.7403  143.9327  161.8886 H   0  0  0  0  0  0  0  0  0  0  0  0
  144.5564  142.3566  161.4177 H   0  0  0  0  0  0  0  0  0  0  0  0
  1  2  1  0  0  0  0
  1 21  1  0  0  0  0
  1 22  1  0  0  0  0
  1 23  1  0  0  0  0
  2  3  1  0  0  0  0
  2  4  1  0  0  0  0
  2 24  1  0  0  0  0
  3 25  1  0  0  0  0
  3 26  1  0  0  0  0
  3 27  1  0  0  0  0
  4  5  1  0  0  0  0
  4 28  1  0  0  0  0
  4 29  1  0  0  0  0
  5  6  1  0  0  0  0
  5 30  1  0  0  0  0
  5 31  1  0  0  0  0
  6  7  1  0  0  0  0
  6 32  1  0  0  0  0
  7  8  2  0  0  0  0
  7  9  1  0  0  0  0
  9 10  1  0  0  0  0
  9 33  1  0  0  0  0
  9 34  1  0  0  0  0
 10 20  1  0  0  0  0
 10 11  2  0  0  0  0
 11 12  1  0  0  0  0
 11 35  1  0  0  0  0
 12 13  1  0  0  0  0
 13 14  1  0  0  0  0
 13 20  2  0  0  0  0
 14 15  1  0  0  0  0
 14 36  1  0  0  0  0
 15 16  2  0  0  0  0
 15 17  1  0  0  0  0
 17 19  1  0  0  0  0
 17 18  1  0  0  0  0
 17 37  1  0  0  0  0
 18 19  1  0  0  0  0
 18 38  1  0  0  0  0
 18 39  1  0  0  0  0
 19 40  1  0  0  0  0
 19 41  1  0  0  0  0
M  END
> <s_m_source_file>
AV-unprocessed.smi

> <i_m_source_file_index>
408

> <i_lp_mmshare_version>
43012

> <i_f3d_flags>
0

> <s_epik_input>
W0NIM11bQ0hdKFtDSDNdKVtDSDJdW0NIMl1bTkhdQyg9TylbQ0gyXWMxW2NIXXNjKG4xKVtOSF1DKD1PKVtDSF0yW0NIMl1bQ0gyXTI=

> <s_epik_cmdline>
J2VwaWtfcHl0aG9uJywgJy1waCcsICc3LjAnLCAnLXRuJywgJzgnLCAnLW1hJywgJzIwMCcsICctbWV0YWxfYmluZGluZycsICctaW1hZScsICc8aW5maWxlLm1hZT4nLCAnLW9tYWUnLCAnPG91dGZpbGUubWFlPic=

> <r_lp_tautomer_probability>
1

> <r_epik_Ionization_Penalty>
0.000153743

> <r_epik_Ionization_Penalty_Charging>
0

> <r_epik_Ionization_Penalty_Neutral>
0.000153743

> <r_epik_State_Penalty>
-0

> <r_epik_Charging_Adjusted_Penalty>
0

> <i_epik_Tot_Q>
0

> <i_epik_Tot_abs_Q>
0

> <r_epik_Metal_State_Penalty>
0.0946566

> <b_epik_Metal_Only>
0

> <s_lp_Force_Field>
OPLS_2005

> <r_lp_Energy>
15.0159

> <b_lp_Chiralities_Consistent>
1

> <s_lp_Variant>
AV-unprocessed.smi:408-1

> <Gold.Version>
5.8.1

> <Gold.Id.Protein>
6NUR|6NUR_protein|mol2

> <Gold.PLP.Fitness>
47.1829

> <Gold.PLP.PLP>
-38.8668

> <Gold.PLP.part.hbond>
-3.0000

> <Gold.PLP.part.metal>
0.0000

> <Gold.PLP.part.buried>
-6.8260

> <Gold.PLP.part.nonpolar>
-32.0717

> <Gold.PLP.part.repulsive>
0.3335

> <Gold.PLP.ligand.clash>
0.0000

> <Gold.PLP.ligand.torsion>
0.3391

> <Gold.PLP.Chemscore.Hbond>
1.9706

> <Gold.PLP.Chemscore.CHOScore>
0.9919

> <Gold.PLP.Chemscore.Metal>
0.0000

> <Gold.Chemscore.Hbonds>
donor molecule, donor type, donor heavy atom, donor atom, acceptor molecule, acceptor atom, score
      L1  H     6    32       P1  8028  1.00
      P1  H  6934  6946       L1    16  0.81
      L1  C    11    35       P1 10175  0.70

> <Gold.PLP.Chemscore.Internal.Correction>
0.1070

> <Gold.Rescore>
     Score         DG    S(hbond)    S(metal)    S(lipo)     H(rot)  DE(clash)    DE(int)     intcor
     15.77     -18.73       2.24        0.00      92.86       1.99       0.01       2.94       ----

> <Gold.Chemscore.Fitness>
15.7704

> <Gold.Chemscore.DG>
-18.7251

> <Gold.Chemscore.ZeroCoef>
-5.4800

> <Gold.Chemscore.Hbond>
2.2380

> <Gold.Chemscore.Metal>
0.0000

> <Gold.Chemscore.Lipo>
92.8585

> <Gold.Chemscore.Internal_Hbond>
0.0000

> <Gold.Chemscore.DEClash>
0.0128

> <Gold.Chemscore.DEInternal>
2.9420

> <Gold.Chemscore.Rot>
1.9899

> <Gold.Chemscore.Internal.Correction>
   9.000000E+99

> <Gold.Chemscore.Hbonds>
donor molecule, donor type, donor heavy atom, donor atom, acceptor molecule, acceptor atom, score
      L1  H     6    32       P1  8028  0.96
      P1  H  6934  6946       L1    16  0.78

> <Gold.Chemscore.Hbond.Weighted>
-7.4748

> <Gold.Chemscore.Metal.Weighted>
-0.0000

> <Gold.Chemscore.Lipo.Weighted>
-10.8644

> <Gold.Chemscore.Internal_Hbond.Weighted>
0.0000

> <Gold.Chemscore.DEClash.Weighted>
0.0128

> <Gold.Chemscore.DEInternal.Weighted>
2.9420

> <Gold.Chemscore.Rot.Weighted>
5.0941

> <Gold.Chemscore.Internal.Correction.Weighted>
   9.000000E+99

> <Gold.Protein.RotatedTorsions>
[ 6907 6896 6895 6894 ] final   -7.59 input  -60.11 | X-H torsion
[ 7974 7965 7964 7962 ] final  143.25 input  175.53 | X-H torsion
[ 8008 7997 7996 7995 ] final  -23.55 input   59.86 | X-H torsion
[ 10167 10162 10161 10158 ] final   63.59 input  -65.29 | X-H torsion
[ 10718 10713 10712 10709 ] final    0.02 input   66.30 | X-H torsion
[ 10763 10752 10751 10750 ] final -152.81 input  -60.55 | X-H torsion
[ 11005 11000 10999 10996 ] final  -58.09 input  -57.11 | X-H torsion

> <Gold.Protein.ActiveResidues>
 VAL166  LYS551  ARG553  GLY616  TRP617  ASP618  TYR619  PRO620  LYS621  CYS622 
 ASP623  PHE694  ASN695  SER759  ASP760  ASP761  ALA762  ILE779  LEU786  VAL792 
 PHE793  MET794  SER795  GLU796  ALA797  LYS798  CYS799  TRP800  GLU811  SER814 

> <Gold.Protein.RotatedAtoms>
  151.4472  135.1026  159.9687 H   0  0  0  0  0  0  0  0  0  0  0  0  # atno 6907 bound_to 6896
  152.4901  133.8474  159.7194 H   0  0  0  0  0  0  0  0  0  0  0  0  # atno 6908 bound_to 6896
  150.9047  133.7014  159.2897 H   0  0  0  0  0  0  0  0  0  0  0  0  # atno 6909 bound_to 6896
  144.8937  139.5522  143.5786 H   0  0  0  0  0  0  0  0  0  0  0  0  # atno 7974 bound_to 7965
  154.4579  140.1977  156.0328 H   0  0  0  0  0  0  0  0  0  0  0  0  # atno 8008 bound_to 7997
  156.0782  140.3275  155.7632 H   0  0  0  0  0  0  0  0  0  0  0  0  # atno 8009 bound_to 7997
  155.5154  140.0565  157.2907 H   0  0  0  0  0  0  0  0  0  0  0  0  # atno 8010 bound_to 7997
  140.1314  144.4639  150.6862 H   0  0  0  0  0  0  0  0  0  0  0  0  # atno 10167 bound_to 10162
  156.8272  130.5476  149.5690 H   0  0  0  0  0  0  0  0  0  0  0  0  # atno 10718 bound_to 10713
  154.7969  135.3227  154.7644 H   0  0  0  0  0  0  0  0  0  0  0  0  # atno 10763 bound_to 10752
  153.8321  135.6878  153.4817 H   0  0  0  0  0  0  0  0  0  0  0  0  # atno 10764 bound_to 10752
  153.1665  135.4640  154.9787 H   0  0  0  0  0  0  0  0  0  0  0  0  # atno 10765 bound_to 10752
  141.1192  133.6611  156.4868 H   0  0  0  0  0  0  0  0  0  0  0  0  # atno 11005 bound_to 11000
  146.3068  139.7609  142.9050 LP  0  0  0  0  0  0  0  0  0  0  0  0  # atno 17320 bound_to 7965
  145.3738  141.0347  143.3216 LP  0  0  0  0  0  0  0  0  0  0  0  0  # atno 17321 bound_to 7965
  140.6815  143.2329  151.5373 LP  0  0  0  0  0  0  0  0  0  0  0  0  # atno 17342 bound_to 10162
  139.5518  144.2377  152.1543 LP  0  0  0  0  0  0  0  0  0  0  0  0  # atno 17343 bound_to 10162
  156.0955  130.5928  150.9805 LP  0  0  0  0  0  0  0  0  0  0  0  0  # atno 17370 bound_to 10713
  157.6426  131.0908  150.8220 LP  0  0  0  0  0  0  0  0  0  0  0  0  # atno 17371 bound_to 10713
  140.4556  134.6889  157.5061 LP  0  0  0  0  0  0  0  0  0  0  0  0  # atno 17394 bound_to 11000
  140.0137  134.6651  155.9342 LP  0  0  0  0  0  0  0  0  0  0  0  0  # atno 17395 bound_to 11000

$$$$
