AV-unprocessed.smi:1251|AV-procd|sdf|5263|dock9
  -GOLD-   22720 4373D 1   1.00000     0.00000
 Structure written by MMmdl.
 38 39  0  0  0  0  0  0  0  0  2 V2000
  146.7010  141.7031  154.0170 C   0  0  0  0  0  0  0  0  0  0  0  0
  148.0877  141.4420  154.6151 C   0  0  0  0  0  0  0  0  0  0  0  0
  148.5858  140.0152  154.3446 C   0  0  0  0  0  0  0  0  0  0  0  0
  149.9360  139.7594  154.9263 C   0  0  0  0  0  0  0  0  0  0  0  0
  150.9568  139.2861  154.2070 N   0  0  0  0  0  0  0  0  0  0  0  0
  152.0980  139.1056  154.9748 N   0  0  0  0  0  0  0  0  0  0  0  0
  151.9185  139.4207  156.2654 C   0  0  0  0  0  0  0  0  0  0  0  0
  152.9013  139.3160  157.1751 N   0  5  0  0  0  0  0  0  0  0  0  0
  152.6414  139.5516  158.4812 C   0  0  0  0  0  0  0  0  0  0  0  0
  151.5716  139.3477  159.0597 O   0  0  0  0  0  0  0  0  0  0  0  0
  153.6847  140.0619  159.1524 N   0  0  0  0  0  0  0  0  0  0  0  0
  153.7220  140.4323  160.5671 C   0  0  1  0  0  0  0  0  0  0  0  0
  155.1669  140.7889  160.9452 C   0  0  0  0  0  0  0  0  0  0  0  0
  152.7541  141.6019  160.8414 C   0  0  1  0  0  0  0  0  0  0  0  0
  152.9835  142.3406  162.1614 C   0  0  0  0  0  0  0  0  0  0  0  0
  152.3901  143.7173  161.9083 C   0  0  0  0  0  0  0  0  0  0  0  0
  152.2591  143.7922  160.3844 C   0  0  0  0  0  0  0  0  0  0  0  0
  152.9339  142.6425  159.8927 O   0  0  0  0  0  0  0  0  0  0  0  0
  150.2919  139.9967  156.6290 S   0  0  0  0  0  0  0  0  0  0  0  0
  146.3737  142.7220  154.2253 H   0  0  0  0  0  0  0  0  0  0  0  0
  145.9581  141.0226  154.4343 H   0  0  0  0  0  0  0  0  0  0  0  0
  146.7081  141.5703  152.9348 H   0  0  0  0  0  0  0  0  0  0  0  0
  148.7971  142.1610  154.2036 H   0  0  0  0  0  0  0  0  0  0  0  0
  148.0557  141.6207  155.6907 H   0  0  0  0  0  0  0  0  0  0  0  0
  147.8839  139.2880  154.7548 H   0  0  0  0  0  0  0  0  0  0  0  0
  148.6317  139.8323  153.2705 H   0  0  0  0  0  0  0  0  0  0  0  0
  154.5341  140.2095  158.6275 H   0  0  0  0  0  0  0  0  0  0  0  0
  153.4240  139.5824  161.1833 H   0  0  0  0  0  0  0  0  0  0  0  0
  155.2474  141.0383  162.0035 H   0  0  0  0  0  0  0  0  0  0  0  0
  155.5284  141.6440  160.3731 H   0  0  0  0  0  0  0  0  0  0  0  0
  155.8392  139.9517  160.7544 H   0  0  0  0  0  0  0  0  0  0  0  0
  151.7197  141.2559  160.7899 H   0  0  0  0  0  0  0  0  0  0  0  0
  152.5307  141.8327  163.0135 H   0  0  0  0  0  0  0  0  0  0  0  0
  154.0523  142.4364  162.3570 H   0  0  0  0  0  0  0  0  0  0  0  0
  151.4136  143.8232  162.3823 H   0  0  0  0  0  0  0  0  0  0  0  0
  153.0403  144.5006  162.2991 H   0  0  0  0  0  0  0  0  0  0  0  0
  151.2103  143.7464  160.0879 H   0  0  0  0  0  0  0  0  0  0  0  0
  152.6899  144.7047  159.9715 H   0  0  0  0  0  0  0  0  0  0  0  0
  1  2  1  0  0  0  0
  1 20  1  0  0  0  0
  1 21  1  0  0  0  0
  1 22  1  0  0  0  0
  2  3  1  0  0  0  0
  2 23  1  0  0  0  0
  2 24  1  0  0  0  0
  3  4  1  0  0  0  0
  3 25  1  0  0  0  0
  3 26  1  0  0  0  0
  4 19  1  0  0  0  0
  4  5  2  0  0  0  0
  5  6  1  0  0  0  0
  6  7  2  0  0  0  0
  7  8  1  0  0  0  0
  7 19  1  0  0  0  0
  8  9  1  0  0  0  0
  9 10  2  0  0  0  0
  9 11  1  0  0  0  0
 11 12  1  0  0  0  0
 11 27  1  0  0  0  0
 12 13  1  0  0  0  0
 12 14  1  0  0  0  0
 12 28  1  0  0  0  0
 13 29  1  0  0  0  0
 13 30  1  0  0  0  0
 13 31  1  0  0  0  0
 14 18  1  0  0  0  0
 14 15  1  0  0  0  0
 14 32  1  0  0  0  0
 15 16  1  0  0  0  0
 15 33  1  0  0  0  0
 15 34  1  0  0  0  0
 16 17  1  0  0  0  0
 16 35  1  0  0  0  0
 16 36  1  0  0  0  0
 17 18  1  0  0  0  0
 17 37  1  0  0  0  0
 17 38  1  0  0  0  0
M  CHG  1   8  -1
M  END
> <s_m_source_file>
AV-unprocessed.smi

> <i_m_source_file_index>
1251

> <i_lp_mmshare_version>
43012

> <i_f3d_flags>
0

> <s_epik_input>
W0NIM11bQ0gyXVtDSDJdYzFubmMoczEpW05IXUMoPU8pW05IXVtDQEhdKFtDSDNdKVtDQEBIXTJbQ0gyXVtDSDJdW0NIMl1PMg==

> <s_epik_cmdline>
J2VwaWtfcHl0aG9uJywgJy1waCcsICc3LjAnLCAnLXRuJywgJzgnLCAnLW1hJywgJzIwMCcsICctbWV0YWxfYmluZGluZycsICctaW1hZScsICc8aW5maWxlLm1hZT4nLCAnLW9tYWUnLCAnPG91dGZpbGUubWFlPic=

> <r_lp_tautomer_probability>
1

> <r_epik_Ionization_Penalty>
4.22551

> <r_epik_Ionization_Penalty_Charging>
4.21437

> <r_epik_Ionization_Penalty_Neutral>
0.0111434

> <r_epik_State_Penalty>
4.21389

> <r_epik_Charging_Adjusted_Penalty>
8.42826

> <i_epik_Tot_Q>
-1

> <i_epik_Tot_abs_Q>
1

> <r_epik_Metal_State_Penalty>
0.69377

> <b_epik_Metal_Only>
1

> <s_lp_Force_Field>
OPLS_2005

> <r_lp_Energy>
11.5683

> <b_lp_Chiralities_Consistent>
1

> <s_lp_Variant>
AV-unprocessed.smi:1251-8

> <Gold.Version>
5.8.1

> <Gold.Id.Protein>
6NUR|6NUR_protein|mol2

> <Gold.PLP.Fitness>
46.4772

> <Gold.PLP.PLP>
-39.2766

> <Gold.PLP.part.hbond>
-2.7455

> <Gold.PLP.part.metal>
0.0000

> <Gold.PLP.part.buried>
-2.7397

> <Gold.PLP.part.nonpolar>
-33.7174

> <Gold.PLP.part.repulsive>
0.2983

> <Gold.PLP.ligand.clash>
0.0000

> <Gold.PLP.ligand.torsion>
0.4948

> <Gold.PLP.Chemscore.Hbond>
2.7000

> <Gold.PLP.Chemscore.CHOScore>
0.0000

> <Gold.PLP.Chemscore.Metal>
0.0000

> <Gold.Chemscore.Hbonds>
donor molecule, donor type, donor heavy atom, donor atom, acceptor molecule, acceptor atom, score
      P1  H  7989  7998       L1     5  0.55
      P1  H  7997  8009       L1     8  2.00

> <Gold.PLP.Chemscore.Internal.Correction>
0.0902

> <Gold.Rescore>
     Score         DG    S(hbond)    S(metal)    S(lipo)     H(rot)  DE(clash)    DE(int)     intcor
     13.31     -15.13       0.84        0.00      92.46       1.55       0.01       1.81       ----

> <Gold.Chemscore.Fitness>
13.3062

> <Gold.Chemscore.DG>
-15.1284

> <Gold.Chemscore.ZeroCoef>
-5.4800

> <Gold.Chemscore.Hbond>
0.8354

> <Gold.Chemscore.Metal>
0.0000

> <Gold.Chemscore.Lipo>
92.4624

> <Gold.Chemscore.Internal_Hbond>
0.0000

> <Gold.Chemscore.DEClash>
0.0118

> <Gold.Chemscore.DEInternal>
1.8103

> <Gold.Chemscore.Rot>
1.5469

> <Gold.Chemscore.Internal.Correction>
   9.000000E+99

> <Gold.Chemscore.Hbonds>
donor molecule, donor type, donor heavy atom, donor atom, acceptor molecule, acceptor atom, score
      P1  H  7989  7998       L1     5  0.01
      P1  H  7997  8009       L1     8  0.65

> <Gold.Chemscore.Hbond.Weighted>
-2.7903

> <Gold.Chemscore.Metal.Weighted>
-0.0000

> <Gold.Chemscore.Lipo.Weighted>
-10.8181

> <Gold.Chemscore.Internal_Hbond.Weighted>
0.0000

> <Gold.Chemscore.DEClash.Weighted>
0.0118

> <Gold.Chemscore.DEInternal.Weighted>
1.8103

> <Gold.Chemscore.Rot.Weighted>
3.9600

> <Gold.Chemscore.Internal.Correction.Weighted>
   9.000000E+99

> <Gold.Protein.RotatedTorsions>
[ 6907 6896 6895 6894 ] final -178.77 input  -60.11 | X-H torsion
[ 7974 7965 7964 7962 ] final  -48.18 input  175.53 | X-H torsion
[ 8008 7997 7996 7995 ] final  172.36 input   59.86 | X-H torsion
[ 10167 10162 10161 10158 ] final   76.42 input  -65.29 | X-H torsion
[ 10718 10713 10712 10709 ] final   56.51 input   66.30 | X-H torsion
[ 10763 10752 10751 10750 ] final -144.45 input  -60.55 | X-H torsion
[ 11005 11000 10999 10996 ] final  -99.45 input  -57.11 | X-H torsion

> <Gold.Protein.ActiveResidues>
 VAL166  LYS551  ARG553  GLY616  TRP617  ASP618  TYR619  PRO620  LYS621  CYS622 
 ASP623  PHE694  ASN695  SER759  ASP760  ASP761  ALA762  ILE779  LEU786  VAL792 
 PHE793  MET794  SER795  GLU796  ALA797  LYS798  CYS799  TRP800  GLU811  SER814 

> <Gold.Protein.RotatedAtoms>
  151.6426  133.3325  159.3133 H   0  0  0  0  0  0  0  0  0  0  0  0  # atno 6907 bound_to 6896
  150.8000  134.7091  159.6603 H   0  0  0  0  0  0  0  0  0  0  0  0  # atno 6908 bound_to 6896
  152.4091  134.6159  160.0089 H   0  0  0  0  0  0  0  0  0  0  0  0  # atno 6909 bound_to 6896
  145.9538  140.7546  142.9491 H   0  0  0  0  0  0  0  0  0  0  0  0  # atno 7974 bound_to 7965
  156.1181  140.1488  156.9243 H   0  0  0  0  0  0  0  0  0  0  0  0  # atno 8008 bound_to 7997
  154.4816  140.0878  156.7431 H   0  0  0  0  0  0  0  0  0  0  0  0  # atno 8009 bound_to 7997
  155.4477  140.3433  155.4299 H   0  0  0  0  0  0  0  0  0  0  0  0  # atno 8010 bound_to 7997
  139.9924  144.5747  150.7806 H   0  0  0  0  0  0  0  0  0  0  0  0  # atno 10167 bound_to 10162
  157.5437  130.8715  149.8859 H   0  0  0  0  0  0  0  0  0  0  0  0  # atno 10718 bound_to 10713
  154.8427  135.3440  154.6348 H   0  0  0  0  0  0  0  0  0  0  0  0  # atno 10763 bound_to 10752
  153.6959  135.6972  153.5081 H   0  0  0  0  0  0  0  0  0  0  0  0  # atno 10764 bound_to 10752
  153.2560  135.4338  155.0801 H   0  0  0  0  0  0  0  0  0  0  0  0  # atno 10765 bound_to 10752
  141.1308  133.8322  157.0973 H   0  0  0  0  0  0  0  0  0  0  0  0  # atno 11005 bound_to 11000
  144.6801  140.2478  143.7335 LP  0  0  0  0  0  0  0  0  0  0  0  0  # atno 17320 bound_to 7965
  145.8134  139.2013  143.1979 LP  0  0  0  0  0  0  0  0  0  0  0  0  # atno 17321 bound_to 7965
  140.7450  143.2868  151.3440 LP  0  0  0  0  0  0  0  0  0  0  0  0  # atno 17342 bound_to 10162
  139.6330  144.0684  152.2492 LP  0  0  0  0  0  0  0  0  0  0  0  0  # atno 17343 bound_to 10162
  156.0517  130.3716  150.1185 LP  0  0  0  0  0  0  0  0  0  0  0  0  # atno 17370 bound_to 10713
  156.9363  130.9730  151.3524 LP  0  0  0  0  0  0  0  0  0  0  0  0  # atno 17371 bound_to 10713
  140.0355  134.9880  157.0862 LP  0  0  0  0  0  0  0  0  0  0  0  0  # atno 17394 bound_to 11000
  140.4217  134.1873  155.7165 LP  0  0  0  0  0  0  0  0  0  0  0  0  # atno 17395 bound_to 11000

$$$$
