AV-unprocessed.smi:2356|AV-procd|sdf|9395|dock3
  -GOLD-   2272013 23D 1   1.00000     0.00000
 Structure written by MMmdl.
 53 56  0  0  0  0  0  0  0  0  1 V2000
  150.9654  137.8582  154.4114 C   0  0  0  0  0  0  0  0  0  0  0  0
  150.3307  139.2035  154.7203 C   0  0  0  0  0  0  0  0  0  0  0  0
  151.0351  139.9973  155.5559 N   0  0  0  0  0  0  0  0  0  0  0  0
  150.5405  141.2130  155.8867 C   0  0  0  0  0  0  0  0  0  0  0  0
  151.3070  142.0089  156.7611 N   0  0  0  0  0  0  0  0  0  0  0  0
  151.0106  143.4177  156.9699 C   0  0  0  0  0  0  0  0  0  0  0  0
  151.9611  143.8511  158.0846 C   0  0  0  0  0  0  0  0  0  0  0  0
  152.0950  142.5882  158.9351 C   0  0  0  0  0  0  0  0  0  0  0  0
  151.9739  141.4409  157.9248 C   0  0  0  0  0  0  0  0  0  0  0  0
  149.2957  141.6660  155.3930 C   0  0  0  0  0  0  0  0  0  0  0  0
  148.5607  140.8401  154.5223 C   0  0  0  0  0  0  0  0  0  0  0  0
  149.0874  139.5783  154.1585 C   0  0  0  0  0  0  0  0  0  0  0  0
  148.4253  138.6599  153.2964 N   0  0  0  0  0  0  0  0  0  0  0  0
  147.1098  138.4005  153.1632 C   0  0  0  0  0  0  0  0  0  0  0  0
  146.2157  138.9441  153.8072 O   0  0  0  0  0  0  0  0  0  0  0  0
  146.8280  137.4695  152.2335 N   0  0  0  0  0  0  0  0  0  0  0  0
  145.5167  136.9519  151.8342 C   0  0  2  0  0  0  0  0  0  0  0  0
  144.6213  136.7998  153.0724 C   0  0  0  0  0  0  0  0  0  0  0  0
  143.2874  136.1338  152.6986 C   0  0  0  0  0  0  0  0  0  0  0  0
  143.5285  134.8778  152.0733 O   0  0  0  0  0  0  0  0  0  0  0  0
  144.2535  134.9890  150.8524 C   0  0  2  0  0  0  0  0  0  0  0  0
  144.3478  133.6096  150.2315 C   0  0  0  0  0  0  0  0  0  0  0  0
  144.2575  132.3695  151.0901 C   0  0  0  0  0  0  0  0  0  0  0  0
  145.5694  132.7466  150.4451 C   0  0  0  0  0  0  0  0  0  0  0  0
  145.6440  135.5865  151.1351 C   0  0  0  0  0  0  0  0  0  0  0  0
  150.3159  137.0472  154.7418 H   0  0  0  0  0  0  0  0  0  0  0  0
  151.9276  137.7437  154.9119 H   0  0  0  0  0  0  0  0  0  0  0  0
  151.1299  137.7534  153.3389 H   0  0  0  0  0  0  0  0  0  0  0  0
  151.1616  144.0011  156.0611 H   0  0  0  0  0  0  0  0  0  0  0  0
  149.9719  143.5283  157.2846 H   0  0  0  0  0  0  0  0  0  0  0  0
  152.9316  144.1147  157.6618 H   0  0  0  0  0  0  0  0  0  0  0  0
  151.5930  144.7094  158.6472 H   0  0  0  0  0  0  0  0  0  0  0  0
  153.0244  142.5549  159.5041 H   0  0  0  0  0  0  0  0  0  0  0  0
  151.2672  142.5388  159.6438 H   0  0  0  0  0  0  0  0  0  0  0  0
  151.4189  140.6046  158.3514 H   0  0  0  0  0  0  0  0  0  0  0  0
  152.9594  141.0829  157.6254 H   0  0  0  0  0  0  0  0  0  0  0  0
  148.8903  142.6259  155.6760 H   0  0  0  0  0  0  0  0  0  0  0  0
  147.6047  141.1902  154.1678 H   0  0  0  0  0  0  0  0  0  0  0  0
  149.0294  138.1677  152.6546 H   0  0  0  0  0  0  0  0  0  0  0  0
  147.6204  137.0520  151.7673 H   0  0  0  0  0  0  0  0  0  0  0  0
  145.0337  137.6599  151.1578 H   0  0  0  0  0  0  0  0  0  0  0  0
  145.1260  136.1912  153.8242 H   0  0  0  0  0  0  0  0  0  0  0  0
  144.4374  137.7728  153.5295 H   0  0  0  0  0  0  0  0  0  0  0  0
  142.6871  135.9708  153.5939 H   0  0  0  0  0  0  0  0  0  0  0  0
  142.7033  136.7752  152.0370 H   0  0  0  0  0  0  0  0  0  0  0  0
  143.7060  135.6402  150.1682 H   0  0  0  0  0  0  0  0  0  0  0  0
  143.8825  133.5386  149.2500 H   0  0  0  0  0  0  0  0  0  0  0  0
  144.1708  132.5027  152.1668 H   0  0  0  0  0  0  0  0  0  0  0  0
  143.7228  131.5146  150.6812 H   0  0  0  0  0  0  0  0  0  0  0  0
  145.9098  132.1432  149.6062 H   0  0  0  0  0  0  0  0  0  0  0  0
  146.3552  133.1308  151.0926 H   0  0  0  0  0  0  0  0  0  0  0  0
  146.1994  135.6841  150.2016 H   0  0  0  0  0  0  0  0  0  0  0  0
  146.2132  134.9014  151.7654 H   0  0  0  0  0  0  0  0  0  0  0  0
  1  2  1  0  0  0  0
  1 26  1  0  0  0  0
  1 27  1  0  0  0  0
  1 28  1  0  0  0  0
  2 12  1  0  0  0  0
  2  3  2  0  0  0  0
  3  4  1  0  0  0  0
  4  5  1  0  0  0  0
  4 10  2  0  0  0  0
  5  9  1  0  0  0  0
  5  6  1  0  0  0  0
  6  7  1  0  0  0  0
  6 29  1  0  0  0  0
  6 30  1  0  0  0  0
  7  8  1  0  0  0  0
  7 31  1  0  0  0  0
  7 32  1  0  0  0  0
  8  9  1  0  0  0  0
  8 33  1  0  0  0  0
  8 34  1  0  0  0  0
  9 35  1  0  0  0  0
  9 36  1  0  0  0  0
 10 11  1  0  0  0  0
 10 37  1  0  0  0  0
 11 12  2  0  0  0  0
 11 38  1  0  0  0  0
 12 13  1  0  0  0  0
 13 14  1  0  0  0  0
 13 39  1  0  0  0  0
 14 15  2  0  0  0  0
 14 16  1  0  0  0  0
 16 17  1  0  0  0  0
 16 40  1  0  0  0  0
 17 25  1  0  0  0  0
 17 18  1  0  0  0  0
 17 41  1  0  0  0  0
 18 19  1  0  0  0  0
 18 42  1  0  0  0  0
 18 43  1  0  0  0  0
 19 20  1  0  0  0  0
 19 44  1  0  0  0  0
 19 45  1  0  0  0  0
 20 21  1  0  0  0  0
 21 22  1  0  0  0  0
 21 25  1  0  0  0  0
 21 46  1  0  0  0  0
 22 24  1  0  0  0  0
 22 23  1  0  0  0  0
 22 47  1  0  0  0  0
 23 24  1  0  0  0  0
 23 48  1  0  0  0  0
 23 49  1  0  0  0  0
 24 50  1  0  0  0  0
 24 51  1  0  0  0  0
 25 52  1  0  0  0  0
 25 53  1  0  0  0  0
M  END
> <s_m_source_file>
AV-unprocessed.smi

> <i_m_source_file_index>
2356

> <i_lp_mmshare_version>
43012

> <i_f3d_flags>
0

> <s_epik_input>
W0NIMl0xW0NIMl1bQ0gyXVtDSDJdTjFjKG5jMltDSDNdKVtjSF1bY0hdYzJbTkhdQyg9TylbTkhdW0NAQEhdM1tDSDJdW0NIMl1PW0NASF0oW0NIMl0zKVtDSF00W0NIMl1bQ0gyXTQ=

> <s_epik_cmdline>
J2VwaWtfcHl0aG9uJywgJy1waCcsICc3LjAnLCAnLXRuJywgJzgnLCAnLW1hJywgJzIwMCcsICctbWV0YWxfYmluZGluZycsICctaW1hZScsICc8aW5maWxlLm1hZT4nLCAnLW9tYWUnLCAnPG91dGZpbGUubWFlPic=

> <r_lp_tautomer_probability>
1

> <r_epik_Ionization_Penalty>
0.308781

> <r_epik_Ionization_Penalty_Charging>
0

> <r_epik_Ionization_Penalty_Neutral>
0.308781

> <r_epik_State_Penalty>
0.302092

> <r_epik_Charging_Adjusted_Penalty>
0.302092

> <i_epik_Tot_Q>
0

> <i_epik_Tot_abs_Q>
0

> <r_epik_Metal_State_Penalty>
0.197467

> <b_epik_Metal_Only>
0

> <s_lp_Force_Field>
OPLS_2005

> <r_lp_Energy>
53.3559

> <b_lp_Chiralities_Consistent>
1

> <s_lp_Variant>
AV-unprocessed.smi:2356-3

> <Gold.Version>
5.8.1

> <Gold.Id.Protein>
6NUR|6NUR_protein|mol2

> <Gold.PLP.Fitness>
51.0098

> <Gold.PLP.PLP>
-48.3946

> <Gold.PLP.part.hbond>
-2.9906

> <Gold.PLP.part.metal>
0.0000

> <Gold.PLP.part.buried>
-1.8495

> <Gold.PLP.part.nonpolar>
-45.2238

> <Gold.PLP.part.repulsive>
0.5099

> <Gold.PLP.ligand.clash>
0.0000

> <Gold.PLP.ligand.torsion>
1.8915

> <Gold.PLP.Chemscore.Hbond>
1.7040

> <Gold.PLP.Chemscore.CHOScore>
0.0000

> <Gold.PLP.Chemscore.Metal>
0.0000

> <Gold.Chemscore.Hbonds>
donor molecule, donor type, donor heavy atom, donor atom, acceptor molecule, acceptor atom, score
      L1  H    13    39       P1  7948  0.62
      L1  H    16    40       P1  7948  1.00

> <Gold.PLP.Chemscore.Internal.Correction>
1.2863

> <Gold.Rescore>
     Score         DG    S(hbond)    S(metal)    S(lipo)     H(rot)  DE(clash)    DE(int)     intcor
     19.13     -22.77       1.80        0.00     121.33       1.14       0.36       3.28       ----

> <Gold.Chemscore.Fitness>
19.1323

> <Gold.Chemscore.DG>
-22.7733

> <Gold.Chemscore.ZeroCoef>
-5.4800

> <Gold.Chemscore.Hbond>
1.8008

> <Gold.Chemscore.Metal>
0.0000

> <Gold.Chemscore.Lipo>
121.3301

> <Gold.Chemscore.Internal_Hbond>
0.0000

> <Gold.Chemscore.DEClash>
0.3613

> <Gold.Chemscore.DEInternal>
3.2797

> <Gold.Chemscore.Rot>
1.1395

> <Gold.Chemscore.Internal.Correction>
   9.000000E+99

> <Gold.Chemscore.Hbonds>
donor molecule, donor type, donor heavy atom, donor atom, acceptor molecule, acceptor atom, score
      L1  H    13    39       P1  7948  0.60
      L1  H    16    40       P1  7948  0.90

> <Gold.Chemscore.Hbond.Weighted>
-6.0148

> <Gold.Chemscore.Metal.Weighted>
-0.0000

> <Gold.Chemscore.Lipo.Weighted>
-14.1956

> <Gold.Chemscore.Internal_Hbond.Weighted>
0.0000

> <Gold.Chemscore.DEClash.Weighted>
0.3613

> <Gold.Chemscore.DEInternal.Weighted>
3.2797

> <Gold.Chemscore.Rot.Weighted>
2.9171

> <Gold.Chemscore.Internal.Correction.Weighted>
   9.000000E+99

> <Gold.Protein.RotatedTorsions>
[ 6907 6896 6895 6894 ] final    0.78 input  -60.11 | X-H torsion
[ 7974 7965 7964 7962 ] final -115.97 input  175.53 | X-H torsion
[ 8008 7997 7996 7995 ] final   65.26 input   59.86 | X-H torsion
[ 10167 10162 10161 10158 ] final  122.89 input  -65.29 | X-H torsion
[ 10718 10713 10712 10709 ] final  -79.45 input   66.30 | X-H torsion
[ 10763 10752 10751 10750 ] final    0.21 input  -60.55 | X-H torsion
[ 11005 11000 10999 10996 ] final   37.29 input  -57.11 | X-H torsion

> <Gold.Protein.ActiveResidues>
 VAL166  LYS551  ARG553  GLY616  TRP617  ASP618  TYR619  PRO620  LYS621  CYS622 
 ASP623  PHE694  ASN695  SER759  ASP760  ASP761  ALA762  ILE779  LEU786  VAL792 
 PHE793  MET794  SER795  GLU796  ALA797  LYS798  CYS799  TRP800  GLU811  SER814 

> <Gold.Protein.RotatedAtoms>
  151.5820  135.1058  160.0019 H   0  0  0  0  0  0  0  0  0  0  0  0  # atno 6907 bound_to 6896
  152.4349  133.7339  159.6614 H   0  0  0  0  0  0  0  0  0  0  0  0  # atno 6908 bound_to 6896
  150.8246  133.8124  159.3147 H   0  0  0  0  0  0  0  0  0  0  0  0  # atno 6909 bound_to 6896
  145.1022  140.8559  143.3919 H   0  0  0  0  0  0  0  0  0  0  0  0  # atno 7974 bound_to 7965
  155.6590  140.3497  155.4776 H   0  0  0  0  0  0  0  0  0  0  0  0  # atno 8008 bound_to 7997
  155.9784  140.1169  157.0772 H   0  0  0  0  0  0  0  0  0  0  0  0  # atno 8009 bound_to 7997
  154.4185  140.1143  156.5388 H   0  0  0  0  0  0  0  0  0  0  0  0  # atno 8010 bound_to 7997
  139.5832  144.6995  151.3476 H   0  0  0  0  0  0  0  0  0  0  0  0  # atno 10167 bound_to 10162
  156.0092  130.4546  150.3650 H   0  0  0  0  0  0  0  0  0  0  0  0  # atno 10718 bound_to 10713
  153.3235  135.6970  153.7009 H   0  0  0  0  0  0  0  0  0  0  0  0  # atno 10763 bound_to 10752
  153.5840  135.3492  155.2886 H   0  0  0  0  0  0  0  0  0  0  0  0  # atno 10764 bound_to 10752
  154.8603  135.4302  154.2406 H   0  0  0  0  0  0  0  0  0  0  0  0  # atno 10765 bound_to 10752
  140.2240  134.3606  155.7992 H   0  0  0  0  0  0  0  0  0  0  0  0  # atno 11005 bound_to 11000
  145.0943  139.2868  143.5719 LP  0  0  0  0  0  0  0  0  0  0  0  0  # atno 17320 bound_to 7965
  146.3529  140.0489  142.8637 LP  0  0  0  0  0  0  0  0  0  0  0  0  # atno 17321 bound_to 7965
  140.7107  143.7397  150.7562 LP  0  0  0  0  0  0  0  0  0  0  0  0  # atno 17342 bound_to 10162
  140.0935  143.4855  152.2465 LP  0  0  0  0  0  0  0  0  0  0  0  0  # atno 17343 bound_to 10162
  157.1737  131.0375  151.2783 LP  0  0  0  0  0  0  0  0  0  0  0  0  # atno 17370 bound_to 10713
  157.4207  130.7436  149.6911 LP  0  0  0  0  0  0  0  0  0  0  0  0  # atno 17371 bound_to 10713
  141.2221  133.7209  156.8623 LP  0  0  0  0  0  0  0  0  0  0  0  0  # atno 17394 bound_to 11000
  140.1819  134.9027  157.2959 LP  0  0  0  0  0  0  0  0  0  0  0  0  # atno 17395 bound_to 11000

$$$$
