AV-unprocessed.smi:1119|AV-procd|sdf|4817|dock4
  -GOLD-   22720 3373D 1   1.00000     0.00000
 Structure written by MMmdl.
 31 32  0  0  0  0  0  0  0  0  1 V2000
  151.7557  138.2473  154.6400 C   0  0  0  0  0  0  0  0  0  0  0  0
  150.4069  138.2173  154.1859 O   0  0  0  0  0  0  0  0  0  0  0  0
  149.6576  139.3754  154.2684 C   0  0  0  0  0  0  0  0  0  0  0  0
  150.2241  140.4717  154.8328 N   0  0  0  0  0  0  0  0  0  0  0  0
  149.4932  141.6021  154.9172 C   0  0  0  0  0  0  0  0  0  0  0  0
  148.1681  141.6990  154.4543 C   0  0  0  0  0  0  0  0  0  0  0  0
  147.5784  140.5640  153.8677 C   0  0  0  0  0  0  0  0  0  0  0  0
  148.3382  139.3743  153.7586 C   0  0  0  0  0  0  0  0  0  0  0  0
  147.8273  138.1682  153.2053 N   0  0  0  0  0  0  0  0  0  0  0  0
  146.5501  137.7544  153.1494 C   0  0  0  0  0  0  0  0  0  0  0  0
  145.5787  138.3910  153.5578 O   0  0  0  0  0  0  0  0  0  0  0  0
  146.4554  136.5523  152.5648 N   0  0  0  0  0  0  0  0  0  0  0  0
  145.2079  135.8403  152.3191 C   0  0  0  0  0  0  0  0  0  0  0  0
  145.1202  135.1623  150.9655 C   0  0  0  0  0  0  0  0  0  0  0  0
  144.2399  133.9529  150.7505 C   0  0  0  0  0  0  0  0  0  0  0  0
  145.7416  133.8019  150.7502 C   0  0  0  0  0  0  0  0  0  0  0  0
  152.2060  137.2652  154.4970 H   0  0  0  0  0  0  0  0  0  0  0  0
  151.8132  138.4860  155.7028 H   0  0  0  0  0  0  0  0  0  0  0  0
  152.3508  138.9683  154.0774 H   0  0  0  0  0  0  0  0  0  0  0  0
  149.9774  142.4531  155.3730 H   0  0  0  0  0  0  0  0  0  0  0  0
  147.6148  142.6213  154.5511 H   0  0  0  0  0  0  0  0  0  0  0  0
  146.5556  140.6216  153.5288 H   0  0  0  0  0  0  0  0  0  0  0  0
  148.5066  137.5855  152.7382 H   0  0  0  0  0  0  0  0  0  0  0  0
  147.3054  136.1025  152.2581 H   0  0  0  0  0  0  0  0  0  0  0  0
  145.1097  135.0740  153.0882 H   0  0  0  0  0  0  0  0  0  0  0  0
  144.3579  136.5124  152.4503 H   0  0  0  0  0  0  0  0  0  0  0  0
  145.2057  135.8506  150.1266 H   0  0  0  0  0  0  0  0  0  0  0  0
  143.6956  133.5621  151.6082 H   0  0  0  0  0  0  0  0  0  0  0  0
  143.7241  133.8727  149.7958 H   0  0  0  0  0  0  0  0  0  0  0  0
  146.2282  133.6170  149.7946 H   0  0  0  0  0  0  0  0  0  0  0  0
  146.1950  133.3081  151.6077 H   0  0  0  0  0  0  0  0  0  0  0  0
  1  2  1  0  0  0  0
  1 17  1  0  0  0  0
  1 18  1  0  0  0  0
  1 19  1  0  0  0  0
  2  3  1  0  0  0  0
  3  8  1  0  0  0  0
  3  4  2  0  0  0  0
  4  5  1  0  0  0  0
  5  6  2  0  0  0  0
  5 20  1  0  0  0  0
  6  7  1  0  0  0  0
  6 21  1  0  0  0  0
  7  8  2  0  0  0  0
  7 22  1  0  0  0  0
  8  9  1  0  0  0  0
  9 10  1  0  0  0  0
  9 23  1  0  0  0  0
 10 11  2  0  0  0  0
 10 12  1  0  0  0  0
 12 13  1  0  0  0  0
 12 24  1  0  0  0  0
 13 14  1  0  0  0  0
 13 25  1  0  0  0  0
 13 26  1  0  0  0  0
 14 16  1  0  0  0  0
 14 15  1  0  0  0  0
 14 27  1  0  0  0  0
 15 16  1  0  0  0  0
 15 28  1  0  0  0  0
 15 29  1  0  0  0  0
 16 30  1  0  0  0  0
 16 31  1  0  0  0  0
M  END
> <s_m_source_file>
AV-unprocessed.smi

> <i_m_source_file_index>
1119

> <i_lp_mmshare_version>
43012

> <i_f3d_flags>
0

> <s_epik_input>
W0NIM11PYzFuW2NIXVtjSF1bY0hdYzFbTkhdQyg9TylbTkhdW0NIMl1bQ0hdMltDSDJdW0NIMl0y

> <s_epik_cmdline>
J2VwaWtfcHl0aG9uJywgJy1waCcsICc3LjAnLCAnLXRuJywgJzgnLCAnLW1hJywgJzIwMCcsICctbWV0YWxfYmluZGluZycsICctaW1hZScsICc8aW5maWxlLm1hZT4nLCAnLW9tYWUnLCAnPG91dGZpbGUubWFlPic=

> <r_lp_tautomer_probability>
1

> <r_epik_Ionization_Penalty>
9.92152e-05

> <r_epik_Ionization_Penalty_Charging>
0

> <r_epik_Ionization_Penalty_Neutral>
9.92152e-05

> <r_epik_State_Penalty>
-0

> <r_epik_Charging_Adjusted_Penalty>
0

> <i_epik_Tot_Q>
0

> <i_epik_Tot_abs_Q>
0

> <r_epik_Metal_State_Penalty>
-0

> <b_epik_Metal_Only>
0

> <s_lp_Force_Field>
OPLS_2005

> <r_lp_Energy>
14.7926

> <b_lp_Chiralities_Consistent>
1

> <s_lp_Variant>
AV-unprocessed.smi:1119-1

> <Gold.Version>
5.8.1

> <Gold.Id.Protein>
6NUR|6NUR_protein|mol2

> <Gold.PLP.Fitness>
38.5605

> <Gold.PLP.PLP>
-27.5792

> <Gold.PLP.part.hbond>
-3.2145

> <Gold.PLP.part.metal>
0.0000

> <Gold.PLP.part.buried>
-1.2401

> <Gold.PLP.part.nonpolar>
-24.2319

> <Gold.PLP.part.repulsive>
1.0889

> <Gold.PLP.ligand.clash>
0.0000

> <Gold.PLP.ligand.torsion>
0.5589

> <Gold.PLP.Chemscore.Hbond>
2.9520

> <Gold.PLP.Chemscore.CHOScore>
0.9002

> <Gold.PLP.Chemscore.Metal>
0.0000

> <Gold.Chemscore.Hbonds>
donor molecule, donor type, donor heavy atom, donor atom, acceptor molecule, acceptor atom, score
      L1  H     9    23       P1  7948  1.00
      L1  H    12    24       P1  7948  0.99
      P1  H  7989  7998       L1     4  0.98
      L1  C     5    20       P1  8028  0.88

> <Gold.PLP.Chemscore.Internal.Correction>
0.5426

> <Gold.Rescore>
     Score         DG    S(hbond)    S(metal)    S(lipo)     H(rot)  DE(clash)    DE(int)     intcor
     14.00     -15.94       2.25        0.00      56.97       1.45       0.26       1.67       ----

> <Gold.Chemscore.Fitness>
14.0010

> <Gold.Chemscore.DG>
-15.9357

> <Gold.Chemscore.ZeroCoef>
-5.4800

> <Gold.Chemscore.Hbond>
2.2459

> <Gold.Chemscore.Metal>
0.0000

> <Gold.Chemscore.Lipo>
56.9701

> <Gold.Chemscore.Internal_Hbond>
0.0000

> <Gold.Chemscore.DEClash>
0.2619

> <Gold.Chemscore.DEInternal>
1.6729

> <Gold.Chemscore.Rot>
1.4497

> <Gold.Chemscore.Internal.Correction>
   9.000000E+99

> <Gold.Chemscore.Hbonds>
donor molecule, donor type, donor heavy atom, donor atom, acceptor molecule, acceptor atom, score
      L1  H     9    23       P1  7948  0.97
      L1  H    12    24       P1  7948  0.93
      P1  H  7989  7998       L1     4  0.12

> <Gold.Chemscore.Hbond.Weighted>
-7.5014

> <Gold.Chemscore.Metal.Weighted>
-0.0000

> <Gold.Chemscore.Lipo.Weighted>
-6.6655

> <Gold.Chemscore.Internal_Hbond.Weighted>
0.0000

> <Gold.Chemscore.DEClash.Weighted>
0.2619

> <Gold.Chemscore.DEInternal.Weighted>
1.6729

> <Gold.Chemscore.Rot.Weighted>
3.7111

> <Gold.Chemscore.Internal.Correction.Weighted>
   9.000000E+99

> <Gold.Protein.RotatedTorsions>
[ 6907 6896 6895 6894 ] final  -72.83 input  -60.11 | X-H torsion
[ 7974 7965 7964 7962 ] final  174.63 input  175.53 | X-H torsion
[ 8008 7997 7996 7995 ] final   19.67 input   59.86 | X-H torsion
[ 10167 10162 10161 10158 ] final  -36.91 input  -65.29 | X-H torsion
[ 10718 10713 10712 10709 ] final -179.35 input   66.30 | X-H torsion
[ 10763 10752 10751 10750 ] final -159.07 input  -60.55 | X-H torsion
[ 11005 11000 10999 10996 ] final -163.04 input  -57.11 | X-H torsion

> <Gold.Protein.ActiveResidues>
 VAL166  LYS551  ARG553  GLY616  TRP617  ASP618  TYR619  PRO620  LYS621  CYS622 
 ASP623  PHE694  ASN695  SER759  ASP760  ASP761  ALA762  ILE779  LEU786  VAL792 
 PHE793  MET794  SER795  GLU796  ALA797  LYS798  CYS799  TRP800  GLU811  SER814 

> <Gold.Protein.RotatedAtoms>
  150.7154  134.5106  159.5604 H   0  0  0  0  0  0  0  0  0  0  0  0  # atno 6907 bound_to 6896
  152.2683  134.7957  160.0428 H   0  0  0  0  0  0  0  0  0  0  0  0  # atno 6908 bound_to 6896
  151.8646  133.3428  159.3752 H   0  0  0  0  0  0  0  0  0  0  0  0  # atno 6909 bound_to 6896
  144.7217  139.9826  143.6439 H   0  0  0  0  0  0  0  0  0  0  0  0  # atno 7974 bound_to 7965
  154.9243  140.3031  155.5200 H   0  0  0  0  0  0  0  0  0  0  0  0  # atno 8008 bound_to 7997
  156.3008  140.2366  156.4232 H   0  0  0  0  0  0  0  0  0  0  0  0  # atno 8009 bound_to 7997
  154.8300  140.0419  157.1459 H   0  0  0  0  0  0  0  0  0  0  0  0  # atno 8010 bound_to 7997
  140.7131  143.3377  151.2426 H   0  0  0  0  0  0  0  0  0  0  0  0  # atno 10167 bound_to 10162
  156.8578  130.9741  151.3086 H   0  0  0  0  0  0  0  0  0  0  0  0  # atno 10718 bound_to 10713
  154.7505  135.3091  154.8567 H   0  0  0  0  0  0  0  0  0  0  0  0  # atno 10763 bound_to 10752
  153.9355  135.6780  153.4749 H   0  0  0  0  0  0  0  0  0  0  0  0  # atno 10764 bound_to 10752
  153.1101  135.4870  154.8947 H   0  0  0  0  0  0  0  0  0  0  0  0  # atno 10765 bound_to 10752
  140.6025  134.4932  157.5207 H   0  0  0  0  0  0  0  0  0  0  0  0  # atno 11005 bound_to 11000
  146.0475  139.3479  143.0659 LP  0  0  0  0  0  0  0  0  0  0  0  0  # atno 17320 bound_to 7965
  145.8257  140.9656  143.0875 LP  0  0  0  0  0  0  0  0  0  0  0  0  # atno 17321 bound_to 7965
  139.6876  143.9746  152.2842 LP  0  0  0  0  0  0  0  0  0  0  0  0  # atno 17342 bound_to 10162
  139.9397  144.6689  150.8278 LP  0  0  0  0  0  0  0  0  0  0  0  0  # atno 17343 bound_to 10162
  157.6267  130.8697  149.9202 LP  0  0  0  0  0  0  0  0  0  0  0  0  # atno 17370 bound_to 10713
  156.0793  130.3675  150.0613 LP  0  0  0  0  0  0  0  0  0  0  0  0  # atno 17371 bound_to 10713
  139.9226  134.8118  156.1164 LP  0  0  0  0  0  0  0  0  0  0  0  0  # atno 17394 bound_to 11000
  141.0862  133.6733  156.2442 LP  0  0  0  0  0  0  0  0  0  0  0  0  # atno 17395 bound_to 11000

$$$$
