AV-unprocessed.smi:3345|AV-procd|sdf|12901|dock2
  -GOLD-   2272019313D 1   1.00000     0.00000
 Structure written by MMmdl.
 40 41  0  0  0  0  0  0  0  0  1 V2000
  152.2145  139.2692  155.2989 C   0  0  0  0  0  0  0  0  0  0  0  0
  151.2719  140.3149  155.9147 C   0  0  2  0  0  0  0  0  0  0  0  0
  151.4344  140.3915  157.4487 C   0  0  0  0  0  0  0  0  0  0  0  0
  151.9919  141.6464  157.9541 N   0  0  0  0  0  0  0  0  0  0  0  0
  151.2030  142.8132  157.5644 C   0  0  0  0  0  0  0  0  0  0  0  0
  151.7910  144.1188  158.1275 C   0  0  0  0  0  0  0  0  0  0  0  0
  151.8958  144.0254  159.5444 O   0  0  0  0  0  0  0  0  0  0  0  0
  152.6999  142.9277  159.9634 C   0  0  0  0  0  0  0  0  0  0  0  0
  152.1122  141.6187  159.4082 C   0  0  0  0  0  0  0  0  0  0  0  0
  149.8957  139.9576  155.5781 N   0  0  0  0  0  0  0  0  0  0  0  0
  149.1035  140.6212  154.7210 C   0  0  0  0  0  0  0  0  0  0  0  0
  149.4577  141.6360  154.1201 O   0  0  0  0  0  0  0  0  0  0  0  0
  147.6996  140.0397  154.5030 C   0  0  1  0  0  0  0  0  0  0  0  0
  147.3747  138.9253  155.5185 C   0  0  0  0  0  0  0  0  0  0  0  0
  146.7114  141.1126  154.5073 N   0  0  0  0  0  0  0  0  0  0  0  0
  146.6586  142.2286  153.7767 C   0  0  0  0  0  0  0  0  0  0  0  0
  145.6405  143.0230  154.0768 N   0  0  0  0  0  0  0  0  0  0  0  0
  145.0721  142.2940  155.0825 C   0  0  0  0  0  0  0  0  0  0  0  0
  145.6805  141.1485  155.3887 N   0  0  0  0  0  0  0  0  0  0  0  0
  153.2575  139.5121  155.5037 H   0  0  0  0  0  0  0  0  0  0  0  0
  152.0974  139.2228  154.2157 H   0  0  0  0  0  0  0  0  0  0  0  0
  152.0196  138.2732  155.6983 H   0  0  0  0  0  0  0  0  0  0  0  0
  151.5336  141.2845  155.4861 H   0  0  0  0  0  0  0  0  0  0  0  0
  150.4891  140.1674  157.9463 H   0  0  0  0  0  0  0  0  0  0  0  0
  152.1107  139.5893  157.7469 H   0  0  0  0  0  0  0  0  0  0  0  0
  151.1595  142.8935  156.4788 H   0  0  0  0  0  0  0  0  0  0  0  0
  150.1756  142.6988  157.9134 H   0  0  0  0  0  0  0  0  0  0  0  0
  152.7735  144.3169  157.6960 H   0  0  0  0  0  0  0  0  0  0  0  0
  151.1525  144.9643  157.8714 H   0  0  0  0  0  0  0  0  0  0  0  0
  153.7266  143.0669  159.6214 H   0  0  0  0  0  0  0  0  0  0  0  0
  152.7253  142.8996  161.0527 H   0  0  0  0  0  0  0  0  0  0  0  0
  151.1330  141.4458  159.8573 H   0  0  0  0  0  0  0  0  0  0  0  0
  152.7461  140.7850  159.7116 H   0  0  0  0  0  0  0  0  0  0  0  0
  149.5192  139.1362  156.0284 H   0  0  0  0  0  0  0  0  0  0  0  0
  147.6696  139.5879  153.5098 H   0  0  0  0  0  0  0  0  0  0  0  0
  148.0959  138.1102  155.4475 H   0  0  0  0  0  0  0  0  0  0  0  0
  146.3869  138.5041  155.3303 H   0  0  0  0  0  0  0  0  0  0  0  0
  147.3892  139.2872  156.5474 H   0  0  0  0  0  0  0  0  0  0  0  0
  147.3834  142.4672  153.0124 H   0  0  0  0  0  0  0  0  0  0  0  0
  144.1874  142.6203  155.6092 H   0  0  0  0  0  0  0  0  0  0  0  0
  1  2  1  0  0  0  0
  1 20  1  0  0  0  0
  1 21  1  0  0  0  0
  1 22  1  0  0  0  0
  2  3  1  0  0  0  0
  2 10  1  0  0  0  0
  2 23  1  0  0  0  0
  3  4  1  0  0  0  0
  3 24  1  0  0  0  0
  3 25  1  0  0  0  0
  4  9  1  0  0  0  0
  4  5  1  0  0  0  0
  5  6  1  0  0  0  0
  5 26  1  0  0  0  0
  5 27  1  0  0  0  0
  6  7  1  0  0  0  0
  6 28  1  0  0  0  0
  6 29  1  0  0  0  0
  7  8  1  0  0  0  0
  8  9  1  0  0  0  0
  8 30  1  0  0  0  0
  8 31  1  0  0  0  0
  9 32  1  0  0  0  0
  9 33  1  0  0  0  0
 10 11  1  0  0  0  0
 10 34  1  0  0  0  0
 11 12  2  0  0  0  0
 11 13  1  0  0  0  0
 13 14  1  0  0  0  0
 13 15  1  0  0  0  0
 13 35  1  0  0  0  0
 14 36  1  0  0  0  0
 14 37  1  0  0  0  0
 14 38  1  0  0  0  0
 15 19  1  0  0  0  0
 15 16  1  0  0  0  0
 16 17  2  0  0  0  0
 16 39  1  0  0  0  0
 17 18  1  0  0  0  0
 18 19  2  0  0  0  0
 18 40  1  0  0  0  0
M  END
> <s_m_source_file>
AV-unprocessed.smi

> <i_m_source_file_index>
3345

> <i_lp_mmshare_version>
43012

> <i_f3d_flags>
0

> <s_epik_input>
W0NIMl0xW0NIMl1PW0NIMl1bQ0gyXU4xW0NIMl1bQ0BASF0oW0NIM10pW05IXUMoPU8pW0NASF0oW0NIM10pbjJbY0hdbltjSF1uMg==

> <s_epik_cmdline>
J2VwaWtfcHl0aG9uJywgJy1waCcsICc3LjAnLCAnLXRuJywgJzgnLCAnLW1hJywgJzIwMCcsICctbWV0YWxfYmluZGluZycsICctaW1hZScsICc8aW5maWxlLm1hZT4nLCAnLW9tYWUnLCAnPG91dGZpbGUubWFlPic=

> <r_lp_tautomer_probability>
1

> <r_epik_Ionization_Penalty>
0.211373

> <r_epik_Ionization_Penalty_Charging>
0

> <r_epik_Ionization_Penalty_Neutral>
0.211373

> <r_epik_State_Penalty>
0.201459

> <r_epik_Charging_Adjusted_Penalty>
0.201459

> <i_epik_Tot_Q>
0

> <i_epik_Tot_abs_Q>
0

> <r_epik_Metal_State_Penalty>
0.201458

> <b_epik_Metal_Only>
0

> <s_lp_Force_Field>
OPLS_2005

> <r_lp_Energy>
31.9389

> <b_lp_Chiralities_Consistent>
1

> <s_lp_Variant>
AV-unprocessed.smi:3345-3

> <Gold.Version>
5.8.1

> <Gold.Id.Protein>
6NUR|6NUR_protein|mol2

> <Gold.PLP.Fitness>
33.9541

> <Gold.PLP.PLP>
-35.1754

> <Gold.PLP.part.hbond>
-2.0000

> <Gold.PLP.part.metal>
0.0000

> <Gold.PLP.part.buried>
-4.3713

> <Gold.PLP.part.nonpolar>
-28.4129

> <Gold.PLP.part.repulsive>
0.6137

> <Gold.PLP.ligand.clash>
0.9135

> <Gold.PLP.ligand.torsion>
1.1411

> <Gold.PLP.Chemscore.Hbond>
0.5793

> <Gold.PLP.Chemscore.CHOScore>
0.0000

> <Gold.PLP.Chemscore.Metal>
0.0000

> <Gold.Chemscore.Hbonds>
donor molecule, donor type, donor heavy atom, donor atom, acceptor molecule, acceptor atom, score
      P1  H  7989  7998       L1    12  0.04
      P1  H  8011  8017       L1    12  0.58

> <Gold.PLP.Chemscore.Internal.Correction>
0.2364

> <Gold.Rescore>
     Score         DG    S(hbond)    S(metal)    S(lipo)     H(rot)  DE(clash)    DE(int)     intcor
      8.42     -10.85       1.09        0.00      70.35       2.54       0.47       1.96       ----

> <Gold.Chemscore.Fitness>
8.4180

> <Gold.Chemscore.DG>
-10.8534

> <Gold.Chemscore.ZeroCoef>
-5.4800

> <Gold.Chemscore.Hbond>
1.0876

> <Gold.Chemscore.Metal>
0.0000

> <Gold.Chemscore.Lipo>
70.3542

> <Gold.Chemscore.Internal_Hbond>
0.0000

> <Gold.Chemscore.DEClash>
0.4727

> <Gold.Chemscore.DEInternal>
1.9627

> <Gold.Chemscore.Rot>
2.5353

> <Gold.Chemscore.Internal.Correction>
   9.000000E+99

> <Gold.Chemscore.Hbonds>
donor molecule, donor type, donor heavy atom, donor atom, acceptor molecule, acceptor atom, score
      P1  H  7989  7998       L1    12  0.01
      P1  H  8011  8017       L1    12  0.57

> <Gold.Chemscore.Hbond.Weighted>
-3.6325

> <Gold.Chemscore.Metal.Weighted>
-0.0000

> <Gold.Chemscore.Lipo.Weighted>
-8.2314

> <Gold.Chemscore.Internal_Hbond.Weighted>
0.0000

> <Gold.Chemscore.DEClash.Weighted>
0.4727

> <Gold.Chemscore.DEInternal.Weighted>
1.9627

> <Gold.Chemscore.Rot.Weighted>
6.4905

> <Gold.Chemscore.Internal.Correction.Weighted>
   9.000000E+99

> <Gold.Protein.RotatedTorsions>
[ 6907 6896 6895 6894 ] final  -29.55 input  -60.11 | X-H torsion
[ 7974 7965 7964 7962 ] final  149.41 input  175.53 | X-H torsion
[ 8008 7997 7996 7995 ] final  105.08 input   59.86 | X-H torsion
[ 10167 10162 10161 10158 ] final  -53.60 input  -65.29 | X-H torsion
[ 10718 10713 10712 10709 ] final   -5.60 input   66.30 | X-H torsion
[ 10763 10752 10751 10750 ] final   99.18 input  -60.55 | X-H torsion
[ 11005 11000 10999 10996 ] final  175.92 input  -57.11 | X-H torsion

> <Gold.Protein.ActiveResidues>
 VAL166  LYS551  ARG553  GLY616  TRP617  ASP618  TYR619  PRO620  LYS621  CYS622 
 ASP623  PHE694  ASN695  SER759  ASP760  ASP761  ALA762  ILE779  LEU786  VAL792 
 PHE793  MET794  SER795  GLU796  ALA797  LYS798  CYS799  TRP800  GLU811  SER814 

> <Gold.Protein.RotatedAtoms>
  151.1177  135.0062  159.8523 H   0  0  0  0  0  0  0  0  0  0  0  0  # atno 6907 bound_to 6896
  152.5446  134.1760  159.8626 H   0  0  0  0  0  0  0  0  0  0  0  0  # atno 6908 bound_to 6896
  151.1815  133.4677  159.2627 H   0  0  0  0  0  0  0  0  0  0  0  0  # atno 6909 bound_to 6896
  144.8440  139.6277  143.6004 H   0  0  0  0  0  0  0  0  0  0  0  0  # atno 7974 bound_to 7965
  156.1628  140.3137  155.8837 H   0  0  0  0  0  0  0  0  0  0  0  0  # atno 8008 bound_to 7997
  155.3747  140.0484  157.3062 H   0  0  0  0  0  0  0  0  0  0  0  0  # atno 8009 bound_to 7997
  154.5163  140.2182  155.9070 H   0  0  0  0  0  0  0  0  0  0  0  0  # atno 8010 bound_to 7997
  140.6476  143.2545  151.4816 H   0  0  0  0  0  0  0  0  0  0  0  0  # atno 10167 bound_to 10162
  156.7441  130.5219  149.5818 H   0  0  0  0  0  0  0  0  0  0  0  0  # atno 10718 bound_to 10713
  153.2982  135.4122  155.1228 H   0  0  0  0  0  0  0  0  0  0  0  0  # atno 10763 bound_to 10752
  154.8541  135.3535  154.5888 H   0  0  0  0  0  0  0  0  0  0  0  0  # atno 10764 bound_to 10752
  153.6313  135.7060  153.5333 H   0  0  0  0  0  0  0  0  0  0  0  0  # atno 10765 bound_to 10752
  140.3674  134.7060  157.4370 H   0  0  0  0  0  0  0  0  0  0  0  0  # atno 11005 bound_to 11000
  146.2728  139.6677  142.9284 LP  0  0  0  0  0  0  0  0  0  0  0  0  # atno 17320 bound_to 7965
  145.4635  141.0434  143.2738 LP  0  0  0  0  0  0  0  0  0  0  0  0  # atno 17321 bound_to 7965
  139.5688  144.1979  152.1805 LP  0  0  0  0  0  0  0  0  0  0  0  0  # atno 17342 bound_to 10162
  140.1269  144.5324  150.6827 LP  0  0  0  0  0  0  0  0  0  0  0  0  # atno 17343 bound_to 10162
  156.1445  130.6267  151.0512 LP  0  0  0  0  0  0  0  0  0  0  0  0  # atno 17370 bound_to 10713
  157.6805  131.0839  150.7381 LP  0  0  0  0  0  0  0  0  0  0  0  0  # atno 17371 bound_to 10713
  140.0578  134.6038  155.8784 LP  0  0  0  0  0  0  0  0  0  0  0  0  # atno 17394 bound_to 11000
  141.1965  133.6592  156.5696 LP  0  0  0  0  0  0  0  0  0  0  0  0  # atno 17395 bound_to 11000

$$$$
