AV-unprocessed.smi:1455|AV-procd|sdf|5915|dock5
  -GOLD-   22720 6 03D 1   1.00000     0.00000
 Structure written by MMmdl.
 32 33  0  0  0  0  0  0  0  0  1 V2000
  150.7208  141.8776  158.7816 O   0  0  0  0  0  0  0  0  0  0  0  0
  150.4392  142.4189  157.7112 C   0  0  0  0  0  0  0  0  0  0  0  0
  149.5112  141.7337  156.6974 C   0  0  0  0  0  0  0  0  0  0  0  0
  150.1164  140.5592  156.0517 N   0  0  0  0  0  0  0  0  0  0  0  0
  150.8329  139.6394  156.8041 C   0  0  0  0  0  0  0  0  0  0  0  0
  151.4212  138.5401  156.2757 C   0  0  0  0  0  0  0  0  0  0  0  0
  151.3254  138.2664  154.8459 C   0  0  0  0  0  0  0  0  0  0  0  0
  151.8209  137.2979  154.2743 O   0  0  0  0  0  0  0  0  0  0  0  0
  150.6001  139.2166  154.1223 N   0  0  0  0  0  0  0  0  0  0  0  0
  149.9925  140.3521  154.6606 C   0  0  0  0  0  0  0  0  0  0  0  0
  149.3782  141.1291  153.9307 O   0  0  0  0  0  0  0  0  0  0  0  0
  150.8927  143.6323  157.3617 N   0  0  0  0  0  0  0  0  0  0  0  0
  151.7723  144.4686  158.1744 C   0  0  0  0  0  0  0  0  0  0  0  0
  152.9370  143.6532  158.7713 C   0  0  0  0  0  0  0  0  0  0  0  0
  152.6304  143.5114  160.2620 C   0  0  0  0  0  0  0  0  0  0  0  0
  151.8701  144.7877  160.6074 C   0  0  0  0  0  0  0  0  0  0  0  0
  151.0078  145.0622  159.3738 C   0  0  0  0  0  0  0  0  0  0  0  0
  150.5107  139.0716  153.1272 H   0  0  0  0  0  0  0  0  0  0  0  0
  148.5960  141.4456  157.2165 H   0  0  0  0  0  0  0  0  0  0  0  0
  149.1974  142.4589  155.9441 H   0  0  0  0  0  0  0  0  0  0  0  0
  150.9334  139.8038  157.8676 H   0  0  0  0  0  0  0  0  0  0  0  0
  151.9661  137.8600  156.9143 H   0  0  0  0  0  0  0  0  0  0  0  0
  150.6086  144.0045  156.4672 H   0  0  0  0  0  0  0  0  0  0  0  0
  152.1717  145.2787  157.5612 H   0  0  0  0  0  0  0  0  0  0  0  0
  153.0846  142.6847  158.2912 H   0  0  0  0  0  0  0  0  0  0  0  0
  153.8648  144.2133  158.6483 H   0  0  0  0  0  0  0  0  0  0  0  0
  151.9884  142.6448  160.4250 H   0  0  0  0  0  0  0  0  0  0  0  0
  153.5295  143.3799  160.8645 H   0  0  0  0  0  0  0  0  0  0  0  0
  151.2800  144.6920  161.5193 H   0  0  0  0  0  0  0  0  0  0  0  0
  152.5766  145.6061  160.7517 H   0  0  0  0  0  0  0  0  0  0  0  0
  150.8083  146.1268  159.2477 H   0  0  0  0  0  0  0  0  0  0  0  0
  150.0429  144.5680  159.4991 H   0  0  0  0  0  0  0  0  0  0  0  0
  1  2  2  0  0  0  0
  2  3  1  0  0  0  0
  2 12  1  0  0  0  0
  3  4  1  0  0  0  0
  3 19  1  0  0  0  0
  3 20  1  0  0  0  0
  4 10  1  0  0  0  0
  4  5  1  0  0  0  0
  5  6  2  0  0  0  0
  5 21  1  0  0  0  0
  6  7  1  0  0  0  0
  6 22  1  0  0  0  0
  7  8  2  0  0  0  0
  7  9  1  0  0  0  0
  9 18  1  0  0  0  0
  9 10  1  0  0  0  0
 10 11  2  0  0  0  0
 12 13  1  0  0  0  0
 12 23  1  0  0  0  0
 13 17  1  0  0  0  0
 13 14  1  0  0  0  0
 13 24  1  0  0  0  0
 14 15  1  0  0  0  0
 14 25  1  0  0  0  0
 14 26  1  0  0  0  0
 15 16  1  0  0  0  0
 15 27  1  0  0  0  0
 15 28  1  0  0  0  0
 16 17  1  0  0  0  0
 16 29  1  0  0  0  0
 16 30  1  0  0  0  0
 17 31  1  0  0  0  0
 17 32  1  0  0  0  0
M  END
> <s_m_source_file>
AV-unprocessed.smi

> <i_m_source_file_index>
1455

> <i_lp_mmshare_version>
43012

> <i_f3d_flags>
0

> <s_epik_input>
W0NIMl0xW0NIMl1bQ0gyXVtDSDJdW0NIXTFbTkhdQyg9TylbQ0gyXW4yW2NIXVtjSF1jKD1PKVtuSF1jMj1P

> <s_epik_cmdline>
J2VwaWtfcHl0aG9uJywgJy1waCcsICc3LjAnLCAnLXRuJywgJzgnLCAnLW1hJywgJzIwMCcsICctbWV0YWxfYmluZGluZycsICctaW1hZScsICc8aW5maWxlLm1hZT4nLCAnLW9tYWUnLCAnPG91dGZpbGUubWFlPic=

> <r_lp_tautomer_probability>
0.999537

> <r_epik_Ionization_Penalty>
0.00322093

> <r_epik_Ionization_Penalty_Charging>
0.00322091

> <r_epik_Ionization_Penalty_Neutral>
1.93017e-08

> <r_epik_State_Penalty>
0.00227242

> <r_epik_Charging_Adjusted_Penalty>
0.00549333

> <i_epik_Tot_Q>
0

> <i_epik_Tot_abs_Q>
0

> <r_epik_Metal_State_Penalty>
0.364362

> <b_epik_Metal_Only>
0

> <s_lp_Force_Field>
OPLS_2005

> <r_lp_Energy>
17.501

> <b_lp_Chiralities_Consistent>
1

> <s_lp_Variant>
AV-unprocessed.smi:1455-1

> <Gold.Version>
5.8.1

> <Gold.Id.Protein>
6NUR|6NUR_protein|mol2

> <Gold.PLP.Fitness>
44.8629

> <Gold.PLP.PLP>
-36.4445

> <Gold.PLP.part.hbond>
-4.7665

> <Gold.PLP.part.metal>
0.0000

> <Gold.PLP.part.buried>
-3.9190

> <Gold.PLP.part.nonpolar>
-31.1952

> <Gold.PLP.part.repulsive>
3.5109

> <Gold.PLP.ligand.clash>
0.0000

> <Gold.PLP.ligand.torsion>
0.4612

> <Gold.PLP.Chemscore.Hbond>
3.1123

> <Gold.PLP.Chemscore.CHOScore>
0.0000

> <Gold.PLP.Chemscore.Metal>
0.0000

> <Gold.Chemscore.Hbonds>
donor molecule, donor type, donor heavy atom, donor atom, acceptor molecule, acceptor atom, score
      L1  H     9    18       P1  7957  0.17
      L1  H    12    23       P1  8028  0.74
      P1  H  8011  8017       L1    11  0.73
      P1  H 10752 10763       L1     8  0.99

> <Gold.PLP.Chemscore.Internal.Correction>
0.0039

> <Gold.Rescore>
     Score         DG    S(hbond)    S(metal)    S(lipo)     H(rot)  DE(clash)    DE(int)     intcor
     12.64     -18.84       2.61        0.00      77.49       1.72       2.10       4.11       ----

> <Gold.Chemscore.Fitness>
12.6408

> <Gold.Chemscore.DG>
-18.8440

> <Gold.Chemscore.ZeroCoef>
-5.4800

> <Gold.Chemscore.Hbond>
2.6050

> <Gold.Chemscore.Metal>
0.0000

> <Gold.Chemscore.Lipo>
77.4911

> <Gold.Chemscore.Internal_Hbond>
0.0000

> <Gold.Chemscore.DEClash>
2.0976

> <Gold.Chemscore.DEInternal>
4.1056

> <Gold.Chemscore.Rot>
1.7201

> <Gold.Chemscore.Internal.Correction>
   9.000000E+99

> <Gold.Chemscore.Hbonds>
donor molecule, donor type, donor heavy atom, donor atom, acceptor molecule, acceptor atom, score
      L1  H     9    18       P1  7957  0.12
      L1  H    12    23       P1  8028  0.69
      P1  H  8011  8017       L1    11  0.70
      P1  H 10752 10763       L1     8  0.92

> <Gold.Chemscore.Hbond.Weighted>
-8.7008

> <Gold.Chemscore.Metal.Weighted>
-0.0000

> <Gold.Chemscore.Lipo.Weighted>
-9.0665

> <Gold.Chemscore.Internal_Hbond.Weighted>
0.0000

> <Gold.Chemscore.DEClash.Weighted>
2.0976

> <Gold.Chemscore.DEInternal.Weighted>
4.1056

> <Gold.Chemscore.Rot.Weighted>
4.4033

> <Gold.Chemscore.Internal.Correction.Weighted>
   9.000000E+99

> <Gold.Protein.RotatedTorsions>
[ 6907 6896 6895 6894 ] final -105.12 input  -60.11 | X-H torsion
[ 7974 7965 7964 7962 ] final   32.31 input  175.53 | X-H torsion
[ 8008 7997 7996 7995 ] final  -30.94 input   59.86 | X-H torsion
[ 10167 10162 10161 10158 ] final   51.95 input  -65.29 | X-H torsion
[ 10718 10713 10712 10709 ] final -156.58 input   66.30 | X-H torsion
[ 10763 10752 10751 10750 ] final   30.99 input  -60.55 | X-H torsion
[ 11005 11000 10999 10996 ] final -171.33 input  -57.11 | X-H torsion

> <Gold.Protein.ActiveResidues>
 VAL166  LYS551  ARG553  GLY616  TRP617  ASP618  TYR619  PRO620  LYS621  CYS622 
 ASP623  PHE694  ASN695  SER759  ASP760  ASP761  ALA762  ILE779  LEU786  VAL792 
 PHE793  MET794  SER795  GLU796  ALA797  LYS798  CYS799  TRP800  GLU811  SER814 

> <Gold.Protein.RotatedAtoms>
  150.7321  134.0174  159.3689 H   0  0  0  0  0  0  0  0  0  0  0  0  # atno 6907 bound_to 6896
  151.8137  135.0671  160.0425 H   0  0  0  0  0  0  0  0  0  0  0  0  # atno 6908 bound_to 6896
  152.3054  133.5661  159.5682 H   0  0  0  0  0  0  0  0  0  0  0  0  # atno 6909 bound_to 6896
  146.1494  139.6542  142.9109 H   0  0  0  0  0  0  0  0  0  0  0  0  # atno 7974 bound_to 7965
  154.4232  140.1778  156.1487 H   0  0  0  0  0  0  0  0  0  0  0  0  # atno 8008 bound_to 7997
  155.9933  140.3367  155.6749 H   0  0  0  0  0  0  0  0  0  0  0  0  # atno 8009 bound_to 7997
  155.6343  140.0673  157.2629 H   0  0  0  0  0  0  0  0  0  0  0  0  # atno 8010 bound_to 7997
  140.2565  144.3421  150.6331 H   0  0  0  0  0  0  0  0  0  0  0  0  # atno 10167 bound_to 10162
  156.5285  130.8510  151.2707 H   0  0  0  0  0  0  0  0  0  0  0  0  # atno 10718 bound_to 10713
  153.0340  135.6450  154.1131 H   0  0  0  0  0  0  0  0  0  0  0  0  # atno 10763 bound_to 10752
  154.0848  135.2870  155.3285 H   0  0  0  0  0  0  0  0  0  0  0  0  # atno 10764 bound_to 10752
  154.6505  135.5427  153.7960 H   0  0  0  0  0  0  0  0  0  0  0  0  # atno 10765 bound_to 10752
  140.5094  134.5816  157.5014 H   0  0  0  0  0  0  0  0  0  0  0  0  # atno 11005 bound_to 11000
  145.4859  141.0438  143.2620 LP  0  0  0  0  0  0  0  0  0  0  0  0  # atno 17320 bound_to 7965
  144.7886  139.6375  143.7123 LP  0  0  0  0  0  0  0  0  0  0  0  0  # atno 17321 bound_to 7965
  140.5999  143.2167  151.7091 LP  0  0  0  0  0  0  0  0  0  0  0  0  # atno 17342 bound_to 10162
  139.5030  144.3808  152.0377 LP  0  0  0  0  0  0  0  0  0  0  0  0  # atno 17343 bound_to 10162
  157.7425  130.9893  150.2526 LP  0  0  0  0  0  0  0  0  0  0  0  0  # atno 17370 bound_to 10713
  156.3082  130.3768  149.7686 LP  0  0  0  0  0  0  0  0  0  0  0  0  # atno 17371 bound_to 10713
  139.9667  134.7361  156.0124 LP  0  0  0  0  0  0  0  0  0  0  0  0  # atno 17394 bound_to 11000
  141.1393  133.6568  156.3684 LP  0  0  0  0  0  0  0  0  0  0  0  0  # atno 17395 bound_to 11000

$$$$
