AV-unprocessed.smi:1691|AV-procd|sdf|6777|dock9
  -GOLD-   22720 7533D 1   1.00000     0.00000
 Structure written by MMmdl.
 43 44  0  0  0  0  0  0  0  0  1 V2000
  149.1008  141.4815  154.5632 C   0  0  0  0  0  0  0  0  0  0  0  0
  148.3966  140.4034  155.4108 C   0  0  0  0  0  0  0  0  0  0  0  0
  149.0760  140.2452  156.7819 C   0  0  0  0  0  0  0  0  0  0  0  0
  148.1269  139.0291  154.7190 C   0  0  1  0  0  0  0  0  0  0  0  0
  147.2823  139.1364  153.4171 C   0  0  0  0  0  0  0  0  0  0  0  0
  147.2069  137.8768  152.6834 N   0  0  0  0  0  0  0  0  0  0  0  0
  146.0739  137.2167  152.4059 C   0  0  0  0  0  0  0  0  0  0  0  0
  144.9579  137.6042  152.7533 O   0  0  0  0  0  0  0  0  0  0  0  0
  146.3203  136.0965  151.7072 N   0  0  0  0  0  0  0  0  0  0  0  0
  145.3742  135.1555  151.2275 C   0  0  0  0  0  0  0  0  0  0  0  0
  145.5992  133.7550  151.1389 C   0  0  0  0  0  0  0  0  0  0  0  0
  144.5392  133.1246  150.6533 N   0  0  0  0  0  0  0  0  0  0  0  0
  143.6399  134.1095  150.4308 N   0  0  0  0  0  0  0  0  0  0  0  0
  144.1045  135.3622  150.7659 C   0  0  0  0  0  0  0  0  0  0  0  0
  149.3006  138.1391  154.6210 N   0  0  0  0  0  0  0  0  0  0  0  0
  149.5407  137.2818  155.7811 C   0  0  0  0  0  0  0  0  0  0  0  0
  150.7257  136.3283  155.5474 C   0  0  0  0  0  0  0  0  0  0  0  0
  151.8892  137.0779  155.2132 O   0  0  0  0  0  0  0  0  0  0  0  0
  151.7060  137.8877  154.0565 C   0  0  0  0  0  0  0  0  0  0  0  0
  150.5315  138.8533  154.2867 C   0  0  0  0  0  0  0  0  0  0  0  0
  142.7230  133.9130  150.0550 H   0  0  0  0  0  0  0  0  0  0  0  0
  150.1617  141.2833  154.4294 H   0  0  0  0  0  0  0  0  0  0  0  0
  149.0313  142.4504  155.0580 H   0  0  0  0  0  0  0  0  0  0  0  0
  148.6472  141.5989  153.5801 H   0  0  0  0  0  0  0  0  0  0  0  0
  147.4121  140.8183  155.6299 H   0  0  0  0  0  0  0  0  0  0  0  0
  150.1028  139.8915  156.6818 H   0  0  0  0  0  0  0  0  0  0  0  0
  148.5373  139.5336  157.4083 H   0  0  0  0  0  0  0  0  0  0  0  0
  149.1065  141.1950  157.3163 H   0  0  0  0  0  0  0  0  0  0  0  0
  147.4654  138.5363  155.4329 H   0  0  0  0  0  0  0  0  0  0  0  0
  146.2627  139.4469  153.6426 H   0  0  0  0  0  0  0  0  0  0  0  0
  147.6832  139.8997  152.7500 H   0  0  0  0  0  0  0  0  0  0  0  0
  148.0794  137.4860  152.3590 H   0  0  0  0  0  0  0  0  0  0  0  0
  147.2861  135.8968  151.4922 H   0  0  0  0  0  0  0  0  0  0  0  0
  146.4780  133.1866  151.4056 H   0  0  0  0  0  0  0  0  0  0  0  0
  143.5048  136.2523  150.6468 H   0  0  0  0  0  0  0  0  0  0  0  0
  149.7472  137.8901  156.6620 H   0  0  0  0  0  0  0  0  0  0  0  0
  148.6646  136.6840  156.0092 H   0  0  0  0  0  0  0  0  0  0  0  0
  150.9244  135.7438  156.4459 H   0  0  0  0  0  0  0  0  0  0  0  0
  150.4992  135.6205  154.7485 H   0  0  0  0  0  0  0  0  0  0  0  0
  152.6225  138.4449  153.8622 H   0  0  0  0  0  0  0  0  0  0  0  0
  151.5227  137.2561  153.1859 H   0  0  0  0  0  0  0  0  0  0  0  0
  150.3828  139.4541  153.3889 H   0  0  0  0  0  0  0  0  0  0  0  0
  150.7987  139.5442  155.0861 H   0  0  0  0  0  0  0  0  0  0  0  0
  1  2  1  0  0  0  0
  1 22  1  0  0  0  0
  1 23  1  0  0  0  0
  1 24  1  0  0  0  0
  2  3  1  0  0  0  0
  2  4  1  0  0  0  0
  2 25  1  0  0  0  0
  3 26  1  0  0  0  0
  3 27  1  0  0  0  0
  3 28  1  0  0  0  0
  4  5  1  0  0  0  0
  4 15  1  0  0  0  0
  4 29  1  0  0  0  0
  5  6  1  0  0  0  0
  5 30  1  0  0  0  0
  5 31  1  0  0  0  0
  6  7  1  0  0  0  0
  6 32  1  0  0  0  0
  7  8  2  0  0  0  0
  7  9  1  0  0  0  0
  9 10  1  0  0  0  0
  9 33  1  0  0  0  0
 10 14  2  0  0  0  0
 10 11  1  0  0  0  0
 11 12  2  0  0  0  0
 11 34  1  0  0  0  0
 12 13  1  0  0  0  0
 13 21  1  0  0  0  0
 13 14  1  0  0  0  0
 14 35  1  0  0  0  0
 15 20  1  0  0  0  0
 15 16  1  0  0  0  0
 16 17  1  0  0  0  0
 16 36  1  0  0  0  0
 16 37  1  0  0  0  0
 17 18  1  0  0  0  0
 17 38  1  0  0  0  0
 17 39  1  0  0  0  0
 18 19  1  0  0  0  0
 19 20  1  0  0  0  0
 19 40  1  0  0  0  0
 19 41  1  0  0  0  0
 20 42  1  0  0  0  0
 20 43  1  0  0  0  0
M  END
> <s_m_source_file>
AV-unprocessed.smi

> <i_m_source_file_index>
1691

> <i_lp_mmshare_version>
43012

> <i_f3d_flags>
0

> <s_epik_input>
W0NIMl0xW0NIMl1PW0NIMl1bQ0gyXU4xW0NASF0oW0NIXShbQ0gzXSlbQ0gzXSlbQ0gyXVtOSF1DKD1PKVtOSF1jMltjSF1uW25IXVtjSF0y

> <s_epik_cmdline>
J2VwaWtfcHl0aG9uJywgJy1waCcsICc3LjAnLCAnLXRuJywgJzgnLCAnLW1hJywgJzIwMCcsICctbWV0YWxfYmluZGluZycsICctaW1hZScsICc8aW5maWxlLm1hZT4nLCAnLW9tYWUnLCAnPG91dGZpbGUubWFlPic=

> <r_lp_tautomer_probability>
0.5

> <r_epik_Ionization_Penalty>
0.462189

> <r_epik_Ionization_Penalty_Charging>
0

> <r_epik_Ionization_Penalty_Neutral>
0.462189

> <r_epik_State_Penalty>
0.465733

> <r_epik_Charging_Adjusted_Penalty>
0.465733

> <i_epik_Tot_Q>
0

> <i_epik_Tot_abs_Q>
0

> <r_epik_Metal_State_Penalty>
0.465732

> <b_epik_Metal_Only>
0

> <s_lp_Force_Field>
OPLS_2005

> <r_lp_Energy>
41.1245

> <b_lp_Chiralities_Consistent>
1

> <s_lp_Variant>
AV-unprocessed.smi:1691-4

> <Gold.Version>
5.8.1

> <Gold.Id.Protein>
6NUR|6NUR_protein|mol2

> <Gold.PLP.Fitness>
41.0587

> <Gold.PLP.PLP>
-28.2733

> <Gold.PLP.part.hbond>
-3.9420

> <Gold.PLP.part.metal>
0.0000

> <Gold.PLP.part.buried>
-5.6090

> <Gold.PLP.part.nonpolar>
-21.1879

> <Gold.PLP.part.repulsive>
0.9314

> <Gold.PLP.ligand.clash>
0.0000

> <Gold.PLP.ligand.torsion>
1.2720

> <Gold.PLP.Chemscore.Hbond>
3.9760

> <Gold.PLP.Chemscore.CHOScore>
1.0000

> <Gold.PLP.Chemscore.Metal>
0.0000

> <Gold.Chemscore.Hbonds>
donor molecule, donor type, donor heavy atom, donor atom, acceptor molecule, acceptor atom, score
      L1  H     6    32       P1  7948  1.00
      L1  H     9    33       P1  7948  0.96
      L1  H    13    21       P1 10186  1.00
      P1  H 10752 10765       L1    18  0.85
      L1  C    14    35       P1 10171  1.00

> <Gold.PLP.Chemscore.Internal.Correction>
0.4014

> <Gold.Rescore>
     Score         DG    S(hbond)    S(metal)    S(lipo)     H(rot)  DE(clash)    DE(int)     intcor
     17.08     -18.47       3.03        0.00      63.78       1.79       0.08       1.30       ----

> <Gold.Chemscore.Fitness>
17.0794

> <Gold.Chemscore.DG>
-18.4666

> <Gold.Chemscore.ZeroCoef>
-5.4800

> <Gold.Chemscore.Hbond>
3.0255

> <Gold.Chemscore.Metal>
0.0000

> <Gold.Chemscore.Lipo>
63.7782

> <Gold.Chemscore.Internal_Hbond>
0.0000

> <Gold.Chemscore.DEClash>
0.0850

> <Gold.Chemscore.DEInternal>
1.3021

> <Gold.Chemscore.Rot>
1.7893

> <Gold.Chemscore.Internal.Correction>
   9.000000E+99

> <Gold.Chemscore.Hbonds>
donor molecule, donor type, donor heavy atom, donor atom, acceptor molecule, acceptor atom, score
      L1  H     6    32       P1  7948  0.95
      L1  H     9    33       P1  7948  0.92
      L1  H    13    21       P1 10186  0.96
      P1  H 10752 10765       L1    18  0.09

> <Gold.Chemscore.Hbond.Weighted>
-10.1050

> <Gold.Chemscore.Metal.Weighted>
-0.0000

> <Gold.Chemscore.Lipo.Weighted>
-7.4620

> <Gold.Chemscore.Internal_Hbond.Weighted>
0.0000

> <Gold.Chemscore.DEClash.Weighted>
0.0850

> <Gold.Chemscore.DEInternal.Weighted>
1.3021

> <Gold.Chemscore.Rot.Weighted>
4.5805

> <Gold.Chemscore.Internal.Correction.Weighted>
   9.000000E+99

> <Gold.Protein.RotatedTorsions>
[ 6907 6896 6895 6894 ] final  164.40 input  -60.11 | X-H torsion
[ 7974 7965 7964 7962 ] final  121.93 input  175.53 | X-H torsion
[ 8008 7997 7996 7995 ] final   44.15 input   59.86 | X-H torsion
[ 10167 10162 10161 10158 ] final   94.88 input  -65.29 | X-H torsion
[ 10718 10713 10712 10709 ] final   57.80 input   66.30 | X-H torsion
[ 10763 10752 10751 10750 ] final -172.30 input  -60.55 | X-H torsion
[ 11005 11000 10999 10996 ] final   43.11 input  -57.11 | X-H torsion

> <Gold.Protein.ActiveResidues>
 VAL166  LYS551  ARG553  GLY616  TRP617  ASP618  TYR619  PRO620  LYS621  CYS622 
 ASP623  PHE694  ASN695  SER759  ASP760  ASP761  ALA762  ILE779  LEU786  VAL792 
 PHE793  MET794  SER795  GLU796  ALA797  LYS798  CYS799  TRP800  GLU811  SER814 

> <Gold.Protein.RotatedAtoms>
  151.9104  133.3560  159.3861 H   0  0  0  0  0  0  0  0  0  0  0  0  # atno 6907 bound_to 6896
  150.7059  134.4737  159.5447 H   0  0  0  0  0  0  0  0  0  0  0  0  # atno 6908 bound_to 6896
  152.2342  134.8292  160.0520 H   0  0  0  0  0  0  0  0  0  0  0  0  # atno 6909 bound_to 6896
  145.1135  139.3436  143.4751 H   0  0  0  0  0  0  0  0  0  0  0  0  # atno 7974 bound_to 7965
  155.3145  140.3393  155.4243 H   0  0  0  0  0  0  0  0  0  0  0  0  # atno 8008 bound_to 7997
  156.1939  140.1708  156.8074 H   0  0  0  0  0  0  0  0  0  0  0  0  # atno 8009 bound_to 7997
  154.5475  140.0712  156.8597 H   0  0  0  0  0  0  0  0  0  0  0  0  # atno 8010 bound_to 7997
  139.8041  144.6801  150.9726 H   0  0  0  0  0  0  0  0  0  0  0  0  # atno 10167 bound_to 10162
  157.5544  130.8789  149.9013 H   0  0  0  0  0  0  0  0  0  0  0  0  # atno 10718 bound_to 10713
  154.6208  135.2875  155.0328 H   0  0  0  0  0  0  0  0  0  0  0  0  # atno 10763 bound_to 10752
  154.1523  135.6501  153.4970 H   0  0  0  0  0  0  0  0  0  0  0  0  # atno 10764 bound_to 10752
  153.0235  135.5358  154.6997 H   0  0  0  0  0  0  0  0  0  0  0  0  # atno 10765 bound_to 10752
  140.1676  134.4263  155.8278 H   0  0  0  0  0  0  0  0  0  0  0  0  # atno 11005 bound_to 11000
  146.3525  140.1064  142.8605 LP  0  0  0  0  0  0  0  0  0  0  0  0  # atno 17320 bound_to 7965
  145.0820  140.9227  143.4820 LP  0  0  0  0  0  0  0  0  0  0  0  0  # atno 17321 bound_to 7965
  140.7819  143.4251  151.0780 LP  0  0  0  0  0  0  0  0  0  0  0  0  # atno 17342 bound_to 10162
  139.7922  143.8203  152.3153 LP  0  0  0  0  0  0  0  0  0  0  0  0  # atno 17343 bound_to 10162
  156.0605  130.3700  150.0992 LP  0  0  0  0  0  0  0  0  0  0  0  0  # atno 17370 bound_to 10713
  156.9162  130.9668  151.3555 LP  0  0  0  0  0  0  0  0  0  0  0  0  # atno 17371 bound_to 10713
  141.2215  133.6941  156.7705 LP  0  0  0  0  0  0  0  0  0  0  0  0  # atno 17394 bound_to 11000
  140.2416  134.8609  157.3579 LP  0  0  0  0  0  0  0  0  0  0  0  0  # atno 17395 bound_to 11000

$$$$
