AV-unprocessed.smi:2950|AV-procd|sdf|11288|dock3
  -GOLD-   2272016183D 1   1.00000     0.00000
 Structure written by MMmdl.
 29 30  0  0  0  0  0  0  0  0  1 V2000
  147.9343  141.8137  154.1087 C   0  0  0  0  0  0  0  0  0  0  0  0
  148.6153  140.6384  154.5115 O   0  0  0  0  0  0  0  0  0  0  0  0
  149.1119  140.7263  155.8359 C   0  0  0  0  0  0  0  0  0  0  0  0
  150.2883  141.7099  155.8594 C   0  0  0  0  0  0  0  0  0  0  0  0
  151.2766  141.3396  156.8601 N   0  0  0  0  0  0  0  0  0  0  0  0
  151.9411  140.1637  156.9867 C   0  0  0  0  0  0  0  0  0  0  0  0
  151.7061  139.0270  156.0330 C   0  0  0  0  0  0  0  0  0  0  0  0
  151.8814  139.3723  154.6738 O   0  0  0  0  0  0  0  0  0  0  0  0
  152.7978  140.0935  158.0086 N   0  0  0  0  0  0  0  0  0  0  0  0
  152.6830  141.3401  158.5913 C   0  0  0  0  0  0  0  0  0  0  0  0
  153.3357  141.8920  159.7169 C   0  0  0  0  0  0  0  0  0  0  0  0
  153.0532  143.2105  160.1305 C   0  0  0  0  0  0  0  0  0  0  0  0
  152.1167  143.9944  159.4260 C   0  0  0  0  0  0  0  0  0  0  0  0
  151.4547  143.4635  158.3020 C   0  0  0  0  0  0  0  0  0  0  0  0
  151.7395  142.1465  157.8945 C   0  0  0  0  0  0  0  0  0  0  0  0
  147.5707  141.6947  153.0881 H   0  0  0  0  0  0  0  0  0  0  0  0
  148.5955  142.6810  154.1315 H   0  0  0  0  0  0  0  0  0  0  0  0
  147.0752  142.0113  154.7510 H   0  0  0  0  0  0  0  0  0  0  0  0
  148.3220  141.0640  156.5086 H   0  0  0  0  0  0  0  0  0  0  0  0
  149.4385  139.7428  156.1778 H   0  0  0  0  0  0  0  0  0  0  0  0
  150.7756  141.7339  154.8840 H   0  0  0  0  0  0  0  0  0  0  0  0
  149.9376  142.7241  156.0511 H   0  0  0  0  0  0  0  0  0  0  0  0
  152.3884  138.2130  156.2789 H   0  0  0  0  0  0  0  0  0  0  0  0
  150.6904  138.6521  156.1596 H   0  0  0  0  0  0  0  0  0  0  0  0
  151.8527  138.5821  154.1566 H   0  0  0  0  0  0  0  0  0  0  0  0
  154.0554  141.2995  160.2622 H   0  0  0  0  0  0  0  0  0  0  0  0
  153.5580  143.6224  160.9921 H   0  0  0  0  0  0  0  0  0  0  0  0
  151.9071  145.0035  159.7493 H   0  0  0  0  0  0  0  0  0  0  0  0
  150.7373  144.0617  157.7600 H   0  0  0  0  0  0  0  0  0  0  0  0
  1  2  1  0  0  0  0
  1 16  1  0  0  0  0
  1 17  1  0  0  0  0
  1 18  1  0  0  0  0
  2  3  1  0  0  0  0
  3  4  1  0  0  0  0
  3 19  1  0  0  0  0
  3 20  1  0  0  0  0
  4  5  1  0  0  0  0
  4 21  1  0  0  0  0
  4 22  1  0  0  0  0
  5 15  1  0  0  0  0
  5  6  1  0  0  0  0
  6  7  1  0  0  0  0
  6  9  2  0  0  0  0
  7  8  1  0  0  0  0
  7 23  1  0  0  0  0
  7 24  1  0  0  0  0
  8 25  1  0  0  0  0
  9 10  1  0  0  0  0
 10 15  2  0  0  0  0
 10 11  1  0  0  0  0
 11 12  2  0  0  0  0
 11 26  1  0  0  0  0
 12 13  1  0  0  0  0
 12 27  1  0  0  0  0
 13 14  2  0  0  0  0
 13 28  1  0  0  0  0
 14 15  1  0  0  0  0
 14 29  1  0  0  0  0
M  END
> <s_m_source_file>
AV-unprocessed.smi

> <i_m_source_file_index>
2950

> <i_lp_mmshare_version>
43012

> <i_f3d_flags>
0

> <s_epik_input>
W0NIM11PW0NIMl1bQ0gyXW4oYyhuMSlbQ0gyXVtPSF0pYyhjMTIpW2NIXVtjSF1bY0hdW2NIXTI=

> <s_epik_cmdline>
J2VwaWtfcHl0aG9uJywgJy1waCcsICc3LjAnLCAnLXRuJywgJzgnLCAnLW1hJywgJzIwMCcsICctbWV0YWxfYmluZGluZycsICctaW1hZScsICc8aW5maWxlLm1hZT4nLCAnLW9tYWUnLCAnPG91dGZpbGUubWFlPic=

> <r_epik_Ionization_Penalty>
0.0637339

> <r_epik_Ionization_Penalty_Charging>
0

> <r_epik_Ionization_Penalty_Neutral>
0.0637339

> <r_epik_State_Penalty>
0.0554025

> <r_epik_Charging_Adjusted_Penalty>
0.0554025

> <i_epik_Tot_Q>
0

> <i_epik_Tot_abs_Q>
0

> <r_epik_Metal_State_Penalty>
5.80726e-05

> <b_epik_Metal_Only>
0

> <s_lp_Force_Field>
OPLS_2005

> <r_lp_Energy>
9.41749

> <b_lp_Chiralities_Consistent>
1

> <s_lp_Variant>
AV-unprocessed.smi:2950-1

> <Gold.Version>
5.8.1

> <Gold.Id.Protein>
6NUR|6NUR_protein|mol2

> <Gold.PLP.Fitness>
38.5492

> <Gold.PLP.PLP>
-33.1803

> <Gold.PLP.part.hbond>
-2.0000

> <Gold.PLP.part.metal>
0.0000

> <Gold.PLP.part.buried>
-4.3737

> <Gold.PLP.part.nonpolar>
-26.0805

> <Gold.PLP.part.repulsive>
0.1151

> <Gold.PLP.ligand.clash>
0.0000

> <Gold.PLP.ligand.torsion>
0.2860

> <Gold.PLP.Chemscore.Hbond>
1.9760

> <Gold.PLP.Chemscore.CHOScore>
0.0000

> <Gold.PLP.Chemscore.Metal>
0.0000

> <Gold.Chemscore.Hbonds>
donor molecule, donor type, donor heavy atom, donor atom, acceptor molecule, acceptor atom, score
      P1  H  7989  7998       L1     8  0.98
      P1  H  7997  8009       L1     9  0.99

> <Gold.PLP.Chemscore.Internal.Correction>
0.0129

> <Gold.Rescore>
     Score         DG    S(hbond)    S(metal)    S(lipo)     H(rot)  DE(clash)    DE(int)     intcor
     14.36     -14.62       1.22        0.00      90.08       2.14       0.07       0.19       ----

> <Gold.Chemscore.Fitness>
14.3641

> <Gold.Chemscore.DG>
-14.6195

> <Gold.Chemscore.ZeroCoef>
-5.4800

> <Gold.Chemscore.Hbond>
1.2227

> <Gold.Chemscore.Metal>
0.0000

> <Gold.Chemscore.Lipo>
90.0773

> <Gold.Chemscore.Internal_Hbond>
0.0000

> <Gold.Chemscore.DEClash>
0.0659

> <Gold.Chemscore.DEInternal>
0.1896

> <Gold.Chemscore.Rot>
2.1420

> <Gold.Chemscore.Internal.Correction>
   9.000000E+99

> <Gold.Chemscore.Hbonds>
donor molecule, donor type, donor heavy atom, donor atom, acceptor molecule, acceptor atom, score
      P1  H  7989  7998       L1     8  0.61
      P1  H  7997  8009       L1     9  0.14

> <Gold.Chemscore.Hbond.Weighted>
-4.0840

> <Gold.Chemscore.Metal.Weighted>
-0.0000

> <Gold.Chemscore.Lipo.Weighted>
-10.5390

> <Gold.Chemscore.Internal_Hbond.Weighted>
0.0000

> <Gold.Chemscore.DEClash.Weighted>
0.0659

> <Gold.Chemscore.DEInternal.Weighted>
0.1896

> <Gold.Chemscore.Rot.Weighted>
5.4834

> <Gold.Chemscore.Internal.Correction.Weighted>
   9.000000E+99

> <Gold.Protein.RotatedTorsions>
[ 6907 6896 6895 6894 ] final  123.78 input  -60.11 | X-H torsion
[ 7974 7965 7964 7962 ] final -158.66 input  175.53 | X-H torsion
[ 8008 7997 7996 7995 ] final  156.30 input   59.86 | X-H torsion
[ 10167 10162 10161 10158 ] final   29.82 input  -65.29 | X-H torsion
[ 10718 10713 10712 10709 ] final  176.76 input   66.30 | X-H torsion
[ 10763 10752 10751 10750 ] final  -45.51 input  -60.55 | X-H torsion
[ 11005 11000 10999 10996 ] final   45.67 input  -57.11 | X-H torsion

> <Gold.Protein.ActiveResidues>
 VAL166  LYS551  ARG553  GLY616  TRP617  ASP618  TYR619  PRO620  LYS621  CYS622 
 ASP623  PHE694  ASN695  SER759  ASP760  ASP761  ALA762  ILE779  LEU786  VAL792 
 PHE793  MET794  SER795  GLU796  ALA797  LYS798  CYS799  TRP800  GLU811  SER814 

> <Gold.Protein.RotatedAtoms>
  152.4133  133.6998  159.6416 H   0  0  0  0  0  0  0  0  0  0  0  0  # atno 6907 bound_to 6896
  150.8011  133.8585  159.3234 H   0  0  0  0  0  0  0  0  0  0  0  0  # atno 6908 bound_to 6896
  151.6322  135.1023  160.0175 H   0  0  0  0  0  0  0  0  0  0  0  0  # atno 6909 bound_to 6896
  144.7496  140.3795  143.6058 H   0  0  0  0  0  0  0  0  0  0  0  0  # atno 7974 bound_to 7965
  156.2430  140.1916  156.6933 H   0  0  0  0  0  0  0  0  0  0  0  0  # atno 8008 bound_to 7997
  154.6235  140.0605  156.9671 H   0  0  0  0  0  0  0  0  0  0  0  0  # atno 8009 bound_to 7997
  155.1824  140.3277  155.4375 H   0  0  0  0  0  0  0  0  0  0  0  0  # atno 8010 bound_to 7997
  140.4732  144.0730  150.6243 H   0  0  0  0  0  0  0  0  0  0  0  0  # atno 10167 bound_to 10162
  156.9154  130.9923  151.3013 H   0  0  0  0  0  0  0  0  0  0  0  0  # atno 10718 bound_to 10713
  154.0297  135.6658  153.4779 H   0  0  0  0  0  0  0  0  0  0  0  0  # atno 10763 bound_to 10752
  153.0545  135.5064  154.7944 H   0  0  0  0  0  0  0  0  0  0  0  0  # atno 10764 bound_to 10752
  154.6886  135.3057  154.9477 H   0  0  0  0  0  0  0  0  0  0  0  0  # atno 10765 bound_to 10752
  140.1439  134.4548  155.8430 H   0  0  0  0  0  0  0  0  0  0  0  0  # atno 11005 bound_to 11000
  145.6992  139.1657  143.2602 LP  0  0  0  0  0  0  0  0  0  0  0  0  # atno 17320 bound_to 7965
  146.1428  140.7034  142.9359 LP  0  0  0  0  0  0  0  0  0  0  0  0  # atno 17321 bound_to 7965
  140.3950  143.2732  152.0015 LP  0  0  0  0  0  0  0  0  0  0  0  0  # atno 17342 bound_to 10162
  139.4821  144.6045  151.7546 LP  0  0  0  0  0  0  0  0  0  0  0  0  # atno 17343 bound_to 10162
  157.5941  130.8465  149.8703 LP  0  0  0  0  0  0  0  0  0  0  0  0  # atno 17370 bound_to 10713
  156.0516  130.3716  150.1188 LP  0  0  0  0  0  0  0  0  0  0  0  0  # atno 17371 bound_to 10713
  141.2190  133.6844  156.7297 LP  0  0  0  0  0  0  0  0  0  0  0  0  # atno 17394 bound_to 11000
  140.2688  134.8409  157.3828 LP  0  0  0  0  0  0  0  0  0  0  0  0  # atno 17395 bound_to 11000

$$$$
