AV-unprocessed.smi:445|AV-procd|sdf|2590|dock1
  -GOLD-   2262022583D 1   1.00000     0.00000
 Structure written by MMmdl.
 44 45  0  0  0  0  0  0  0  0  3 V2000
  151.3680  144.9964  158.4772 C   0  0  0  0  0  0  0  0  0  0  0  0
  152.3049  144.2356  159.4309 C   0  0  1  0  0  0  0  0  0  0  0  0
  151.7868  144.2734  160.8842 C   0  0  0  0  0  0  0  0  0  0  0  0
  152.7475  143.5582  161.8477 C   0  0  0  0  0  0  0  0  0  0  0  0
  153.0176  142.1145  161.3997 C   0  0  0  0  0  0  0  0  0  0  0  0
  153.5414  142.0724  159.9543 C   0  0  0  0  0  0  0  0  0  0  0  0
  152.5859  142.7833  158.9697 C   0  0  1  0  0  0  0  0  0  0  0  0
  151.3404  142.0319  158.8075 N   0  0  0  0  0  0  0  0  0  0  0  0
  150.9002  141.4836  157.6650 C   0  0  0  0  0  0  0  0  0  0  0  0
  151.5071  141.5723  156.5969 O   0  0  0  0  0  0  0  0  0  0  0  0
  149.5673  140.7274  157.7563 C   0  0  0  0  0  0  0  0  0  0  0  0
  149.7307  139.2625  157.7257 N   0  0  0  0  0  0  0  0  0  0  0  0
  149.2043  138.5610  158.8246 C   0  0  0  0  0  0  0  0  0  0  0  0
  149.2913  137.2239  158.9314 C   0  0  0  0  0  0  0  0  0  0  0  0
  148.7482  136.5269  160.0775 N   0  3  0  0  0  0  0  0  0  0  0  0
  148.9713  135.3265  160.1978 O   0  0  0  0  0  0  0  0  0  0  0  0
  148.0809  137.1540  160.8950 O   0  5  0  0  0  0  0  0  0  0  0  0
  149.9517  136.5018  157.8640 C   0  0  0  0  0  0  0  0  0  0  0  0
  150.4742  137.1580  156.7965 C   0  0  0  0  0  0  0  0  0  0  0  0
  151.1581  136.4597  155.6846 C   0  0  0  0  0  0  0  0  0  0  0  0
  150.9535  137.0078  154.4801 N   0  0  0  0  0  0  0  0  0  0  0  0
  151.8697  135.4587  155.7660 O   0  0  0  0  0  0  0  0  0  0  0  0
  150.3799  138.6401  156.6920 C   0  0  0  0  0  0  0  0  0  0  0  0
  150.8386  139.3107  155.7635 O   0  0  0  0  0  0  0  0  0  0  0  0
  150.3660  144.5669  158.4642 H   0  0  0  0  0  0  0  0  0  0  0  0
  151.7514  144.9807  157.4567 H   0  0  0  0  0  0  0  0  0  0  0  0
  151.2728  146.0404  158.7762 H   0  0  0  0  0  0  0  0  0  0  0  0
  153.2593  144.7645  159.4171 H   0  0  0  0  0  0  0  0  0  0  0  0
  151.6564  145.3073  161.2056 H   0  0  0  0  0  0  0  0  0  0  0  0
  150.8013  143.8094  160.9414 H   0  0  0  0  0  0  0  0  0  0  0  0
  153.6891  144.1064  161.8967 H   0  0  0  0  0  0  0  0  0  0  0  0
  152.3344  143.5632  162.8569 H   0  0  0  0  0  0  0  0  0  0  0  0
  153.7400  141.6473  162.0694 H   0  0  0  0  0  0  0  0  0  0  0  0
  152.1016  141.5276  161.4785 H   0  0  0  0  0  0  0  0  0  0  0  0
  154.5176  142.5577  159.9164 H   0  0  0  0  0  0  0  0  0  0  0  0
  153.7115  141.0391  159.6503 H   0  0  0  0  0  0  0  0  0  0  0  0
  153.0751  142.8315  157.9950 H   0  0  0  0  0  0  0  0  0  0  0  0
  150.7750  141.9134  159.6356 H   0  0  0  0  0  0  0  0  0  0  0  0
  149.0546  141.0200  158.6744 H   0  0  0  0  0  0  0  0  0  0  0  0
  148.9156  141.0738  156.9527 H   0  0  0  0  0  0  0  0  0  0  0  0
  148.7382  139.1871  159.5721 H   0  0  0  0  0  0  0  0  0  0  0  0
  150.0145  135.4270  157.9443 H   0  0  0  0  0  0  0  0  0  0  0  0
  151.3802  136.6033  153.6598 H   0  0  0  0  0  0  0  0  0  0  0  0
  150.3715  137.8290  154.3978 H   0  0  0  0  0  0  0  0  0  0  0  0
  1  2  1  0  0  0  0
  1 25  1  0  0  0  0
  1 26  1  0  0  0  0
  1 27  1  0  0  0  0
  2  7  1  0  0  0  0
  2  3  1  0  0  0  0
  2 28  1  0  0  0  0
  3  4  1  0  0  0  0
  3 29  1  0  0  0  0
  3 30  1  0  0  0  0
  4  5  1  0  0  0  0
  4 31  1  0  0  0  0
  4 32  1  0  0  0  0
  5  6  1  0  0  0  0
  5 33  1  0  0  0  0
  5 34  1  0  0  0  0
  6  7  1  0  0  0  0
  6 35  1  0  0  0  0
  6 36  1  0  0  0  0
  7  8  1  0  0  0  0
  7 37  1  0  0  0  0
  8  9  1  0  0  0  0
  8 38  1  0  0  0  0
  9 10  2  0  0  0  0
  9 11  1  0  0  0  0
 11 12  1  0  0  0  0
 11 39  1  0  0  0  0
 11 40  1  0  0  0  0
 12 23  1  0  0  0  0
 12 13  1  0  0  0  0
 13 14  2  0  0  0  0
 13 41  1  0  0  0  0
 14 15  1  0  0  0  0
 14 18  1  0  0  0  0
 15 16  2  0  0  0  0
 15 17  1  0  0  0  0
 18 19  2  0  0  0  0
 18 42  1  0  0  0  0
 19 20  1  0  0  0  0
 19 23  1  0  0  0  0
 20 21  1  0  0  0  0
 20 22  2  0  0  0  0
 21 43  1  0  0  0  0
 21 44  1  0  0  0  0
 23 24  2  0  0  0  0
M  CHG  1  15   1
M  CHG  1  17  -1
M  END
> <s_m_source_file>
AV-unprocessed.smi

> <i_m_source_file_index>
445

> <i_lp_mmshare_version>
43012

> <i_f3d_flags>
0

> <s_epik_input>
W0NIM11bQ0BASF0xW0NIMl1bQ0gyXVtDSDJdW0NIMl1bQ0BIXTFbTkhdQyg9TylbQ0gyXW4yW2NIXWMoW04rXSg9TylbTy1dKVtjSF1jKGMyPU8pQyg9TylbTkgyXQ==

> <s_epik_cmdline>
J2VwaWtfcHl0aG9uJywgJy1waCcsICc3LjAnLCAnLXRuJywgJzgnLCAnLW1hJywgJzIwMCcsICctbWV0YWxfYmluZGluZycsICctaW1hZScsICc8aW5maWxlLm1hZT4nLCAnLW9tYWUnLCAnPG91dGZpbGUubWFlPic=

> <r_lp_tautomer_probability>
1

> <r_epik_Ionization_Penalty>
2.81321e-06

> <r_epik_Ionization_Penalty_Charging>
2.43777e-12

> <r_epik_Ionization_Penalty_Neutral>
2.81321e-06

> <r_epik_State_Penalty>
-0

> <r_epik_Charging_Adjusted_Penalty>
2.43777e-12

> <i_epik_Tot_Q>
0

> <i_epik_Tot_abs_Q>
2

> <r_epik_Metal_State_Penalty>
-0

> <b_epik_Metal_Only>
0

> <s_lp_Force_Field>
OPLS_2005

> <r_lp_Energy>
28.4442

> <b_lp_Chiralities_Consistent>
1

> <s_lp_Variant>
AV-unprocessed.smi:445-2

> <Gold.Version>
5.8.1

> <Gold.Id.Protein>
6NUR|6NUR_protein|mol2

> <Gold.PLP.Fitness>
52.1518

> <Gold.PLP.PLP>
-40.0164

> <Gold.PLP.part.hbond>
-5.7978

> <Gold.PLP.part.metal>
0.0000

> <Gold.PLP.part.buried>
-3.4624

> <Gold.PLP.part.nonpolar>
-31.4220

> <Gold.PLP.part.repulsive>
0.3489

> <Gold.PLP.ligand.clash>
0.0000

> <Gold.PLP.ligand.torsion>
0.7321

> <Gold.PLP.Chemscore.Hbond>
4.4798

> <Gold.PLP.Chemscore.CHOScore>
0.0000

> <Gold.PLP.Chemscore.Metal>
0.0000

> <Gold.Chemscore.Hbonds>
donor molecule, donor type, donor heavy atom, donor atom, acceptor molecule, acceptor atom, score
      L1  H    21    43       P1  7949  0.41
      P1  H  6896  6907       L1    16  0.70
      P1  H  6931  6943       L1    17  0.93
      P1  H  6934  6947       L1    17  0.66
      P1  H 10752 10765       L1    22  0.80

> <Gold.PLP.Chemscore.Internal.Correction>
0.1602

> <Gold.Rescore>
     Score         DG    S(hbond)    S(metal)    S(lipo)     H(rot)  DE(clash)    DE(int)     intcor
     16.81     -22.51       3.11        0.00      94.36       1.71       0.43       5.27       ----

> <Gold.Chemscore.Fitness>
16.8084

> <Gold.Chemscore.DG>
-22.5122

> <Gold.Chemscore.ZeroCoef>
-5.4800

> <Gold.Chemscore.Hbond>
3.1066

> <Gold.Chemscore.Metal>
0.0000

> <Gold.Chemscore.Lipo>
94.3560

> <Gold.Chemscore.Internal_Hbond>
0.0000

> <Gold.Chemscore.DEClash>
0.4306

> <Gold.Chemscore.DEInternal>
5.2732

> <Gold.Chemscore.Rot>
1.7123

> <Gold.Chemscore.Internal.Correction>
   9.000000E+99

> <Gold.Chemscore.Hbonds>
donor molecule, donor type, donor heavy atom, donor atom, acceptor molecule, acceptor atom, score
      L1  H    21    43       P1  7949  0.28
      P1  H  6896  6907       L1    16  0.68
      P1  H  6931  6943       L1    17  0.79
      P1  H  6934  6947       L1    17  0.63
      P1  H 10752 10765       L1    22  0.74

> <Gold.Chemscore.Hbond.Weighted>
-10.3760

> <Gold.Chemscore.Metal.Weighted>
-0.0000

> <Gold.Chemscore.Lipo.Weighted>
-11.0396

> <Gold.Chemscore.Internal_Hbond.Weighted>
0.0000

> <Gold.Chemscore.DEClash.Weighted>
0.4306

> <Gold.Chemscore.DEInternal.Weighted>
5.2732

> <Gold.Chemscore.Rot.Weighted>
4.3835

> <Gold.Chemscore.Internal.Correction.Weighted>
   9.000000E+99

> <Gold.Protein.RotatedTorsions>
[ 6907 6896 6895 6894 ] final  -77.18 input  -60.11 | X-H torsion
[ 7974 7965 7964 7962 ] final  -30.22 input  175.53 | X-H torsion
[ 8008 7997 7996 7995 ] final -155.79 input   59.86 | X-H torsion
[ 10167 10162 10161 10158 ] final  109.38 input  -65.29 | X-H torsion
[ 10718 10713 10712 10709 ] final -159.51 input   66.30 | X-H torsion
[ 10763 10752 10751 10750 ] final -153.03 input  -60.55 | X-H torsion
[ 11005 11000 10999 10996 ] final   77.69 input  -57.11 | X-H torsion

> <Gold.Protein.ActiveResidues>
 VAL166  LYS551  ARG553  GLY616  TRP617  ASP618  TYR619  PRO620  LYS621  CYS622 
 ASP623  PHE694  ASN695  SER759  ASP760  ASP761  ALA762  ILE779  LEU786  VAL792 
 PHE793  MET794  SER795  GLU796  ALA797  LYS798  CYS799  TRP800  GLU811  SER814 

> <Gold.Protein.RotatedAtoms>
  150.7006  134.4461  159.5314 H   0  0  0  0  0  0  0  0  0  0  0  0  # atno 6907 bound_to 6896
  152.2162  134.8453  160.0500 H   0  0  0  0  0  0  0  0  0  0  0  0  # atno 6908 bound_to 6896
  151.9320  133.3579  159.3971 H   0  0  0  0  0  0  0  0  0  0  0  0  # atno 6909 bound_to 6896
  146.1159  140.5512  142.8757 H   0  0  0  0  0  0  0  0  0  0  0  0  # atno 7974 bound_to 7965
  155.7073  140.0774  157.2385 H   0  0  0  0  0  0  0  0  0  0  0  0  # atno 8008 bound_to 7997
  154.4064  140.1636  156.2311 H   0  0  0  0  0  0  0  0  0  0  0  0  # atno 8009 bound_to 7997
  155.9314  140.3391  155.6255 H   0  0  0  0  0  0  0  0  0  0  0  0  # atno 8010 bound_to 7997
  139.6771  144.7121  151.1583 H   0  0  0  0  0  0  0  0  0  0  0  0  # atno 10167 bound_to 10162
  156.5691  130.8680  151.2832 H   0  0  0  0  0  0  0  0  0  0  0  0  # atno 10718 bound_to 10713
  154.7955  135.3222  154.7677 H   0  0  0  0  0  0  0  0  0  0  0  0  # atno 10763 bound_to 10752
  153.8356  135.6875  153.4813 H   0  0  0  0  0  0  0  0  0  0  0  0  # atno 10764 bound_to 10752
  153.1644  135.4648  154.9759 H   0  0  0  0  0  0  0  0  0  0  0  0  # atno 10765 bound_to 10752
  139.9244  134.7703  156.1554 H   0  0  0  0  0  0  0  0  0  0  0  0  # atno 11005 bound_to 11000
  144.7552  140.5291  143.6773 LP  0  0  0  0  0  0  0  0  0  0  0  0  # atno 17320 bound_to 7965
  145.5568  139.1478  143.3364 LP  0  0  0  0  0  0  0  0  0  0  0  0  # atno 17321 bound_to 7965
  140.7639  143.5755  150.8950 LP  0  0  0  0  0  0  0  0  0  0  0  0  # atno 17342 bound_to 10162
  139.9425  143.6365  152.3050 LP  0  0  0  0  0  0  0  0  0  0  0  0  # atno 17343 bound_to 10162
  157.7352  130.9758  150.2069 LP  0  0  0  0  0  0  0  0  0  0  0  0  # atno 17370 bound_to 10713
  156.2730  130.3724  149.8012 LP  0  0  0  0  0  0  0  0  0  0  0  0  # atno 17371 bound_to 10713
  141.0790  133.6762  156.2296 LP  0  0  0  0  0  0  0  0  0  0  0  0  # atno 17394 bound_to 11000
  140.6380  134.5196  157.5566 LP  0  0  0  0  0  0  0  0  0  0  0  0  # atno 17395 bound_to 11000

$$$$
