AV-unprocessed.smi:177|AV-procd|sdf|1439|dock5
  -GOLD-   2262019223D 1   1.00000     0.00000
 Structure written by MMmdl.
 61 65  0  0  0  0  0  0  0  0  1 V2000
  151.2004  143.7906  158.0666 C   0  0  0  0  0  0  0  0  0  0  0  0
  152.4857  143.3230  158.4466 O   0  0  0  0  0  0  0  0  0  0  0  0
  152.4703  142.1217  159.2073 C   0  0  2  0  0  0  0  0  0  0  0  0
  153.9144  141.8359  159.6480 C   0  0  0  0  0  0  0  0  0  0  0  0
  154.0026  140.5319  160.4556 C   0  0  0  0  0  0  0  0  0  0  0  0
  153.4262  139.3323  159.6840 C   0  0  2  0  0  0  0  0  0  0  0  0
  154.2850  139.0124  158.5921 O   0  0  0  0  0  0  0  0  0  0  0  0
  153.8694  137.8309  157.9153 C   0  0  0  0  0  0  0  0  0  0  0  0
  152.4648  138.0344  157.3262 C   0  0  0  0  0  0  0  0  0  0  0  0
  151.5349  138.4698  158.3687 N   0  0  0  0  0  0  0  0  0  0  0  0
  150.2034  138.4216  158.0960 C   0  0  0  0  0  0  0  0  0  0  0  0
  149.6460  139.3723  157.2982 N   0  0  0  0  0  0  0  0  0  0  0  0
  148.3376  139.3521  157.0313 C   0  0  0  0  0  0  0  0  0  0  0  0
  147.4149  138.4864  157.4521 N   0  0  0  0  0  0  0  0  0  0  0  0
  147.9635  137.5269  158.2504 C   0  0  0  0  0  0  0  0  0  0  0  0
  149.3367  137.4152  158.6121 C   0  0  0  0  0  0  0  0  0  0  0  0
  149.5217  136.2902  159.4073 N   0  0  0  0  0  0  0  0  0  0  0  0
  148.3276  135.7773  159.5207 C   0  0  0  0  0  0  0  0  0  0  0  0
  147.3271  136.4677  158.8749 N   0  0  0  0  0  0  0  0  0  0  0  0
  145.9150  136.1157  158.8329 C   0  0  0  0  0  0  0  0  0  0  0  0
  145.2223  135.9196  160.2162 C   0  0  0  0  0  0  0  0  0  0  0  0
  145.5689  137.0916  161.1833 C   0  0  0  0  0  0  0  0  0  0  0  0
  145.2225  138.3670  160.6822 O   0  0  0  0  0  0  0  0  0  0  0  0
  143.6906  135.7396  160.0556 C   0  0  0  0  0  0  0  0  0  0  0  0
  143.0161  135.2265  161.3389 C   0  0  0  0  0  0  0  0  0  0  0  0
  143.5966  133.9873  161.7236 O   0  0  0  0  0  0  0  0  0  0  0  0
  144.9788  134.0988  162.0362 C   0  0  0  0  0  0  0  0  0  0  0  0
  145.7659  134.5932  160.8064 C   0  0  0  0  0  0  0  0  0  0  0  0
  151.9974  139.6138  159.1604 C   0  0  2  0  0  0  0  0  0  0  0  0
  151.9289  140.9442  158.3736 C   0  0  0  0  0  0  0  0  0  0  0  0
  151.3037  144.7322  157.5278 H   0  0  0  0  0  0  0  0  0  0  0  0
  150.5729  143.9745  158.9394 H   0  0  0  0  0  0  0  0  0  0  0  0
  150.6885  143.0884  157.4092 H   0  0  0  0  0  0  0  0  0  0  0  0
  151.8577  142.2575  160.1008 H   0  0  0  0  0  0  0  0  0  0  0  0
  154.5618  141.7692  158.7724 H   0  0  0  0  0  0  0  0  0  0  0  0
  154.2907  142.6654  160.2473 H   0  0  0  0  0  0  0  0  0  0  0  0
  155.0378  140.3330  160.7343 H   0  0  0  0  0  0  0  0  0  0  0  0
  153.4525  140.6542  161.3893 H   0  0  0  0  0  0  0  0  0  0  0  0
  153.4013  138.4775  160.3628 H   0  0  0  0  0  0  0  0  0  0  0  0
  154.5804  137.6071  157.1203 H   0  0  0  0  0  0  0  0  0  0  0  0
  153.8828  136.9825  158.6014 H   0  0  0  0  0  0  0  0  0  0  0  0
  152.4974  138.7738  156.5255 H   0  0  0  0  0  0  0  0  0  0  0  0
  152.1220  137.0979  156.8842 H   0  0  0  0  0  0  0  0  0  0  0  0
  147.9781  140.1440  156.3909 H   0  0  0  0  0  0  0  0  0  0  0  0
  148.1398  134.8802  160.0924 H   0  0  0  0  0  0  0  0  0  0  0  0
  145.4052  136.8965  158.2667 H   0  0  0  0  0  0  0  0  0  0  0  0
  145.8140  135.2083  158.2358 H   0  0  0  0  0  0  0  0  0  0  0  0
  145.0538  136.9888  162.1363 H   0  0  0  0  0  0  0  0  0  0  0  0
  146.6345  137.0877  161.4156 H   0  0  0  0  0  0  0  0  0  0  0  0
  144.2900  138.4861  160.7804 H   0  0  0  0  0  0  0  0  0  0  0  0
  143.2141  136.6668  159.7367 H   0  0  0  0  0  0  0  0  0  0  0  0
  143.4950  135.0163  159.2630 H   0  0  0  0  0  0  0  0  0  0  0  0
  143.0939  135.9516  162.1499 H   0  0  0  0  0  0  0  0  0  0  0  0
  141.9525  135.0694  161.1597 H   0  0  0  0  0  0  0  0  0  0  0  0
  145.1170  134.7516  162.8982 H   0  0  0  0  0  0  0  0  0  0  0  0
  145.3444  133.1164  162.3355 H   0  0  0  0  0  0  0  0  0  0  0  0
  145.7160  133.8101  160.0482 H   0  0  0  0  0  0  0  0  0  0  0  0
  146.8216  134.6957  161.0605 H   0  0  0  0  0  0  0  0  0  0  0  0
  151.3633  139.7243  160.0380 H   0  0  0  0  0  0  0  0  0  0  0  0
  150.8977  141.1360  158.0784 H   0  0  0  0  0  0  0  0  0  0  0  0
  152.5042  140.8705  157.4504 H   0  0  0  0  0  0  0  0  0  0  0  0
  1  2  1  0  0  0  0
  1 31  1  0  0  0  0
  1 32  1  0  0  0  0
  1 33  1  0  0  0  0
  2  3  1  0  0  0  0
  3 30  1  0  0  0  0
  3  4  1  0  0  0  0
  3 34  1  0  0  0  0
  4  5  1  0  0  0  0
  4 35  1  0  0  0  0
  4 36  1  0  0  0  0
  5  6  1  0  0  0  0
  5 37  1  0  0  0  0
  5 38  1  0  0  0  0
  6 29  1  0  0  0  0
  6  7  1  0  0  0  0
  6 39  1  0  0  0  0
  7  8  1  0  0  0  0
  8  9  1  0  0  0  0
  8 40  1  0  0  0  0
  8 41  1  0  0  0  0
  9 10  1  0  0  0  0
  9 42  1  0  0  0  0
  9 43  1  0  0  0  0
 10 11  1  0  0  0  0
 10 29  1  0  0  0  0
 11 16  1  0  0  0  0
 11 12  2  0  0  0  0
 12 13  1  0  0  0  0
 13 14  2  0  0  0  0
 13 44  1  0  0  0  0
 14 15  1  0  0  0  0
 15 19  1  0  0  0  0
 15 16  2  0  0  0  0
 16 17  1  0  0  0  0
 17 18  2  0  0  0  0
 18 19  1  0  0  0  0
 18 45  1  0  0  0  0
 19 20  1  0  0  0  0
 20 21  1  0  0  0  0
 20 46  1  0  0  0  0
 20 47  1  0  0  0  0
 21 28  1  0  0  0  0
 21 22  1  0  0  0  0
 21 24  1  0  0  0  0
 22 23  1  0  0  0  0
 22 48  1  0  0  0  0
 22 49  1  0  0  0  0
 23 50  1  0  0  0  0
 24 25  1  0  0  0  0
 24 51  1  0  0  0  0
 24 52  1  0  0  0  0
 25 26  1  0  0  0  0
 25 53  1  0  0  0  0
 25 54  1  0  0  0  0
 26 27  1  0  0  0  0
 27 28  1  0  0  0  0
 27 55  1  0  0  0  0
 27 56  1  0  0  0  0
 28 57  1  0  0  0  0
 28 58  1  0  0  0  0
 29 30  1  0  0  0  0
 29 59  1  0  0  0  0
 30 60  1  0  0  0  0
 30 61  1  0  0  0  0
M  END
> <s_m_source_file>
AV-unprocessed.smi

> <i_m_source_file_index>
177

> <i_lp_mmshare_version>
43012

> <i_f3d_flags>
0

> <s_epik_input>
W0NIM11PW0NASF0oW0NIMl1bQ0gyXTEpW0NIMl1bQ0BIXShbQ0BASF0xMilOKFtDSDJdW0NIMl1PMiljKG5bY0hdbjMpYyhjMzQpbltjSF1uNFtDSDJdQzUoW0NIMl1bT0hdKVtDSDJdW0NIMl1PW0NIMl1bQ0gyXTU=

> <s_epik_cmdline>
J2VwaWtfcHl0aG9uJywgJy1waCcsICc3LjAnLCAnLXRuJywgJzgnLCAnLW1hJywgJzIwMCcsICctbWV0YWxfYmluZGluZycsICctaW1hZScsICc8aW5maWxlLm1hZT4nLCAnLW9tYWUnLCAnPG91dGZpbGUubWFlPic=

> <r_lp_tautomer_probability>
1

> <r_epik_Ionization_Penalty>
0.0065899

> <r_epik_Ionization_Penalty_Charging>
0

> <r_epik_Ionization_Penalty_Neutral>
0.0065899

> <r_epik_State_Penalty>
0.00470042

> <r_epik_Charging_Adjusted_Penalty>
0.00470042

> <i_epik_Tot_Q>
0

> <i_epik_Tot_abs_Q>
0

> <r_epik_Metal_State_Penalty>
-0

> <b_epik_Metal_Only>
0

> <s_lp_Force_Field>
OPLS_2005

> <r_lp_Energy>
44.7828

> <b_lp_Chiralities_Consistent>
1

> <s_lp_Variant>
AV-unprocessed.smi:177-3

> <Gold.Version>
5.8.1

> <Gold.Id.Protein>
6NUR|6NUR_protein|mol2

> <Gold.PLP.Fitness>
46.1658

> <Gold.PLP.PLP>
-38.5296

> <Gold.PLP.part.hbond>
-3.4329

> <Gold.PLP.part.metal>
0.0000

> <Gold.PLP.part.buried>
-6.2280

> <Gold.PLP.part.nonpolar>
-28.6578

> <Gold.PLP.part.repulsive>
0.0845

> <Gold.PLP.ligand.clash>
0.0000

> <Gold.PLP.ligand.torsion>
0.4175

> <Gold.PLP.Chemscore.Hbond>
2.6560

> <Gold.PLP.Chemscore.CHOScore>
0.0000

> <Gold.PLP.Chemscore.Metal>
0.0000

> <Gold.Chemscore.Hbonds>
donor molecule, donor type, donor heavy atom, donor atom, acceptor molecule, acceptor atom, score
      P1  H  6896  6908       L1    17  1.00
      P1  H  6934  6947       L1    23  0.35
      P1  H  7997  8008       L1     7  1.00

> <Gold.PLP.Chemscore.Internal.Correction>
0.5033

> <Gold.Rescore>
     Score         DG    S(hbond)    S(metal)    S(lipo)     H(rot)  DE(clash)    DE(int)     intcor
     17.43     -19.43       2.48        0.00     105.03       2.58       0.07       1.93       ----

> <Gold.Chemscore.Fitness>
17.4262

> <Gold.Chemscore.DG>
-19.4346

> <Gold.Chemscore.ZeroCoef>
-5.4800

> <Gold.Chemscore.Hbond>
2.4768

> <Gold.Chemscore.Metal>
0.0000

> <Gold.Chemscore.Lipo>
105.0283

> <Gold.Chemscore.Internal_Hbond>
0.0000

> <Gold.Chemscore.DEClash>
0.0746

> <Gold.Chemscore.DEInternal>
1.9338

> <Gold.Chemscore.Rot>
2.5806

> <Gold.Chemscore.Internal.Correction>
   9.000000E+99

> <Gold.Chemscore.Hbonds>
donor molecule, donor type, donor heavy atom, donor atom, acceptor molecule, acceptor atom, score
      P1  H  6896  6908       L1    17  0.86
      P1  H  6934  6947       L1    23  0.02
      P1  H  7997  8008       L1     7  0.54

> <Gold.Chemscore.Hbond.Weighted>
-8.2725

> <Gold.Chemscore.Metal.Weighted>
-0.0000

> <Gold.Chemscore.Lipo.Weighted>
-12.2883

> <Gold.Chemscore.Internal_Hbond.Weighted>
0.0000

> <Gold.Chemscore.DEClash.Weighted>
0.0746

> <Gold.Chemscore.DEInternal.Weighted>
1.9338

> <Gold.Chemscore.Rot.Weighted>
6.6062

> <Gold.Chemscore.Internal.Correction.Weighted>
   9.000000E+99

> <Gold.Protein.RotatedTorsions>
[ 6907 6896 6895 6894 ] final -153.35 input  -60.11 | X-H torsion
[ 7974 7965 7964 7962 ] final   27.08 input  175.53 | X-H torsion
[ 8008 7997 7996 7995 ] final -125.44 input   59.86 | X-H torsion
[ 10167 10162 10161 10158 ] final  -59.24 input  -65.29 | X-H torsion
[ 10718 10713 10712 10709 ] final  141.36 input   66.30 | X-H torsion
[ 10763 10752 10751 10750 ] final -168.16 input  -60.55 | X-H torsion
[ 11005 11000 10999 10996 ] final -164.48 input  -57.11 | X-H torsion

> <Gold.Protein.ActiveResidues>
 VAL166  LYS551  ARG553  GLY616  TRP617  ASP618  TYR619  PRO620  LYS621  CYS622 
 ASP623  PHE694  ASN695  SER759  ASP760  ASP761  ALA762  ILE779  LEU786  VAL792 
 PHE793  MET794  SER795  GLU796  ALA797  LYS798  CYS799  TRP800  GLU811  SER814 

> <Gold.Protein.RotatedAtoms>
  151.2412  133.4398  159.2607 H   0  0  0  0  0  0  0  0  0  0  0  0  # atno 6907 bound_to 6896
  151.0703  134.9794  159.8315 H   0  0  0  0  0  0  0  0  0  0  0  0  # atno 6908 bound_to 6896
  152.5411  134.2358  159.8895 H   0  0  0  0  0  0  0  0  0  0  0  0  # atno 6909 bound_to 6896
  146.1803  139.7240  142.8905 H   0  0  0  0  0  0  0  0  0  0  0  0  # atno 7974 bound_to 7965
  155.2132  140.0419  157.2937 H   0  0  0  0  0  0  0  0  0  0  0  0  # atno 8008 bound_to 7997
  154.5998  140.2449  155.7779 H   0  0  0  0  0  0  0  0  0  0  0  0  # atno 8009 bound_to 7997
  156.2313  140.2937  156.0206 H   0  0  0  0  0  0  0  0  0  0  0  0  # atno 8010 bound_to 7997
  140.6147  143.2398  151.5625 H   0  0  0  0  0  0  0  0  0  0  0  0  # atno 10167 bound_to 10162
  157.3929  131.1007  151.0628 H   0  0  0  0  0  0  0  0  0  0  0  0  # atno 10718 bound_to 10713
  154.6658  135.2931  154.9808 H   0  0  0  0  0  0  0  0  0  0  0  0  # atno 10763 bound_to 10752
  154.0852  135.6599  153.4848 H   0  0  0  0  0  0  0  0  0  0  0  0  # atno 10764 bound_to 10752
  153.0456  135.5207  154.7630 H   0  0  0  0  0  0  0  0  0  0  0  0  # atno 10765 bound_to 10752
  140.5864  134.5089  157.5186 H   0  0  0  0  0  0  0  0  0  0  0  0  # atno 11005 bound_to 11000
  145.4094  141.0395  143.3026 LP  0  0  0  0  0  0  0  0  0  0  0  0  # atno 17320 bound_to 7965
  144.8305  139.5637  143.6946 LP  0  0  0  0  0  0  0  0  0  0  0  0  # atno 17321 bound_to 7965
  139.5389  144.2702  152.1310 LP  0  0  0  0  0  0  0  0  0  0  0  0  # atno 17342 bound_to 10162
  140.1909  144.4753  150.6479 LP  0  0  0  0  0  0  0  0  0  0  0  0  # atno 17343 bound_to 10162
  157.1655  130.6244  149.5624 LP  0  0  0  0  0  0  0  0  0  0  0  0  # atno 17370 bound_to 10713
  155.9803  130.4802  150.6764 LP  0  0  0  0  0  0  0  0  0  0  0  0  # atno 17371 bound_to 10713
  139.9293  134.7994  156.0975 LP  0  0  0  0  0  0  0  0  0  0  0  0  # atno 17394 bound_to 11000
  141.0963  133.6694  156.2652 LP  0  0  0  0  0  0  0  0  0  0  0  0  # atno 17395 bound_to 11000

$$$$
