AV-unprocessed.smi:327|AV-procd|sdf|2346|dock1
  -GOLD-   2262022253D 1   1.00000     0.00000
 Structure written by MMmdl.
 47 48  0  0  0  0  0  0  0  0  1 V2000
  150.6754  141.1367  156.0238 C   0  0  0  0  0  0  0  0  0  0  0  0
  151.3354  140.2111  155.1788 O   0  0  0  0  0  0  0  0  0  0  0  0
  151.1691  138.8692  155.6063 C   0  0  0  0  0  0  0  0  0  0  0  0
  152.5291  138.1527  155.6242 C   0  0  0  0  0  0  0  0  0  0  0  0
  153.0302  137.9662  156.9908 N   0  0  0  0  0  0  0  0  0  0  0  0
  153.1221  139.1410  157.7189 N   0  0  0  0  0  0  0  0  0  0  0  0
  153.5611  139.1200  158.9362 C   0  0  0  0  0  0  0  0  0  0  0  0
  153.6875  140.3629  159.7466 C   0  0  0  0  0  0  0  0  0  0  0  0
  154.1228  140.3469  160.8993 O   0  0  0  0  0  0  0  0  0  0  0  0
  153.3032  141.4934  159.1262 N   0  0  0  0  0  0  0  0  0  0  0  0
  153.3633  142.8418  159.6851 C   0  0  0  0  0  0  0  0  0  0  0  0
  152.5217  142.8877  160.9792 C   0  0  0  0  0  0  0  0  0  0  0  0
  152.2671  144.2925  161.5615 C   0  0  0  0  0  0  0  0  0  0  0  0
  150.8566  144.8535  161.2865 C   0  0  0  0  0  0  0  0  0  0  0  0
  150.5302  145.2396  159.8293 C   0  0  0  0  0  0  0  0  0  0  0  0
  150.4107  144.0492  158.8560 C   0  0  0  0  0  0  0  0  0  0  0  0
  151.6323  143.8141  157.9467 C   0  0  0  0  0  0  0  0  0  0  0  0
  153.0213  143.9003  158.6103 C   0  0  0  0  0  0  0  0  0  0  0  0
  153.9577  137.8702  159.5625 C   0  0  0  0  0  0  0  0  0  0  0  0
  153.8673  136.7332  158.8384 C   0  0  0  0  0  0  0  0  0  0  0  0
  153.3829  136.7301  157.4571 C   0  0  0  0  0  0  0  0  0  0  0  0
  153.3024  135.7076  156.7771 O   0  0  0  0  0  0  0  0  0  0  0  0
  150.8403  142.1495  155.6567 H   0  0  0  0  0  0  0  0  0  0  0  0
  151.0578  141.0821  157.0440 H   0  0  0  0  0  0  0  0  0  0  0  0
  149.5998  140.9564  156.0425 H   0  0  0  0  0  0  0  0  0  0  0  0
  150.7084  138.8370  156.5951 H   0  0  0  0  0  0  0  0  0  0  0  0
  150.4970  138.3525  154.9197 H   0  0  0  0  0  0  0  0  0  0  0  0
  152.4203  137.1743  155.1529 H   0  0  0  0  0  0  0  0  0  0  0  0
  153.2458  138.6905  155.0014 H   0  0  0  0  0  0  0  0  0  0  0  0
  152.9576  141.4120  158.1808 H   0  0  0  0  0  0  0  0  0  0  0  0
  154.3933  143.0360  159.9901 H   0  0  0  0  0  0  0  0  0  0  0  0
  151.5795  142.3554  160.8566 H   0  0  0  0  0  0  0  0  0  0  0  0
  153.0594  142.3064  161.7297 H   0  0  0  0  0  0  0  0  0  0  0  0
  152.3699  144.2195  162.6449 H   0  0  0  0  0  0  0  0  0  0  0  0
  153.0387  144.9989  161.2561 H   0  0  0  0  0  0  0  0  0  0  0  0
  150.1081  144.1492  161.6513 H   0  0  0  0  0  0  0  0  0  0  0  0
  150.7325  145.7473  161.8989 H   0  0  0  0  0  0  0  0  0  0  0  0
  149.5636  145.7442  159.8470 H   0  0  0  0  0  0  0  0  0  0  0  0
  151.2287  145.9887  159.4565 H   0  0  0  0  0  0  0  0  0  0  0  0
  150.1488  143.1393  159.3936 H   0  0  0  0  0  0  0  0  0  0  0  0
  149.5566  144.2286  158.2018 H   0  0  0  0  0  0  0  0  0  0  0  0
  151.5220  142.8546  157.4404 H   0  0  0  0  0  0  0  0  0  0  0  0
  151.6056  144.5628  157.1542 H   0  0  0  0  0  0  0  0  0  0  0  0
  153.1830  144.9015  159.0059 H   0  0  0  0  0  0  0  0  0  0  0  0
  153.7623  143.8147  157.8144 H   0  0  0  0  0  0  0  0  0  0  0  0
  154.3182  137.8424  160.5806 H   0  0  0  0  0  0  0  0  0  0  0  0
  154.1606  135.7974  159.2909 H   0  0  0  0  0  0  0  0  0  0  0  0
  1  2  1  0  0  0  0
  1 23  1  0  0  0  0
  1 24  1  0  0  0  0
  1 25  1  0  0  0  0
  2  3  1  0  0  0  0
  3  4  1  0  0  0  0
  3 26  1  0  0  0  0
  3 27  1  0  0  0  0
  4  5  1  0  0  0  0
  4 28  1  0  0  0  0
  4 29  1  0  0  0  0
  5 21  1  0  0  0  0
  5  6  1  0  0  0  0
  6  7  2  0  0  0  0
  7  8  1  0  0  0  0
  7 19  1  0  0  0  0
  8  9  2  0  0  0  0
  8 10  1  0  0  0  0
 10 11  1  0  0  0  0
 10 30  1  0  0  0  0
 11 18  1  0  0  0  0
 11 12  1  0  0  0  0
 11 31  1  0  0  0  0
 12 13  1  0  0  0  0
 12 32  1  0  0  0  0
 12 33  1  0  0  0  0
 13 14  1  0  0  0  0
 13 34  1  0  0  0  0
 13 35  1  0  0  0  0
 14 15  1  0  0  0  0
 14 36  1  0  0  0  0
 14 37  1  0  0  0  0
 15 16  1  0  0  0  0
 15 38  1  0  0  0  0
 15 39  1  0  0  0  0
 16 17  1  0  0  0  0
 16 40  1  0  0  0  0
 16 41  1  0  0  0  0
 17 18  1  0  0  0  0
 17 42  1  0  0  0  0
 17 43  1  0  0  0  0
 18 44  1  0  0  0  0
 18 45  1  0  0  0  0
 19 20  2  0  0  0  0
 19 46  1  0  0  0  0
 20 21  1  0  0  0  0
 20 47  1  0  0  0  0
 21 22  2  0  0  0  0
M  END
> <s_m_source_file>
AV-unprocessed.smi

> <i_m_source_file_index>
327

> <i_lp_mmshare_version>
43012

> <i_f3d_flags>
0

> <s_epik_input>
W0NIM11PW0NIMl1bQ0gyXW4xbmMoW2NIXVtjSF1jMT1PKUMoPU8pW05IXVtDSF0yW0NIMl1bQ0gyXVtDSDJdW0NIMl1bQ0gyXVtDSDJdW0NIMl0y

> <s_epik_cmdline>
J2VwaWtfcHl0aG9uJywgJy1waCcsICc3LjAnLCAnLXRuJywgJzgnLCAnLW1hJywgJzIwMCcsICctbWV0YWxfYmluZGluZycsICctaW1hZScsICc8aW5maWxlLm1hZT4nLCAnLW9tYWUnLCAnPG91dGZpbGUubWFlPic=

> <r_lp_tautomer_probability>
1

> <r_epik_Ionization_Penalty>
5.81787e-07

> <r_epik_Ionization_Penalty_Charging>
6.75108e-09

> <r_epik_Ionization_Penalty_Neutral>
5.75036e-07

> <r_epik_State_Penalty>
-0

> <r_epik_Charging_Adjusted_Penalty>
6.75108e-09

> <i_epik_Tot_Q>
0

> <i_epik_Tot_abs_Q>
0

> <r_epik_Metal_State_Penalty>
-0

> <b_epik_Metal_Only>
0

> <s_lp_Force_Field>
OPLS_2005

> <r_lp_Energy>
41.0284

> <b_lp_Chiralities_Consistent>
1

> <s_lp_Variant>
AV-unprocessed.smi:327-1

> <Gold.Version>
5.8.1

> <Gold.Id.Protein>
6NUR|6NUR_protein|mol2

> <Gold.PLP.Fitness>
49.0924

> <Gold.PLP.PLP>
-41.5105

> <Gold.PLP.part.hbond>
-3.0000

> <Gold.PLP.part.metal>
0.0000

> <Gold.PLP.part.buried>
-2.0388

> <Gold.PLP.part.nonpolar>
-36.1128

> <Gold.PLP.part.repulsive>
0.1215

> <Gold.PLP.ligand.clash>
0.0000

> <Gold.PLP.ligand.torsion>
0.7219

> <Gold.PLP.Chemscore.Hbond>
2.9920

> <Gold.PLP.Chemscore.CHOScore>
0.0000

> <Gold.PLP.Chemscore.Metal>
0.0000

> <Gold.Chemscore.Hbonds>
donor molecule, donor type, donor heavy atom, donor atom, acceptor molecule, acceptor atom, score
      P1  H  7989  7998       L1     2  1.00
      P1  H  7997  8009       L1     6  0.95
      P1  H 10752 10764       L1    22  0.88

> <Gold.PLP.Chemscore.Internal.Correction>
0.0498

> <Gold.Rescore>
     Score         DG    S(hbond)    S(metal)    S(lipo)     H(rot)  DE(clash)    DE(int)     intcor
     21.19     -24.06       2.24        0.00     128.23       1.53       1.22       1.64       ----

> <Gold.Chemscore.Fitness>
21.1940

> <Gold.Chemscore.DG>
-24.0586

> <Gold.Chemscore.ZeroCoef>
-5.4800

> <Gold.Chemscore.Hbond>
2.2421

> <Gold.Chemscore.Metal>
0.0000

> <Gold.Chemscore.Lipo>
128.2258

> <Gold.Chemscore.Internal_Hbond>
0.0000

> <Gold.Chemscore.DEClash>
1.2223

> <Gold.Chemscore.DEInternal>
1.6424

> <Gold.Chemscore.Rot>
1.5283

> <Gold.Chemscore.Internal.Correction>
   9.000000E+99

> <Gold.Chemscore.Hbonds>
donor molecule, donor type, donor heavy atom, donor atom, acceptor molecule, acceptor atom, score
      P1  H  7989  7998       L1     2  0.83
      P1  H  7997  8009       L1     6  0.10
      P1  H 10752 10764       L1    22  0.86

> <Gold.Chemscore.Hbond.Weighted>
-7.4886

> <Gold.Chemscore.Metal.Weighted>
-0.0000

> <Gold.Chemscore.Lipo.Weighted>
-15.0024

> <Gold.Chemscore.Internal_Hbond.Weighted>
0.0000

> <Gold.Chemscore.DEClash.Weighted>
1.2223

> <Gold.Chemscore.DEInternal.Weighted>
1.6424

> <Gold.Chemscore.Rot.Weighted>
3.9124

> <Gold.Chemscore.Internal.Correction.Weighted>
   9.000000E+99

> <Gold.Protein.RotatedTorsions>
[ 6907 6896 6895 6894 ] final  -93.67 input  -60.11 | X-H torsion
[ 7974 7965 7964 7962 ] final -132.69 input  175.53 | X-H torsion
[ 8008 7997 7996 7995 ] final  161.00 input   59.86 | X-H torsion
[ 10167 10162 10161 10158 ] final  -22.80 input  -65.29 | X-H torsion
[ 10718 10713 10712 10709 ] final -129.13 input   66.30 | X-H torsion
[ 10763 10752 10751 10750 ] final    5.33 input  -60.55 | X-H torsion
[ 11005 11000 10999 10996 ] final  -20.44 input  -57.11 | X-H torsion

> <Gold.Protein.ActiveResidues>
 VAL166  LYS551  ARG553  GLY616  TRP617  ASP618  TYR619  PRO620  LYS621  CYS622 
 ASP623  PHE694  ASN695  SER759  ASP760  ASP761  ALA762  ILE779  LEU786  VAL792 
 PHE793  MET794  SER795  GLU796  ALA797  LYS798  CYS799  TRP800  GLU811  SER814 

> <Gold.Protein.RotatedAtoms>
  150.6927  134.1931  159.4292 H   0  0  0  0  0  0  0  0  0  0  0  0  # atno 6907 bound_to 6896
  151.9900  134.9981  160.0570 H   0  0  0  0  0  0  0  0  0  0  0  0  # atno 6908 bound_to 6896
  152.1676  133.4587  159.4929 H   0  0  0  0  0  0  0  0  0  0  0  0  # atno 6909 bound_to 6896
  144.9262  140.7074  143.4934 H   0  0  0  0  0  0  0  0  0  0  0  0  # atno 7974 bound_to 7965
  156.2133  140.1789  156.7645 H   0  0  0  0  0  0  0  0  0  0  0  0  # atno 8008 bound_to 7997
  154.5755  140.0675  156.9057 H   0  0  0  0  0  0  0  0  0  0  0  0  # atno 8009 bound_to 7997
  155.2596  140.3335  155.4277 H   0  0  0  0  0  0  0  0  0  0  0  0  # atno 8010 bound_to 7997
  140.7287  143.4501  151.0529 H   0  0  0  0  0  0  0  0  0  0  0  0  # atno 10167 bound_to 10162
  156.2017  130.6862  151.0547 H   0  0  0  0  0  0  0  0  0  0  0  0  # atno 10718 bound_to 10713
  153.2607  135.6923  153.7582 H   0  0  0  0  0  0  0  0  0  0  0  0  # atno 10763 bound_to 10752
  153.6642  135.3355  155.3136 H   0  0  0  0  0  0  0  0  0  0  0  0  # atno 10764 bound_to 10752
  154.8429  135.4484  154.1596 H   0  0  0  0  0  0  0  0  0  0  0  0  # atno 10765 bound_to 10752
  140.8465  133.7888  155.9918 H   0  0  0  0  0  0  0  0  0  0  0  0  # atno 11005 bound_to 11000
  145.3215  139.1787  143.4585 LP  0  0  0  0  0  0  0  0  0  0  0  0  # atno 17320 bound_to 7965
  146.3227  140.3233  142.8635 LP  0  0  0  0  0  0  0  0  0  0  0  0  # atno 17321 bound_to 7965
  139.8176  143.7864  152.3175 LP  0  0  0  0  0  0  0  0  0  0  0  0  # atno 17342 bound_to 10162
  139.7935  144.7401  150.9922 LP  0  0  0  0  0  0  0  0  0  0  0  0  # atno 17343 bound_to 10162
  157.6989  131.0783  150.6881 LP  0  0  0  0  0  0  0  0  0  0  0  0  # atno 17370 bound_to 10713
  156.6939  130.4603  149.5592 LP  0  0  0  0  0  0  0  0  0  0  0  0  # atno 17371 bound_to 10713
  140.8838  134.2579  157.5130 LP  0  0  0  0  0  0  0  0  0  0  0  0  # atno 17394 bound_to 11000
  139.8703  134.9628  156.4440 LP  0  0  0  0  0  0  0  0  0  0  0  0  # atno 17395 bound_to 11000

$$$$
