AV-unprocessed.smi:102|AV-procd|sdf|964|dock9
  -GOLD-   2262017503D 1   1.00000     0.00000
 Structure written by MMmdl.
 43 44  0  0  0  0  0  0  0  0  2 V2000
  146.0615  133.7885  162.7972 C   0  0  0  0  0  0  0  0  0  0  0  0
  147.3342  133.8027  161.9599 C   0  0  0  0  0  0  0  0  0  0  0  0
  148.1171  132.8526  161.9686 O   0  0  0  0  0  0  0  0  0  0  0  0
  147.4733  134.9322  161.2499 O   0  0  0  0  0  0  0  0  0  0  0  0
  148.5439  135.0508  160.3283 C   0  0  0  0  0  0  0  0  0  0  0  0
  148.7767  136.5387  160.0033 C   0  0  1  0  0  0  0  0  0  0  0  0
  149.9638  136.6664  159.2284 O   0  0  0  0  0  0  0  0  0  0  0  0
  149.6591  136.4778  157.8791 C   0  0  2  0  0  0  0  0  0  0  0  0
  150.5558  137.3606  157.0406 N   0  0  0  0  0  0  0  0  0  0  0  0
  150.2743  138.7127  156.9557 C   0  0  0  0  0  0  0  0  0  0  0  0
  151.0214  139.5392  156.1957 C   0  0  0  0  0  0  0  0  0  0  0  0
  150.7242  140.8489  156.1396 F   0  0  0  0  0  0  0  0  0  0  0  0
  152.1482  139.0010  155.4366 C   0  0  0  0  0  0  0  0  0  0  0  0
  152.8355  139.7612  154.7562 O   0  0  0  0  0  0  0  0  0  0  0  0
  152.3879  137.6603  155.5173 N   0  5  0  0  0  0  0  0  0  0  0  0
  151.6283  136.8181  156.2776 C   0  0  0  0  0  0  0  0  0  0  0  0
  151.8276  135.6058  156.3305 O   0  0  0  0  0  0  0  0  0  0  0  0
  148.1592  136.7650  157.6791 C   0  0  1  0  0  0  0  0  0  0  0  0
  147.5291  135.5712  157.2221 O   0  0  0  0  0  0  0  0  0  0  0  0
  147.9913  134.9248  156.1375 C   0  0  0  0  0  0  0  0  0  0  0  0
  147.1169  133.7382  155.7552 C   0  0  0  0  0  0  0  0  0  0  0  0
  148.9920  135.2213  155.4851 O   0  0  0  0  0  0  0  0  0  0  0  0
  147.7139  137.1620  159.0872 C   0  0  1  0  0  0  0  0  0  0  0  0
  146.3779  136.7648  159.3815 O   0  0  0  0  0  0  0  0  0  0  0  0
  145.8266  137.0584  160.5711 C   0  0  0  0  0  0  0  0  0  0  0  0
  144.4140  136.5061  160.7072 C   0  0  0  0  0  0  0  0  0  0  0  0
  146.3618  137.6870  161.4841 O   0  0  0  0  0  0  0  0  0  0  0  0
  145.5366  134.7414  162.7261 H   0  0  0  0  0  0  0  0  0  0  0  0
  146.3011  133.6047  163.8446 H   0  0  0  0  0  0  0  0  0  0  0  0
  145.3930  132.9997  162.4520 H   0  0  0  0  0  0  0  0  0  0  0  0
  149.4470  134.5882  160.7277 H   0  0  0  0  0  0  0  0  0  0  0  0
  148.2741  134.5068  159.4223 H   0  0  0  0  0  0  0  0  0  0  0  0
  148.8613  137.1096  160.9286 H   0  0  0  0  0  0  0  0  0  0  0  0
  149.9202  135.4540  157.6066 H   0  0  0  0  0  0  0  0  0  0  0  0
  149.4431  139.1242  157.5094 H   0  0  0  0  0  0  0  0  0  0  0  0
  148.0226  137.5828  156.9703 H   0  0  0  0  0  0  0  0  0  0  0  0
  146.8486  133.1616  156.6408 H   0  0  0  0  0  0  0  0  0  0  0  0
  147.6443  133.0813  155.0633 H   0  0  0  0  0  0  0  0  0  0  0  0
  146.2015  134.0840  155.2748 H   0  0  0  0  0  0  0  0  0  0  0  0
  147.7908  138.2474  159.1610 H   0  0  0  0  0  0  0  0  0  0  0  0
  143.8780  136.5878  159.7614 H   0  0  0  0  0  0  0  0  0  0  0  0
  143.8601  137.0578  161.4669 H   0  0  0  0  0  0  0  0  0  0  0  0
  144.4476  135.4560  160.9975 H   0  0  0  0  0  0  0  0  0  0  0  0
  1  2  1  0  0  0  0
  1 28  1  0  0  0  0
  1 29  1  0  0  0  0
  1 30  1  0  0  0  0
  2  3  2  0  0  0  0
  2  4  1  0  0  0  0
  4  5  1  0  0  0  0
  5  6  1  0  0  0  0
  5 31  1  0  0  0  0
  5 32  1  0  0  0  0
  6 23  1  0  0  0  0
  6  7  1  0  0  0  0
  6 33  1  0  0  0  0
  7  8  1  0  0  0  0
  8  9  1  0  0  0  0
  8 18  1  0  0  0  0
  8 34  1  0  0  0  0
  9 16  1  0  0  0  0
  9 10  1  0  0  0  0
 10 11  2  0  0  0  0
 10 35  1  0  0  0  0
 11 12  1  0  0  0  0
 11 13  1  0  0  0  0
 13 14  2  0  0  0  0
 13 15  1  0  0  0  0
 15 16  1  0  0  0  0
 16 17  2  0  0  0  0
 18 19  1  0  0  0  0
 18 23  1  0  0  0  0
 18 36  1  0  0  0  0
 19 20  1  0  0  0  0
 20 21  1  0  0  0  0
 20 22  2  0  0  0  0
 21 37  1  0  0  0  0
 21 38  1  0  0  0  0
 21 39  1  0  0  0  0
 23 24  1  0  0  0  0
 23 40  1  0  0  0  0
 24 25  1  0  0  0  0
 25 26  1  0  0  0  0
 25 27  2  0  0  0  0
 26 41  1  0  0  0  0
 26 42  1  0  0  0  0
 26 43  1  0  0  0  0
M  CHG  1  15  -1
M  END
> <s_m_source_file>
AV-unprocessed.smi

> <i_m_source_file_index>
102

> <i_lp_mmshare_version>
43012

> <i_f3d_flags>
0

> <s_epik_input>
W0NIM11DKD1PKU9bQ0gyXVtDQEBIXTFPW0NASF0oW0NAQEhdKE9DKD1PKVtDSDNdKVtDQEhdMU9DKD1PKVtDSDNdKW4yW2NIXWMoRiljKD1PKVtuSF1jMj1P

> <s_epik_cmdline>
J2VwaWtfcHl0aG9uJywgJy1waCcsICc3LjAnLCAnLXRuJywgJzgnLCAnLW1hJywgJzIwMCcsICctbWV0YWxfYmluZGluZycsICctaW1hZScsICc8aW5maWxlLm1hZT4nLCAnLW9tYWUnLCAnPG91dGZpbGUubWFlPic=

> <r_epik_Ionization_Penalty>
1.40304

> <r_epik_Ionization_Penalty_Charging>
1.43915e-08

> <r_epik_Ionization_Penalty_Neutral>
1.40304

> <r_epik_State_Penalty>
1.48536

> <r_epik_Charging_Adjusted_Penalty>
1.48536

> <i_epik_Tot_Q>
-1

> <i_epik_Tot_abs_Q>
1

> <r_epik_Metal_State_Penalty>
0.00663881

> <b_epik_Metal_Only>
0

> <s_epik_Chemistry_Notes>
This compound has an ester and may undergo hydrolysis at high or low pH. This compound contains an acetal/aminal-like group ( X-CH(R)-Y where X, Y are N, S, or O) that may be acid/base labile, releasing an aldehyde.

> <s_lp_Force_Field>
OPLS_2005

> <r_lp_Energy>
22.8402

> <b_lp_Chiralities_Consistent>
1

> <s_lp_Variant>
AV-unprocessed.smi:102-20

> <Gold.Version>
5.8.1

> <Gold.Id.Protein>
6NUR|6NUR_protein|mol2

> <Gold.PLP.Fitness>
40.3681

> <Gold.PLP.PLP>
-28.3521

> <Gold.PLP.part.hbond>
-5.8558

> <Gold.PLP.part.metal>
0.0000

> <Gold.PLP.part.buried>
-5.1382

> <Gold.PLP.part.nonpolar>
-18.1216

> <Gold.PLP.part.repulsive>
0.2211

> <Gold.PLP.ligand.clash>
0.0000

> <Gold.PLP.ligand.torsion>
0.6192

> <Gold.PLP.Chemscore.Hbond>
4.3740

> <Gold.PLP.Chemscore.CHOScore>
0.0000

> <Gold.PLP.Chemscore.Metal>
0.0000

> <Gold.Chemscore.Hbonds>
donor molecule, donor type, donor heavy atom, donor atom, acceptor molecule, acceptor atom, score
      P1  H  6896  6909       L1     7  0.99
      P1  H  6934  6947       L1    27  1.00
      P1  H  7989  7998       L1    14  0.43
      P1  H  7997  8008       L1    14  1.00
      P1  H 10752 10764       L1    17  1.00

> <Gold.PLP.Chemscore.Internal.Correction>
0.1324

> <Gold.Rescore>
     Score         DG    S(hbond)    S(metal)    S(lipo)     H(rot)  DE(clash)    DE(int)     intcor
      7.31      -9.51       3.24        0.00      29.22       4.00       0.00       2.20       ----

> <Gold.Chemscore.Fitness>
7.3114

> <Gold.Chemscore.DG>
-9.5072

> <Gold.Chemscore.ZeroCoef>
-5.4800

> <Gold.Chemscore.Hbond>
3.2443

> <Gold.Chemscore.Metal>
0.0000

> <Gold.Chemscore.Lipo>
29.2182

> <Gold.Chemscore.Internal_Hbond>
0.0000

> <Gold.Chemscore.DEClash>
0.0000

> <Gold.Chemscore.DEInternal>
2.1958

> <Gold.Chemscore.Rot>
3.9951

> <Gold.Chemscore.Internal.Correction>
   9.000000E+99

> <Gold.Chemscore.Hbonds>
donor molecule, donor type, donor heavy atom, donor atom, acceptor molecule, acceptor atom, score
      P1  H  6896  6909       L1     7  0.11
      P1  H  6934  6947       L1    27  0.81
      P1  H  7989  7998       L1    14  0.34
      P1  H  7997  8008       L1    14  0.62
      P1  H 10752 10764       L1    17  0.26

> <Gold.Chemscore.Hbond.Weighted>
-10.8361

> <Gold.Chemscore.Metal.Weighted>
-0.0000

> <Gold.Chemscore.Lipo.Weighted>
-3.4185

> <Gold.Chemscore.Internal_Hbond.Weighted>
0.0000

> <Gold.Chemscore.DEClash.Weighted>
0.0000

> <Gold.Chemscore.DEInternal.Weighted>
2.1958

> <Gold.Chemscore.Rot.Weighted>
10.2274

> <Gold.Chemscore.Internal.Correction.Weighted>
   9.000000E+99

> <Gold.Protein.RotatedTorsions>
[ 6907 6896 6895 6894 ] final   77.39 input  -60.11 | X-H torsion
[ 7974 7965 7964 7962 ] final   -5.98 input  175.53 | X-H torsion
[ 8008 7997 7996 7995 ] final  -11.02 input   59.86 | X-H torsion
[ 10167 10162 10161 10158 ] final   19.65 input  -65.29 | X-H torsion
[ 10718 10713 10712 10709 ] final  -22.33 input   66.30 | X-H torsion
[ 10763 10752 10751 10750 ] final  -29.25 input  -60.55 | X-H torsion
[ 11005 11000 10999 10996 ] final  157.57 input  -57.11 | X-H torsion

> <Gold.Protein.ActiveResidues>
 VAL166  LYS551  ARG553  GLY616  TRP617  ASP618  TYR619  PRO620  LYS621  CYS622 
 ASP623  PHE694  ASN695  SER759  ASP760  ASP761  ALA762  ILE779  LEU786  VAL792 
 PHE793  MET794  SER795  GLU796  ALA797  LYS798  CYS799  TRP800  GLU811  SER814 

> <Gold.Protein.RotatedAtoms>
  152.5115  134.3824  159.9355 H   0  0  0  0  0  0  0  0  0  0  0  0  # atno 6907 bound_to 6896
  151.3781  133.3825  159.2715 H   0  0  0  0  0  0  0  0  0  0  0  0  # atno 6908 bound_to 6896
  150.9526  134.8944  159.7740 H   0  0  0  0  0  0  0  0  0  0  0  0  # atno 6909 bound_to 6896
  146.2341  140.2102  142.8335 H   0  0  0  0  0  0  0  0  0  0  0  0  # atno 7974 bound_to 7965
  154.5502  140.2313  155.8497 H   0  0  0  0  0  0  0  0  0  0  0  0  # atno 8008 bound_to 7997
  156.1940  140.3070  155.9350 H   0  0  0  0  0  0  0  0  0  0  0  0  # atno 8009 bound_to 7997
  155.3085  140.0434  157.3024 H   0  0  0  0  0  0  0  0  0  0  0  0  # atno 8010 bound_to 7997
  140.5563  143.9418  150.6612 H   0  0  0  0  0  0  0  0  0  0  0  0  # atno 10167 bound_to 10162
  156.5060  130.4599  149.6674 H   0  0  0  0  0  0  0  0  0  0  0  0  # atno 10718 bound_to 10713
  153.7616  135.6919  153.4924 H   0  0  0  0  0  0  0  0  0  0  0  0  # atno 10763 bound_to 10752
  153.1934  135.4462  155.0177 H   0  0  0  0  0  0  0  0  0  0  0  0  # atno 10764 bound_to 10752
  154.8151  135.3395  154.7131 H   0  0  0  0  0  0  0  0  0  0  0  0  # atno 10765 bound_to 10752
  140.1782  134.8494  157.2772 H   0  0  0  0  0  0  0  0  0  0  0  0  # atno 11005 bound_to 11000
  144.9712  140.8371  143.5454 LP  0  0  0  0  0  0  0  0  0  0  0  0  # atno 17320 bound_to 7965
  145.2084  139.2217  143.5156 LP  0  0  0  0  0  0  0  0  0  0  0  0  # atno 17321 bound_to 7965
  140.2857  143.3358  152.1109 LP  0  0  0  0  0  0  0  0  0  0  0  0  # atno 17342 bound_to 10162
  139.5049  144.6785  151.6067 LP  0  0  0  0  0  0  0  0  0  0  0  0  # atno 17343 bound_to 10162
  156.3287  130.7319  151.2245 LP  0  0  0  0  0  0  0  0  0  0  0  0  # atno 17370 bound_to 10713
  157.7457  131.0436  150.4751 LP  0  0  0  0  0  0  0  0  0  0  0  0  # atno 17371 bound_to 10713
  140.2297  134.3923  155.7527 LP  0  0  0  0  0  0  0  0  0  0  0  0  # atno 17394 bound_to 11000
  141.2221  133.7209  156.8622 LP  0  0  0  0  0  0  0  0  0  0  0  0  # atno 17395 bound_to 11000

$$$$
