AV-unprocessed.smi:252|AV-procd|sdf|1943|dock2
  -GOLD-   2262021 73D 1   1.00000     0.00000
 Structure written by MMmdl.
 56 59  0  0  0  0  0  0  0  0  1 V2000
  152.7834  143.0839  159.6455 C   0  0  0  0  0  0  0  0  0  0  0  0
  153.3850  141.6702  159.6876 C   0  0  0  0  0  0  0  0  0  0  0  0
  152.8155  140.7280  158.6221 C   0  0  0  0  0  0  0  0  0  0  0  0
  153.3263  139.6274  158.4105 O   0  0  0  0  0  0  0  0  0  0  0  0
  151.7454  141.1823  157.9520 N   0  0  0  0  0  0  0  0  0  0  0  0
  151.0489  140.4639  156.8898 C   0  0  1  0  0  0  0  0  0  0  0  0
  152.0728  139.7870  155.9610 C   0  0  0  0  0  0  0  0  0  0  0  0
  151.3552  138.9528  154.8890 C   0  0  0  0  0  0  0  0  0  0  0  0
  150.3926  137.9414  155.5311 C   0  0  0  0  0  0  0  0  0  0  0  0
  149.4608  138.6128  156.4364 N   0  0  0  0  0  0  0  0  0  0  0  0
  148.3701  137.8783  156.7730 C   0  0  0  0  0  0  0  0  0  0  0  0
  147.4605  137.5375  155.8208 N   0  0  0  0  0  0  0  0  0  0  0  0
  146.3791  136.8228  156.1444 C   0  0  0  0  0  0  0  0  0  0  0  0
  146.0164  136.3532  157.3391 N   0  0  0  0  0  0  0  0  0  0  0  0
  146.9258  136.6871  158.2989 C   0  0  0  0  0  0  0  0  0  0  0  0
  148.1211  137.4356  158.1031 C   0  0  0  0  0  0  0  0  0  0  0  0
  148.8058  137.5549  159.3069 N   0  0  0  0  0  0  0  0  0  0  0  0
  148.0551  136.9209  160.1653 C   0  0  0  0  0  0  0  0  0  0  0  0
  146.8986  136.3816  159.6486 N   0  0  0  0  0  0  0  0  0  0  0  0
  145.8870  135.6309  160.3760 C   0  0  0  0  0  0  0  0  0  0  0  0
  146.0352  135.7011  161.9215 C   0  0  2  0  0  0  0  0  0  0  0  0
  145.9433  137.0473  162.3479 O   0  0  0  0  0  0  0  0  0  0  0  0
  147.3360  135.1052  162.4469 C   0  0  0  0  0  0  0  0  0  0  0  0
  147.0154  133.6149  162.5088 C   0  0  0  0  0  0  0  0  0  0  0  0
  145.6172  133.5335  162.7701 O   0  0  0  0  0  0  0  0  0  0  0  0
  145.0239  134.8274  162.6893 C   0  0  2  0  0  0  0  0  0  0  0  0
  143.6043  134.7401  162.1095 C   0  0  0  0  0  0  0  0  0  0  0  0
  150.0861  139.4175  157.4875 C   0  0  0  0  0  0  0  0  0  0  0  0
  153.2036  143.7050  160.4368 H   0  0  0  0  0  0  0  0  0  0  0  0
  151.7018  143.0604  159.7845 H   0  0  0  0  0  0  0  0  0  0  0  0
  152.9917  143.5775  158.6956 H   0  0  0  0  0  0  0  0  0  0  0  0
  154.4662  141.7280  159.5584 H   0  0  0  0  0  0  0  0  0  0  0  0
  153.2084  141.2328  160.6711 H   0  0  0  0  0  0  0  0  0  0  0  0
  151.3905  142.0968  158.1907 H   0  0  0  0  0  0  0  0  0  0  0  0
  150.4724  141.1764  156.2964 H   0  0  0  0  0  0  0  0  0  0  0  0
  152.7073  140.5364  155.4863 H   0  0  0  0  0  0  0  0  0  0  0  0
  152.7326  139.1408  156.5420 H   0  0  0  0  0  0  0  0  0  0  0  0
  150.7979  139.6137  154.2239 H   0  0  0  0  0  0  0  0  0  0  0  0
  152.0846  138.4309  154.2692 H   0  0  0  0  0  0  0  0  0  0  0  0
  149.8672  137.3977  154.7467 H   0  0  0  0  0  0  0  0  0  0  0  0
  150.9574  137.2006  156.0982 H   0  0  0  0  0  0  0  0  0  0  0  0
  145.7075  136.5957  155.3295 H   0  0  0  0  0  0  0  0  0  0  0  0
  148.3225  136.8344  161.2085 H   0  0  0  0  0  0  0  0  0  0  0  0
  144.9099  136.0074  160.0712 H   0  0  0  0  0  0  0  0  0  0  0  0
  145.9303  134.5953  160.0368 H   0  0  0  0  0  0  0  0  0  0  0  0
  145.3327  137.0938  163.0675 H   0  0  0  0  0  0  0  0  0  0  0  0
  148.2190  135.3311  161.8507 H   0  0  0  0  0  0  0  0  0  0  0  0
  147.5333  135.4634  163.4590 H   0  0  0  0  0  0  0  0  0  0  0  0
  147.2204  133.1380  161.5499 H   0  0  0  0  0  0  0  0  0  0  0  0
  147.5948  133.0980  163.2742 H   0  0  0  0  0  0  0  0  0  0  0  0
  144.9551  135.1912  163.7163 H   0  0  0  0  0  0  0  0  0  0  0  0
  143.1591  135.7305  162.0118 H   0  0  0  0  0  0  0  0  0  0  0  0
  142.9593  134.1492  162.7601 H   0  0  0  0  0  0  0  0  0  0  0  0
  143.5970  134.2665  161.1279 H   0  0  0  0  0  0  0  0  0  0  0  0
  150.6268  138.7574  158.1678 H   0  0  0  0  0  0  0  0  0  0  0  0
  149.3159  139.9224  158.0726 H   0  0  0  0  0  0  0  0  0  0  0  0
  1  2  1  0  0  0  0
  1 29  1  0  0  0  0
  1 30  1  0  0  0  0
  1 31  1  0  0  0  0
  2  3  1  0  0  0  0
  2 32  1  0  0  0  0
  2 33  1  0  0  0  0
  3  4  2  0  0  0  0
  3  5  1  0  0  0  0
  5  6  1  0  0  0  0
  5 34  1  0  0  0  0
  6 28  1  0  0  0  0
  6  7  1  0  0  0  0
  6 35  1  0  0  0  0
  7  8  1  0  0  0  0
  7 36  1  0  0  0  0
  7 37  1  0  0  0  0
  8  9  1  0  0  0  0
  8 38  1  0  0  0  0
  8 39  1  0  0  0  0
  9 10  1  0  0  0  0
  9 40  1  0  0  0  0
  9 41  1  0  0  0  0
 10 11  1  0  0  0  0
 10 28  1  0  0  0  0
 11 16  1  0  0  0  0
 11 12  2  0  0  0  0
 12 13  1  0  0  0  0
 13 14  2  0  0  0  0
 13 42  1  0  0  0  0
 14 15  1  0  0  0  0
 15 19  1  0  0  0  0
 15 16  2  0  0  0  0
 16 17  1  0  0  0  0
 17 18  2  0  0  0  0
 18 19  1  0  0  0  0
 18 43  1  0  0  0  0
 19 20  1  0  0  0  0
 20 21  1  0  0  0  0
 20 44  1  0  0  0  0
 20 45  1  0  0  0  0
 21 26  1  0  0  0  0
 21 22  1  0  0  0  0
 21 23  1  0  0  0  0
 22 46  1  0  0  0  0
 23 24  1  0  0  0  0
 23 47  1  0  0  0  0
 23 48  1  0  0  0  0
 24 25  1  0  0  0  0
 24 49  1  0  0  0  0
 24 50  1  0  0  0  0
 25 26  1  0  0  0  0
 26 27  1  0  0  0  0
 26 51  1  0  0  0  0
 27 52  1  0  0  0  0
 27 53  1  0  0  0  0
 27 54  1  0  0  0  0
 28 55  1  0  0  0  0
 28 56  1  0  0  0  0
M  END
> <s_m_source_file>
AV-unprocessed.smi

> <i_m_source_file_index>
252

> <i_lp_mmshare_version>
43012

> <i_f3d_flags>
0

> <s_epik_input>
W0NIM11bQ0gyXUMoPU8pW05IXVtDQEBIXTFbQ0gyXVtDSDJdW0NIMl1OKFtDSDJdMSljKG5bY0hdbjIpYyhjMjMpbltjSF1uM1tDSDJdW0NAQF00KFtPSF0pW0NIMl1bQ0gyXU9bQ0BIXTRbQ0gzXQ==

> <s_epik_cmdline>
J2VwaWtfcHl0aG9uJywgJy1waCcsICc3LjAnLCAnLXRuJywgJzgnLCAnLW1hJywgJzIwMCcsICctbWV0YWxfYmluZGluZycsICctaW1hZScsICc8aW5maWxlLm1hZT4nLCAnLW9tYWUnLCAnPG91dGZpbGUubWFlPic=

> <r_lp_tautomer_probability>
1

> <r_epik_Ionization_Penalty>
0.00182575

> <r_epik_Ionization_Penalty_Charging>
0

> <r_epik_Ionization_Penalty_Neutral>
0.00182575

> <r_epik_State_Penalty>
0.00104524

> <r_epik_Charging_Adjusted_Penalty>
0.00104524

> <i_epik_Tot_Q>
0

> <i_epik_Tot_abs_Q>
0

> <r_epik_Metal_State_Penalty>
-0

> <b_epik_Metal_Only>
0

> <s_lp_Force_Field>
OPLS_2005

> <r_lp_Energy>
35.9235

> <b_lp_Chiralities_Consistent>
1

> <s_lp_Variant>
AV-unprocessed.smi:252-8

> <Gold.Version>
5.8.1

> <Gold.Id.Protein>
6NUR|6NUR_protein|mol2

> <Gold.PLP.Fitness>
40.1539

> <Gold.PLP.PLP>
-38.4784

> <Gold.PLP.part.hbond>
-2.2055

> <Gold.PLP.part.metal>
0.0000

> <Gold.PLP.part.buried>
-5.1505

> <Gold.PLP.part.nonpolar>
-31.1880

> <Gold.PLP.part.repulsive>
0.1625

> <Gold.PLP.ligand.clash>
0.0065

> <Gold.PLP.ligand.torsion>
0.8674

> <Gold.PLP.Chemscore.Hbond>
1.0000

> <Gold.PLP.Chemscore.CHOScore>
0.0000

> <Gold.PLP.Chemscore.Metal>
0.0000

> <Gold.Chemscore.Hbonds>
donor molecule, donor type, donor heavy atom, donor atom, acceptor molecule, acceptor atom, score
      P1  H  7997  8008       L1     4  1.00

> <Gold.PLP.Chemscore.Internal.Correction>
0.4168

> <Gold.Rescore>
     Score         DG    S(hbond)    S(metal)    S(lipo)     H(rot)  DE(clash)    DE(int)     intcor
      7.80     -12.94       0.93        0.00      96.34       2.70       0.40       4.74       ----

> <Gold.Chemscore.Fitness>
7.7960

> <Gold.Chemscore.DG>
-12.9417

> <Gold.Chemscore.ZeroCoef>
-5.4800

> <Gold.Chemscore.Hbond>
0.9318

> <Gold.Chemscore.Metal>
0.0000

> <Gold.Chemscore.Lipo>
96.3418

> <Gold.Chemscore.Internal_Hbond>
0.0000

> <Gold.Chemscore.DEClash>
0.4049

> <Gold.Chemscore.DEInternal>
4.7407

> <Gold.Chemscore.Rot>
2.7041

> <Gold.Chemscore.Internal.Correction>
   9.000000E+99

> <Gold.Chemscore.Hbonds>
donor molecule, donor type, donor heavy atom, donor atom, acceptor molecule, acceptor atom, score
      P1  H  7997  8008       L1     4  0.39

> <Gold.Chemscore.Hbond.Weighted>
-3.1121

> <Gold.Chemscore.Metal.Weighted>
-0.0000

> <Gold.Chemscore.Lipo.Weighted>
-11.2720

> <Gold.Chemscore.Internal_Hbond.Weighted>
0.0000

> <Gold.Chemscore.DEClash.Weighted>
0.4049

> <Gold.Chemscore.DEInternal.Weighted>
4.7407

> <Gold.Chemscore.Rot.Weighted>
6.9225

> <Gold.Chemscore.Internal.Correction.Weighted>
   9.000000E+99

> <Gold.Protein.RotatedTorsions>
[ 6907 6896 6895 6894 ] final  167.05 input  -60.11 | X-H torsion
[ 7974 7965 7964 7962 ] final  -65.14 input  175.53 | X-H torsion
[ 8008 7997 7996 7995 ] final  -94.43 input   59.86 | X-H torsion
[ 10167 10162 10161 10158 ] final -101.33 input  -65.29 | X-H torsion
[ 10718 10713 10712 10709 ] final -139.22 input   66.30 | X-H torsion
[ 10763 10752 10751 10750 ] final  100.00 input  -60.55 | X-H torsion
[ 11005 11000 10999 10996 ] final  133.44 input  -57.11 | X-H torsion

> <Gold.Protein.ActiveResidues>
 VAL166  LYS551  ARG553  GLY616  TRP617  ASP618  TYR619  PRO620  LYS621  CYS622 
 ASP623  PHE694  ASN695  SER759  ASP760  ASP761  ALA762  ILE779  LEU786  VAL792 
 PHE793  MET794  SER795  GLU796  ALA797  LYS798  CYS799  TRP800  GLU811  SER814 

> <Gold.Protein.RotatedAtoms>
  151.8693  133.3472  159.3729 H   0  0  0  0  0  0  0  0  0  0  0  0  # atno 6907 bound_to 6896
  150.7157  134.5128  159.5625 H   0  0  0  0  0  0  0  0  0  0  0  0  # atno 6908 bound_to 6896
  152.2658  134.7986  160.0474 H   0  0  0  0  0  0  0  0  0  0  0  0  # atno 6909 bound_to 6896
  145.7580  140.8876  143.0445 H   0  0  0  0  0  0  0  0  0  0  0  0  # atno 7974 bound_to 7965
  154.7483  140.0489  157.0871 H   0  0  0  0  0  0  0  0  0  0  0  0  # atno 8008 bound_to 7997
  155.0090  140.3133  155.4818 H   0  0  0  0  0  0  0  0  0  0  0  0  # atno 8009 bound_to 7997
  156.2879  140.2187  156.5204 H   0  0  0  0  0  0  0  0  0  0  0  0  # atno 8010 bound_to 7997
  140.2424  143.3529  152.0789 H   0  0  0  0  0  0  0  0  0  0  0  0  # atno 10167 bound_to 10162
  156.3083  130.7467  151.1537 H   0  0  0  0  0  0  0  0  0  0  0  0  # atno 10718 bound_to 10713
  153.3085  135.4094  155.1315 H   0  0  0  0  0  0  0  0  0  0  0  0  # atno 10763 bound_to 10752
  154.8569  135.3558  154.5756 H   0  0  0  0  0  0  0  0  0  0  0  0  # atno 10764 bound_to 10752
  153.6184  135.7065  153.5378 H   0  0  0  0  0  0  0  0  0  0  0  0  # atno 10765 bound_to 10752
  139.9852  134.9535  156.9724 H   0  0  0  0  0  0  0  0  0  0  0  0  # atno 11005 bound_to 11000
  144.6836  139.9683  143.7481 LP  0  0  0  0  0  0  0  0  0  0  0  0  # atno 17320 bound_to 7965
  146.0292  139.3320  143.0765 LP  0  0  0  0  0  0  0  0  0  0  0  0  # atno 17321 bound_to 7965
  139.5073  144.6829  151.5962 LP  0  0  0  0  0  0  0  0  0  0  0  0  # atno 17342 bound_to 10162
  140.6103  143.9448  150.6448 LP  0  0  0  0  0  0  0  0  0  0  0  0  # atno 17343 bound_to 10162
  157.7385  131.0540  150.5292 LP  0  0  0  0  0  0  0  0  0  0  0  0  # atno 17370 bound_to 10713
  156.5428  130.4212  149.6145 LP  0  0  0  0  0  0  0  0  0  0  0  0  # atno 17371 bound_to 10713
  140.5017  134.1090  155.7252 LP  0  0  0  0  0  0  0  0  0  0  0  0  # atno 17394 bound_to 11000
  141.1518  133.8955  157.2079 LP  0  0  0  0  0  0  0  0  0  0  0  0  # atno 17395 bound_to 11000

$$$$
