AV-unprocessed.smi:439|AV-procd|sdf|2580|dock10
  -GOLD-   2262022563D 1   1.00000     0.00000
 Structure written by MMmdl.
 45 46  0  0  0  0  0  0  0  0  2 V2000
  144.9863  132.7927  151.2731 C   0  0  0  0  0  0  0  0  0  0  0  0
  146.5172  132.7163  151.3479 C   0  0  0  0  0  0  0  0  0  0  0  0
  147.0891  133.1032  152.7212 C   0  0  0  0  0  0  0  0  0  0  0  0
  148.6288  133.1280  152.7652 C   0  0  0  0  0  0  0  0  0  0  0  0
  149.1288  133.0205  154.1525 N   0  0  0  0  0  0  0  0  0  0  0  0
  149.3083  134.2053  154.9160 C   0  0  0  0  0  0  0  0  0  0  0  0
  149.0098  135.4312  154.3376 N   0  0  0  0  0  0  0  0  0  0  0  0
  149.7418  134.1268  156.2032 C   0  0  0  0  0  0  0  0  0  0  0  0
  149.9523  135.2772  156.9965 N   0  0  0  0  0  0  0  0  0  0  0  0
  148.7913  135.7400  157.7775 C   0  0  0  0  0  0  0  0  0  0  0  0
  149.0921  135.7755  159.2842 C   0  0  0  0  0  0  0  0  0  0  0  0
  151.1110  136.0046  157.0074 C   0  0  0  0  0  0  0  0  0  0  0  0
  152.1388  135.5687  156.4827 O   0  0  0  0  0  0  0  0  0  0  0  0
  151.0693  137.3297  157.6350 C   0  0  0  0  0  0  0  0  0  0  0  0
  152.0930  137.6999  158.4385 C   0  0  0  0  0  0  0  0  0  0  0  0
  152.1899  138.9316  159.0373 O   0  0  0  0  0  0  0  0  0  0  0  0
  151.2543  139.8973  158.5718 C   0  0  0  0  0  0  0  0  0  0  0  0
  149.8832  139.2487  158.3375 C   0  0  0  0  0  0  0  0  0  0  0  0
  150.0106  138.1803  157.4082 O   0  0  0  0  0  0  0  0  0  0  0  0
  150.0588  132.8057  156.7635 C   0  0  0  0  0  0  0  0  0  0  0  0
  150.4787  132.7049  157.9166 O   0  0  0  0  0  0  0  0  0  0  0  0
  149.8780  131.7202  155.9666 N   0  5  0  0  0  0  0  0  0  0  0  0
  149.4320  131.7950  154.6805 C   0  0  0  0  0  0  0  0  0  0  0  0
  149.2996  130.7875  153.9841 O   0  0  0  0  0  0  0  0  0  0  0  0
  144.6388  132.5776  150.2625 H   0  0  0  0  0  0  0  0  0  0  0  0
  144.6284  133.7865  151.5430 H   0  0  0  0  0  0  0  0  0  0  0  0
  144.5147  132.0719  151.9407 H   0  0  0  0  0  0  0  0  0  0  0  0
  146.8512  131.7144  151.0761 H   0  0  0  0  0  0  0  0  0  0  0  0
  146.9331  133.3877  150.5961 H   0  0  0  0  0  0  0  0  0  0  0  0
  146.7150  134.0932  152.9852 H   0  0  0  0  0  0  0  0  0  0  0  0
  146.7024  132.4243  153.4821 H   0  0  0  0  0  0  0  0  0  0  0  0
  149.0447  132.3348  152.1452 H   0  0  0  0  0  0  0  0  0  0  0  0
  148.9907  134.0378  152.2835 H   0  0  0  0  0  0  0  0  0  0  0  0
  148.6689  135.5041  153.3900 H   0  0  0  0  0  0  0  0  0  0  0  0
  149.1772  136.3007  154.8233 H   0  0  0  0  0  0  0  0  0  0  0  0
  148.4960  136.7415  157.4632 H   0  0  0  0  0  0  0  0  0  0  0  0
  147.9212  135.1106  157.5832 H   0  0  0  0  0  0  0  0  0  0  0  0
  148.2256  136.1303  159.8422 H   0  0  0  0  0  0  0  0  0  0  0  0
  149.9236  136.4461  159.5034 H   0  0  0  0  0  0  0  0  0  0  0  0
  149.3502  134.7882  159.6672 H   0  0  0  0  0  0  0  0  0  0  0  0
  152.9485  137.0804  158.6670 H   0  0  0  0  0  0  0  0  0  0  0  0
  151.1760  140.7013  159.3040 H   0  0  0  0  0  0  0  0  0  0  0  0
  151.6273  140.3402  157.6473 H   0  0  0  0  0  0  0  0  0  0  0  0
  149.4721  138.8657  159.2728 H   0  0  0  0  0  0  0  0  0  0  0  0
  149.1732  139.9780  157.9475 H   0  0  0  0  0  0  0  0  0  0  0  0
  1  2  1  0  0  0  0
  1 25  1  0  0  0  0
  1 26  1  0  0  0  0
  1 27  1  0  0  0  0
  2  3  1  0  0  0  0
  2 28  1  0  0  0  0
  2 29  1  0  0  0  0
  3  4  1  0  0  0  0
  3 30  1  0  0  0  0
  3 31  1  0  0  0  0
  4  5  1  0  0  0  0
  4 32  1  0  0  0  0
  4 33  1  0  0  0  0
  5 23  1  0  0  0  0
  5  6  1  0  0  0  0
  6  7  1  0  0  0  0
  6  8  2  0  0  0  0
  7 34  1  0  0  0  0
  7 35  1  0  0  0  0
  8  9  1  0  0  0  0
  8 20  1  0  0  0  0
  9 10  1  0  0  0  0
  9 12  1  0  0  0  0
 10 11  1  0  0  0  0
 10 36  1  0  0  0  0
 10 37  1  0  0  0  0
 11 38  1  0  0  0  0
 11 39  1  0  0  0  0
 11 40  1  0  0  0  0
 12 13  2  0  0  0  0
 12 14  1  0  0  0  0
 14 19  1  0  0  0  0
 14 15  2  0  0  0  0
 15 16  1  0  0  0  0
 15 41  1  0  0  0  0
 16 17  1  0  0  0  0
 17 18  1  0  0  0  0
 17 42  1  0  0  0  0
 17 43  1  0  0  0  0
 18 19  1  0  0  0  0
 18 44  1  0  0  0  0
 18 45  1  0  0  0  0
 20 21  2  0  0  0  0
 20 22  1  0  0  0  0
 22 23  1  0  0  0  0
 23 24  2  0  0  0  0
M  CHG  1  22  -1
M  END
> <s_m_source_file>
AV-unprocessed.smi

> <i_m_source_file_index>
439

> <i_lp_mmshare_version>
43012

> <i_f3d_flags>
0

> <s_epik_input>
W0NIM11bQ0gyXVtDSDJdW0NIMl1uMWMoW05IMl0pYyhjKD1PKVtuSF1jMT1PKU4oW0NIMl1bQ0gzXSlDKD1PKUMyPVtDSF1PW0NIMl1bQ0gyXU8y

> <s_epik_cmdline>
J2VwaWtfcHl0aG9uJywgJy1waCcsICc3LjAnLCAnLXRuJywgJzgnLCAnLW1hJywgJzIwMCcsICctbWV0YWxfYmluZGluZycsICctaW1hZScsICc8aW5maWxlLm1hZT4nLCAnLW9tYWUnLCAnPG91dGZpbGUubWFlPic=

> <r_lp_tautomer_probability>
1

> <r_epik_Ionization_Penalty>
6.21372

> <r_epik_Ionization_Penalty_Charging>
0.188923

> <r_epik_Ionization_Penalty_Neutral>
6.0248

> <r_epik_State_Penalty>
6.02477

> <r_epik_Charging_Adjusted_Penalty>
6.2137

> <i_epik_Tot_Q>
-1

> <i_epik_Tot_abs_Q>
1

> <r_epik_Metal_State_Penalty>
1.95433

> <b_epik_Metal_Only>
1

> <s_epik_Chemistry_Notes>
This compound has an imine and may undergo hydrolysis.

> <s_lp_Force_Field>
OPLS_2005

> <r_lp_Energy>
37.3971

> <b_lp_Chiralities_Consistent>
1

> <s_lp_Variant>
AV-unprocessed.smi:439-2

> <Gold.Version>
5.8.1

> <Gold.Id.Protein>
6NUR|6NUR_protein|mol2

> <Gold.PLP.Fitness>
35.4465

> <Gold.PLP.PLP>
-28.6279

> <Gold.PLP.part.hbond>
-2.9004

> <Gold.PLP.part.metal>
0.0000

> <Gold.PLP.part.buried>
-3.8619

> <Gold.PLP.part.nonpolar>
-22.2093

> <Gold.PLP.part.repulsive>
0.0691

> <Gold.PLP.ligand.clash>
0.0000

> <Gold.PLP.ligand.torsion>
2.7493

> <Gold.PLP.Chemscore.Hbond>
2.9280

> <Gold.PLP.Chemscore.CHOScore>
0.0000

> <Gold.PLP.Chemscore.Metal>
0.0000

> <Gold.Chemscore.Hbonds>
donor molecule, donor type, donor heavy atom, donor atom, acceptor molecule, acceptor atom, score
      L1  H     7    34       P1  7948  0.88
      P1  H  6896  6909       L1    21  1.00
      P1  H 10752 10765       L1    13  1.00

> <Gold.PLP.Chemscore.Internal.Correction>
3.5332

> <Gold.Rescore>
     Score         DG    S(hbond)    S(metal)    S(lipo)     H(rot)  DE(clash)    DE(int)     intcor
     13.18     -17.21       2.91        0.00      52.91       1.63       0.06       3.97       ----

> <Gold.Chemscore.Fitness>
13.1789

> <Gold.Chemscore.DG>
-17.2099

> <Gold.Chemscore.ZeroCoef>
-5.4800

> <Gold.Chemscore.Hbond>
2.9098

> <Gold.Chemscore.Metal>
0.0000

> <Gold.Chemscore.Lipo>
52.9099

> <Gold.Chemscore.Internal_Hbond>
0.0000

> <Gold.Chemscore.DEClash>
0.0580

> <Gold.Chemscore.DEInternal>
3.9731

> <Gold.Chemscore.Rot>
1.6325

> <Gold.Chemscore.Internal.Correction>
   9.000000E+99

> <Gold.Chemscore.Hbonds>
donor molecule, donor type, donor heavy atom, donor atom, acceptor molecule, acceptor atom, score
      L1  H     7    34       P1  7948  0.82
      P1  H  6896  6909       L1    21  0.99
      P1  H 10752 10765       L1    13  1.00

> <Gold.Chemscore.Hbond.Weighted>
-9.7188

> <Gold.Chemscore.Metal.Weighted>
-0.0000

> <Gold.Chemscore.Lipo.Weighted>
-6.1905

> <Gold.Chemscore.Internal_Hbond.Weighted>
0.0000

> <Gold.Chemscore.DEClash.Weighted>
0.0580

> <Gold.Chemscore.DEInternal.Weighted>
3.9731

> <Gold.Chemscore.Rot.Weighted>
4.1793

> <Gold.Chemscore.Internal.Correction.Weighted>
   9.000000E+99

> <Gold.Protein.RotatedTorsions>
[ 6907 6896 6895 6894 ] final  -22.51 input  -60.11 | X-H torsion
[ 7974 7965 7964 7962 ] final  -15.71 input  175.53 | X-H torsion
[ 8008 7997 7996 7995 ] final   18.75 input   59.86 | X-H torsion
[ 10167 10162 10161 10158 ] final -118.94 input  -65.29 | X-H torsion
[ 10718 10713 10712 10709 ] final  122.59 input   66.30 | X-H torsion
[ 10763 10752 10751 10750 ] final -141.11 input  -60.55 | X-H torsion
[ 11005 11000 10999 10996 ] final -106.00 input  -57.11 | X-H torsion

> <Gold.Protein.ActiveResidues>
 VAL166  LYS551  ARG553  GLY616  TRP617  ASP618  TYR619  PRO620  LYS621  CYS622 
 ASP623  PHE694  ASN695  SER759  ASP760  ASP761  ALA762  ILE779  LEU786  VAL792 
 PHE793  MET794  SER795  GLU796  ALA797  LYS798  CYS799  TRP800  GLU811  SER814 

> <Gold.Protein.RotatedAtoms>
  151.2176  135.0506  159.8936 H   0  0  0  0  0  0  0  0  0  0  0  0  # atno 6907 bound_to 6896
  152.5418  134.0676  159.8190 H   0  0  0  0  0  0  0  0  0  0  0  0  # atno 6908 bound_to 6896
  151.0838  133.5321  159.2651 H   0  0  0  0  0  0  0  0  0  0  0  0  # atno 6909 bound_to 6896
  146.2020  140.3532  142.8420 H   0  0  0  0  0  0  0  0  0  0  0  0  # atno 7974 bound_to 7965
  154.9106  140.3013  155.5268 H   0  0  0  0  0  0  0  0  0  0  0  0  # atno 8008 bound_to 7997
  156.3015  140.2390  156.4080 H   0  0  0  0  0  0  0  0  0  0  0  0  # atno 8009 bound_to 7997
  154.8429  140.0413  157.1542 H   0  0  0  0  0  0  0  0  0  0  0  0  # atno 8010 bound_to 7997
  140.0520  143.5050  152.2077 H   0  0  0  0  0  0  0  0  0  0  0  0  # atno 10167 bound_to 10162
  157.5730  131.1081  150.8331 H   0  0  0  0  0  0  0  0  0  0  0  0  # atno 10718 bound_to 10713
  154.8556  135.3534  154.5815 H   0  0  0  0  0  0  0  0  0  0  0  0  # atno 10763 bound_to 10752
  153.6426  135.6997  153.5241 H   0  0  0  0  0  0  0  0  0  0  0  0  # atno 10764 bound_to 10752
  153.2959  135.4221  155.1167 H   0  0  0  0  0  0  0  0  0  0  0  0  # atno 10765 bound_to 10752
  141.1026  133.8856  157.1803 H   0  0  0  0  0  0  0  0  0  0  0  0  # atno 11005 bound_to 11000
  144.8705  140.7265  143.6050 LP  0  0  0  0  0  0  0  0  0  0  0  0  # atno 17320 bound_to 7965
  145.3452  139.1721  143.4464 LP  0  0  0  0  0  0  0  0  0  0  0  0  # atno 17321 bound_to 7965
  139.5947  144.7562  151.3315 LP  0  0  0  0  0  0  0  0  0  0  0  0  # atno 17342 bound_to 10162
  140.7212  143.7130  150.7754 LP  0  0  0  0  0  0  0  0  0  0  0  0  # atno 17343 bound_to 10162
  156.8797  130.5175  149.5291 LP  0  0  0  0  0  0  0  0  0  0  0  0  # atno 17370 bound_to 10713
  156.0775  130.5794  150.9502 LP  0  0  0  0  0  0  0  0  0  0  0  0  # atno 17371 bound_to 10713
  139.9883  135.0074  156.9915 LP  0  0  0  0  0  0  0  0  0  0  0  0  # atno 17394 bound_to 11000
  140.4983  134.1123  155.7245 LP  0  0  0  0  0  0  0  0  0  0  0  0  # atno 17395 bound_to 11000

$$$$
