AV-unprocessed.smi:3237|AV-procd|sdf|12368|dock1
  -GOLD-   2272018233D 1   1.00000     0.00000
 Structure written by MMmdl.
 36 38  0  0  0  0  0  0  0  0  3 V2000
  145.8422  134.6844  162.5562 C   0  0  0  0  0  0  0  0  0  0  0  0
  146.8254  135.3690  161.6698 C   0  0  0  0  0  0  0  0  0  0  0  0
  147.8595  134.9125  160.9027 C   0  0  0  0  0  0  0  0  0  0  0  0
  148.3853  136.1010  160.3265 C   0  0  0  0  0  0  0  0  0  0  0  0
  149.4205  136.1742  159.4757 N   0  5  0  0  0  0  0  0  0  0  0  0
  149.5399  137.2298  158.6391 C   0  0  0  0  0  0  0  0  0  0  0  0
  149.3800  138.4177  158.9290 O   0  0  0  0  0  0  0  0  0  0  0  0
  149.8681  136.8875  157.3859 N   0  0  0  0  0  0  0  0  0  0  0  0
  150.0661  137.8156  156.2789 C   0  0  1  0  0  0  0  0  0  0  0  0
  151.3475  137.5899  155.4825 C   0  0  0  0  0  0  0  0  0  0  0  0
  151.0383  138.2831  154.1512 C   0  0  0  0  0  0  0  0  0  0  0  0
  149.5653  138.2328  153.9743 N   0  3  2  0  0  0  0  0  0  0  0  0
  148.9710  139.5337  153.5960 C   0  0  0  0  0  0  0  0  0  0  0  0
  148.6463  140.4163  154.7774 C   0  0  0  0  0  0  0  0  0  0  0  0
  147.5374  139.6953  154.0421 C   0  0  0  0  0  0  0  0  0  0  0  0
  148.9890  137.6559  155.2084 C   0  0  0  0  0  0  0  0  0  0  0  0
  147.7187  137.1811  160.6976 N   0  0  0  0  0  0  0  0  0  0  0  0
  146.7213  136.7211  161.5657 O   0  0  0  0  0  0  0  0  0  0  0  0
  145.6015  133.6924  162.1738 H   0  0  0  0  0  0  0  0  0  0  0  0
  144.9146  135.2531  162.6248 H   0  0  0  0  0  0  0  0  0  0  0  0
  146.2456  134.5710  163.5624 H   0  0  0  0  0  0  0  0  0  0  0  0
  148.1903  133.8926  160.7766 H   0  0  0  0  0  0  0  0  0  0  0  0
  149.9866  135.9039  157.1915 H   0  0  0  0  0  0  0  0  0  0  0  0
  150.0436  138.8421  156.6506 H   0  0  0  0  0  0  0  0  0  0  0  0
  152.2325  137.9951  155.9742 H   0  0  0  0  0  0  0  0  0  0  0  0
  151.5096  136.5232  155.3195 H   0  0  0  0  0  0  0  0  0  0  0  0
  151.3778  139.3195  154.1956 H   0  0  0  0  0  0  0  0  0  0  0  0
  151.5493  137.8068  153.3142 H   0  0  0  0  0  0  0  0  0  0  0  0
  149.3126  139.9686  152.6581 H   0  0  0  0  0  0  0  0  0  0  0  0
  148.9053  140.0599  155.7729 H   0  0  0  0  0  0  0  0  0  0  0  0
  148.7219  141.4924  154.6348 H   0  0  0  0  0  0  0  0  0  0  0  0
  146.8816  140.2966  153.4156 H   0  0  0  0  0  0  0  0  0  0  0  0
  147.0582  138.8594  154.5489 H   0  0  0  0  0  0  0  0  0  0  0  0
  148.7915  136.5991  155.0221 H   0  0  0  0  0  0  0  0  0  0  0  0
  148.0445  138.1206  155.4953 H   0  0  0  0  0  0  0  0  0  0  0  0
  149.3654  137.5845  153.2261 H   0  0  0  0  0  0  0  0  0  0  0  0
  1  2  1  0  0  0  0
  1 19  1  0  0  0  0
  1 20  1  0  0  0  0
  1 21  1  0  0  0  0
  2 18  1  0  0  0  0
  2  3  2  0  0  0  0
  3  4  1  0  0  0  0
  3 22  1  0  0  0  0
  4  5  1  0  0  0  0
  4 17  2  0  0  0  0
  5  6  1  0  0  0  0
  6  7  2  0  0  0  0
  6  8  1  0  0  0  0
  8  9  1  0  0  0  0
  8 23  1  0  0  0  0
  9 16  1  0  0  0  0
  9 10  1  0  0  0  0
  9 24  1  0  0  0  0
 10 11  1  0  0  0  0
 10 25  1  0  0  0  0
 10 26  1  0  0  0  0
 11 12  1  0  0  0  0
 11 27  1  0  0  0  0
 11 28  1  0  0  0  0
 12 13  1  0  0  0  0
 12 16  1  0  0  0  0
 12 36  1  0  0  0  0
 13 15  1  0  0  0  0
 13 14  1  0  0  0  0
 13 29  1  0  0  0  0
 14 15  1  0  0  0  0
 14 30  1  0  0  0  0
 14 31  1  0  0  0  0
 15 32  1  0  0  0  0
 15 33  1  0  0  0  0
 16 34  1  0  0  0  0
 16 35  1  0  0  0  0
 17 18  1  0  0  0  0
M  CHG  1   5  -1
M  CHG  1  12   1
M  END
> <s_m_source_file>
AV-unprocessed.smi

> <i_m_source_file_index>
3237

> <i_lp_mmshare_version>
43012

> <i_f3d_flags>
0

> <s_epik_input>
W0NIM11jMVtjSF1jKG5vMSlbTkhdQyg9TylbTkhdW0NAQEhdMltDSDJdW0NIMl1OKFtDSDJdMilbQ0hdM1tDSDJdW0NIMl0z

> <s_epik_cmdline>
J2VwaWtfcHl0aG9uJywgJy1waCcsICc3LjAnLCAnLXRuJywgJzgnLCAnLW1hJywgJzIwMCcsICctbWV0YWxfYmluZGluZycsICctaW1hZScsICc8aW5maWxlLm1hZT4nLCAnLW9tYWUnLCAnPG91dGZpbGUubWFlPic=

> <r_epik_Ionization_Penalty>
6.08472

> <r_epik_Ionization_Penalty_Charging>
6.08464

> <r_epik_Ionization_Penalty_Neutral>
8.41751e-05

> <r_epik_State_Penalty>
6.08438

> <r_epik_Charging_Adjusted_Penalty>
12.169

> <i_epik_Tot_Q>
0

> <i_epik_Tot_abs_Q>
2

> <r_epik_Metal_State_Penalty>
2.0369

> <b_epik_Metal_Only>
1

> <s_lp_Force_Field>
OPLS_2005

> <r_lp_Energy>
24.4971

> <b_lp_Chiralities_Consistent>
1

> <s_lp_Variant>
AV-unprocessed.smi:3237-6

> <Gold.Version>
5.8.1

> <Gold.Id.Protein>
6NUR|6NUR_protein|mol2

> <Gold.PLP.Fitness>
40.2864

> <Gold.PLP.PLP>
-25.3141

> <Gold.PLP.part.hbond>
-5.0211

> <Gold.PLP.part.metal>
0.0000

> <Gold.PLP.part.buried>
-1.0890

> <Gold.PLP.part.nonpolar>
-19.3684

> <Gold.PLP.part.repulsive>
0.0829

> <Gold.PLP.ligand.clash>
0.0000

> <Gold.PLP.ligand.torsion>
1.1923

> <Gold.PLP.Chemscore.Hbond>
5.3600

> <Gold.PLP.Chemscore.CHOScore>
0.0000

> <Gold.PLP.Chemscore.Metal>
0.0000

> <Gold.Chemscore.Hbonds>
donor molecule, donor type, donor heavy atom, donor atom, acceptor molecule, acceptor atom, score
      L1  H    12    36       P1  7948  2.00
      P1  H  6896  6909       L1     5  2.00
      P1  H  6931  6943       L1    17  0.72
      P1  H  6934  6947       L1    17  0.59

> <Gold.PLP.Chemscore.Internal.Correction>
1.2769

> <Gold.Rescore>
     Score         DG    S(hbond)    S(metal)    S(lipo)     H(rot)  DE(clash)    DE(int)     intcor
     15.40     -18.21       2.89        0.00      53.42       1.25       0.05       2.76       ----

> <Gold.Chemscore.Fitness>
15.3968

> <Gold.Chemscore.DG>
-18.2079

> <Gold.Chemscore.ZeroCoef>
-5.4800

> <Gold.Chemscore.Hbond>
2.8946

> <Gold.Chemscore.Metal>
0.0000

> <Gold.Chemscore.Lipo>
53.4248

> <Gold.Chemscore.Internal_Hbond>
0.0000

> <Gold.Chemscore.DEClash>
0.0480

> <Gold.Chemscore.DEInternal>
2.7632

> <Gold.Chemscore.Rot>
1.2464

> <Gold.Chemscore.Internal.Correction>
   9.000000E+99

> <Gold.Chemscore.Hbonds>
donor molecule, donor type, donor heavy atom, donor atom, acceptor molecule, acceptor atom, score
      L1  H    12    36       P1  7948  0.95
      P1  H  6896  6909       L1     5  0.91
      P1  H  6931  6943       L1    17  0.19
      P1  H  6934  6947       L1    17  0.05

> <Gold.Chemscore.Hbond.Weighted>
-9.6681

> <Gold.Chemscore.Metal.Weighted>
-0.0000

> <Gold.Chemscore.Lipo.Weighted>
-6.2507

> <Gold.Chemscore.Internal_Hbond.Weighted>
0.0000

> <Gold.Chemscore.DEClash.Weighted>
0.0480

> <Gold.Chemscore.DEInternal.Weighted>
2.7632

> <Gold.Chemscore.Rot.Weighted>
3.1909

> <Gold.Chemscore.Internal.Correction.Weighted>
   9.000000E+99

> <Gold.Protein.RotatedTorsions>
[ 6907 6896 6895 6894 ] final   64.72 input  -60.11 | X-H torsion
[ 7974 7965 7964 7962 ] final -106.43 input  175.53 | X-H torsion
[ 8008 7997 7996 7995 ] final  -10.41 input   59.86 | X-H torsion
[ 10167 10162 10161 10158 ] final  148.93 input  -65.29 | X-H torsion
[ 10718 10713 10712 10709 ] final   20.77 input   66.30 | X-H torsion
[ 10763 10752 10751 10750 ] final -154.68 input  -60.55 | X-H torsion
[ 11005 11000 10999 10996 ] final   86.81 input  -57.11 | X-H torsion

> <Gold.Protein.ActiveResidues>
 VAL166  LYS551  ARG553  GLY616  TRP617  ASP618  TYR619  PRO620  LYS621  CYS622 
 ASP623  PHE694  ASN695  SER759  ASP760  ASP761  ALA762  ILE779  LEU786  VAL792 
 PHE793  MET794  SER795  GLU796  ALA797  LYS798  CYS799  TRP800  GLU811  SER814 

> <Gold.Protein.RotatedAtoms>
  152.4353  134.5698  159.9917 H   0  0  0  0  0  0  0  0  0  0  0  0  # atno 6907 bound_to 6896
  151.5810  133.3372  159.3016 H   0  0  0  0  0  0  0  0  0  0  0  0  # atno 6908 bound_to 6896
  150.8251  134.7512  159.6870 H   0  0  0  0  0  0  0  0  0  0  0  0  # atno 6909 bound_to 6896
  145.2180  140.9123  143.3276 H   0  0  0  0  0  0  0  0  0  0  0  0  # atno 7974 bound_to 7965
  154.5557  140.2329  155.8414 H   0  0  0  0  0  0  0  0  0  0  0  0  # atno 8008 bound_to 7997
  156.1986  140.3058  155.9440 H   0  0  0  0  0  0  0  0  0  0  0  0  # atno 8009 bound_to 7997
  155.2984  140.0430  157.3018 H   0  0  0  0  0  0  0  0  0  0  0  0  # atno 8010 bound_to 7997
  139.4868  144.5641  151.7176 H   0  0  0  0  0  0  0  0  0  0  0  0  # atno 10167 bound_to 10162
  157.1291  130.6583  149.5946 H   0  0  0  0  0  0  0  0  0  0  0  0  # atno 10718 bound_to 10713
  154.7842  135.3184  154.7924 H   0  0  0  0  0  0  0  0  0  0  0  0  # atno 10763 bound_to 10752
  153.8628  135.6851  153.4785 H   0  0  0  0  0  0  0  0  0  0  0  0  # atno 10764 bound_to 10752
  153.1487  135.4708  154.9543 H   0  0  0  0  0  0  0  0  0  0  0  0  # atno 10765 bound_to 10752
  139.8935  134.8380  156.2772 H   0  0  0  0  0  0  0  0  0  0  0  0  # atno 11005 bound_to 11000
  144.9793  139.3800  143.6270 LP  0  0  0  0  0  0  0  0  0  0  0  0  # atno 17320 bound_to 7965
  146.3382  139.8926  142.8807 LP  0  0  0  0  0  0  0  0  0  0  0  0  # atno 17321 bound_to 7965
  140.5216  144.0869  150.6024 LP  0  0  0  0  0  0  0  0  0  0  0  0  # atno 17342 bound_to 10162
  140.3829  143.2793  152.0149 LP  0  0  0  0  0  0  0  0  0  0  0  0  # atno 17343 bound_to 10162
  155.9812  130.4817  150.6813 LP  0  0  0  0  0  0  0  0  0  0  0  0  # atno 17370 bound_to 10713
  157.4408  131.0861  151.0945 LP  0  0  0  0  0  0  0  0  0  0  0  0  # atno 17371 bound_to 10713
  141.0062  133.7122  156.1039 LP  0  0  0  0  0  0  0  0  0  0  0  0  # atno 17394 bound_to 11000
  140.7430  134.4129  157.5552 LP  0  0  0  0  0  0  0  0  0  0  0  0  # atno 17395 bound_to 11000

$$$$
