AV-unprocessed.smi:35|AV-procd|sdf|257|dock7
  -GOLD-   2262016 23D 1   1.00000     0.00000
 Structure written by MMmdl.
 29 30  0  0  0  0  0  0  0  0  1 V2000
  140.5000  134.9775  153.8142 O   0  0  0  0  0  0  0  0  0  0  0  0
  141.6563  135.3788  153.7035 C   0  0  0  0  0  0  0  0  0  0  0  0
  142.7280  134.4909  153.8400 N   0  0  0  0  0  0  0  0  0  0  0  0
  144.0797  134.8273  153.7373 C   0  0  0  0  0  0  0  0  0  0  0  0
  144.9393  133.9559  153.8616 O   0  0  0  0  0  0  0  0  0  0  0  0
  144.3870  136.1821  153.4781 N   0  0  0  0  0  0  0  0  0  0  0  0
  145.8287  136.6306  153.3722 C   0  0  2  0  0  0  0  0  0  0  0  0
  146.0002  137.7088  154.2377 O   0  0  0  0  0  0  0  0  0  0  0  0
  146.8559  138.6659  153.6339 C   0  0  2  0  0  0  0  0  0  0  0  0
  146.5994  140.0414  154.2696 C   0  0  0  0  0  0  0  0  0  0  0  0
  145.2140  140.2855  154.3838 O   0  0  0  0  0  0  0  0  0  0  0  0
  146.5177  138.5693  152.1412 C   0  0  1  0  0  0  0  0  0  0  0  0
  147.6232  138.9643  151.3527 O   0  0  0  0  0  0  0  0  0  0  0  0
  146.2249  137.0853  151.9477 C   0  0  2  0  0  0  0  0  0  0  0  0
  145.2206  136.8940  150.9666 O   0  0  0  0  0  0  0  0  0  0  0  0
  143.3555  137.0990  153.3289 C   0  0  0  0  0  0  0  0  0  0  0  0
  142.0502  136.7560  153.4281 C   0  0  0  0  0  0  0  0  0  0  0  0
  140.7307  138.2122  153.1777 Br  0  0  0  0  0  0  0  0  0  0  0  0
  142.5050  133.5237  154.0261 H   0  0  0  0  0  0  0  0  0  0  0  0
  146.4574  135.8165  153.7356 H   0  0  0  0  0  0  0  0  0  0  0  0
  147.8825  138.3416  153.8175 H   0  0  0  0  0  0  0  0  0  0  0  0
  147.0703  140.1150  155.2505 H   0  0  0  0  0  0  0  0  0  0  0  0
  147.0298  140.8259  153.6467 H   0  0  0  0  0  0  0  0  0  0  0  0
  144.8025  140.0763  153.5592 H   0  0  0  0  0  0  0  0  0  0  0  0
  145.6399  139.1747  151.9087 H   0  0  0  0  0  0  0  0  0  0  0  0
  148.3245  139.2302  151.9271 H   0  0  0  0  0  0  0  0  0  0  0  0
  147.1243  136.5366  151.6636 H   0  0  0  0  0  0  0  0  0  0  0  0
  144.9782  137.7386  150.6184 H   0  0  0  0  0  0  0  0  0  0  0  0
  143.5995  138.1303  153.1171 H   0  0  0  0  0  0  0  0  0  0  0  0
  1  2  2  0  0  0  0
  2 17  1  0  0  0  0
  2  3  1  0  0  0  0
  3 19  1  0  0  0  0
  3  4  1  0  0  0  0
  4  5  2  0  0  0  0
  4  6  1  0  0  0  0
  6  7  1  0  0  0  0
  6 16  1  0  0  0  0
  7 14  1  0  0  0  0
  7  8  1  0  0  0  0
  7 20  1  0  0  0  0
  8  9  1  0  0  0  0
  9 10  1  0  0  0  0
  9 12  1  0  0  0  0
  9 21  1  0  0  0  0
 10 11  1  0  0  0  0
 10 22  1  0  0  0  0
 10 23  1  0  0  0  0
 11 24  1  0  0  0  0
 12 13  1  0  0  0  0
 12 14  1  0  0  0  0
 12 25  1  0  0  0  0
 13 26  1  0  0  0  0
 14 15  1  0  0  0  0
 14 27  1  0  0  0  0
 15 28  1  0  0  0  0
 16 17  2  0  0  0  0
 16 29  1  0  0  0  0
 17 18  1  0  0  0  0
M  END
> <s_m_source_file>
AV-unprocessed.smi

> <i_m_source_file_index>
35

> <i_lp_mmshare_version>
43012

> <i_f3d_flags>
0

> <s_epik_input>
Tz1jMVtuSF1jKD1PKW4oW2NIXWMxQnIpW0NAQEhdMk9bQ0BASF0oW0NIMl1bT0hdKVtDQEBIXShbT0hdKVtDQEhdMltPSF0=

> <s_epik_cmdline>
J2VwaWtfcHl0aG9uJywgJy1waCcsICc3LjAnLCAnLXRuJywgJzgnLCAnLW1hJywgJzIwMCcsICctbWV0YWxfYmluZGluZycsICctaW1hZScsICc8aW5maWxlLm1hZT4nLCAnLW9tYWUnLCAnPG91dGZpbGUubWFlPic=

> <r_lp_tautomer_probability>
0.999537

> <r_epik_Ionization_Penalty>
0.10812

> <r_epik_Ionization_Penalty_Charging>
0.108119

> <r_epik_Ionization_Penalty_Neutral>
4.93006e-07

> <r_epik_State_Penalty>
0.0979238

> <r_epik_Charging_Adjusted_Penalty>
0.206043

> <i_epik_Tot_Q>
0

> <i_epik_Tot_abs_Q>
0

> <r_epik_Metal_State_Penalty>
3.07911

> <b_epik_Metal_Only>
0

> <s_epik_Chemistry_Notes>
This compound contains an acetal/aminal-like group ( X-CH(R)-Y where X, Y are N, S, or O) that may be acid/base labile, releasing an aldehyde.

> <s_lp_Force_Field>
OPLS_2005

> <r_lp_Energy>
32.3775

> <b_lp_Chiralities_Consistent>
1

> <s_lp_Variant>
AV-unprocessed.smi:35-11

> <Gold.Version>
5.8.1

> <Gold.Id.Protein>
6NUR|6NUR_protein|mol2

> <Gold.PLP.Fitness>
41.0999

> <Gold.PLP.PLP>
-23.5188

> <Gold.PLP.part.hbond>
-6.2447

> <Gold.PLP.part.metal>
0.0000

> <Gold.PLP.part.buried>
0.4834

> <Gold.PLP.part.nonpolar>
-17.4518

> <Gold.PLP.part.repulsive>
0.4270

> <Gold.PLP.ligand.clash>
0.0000

> <Gold.PLP.ligand.torsion>
0.1946

> <Gold.PLP.Chemscore.Hbond>
4.9280

> <Gold.PLP.Chemscore.CHOScore>
1.0000

> <Gold.PLP.Chemscore.Metal>
0.0000

> <Gold.Chemscore.Hbonds>
donor molecule, donor type, donor heavy atom, donor atom, acceptor molecule, acceptor atom, score
      L1  H     3    19       P1 10957  1.00
      L1  H    11    24       P1 10175  0.93
      L1  H    13    26       P1  7957  0.26
      L1  H    15    28       P1 10171  0.93
      P1  H  7954  7966       L1    13  0.77
      P1  H 11000 11005       L1     1  0.99
      L1  C    16    29       P1 10175  1.00

> <Gold.PLP.Chemscore.Internal.Correction>
0.1864

> <Gold.Rescore>
     Score         DG    S(hbond)    S(metal)    S(lipo)     H(rot)  DE(clash)    DE(int)     intcor
     13.43     -16.12       4.64        0.00      38.65       3.67       1.34       1.34       ----

> <Gold.Chemscore.Fitness>
13.4331

> <Gold.Chemscore.DG>
-16.1172

> <Gold.Chemscore.ZeroCoef>
-5.4800

> <Gold.Chemscore.Hbond>
4.6438

> <Gold.Chemscore.Metal>
0.0000

> <Gold.Chemscore.Lipo>
38.6537

> <Gold.Chemscore.Internal_Hbond>
0.0000

> <Gold.Chemscore.DEClash>
1.3445

> <Gold.Chemscore.DEInternal>
1.3396

> <Gold.Chemscore.Rot>
3.6701

> <Gold.Chemscore.Internal.Correction>
   9.000000E+99

> <Gold.Chemscore.Hbonds>
donor molecule, donor type, donor heavy atom, donor atom, acceptor molecule, acceptor atom, score
      L1  H     3    19       P1 10957  0.99
      L1  H    11    24       P1 10175  0.89
      L1  H    13    26       P1  7957  0.26
      L1  H    15    28       P1 10171  0.89
      P1  H  7954  7966       L1    13  0.66
      P1  H 11000 11005       L1     1  0.60

> <Gold.Chemscore.Hbond.Weighted>
-15.5102

> <Gold.Chemscore.Metal.Weighted>
-0.0000

> <Gold.Chemscore.Lipo.Weighted>
-4.5225

> <Gold.Chemscore.Internal_Hbond.Weighted>
0.0000

> <Gold.Chemscore.DEClash.Weighted>
1.3445

> <Gold.Chemscore.DEInternal.Weighted>
1.3396

> <Gold.Chemscore.Rot.Weighted>
9.3955

> <Gold.Chemscore.Internal.Correction.Weighted>
   9.000000E+99

> <Gold.Protein.RotatedTorsions>
[ 6907 6896 6895 6894 ] final  -56.66 input  -60.11 | X-H torsion
[ 7974 7965 7964 7962 ] final  174.30 input  175.53 | X-H torsion
[ 8008 7997 7996 7995 ] final -172.81 input   59.86 | X-H torsion
[ 10167 10162 10161 10158 ] final -101.85 input  -65.29 | X-H torsion
[ 10718 10713 10712 10709 ] final   43.56 input   66.30 | X-H torsion
[ 10763 10752 10751 10750 ] final  -14.21 input  -60.55 | X-H torsion
[ 11005 11000 10999 10996 ] final   41.05 input  -57.11 | X-H torsion

> <Gold.Protein.ActiveResidues>
 VAL166  LYS551  ARG553  GLY616  TRP617  ASP618  TYR619  PRO620  LYS621  CYS622 
 ASP623  PHE694  ASN695  SER759  ASP760  ASP761  ALA762  ILE779  LEU786  VAL792 
 PHE793  MET794  SER795  GLU796  ALA797  LYS798  CYS799  TRP800  GLU811  SER814 

> <Gold.Protein.RotatedAtoms>
  150.8150  134.7326  159.6721 H   0  0  0  0  0  0  0  0  0  0  0  0  # atno 6907 bound_to 6896
  152.4268  134.5849  159.9968 H   0  0  0  0  0  0  0  0  0  0  0  0  # atno 6908 bound_to 6896
  151.6048  133.3315  159.3091 H   0  0  0  0  0  0  0  0  0  0  0  0  # atno 6909 bound_to 6896
  144.7224  139.9776  143.6438 H   0  0  0  0  0  0  0  0  0  0  0  0  # atno 7974 bound_to 7965
  155.9494  140.1123  157.0989 H   0  0  0  0  0  0  0  0  0  0  0  0  # atno 8008 bound_to 7997
  154.4106  140.1203  156.5099 H   0  0  0  0  0  0  0  0  0  0  0  0  # atno 8009 bound_to 7997
  155.6861  140.3473  155.4877 H   0  0  0  0  0  0  0  0  0  0  0  0  # atno 8010 bound_to 7997
  140.2369  143.3567  152.0837 H   0  0  0  0  0  0  0  0  0  0  0  0  # atno 10167 bound_to 10162
  157.4173  130.7948  149.7483 H   0  0  0  0  0  0  0  0  0  0  0  0  # atno 10718 bound_to 10713
  153.5248  135.7015  153.5713 H   0  0  0  0  0  0  0  0  0  0  0  0  # atno 10763 bound_to 10752
  153.3746  135.3936  155.1813 H   0  0  0  0  0  0  0  0  0  0  0  0  # atno 10764 bound_to 10752
  154.8691  135.3820  154.4740 H   0  0  0  0  0  0  0  0  0  0  0  0  # atno 10765 bound_to 10752
  140.1872  134.4032  155.8167 H   0  0  0  0  0  0  0  0  0  0  0  0  # atno 11005 bound_to 11000
  146.0513  139.3514  143.0638 LP  0  0  0  0  0  0  0  0  0  0  0  0  # atno 17320 bound_to 7965
  145.8211  140.9678  143.0898 LP  0  0  0  0  0  0  0  0  0  0  0  0  # atno 17321 bound_to 7965
  139.5091  144.6861  151.5884 LP  0  0  0  0  0  0  0  0  0  0  0  0  # atno 17342 bound_to 10162
  140.6143  143.9378  150.6477 LP  0  0  0  0  0  0  0  0  0  0  0  0  # atno 17343 bound_to 10162
  155.9869  130.3971  150.3190 LP  0  0  0  0  0  0  0  0  0  0  0  0  # atno 17370 bound_to 10713
  157.1334  131.0278  151.2959 LP  0  0  0  0  0  0  0  0  0  0  0  0  # atno 17371 bound_to 10713
  141.2225  133.7028  156.8032 LP  0  0  0  0  0  0  0  0  0  0  0  0  # atno 17394 bound_to 11000
  140.2201  134.8763  157.3367 LP  0  0  0  0  0  0  0  0  0  0  0  0  # atno 17395 bound_to 11000

$$$$
