AV-unprocessed.smi:620|AV-procd|sdf|3087|dock4
  -GOLD-   22720 0 13D 1   1.00000     0.00000
 Structure written by MMmdl.
 33 35  0  0  0  0  0  0  0  0  1 V2000
  154.8597  135.0675  159.2635 C   0  0  0  0  0  0  0  0  0  0  0  0
  154.4284  136.4613  158.9581 C   0  0  0  0  0  0  0  0  0  0  0  0
  154.5555  137.0118  157.7439 N   0  0  0  0  0  0  0  0  0  0  0  0
  154.0781  138.3151  157.7016 N   0  0  0  0  0  0  0  0  0  0  0  0
  153.6059  138.7122  158.8866 C   0  0  0  0  0  0  0  0  0  0  0  0
  153.0789  140.0238  158.9893 N   0  0  0  0  0  0  0  0  0  0  0  0
  153.3355  140.9451  159.9319 C   0  0  0  0  0  0  0  0  0  0  0  0
  154.1147  140.8008  160.8735 O   0  0  0  0  0  0  0  0  0  0  0  0
  152.6286  142.0645  159.7188 N   0  0  0  0  0  0  0  0  0  0  0  0
  152.6575  143.2614  160.5531 C   0  0  0  0  0  0  0  0  0  0  0  0
  152.4242  142.9526  162.0236 C   0  0  0  0  0  0  0  0  0  0  0  0
  152.8955  143.8902  163.1104 C   0  0  0  0  0  0  0  0  0  0  0  0
  153.5607  142.5451  162.9324 C   0  0  0  0  0  0  0  0  0  0  0  0
  151.6623  144.2997  160.0679 C   0  0  0  0  0  0  0  0  0  0  0  0
  151.8839  145.0459  158.7741 C   0  0  0  0  0  0  0  0  0  0  0  0
  151.9846  145.7752  160.0952 C   0  0  0  0  0  0  0  0  0  0  0  0
  153.7061  137.5089  160.1723 S   0  0  0  0  0  0  0  0  0  0  0  0
  155.3016  134.5984  158.3835 H   0  0  0  0  0  0  0  0  0  0  0  0
  154.0019  134.4747  159.5809 H   0  0  0  0  0  0  0  0  0  0  0  0
  155.5984  135.0725  160.0652 H   0  0  0  0  0  0  0  0  0  0  0  0
  152.4259  140.2866  158.2660 H   0  0  0  0  0  0  0  0  0  0  0  0
  152.0170  142.0914  158.9161 H   0  0  0  0  0  0  0  0  0  0  0  0
  153.6492  143.7102  160.4647 H   0  0  0  0  0  0  0  0  0  0  0  0
  151.4698  142.4649  162.2147 H   0  0  0  0  0  0  0  0  0  0  0  0
  153.4664  144.7688  162.8174 H   0  0  0  0  0  0  0  0  0  0  0  0
  152.2478  144.0220  163.9746 H   0  0  0  0  0  0  0  0  0  0  0  0
  153.3570  141.7775  163.6761 H   0  0  0  0  0  0  0  0  0  0  0  0
  154.5679  142.5388  162.5207 H   0  0  0  0  0  0  0  0  0  0  0  0
  150.6278  144.0431  160.2897 H   0  0  0  0  0  0  0  0  0  0  0  0
  152.8086  144.8572  158.2321 H   0  0  0  0  0  0  0  0  0  0  0  0
  151.0123  145.2455  158.1539 H   0  0  0  0  0  0  0  0  0  0  0  0
  151.1796  146.4595  160.3555 H   0  0  0  0  0  0  0  0  0  0  0  0
  152.9773  146.0766  160.4232 H   0  0  0  0  0  0  0  0  0  0  0  0
  1  2  1  0  0  0  0
  1 18  1  0  0  0  0
  1 19  1  0  0  0  0
  1 20  1  0  0  0  0
  2 17  1  0  0  0  0
  2  3  2  0  0  0  0
  3  4  1  0  0  0  0
  4  5  2  0  0  0  0
  5  6  1  0  0  0  0
  5 17  1  0  0  0  0
  6  7  1  0  0  0  0
  6 21  1  0  0  0  0
  7  8  2  0  0  0  0
  7  9  1  0  0  0  0
  9 10  1  0  0  0  0
  9 22  1  0  0  0  0
 10 11  1  0  0  0  0
 10 14  1  0  0  0  0
 10 23  1  0  0  0  0
 11 13  1  0  0  0  0
 11 12  1  0  0  0  0
 11 24  1  0  0  0  0
 12 13  1  0  0  0  0
 12 25  1  0  0  0  0
 12 26  1  0  0  0  0
 13 27  1  0  0  0  0
 13 28  1  0  0  0  0
 14 16  1  0  0  0  0
 14 15  1  0  0  0  0
 14 29  1  0  0  0  0
 15 16  1  0  0  0  0
 15 30  1  0  0  0  0
 15 31  1  0  0  0  0
 16 32  1  0  0  0  0
 16 33  1  0  0  0  0
M  END
> <s_m_source_file>
AV-unprocessed.smi

> <i_m_source_file_index>
620

> <i_lp_mmshare_version>
43012

> <i_f3d_flags>
0

> <s_epik_input>
W0NIM11jMW5uYyhzMSlbTkhdQyg9TylbTkhdW0NIXShbQ0hdMltDSDJdW0NIMl0yKVtDSF0zW0NIMl1bQ0gyXTM=

> <s_epik_cmdline>
J2VwaWtfcHl0aG9uJywgJy1waCcsICc3LjAnLCAnLXRuJywgJzgnLCAnLW1hJywgJzIwMCcsICctbWV0YWxfYmluZGluZycsICctaW1hZScsICc8aW5maWxlLm1hZT4nLCAnLW9tYWUnLCAnPG91dGZpbGUubWFlPic=

> <r_lp_tautomer_probability>
1

> <r_epik_Ionization_Penalty>
0.000349386

> <r_epik_Ionization_Penalty_Charging>
0

> <r_epik_Ionization_Penalty_Neutral>
0.000349386

> <r_epik_State_Penalty>
-0

> <r_epik_Charging_Adjusted_Penalty>
0

> <i_epik_Tot_Q>
0

> <i_epik_Tot_abs_Q>
0

> <r_epik_Metal_State_Penalty>
0.178889

> <b_epik_Metal_Only>
0

> <s_lp_Force_Field>
OPLS_2005

> <r_lp_Energy>
21.1743

> <b_lp_Chiralities_Consistent>
1

> <s_lp_Variant>
AV-unprocessed.smi:620-1

> <Gold.Version>
5.8.1

> <Gold.Id.Protein>
6NUR|6NUR_protein|mol2

> <Gold.PLP.Fitness>
38.8664

> <Gold.PLP.PLP>
-37.2873

> <Gold.PLP.part.hbond>
-1.0000

> <Gold.PLP.part.metal>
0.0000

> <Gold.PLP.part.buried>
-5.0609

> <Gold.PLP.part.nonpolar>
-30.0119

> <Gold.PLP.part.repulsive>
0.1812

> <Gold.PLP.ligand.clash>
0.0000

> <Gold.PLP.ligand.torsion>
1.5441

> <Gold.PLP.Chemscore.Hbond>
0.8480

> <Gold.PLP.Chemscore.CHOScore>
0.0000

> <Gold.PLP.Chemscore.Metal>
0.0000

> <Gold.Chemscore.Hbonds>
donor molecule, donor type, donor heavy atom, donor atom, acceptor molecule, acceptor atom, score
      P1  H  7997  8008       L1     4  0.85

> <Gold.PLP.Chemscore.Internal.Correction>
2.1232

> <Gold.Rescore>
     Score         DG    S(hbond)    S(metal)    S(lipo)     H(rot)  DE(clash)    DE(int)     intcor
     12.92     -15.76       0.88        0.00      94.25       1.44       0.12       2.72       ----

> <Gold.Chemscore.Fitness>
12.9187

> <Gold.Chemscore.DG>
-15.7582

> <Gold.Chemscore.ZeroCoef>
-5.4800

> <Gold.Chemscore.Hbond>
0.8793

> <Gold.Chemscore.Metal>
0.0000

> <Gold.Chemscore.Lipo>
94.2546

> <Gold.Chemscore.Internal_Hbond>
0.0000

> <Gold.Chemscore.DEClash>
0.1219

> <Gold.Chemscore.DEInternal>
2.7176

> <Gold.Chemscore.Rot>
1.4400

> <Gold.Chemscore.Internal.Correction>
   9.000000E+99

> <Gold.Chemscore.Hbonds>
donor molecule, donor type, donor heavy atom, donor atom, acceptor molecule, acceptor atom, score
      P1  H  7997  8008       L1     4  0.22

> <Gold.Chemscore.Hbond.Weighted>
-2.9368

> <Gold.Chemscore.Metal.Weighted>
-0.0000

> <Gold.Chemscore.Lipo.Weighted>
-11.0278

> <Gold.Chemscore.Internal_Hbond.Weighted>
0.0000

> <Gold.Chemscore.DEClash.Weighted>
0.1219

> <Gold.Chemscore.DEInternal.Weighted>
2.7176

> <Gold.Chemscore.Rot.Weighted>
3.6864

> <Gold.Chemscore.Internal.Correction.Weighted>
   9.000000E+99

> <Gold.Protein.RotatedTorsions>
[ 6907 6896 6895 6894 ] final  -51.51 input  -60.11 | X-H torsion
[ 7974 7965 7964 7962 ] final -171.63 input  175.53 | X-H torsion
[ 8008 7997 7996 7995 ] final  -81.50 input   59.86 | X-H torsion
[ 10167 10162 10161 10158 ] final -172.85 input  -65.29 | X-H torsion
[ 10718 10713 10712 10709 ] final  -25.47 input   66.30 | X-H torsion
[ 10763 10752 10751 10750 ] final   43.93 input  -60.55 | X-H torsion
[ 11005 11000 10999 10996 ] final  -52.11 input  -57.11 | X-H torsion

> <Gold.Protein.ActiveResidues>
 VAL166  LYS551  ARG553  GLY616  TRP617  ASP618  TYR619  PRO620  LYS621  CYS622 
 ASP623  PHE694  ASN695  SER759  ASP760  ASP761  ALA762  ILE779  LEU786  VAL792 
 PHE793  MET794  SER795  GLU796  ALA797  LYS798  CYS799  TRP800  GLU811  SER814 

> <Gold.Protein.RotatedAtoms>
  150.8605  134.7955  159.7078 H   0  0  0  0  0  0  0  0  0  0  0  0  # atno 6907 bound_to 6896
  152.4643  134.5108  159.9763 H   0  0  0  0  0  0  0  0  0  0  0  0  # atno 6908 bound_to 6896
  151.5213  133.3428  159.2937 H   0  0  0  0  0  0  0  0  0  0  0  0  # atno 6909 bound_to 6896
  144.7155  140.1893  143.6350 H   0  0  0  0  0  0  0  0  0  0  0  0  # atno 7974 bound_to 7965
  154.5990  140.0647  156.9343 H   0  0  0  0  0  0  0  0  0  0  0  0  # atno 8008 bound_to 7997
  155.2165  140.3327  155.4303 H   0  0  0  0  0  0  0  0  0  0  0  0  # atno 8009 bound_to 7997
  156.2306  140.1839  156.7236 H   0  0  0  0  0  0  0  0  0  0  0  0  # atno 8010 bound_to 7997
  139.5721  144.1618  152.1398 H   0  0  0  0  0  0  0  0  0  0  0  0  # atno 10167 bound_to 10162
  156.4640  130.4510  149.6911 H   0  0  0  0  0  0  0  0  0  0  0  0  # atno 10718 bound_to 10713
  152.9851  135.6086  154.3191 H   0  0  0  0  0  0  0  0  0  0  0  0  # atno 10763 bound_to 10752
  154.2902  135.2775  155.2660 H   0  0  0  0  0  0  0  0  0  0  0  0  # atno 10764 bound_to 10752
  154.4959  135.5880  153.6550 H   0  0  0  0  0  0  0  0  0  0  0  0  # atno 10765 bound_to 10752
  141.0907  133.6633  156.3975 H   0  0  0  0  0  0  0  0  0  0  0  0  # atno 11005 bound_to 11000
  145.8783  139.2309  143.1620 LP  0  0  0  0  0  0  0  0  0  0  0  0  # atno 17320 bound_to 7965
  146.0019  140.8513  143.0014 LP  0  0  0  0  0  0  0  0  0  0  0  0  # atno 17321 bound_to 7965
  140.1153  144.5421  150.6898 LP  0  0  0  0  0  0  0  0  0  0  0  0  # atno 17342 bound_to 10162
  140.7005  143.2432  151.4878 LP  0  0  0  0  0  0  0  0  0  0  0  0  # atno 17343 bound_to 10162
  156.3687  130.7519  151.2500 LP  0  0  0  0  0  0  0  0  0  0  0  0  # atno 17370 bound_to 10713
  157.7496  131.0329  150.4248 LP  0  0  0  0  0  0  0  0  0  0  0  0  # atno 17371 bound_to 10713
  140.5259  134.6259  157.5334 LP  0  0  0  0  0  0  0  0  0  0  0  0  # atno 17394 bound_to 11000
  139.9732  134.7258  156.0000 LP  0  0  0  0  0  0  0  0  0  0  0  0  # atno 17395 bound_to 11000

$$$$
