AV-unprocessed.smi:148|AV-procd|sdf|1231|dock7
  -GOLD-   2262018433D 1   1.00000     0.00000
 Structure written by MMmdl.
 63 67  0  0  0  0  0  0  0  0  1 V2000
  148.3450  142.4106  153.9631 O   0  0  0  0  0  0  0  0  0  0  0  0
  147.9995  141.6112  155.0761 C   0  0  0  0  0  0  0  0  0  0  0  0
  149.1272  140.6029  155.4228 C   0  0  1  0  0  0  0  0  0  0  0  0
  149.3058  139.5340  154.3102 C   0  0  0  0  0  0  0  0  0  0  0  0
  148.0669  138.8827  153.9229 N   0  0  0  0  0  0  0  0  0  0  0  0
  147.3515  139.0904  152.7657 C   0  0  0  0  0  0  0  0  0  0  0  0
  146.2636  138.3790  152.6514 N   0  0  0  0  0  0  0  0  0  0  0  0
  146.2263  137.6235  153.8178 C   0  0  0  0  0  0  0  0  0  0  0  0
  145.3263  136.6583  154.3546 C   0  0  0  0  0  0  0  0  0  0  0  0
  144.1872  136.2362  153.7569 N   0  0  0  0  0  0  0  0  0  0  0  0
  143.0395  136.8856  154.3929 C   0  0  0  0  0  0  0  0  0  0  0  0
  141.7439  136.6462  153.6068 C   0  0  0  0  0  0  0  0  0  0  0  0
  141.5160  135.1459  153.3999 C   0  0  0  0  0  0  0  0  0  0  0  0
  142.7366  134.5316  152.7039 C   0  0  0  0  0  0  0  0  0  0  0  0
  144.0406  134.7895  153.5040 C   0  0  1  0  0  0  0  0  0  0  0  0
  145.3000  134.1326  152.8496 C   0  0  1  0  0  0  0  0  0  0  0  0
  145.2676  132.5927  152.8091 C   0  0  0  0  0  0  0  0  0  0  0  0
  146.0878  132.1687  151.5799 C   0  0  0  0  0  0  0  0  0  0  0  0
  146.6250  133.4600  150.9563 C   0  0  0  0  0  0  0  0  0  0  0  0
  145.6419  134.5402  151.4060 C   0  0  2  0  0  0  0  0  0  0  0  0
  146.2314  135.8204  151.3240 O   0  0  0  0  0  0  0  0  0  0  0  0
  145.6383  136.0948  155.5480 N   0  0  0  0  0  0  0  0  0  0  0  0
  146.7465  136.4674  156.1953 C   0  0  0  0  0  0  0  0  0  0  0  0
  147.6658  137.3631  155.8295 N   0  0  0  0  0  0  0  0  0  0  0  0
  147.3623  137.9195  154.6220 C   0  0  0  0  0  0  0  0  0  0  0  0
  150.4758  141.3005  155.7825 C   0  0  1  0  0  0  0  0  0  0  0  0
  150.4630  142.0807  157.0934 C   0  0  0  0  0  0  0  0  0  0  0  0
  150.7414  141.0113  158.1498 C   0  0  0  0  0  0  0  0  0  0  0  0
  151.4208  139.9612  157.4698 O   0  0  0  0  0  0  0  0  0  0  0  0
  151.6210  140.3321  156.1125 C   0  0  0  0  0  0  0  0  0  0  0  0
  148.4475  143.3035  154.2559 H   0  0  0  0  0  0  0  0  0  0  0  0
  147.7677  142.2620  155.9165 H   0  0  0  0  0  0  0  0  0  0  0  0
  147.0639  141.0971  154.8564 H   0  0  0  0  0  0  0  0  0  0  0  0
  148.7905  140.0705  156.3133 H   0  0  0  0  0  0  0  0  0  0  0  0
  149.7464  139.9892  153.4222 H   0  0  0  0  0  0  0  0  0  0  0  0
  149.9884  138.7469  154.6255 H   0  0  0  0  0  0  0  0  0  0  0  0
  147.6602  139.7956  152.0077 H   0  0  0  0  0  0  0  0  0  0  0  0
  142.9295  136.5016  155.4084 H   0  0  0  0  0  0  0  0  0  0  0  0
  143.2132  137.9596  154.4785 H   0  0  0  0  0  0  0  0  0  0  0  0
  140.8983  137.0861  154.1361 H   0  0  0  0  0  0  0  0  0  0  0  0
  141.8025  137.1478  152.6398 H   0  0  0  0  0  0  0  0  0  0  0  0
  141.3503  134.6573  154.3607 H   0  0  0  0  0  0  0  0  0  0  0  0
  140.6185  134.9810  152.8031 H   0  0  0  0  0  0  0  0  0  0  0  0
  142.5630  133.4660  152.5642 H   0  0  0  0  0  0  0  0  0  0  0  0
  142.8098  134.9661  151.7073 H   0  0  0  0  0  0  0  0  0  0  0  0
  143.9041  134.3166  154.4765 H   0  0  0  0  0  0  0  0  0  0  0  0
  146.1789  134.3611  153.4528 H   0  0  0  0  0  0  0  0  0  0  0  0
  145.6809  132.1744  153.7277 H   0  0  0  0  0  0  0  0  0  0  0  0
  144.2550  132.2029  152.7173 H   0  0  0  0  0  0  0  0  0  0  0  0
  146.8949  131.4835  151.8407 H   0  0  0  0  0  0  0  0  0  0  0  0
  145.4408  131.6543  150.8682 H   0  0  0  0  0  0  0  0  0  0  0  0
  147.6180  133.6671  151.3590 H   0  0  0  0  0  0  0  0  0  0  0  0
  146.7148  133.3978  149.8713 H   0  0  0  0  0  0  0  0  0  0  0  0
  144.7648  134.5023  150.7615 H   0  0  0  0  0  0  0  0  0  0  0  0
  147.1531  135.7398  151.5193 H   0  0  0  0  0  0  0  0  0  0  0  0
  146.9207  135.9793  157.1428 H   0  0  0  0  0  0  0  0  0  0  0  0
  150.7656  141.9520  154.9569 H   0  0  0  0  0  0  0  0  0  0  0  0
  151.2855  142.7979  157.0875 H   0  0  0  0  0  0  0  0  0  0  0  0
  149.5581  142.6495  157.2953 H   0  0  0  0  0  0  0  0  0  0  0  0
  151.3392  141.3995  158.9750 H   0  0  0  0  0  0  0  0  0  0  0  0
  149.8112  140.6171  158.5604 H   0  0  0  0  0  0  0  0  0  0  0  0
  151.6928  139.4601  155.4663 H   0  0  0  0  0  0  0  0  0  0  0  0
  152.5770  140.8536  156.0419 H   0  0  0  0  0  0  0  0  0  0  0  0
  1  2  1  0  0  0  0
  1 31  1  0  0  0  0
  2  3  1  0  0  0  0
  2 32  1  0  0  0  0
  2 33  1  0  0  0  0
  3  4  1  0  0  0  0
  3 26  1  0  0  0  0
  3 34  1  0  0  0  0
  4  5  1  0  0  0  0
  4 35  1  0  0  0  0
  4 36  1  0  0  0  0
  5 25  1  0  0  0  0
  5  6  1  0  0  0  0
  6  7  2  0  0  0  0
  6 37  1  0  0  0  0
  7  8  1  0  0  0  0
  8 25  2  0  0  0  0
  8  9  1  0  0  0  0
  9 10  1  0  0  0  0
  9 22  2  0  0  0  0
 10 15  1  0  0  0  0
 10 11  1  0  0  0  0
 11 12  1  0  0  0  0
 11 38  1  0  0  0  0
 11 39  1  0  0  0  0
 12 13  1  0  0  0  0
 12 40  1  0  0  0  0
 12 41  1  0  0  0  0
 13 14  1  0  0  0  0
 13 42  1  0  0  0  0
 13 43  1  0  0  0  0
 14 15  1  0  0  0  0
 14 44  1  0  0  0  0
 14 45  1  0  0  0  0
 15 16  1  0  0  0  0
 15 46  1  0  0  0  0
 16 20  1  0  0  0  0
 16 17  1  0  0  0  0
 16 47  1  0  0  0  0
 17 18  1  0  0  0  0
 17 48  1  0  0  0  0
 17 49  1  0  0  0  0
 18 19  1  0  0  0  0
 18 50  1  0  0  0  0
 18 51  1  0  0  0  0
 19 20  1  0  0  0  0
 19 52  1  0  0  0  0
 19 53  1  0  0  0  0
 20 21  1  0  0  0  0
 20 54  1  0  0  0  0
 21 55  1  0  0  0  0
 22 23  1  0  0  0  0
 23 24  2  0  0  0  0
 23 56  1  0  0  0  0
 24 25  1  0  0  0  0
 26 30  1  0  0  0  0
 26 27  1  0  0  0  0
 26 57  1  0  0  0  0
 27 28  1  0  0  0  0
 27 58  1  0  0  0  0
 27 59  1  0  0  0  0
 28 29  1  0  0  0  0
 28 60  1  0  0  0  0
 28 61  1  0  0  0  0
 29 30  1  0  0  0  0
 30 62  1  0  0  0  0
 30 63  1  0  0  0  0
M  END
> <s_m_source_file>
AV-unprocessed.smi

> <i_m_source_file_index>
148

> <i_lp_mmshare_version>
43012

> <i_f3d_flags>
0

> <s_epik_input>
W0NIMl0xT1tDSDJdW0NIMl1bQ0BIXTFbQ0BIXShbQ0gyXVtPSF0pW0NIMl1uKFtjSF1uMiljKGMyMyluW2NIXW5jM040W0NIMl1bQ0gyXVtDSDJdW0NIMl1bQ0BIXTRbQ0BASF01W0NIMl1bQ0gyXVtDSDJdW0NASF01W09IXQ==

> <s_epik_cmdline>
J2VwaWtfcHl0aG9uJywgJy1waCcsICc3LjAnLCAnLXRuJywgJzgnLCAnLW1hJywgJzIwMCcsICctbWV0YWxfYmluZGluZycsICctaW1hZScsICc8aW5maWxlLm1hZT4nLCAnLW9tYWUnLCAnPG91dGZpbGUubWFlPic=

> <r_lp_tautomer_probability>
1

> <r_epik_Ionization_Penalty>
0.00556303

> <r_epik_Ionization_Penalty_Charging>
0

> <r_epik_Ionization_Penalty_Neutral>
0.00556303

> <r_epik_State_Penalty>
0.00401767

> <r_epik_Charging_Adjusted_Penalty>
0.00401767

> <i_epik_Tot_Q>
0

> <i_epik_Tot_abs_Q>
0

> <r_epik_Metal_State_Penalty>
-0

> <b_epik_Metal_Only>
0

> <s_lp_Force_Field>
OPLS_2005

> <r_lp_Energy>
69.9352

> <b_lp_Chiralities_Consistent>
1

> <s_lp_Variant>
AV-unprocessed.smi:148-30

> <Gold.Version>
5.8.1

> <Gold.Id.Protein>
6NUR|6NUR_protein|mol2

> <Gold.PLP.Fitness>
49.3293

> <Gold.PLP.PLP>
-41.1814

> <Gold.PLP.part.hbond>
-3.0923

> <Gold.PLP.part.metal>
0.0000

> <Gold.PLP.part.buried>
-5.8844

> <Gold.PLP.part.nonpolar>
-32.5658

> <Gold.PLP.part.repulsive>
0.3830

> <Gold.PLP.ligand.clash>
0.0000

> <Gold.PLP.ligand.torsion>
0.6113

> <Gold.PLP.Chemscore.Hbond>
2.0601

> <Gold.PLP.Chemscore.CHOScore>
0.9070

> <Gold.PLP.Chemscore.Metal>
0.0000

> <Gold.Chemscore.Hbonds>
donor molecule, donor type, donor heavy atom, donor atom, acceptor molecule, acceptor atom, score
      L1  H     1    31       P1  8028  1.00
      L1  H    21    55       P1  7948  1.00
      P1  H  8011  8017       L1     1  0.12
      L1  C     6    37       P1  7957  0.97

> <Gold.PLP.Chemscore.Internal.Correction>
0.4693

> <Gold.Rescore>
     Score         DG    S(hbond)    S(metal)    S(lipo)     H(rot)  DE(clash)    DE(int)     intcor
     13.40     -14.16       1.96        0.00      90.73       3.32       0.12       0.64       ----

> <Gold.Chemscore.Fitness>
13.3954

> <Gold.Chemscore.DG>
-14.1572

> <Gold.Chemscore.ZeroCoef>
-5.4800

> <Gold.Chemscore.Hbond>
1.9647

> <Gold.Chemscore.Metal>
0.0000

> <Gold.Chemscore.Lipo>
90.7288

> <Gold.Chemscore.Internal_Hbond>
0.0000

> <Gold.Chemscore.DEClash>
0.1213

> <Gold.Chemscore.DEInternal>
0.6406

> <Gold.Chemscore.Rot>
3.3203

> <Gold.Chemscore.Internal.Correction>
   9.000000E+99

> <Gold.Chemscore.Hbonds>
donor molecule, donor type, donor heavy atom, donor atom, acceptor molecule, acceptor atom, score
      L1  H     1    31       P1  8028  0.94
      L1  H    21    55       P1  7948  0.99
      P1  H  8011  8017       L1     1  0.02

> <Gold.Chemscore.Hbond.Weighted>
-6.5620

> <Gold.Chemscore.Metal.Weighted>
-0.0000

> <Gold.Chemscore.Lipo.Weighted>
-10.6153

> <Gold.Chemscore.Internal_Hbond.Weighted>
0.0000

> <Gold.Chemscore.DEClash.Weighted>
0.1213

> <Gold.Chemscore.DEInternal.Weighted>
0.6406

> <Gold.Chemscore.Rot.Weighted>
8.5000

> <Gold.Chemscore.Internal.Correction.Weighted>
   9.000000E+99

> <Gold.Protein.RotatedTorsions>
[ 6907 6896 6895 6894 ] final -119.62 input  -60.11 | X-H torsion
[ 7974 7965 7964 7962 ] final   -2.91 input  175.53 | X-H torsion
[ 8008 7997 7996 7995 ] final   -5.88 input   59.86 | X-H torsion
[ 10167 10162 10161 10158 ] final    1.51 input  -65.29 | X-H torsion
[ 10718 10713 10712 10709 ] final -176.81 input   66.30 | X-H torsion
[ 10763 10752 10751 10750 ] final -154.15 input  -60.55 | X-H torsion
[ 11005 11000 10999 10996 ] final -138.60 input  -57.11 | X-H torsion

> <Gold.Protein.ActiveResidues>
 VAL166  LYS551  ARG553  GLY616  TRP617  ASP618  TYR619  PRO620  LYS621  CYS622 
 ASP623  PHE694  ASN695  SER759  ASP760  ASP761  ALA762  ILE779  LEU786  VAL792 
 PHE793  MET794  SER795  GLU796  ALA797  LYS798  CYS799  TRP800  GLU811  SER814 

> <Gold.Protein.RotatedAtoms>
  150.8321  133.8074  159.3094 H   0  0  0  0  0  0  0  0  0  0  0  0  # atno 6907 bound_to 6896
  151.5801  135.1057  160.0024 H   0  0  0  0  0  0  0  0  0  0  0  0  # atno 6908 bound_to 6896
  152.4399  133.7387  159.6685 H   0  0  0  0  0  0  0  0  0  0  0  0  # atno 6909 bound_to 6896
  146.2397  140.1642  142.8332 H   0  0  0  0  0  0  0  0  0  0  0  0  # atno 7974 bound_to 7965
  154.5994  140.2447  155.7813 H   0  0  0  0  0  0  0  0  0  0  0  0  # atno 8008 bound_to 7997
  156.2300  140.2969  156.0118 H   0  0  0  0  0  0  0  0  0  0  0  0  # atno 8009 bound_to 7997
  155.2237  140.0401  157.2942 H   0  0  0  0  0  0  0  0  0  0  0  0  # atno 8010 bound_to 7997
  140.6679  143.7128  150.7864 H   0  0  0  0  0  0  0  0  0  0  0  0  # atno 10167 bound_to 10162
  156.8202  130.9617  151.3112 H   0  0  0  0  0  0  0  0  0  0  0  0  # atno 10718 bound_to 10713
  154.7878  135.3196  154.7846 H   0  0  0  0  0  0  0  0  0  0  0  0  # atno 10763 bound_to 10752
  153.8542  135.6859  153.4793 H   0  0  0  0  0  0  0  0  0  0  0  0  # atno 10764 bound_to 10752
  153.1537  135.4689  154.9612 H   0  0  0  0  0  0  0  0  0  0  0  0  # atno 10765 bound_to 10752
  140.8600  134.2180  157.4712 H   0  0  0  0  0  0  0  0  0  0  0  0  # atno 11005 bound_to 11000
  145.0064  140.8676  143.5250 LP  0  0  0  0  0  0  0  0  0  0  0  0  # atno 17320 bound_to 7965
  145.1669  139.2426  143.5362 LP  0  0  0  0  0  0  0  0  0  0  0  0  # atno 17321 bound_to 7965
  140.0809  143.4970  152.2531 LP  0  0  0  0  0  0  0  0  0  0  0  0  # atno 17342 bound_to 10162
  139.5935  144.7559  151.3342 LP  0  0  0  0  0  0  0  0  0  0  0  0  # atno 17343 bound_to 10162
  157.6461  130.8845  149.9541 LP  0  0  0  0  0  0  0  0  0  0  0  0  # atno 17370 bound_to 10713
  156.0993  130.3657  150.0247 LP  0  0  0  0  0  0  0  0  0  0  0  0  # atno 17371 bound_to 10713
  139.8706  134.9725  156.4775 LP  0  0  0  0  0  0  0  0  0  0  0  0  # atno 17394 bound_to 11000
  140.8693  133.8000  155.9347 LP  0  0  0  0  0  0  0  0  0  0  0  0  # atno 17395 bound_to 11000

$$$$
