AV-unprocessed.smi:1512|AV-procd|sdf|6104|dock7
  -GOLD-   22720 6233D 1   1.00000     0.00000
 Structure written by MMmdl.
 44 46  0  0  0  0  0  0  0  0  3 V2000
  146.1642  131.9684  152.8649 C   0  0  0  0  0  0  0  0  0  0  0  0
  145.7916  130.8136  151.9196 C   0  0  2  0  0  0  0  0  0  0  0  0
  146.9543  129.9652  151.6845 N   0  0  0  0  0  0  0  0  0  0  0  0
  147.0613  128.6630  151.9978 C   0  0  0  0  0  0  0  0  0  0  0  0
  146.2002  128.0535  152.6304 O   0  0  0  0  0  0  0  0  0  0  0  0
  148.3088  127.9084  151.5044 C   0  0  0  0  0  0  0  0  0  0  0  0
  148.3418  126.4785  151.8693 N   0  0  0  0  0  0  0  0  0  0  0  0
  148.2946  125.5482  150.8144 C   0  0  0  0  0  0  0  0  0  0  0  0
  148.2854  124.2260  151.0359 C   0  0  0  0  0  0  0  0  0  0  0  0
  148.3087  123.7618  152.4015 C   0  0  0  0  0  0  0  0  0  0  0  0
  148.3552  124.6372  153.4317 C   0  0  0  0  0  0  0  0  0  0  0  0
  148.3408  124.1085  154.7753 N   0  3  0  0  0  0  0  0  0  0  0  0
  148.2988  122.8920  154.9313 O   0  0  0  0  0  0  0  0  0  0  0  0
  148.3895  124.8962  155.7152 O   0  5  0  0  0  0  0  0  0  0  0  0
  148.4004  126.0922  153.1826 C   0  0  0  0  0  0  0  0  0  0  0  0
  148.4764  126.9230  154.0897 O   0  0  0  0  0  0  0  0  0  0  0  0
  145.2501  131.3250  150.5632 C   0  0  2  0  0  0  0  0  0  0  0  0
  146.0512  132.4927  149.9455 C   0  0  0  0  0  0  0  0  0  0  0  0
  144.9565  133.5221  149.6059 C   0  0  2  0  0  0  0  0  0  0  0  0
  144.4535  134.1717  150.9084 C   0  0  0  0  0  0  0  0  0  0  0  0
  143.6315  133.0419  151.5548 C   0  0  0  0  0  0  0  0  0  0  0  0
  143.8025  131.8816  150.5536 C   0  0  1  0  0  0  0  0  0  0  0  0
  143.7809  132.6299  149.2253 C   0  0  0  0  0  0  0  0  0  0  0  0
  145.3055  132.6101  153.0617 H   0  0  0  0  0  0  0  0  0  0  0  0
  146.9539  132.5900  152.4411 H   0  0  0  0  0  0  0  0  0  0  0  0
  146.5163  131.5939  153.8265 H   0  0  0  0  0  0  0  0  0  0  0  0
  145.0162  130.2169  152.4030 H   0  0  0  0  0  0  0  0  0  0  0  0
  147.7169  130.3859  151.1739 H   0  0  0  0  0  0  0  0  0  0  0  0
  148.3666  128.0317  150.4222 H   0  0  0  0  0  0  0  0  0  0  0  0
  149.1966  128.4104  151.8929 H   0  0  0  0  0  0  0  0  0  0  0  0
  148.2648  125.9749  149.8221 H   0  0  0  0  0  0  0  0  0  0  0  0
  148.2492  123.5264  150.2138 H   0  0  0  0  0  0  0  0  0  0  0  0
  148.2654  122.6990  152.5907 H   0  0  0  0  0  0  0  0  0  0  0  0
  145.2732  130.4892  149.8613 H   0  0  0  0  0  0  0  0  0  0  0  0
  146.7970  132.9072  150.6252 H   0  0  0  0  0  0  0  0  0  0  0  0
  146.5724  132.1639  149.0457 H   0  0  0  0  0  0  0  0  0  0  0  0
  145.2551  134.2436  148.8448 H   0  0  0  0  0  0  0  0  0  0  0  0
  145.2719  134.5076  151.5463 H   0  0  0  0  0  0  0  0  0  0  0  0
  143.8194  135.0335  150.6961 H   0  0  0  0  0  0  0  0  0  0  0  0
  143.9670  132.7973  152.5623 H   0  0  0  0  0  0  0  0  0  0  0  0
  142.5818  133.3300  151.6256 H   0  0  0  0  0  0  0  0  0  0  0  0
  143.0363  131.1114  150.6444 H   0  0  0  0  0  0  0  0  0  0  0  0
  142.8548  133.1816  149.0533 H   0  0  0  0  0  0  0  0  0  0  0  0
  143.9823  131.9919  148.3628 H   0  0  0  0  0  0  0  0  0  0  0  0
  1  2  1  0  0  0  0
  1 24  1  0  0  0  0
  1 25  1  0  0  0  0
  1 26  1  0  0  0  0
  2  3  1  0  0  0  0
  2 17  1  0  0  0  0
  2 27  1  0  0  0  0
  3  4  1  0  0  0  0
  3 28  1  0  0  0  0
  4  5  2  0  0  0  0
  4  6  1  0  0  0  0
  6  7  1  0  0  0  0
  6 29  1  0  0  0  0
  6 30  1  0  0  0  0
  7 15  1  0  0  0  0
  7  8  1  0  0  0  0
  8  9  2  0  0  0  0
  8 31  1  0  0  0  0
  9 10  1  0  0  0  0
  9 32  1  0  0  0  0
 10 11  2  0  0  0  0
 10 33  1  0  0  0  0
 11 12  1  0  0  0  0
 11 15  1  0  0  0  0
 12 13  2  0  0  0  0
 12 14  1  0  0  0  0
 15 16  2  0  0  0  0
 17 22  1  0  0  0  0
 17 18  1  0  0  0  0
 17 34  1  0  0  0  0
 18 19  1  0  0  0  0
 18 35  1  0  0  0  0
 18 36  1  0  0  0  0
 19 23  1  0  0  0  0
 19 20  1  0  0  0  0
 19 37  1  0  0  0  0
 20 21  1  0  0  0  0
 20 38  1  0  0  0  0
 20 39  1  0  0  0  0
 21 22  1  0  0  0  0
 21 40  1  0  0  0  0
 21 41  1  0  0  0  0
 22 23  1  0  0  0  0
 22 42  1  0  0  0  0
 23 43  1  0  0  0  0
 23 44  1  0  0  0  0
M  CHG  1  12   1
M  CHG  1  14  -1
M  END
> <s_m_source_file>
AV-unprocessed.smi

> <i_m_source_file_index>
1512

> <i_lp_mmshare_version>
43012

> <i_f3d_flags>
0

> <s_epik_input>
W0NIMl0xW0NIMl1bQ0BIXShbQ0gyXTIpW0NAQEhdKFtDSDJdW0NAQEhdMTIpW0NASF0oW0NIM10pW05IXUMoPU8pW0NIMl1uM1tjSF1bY0hdW2NIXWMoW04rXSg9TylbTy1dKWMzPU8=

> <s_epik_cmdline>
J2VwaWtfcHl0aG9uJywgJy1waCcsICc3LjAnLCAnLXRuJywgJzgnLCAnLW1hJywgJzIwMCcsICctbWV0YWxfYmluZGluZycsICctaW1hZScsICc8aW5maWxlLm1hZT4nLCAnLW9tYWUnLCAnPG91dGZpbGUubWFlPic=

> <r_lp_tautomer_probability>
1

> <r_epik_Ionization_Penalty>
2.17697e-08

> <r_epik_Ionization_Penalty_Charging>
1.42735e-10

> <r_epik_Ionization_Penalty_Neutral>
2.16269e-08

> <r_epik_State_Penalty>
-0

> <r_epik_Charging_Adjusted_Penalty>
1.42735e-10

> <i_epik_Tot_Q>
0

> <i_epik_Tot_abs_Q>
2

> <r_epik_Metal_State_Penalty>
-0

> <b_epik_Metal_Only>
0

> <s_lp_Force_Field>
OPLS_2005

> <r_lp_Energy>
63.3532

> <b_lp_Chiralities_Consistent>
1

> <s_lp_Variant>
AV-unprocessed.smi:1512-5

> <Gold.Version>
5.8.1

> <Gold.Id.Protein>
6NUR|6NUR_protein|mol2

> <Gold.PLP.Fitness>
43.3208

> <Gold.PLP.PLP>
-40.8680

> <Gold.PLP.part.hbond>
-1.0000

> <Gold.PLP.part.metal>
0.0000

> <Gold.PLP.part.buried>
-1.7377

> <Gold.PLP.part.nonpolar>
-38.0047

> <Gold.PLP.part.repulsive>
0.1535

> <Gold.PLP.ligand.clash>
0.0000

> <Gold.PLP.ligand.torsion>
0.2940

> <Gold.PLP.Chemscore.Hbond>
1.0000

> <Gold.PLP.Chemscore.CHOScore>
0.0000

> <Gold.PLP.Chemscore.Metal>
0.0000

> <Gold.Chemscore.Hbonds>
donor molecule, donor type, donor heavy atom, donor atom, acceptor molecule, acceptor atom, score
      L1  H     3    28       P1 10747  1.00

> <Gold.PLP.Chemscore.Internal.Correction>
0.0408

> <Gold.Rescore>
     Score         DG    S(hbond)    S(metal)    S(lipo)     H(rot)  DE(clash)    DE(int)     intcor
     10.09     -16.75       1.00        0.00     106.00       1.75       0.21       6.44       ----

> <Gold.Chemscore.Fitness>
10.0946

> <Gold.Chemscore.DG>
-16.7455

> <Gold.Chemscore.ZeroCoef>
-5.4800

> <Gold.Chemscore.Hbond>
0.9991

> <Gold.Chemscore.Metal>
0.0000

> <Gold.Chemscore.Lipo>
105.9995

> <Gold.Chemscore.Internal_Hbond>
0.0000

> <Gold.Chemscore.DEClash>
0.2081

> <Gold.Chemscore.DEInternal>
6.4428

> <Gold.Chemscore.Rot>
1.7474

> <Gold.Chemscore.Internal.Correction>
   9.000000E+99

> <Gold.Chemscore.Hbonds>
donor molecule, donor type, donor heavy atom, donor atom, acceptor molecule, acceptor atom, score
      L1  H     3    28       P1 10747  0.99

> <Gold.Chemscore.Hbond.Weighted>
-3.3369

> <Gold.Chemscore.Metal.Weighted>
-0.0000

> <Gold.Chemscore.Lipo.Weighted>
-12.4019

> <Gold.Chemscore.Internal_Hbond.Weighted>
0.0000

> <Gold.Chemscore.DEClash.Weighted>
0.2081

> <Gold.Chemscore.DEInternal.Weighted>
6.4428

> <Gold.Chemscore.Rot.Weighted>
4.4733

> <Gold.Chemscore.Internal.Correction.Weighted>
   9.000000E+99

> <Gold.Protein.RotatedTorsions>
[ 6907 6896 6895 6894 ] final  -43.78 input  -60.11 | X-H torsion
[ 7974 7965 7964 7962 ] final -177.11 input  175.53 | X-H torsion
[ 8008 7997 7996 7995 ] final  106.84 input   59.86 | X-H torsion
[ 10167 10162 10161 10158 ] final  -96.09 input  -65.29 | X-H torsion
[ 10718 10713 10712 10709 ] final  -42.06 input   66.30 | X-H torsion
[ 10763 10752 10751 10750 ] final  -52.01 input  -60.55 | X-H torsion
[ 11005 11000 10999 10996 ] final  -75.25 input  -57.11 | X-H torsion

> <Gold.Protein.ActiveResidues>
 VAL166  LYS551  ARG553  GLY616  TRP617  ASP618  TYR619  PRO620  LYS621  CYS622 
 ASP623  PHE694  ASN695  SER759  ASP760  ASP761  ALA762  ILE779  LEU786  VAL792 
 PHE793  MET794  SER795  GLU796  ALA797  LYS798  CYS799  TRP800  GLU811  SER814 

> <Gold.Protein.RotatedAtoms>
  150.9401  134.8811  159.7606 H   0  0  0  0  0  0  0  0  0  0  0  0  # atno 6907 bound_to 6896
  152.5076  134.3954  159.9408 H   0  0  0  0  0  0  0  0  0  0  0  0  # atno 6908 bound_to 6896
  151.3975  133.3728  159.2763 H   0  0  0  0  0  0  0  0  0  0  0  0  # atno 6909 bound_to 6896
  144.7127  140.1068  143.6413 H   0  0  0  0  0  0  0  0  0  0  0  0  # atno 7974 bound_to 7965
  156.1776  140.3105  155.9087 H   0  0  0  0  0  0  0  0  0  0  0  0  # atno 8008 bound_to 7997
  155.3454  140.0468  157.3062 H   0  0  0  0  0  0  0  0  0  0  0  0  # atno 8009 bound_to 7997
  154.5307  140.2229  155.8820 H   0  0  0  0  0  0  0  0  0  0  0  0  # atno 8010 bound_to 7997
  140.2974  143.3183  152.0283 H   0  0  0  0  0  0  0  0  0  0  0  0  # atno 10167 bound_to 10162
  156.2636  130.4199  149.8515 H   0  0  0  0  0  0  0  0  0  0  0  0  # atno 10718 bound_to 10713
  154.1359  135.6513  153.4932 H   0  0  0  0  0  0  0  0  0  0  0  0  # atno 10763 bound_to 10752
  153.0181  135.5304  154.6954 H   0  0  0  0  0  0  0  0  0  0  0  0  # atno 10764 bound_to 10752
  154.6202  135.2964  155.0305 H   0  0  0  0  0  0  0  0  0  0  0  0  # atno 10765 bound_to 10752
  141.1643  133.6940  156.7488 H   0  0  0  0  0  0  0  0  0  0  0  0  # atno 11005 bound_to 11000
  145.9489  139.2720  143.1224 LP  0  0  0  0  0  0  0  0  0  0  0  0  # atno 17320 bound_to 7965
  145.9344  140.9025  143.0340 LP  0  0  0  0  0  0  0  0  0  0  0  0  # atno 17321 bound_to 7965
  139.4923  144.6481  151.6736 LP  0  0  0  0  0  0  0  0  0  0  0  0  # atno 17342 bound_to 10162
  140.5680  144.0157  150.6202 LP  0  0  0  0  0  0  0  0  0  0  0  0  # atno 17343 bound_to 10162
  156.6021  130.8551  151.3434 LP  0  0  0  0  0  0  0  0  0  0  0  0  # atno 17370 bound_to 10713
  157.7259  130.9622  150.1635 LP  0  0  0  0  0  0  0  0  0  0  0  0  # atno 17371 bound_to 10713
  140.2619  134.8460  157.3767 LP  0  0  0  0  0  0  0  0  0  0  0  0  # atno 17394 bound_to 11000
  140.1603  134.4737  155.7899 LP  0  0  0  0  0  0  0  0  0  0  0  0  # atno 17395 bound_to 11000

$$$$
