AV-unprocessed.smi:37|AV-procd|sdf|304|dock2
  -GOLD-   2262016113D 1   1.00000     0.00000
 Structure written by MMmdl.
 44 45  0  0  0  0  0  0  0  0  1 V2000
  146.5022  135.2447  162.5814 C   0  0  0  0  0  0  0  0  0  0  0  0
  147.8692  135.4499  161.9143 C   0  0  0  0  0  0  0  0  0  0  0  0
  147.8361  136.5473  160.8530 C   0  0  0  0  0  0  0  0  0  0  0  0
  146.8214  137.2134  160.6477 O   0  0  0  0  0  0  0  0  0  0  0  0
  149.0018  136.6683  160.2025 O   0  0  0  0  0  0  0  0  0  0  0  0
  149.1059  137.5404  159.0896 C   0  0  0  0  0  0  0  0  0  0  0  0
  150.4490  137.3382  158.3670 C   0  0  1  0  0  0  0  0  0  0  0  0
  150.6775  135.9494  158.1426 O   0  0  0  0  0  0  0  0  0  0  0  0
  151.4967  135.8328  157.0219 C   0  0  1  0  0  0  0  0  0  0  0  0
  151.5252  134.3904  156.5458 N   0  0  0  0  0  0  0  0  0  0  0  0
  151.0680  134.0250  155.2836 C   0  0  0  0  0  0  0  0  0  0  0  0
  151.1316  132.7590  154.8075 C   0  0  0  0  0  0  0  0  0  0  0  0
  150.6645  132.4888  153.5767 F   0  0  0  0  0  0  0  0  0  0  0  0
  151.7275  131.6930  155.6052 C   0  0  0  0  0  0  0  0  0  0  0  0
  151.8171  130.5141  155.2685 O   0  0  0  0  0  0  0  0  0  0  0  0
  152.2370  132.1142  156.8359 N   0  0  0  0  0  0  0  0  0  0  0  0
  152.1898  133.4185  157.3318 C   0  0  0  0  0  0  0  0  0  0  0  0
  152.7246  133.6754  158.4094 O   0  0  0  0  0  0  0  0  0  0  0  0
  150.8496  136.8307  156.0498 C   0  0  1  0  0  0  0  0  0  0  0  0
  149.0862  136.1614  155.3703 Br  0  0  0  0  0  0  0  0  0  0  0  0
  150.6275  138.0147  156.9902 C   0  0  1  0  0  0  0  0  0  0  0  0
  149.5435  138.8536  156.6027 O   0  0  0  0  0  0  0  0  0  0  0  0
  149.5864  139.5300  155.4425 C   0  0  0  0  0  0  0  0  0  0  0  0
  150.5612  139.6077  154.6924 O   0  0  0  0  0  0  0  0  0  0  0  0
  148.2518  140.2094  155.1294 C   0  0  0  0  0  0  0  0  0  0  0  0
  148.2399  140.9477  153.7827 C   0  0  0  0  0  0  0  0  0  0  0  0
  152.6915  131.4184  157.4093 H   0  0  0  0  0  0  0  0  0  0  0  0
  146.5483  134.4326  163.3069 H   0  0  0  0  0  0  0  0  0  0  0  0
  145.7378  134.9889  161.8469 H   0  0  0  0  0  0  0  0  0  0  0  0
  146.1749  136.1404  163.1107 H   0  0  0  0  0  0  0  0  0  0  0  0
  148.6157  135.7097  162.6654 H   0  0  0  0  0  0  0  0  0  0  0  0
  148.1972  134.5198  161.4497 H   0  0  0  0  0  0  0  0  0  0  0  0
  148.2838  137.3573  158.3960 H   0  0  0  0  0  0  0  0  0  0  0  0
  149.0179  138.5727  159.4302 H   0  0  0  0  0  0  0  0  0  0  0  0
  151.2430  137.6977  159.0228 H   0  0  0  0  0  0  0  0  0  0  0  0
  152.5345  136.0731  157.2635 H   0  0  0  0  0  0  0  0  0  0  0  0
  150.6486  134.7708  154.6261 H   0  0  0  0  0  0  0  0  0  0  0  0
  151.4971  137.0650  155.2048 H   0  0  0  0  0  0  0  0  0  0  0  0
  151.5461  138.6020  157.0400 H   0  0  0  0  0  0  0  0  0  0  0  0
  147.4690  139.4507  155.1386 H   0  0  0  0  0  0  0  0  0  0  0  0
  148.0217  140.9083  155.9339 H   0  0  0  0  0  0  0  0  0  0  0  0
  147.2667  141.4054  153.6053 H   0  0  0  0  0  0  0  0  0  0  0  0
  148.4402  140.2675  152.9539 H   0  0  0  0  0  0  0  0  0  0  0  0
  148.9868  141.7420  153.7574 H   0  0  0  0  0  0  0  0  0  0  0  0
  1  2  1  0  0  0  0
  1 28  1  0  0  0  0
  1 29  1  0  0  0  0
  1 30  1  0  0  0  0
  2  3  1  0  0  0  0
  2 31  1  0  0  0  0
  2 32  1  0  0  0  0
  3  4  2  0  0  0  0
  3  5  1  0  0  0  0
  5  6  1  0  0  0  0
  6  7  1  0  0  0  0
  6 33  1  0  0  0  0
  6 34  1  0  0  0  0
  7 21  1  0  0  0  0
  7  8  1  0  0  0  0
  7 35  1  0  0  0  0
  8  9  1  0  0  0  0
  9 10  1  0  0  0  0
  9 19  1  0  0  0  0
  9 36  1  0  0  0  0
 10 17  1  0  0  0  0
 10 11  1  0  0  0  0
 11 12  2  0  0  0  0
 11 37  1  0  0  0  0
 12 13  1  0  0  0  0
 12 14  1  0  0  0  0
 14 15  2  0  0  0  0
 14 16  1  0  0  0  0
 16 27  1  0  0  0  0
 16 17  1  0  0  0  0
 17 18  2  0  0  0  0
 19 20  1  0  0  0  0
 19 21  1  0  0  0  0
 19 38  1  0  0  0  0
 21 22  1  0  0  0  0
 21 39  1  0  0  0  0
 22 23  1  0  0  0  0
 23 24  2  0  0  0  0
 23 25  1  0  0  0  0
 25 26  1  0  0  0  0
 25 40  1  0  0  0  0
 25 41  1  0  0  0  0
 26 42  1  0  0  0  0
 26 43  1  0  0  0  0
 26 44  1  0  0  0  0
M  END
> <s_m_source_file>
AV-unprocessed.smi

> <i_m_source_file_index>
37

> <i_lp_mmshare_version>
43012

> <i_f3d_flags>
0

> <s_epik_input>
W0NIM11bQ0gyXUMoPU8pT1tDSDJdW0NAQEhdMU9bQ0BASF0objJbY0hdYyhGKWMoPU8pW25IXWMyPU8pW0NAQEhdKEJyKVtDQEhdMU9DKD1PKVtDSDJdW0NIM10=

> <s_epik_cmdline>
J2VwaWtfcHl0aG9uJywgJy1waCcsICc3LjAnLCAnLXRuJywgJzgnLCAnLW1hJywgJzIwMCcsICctbWV0YWxfYmluZGluZycsICctaW1hZScsICc8aW5maWxlLm1hZT4nLCAnLW9tYWUnLCAnPG91dGZpbGUubWFlPic=

> <r_lp_tautomer_probability>
0.999537

> <r_epik_Ionization_Penalty>
0.104106

> <r_epik_Ionization_Penalty_Charging>
0.104106

> <r_epik_Ionization_Penalty_Neutral>
3.94675e-16

> <r_epik_State_Penalty>
0.0940182

> <r_epik_Charging_Adjusted_Penalty>
0.198124

> <i_epik_Tot_Q>
0

> <i_epik_Tot_abs_Q>
0

> <r_epik_Metal_State_Penalty>
3.05314

> <b_epik_Metal_Only>
0

> <s_epik_Chemistry_Notes>
This compound has an ester and may undergo hydrolysis at high or low pH. This compound contains an acetal/aminal-like group ( X-CH(R)-Y where X, Y are N, S, or O) that may be acid/base labile, releasing an aldehyde.

> <s_lp_Force_Field>
OPLS_2005

> <r_lp_Energy>
30.4871

> <b_lp_Chiralities_Consistent>
1

> <s_lp_Variant>
AV-unprocessed.smi:37-2

> <Gold.Version>
5.8.1

> <Gold.Id.Protein>
6NUR|6NUR_protein|mol2

> <Gold.PLP.Fitness>
49.4401

> <Gold.PLP.PLP>
-40.0493

> <Gold.PLP.part.hbond>
-4.8347

> <Gold.PLP.part.metal>
0.0000

> <Gold.PLP.part.buried>
-5.4709

> <Gold.PLP.part.nonpolar>
-30.7420

> <Gold.PLP.part.repulsive>
0.1664

> <Gold.PLP.ligand.clash>
2.7807

> <Gold.PLP.ligand.torsion>
0.2772

> <Gold.PLP.Chemscore.Hbond>
3.1532

> <Gold.PLP.Chemscore.CHOScore>
0.9809

> <Gold.PLP.Chemscore.Metal>
0.0000

> <Gold.Chemscore.Hbonds>
donor molecule, donor type, donor heavy atom, donor atom, acceptor molecule, acceptor atom, score
      P1  H  6896  6908       L1    18  0.11
      P1  H  6896  6909       L1     8  0.61
      P1  H  6934  6947       L1     4  1.00
      P1  H  7989  7998       L1    24  0.98

> <Gold.PLP.Chemscore.Internal.Correction>
0.3237

> <Gold.Rescore>
     Score         DG    S(hbond)    S(metal)    S(lipo)     H(rot)  DE(clash)    DE(int)     intcor
     12.59     -14.37       3.17        0.00      58.33       3.33       0.08       1.70       ----

> <Gold.Chemscore.Fitness>
12.5888

> <Gold.Chemscore.DG>
-14.3731

> <Gold.Chemscore.ZeroCoef>
-5.4800

> <Gold.Chemscore.Hbond>
3.1717

> <Gold.Chemscore.Metal>
0.0000

> <Gold.Chemscore.Lipo>
58.3349

> <Gold.Chemscore.Internal_Hbond>
0.0000

> <Gold.Chemscore.DEClash>
0.0822

> <Gold.Chemscore.DEInternal>
1.7021

> <Gold.Chemscore.Rot>
3.3303

> <Gold.Chemscore.Internal.Correction>
   9.000000E+99

> <Gold.Chemscore.Hbonds>
donor molecule, donor type, donor heavy atom, donor atom, acceptor molecule, acceptor atom, score
      P1  H  6896  6908       L1    18  0.04
      P1  H  6896  6909       L1     8  0.59
      P1  H  6934  6947       L1     4  0.74
      P1  H  7989  7998       L1    24  0.92

> <Gold.Chemscore.Hbond.Weighted>
-10.5935

> <Gold.Chemscore.Metal.Weighted>
-0.0000

> <Gold.Chemscore.Lipo.Weighted>
-6.8252

> <Gold.Chemscore.Internal_Hbond.Weighted>
0.0000

> <Gold.Chemscore.DEClash.Weighted>
0.0822

> <Gold.Chemscore.DEInternal.Weighted>
1.7021

> <Gold.Chemscore.Rot.Weighted>
8.5256

> <Gold.Chemscore.Internal.Correction.Weighted>
   9.000000E+99

> <Gold.Protein.RotatedTorsions>
[ 6907 6896 6895 6894 ] final   57.68 input  -60.11 | X-H torsion
[ 7974 7965 7964 7962 ] final  105.84 input  175.53 | X-H torsion
[ 8008 7997 7996 7995 ] final -118.58 input   59.86 | X-H torsion
[ 10167 10162 10161 10158 ] final  -36.20 input  -65.29 | X-H torsion
[ 10718 10713 10712 10709 ] final  134.61 input   66.30 | X-H torsion
[ 10763 10752 10751 10750 ] final -101.65 input  -60.55 | X-H torsion
[ 11005 11000 10999 10996 ] final   58.94 input  -57.11 | X-H torsion

> <Gold.Protein.ActiveResidues>
 VAL166  LYS551  ARG553  GLY616  TRP617  ASP618  TYR619  PRO620  LYS621  CYS622 
 ASP623  PHE694  ASN695  SER759  ASP760  ASP761  ALA762  ILE779  LEU786  VAL792 
 PHE793  MET794  SER795  GLU796  ALA797  LYS798  CYS799  TRP800  GLU811  SER814 

> <Gold.Protein.RotatedAtoms>
  152.3754  134.6671  160.0161 H   0  0  0  0  0  0  0  0  0  0  0  0  # atno 6907 bound_to 6896
  151.6951  133.3305  159.3260 H   0  0  0  0  0  0  0  0  0  0  0  0  # atno 6908 bound_to 6896
  150.7706  134.6600  159.6379 H   0  0  0  0  0  0  0  0  0  0  0  0  # atno 6909 bound_to 6896
  145.3144  139.2531  143.3745 H   0  0  0  0  0  0  0  0  0  0  0  0  # atno 7974 bound_to 7965
  155.1020  140.0396  157.2699 H   0  0  0  0  0  0  0  0  0  0  0  0  # atno 8008 bound_to 7997
  154.6751  140.2621  155.6941 H   0  0  0  0  0  0  0  0  0  0  0  0  # atno 8009 bound_to 7997
  156.2673  140.2790  156.1274 H   0  0  0  0  0  0  0  0  0  0  0  0  # atno 8010 bound_to 7997
  140.7148  143.3424  151.2328 H   0  0  0  0  0  0  0  0  0  0  0  0  # atno 10167 bound_to 10162
  157.4655  131.1076  150.9868 H   0  0  0  0  0  0  0  0  0  0  0  0  # atno 10718 bound_to 10713
  154.7674  135.4890  153.9581 H   0  0  0  0  0  0  0  0  0  0  0  0  # atno 10763 bound_to 10752
  153.1324  135.6755  153.9164 H   0  0  0  0  0  0  0  0  0  0  0  0  # atno 10764 bound_to 10752
  153.8863  135.3126  155.3425 H   0  0  0  0  0  0  0  0  0  0  0  0  # atno 10765 bound_to 10752
  140.0340  134.5970  155.9469 H   0  0  0  0  0  0  0  0  0  0  0  0  # atno 11005 bound_to 11000
  146.3106  140.3688  142.8672 LP  0  0  0  0  0  0  0  0  0  0  0  0  # atno 17320 bound_to 7965
  144.8989  140.7618  143.5879 LP  0  0  0  0  0  0  0  0  0  0  0  0  # atno 17321 bound_to 7965
  139.6935  143.9651  152.2871 LP  0  0  0  0  0  0  0  0  0  0  0  0  # atno 17342 bound_to 10162
  139.9321  144.6735  150.8352 LP  0  0  0  0  0  0  0  0  0  0  0  0  # atno 17343 bound_to 10162
  157.0650  130.5841  149.5392 LP  0  0  0  0  0  0  0  0  0  0  0  0  # atno 17370 bound_to 10713
  156.0048  130.5133  150.7792 LP  0  0  0  0  0  0  0  0  0  0  0  0  # atno 17371 bound_to 10713
  141.1847  133.6553  156.5167 LP  0  0  0  0  0  0  0  0  0  0  0  0  # atno 17394 bound_to 11000
  140.4178  134.7214  157.4873 LP  0  0  0  0  0  0  0  0  0  0  0  0  # atno 17395 bound_to 11000

$$$$
