AV-unprocessed.smi:2527|AV-procd|sdf|9947|dock1
  -GOLD-   2272013583D 1   1.00000     0.00000
 Structure written by MMmdl.
 36 38  0  0  0  0  0  0  0  0  3 V2000
  151.1026  137.5014  154.4001 C   0  0  0  0  0  0  0  0  0  0  0  0
  152.4235  137.9499  154.6466 O   0  0  0  0  0  0  0  0  0  0  0  0
  152.4618  139.2694  155.1661 C   0  0  0  0  0  0  0  0  0  0  0  0
  151.7039  139.3293  156.5000 C   0  0  0  0  0  0  0  0  0  0  0  0
  151.2444  140.6892  156.8178 N   0  0  0  0  0  0  0  0  0  0  0  0
  150.4380  141.5304  156.1120 C   0  0  0  0  0  0  0  0  0  0  0  0
  149.6975  141.1941  154.5472 S   0  0  0  0  0  0  0  0  0  0  0  0
  147.9138  141.0998  154.8607 C   0  0  0  0  0  0  0  0  0  0  0  0
  147.1905  140.1325  153.9698 C   0  0  0  0  0  0  0  0  0  0  0  0
  147.6653  139.9059  152.7163 N   0  5  0  0  0  0  0  0  0  0  0  0
  146.8048  139.0060  152.2072 C   0  0  0  0  0  0  0  0  0  0  0  0
  146.7917  138.4728  151.0999 O   0  0  0  0  0  0  0  0  0  0  0  0
  145.8980  138.7606  153.1557 N   0  0  0  0  0  0  0  0  0  0  0  0
  146.1373  139.4696  154.2714 N   0  0  0  0  0  0  0  0  0  0  0  0
  150.3039  142.6768  156.8345 N   0  3  0  0  0  0  0  0  0  0  0  0
  151.0299  142.5672  158.0219 C   0  0  0  0  0  0  0  0  0  0  0  0
  151.1963  143.4633  159.0733 C   0  0  0  0  0  0  0  0  0  0  0  0
  152.0036  143.0377  160.1490 C   0  0  0  0  0  0  0  0  0  0  0  0
  152.2526  144.0951  161.4890 Cl  0  0  0  0  0  0  0  0  0  0  0  0
  152.6088  141.7638  160.1501 C   0  0  0  0  0  0  0  0  0  0  0  0
  152.4344  140.8634  159.0787 C   0  0  0  0  0  0  0  0  0  0  0  0
  151.6357  141.2929  158.0188 C   0  0  0  0  0  0  0  0  0  0  0  0
  145.1090  138.1326  153.1114 H   0  0  0  0  0  0  0  0  0  0  0  0
  151.1284  136.4872  154.0018 H   0  0  0  0  0  0  0  0  0  0  0  0
  150.5995  138.1374  153.6705 H   0  0  0  0  0  0  0  0  0  0  0  0
  150.5136  137.4879  155.3181 H   0  0  0  0  0  0  0  0  0  0  0  0
  153.4965  139.5810  155.3158 H   0  0  0  0  0  0  0  0  0  0  0  0
  152.0125  139.9639  154.4541 H   0  0  0  0  0  0  0  0  0  0  0  0
  150.8506  138.6513  156.4983 H   0  0  0  0  0  0  0  0  0  0  0  0
  152.3527  139.0007  157.3123 H   0  0  0  0  0  0  0  0  0  0  0  0
  147.7640  140.8185  155.9035 H   0  0  0  0  0  0  0  0  0  0  0  0
  147.4903  142.0988  154.7482 H   0  0  0  0  0  0  0  0  0  0  0  0
  150.7315  144.4384  159.0738 H   0  0  0  0  0  0  0  0  0  0  0  0
  153.2195  141.4687  160.9910 H   0  0  0  0  0  0  0  0  0  0  0  0
  152.8984  139.8885  159.0951 H   0  0  0  0  0  0  0  0  0  0  0  0
  149.7556  143.4722  156.5332 H   0  0  0  0  0  0  0  0  0  0  0  0
  1  2  1  0  0  0  0
  1 24  1  0  0  0  0
  1 25  1  0  0  0  0
  1 26  1  0  0  0  0
  2  3  1  0  0  0  0
  3  4  1  0  0  0  0
  3 27  1  0  0  0  0
  3 28  1  0  0  0  0
  4  5  1  0  0  0  0
  4 29  1  0  0  0  0
  4 30  1  0  0  0  0
  5 22  1  0  0  0  0
  5  6  1  0  0  0  0
  6  7  1  0  0  0  0
  6 15  2  0  0  0  0
  7  8  1  0  0  0  0
  8 31  1  0  0  0  0
  8 32  1  0  0  0  0
  8  9  1  0  0  0  0
  9 14  2  0  0  0  0
  9 10  1  0  0  0  0
 10 11  1  0  0  0  0
 11 13  1  0  0  0  0
 11 12  2  0  0  0  0
 13 14  1  0  0  0  0
 13 23  1  0  0  0  0
 15 16  1  0  0  0  0
 15 36  1  0  0  0  0
 16 22  2  0  0  0  0
 16 17  1  0  0  0  0
 17 18  2  0  0  0  0
 17 33  1  0  0  0  0
 18 19  1  0  0  0  0
 18 20  1  0  0  0  0
 20 21  2  0  0  0  0
 20 34  1  0  0  0  0
 21 22  1  0  0  0  0
 21 35  1  0  0  0  0
M  CHG  1  10  -1
M  CHG  1  15   1
M  END
> <s_m_source_file>
AV-unprocessed.smi

> <i_m_source_file_index>
2527

> <i_lp_mmshare_version>
43012

> <i_f3d_flags>
0

> <s_epik_input>
W2NIXTFjKENsKVtjSF1bY0hdYyhjMTIpbihbQ0gyXVtDSDJdT1tDSDNdKWMobjIpU1tDSDJdYzNuYyg9TylbbkhdW25IXTM=

> <s_epik_cmdline>
J2VwaWtfcHl0aG9uJywgJy1waCcsICc3LjAnLCAnLXRuJywgJzgnLCAnLW1hJywgJzIwMCcsICctbWV0YWxfYmluZGluZycsICctaW1hZScsICc8aW5maWxlLm1hZT4nLCAnLW9tYWUnLCAnPG91dGZpbGUubWFlPic=

> <r_lp_tautomer_probability>
0.999897

> <r_epik_Ionization_Penalty>
3.64286

> <r_epik_Ionization_Penalty_Charging>
2.48685

> <r_epik_Ionization_Penalty_Neutral>
1.15601

> <r_epik_State_Penalty>
3.71863

> <r_epik_Charging_Adjusted_Penalty>
6.20549

> <i_epik_Tot_Q>
0

> <i_epik_Tot_abs_Q>
2

> <r_epik_Metal_State_Penalty>
2.92967

> <b_epik_Metal_Only>
1

> <s_lp_Force_Field>
OPLS_2005

> <r_lp_Energy>
23.3692

> <b_lp_Chiralities_Consistent>
1

> <s_lp_Variant>
AV-unprocessed.smi:2527-6

> <Gold.Version>
5.8.1

> <Gold.Id.Protein>
6NUR|6NUR_protein|mol2

> <Gold.PLP.Fitness>
50.5353

> <Gold.PLP.PLP>
-42.9002

> <Gold.PLP.part.hbond>
-3.7874

> <Gold.PLP.part.metal>
0.0000

> <Gold.PLP.part.buried>
-4.9392

> <Gold.PLP.part.nonpolar>
-38.5000

> <Gold.PLP.part.repulsive>
4.8265

> <Gold.PLP.ligand.clash>
0.0000

> <Gold.PLP.ligand.torsion>
0.7624

> <Gold.PLP.Chemscore.Hbond>
3.0206

> <Gold.PLP.Chemscore.CHOScore>
0.0000

> <Gold.PLP.Chemscore.Metal>
0.0000

> <Gold.Chemscore.Hbonds>
donor molecule, donor type, donor heavy atom, donor atom, acceptor molecule, acceptor atom, score
      L1  H    15    36       P1  8028  2.00
      P1  H  7954  7966       L1    12  1.00
      P1  H 10752 10763       L1     2  0.02

> <Gold.PLP.Chemscore.Internal.Correction>
0.0981

> <Gold.Rescore>
     Score         DG    S(hbond)    S(metal)    S(lipo)     H(rot)  DE(clash)    DE(int)     intcor
     13.45     -16.64       1.99        0.00     101.51       2.88       2.43       0.76       ----

> <Gold.Chemscore.Fitness>
13.4549

> <Gold.Chemscore.DG>
-16.6416

> <Gold.Chemscore.ZeroCoef>
-5.4800

> <Gold.Chemscore.Hbond>
1.9911

> <Gold.Chemscore.Metal>
0.0000

> <Gold.Chemscore.Lipo>
101.5079

> <Gold.Chemscore.Internal_Hbond>
0.0000

> <Gold.Chemscore.DEClash>
2.4300

> <Gold.Chemscore.DEInternal>
0.7566

> <Gold.Chemscore.Rot>
2.8770

> <Gold.Chemscore.Internal.Correction>
   9.000000E+99

> <Gold.Chemscore.Hbonds>
donor molecule, donor type, donor heavy atom, donor atom, acceptor molecule, acceptor atom, score
      L1  H    15    36       P1  8028  1.00
      P1  H  7954  7966       L1    12  0.97

> <Gold.Chemscore.Hbond.Weighted>
-6.6501

> <Gold.Chemscore.Metal.Weighted>
-0.0000

> <Gold.Chemscore.Lipo.Weighted>
-11.8764

> <Gold.Chemscore.Internal_Hbond.Weighted>
0.0000

> <Gold.Chemscore.DEClash.Weighted>
2.4300

> <Gold.Chemscore.DEInternal.Weighted>
0.7566

> <Gold.Chemscore.Rot.Weighted>
7.3650

> <Gold.Chemscore.Internal.Correction.Weighted>
   9.000000E+99

> <Gold.Protein.RotatedTorsions>
[ 6907 6896 6895 6894 ] final  -89.34 input  -60.11 | X-H torsion
[ 7974 7965 7964 7962 ] final  -27.68 input  175.53 | X-H torsion
[ 8008 7997 7996 7995 ] final   65.90 input   59.86 | X-H torsion
[ 10167 10162 10161 10158 ] final   18.37 input  -65.29 | X-H torsion
[ 10718 10713 10712 10709 ] final   52.31 input   66.30 | X-H torsion
[ 10763 10752 10751 10750 ] final   43.18 input  -60.55 | X-H torsion
[ 11005 11000 10999 10996 ] final   76.16 input  -57.11 | X-H torsion

> <Gold.Protein.ActiveResidues>
 VAL166  LYS551  ARG553  GLY616  TRP617  ASP618  TYR619  PRO620  LYS621  CYS622 
 ASP623  PHE694  ASN695  SER759  ASP760  ASP761  ALA762  ILE779  LEU786  VAL792 
 PHE793  MET794  SER795  GLU796  ALA797  LYS798  CYS799  TRP800  GLU811  SER814 

> <Gold.Protein.RotatedAtoms>
  150.6873  134.2602  159.4545 H   0  0  0  0  0  0  0  0  0  0  0  0  # atno 6907 bound_to 6896
  152.0532  134.9638  160.0584 H   0  0  0  0  0  0  0  0  0  0  0  0  # atno 6908 bound_to 6896
  152.1094  133.4257  159.4661 H   0  0  0  0  0  0  0  0  0  0  0  0  # atno 6909 bound_to 6896
  146.1341  140.5183  142.8680 H   0  0  0  0  0  0  0  0  0  0  0  0  # atno 7974 bound_to 7965
  155.6690  140.3497  155.4811 H   0  0  0  0  0  0  0  0  0  0  0  0  # atno 8008 bound_to 7997
  155.9704  140.1154  157.0840 H   0  0  0  0  0  0  0  0  0  0  0  0  # atno 8009 bound_to 7997
  154.4165  140.1158  156.5285 H   0  0  0  0  0  0  0  0  0  0  0  0  # atno 8010 bound_to 7997
  140.5658  143.9254  150.6675 H   0  0  0  0  0  0  0  0  0  0  0  0  # atno 10167 bound_to 10162
  157.5063  130.8471  149.8378 H   0  0  0  0  0  0  0  0  0  0  0  0  # atno 10718 bound_to 10713
  152.9866  135.6109  154.3069 H   0  0  0  0  0  0  0  0  0  0  0  0  # atno 10763 bound_to 10752
  154.2786  135.2777  155.2709 H   0  0  0  0  0  0  0  0  0  0  0  0  # atno 10764 bound_to 10752
  154.5058  135.5854  153.6623 H   0  0  0  0  0  0  0  0  0  0  0  0  # atno 10765 bound_to 10752
  139.9311  134.7577  156.1360 H   0  0  0  0  0  0  0  0  0  0  0  0  # atno 11005 bound_to 11000
  144.7721  140.5660  143.6663 LP  0  0  0  0  0  0  0  0  0  0  0  0  # atno 17320 bound_to 7965
  145.5195  139.1477  143.3560 LP  0  0  0  0  0  0  0  0  0  0  0  0  # atno 17321 bound_to 7965
  140.2716  143.3452  152.1233 LP  0  0  0  0  0  0  0  0  0  0  0  0  # atno 17342 bound_to 10162
  139.5092  144.6863  151.5878 LP  0  0  0  0  0  0  0  0  0  0  0  0  # atno 17343 bound_to 10162
  156.0260  130.3779  150.1822 LP  0  0  0  0  0  0  0  0  0  0  0  0  # atno 17370 bound_to 10713
  157.0012  130.9923  151.3390 LP  0  0  0  0  0  0  0  0  0  0  0  0  # atno 17371 bound_to 10713
  141.0900  133.6718  156.2519 LP  0  0  0  0  0  0  0  0  0  0  0  0  # atno 17394 bound_to 11000
  140.6200  134.5371  157.5546 LP  0  0  0  0  0  0  0  0  0  0  0  0  # atno 17395 bound_to 11000

$$$$
