AV-unprocessed.smi:1312|AV-procd|sdf|5449|dock2
  -GOLD-   22720 5 23D 1   1.00000     0.00000
 Structure written by MMmdl.
 50 51  0  0  0  0  0  0  0  0  2 V2000
  149.5355  131.8382  155.1184 C   0  0  0  0  0  0  0  0  0  0  0  0
  148.9755  132.7106  153.9837 C   0  0  0  0  0  0  0  0  0  0  0  0
  147.9282  133.7710  154.4279 C   0  0  1  0  0  0  0  0  0  0  0  0
  148.5963  134.8024  155.3840 C   0  0  0  0  0  0  0  0  0  0  0  0
  149.1150  135.9949  154.7231 N   0  0  0  0  0  0  0  0  0  0  0  0
  150.2058  136.6774  155.1085 C   0  0  0  0  0  0  0  0  0  0  0  0
  150.8838  136.3616  156.0854 O   0  0  0  0  0  0  0  0  0  0  0  0
  150.5761  137.9213  154.2949 C   0  0  0  0  0  0  0  0  0  0  0  0
  150.6773  139.1413  155.1794 C   0  0  0  0  0  0  0  0  0  0  0  0
  151.5802  139.3505  156.2637 C   0  0  0  0  0  0  0  0  0  0  0  0
  152.6384  138.4227  156.7892 C   0  0  0  0  0  0  0  0  0  0  0  0
  151.4146  140.5302  156.8375 N   0  0  0  0  0  0  0  0  0  0  0  0
  150.4138  141.1121  156.1477 N   0  0  0  0  0  0  0  0  0  0  0  0
  149.9713  142.4409  156.5239 C   0  0  0  0  0  0  0  0  0  0  0  0
  149.9427  140.2972  155.1364 C   0  0  0  0  0  0  0  0  0  0  0  0
  148.8358  140.7214  154.2248 C   0  0  0  0  0  0  0  0  0  0  0  0
  147.2904  134.4555  153.2542 N   0  3  0  0  0  0  0  0  0  0  0  0
  146.7463  133.5831  152.1885 C   0  0  0  0  0  0  0  0  0  0  0  0
  145.8107  134.4745  151.3818 C   0  0  0  0  0  0  0  0  0  0  0  0
  145.1660  135.3455  152.4514 C   0  0  0  0  0  0  0  0  0  0  0  0
  146.2103  135.4268  153.5730 C   0  0  0  0  0  0  0  0  0  0  0  0
  150.1251  131.0162  154.7117 H   0  0  0  0  0  0  0  0  0  0  0  0
  148.7337  131.4031  155.7153 H   0  0  0  0  0  0  0  0  0  0  0  0
  150.1919  132.3962  155.7849 H   0  0  0  0  0  0  0  0  0  0  0  0
  149.7986  133.1948  153.4570 H   0  0  0  0  0  0  0  0  0  0  0  0
  148.5316  132.0120  153.2758 H   0  0  0  0  0  0  0  0  0  0  0  0
  147.1442  133.2354  154.9654 H   0  0  0  0  0  0  0  0  0  0  0  0
  147.9012  135.1415  156.1509 H   0  0  0  0  0  0  0  0  0  0  0  0
  149.4199  134.3284  155.9187 H   0  0  0  0  0  0  0  0  0  0  0  0
  148.6236  136.3167  153.9015 H   0  0  0  0  0  0  0  0  0  0  0  0
  151.5112  137.7220  153.7718 H   0  0  0  0  0  0  0  0  0  0  0  0
  149.8263  138.0692  153.5165 H   0  0  0  0  0  0  0  0  0  0  0  0
  152.9979  137.7499  156.0108 H   0  0  0  0  0  0  0  0  0  0  0  0
  152.2502  137.8106  157.6033 H   0  0  0  0  0  0  0  0  0  0  0  0
  153.5001  138.9737  157.1675 H   0  0  0  0  0  0  0  0  0  0  0  0
  149.9144  143.0756  155.6396 H   0  0  0  0  0  0  0  0  0  0  0  0
  150.6657  142.8913  157.2343 H   0  0  0  0  0  0  0  0  0  0  0  0
  148.9845  142.3800  156.9833 H   0  0  0  0  0  0  0  0  0  0  0  0
  148.4712  139.8885  153.6247 H   0  0  0  0  0  0  0  0  0  0  0  0
  149.1766  141.5004  153.5425 H   0  0  0  0  0  0  0  0  0  0  0  0
  147.9920  141.1139  154.7926 H   0  0  0  0  0  0  0  0  0  0  0  0
  147.5323  133.1568  151.5642 H   0  0  0  0  0  0  0  0  0  0  0  0
  146.1750  132.7671  152.6347 H   0  0  0  0  0  0  0  0  0  0  0  0
  146.3884  135.0942  150.6945 H   0  0  0  0  0  0  0  0  0  0  0  0
  145.0831  133.9098  150.7980 H   0  0  0  0  0  0  0  0  0  0  0  0
  144.8820  136.3273  152.0707 H   0  0  0  0  0  0  0  0  0  0  0  0
  144.2625  134.8615  152.8252 H   0  0  0  0  0  0  0  0  0  0  0  0
  145.7325  135.1978  154.5262 H   0  0  0  0  0  0  0  0  0  0  0  0
  146.6312  136.4306  153.6408 H   0  0  0  0  0  0  0  0  0  0  0  0
  148.0197  134.9896  152.8039 H   0  0  0  0  0  0  0  0  0  0  0  0
  1  2  1  0  0  0  0
  1 22  1  0  0  0  0
  1 23  1  0  0  0  0
  1 24  1  0  0  0  0
  2  3  1  0  0  0  0
  2 25  1  0  0  0  0
  2 26  1  0  0  0  0
  3  4  1  0  0  0  0
  3 17  1  0  0  0  0
  3 27  1  0  0  0  0
  4  5  1  0  0  0  0
  4 28  1  0  0  0  0
  4 29  1  0  0  0  0
  5  6  1  0  0  0  0
  5 30  1  0  0  0  0
  6  7  2  0  0  0  0
  6  8  1  0  0  0  0
  8  9  1  0  0  0  0
  8 31  1  0  0  0  0
  8 32  1  0  0  0  0
  9 15  2  0  0  0  0
  9 10  1  0  0  0  0
 10 11  1  0  0  0  0
 10 12  2  0  0  0  0
 11 33  1  0  0  0  0
 11 34  1  0  0  0  0
 11 35  1  0  0  0  0
 12 13  1  0  0  0  0
 13 14  1  0  0  0  0
 13 15  1  0  0  0  0
 14 36  1  0  0  0  0
 14 37  1  0  0  0  0
 14 38  1  0  0  0  0
 15 16  1  0  0  0  0
 16 39  1  0  0  0  0
 16 40  1  0  0  0  0
 16 41  1  0  0  0  0
 17 21  1  0  0  0  0
 17 18  1  0  0  0  0
 17 50  1  0  0  0  0
 18 19  1  0  0  0  0
 18 42  1  0  0  0  0
 18 43  1  0  0  0  0
 19 20  1  0  0  0  0
 19 44  1  0  0  0  0
 19 45  1  0  0  0  0
 20 21  1  0  0  0  0
 20 46  1  0  0  0  0
 20 47  1  0  0  0  0
 21 48  1  0  0  0  0
 21 49  1  0  0  0  0
M  CHG  1  17   1
M  END
> <s_m_source_file>
AV-unprocessed.smi

> <i_m_source_file_index>
1312

> <i_lp_mmshare_version>
43012

> <i_f3d_flags>
0

> <s_epik_input>
W0NIMl0xW0NIMl1bQ0gyXVtDSDJdTjFbQ0BIXShbQ0gyXVtDSDNdKVtDSDJdW05IXUMoPU8pW0NIMl1jMmMoW0NIM10pbm4oW0NIM10pYzJbQ0gzXQ==

> <s_epik_cmdline>
J2VwaWtfcHl0aG9uJywgJy1waCcsICc3LjAnLCAnLXRuJywgJzgnLCAnLW1hJywgJzIwMCcsICctbWV0YWxfYmluZGluZycsICctaW1hZScsICc8aW5maWxlLm1hZT4nLCAnLW9tYWUnLCAnPG91dGZpbGUubWFlPic=

> <r_lp_tautomer_probability>
1

> <r_epik_Ionization_Penalty>
0.00585463

> <r_epik_Ionization_Penalty_Charging>
0.00366302

> <r_epik_Ionization_Penalty_Neutral>
0.00219161

> <r_epik_State_Penalty>
-0

> <r_epik_Charging_Adjusted_Penalty>
0.00366302

> <i_epik_Tot_Q>
1

> <i_epik_Tot_abs_Q>
1

> <r_epik_Metal_State_Penalty>
-0

> <b_epik_Metal_Only>
0

> <s_lp_Force_Field>
OPLS_2005

> <r_lp_Energy>
35.2401

> <b_lp_Chiralities_Consistent>
1

> <s_lp_Variant>
AV-unprocessed.smi:1312-2

> <Gold.Version>
5.8.1

> <Gold.Id.Protein>
6NUR|6NUR_protein|mol2

> <Gold.PLP.Fitness>
48.2986

> <Gold.PLP.PLP>
-38.1968

> <Gold.PLP.part.hbond>
-3.9413

> <Gold.PLP.part.metal>
0.0000

> <Gold.PLP.part.buried>
0.7465

> <Gold.PLP.part.nonpolar>
-34.7491

> <Gold.PLP.part.repulsive>
0.0905

> <Gold.PLP.ligand.clash>
0.0000

> <Gold.PLP.ligand.torsion>
0.6646

> <Gold.PLP.Chemscore.Hbond>
3.7200

> <Gold.PLP.Chemscore.CHOScore>
0.0000

> <Gold.PLP.Chemscore.Metal>
0.0000

> <Gold.Chemscore.Hbonds>
donor molecule, donor type, donor heavy atom, donor atom, acceptor molecule, acceptor atom, score
      L1  H     5    30       P1  7948  0.64
      L1  H    17    50       P1  7948  2.00

> <Gold.PLP.Chemscore.Internal.Correction>
0.2710

> <Gold.Rescore>
     Score         DG    S(hbond)    S(metal)    S(lipo)     H(rot)  DE(clash)    DE(int)     intcor
     17.38     -19.32       2.52        0.00      83.95       1.72       0.41       1.53       ----

> <Gold.Chemscore.Fitness>
17.3847

> <Gold.Chemscore.DG>
-19.3248

> <Gold.Chemscore.ZeroCoef>
-5.4800

> <Gold.Chemscore.Hbond>
2.5238

> <Gold.Chemscore.Metal>
0.0000

> <Gold.Chemscore.Lipo>
83.9466

> <Gold.Chemscore.Internal_Hbond>
0.0000

> <Gold.Chemscore.DEClash>
0.4116

> <Gold.Chemscore.DEInternal>
1.5285

> <Gold.Chemscore.Rot>
1.7213

> <Gold.Chemscore.Internal.Correction>
   9.000000E+99

> <Gold.Chemscore.Hbonds>
donor molecule, donor type, donor heavy atom, donor atom, acceptor molecule, acceptor atom, score
      L1  H     5    30       P1  7948  0.60
      L1  H    17    50       P1  7948  0.93

> <Gold.Chemscore.Hbond.Weighted>
-8.4296

> <Gold.Chemscore.Metal.Weighted>
-0.0000

> <Gold.Chemscore.Lipo.Weighted>
-9.8218

> <Gold.Chemscore.Internal_Hbond.Weighted>
0.0000

> <Gold.Chemscore.DEClash.Weighted>
0.4116

> <Gold.Chemscore.DEInternal.Weighted>
1.5285

> <Gold.Chemscore.Rot.Weighted>
4.4065

> <Gold.Chemscore.Internal.Correction.Weighted>
   9.000000E+99

> <Gold.Protein.RotatedTorsions>
[ 6907 6896 6895 6894 ] final   77.70 input  -60.11 | X-H torsion
[ 7974 7965 7964 7962 ] final  -21.53 input  175.53 | X-H torsion
[ 8008 7997 7996 7995 ] final  127.20 input   59.86 | X-H torsion
[ 10167 10162 10161 10158 ] final -105.14 input  -65.29 | X-H torsion
[ 10718 10713 10712 10709 ] final -107.47 input   66.30 | X-H torsion
[ 10763 10752 10751 10750 ] final  -46.08 input  -60.55 | X-H torsion
[ 11005 11000 10999 10996 ] final  -37.75 input  -57.11 | X-H torsion

> <Gold.Protein.ActiveResidues>
 VAL166  LYS551  ARG553  GLY616  TRP617  ASP618  TYR619  PRO620  LYS621  CYS622 
 ASP623  PHE694  ASN695  SER759  ASP760  ASP761  ALA762  ILE779  LEU786  VAL792 
 PHE793  MET794  SER795  GLU796  ALA797  LYS798  CYS799  TRP800  GLU811  SER814 

> <Gold.Protein.RotatedAtoms>
  152.5128  134.3777  159.9340 H   0  0  0  0  0  0  0  0  0  0  0  0  # atno 6907 bound_to 6896
  151.3733  133.3841  159.2710 H   0  0  0  0  0  0  0  0  0  0  0  0  # atno 6908 bound_to 6896
  150.9561  134.8974  159.7760 H   0  0  0  0  0  0  0  0  0  0  0  0  # atno 6909 bound_to 6896
  146.1728  140.4353  142.8525 H   0  0  0  0  0  0  0  0  0  0  0  0  # atno 7974 bound_to 7965
  156.2884  140.2674  156.2234 H   0  0  0  0  0  0  0  0  0  0  0  0  # atno 8008 bound_to 7997
  155.0145  140.0387  157.2431 H   0  0  0  0  0  0  0  0  0  0  0  0  # atno 8009 bound_to 7997
  154.7489  140.2739  155.6314 H   0  0  0  0  0  0  0  0  0  0  0  0  # atno 8010 bound_to 7997
  140.2017  143.3813  152.1124 H   0  0  0  0  0  0  0  0  0  0  0  0  # atno 10167 bound_to 10162
  156.0438  130.5664  150.7826 H   0  0  0  0  0  0  0  0  0  0  0  0  # atno 10718 bound_to 10713
  154.0391  135.6646  153.4788 H   0  0  0  0  0  0  0  0  0  0  0  0  # atno 10763 bound_to 10752
  153.0509  135.5085  154.7860 H   0  0  0  0  0  0  0  0  0  0  0  0  # atno 10764 bound_to 10752
  154.6830  135.3048  154.9552 H   0  0  0  0  0  0  0  0  0  0  0  0  # atno 10765 bound_to 10752
  140.9975  133.6972  156.1962 H   0  0  0  0  0  0  0  0  0  0  0  0  # atno 11005 bound_to 11000
  144.8189  140.6516  143.6366 LP  0  0  0  0  0  0  0  0  0  0  0  0  # atno 17320 bound_to 7965
  145.4294  139.1551  143.4030 LP  0  0  0  0  0  0  0  0  0  0  0  0  # atno 17321 bound_to 7965
  139.5214  144.7046  151.5392 LP  0  0  0  0  0  0  0  0  0  0  0  0  # atno 17342 bound_to 10162
  140.6385  143.8935  150.6670 LP  0  0  0  0  0  0  0  0  0  0  0  0  # atno 17343 bound_to 10162
  157.5289  131.0935  150.9981 LP  0  0  0  0  0  0  0  0  0  0  0  0  # atno 17370 bound_to 10713
  157.0292  130.5704  149.5341 LP  0  0  0  0  0  0  0  0  0  0  0  0  # atno 17371 bound_to 10713
  140.6942  134.4634  157.5588 LP  0  0  0  0  0  0  0  0  0  0  0  0  # atno 17394 bound_to 11000
  139.9022  134.8530  156.1849 LP  0  0  0  0  0  0  0  0  0  0  0  0  # atno 17395 bound_to 11000

$$$$
