AV-unprocessed.smi:678|AV-procd|sdf|3315|dock4
  -GOLD-   22720 0283D 1   1.00000     0.00000
 Structure written by MMmdl.
 51 52  0  0  0  0  0  0  0  0  2 V2000
  147.3261  136.0577  163.3367 C   0  0  0  0  0  0  0  0  0  0  0  0
  147.4698  135.2014  162.0907 C   0  0  0  0  0  0  0  0  0  0  0  0
  147.1554  133.8877  162.0973 C   0  0  0  0  0  0  0  0  0  0  0  0
  147.2994  133.0804  160.9102 C   0  0  0  0  0  0  0  0  0  0  0  0
  147.7547  133.6689  159.7949 C   0  0  0  0  0  0  0  0  0  0  0  0
  148.0872  135.0359  159.7603 N   0  0  0  0  0  0  0  0  0  0  0  0
  148.5805  135.5733  158.4804 C   0  0  0  0  0  0  0  0  0  0  0  0
  147.9104  136.8983  158.0916 C   0  0  0  0  0  0  0  0  0  0  0  0
  146.6914  137.0387  158.1974 O   0  0  0  0  0  0  0  0  0  0  0  0
  148.7261  137.8638  157.6426 N   0  0  0  0  0  0  0  0  0  0  0  0
  148.2917  139.1629  157.1409 C   0  0  0  0  0  0  0  0  0  0  0  0
  149.3935  140.2241  157.3145 C   0  0  2  0  0  0  0  0  0  0  0  0
  148.8506  141.6567  157.1137 C   0  0  0  0  0  0  0  0  0  0  0  0
  149.9342  142.6723  157.1806 N   0  3  1  0  0  0  0  0  0  0  0  0
  150.3964  143.0059  158.5557 C   0  0  0  0  0  0  0  0  0  0  0  0
  151.0661  144.3942  158.6474 C   0  0  0  0  0  0  0  0  0  0  0  0
  152.4941  144.3803  158.0762 C   0  0  0  0  0  0  0  0  0  0  0  0
  151.0756  144.8938  160.0997 C   0  0  0  0  0  0  0  0  0  0  0  0
  151.0365  142.3162  156.2544 C   0  0  0  0  0  0  0  0  0  0  0  0
  151.5175  140.8743  156.4917 C   0  0  0  0  0  0  0  0  0  0  0  0
  150.4158  139.9879  156.3508 O   0  0  0  0  0  0  0  0  0  0  0  0
  147.9678  135.8442  160.8603 C   0  0  0  0  0  0  0  0  0  0  0  0
  148.2651  137.0401  160.8149 O   0  0  0  0  0  0  0  0  0  0  0  0
  146.9529  135.4749  164.1794 H   0  0  0  0  0  0  0  0  0  0  0  0
  146.6285  136.8767  163.1586 H   0  0  0  0  0  0  0  0  0  0  0  0
  148.2896  136.4817  163.6216 H   0  0  0  0  0  0  0  0  0  0  0  0
  146.7918  133.4254  163.0034 H   0  0  0  0  0  0  0  0  0  0  0  0
  147.0513  132.0291  160.9210 H   0  0  0  0  0  0  0  0  0  0  0  0
  147.8976  133.1334  158.8676 H   0  0  0  0  0  0  0  0  0  0  0  0
  149.6584  135.7369  158.5135 H   0  0  0  0  0  0  0  0  0  0  0  0
  148.4264  134.8352  157.6906 H   0  0  0  0  0  0  0  0  0  0  0  0
  149.7160  137.6671  157.6043 H   0  0  0  0  0  0  0  0  0  0  0  0
  147.9769  139.0956  156.0981 H   0  0  0  0  0  0  0  0  0  0  0  0
  147.4086  139.4539  157.7105 H   0  0  0  0  0  0  0  0  0  0  0  0
  149.8122  140.1206  158.3166 H   0  0  0  0  0  0  0  0  0  0  0  0
  148.3842  141.7295  156.1302 H   0  0  0  0  0  0  0  0  0  0  0  0
  148.0650  141.8743  157.8359 H   0  0  0  0  0  0  0  0  0  0  0  0
  149.5639  142.9385  159.2558 H   0  0  0  0  0  0  0  0  0  0  0  0
  151.1215  142.2602  158.8850 H   0  0  0  0  0  0  0  0  0  0  0  0
  150.4832  145.1139  158.0733 H   0  0  0  0  0  0  0  0  0  0  0  0
  153.1300  143.6764  158.6143 H   0  0  0  0  0  0  0  0  0  0  0  0
  152.9551  145.3658  158.1505 H   0  0  0  0  0  0  0  0  0  0  0  0
  152.5016  144.0986  157.0230 H   0  0  0  0  0  0  0  0  0  0  0  0
  151.6497  144.2282  160.7453 H   0  0  0  0  0  0  0  0  0  0  0  0
  150.0639  144.9564  160.5016 H   0  0  0  0  0  0  0  0  0  0  0  0
  151.5173  145.8882  160.1713 H   0  0  0  0  0  0  0  0  0  0  0  0
  150.6674  142.4071  155.2320 H   0  0  0  0  0  0  0  0  0  0  0  0
  151.8624  143.0228  156.3439 H   0  0  0  0  0  0  0  0  0  0  0  0
  152.2781  140.6072  155.7580 H   0  0  0  0  0  0  0  0  0  0  0  0
  151.9735  140.7616  157.4765 H   0  0  0  0  0  0  0  0  0  0  0  0
  149.5454  143.5331  156.8223 H   0  0  0  0  0  0  0  0  0  0  0  0
  1  2  1  0  0  0  0
  1 24  1  0  0  0  0
  1 25  1  0  0  0  0
  1 26  1  0  0  0  0
  2 22  1  0  0  0  0
  2  3  2  0  0  0  0
  3  4  1  0  0  0  0
  3 27  1  0  0  0  0
  4  5  2  0  0  0  0
  4 28  1  0  0  0  0
  5  6  1  0  0  0  0
  5 29  1  0  0  0  0
  6  7  1  0  0  0  0
  6 22  1  0  0  0  0
  7  8  1  0  0  0  0
  7 30  1  0  0  0  0
  7 31  1  0  0  0  0
  8  9  2  0  0  0  0
  8 10  1  0  0  0  0
 10 11  1  0  0  0  0
 10 32  1  0  0  0  0
 11 12  1  0  0  0  0
 11 33  1  0  0  0  0
 11 34  1  0  0  0  0
 12 21  1  0  0  0  0
 12 13  1  0  0  0  0
 12 35  1  0  0  0  0
 13 14  1  0  0  0  0
 13 36  1  0  0  0  0
 13 37  1  0  0  0  0
 14 15  1  0  0  0  0
 14 19  1  0  0  0  0
 14 51  1  0  0  0  0
 15 16  1  0  0  0  0
 15 38  1  0  0  0  0
 15 39  1  0  0  0  0
 16 17  1  0  0  0  0
 16 18  1  0  0  0  0
 16 40  1  0  0  0  0
 17 41  1  0  0  0  0
 17 42  1  0  0  0  0
 17 43  1  0  0  0  0
 18 44  1  0  0  0  0
 18 45  1  0  0  0  0
 18 46  1  0  0  0  0
 19 20  1  0  0  0  0
 19 47  1  0  0  0  0
 19 48  1  0  0  0  0
 20 21  1  0  0  0  0
 20 49  1  0  0  0  0
 20 50  1  0  0  0  0
 22 23  2  0  0  0  0
M  CHG  1  14   1
M  END
> <s_m_source_file>
AV-unprocessed.smi

> <i_m_source_file_index>
678

> <i_lp_mmshare_version>
43012

> <i_f3d_flags>
0

> <s_epik_input>
W0NIM11jMVtjSF1bY0hdW2NIXW4oYzE9TylbQ0gyXUMoPU8pW05IXVtDSDJdW0NAQEhdMltDSDJdTihbQ0gyXVtDSDJdTzIpW0NIMl1bQ0hdKFtDSDNdKVtDSDNd

> <s_epik_cmdline>
J2VwaWtfcHl0aG9uJywgJy1waCcsICc3LjAnLCAnLXRuJywgJzgnLCAnLW1hJywgJzIwMCcsICctbWV0YWxfYmluZGluZycsICctaW1hZScsICc8aW5maWxlLm1hZT4nLCAnLW9tYWUnLCAnPG91dGZpbGUubWFlPic=

> <r_lp_tautomer_probability>
1

> <r_epik_Ionization_Penalty>
0.0975937

> <r_epik_Ionization_Penalty_Charging>
0.0975937

> <r_epik_Ionization_Penalty_Neutral>
6.27044e-08

> <r_epik_State_Penalty>
0.0877056

> <r_epik_Charging_Adjusted_Penalty>
0.185299

> <i_epik_Tot_Q>
1

> <i_epik_Tot_abs_Q>
1

> <r_epik_Metal_State_Penalty>
0.0877109

> <b_epik_Metal_Only>
0

> <s_lp_Force_Field>
OPLS_2005

> <r_lp_Energy>
29.877

> <b_lp_Chiralities_Consistent>
1

> <s_lp_Variant>
AV-unprocessed.smi:678-3

> <Gold.Version>
5.8.1

> <Gold.Id.Protein>
6NUR|6NUR_protein|mol2

> <Gold.PLP.Fitness>
51.8212

> <Gold.PLP.PLP>
-43.1933

> <Gold.PLP.part.hbond>
-2.7607

> <Gold.PLP.part.metal>
0.0000

> <Gold.PLP.part.buried>
-5.8429

> <Gold.PLP.part.nonpolar>
-33.9530

> <Gold.PLP.part.repulsive>
0.0973

> <Gold.PLP.ligand.clash>
0.0005

> <Gold.PLP.ligand.torsion>
0.9487

> <Gold.PLP.Chemscore.Hbond>
3.4618

> <Gold.PLP.Chemscore.CHOScore>
0.0000

> <Gold.PLP.Chemscore.Metal>
0.0000

> <Gold.Chemscore.Hbonds>
donor molecule, donor type, donor heavy atom, donor atom, acceptor molecule, acceptor atom, score
      L1  H    14    51       P1  8028  2.00
      P1  H  6931  6943       L1    23  0.94
      P1  H  6934  6947       L1    23  0.29

> <Gold.PLP.Chemscore.Internal.Correction>
0.1405

> <Gold.Rescore>
     Score         DG    S(hbond)    S(metal)    S(lipo)     H(rot)  DE(clash)    DE(int)     intcor
     18.19     -20.64       2.15        0.00     109.38       1.89       0.17       2.29       ----

> <Gold.Chemscore.Fitness>
18.1858

> <Gold.Chemscore.DG>
-20.6383

> <Gold.Chemscore.ZeroCoef>
-5.4800

> <Gold.Chemscore.Hbond>
2.1533

> <Gold.Chemscore.Metal>
0.0000

> <Gold.Chemscore.Lipo>
109.3787

> <Gold.Chemscore.Internal_Hbond>
0.0000

> <Gold.Chemscore.DEClash>
0.1658

> <Gold.Chemscore.DEInternal>
2.2868

> <Gold.Chemscore.Rot>
1.8871

> <Gold.Chemscore.Internal.Correction>
   9.000000E+99

> <Gold.Chemscore.Hbonds>
donor molecule, donor type, donor heavy atom, donor atom, acceptor molecule, acceptor atom, score
      L1  H    14    51       P1  8028  0.98
      P1  H  6931  6943       L1    23  0.91
      P1  H  6934  6947       L1    23  0.29

> <Gold.Chemscore.Hbond.Weighted>
-7.1919

> <Gold.Chemscore.Metal.Weighted>
-0.0000

> <Gold.Chemscore.Lipo.Weighted>
-12.7973

> <Gold.Chemscore.Internal_Hbond.Weighted>
0.0000

> <Gold.Chemscore.DEClash.Weighted>
0.1658

> <Gold.Chemscore.DEInternal.Weighted>
2.2868

> <Gold.Chemscore.Rot.Weighted>
4.8309

> <Gold.Chemscore.Internal.Correction.Weighted>
   9.000000E+99

> <Gold.Protein.RotatedTorsions>
[ 6907 6896 6895 6894 ] final  -25.78 input  -60.11 | X-H torsion
[ 7974 7965 7964 7962 ] final -159.06 input  175.53 | X-H torsion
[ 8008 7997 7996 7995 ] final -114.99 input   59.86 | X-H torsion
[ 10167 10162 10161 10158 ] final   41.42 input  -65.29 | X-H torsion
[ 10718 10713 10712 10709 ] final  -40.23 input   66.30 | X-H torsion
[ 10763 10752 10751 10750 ] final  -32.38 input  -60.55 | X-H torsion
[ 11005 11000 10999 10996 ] final   29.05 input  -57.11 | X-H torsion

> <Gold.Protein.ActiveResidues>
 VAL166  LYS551  ARG553  GLY616  TRP617  ASP618  TYR619  PRO620  LYS621  CYS622 
 ASP623  PHE694  ASN695  SER759  ASP760  ASP761  ALA762  ILE779  LEU786  VAL792 
 PHE793  MET794  SER795  GLU796  ALA797  LYS798  CYS799  TRP800  GLU811  SER814 

> <Gold.Protein.RotatedAtoms>
  151.1702  135.0314  159.8748 H   0  0  0  0  0  0  0  0  0  0  0  0  # atno 6907 bound_to 6896
  152.5449  134.1179  159.8396 H   0  0  0  0  0  0  0  0  0  0  0  0  # atno 6908 bound_to 6896
  151.1284  133.5008  159.2632 H   0  0  0  0  0  0  0  0  0  0  0  0  # atno 6909 bound_to 6896
  144.7480  140.3739  143.6070 H   0  0  0  0  0  0  0  0  0  0  0  0  # atno 7974 bound_to 7965
  155.0449  140.0392  157.2523 H   0  0  0  0  0  0  0  0  0  0  0  0  # atno 8008 bound_to 7997
  154.7185  140.2707  155.6539 H   0  0  0  0  0  0  0  0  0  0  0  0  # atno 8009 bound_to 7997
  156.2810  140.2707  156.1849 H   0  0  0  0  0  0  0  0  0  0  0  0  # atno 8010 bound_to 7997
  140.3645  144.2185  150.6136 H   0  0  0  0  0  0  0  0  0  0  0  0  # atno 10167 bound_to 10162
  156.2836  130.4220  149.8311 H   0  0  0  0  0  0  0  0  0  0  0  0  # atno 10718 bound_to 10713
  153.8128  135.6881  153.4838 H   0  0  0  0  0  0  0  0  0  0  0  0  # atno 10763 bound_to 10752
  153.1617  135.4577  154.9780 H   0  0  0  0  0  0  0  0  0  0  0  0  # atno 10764 bound_to 10752
  154.7960  135.3319  154.7607 H   0  0  0  0  0  0  0  0  0  0  0  0  # atno 10765 bound_to 10752
  140.3091  134.2670  155.7738 H   0  0  0  0  0  0  0  0  0  0  0  0  # atno 11005 bound_to 11000
  145.7048  139.1670  143.2572 LP  0  0  0  0  0  0  0  0  0  0  0  0  # atno 17320 bound_to 7965
  146.1389  140.7084  142.9376 LP  0  0  0  0  0  0  0  0  0  0  0  0  # atno 17321 bound_to 7965
  140.5094  143.2295  151.8558 LP  0  0  0  0  0  0  0  0  0  0  0  0  # atno 17342 bound_to 10162
  139.4810  144.4967  151.9114 LP  0  0  0  0  0  0  0  0  0  0  0  0  # atno 17343 bound_to 10162
  156.5749  130.8440  151.3367 LP  0  0  0  0  0  0  0  0  0  0  0  0  # atno 17370 bound_to 10713
  157.7322  130.9711  150.1916 LP  0  0  0  0  0  0  0  0  0  0  0  0  # atno 17371 bound_to 10713
  141.2112  133.7696  156.9880 LP  0  0  0  0  0  0  0  0  0  0  0  0  # atno 17394 bound_to 11000
  140.1041  134.9517  157.1967 LP  0  0  0  0  0  0  0  0  0  0  0  0  # atno 17395 bound_to 11000

$$$$
