AV-unprocessed.smi:104|AV-procd|sdf|1008|dock7
  -GOLD-   2262018 03D 1   1.00000     0.00000
 Structure written by MMmdl.
 47 49  0  0  0  0  0  0  0  0  1 V2000
  146.7753  135.5805  160.8172 C   0  0  0  0  0  0  0  0  0  0  0  0
  147.5870  136.4017  159.8243 C   0  0  0  0  0  0  0  0  0  0  0  0
  148.1998  137.4114  160.1719 O   0  0  0  0  0  0  0  0  0  0  0  0
  147.5381  135.8969  158.5832 O   0  0  0  0  0  0  0  0  0  0  0  0
  148.6400  136.0802  157.7076 C   0  0  0  0  0  0  0  0  0  0  0  0
  148.1931  135.9261  156.2482 C   0  0  1  0  0  0  0  0  0  0  0  0
  147.2415  134.8780  156.1368 O   0  0  0  0  0  0  0  0  0  0  0  0
  146.3226  135.1520  155.1289 C   0  0  2  0  0  0  0  0  0  0  0  0
  146.6634  134.3096  153.9225 N   0  0  0  0  0  0  0  0  0  0  0  0
  147.7884  133.5365  153.7234 C   0  0  0  0  0  0  0  0  0  0  0  0
  149.1680  133.3651  155.0265 Br  0  0  0  0  0  0  0  0  0  0  0  0
  147.8874  132.8973  152.5930 N   0  0  0  0  0  0  0  0  0  0  0  0
  146.7242  133.2624  151.9327 C   0  0  0  0  0  0  0  0  0  0  0  0
  146.1756  132.9411  150.6655 C   0  0  0  0  0  0  0  0  0  0  0  0
  146.7828  132.1268  149.7916 N   0  0  0  0  0  0  0  0  0  0  0  0
  144.9838  133.4791  150.3195 N   0  0  0  0  0  0  0  0  0  0  0  0
  144.3596  134.2949  151.1732 C   0  0  0  0  0  0  0  0  0  0  0  0
  144.7507  134.6875  152.3874 N   0  0  0  0  0  0  0  0  0  0  0  0
  145.9529  134.1474  152.7429 C   0  0  0  0  0  0  0  0  0  0  0  0
  146.3238  136.6766  154.8758 C   0  0  2  0  0  0  0  0  0  0  0  0
  146.3260  137.0192  153.4907 O   0  0  0  0  0  0  0  0  0  0  0  0
  146.3696  138.3059  153.1069 C   0  0  0  0  0  0  0  0  0  0  0  0
  146.4549  138.4538  151.5943 C   0  0  0  0  0  0  0  0  0  0  0  0
  146.3304  139.2860  153.8507 O   0  0  0  0  0  0  0  0  0  0  0  0
  147.5551  137.1834  155.6374 C   0  0  2  0  0  0  0  0  0  0  0  0
  148.5048  137.8408  154.8030 O   0  0  0  0  0  0  0  0  0  0  0  0
  149.6735  138.2731  155.3065 C   0  0  0  0  0  0  0  0  0  0  0  0
  150.5323  138.9677  154.2585 C   0  0  0  0  0  0  0  0  0  0  0  0
  150.0488  138.1565  156.4730 O   0  0  0  0  0  0  0  0  0  0  0  0
  147.0331  134.5240  160.7379 H   0  0  0  0  0  0  0  0  0  0  0  0
  145.7097  135.6930  160.6171 H   0  0  0  0  0  0  0  0  0  0  0  0
  146.9720  135.9092  161.8378 H   0  0  0  0  0  0  0  0  0  0  0  0
  149.0618  137.0749  157.8592 H   0  0  0  0  0  0  0  0  0  0  0  0
  149.4223  135.3552  157.9374 H   0  0  0  0  0  0  0  0  0  0  0  0
  149.0637  135.6274  155.6667 H   0  0  0  0  0  0  0  0  0  0  0  0
  145.3393  134.8028  155.4367 H   0  0  0  0  0  0  0  0  0  0  0  0
  147.6731  131.7113  150.0253 H   0  0  0  0  0  0  0  0  0  0  0  0
  146.3513  131.9335  148.8994 H   0  0  0  0  0  0  0  0  0  0  0  0
  143.4123  134.6896  150.8369 H   0  0  0  0  0  0  0  0  0  0  0  0
  145.4413  137.0939  155.3633 H   0  0  0  0  0  0  0  0  0  0  0  0
  147.3709  137.9959  151.2213 H   0  0  0  0  0  0  0  0  0  0  0  0
  146.4534  139.5064  151.3105 H   0  0  0  0  0  0  0  0  0  0  0  0
  145.6040  137.9655  151.1189 H   0  0  0  0  0  0  0  0  0  0  0  0
  147.2241  137.8503  156.4346 H   0  0  0  0  0  0  0  0  0  0  0  0
  150.8074  138.2671  153.4701 H   0  0  0  0  0  0  0  0  0  0  0  0
  151.4450  139.3584  154.7085 H   0  0  0  0  0  0  0  0  0  0  0  0
  149.9847  139.7972  153.8106 H   0  0  0  0  0  0  0  0  0  0  0  0
  1  2  1  0  0  0  0
  1 30  1  0  0  0  0
  1 31  1  0  0  0  0
  1 32  1  0  0  0  0
  2  3  2  0  0  0  0
  2  4  1  0  0  0  0
  4  5  1  0  0  0  0
  5  6  1  0  0  0  0
  5 33  1  0  0  0  0
  5 34  1  0  0  0  0
  6 25  1  0  0  0  0
  6  7  1  0  0  0  0
  6 35  1  0  0  0  0
  7  8  1  0  0  0  0
  8  9  1  0  0  0  0
  8 20  1  0  0  0  0
  8 36  1  0  0  0  0
  9 19  1  0  0  0  0
  9 10  1  0  0  0  0
 10 11  1  0  0  0  0
 10 12  2  0  0  0  0
 12 13  1  0  0  0  0
 13 19  2  0  0  0  0
 13 14  1  0  0  0  0
 14 15  1  0  0  0  0
 14 16  2  0  0  0  0
 15 37  1  0  0  0  0
 15 38  1  0  0  0  0
 16 17  1  0  0  0  0
 17 18  2  0  0  0  0
 17 39  1  0  0  0  0
 18 19  1  0  0  0  0
 20 21  1  0  0  0  0
 20 25  1  0  0  0  0
 20 40  1  0  0  0  0
 21 22  1  0  0  0  0
 22 23  1  0  0  0  0
 22 24  2  0  0  0  0
 23 41  1  0  0  0  0
 23 42  1  0  0  0  0
 23 43  1  0  0  0  0
 25 26  1  0  0  0  0
 25 44  1  0  0  0  0
 26 27  1  0  0  0  0
 27 28  1  0  0  0  0
 27 29  2  0  0  0  0
 28 45  1  0  0  0  0
 28 46  1  0  0  0  0
 28 47  1  0  0  0  0
M  END
> <s_m_source_file>
AV-unprocessed.smi

> <i_m_source_file_index>
104

> <i_lp_mmshare_version>
43012

> <i_f3d_flags>
0

> <s_epik_input>
W0NIM11DKD1PKU9bQ0gyXVtDQEBIXTFPW0NASF0oW0NAQEhdKE9DKD1PKVtDSDNdKVtDQEhdMU9DKD1PKVtDSDNdKW4oYyhCciluMiljKGMyMyluW2NIXW5jM1tOSDJd

> <s_epik_cmdline>
J2VwaWtfcHl0aG9uJywgJy1waCcsICc3LjAnLCAnLXRuJywgJzgnLCAnLW1hJywgJzIwMCcsICctbWV0YWxfYmluZGluZycsICctaW1hZScsICc8aW5maWxlLm1hZT4nLCAnLW9tYWUnLCAnPG91dGZpbGUubWFlPic=

> <r_lp_tautomer_probability>
1

> <r_epik_Ionization_Penalty>
7.36622e-05

> <r_epik_Ionization_Penalty_Charging>
0

> <r_epik_Ionization_Penalty_Neutral>
7.36622e-05

> <r_epik_State_Penalty>
-0

> <r_epik_Charging_Adjusted_Penalty>
0

> <i_epik_Tot_Q>
0

> <i_epik_Tot_abs_Q>
0

> <r_epik_Metal_State_Penalty>
-0

> <b_epik_Metal_Only>
0

> <s_epik_Chemistry_Notes>
This compound has an ester and may undergo hydrolysis at high or low pH. This compound contains an acetal/aminal-like group ( X-CH(R)-Y where X, Y are N, S, or O) that may be acid/base labile, releasing an aldehyde.

> <s_lp_Force_Field>
OPLS_2005

> <r_lp_Energy>
19.0996

> <b_lp_Chiralities_Consistent>
1

> <s_lp_Variant>
AV-unprocessed.smi:104-16

> <Gold.Version>
5.8.1

> <Gold.Id.Protein>
6NUR|6NUR_protein|mol2

> <Gold.PLP.Fitness>
35.5225

> <Gold.PLP.PLP>
-30.2129

> <Gold.PLP.part.hbond>
-3.0000

> <Gold.PLP.part.metal>
0.0000

> <Gold.PLP.part.buried>
-6.7521

> <Gold.PLP.part.nonpolar>
-23.4487

> <Gold.PLP.part.repulsive>
1.0268

> <Gold.PLP.ligand.clash>
0.0000

> <Gold.PLP.ligand.torsion>
0.8379

> <Gold.PLP.Chemscore.Hbond>
1.8895

> <Gold.PLP.Chemscore.CHOScore>
0.3921

> <Gold.PLP.Chemscore.Metal>
0.0000

> <Gold.Chemscore.Hbonds>
donor molecule, donor type, donor heavy atom, donor atom, acceptor molecule, acceptor atom, score
      L1  H    15    37       P1 10747  1.00
      P1  H  6931  6943       L1     3  0.48
      P1  H  6934  6947       L1     3  0.59
      L1  C    17    39       P1 10186  0.50

> <Gold.PLP.Chemscore.Internal.Correction>
0.1408

> <Gold.Rescore>
     Score         DG    S(hbond)    S(metal)    S(lipo)     H(rot)  DE(clash)    DE(int)     intcor
     -0.84      -7.32       2.68        0.00      33.48       4.31       0.01       8.15       ----

> <Gold.Chemscore.Fitness>
-0.8363

> <Gold.Chemscore.DG>
-7.3217

> <Gold.Chemscore.ZeroCoef>
-5.4800

> <Gold.Chemscore.Hbond>
2.6796

> <Gold.Chemscore.Metal>
0.0000

> <Gold.Chemscore.Lipo>
33.4839

> <Gold.Chemscore.Internal_Hbond>
0.0000

> <Gold.Chemscore.DEClash>
0.0073

> <Gold.Chemscore.DEInternal>
8.1507

> <Gold.Chemscore.Rot>
4.3070

> <Gold.Chemscore.Internal.Correction>
   9.000000E+99

> <Gold.Chemscore.Hbonds>
donor molecule, donor type, donor heavy atom, donor atom, acceptor molecule, acceptor atom, score
      L1  H    15    37       P1 10747  0.97
      P1  H  6931  6943       L1     3  0.47
      P1  H  6934  6947       L1     3  0.55

> <Gold.Chemscore.Hbond.Weighted>
-8.9499

> <Gold.Chemscore.Metal.Weighted>
-0.0000

> <Gold.Chemscore.Lipo.Weighted>
-3.9176

> <Gold.Chemscore.Internal_Hbond.Weighted>
0.0000

> <Gold.Chemscore.DEClash.Weighted>
0.0073

> <Gold.Chemscore.DEInternal.Weighted>
8.1507

> <Gold.Chemscore.Rot.Weighted>
11.0259

> <Gold.Chemscore.Internal.Correction.Weighted>
   9.000000E+99

> <Gold.Protein.RotatedTorsions>
[ 6907 6896 6895 6894 ] final  -28.87 input  -60.11 | X-H torsion
[ 7974 7965 7964 7962 ] final  153.80 input  175.53 | X-H torsion
[ 8008 7997 7996 7995 ] final -172.06 input   59.86 | X-H torsion
[ 10167 10162 10161 10158 ] final   69.59 input  -65.29 | X-H torsion
[ 10718 10713 10712 10709 ] final  175.55 input   66.30 | X-H torsion
[ 10763 10752 10751 10750 ] final  -56.95 input  -60.55 | X-H torsion
[ 11005 11000 10999 10996 ] final  161.54 input  -57.11 | X-H torsion

> <Gold.Protein.ActiveResidues>
 VAL166  LYS551  ARG553  GLY616  TRP617  ASP618  TYR619  PRO620  LYS621  CYS622 
 ASP623  PHE694  ASN695  SER759  ASP760  ASP761  ALA762  ILE779  LEU786  VAL792 
 PHE793  MET794  SER795  GLU796  ALA797  LYS798  CYS799  TRP800  GLU811  SER814 

> <Gold.Protein.RotatedAtoms>
  151.1270  135.0110  159.8564 H   0  0  0  0  0  0  0  0  0  0  0  0  # atno 6907 bound_to 6896
  152.5450  134.1655  159.8585 H   0  0  0  0  0  0  0  0  0  0  0  0  # atno 6908 bound_to 6896
  151.1719  133.4734  159.2627 H   0  0  0  0  0  0  0  0  0  0  0  0  # atno 6909 bound_to 6896
  144.8130  139.6849  143.6133 H   0  0  0  0  0  0  0  0  0  0  0  0  # atno 7974 bound_to 7965
  155.9396  140.1106  157.1066 H   0  0  0  0  0  0  0  0  0  0  0  0  # atno 8008 bound_to 7997
  154.4087  140.1221  156.4976 H   0  0  0  0  0  0  0  0  0  0  0  0  # atno 8009 bound_to 7997
  155.6978  140.3472  155.4922 H   0  0  0  0  0  0  0  0  0  0  0  0  # atno 8010 bound_to 7997
  140.0662  144.5191  150.7259 H   0  0  0  0  0  0  0  0  0  0  0  0  # atno 10167 bound_to 10162
  156.9332  130.9978  151.2983 H   0  0  0  0  0  0  0  0  0  0  0  0  # atno 10718 bound_to 10713
  154.2148  135.6388  153.5126 H   0  0  0  0  0  0  0  0  0  0  0  0  # atno 10763 bound_to 10752
  152.9982  135.5482  154.6177 H   0  0  0  0  0  0  0  0  0  0  0  0  # atno 10764 bound_to 10752
  154.5623  135.2910  155.0881 H   0  0  0  0  0  0  0  0  0  0  0  0  # atno 10765 bound_to 10752
  140.2169  134.8226  157.3179 H   0  0  0  0  0  0  0  0  0  0  0  0  # atno 11005 bound_to 11000
  146.2431  139.6042  142.9478 LP  0  0  0  0  0  0  0  0  0  0  0  0  # atno 17320 bound_to 7965
  145.5279  141.0428  143.2399 LP  0  0  0  0  0  0  0  0  0  0  0  0  # atno 17321 bound_to 7965
  140.7148  143.2535  151.4469 LP  0  0  0  0  0  0  0  0  0  0  0  0  # atno 17342 bound_to 10162
  139.5864  144.1596  152.2034 LP  0  0  0  0  0  0  0  0  0  0  0  0  # atno 17343 bound_to 10162
  157.5833  130.8392  149.8553 LP  0  0  0  0  0  0  0  0  0  0  0  0  # atno 17370 bound_to 10713
  156.0437  130.3733  150.1370 LP  0  0  0  0  0  0  0  0  0  0  0  0  # atno 17371 bound_to 10713
  140.1891  134.4394  155.7726 LP  0  0  0  0  0  0  0  0  0  0  0  0  # atno 17394 bound_to 11000
  141.2224  133.7019  156.7998 LP  0  0  0  0  0  0  0  0  0  0  0  0  # atno 17395 bound_to 11000

$$$$
