AV-unprocessed.smi:3118|AV-procd|sdf|11889|dock6
  -GOLD-   2272017273D 1   1.00000     0.00000
 Structure written by MMmdl.
 32 33  0  0  0  0  0  0  0  0  1 V2000
  149.3974  141.5151  154.7206 C   0  0  0  0  0  0  0  0  0  0  0  0
  150.1965  141.3765  156.0306 C   0  0  1  0  0  0  0  0  0  0  0  0
  151.6079  140.7934  155.8180 C   0  0  0  0  0  0  0  0  0  0  0  0
  151.5869  139.4017  155.4078 N   0  0  0  0  0  0  0  0  0  0  0  0
  151.0170  138.8783  154.2544 C   0  0  0  0  0  0  0  0  0  0  0  0
  151.2353  137.5196  154.2896 C   0  0  0  0  0  0  0  0  0  0  0  0
  151.9277  137.1860  155.4514 N   0  0  0  0  0  0  0  0  0  0  0  0
  152.0977  138.3505  156.0640 C   0  0  0  0  0  0  0  0  0  0  0  0
  150.3127  142.6728  156.6933 N   0  0  0  0  0  0  0  0  0  0  0  0
  150.9127  142.8954  157.8730 C   0  0  0  0  0  0  0  0  0  0  0  0
  151.4418  142.0054  158.5402 O   0  0  0  0  0  0  0  0  0  0  0  0
  150.9126  144.3501  158.3611 C   0  0  0  0  0  0  0  0  0  0  0  0
  152.2927  144.9067  158.7567 C   0  0  0  0  0  0  0  0  0  0  0  0
  151.6427  145.5169  160.0018 C   0  0  0  0  0  0  0  0  0  0  0  0
  150.4907  144.5224  159.8303 C   0  0  0  0  0  0  0  0  0  0  0  0
  149.2432  140.5477  154.2426 H   0  0  0  0  0  0  0  0  0  0  0  0
  149.9133  142.1599  154.0085 H   0  0  0  0  0  0  0  0  0  0  0  0
  148.4106  141.9425  154.9012 H   0  0  0  0  0  0  0  0  0  0  0  0
  149.6526  140.6989  156.6916 H   0  0  0  0  0  0  0  0  0  0  0  0
  152.1460  141.3690  155.0631 H   0  0  0  0  0  0  0  0  0  0  0  0
  152.1889  140.8645  156.7385 H   0  0  0  0  0  0  0  0  0  0  0  0
  150.5197  139.4993  153.5238 H   0  0  0  0  0  0  0  0  0  0  0  0
  150.9477  136.7623  153.5752 H   0  0  0  0  0  0  0  0  0  0  0  0
  152.6093  138.4408  157.0112 H   0  0  0  0  0  0  0  0  0  0  0  0
  149.9069  143.4645  156.2158 H   0  0  0  0  0  0  0  0  0  0  0  0
  150.3743  145.0312  157.6987 H   0  0  0  0  0  0  0  0  0  0  0  0
  153.0359  144.1465  159.0028 H   0  0  0  0  0  0  0  0  0  0  0  0
  152.6961  145.6437  158.0617 H   0  0  0  0  0  0  0  0  0  0  0  0
  152.2162  145.3952  160.9212 H   0  0  0  0  0  0  0  0  0  0  0  0
  151.3328  146.5520  159.8506 H   0  0  0  0  0  0  0  0  0  0  0  0
  149.5020  144.9616  159.9654 H   0  0  0  0  0  0  0  0  0  0  0  0
  150.6142  143.6248  160.4392 H   0  0  0  0  0  0  0  0  0  0  0  0
  1  2  1  0  0  0  0
  1 16  1  0  0  0  0
  1 17  1  0  0  0  0
  1 18  1  0  0  0  0
  2  3  1  0  0  0  0
  2  9  1  0  0  0  0
  2 19  1  0  0  0  0
  3  4  1  0  0  0  0
  3 20  1  0  0  0  0
  3 21  1  0  0  0  0
  4  8  1  0  0  0  0
  4  5  1  0  0  0  0
  5  6  2  0  0  0  0
  5 22  1  0  0  0  0
  6  7  1  0  0  0  0
  6 23  1  0  0  0  0
  7  8  2  0  0  0  0
  8 24  1  0  0  0  0
  9 10  1  0  0  0  0
  9 25  1  0  0  0  0
 10 11  2  0  0  0  0
 10 12  1  0  0  0  0
 12 15  1  0  0  0  0
 12 13  1  0  0  0  0
 12 26  1  0  0  0  0
 13 14  1  0  0  0  0
 13 27  1  0  0  0  0
 13 28  1  0  0  0  0
 14 15  1  0  0  0  0
 14 29  1  0  0  0  0
 14 30  1  0  0  0  0
 15 31  1  0  0  0  0
 15 32  1  0  0  0  0
M  END
> <s_m_source_file>
AV-unprocessed.smi

> <i_m_source_file_index>
3118

> <i_lp_mmshare_version>
43012

> <i_f3d_flags>
0

> <s_epik_input>
W0NIMl0xW0NIMl1bQ0gyXVtDSF0xQyg9TylbTkhdW0NASF0oW0NIM10pW0NIMl1uMltjSF1bY0hdbltjSF0y

> <s_epik_cmdline>
J2VwaWtfcHl0aG9uJywgJy1waCcsICc3LjAnLCAnLXRuJywgJzgnLCAnLW1hJywgJzIwMCcsICctbWV0YWxfYmluZGluZycsICctaW1hZScsICc8aW5maWxlLm1hZT4nLCAnLW9tYWUnLCAnPG91dGZpbGUubWFlPic=

> <r_lp_tautomer_probability>
1

> <r_epik_Ionization_Penalty>
0.642614

> <r_epik_Ionization_Penalty_Charging>
0.642614

> <r_epik_Ionization_Penalty_Neutral>
2.50867e-08

> <r_epik_State_Penalty>
0.660429

> <r_epik_Charging_Adjusted_Penalty>
1.30304

> <i_epik_Tot_Q>
0

> <i_epik_Tot_abs_Q>
0

> <r_epik_Metal_State_Penalty>
0.312239

> <b_epik_Metal_Only>
0

> <s_lp_Force_Field>
OPLS_2005

> <r_lp_Energy>
13.1137

> <b_lp_Chiralities_Consistent>
1

> <s_lp_Variant>
AV-unprocessed.smi:3118-4

> <Gold.Version>
5.8.1

> <Gold.Id.Protein>
6NUR|6NUR_protein|mol2

> <Gold.PLP.Fitness>
48.9103

> <Gold.PLP.PLP>
-37.6422

> <Gold.PLP.part.hbond>
-2.0000

> <Gold.PLP.part.metal>
0.0000

> <Gold.PLP.part.buried>
-3.0199

> <Gold.PLP.part.nonpolar>
-32.3229

> <Gold.PLP.part.repulsive>
0.1143

> <Gold.PLP.ligand.clash>
0.0000

> <Gold.PLP.ligand.torsion>
0.2621

> <Gold.PLP.Chemscore.Hbond>
1.9440

> <Gold.PLP.Chemscore.CHOScore>
1.8477

> <Gold.PLP.Chemscore.Metal>
0.0000

> <Gold.Chemscore.Hbonds>
donor molecule, donor type, donor heavy atom, donor atom, acceptor molecule, acceptor atom, score
      L1  H     9    25       P1  8028  1.00
      P1  H 10752 10763       L1     7  0.77
      L1  C     5    22       P1  7957  0.88
      L1  C     6    23       P1  7948  0.06
      L1  C     6    23       P1  7949  0.97

> <Gold.PLP.Chemscore.Internal.Correction>
0.4173

> <Gold.Rescore>
     Score         DG    S(hbond)    S(metal)    S(lipo)     H(rot)  DE(clash)    DE(int)     intcor
     16.37     -16.76       1.83        0.00      83.26       1.79       0.07       0.33       ----

> <Gold.Chemscore.Fitness>
16.3675

> <Gold.Chemscore.DG>
-16.7643

> <Gold.Chemscore.ZeroCoef>
-5.4800

> <Gold.Chemscore.Hbond>
1.8330

> <Gold.Chemscore.Metal>
0.0000

> <Gold.Chemscore.Lipo>
83.2621

> <Gold.Chemscore.Internal_Hbond>
0.0000

> <Gold.Chemscore.DEClash>
0.0690

> <Gold.Chemscore.DEInternal>
0.3278

> <Gold.Chemscore.Rot>
1.7889

> <Gold.Chemscore.Internal.Correction>
   9.000000E+99

> <Gold.Chemscore.Hbonds>
donor molecule, donor type, donor heavy atom, donor atom, acceptor molecule, acceptor atom, score
      L1  H     9    25       P1  8028  1.00
      P1  H 10752 10763       L1     7  0.12

> <Gold.Chemscore.Hbond.Weighted>
-6.1221

> <Gold.Chemscore.Metal.Weighted>
-0.0000

> <Gold.Chemscore.Lipo.Weighted>
-9.7417

> <Gold.Chemscore.Internal_Hbond.Weighted>
0.0000

> <Gold.Chemscore.DEClash.Weighted>
0.0690

> <Gold.Chemscore.DEInternal.Weighted>
0.3278

> <Gold.Chemscore.Rot.Weighted>
4.5795

> <Gold.Chemscore.Internal.Correction.Weighted>
   9.000000E+99

> <Gold.Protein.RotatedTorsions>
[ 6907 6896 6895 6894 ] final  153.98 input  -60.11 | X-H torsion
[ 7974 7965 7964 7962 ] final  138.16 input  175.53 | X-H torsion
[ 8008 7997 7996 7995 ] final  -76.70 input   59.86 | X-H torsion
[ 10167 10162 10161 10158 ] final  109.16 input  -65.29 | X-H torsion
[ 10718 10713 10712 10709 ] final  136.73 input   66.30 | X-H torsion
[ 10763 10752 10751 10750 ] final   65.21 input  -60.55 | X-H torsion
[ 11005 11000 10999 10996 ] final   81.66 input  -57.11 | X-H torsion

> <Gold.Protein.ActiveResidues>
 VAL166  LYS551  ARG553  GLY616  TRP617  ASP618  TYR619  PRO620  LYS621  CYS622 
 ASP623  PHE694  ASN695  SER759  ASP760  ASP761  ALA762  ILE779  LEU786  VAL792 
 PHE793  MET794  SER795  GLU796  ALA797  LYS798  CYS799  TRP800  GLU811  SER814 

> <Gold.Protein.RotatedAtoms>
  152.0650  133.4079  159.4433 H   0  0  0  0  0  0  0  0  0  0  0  0  # atno 6907 bound_to 6896
  150.6865  134.3157  159.4774 H   0  0  0  0  0  0  0  0  0  0  0  0  # atno 6908 bound_to 6896
  152.0982  134.9359  160.0621 H   0  0  0  0  0  0  0  0  0  0  0  0  # atno 6909 bound_to 6896
  144.9399  139.4943  143.5577 H   0  0  0  0  0  0  0  0  0  0  0  0  # atno 7974 bound_to 7965
  154.5529  140.0723  156.8696 H   0  0  0  0  0  0  0  0  0  0  0  0  # atno 8008 bound_to 7997
  155.2959  140.3381  155.4232 H   0  0  0  0  0  0  0  0  0  0  0  0  # atno 8009 bound_to 7997
  156.1977  140.1709  156.7951 H   0  0  0  0  0  0  0  0  0  0  0  0  # atno 8010 bound_to 7997
  139.6789  144.7120  151.1552 H   0  0  0  0  0  0  0  0  0  0  0  0  # atno 10167 bound_to 10162
  157.4436  131.1060  151.0115 H   0  0  0  0  0  0  0  0  0  0  0  0  # atno 10718 bound_to 10713
  153.0087  135.5365  154.6632 H   0  0  0  0  0  0  0  0  0  0  0  0  # atno 10763 bound_to 10752
  154.5835  135.2852  155.0710 H   0  0  0  0  0  0  0  0  0  0  0  0  # atno 10764 bound_to 10752
  154.1830  135.6513  153.5092 H   0  0  0  0  0  0  0  0  0  0  0  0  # atno 10765 bound_to 10752
  139.9090  134.8013  156.2071 H   0  0  0  0  0  0  0  0  0  0  0  0  # atno 11005 bound_to 11000
  146.3281  139.8410  142.8890 LP  0  0  0  0  0  0  0  0  0  0  0  0  # atno 17320 bound_to 7965
  145.3008  141.0193  143.3610 LP  0  0  0  0  0  0  0  0  0  0  0  0  # atno 17321 bound_to 7965
  140.7645  143.5730  150.8976 LP  0  0  0  0  0  0  0  0  0  0  0  0  # atno 17342 bound_to 10162
  139.9400  143.6393  152.3056 LP  0  0  0  0  0  0  0  0  0  0  0  0  # atno 17343 bound_to 10162
  157.0969  130.5966  149.5452 LP  0  0  0  0  0  0  0  0  0  0  0  0  # atno 17370 bound_to 10713
  155.9958  130.5026  150.7474 LP  0  0  0  0  0  0  0  0  0  0  0  0  # atno 17371 bound_to 10713
  141.0489  133.6899  156.1734 LP  0  0  0  0  0  0  0  0  0  0  0  0  # atno 17394 bound_to 11000
  140.6842  134.4735  157.5589 LP  0  0  0  0  0  0  0  0  0  0  0  0  # atno 17395 bound_to 11000

$$$$
