AV-unprocessed.smi:3038|AV-procd|sdf|11590|dock5
  -GOLD-   2272016563D 1   1.00000     0.00000
 Structure written by MMmdl.
 36 38  0  0  0  0  0  0  0  0  1 V2000
  150.5305  140.3098  154.9796 O   0  0  0  0  0  0  0  0  0  0  0  0
  149.7893  141.2880  155.0758 C   0  0  0  0  0  0  0  0  0  0  0  0
  148.5412  141.3870  154.1997 C   0  0  0  0  0  0  0  0  0  0  0  0
  147.3628  141.6163  155.0130 N   0  0  0  0  0  0  0  0  0  0  0  0
  146.0677  141.6418  154.6921 C   0  0  0  0  0  0  0  0  0  0  0  0
  145.3083  141.9038  155.7448 N   0  0  0  0  0  0  0  0  0  0  0  0
  146.2292  142.0462  156.7695 N   0  0  0  0  0  0  0  0  0  0  0  0
  147.4502  141.8777  156.3411 N   0  0  0  0  0  0  0  0  0  0  0  0
  150.0152  142.3118  155.9137 N   0  0  0  0  0  0  0  0  0  0  0  0
  151.1662  142.4316  156.8029 C   0  0  0  0  0  0  0  0  0  0  0  0
  151.1651  141.2843  157.8245 C   0  0  0  0  0  0  0  0  0  0  0  0
  152.2950  141.4648  158.8537 C   0  0  0  0  0  0  0  0  0  0  0  0
  152.1439  142.7424  159.5505 N   0  0  0  0  0  0  0  0  0  0  0  0
  153.1984  142.8614  160.5441 C   0  0  0  0  0  0  0  0  0  0  0  0
  153.5790  141.6159  161.3117 C   0  0  0  0  0  0  0  0  0  0  0  0
  152.8093  142.7185  161.9979 C   0  0  0  0  0  0  0  0  0  0  0  0
  152.2635  143.8472  158.5986 C   0  0  0  0  0  0  0  0  0  0  0  0
  151.1372  143.7746  157.5527 C   0  0  0  0  0  0  0  0  0  0  0  0
  148.6473  142.2130  153.4952 H   0  0  0  0  0  0  0  0  0  0  0  0
  148.4079  140.4770  153.6124 H   0  0  0  0  0  0  0  0  0  0  0  0
  145.6860  141.4735  153.6959 H   0  0  0  0  0  0  0  0  0  0  0  0
  149.3535  143.0748  155.9203 H   0  0  0  0  0  0  0  0  0  0  0  0
  152.0874  142.3683  156.2202 H   0  0  0  0  0  0  0  0  0  0  0  0
  150.2060  141.2444  158.3435 H   0  0  0  0  0  0  0  0  0  0  0  0
  151.2818  140.3276  157.3138 H   0  0  0  0  0  0  0  0  0  0  0  0
  152.2609  140.6495  159.5775 H   0  0  0  0  0  0  0  0  0  0  0  0
  153.2680  141.4155  158.3619 H   0  0  0  0  0  0  0  0  0  0  0  0
  154.0164  143.5538  160.3509 H   0  0  0  0  0  0  0  0  0  0  0  0
  153.0436  140.6950  161.0881 H   0  0  0  0  0  0  0  0  0  0  0  0
  154.6263  141.4920  161.5793 H   0  0  0  0  0  0  0  0  0  0  0  0
  153.3439  143.3303  162.7215 H   0  0  0  0  0  0  0  0  0  0  0  0
  151.7630  142.5291  162.2303 H   0  0  0  0  0  0  0  0  0  0  0  0
  152.2013  144.7959  159.1332 H   0  0  0  0  0  0  0  0  0  0  0  0
  153.2380  143.8194  158.1082 H   0  0  0  0  0  0  0  0  0  0  0  0
  151.2365  144.6015  156.8486 H   0  0  0  0  0  0  0  0  0  0  0  0
  150.1736  143.9050  158.0481 H   0  0  0  0  0  0  0  0  0  0  0  0
  1  2  2  0  0  0  0
  2  3  1  0  0  0  0
  2  9  1  0  0  0  0
  3  4  1  0  0  0  0
  3 19  1  0  0  0  0
  3 20  1  0  0  0  0
  4  8  1  0  0  0  0
  4  5  1  0  0  0  0
  5  6  2  0  0  0  0
  5 21  1  0  0  0  0
  6  7  1  0  0  0  0
  7  8  2  0  0  0  0
  9 10  1  0  0  0  0
  9 22  1  0  0  0  0
 10 18  1  0  0  0  0
 10 11  1  0  0  0  0
 10 23  1  0  0  0  0
 11 12  1  0  0  0  0
 11 24  1  0  0  0  0
 11 25  1  0  0  0  0
 12 13  1  0  0  0  0
 12 26  1  0  0  0  0
 12 27  1  0  0  0  0
 13 14  1  0  0  0  0
 13 17  1  0  0  0  0
 14 16  1  0  0  0  0
 14 15  1  0  0  0  0
 14 28  1  0  0  0  0
 15 16  1  0  0  0  0
 15 29  1  0  0  0  0
 15 30  1  0  0  0  0
 16 31  1  0  0  0  0
 16 32  1  0  0  0  0
 17 18  1  0  0  0  0
 17 33  1  0  0  0  0
 17 34  1  0  0  0  0
 18 35  1  0  0  0  0
 18 36  1  0  0  0  0
M  END
> <s_m_source_file>
AV-unprocessed.smi

> <i_m_source_file_index>
3038

> <i_lp_mmshare_version>
43012

> <i_f3d_flags>
0

> <s_epik_input>
bjFubltjSF1uMVtDSDJdQyg9TylbTkhdW0NIXTJbQ0gyXVtDSDJdTihbQ0gyXVtDSDJdMilbQ0hdM1tDSDJdW0NIMl0z

> <s_epik_cmdline>
J2VwaWtfcHl0aG9uJywgJy1waCcsICc3LjAnLCAnLXRuJywgJzgnLCAnLW1hJywgJzIwMCcsICctbWV0YWxfYmluZGluZycsICctaW1hZScsICc8aW5maWxlLm1hZT4nLCAnLW9tYWUnLCAnPG91dGZpbGUubWFlPic=

> <r_lp_tautomer_probability>
1

> <r_epik_Ionization_Penalty>
0.571582

> <r_epik_Ionization_Penalty_Charging>
0

> <r_epik_Ionization_Penalty_Neutral>
0.571582

> <r_epik_State_Penalty>
0.583583

> <r_epik_Charging_Adjusted_Penalty>
0.583583

> <i_epik_Tot_Q>
0

> <i_epik_Tot_abs_Q>
0

> <r_epik_Metal_State_Penalty>
0.583583

> <b_epik_Metal_Only>
0

> <s_lp_Force_Field>
OPLS_2005

> <r_lp_Energy>
22.674

> <b_lp_Chiralities_Consistent>
1

> <s_lp_Variant>
AV-unprocessed.smi:3038-3

> <Gold.Version>
5.8.1

> <Gold.Id.Protein>
6NUR|6NUR_protein|mol2

> <Gold.PLP.Fitness>
46.2142

> <Gold.PLP.PLP>
-38.0462

> <Gold.PLP.part.hbond>
-2.0000

> <Gold.PLP.part.metal>
0.0000

> <Gold.PLP.part.buried>
-4.0638

> <Gold.PLP.part.nonpolar>
-32.5316

> <Gold.PLP.part.repulsive>
0.5469

> <Gold.PLP.ligand.clash>
0.0000

> <Gold.PLP.ligand.torsion>
0.9810

> <Gold.PLP.Chemscore.Hbond>
2.0000

> <Gold.PLP.Chemscore.CHOScore>
0.9843

> <Gold.PLP.Chemscore.Metal>
0.0000

> <Gold.Chemscore.Hbonds>
donor molecule, donor type, donor heavy atom, donor atom, acceptor molecule, acceptor atom, score
      L1  H     9    22       P1  8028  1.00
      P1  H  7989  7998       L1     1  1.00
      L1  C     5    21       P1 10175  1.00

> <Gold.PLP.Chemscore.Internal.Correction>
1.1769

> <Gold.Rescore>
     Score         DG    S(hbond)    S(metal)    S(lipo)     H(rot)  DE(clash)    DE(int)     intcor
     14.80     -15.77       1.65        0.00      89.09       2.21       0.01       0.95       ----

> <Gold.Chemscore.Fitness>
14.8047

> <Gold.Chemscore.DG>
-15.7678

> <Gold.Chemscore.ZeroCoef>
-5.4800

> <Gold.Chemscore.Hbond>
1.6526

> <Gold.Chemscore.Metal>
0.0000

> <Gold.Chemscore.Lipo>
89.0877

> <Gold.Chemscore.Internal_Hbond>
0.0000

> <Gold.Chemscore.DEClash>
0.0148

> <Gold.Chemscore.DEInternal>
0.9483

> <Gold.Chemscore.Rot>
2.2090

> <Gold.Chemscore.Internal.Correction>
   9.000000E+99

> <Gold.Chemscore.Hbonds>
donor molecule, donor type, donor heavy atom, donor atom, acceptor molecule, acceptor atom, score
      L1  H     9    22       P1  8028  0.98
      P1  H  7989  7998       L1     1  0.25

> <Gold.Chemscore.Hbond.Weighted>
-5.5197

> <Gold.Chemscore.Metal.Weighted>
-0.0000

> <Gold.Chemscore.Lipo.Weighted>
-10.4233

> <Gold.Chemscore.Internal_Hbond.Weighted>
0.0000

> <Gold.Chemscore.DEClash.Weighted>
0.0148

> <Gold.Chemscore.DEInternal.Weighted>
0.9483

> <Gold.Chemscore.Rot.Weighted>
5.6551

> <Gold.Chemscore.Internal.Correction.Weighted>
   9.000000E+99

> <Gold.Protein.RotatedTorsions>
[ 6907 6896 6895 6894 ] final   59.10 input  -60.11 | X-H torsion
[ 7974 7965 7964 7962 ] final   94.18 input  175.53 | X-H torsion
[ 8008 7997 7996 7995 ] final  -58.98 input   59.86 | X-H torsion
[ 10167 10162 10161 10158 ] final  -99.83 input  -65.29 | X-H torsion
[ 10718 10713 10712 10709 ] final -170.29 input   66.30 | X-H torsion
[ 10763 10752 10751 10750 ] final -119.84 input  -60.55 | X-H torsion
[ 11005 11000 10999 10996 ] final  136.30 input  -57.11 | X-H torsion

> <Gold.Protein.ActiveResidues>
 VAL166  LYS551  ARG553  GLY616  TRP617  ASP618  TYR619  PRO620  LYS621  CYS622 
 ASP623  PHE694  ASN695  SER759  ASP760  ASP761  ALA762  ILE779  LEU786  VAL792 
 PHE793  MET794  SER795  GLU796  ALA797  LYS798  CYS799  TRP800  GLU811  SER814 

> <Gold.Protein.RotatedAtoms>
  152.3884  134.6480  160.0116 H   0  0  0  0  0  0  0  0  0  0  0  0  # atno 6907 bound_to 6896
  151.6721  133.3308  159.3207 H   0  0  0  0  0  0  0  0  0  0  0  0  # atno 6908 bound_to 6896
  150.7805  134.6790  159.6478 H   0  0  0  0  0  0  0  0  0  0  0  0  # atno 6909 bound_to 6896
  145.4690  139.2283  143.2945 H   0  0  0  0  0  0  0  0  0  0  0  0  # atno 7974 bound_to 7965
  154.4332  140.1072  156.6042 H   0  0  0  0  0  0  0  0  0  0  0  0  # atno 8008 bound_to 7997
  155.5878  140.3491  155.4539 H   0  0  0  0  0  0  0  0  0  0  0  0  # atno 8009 bound_to 7997
  156.0269  140.1252  157.0288 H   0  0  0  0  0  0  0  0  0  0  0  0  # atno 8010 bound_to 7997
  140.2584  143.3424  152.0649 H   0  0  0  0  0  0  0  0  0  0  0  0  # atno 10167 bound_to 10162
  156.7240  130.9281  151.3099 H   0  0  0  0  0  0  0  0  0  0  0  0  # atno 10718 bound_to 10713
  154.8628  135.4224  154.2364 H   0  0  0  0  0  0  0  0  0  0  0  0  # atno 10763 bound_to 10752
  153.3338  135.6989  153.6931 H   0  0  0  0  0  0  0  0  0  0  0  0  # atno 10764 bound_to 10752
  153.5937  135.3550  155.2893 H   0  0  0  0  0  0  0  0  0  0  0  0  # atno 10765 bound_to 10752
  140.0037  134.9468  157.0127 H   0  0  0  0  0  0  0  0  0  0  0  0  # atno 11005 bound_to 11000
  146.2407  140.5466  142.8935 LP  0  0  0  0  0  0  0  0  0  0  0  0  # atno 17320 bound_to 7965
  144.7956  140.6117  143.6512 LP  0  0  0  0  0  0  0  0  0  0  0  0  # atno 17321 bound_to 7965
  139.5024  144.6735  151.6186 LP  0  0  0  0  0  0  0  0  0  0  0  0  # atno 17342 bound_to 10162
  140.5986  143.9651  150.6371 LP  0  0  0  0  0  0  0  0  0  0  0  0  # atno 17343 bound_to 10162
  157.6886  130.9210  150.0453 LP  0  0  0  0  0  0  0  0  0  0  0  0  # atno 17370 bound_to 10713
  156.1574  130.3643  149.9348 LP  0  0  0  0  0  0  0  0  0  0  0  0  # atno 17371 bound_to 10713
  140.4681  134.1414  155.7199 LP  0  0  0  0  0  0  0  0  0  0  0  0  # atno 17394 bound_to 11000
  141.1661  133.8701  157.1711 LP  0  0  0  0  0  0  0  0  0  0  0  0  # atno 17395 bound_to 11000

$$$$
