AV-unprocessed.smi:1198|AV-procd|sdf|5013|dock10
  -GOLD-   22720 4 33D 1   1.00000     0.00000
 Structure written by MMmdl.
 40 41  0  0  0  0  0  0  0  0  2 V2000
  151.4472  141.7294  157.9290 C   0  0  0  0  0  0  0  0  0  0  0  0
  151.3308  141.6172  156.5145 O   0  0  0  0  0  0  0  0  0  0  0  0
  150.8981  140.4180  155.9864 C   0  0  0  0  0  0  0  0  0  0  0  0
  150.8975  139.2770  156.8129 C   0  0  0  0  0  0  0  0  0  0  0  0
  150.4590  138.0514  156.2768 C   0  0  0  0  0  0  0  0  0  0  0  0
  150.0427  137.9979  154.9311 C   0  0  0  0  0  0  0  0  0  0  0  0
  149.5894  136.7507  154.4214 N   0  0  0  0  0  0  0  0  0  0  0  0
  149.4480  135.5832  155.0726 C   0  0  0  0  0  0  0  0  0  0  0  0
  149.6498  135.4091  156.2741 O   0  0  0  0  0  0  0  0  0  0  0  0
  149.0273  134.6131  154.2478 N   0  0  0  0  0  0  0  0  0  0  0  0
  148.7991  133.2217  154.6273 C   0  0  0  0  0  0  0  0  0  0  0  0
  148.2996  132.3657  153.4469 C   0  0  1  0  0  0  0  0  0  0  0  0
  147.4300  131.1828  153.8731 C   0  0  0  0  0  0  0  0  0  0  0  0
  146.6023  130.8399  152.6276 C   0  0  0  0  0  0  0  0  0  0  0  0
  146.6820  132.0137  151.7276 N   0  3  1  0  0  0  0  0  0  0  0  0
  145.3923  132.4245  151.1349 C   0  0  0  0  0  0  0  0  0  0  0  0
  147.3852  133.0883  152.4549 C   0  0  0  0  0  0  0  0  0  0  0  0
  150.0671  139.2029  154.1868 C   0  0  0  0  0  0  0  0  0  0  0  0
  150.4858  140.3810  154.6954 N   0  0  0  0  0  0  0  0  0  0  0  0
  151.7965  142.7296  158.1849 H   0  0  0  0  0  0  0  0  0  0  0  0
  152.1692  141.0154  158.3278 H   0  0  0  0  0  0  0  0  0  0  0  0
  150.4855  141.5794  158.4217 H   0  0  0  0  0  0  0  0  0  0  0  0
  151.2272  139.3413  157.8395 H   0  0  0  0  0  0  0  0  0  0  0  0
  150.4475  137.1643  156.8933 H   0  0  0  0  0  0  0  0  0  0  0  0
  149.3031  136.7585  153.4533 H   0  0  0  0  0  0  0  0  0  0  0  0
  148.8811  134.8477  153.2766 H   0  0  0  0  0  0  0  0  0  0  0  0
  149.7465  132.8213  154.9889 H   0  0  0  0  0  0  0  0  0  0  0  0
  148.1054  133.1615  155.4680 H   0  0  0  0  0  0  0  0  0  0  0  0
  149.1602  131.9755  152.9007 H   0  0  0  0  0  0  0  0  0  0  0  0
  148.0178  130.3373  154.2317 H   0  0  0  0  0  0  0  0  0  0  0  0
  146.7600  131.4843  154.6798 H   0  0  0  0  0  0  0  0  0  0  0  0
  147.0162  129.9751  152.1082 H   0  0  0  0  0  0  0  0  0  0  0  0
  145.5743  130.5993  152.9031 H   0  0  0  0  0  0  0  0  0  0  0  0
  144.6791  132.7165  151.9072 H   0  0  0  0  0  0  0  0  0  0  0  0
  144.9597  131.6053  150.5597 H   0  0  0  0  0  0  0  0  0  0  0  0
  145.5353  133.2708  150.4624 H   0  0  0  0  0  0  0  0  0  0  0  0
  146.6604  133.7004  152.9948 H   0  0  0  0  0  0  0  0  0  0  0  0
  147.9332  133.7372  151.7711 H   0  0  0  0  0  0  0  0  0  0  0  0
  149.7289  139.2524  153.1640 H   0  0  0  0  0  0  0  0  0  0  0  0
  147.2898  131.7436  150.9675 H   0  0  0  0  0  0  0  0  0  0  0  0
  1  2  1  0  0  0  0
  1 20  1  0  0  0  0
  1 21  1  0  0  0  0
  1 22  1  0  0  0  0
  2  3  1  0  0  0  0
  3 19  1  0  0  0  0
  3  4  2  0  0  0  0
  4  5  1  0  0  0  0
  4 23  1  0  0  0  0
  5  6  2  0  0  0  0
  5 24  1  0  0  0  0
  6  7  1  0  0  0  0
  6 18  1  0  0  0  0
  7  8  1  0  0  0  0
  7 25  1  0  0  0  0
  8  9  2  0  0  0  0
  8 10  1  0  0  0  0
 10 11  1  0  0  0  0
 10 26  1  0  0  0  0
 11 12  1  0  0  0  0
 11 27  1  0  0  0  0
 11 28  1  0  0  0  0
 12 17  1  0  0  0  0
 12 13  1  0  0  0  0
 12 29  1  0  0  0  0
 13 14  1  0  0  0  0
 13 30  1  0  0  0  0
 13 31  1  0  0  0  0
 14 15  1  0  0  0  0
 14 32  1  0  0  0  0
 14 33  1  0  0  0  0
 15 16  1  0  0  0  0
 15 17  1  0  0  0  0
 15 40  1  0  0  0  0
 16 34  1  0  0  0  0
 16 35  1  0  0  0  0
 16 36  1  0  0  0  0
 17 37  1  0  0  0  0
 17 38  1  0  0  0  0
 18 19  2  0  0  0  0
 18 39  1  0  0  0  0
M  CHG  1  15   1
M  END
> <s_m_source_file>
AV-unprocessed.smi

> <i_m_source_file_index>
1198

> <i_lp_mmshare_version>
43012

> <i_f3d_flags>
0

> <s_epik_input>
W0NIM11PYzFbY0hdW2NIXWMoW2NIXW4xKVtOSF1DKD1PKVtOSF1bQ0gyXVtDQEBIXTJbQ0gyXVtDSDJdTihbQ0gzXSlbQ0gyXTI=

> <s_epik_cmdline>
J2VwaWtfcHl0aG9uJywgJy1waCcsICc3LjAnLCAnLXRuJywgJzgnLCAnLW1hJywgJzIwMCcsICctbWV0YWxfYmluZGluZycsICctaW1hZScsICc8aW5maWxlLm1hZT4nLCAnLW9tYWUnLCAnPG91dGZpbGUubWFlPic=

> <r_lp_tautomer_probability>
1

> <r_epik_Ionization_Penalty>
0.00131396

> <r_epik_Ionization_Penalty_Charging>
0.0012301

> <r_epik_Ionization_Penalty_Neutral>
8.38549e-05

> <r_epik_State_Penalty>
0.00081314

> <r_epik_Charging_Adjusted_Penalty>
0.00204324

> <i_epik_Tot_Q>
1

> <i_epik_Tot_abs_Q>
1

> <r_epik_Metal_State_Penalty>
-0

> <b_epik_Metal_Only>
0

> <s_lp_Force_Field>
OPLS_2005

> <r_lp_Energy>
29.2509

> <b_lp_Chiralities_Consistent>
1

> <s_lp_Variant>
AV-unprocessed.smi:1198-4

> <Gold.Version>
5.8.1

> <Gold.Id.Protein>
6NUR|6NUR_protein|mol2

> <Gold.PLP.Fitness>
43.5587

> <Gold.PLP.PLP>
-29.9464

> <Gold.PLP.part.hbond>
-4.0000

> <Gold.PLP.part.metal>
0.0000

> <Gold.PLP.part.buried>
-2.9661

> <Gold.PLP.part.nonpolar>
-23.0409

> <Gold.PLP.part.repulsive>
0.2061

> <Gold.PLP.ligand.clash>
0.0000

> <Gold.PLP.ligand.torsion>
0.5048

> <Gold.PLP.Chemscore.Hbond>
3.8704

> <Gold.PLP.Chemscore.CHOScore>
1.0000

> <Gold.PLP.Chemscore.Metal>
0.0000

> <Gold.Chemscore.Hbonds>
donor molecule, donor type, donor heavy atom, donor atom, acceptor molecule, acceptor atom, score
      L1  H     7    25       P1  7948  1.00
      L1  H    10    26       P1  7948  0.98
      L1  H    15    40       P1 10747  1.00
      P1  H  7989  7998       L1    19  1.00
      L1  C    18    39       P1  7957  1.00

> <Gold.PLP.Chemscore.Internal.Correction>
0.0106

> <Gold.Rescore>
     Score         DG    S(hbond)    S(metal)    S(lipo)     H(rot)  DE(clash)    DE(int)     intcor
     15.80     -17.61       2.66        0.00      60.95       1.51       0.00       1.81       ----

> <Gold.Chemscore.Fitness>
15.7982

> <Gold.Chemscore.DG>
-17.6058

> <Gold.Chemscore.ZeroCoef>
-5.4800

> <Gold.Chemscore.Hbond>
2.6566

> <Gold.Chemscore.Metal>
0.0000

> <Gold.Chemscore.Lipo>
60.9467

> <Gold.Chemscore.Internal_Hbond>
0.0000

> <Gold.Chemscore.DEClash>
0.0000

> <Gold.Chemscore.DEInternal>
1.8076

> <Gold.Chemscore.Rot>
1.5149

> <Gold.Chemscore.Internal.Correction>
   9.000000E+99

> <Gold.Chemscore.Hbonds>
donor molecule, donor type, donor heavy atom, donor atom, acceptor molecule, acceptor atom, score
      L1  H     7    25       P1  7948  0.95
      L1  H    10    26       P1  7948  0.23
      L1  H    15    40       P1 10747  0.89
      P1  H  7989  7998       L1    19  0.28

> <Gold.Chemscore.Hbond.Weighted>
-8.8732

> <Gold.Chemscore.Metal.Weighted>
-0.0000

> <Gold.Chemscore.Lipo.Weighted>
-7.1308

> <Gold.Chemscore.Internal_Hbond.Weighted>
0.0000

> <Gold.Chemscore.DEClash.Weighted>
0.0000

> <Gold.Chemscore.DEInternal.Weighted>
1.8076

> <Gold.Chemscore.Rot.Weighted>
3.8781

> <Gold.Chemscore.Internal.Correction.Weighted>
   9.000000E+99

> <Gold.Protein.RotatedTorsions>
[ 6907 6896 6895 6894 ] final  121.64 input  -60.11 | X-H torsion
[ 7974 7965 7964 7962 ] final  138.59 input  175.53 | X-H torsion
[ 8008 7997 7996 7995 ] final   84.08 input   59.86 | X-H torsion
[ 10167 10162 10161 10158 ] final  -49.64 input  -65.29 | X-H torsion
[ 10718 10713 10712 10709 ] final   35.36 input   66.30 | X-H torsion
[ 10763 10752 10751 10750 ] final -119.96 input  -60.55 | X-H torsion
[ 11005 11000 10999 10996 ] final   86.27 input  -57.11 | X-H torsion

> <Gold.Protein.ActiveResidues>
 VAL166  LYS551  ARG553  GLY616  TRP617  ASP618  TYR619  PRO620  LYS621  CYS622 
 ASP623  PHE694  ASN695  SER759  ASP760  ASP761  ALA762  ILE779  LEU786  VAL792 
 PHE793  MET794  SER795  GLU796  ALA797  LYS798  CYS799  TRP800  GLU811  SER814 

> <Gold.Protein.RotatedAtoms>
  152.4306  133.7271  159.6565 H   0  0  0  0  0  0  0  0  0  0  0  0  # atno 6907 bound_to 6896
  150.8185  133.8284  159.3155 H   0  0  0  0  0  0  0  0  0  0  0  0  # atno 6908 bound_to 6896
  151.5973  135.1052  160.0104 H   0  0  0  0  0  0  0  0  0  0  0  0  # atno 6909 bound_to 6896
  144.9358  139.4990  143.5595 H   0  0  0  0  0  0  0  0  0  0  0  0  # atno 7974 bound_to 7965
  155.9324  140.3414  155.6260 H   0  0  0  0  0  0  0  0  0  0  0  0  # atno 8008 bound_to 7997
  155.7141  140.0775  157.2377 H   0  0  0  0  0  0  0  0  0  0  0  0  # atno 8009 bound_to 7997
  154.4087  140.1617  156.2316 H   0  0  0  0  0  0  0  0  0  0  0  0  # atno 8010 bound_to 7997
  140.6676  143.2689  151.4244 H   0  0  0  0  0  0  0  0  0  0  0  0  # atno 10167 bound_to 10162
  157.3217  130.7451  149.6789 H   0  0  0  0  0  0  0  0  0  0  0  0  # atno 10718 bound_to 10713
  154.8631  135.4220  154.2383 H   0  0  0  0  0  0  0  0  0  0  0  0  # atno 10763 bound_to 10752
  153.3354  135.6990  153.6918 H   0  0  0  0  0  0  0  0  0  0  0  0  # atno 10764 bound_to 10752
  153.5918  135.3553  155.2887 H   0  0  0  0  0  0  0  0  0  0  0  0  # atno 10765 bound_to 10752
  139.8949  134.8343  156.2697 H   0  0  0  0  0  0  0  0  0  0  0  0  # atno 11005 bound_to 11000
  146.3266  139.8342  142.8902 LP  0  0  0  0  0  0  0  0  0  0  0  0  # atno 17320 bound_to 7965
  145.3069  141.0209  143.3577 LP  0  0  0  0  0  0  0  0  0  0  0  0  # atno 17321 bound_to 7965
  139.5930  144.1457  152.2111 LP  0  0  0  0  0  0  0  0  0  0  0  0  # atno 17342 bound_to 10162
  140.0818  144.5694  150.7117 LP  0  0  0  0  0  0  0  0  0  0  0  0  # atno 17343 bound_to 10162
  155.9686  130.4221  150.4501 LP  0  0  0  0  0  0  0  0  0  0  0  0  # atno 17370 bound_to 10713
  157.2518  131.0548  151.2375 LP  0  0  0  0  0  0  0  0  0  0  0  0  # atno 17371 bound_to 10713
  141.0109  133.7096  156.1110 LP  0  0  0  0  0  0  0  0  0  0  0  0  # atno 17394 bound_to 11000
  140.7369  134.4193  157.5559 LP  0  0  0  0  0  0  0  0  0  0  0  0  # atno 17395 bound_to 11000

$$$$
