AV-unprocessed.smi:1983|AV-procd|sdf|8031|dock4
  -GOLD-   2272010223D 1   1.00000     0.00000
 Structure written by MMmdl.
 49 50  0  0  0  0  0  0  0  0  1 V2000
  145.8511  136.6822  155.2501 C   0  0  0  0  0  0  0  0  0  0  0  0
  147.0293  135.7530  155.5787 C   0  0  1  0  0  0  0  0  0  0  0  0
  146.6917  134.2697  155.3250 C   0  0  0  0  0  0  0  0  0  0  0  0
  145.5462  133.8907  156.0582 O   0  0  0  0  0  0  0  0  0  0  0  0
  148.1886  136.1547  154.7864 N   0  0  0  0  0  0  0  0  0  0  0  0
  149.3565  136.5839  155.2858 C   0  0  0  0  0  0  0  0  0  0  0  0
  149.5951  136.6915  156.4890 O   0  0  0  0  0  0  0  0  0  0  0  0
  150.2380  136.8709  154.3177 N   0  0  0  0  0  0  0  0  0  0  0  0
  151.6064  137.3174  154.5508 C   0  0  0  0  0  0  0  0  0  0  0  0
  151.6837  138.5037  155.4955 C   0  0  0  0  0  0  0  0  0  0  0  0
  150.9396  139.6748  155.2517 C   0  0  0  0  0  0  0  0  0  0  0  0
  151.0533  140.7536  156.1491 C   0  0  0  0  0  0  0  0  0  0  0  0
  151.9130  140.6327  157.2664 C   0  0  0  0  0  0  0  0  0  0  0  0
  152.0428  141.7053  158.1729 N   0  0  0  0  0  0  0  0  0  0  0  0
  152.3019  141.3914  159.5748 C   0  0  0  0  0  0  0  0  0  0  0  0
  152.7445  142.6561  160.3314 C   0  0  2  0  0  0  0  0  0  0  0  0
  152.9059  142.3977  161.8328 C   0  0  0  0  0  0  0  0  0  0  0  0
  151.7662  143.6811  160.1607 O   0  0  0  0  0  0  0  0  0  0  0  0
  151.5013  144.0366  158.8013 C   0  0  1  0  0  0  0  0  0  0  0  0
  152.6667  144.8153  158.1656 C   0  0  0  0  0  0  0  0  0  0  0  0
  151.0835  142.7910  157.9946 C   0  0  0  0  0  0  0  0  0  0  0  0
  152.6307  139.5049  157.4945 N   0  0  0  0  0  0  0  0  0  0  0  0
  152.5146  138.4719  156.6335 C   0  0  0  0  0  0  0  0  0  0  0  0
  144.9780  136.4431  155.8576 H   0  0  0  0  0  0  0  0  0  0  0  0
  145.5598  136.5993  154.2027 H   0  0  0  0  0  0  0  0  0  0  0  0
  146.1072  137.7243  155.4438 H   0  0  0  0  0  0  0  0  0  0  0  0
  147.2782  135.8834  156.6338 H   0  0  0  0  0  0  0  0  0  0  0  0
  146.5275  134.0794  154.2640 H   0  0  0  0  0  0  0  0  0  0  0  0
  147.5119  133.6253  155.6433 H   0  0  0  0  0  0  0  0  0  0  0  0
  145.8268  133.4825  156.8630 H   0  0  0  0  0  0  0  0  0  0  0  0
  148.0928  136.0987  153.7831 H   0  0  0  0  0  0  0  0  0  0  0  0
  149.9502  136.7557  153.3571 H   0  0  0  0  0  0  0  0  0  0  0  0
  152.1674  136.4901  154.9861 H   0  0  0  0  0  0  0  0  0  0  0  0
  152.0923  137.5532  153.6023 H   0  0  0  0  0  0  0  0  0  0  0  0
  150.2945  139.7487  154.3887 H   0  0  0  0  0  0  0  0  0  0  0  0
  150.4977  141.6611  155.9652 H   0  0  0  0  0  0  0  0  0  0  0  0
  151.3968  140.9799  160.0236 H   0  0  0  0  0  0  0  0  0  0  0  0
  153.0798  140.6307  159.6528 H   0  0  0  0  0  0  0  0  0  0  0  0
  153.7051  142.9964  159.9438 H   0  0  0  0  0  0  0  0  0  0  0  0
  153.6568  141.6298  162.0198 H   0  0  0  0  0  0  0  0  0  0  0  0
  151.9685  142.0663  162.2802 H   0  0  0  0  0  0  0  0  0  0  0  0
  153.2206  143.3034  162.3520 H   0  0  0  0  0  0  0  0  0  0  0  0
  150.6481  144.7148  158.8269 H   0  0  0  0  0  0  0  0  0  0  0  0
  152.3890  145.1870  157.1790 H   0  0  0  0  0  0  0  0  0  0  0  0
  153.5568  144.1995  158.0390 H   0  0  0  0  0  0  0  0  0  0  0  0
  152.9382  145.6757  158.7774 H   0  0  0  0  0  0  0  0  0  0  0  0
  150.9626  143.0593  156.9456 H   0  0  0  0  0  0  0  0  0  0  0  0
  150.1096  142.4423  158.3408 H   0  0  0  0  0  0  0  0  0  0  0  0
  153.1093  137.5986  156.8579 H   0  0  0  0  0  0  0  0  0  0  0  0
  1  2  1  0  0  0  0
  1 24  1  0  0  0  0
  1 25  1  0  0  0  0
  1 26  1  0  0  0  0
  2  3  1  0  0  0  0
  2  5  1  0  0  0  0
  2 27  1  0  0  0  0
  3  4  1  0  0  0  0
  3 28  1  0  0  0  0
  3 29  1  0  0  0  0
  4 30  1  0  0  0  0
  5  6  1  0  0  0  0
  5 31  1  0  0  0  0
  6  7  2  0  0  0  0
  6  8  1  0  0  0  0
  8  9  1  0  0  0  0
  8 32  1  0  0  0  0
  9 10  1  0  0  0  0
  9 33  1  0  0  0  0
  9 34  1  0  0  0  0
 10 23  1  0  0  0  0
 10 11  2  0  0  0  0
 11 12  1  0  0  0  0
 11 35  1  0  0  0  0
 12 13  2  0  0  0  0
 12 36  1  0  0  0  0
 13 14  1  0  0  0  0
 13 22  1  0  0  0  0
 14 21  1  0  0  0  0
 14 15  1  0  0  0  0
 15 16  1  0  0  0  0
 15 37  1  0  0  0  0
 15 38  1  0  0  0  0
 16 17  1  0  0  0  0
 16 18  1  0  0  0  0
 16 39  1  0  0  0  0
 17 40  1  0  0  0  0
 17 41  1  0  0  0  0
 17 42  1  0  0  0  0
 18 19  1  0  0  0  0
 19 20  1  0  0  0  0
 19 21  1  0  0  0  0
 19 43  1  0  0  0  0
 20 44  1  0  0  0  0
 20 45  1  0  0  0  0
 20 46  1  0  0  0  0
 21 47  1  0  0  0  0
 21 48  1  0  0  0  0
 22 23  2  0  0  0  0
 23 49  1  0  0  0  0
M  END
> <s_m_source_file>
AV-unprocessed.smi

> <i_m_source_file_index>
1983

> <i_lp_mmshare_version>
43012

> <i_f3d_flags>
0

> <s_epik_input>
W09IXVtDSDJdW0NAQEhdKFtDSDNdKVtOSF1DKD1PKVtOSF1bQ0gyXWMxW2NIXVtjSF1jKG5bY0hdMSlOMltDSDJdW0NAQEhdKFtDSDNdKU9bQ0BASF0oW0NIM10pW0NIMl0y

> <s_epik_cmdline>
J2VwaWtfcHl0aG9uJywgJy1waCcsICc3LjAnLCAnLXRuJywgJzgnLCAnLW1hJywgJzIwMCcsICctbWV0YWxfYmluZGluZycsICctaW1hZScsICc8aW5maWxlLm1hZT4nLCAnLW9tYWUnLCAnPG91dGZpbGUubWFlPic=

> <r_lp_tautomer_probability>
1

> <r_epik_Ionization_Penalty>
0.00801967

> <r_epik_Ionization_Penalty_Charging>
0

> <r_epik_Ionization_Penalty_Neutral>
0.00801967

> <r_epik_State_Penalty>
0.00598289

> <r_epik_Charging_Adjusted_Penalty>
0.00598289

> <i_epik_Tot_Q>
0

> <i_epik_Tot_abs_Q>
0

> <r_epik_Metal_State_Penalty>
0.00590297

> <b_epik_Metal_Only>
0

> <s_lp_Force_Field>
OPLS_2005

> <r_lp_Energy>
16.1949

> <b_lp_Chiralities_Consistent>
1

> <s_lp_Variant>
AV-unprocessed.smi:1983-4

> <Gold.Version>
5.8.1

> <Gold.Id.Protein>
6NUR|6NUR_protein|mol2

> <Gold.PLP.Fitness>
47.8068

> <Gold.PLP.PLP>
-40.4753

> <Gold.PLP.part.hbond>
-4.0000

> <Gold.PLP.part.metal>
0.0000

> <Gold.PLP.part.buried>
-3.0960

> <Gold.PLP.part.nonpolar>
-33.4870

> <Gold.PLP.part.repulsive>
0.1305

> <Gold.PLP.ligand.clash>
0.0307

> <Gold.PLP.ligand.torsion>
0.5478

> <Gold.PLP.Chemscore.Hbond>
2.6960

> <Gold.PLP.Chemscore.CHOScore>
0.0000

> <Gold.PLP.Chemscore.Metal>
0.0000

> <Gold.Chemscore.Hbonds>
donor molecule, donor type, donor heavy atom, donor atom, acceptor molecule, acceptor atom, score
      L1  H     5    31       P1  7948  0.81
      L1  H     8    32       P1  7948  0.90
      P1  H  7997  8008       L1    22  0.77

> <Gold.PLP.Chemscore.Internal.Correction>
0.3697

> <Gold.Rescore>
     Score         DG    S(hbond)    S(metal)    S(lipo)     H(rot)  DE(clash)    DE(int)     intcor
     14.24     -16.26       1.53        0.00     105.56       2.61       0.22       1.80       ----

> <Gold.Chemscore.Fitness>
14.2363

> <Gold.Chemscore.DG>
-16.2614

> <Gold.Chemscore.ZeroCoef>
-5.4800

> <Gold.Chemscore.Hbond>
1.5304

> <Gold.Chemscore.Metal>
0.0000

> <Gold.Chemscore.Lipo>
105.5616

> <Gold.Chemscore.Internal_Hbond>
0.0000

> <Gold.Chemscore.DEClash>
0.2212

> <Gold.Chemscore.DEInternal>
1.8039

> <Gold.Chemscore.Rot>
2.6097

> <Gold.Chemscore.Internal.Correction>
   9.000000E+99

> <Gold.Chemscore.Hbonds>
donor molecule, donor type, donor heavy atom, donor atom, acceptor molecule, acceptor atom, score
      L1  H     5    31       P1  7948  0.75
      L1  H     8    32       P1  7948  0.18
      P1  H  7997  8008       L1    22  0.06

> <Gold.Chemscore.Hbond.Weighted>
-5.1117

> <Gold.Chemscore.Metal.Weighted>
-0.0000

> <Gold.Chemscore.Lipo.Weighted>
-12.3507

> <Gold.Chemscore.Internal_Hbond.Weighted>
0.0000

> <Gold.Chemscore.DEClash.Weighted>
0.2212

> <Gold.Chemscore.DEInternal.Weighted>
1.8039

> <Gold.Chemscore.Rot.Weighted>
6.6809

> <Gold.Chemscore.Internal.Correction.Weighted>
   9.000000E+99

> <Gold.Protein.RotatedTorsions>
[ 6907 6896 6895 6894 ] final  142.65 input  -60.11 | X-H torsion
[ 7974 7965 7964 7962 ] final -168.61 input  175.53 | X-H torsion
[ 8008 7997 7996 7995 ] final  -84.33 input   59.86 | X-H torsion
[ 10167 10162 10161 10158 ] final  102.83 input  -65.29 | X-H torsion
[ 10718 10713 10712 10709 ] final -166.76 input   66.30 | X-H torsion
[ 10763 10752 10751 10750 ] final  118.22 input  -60.55 | X-H torsion
[ 11005 11000 10999 10996 ] final   93.44 input  -57.11 | X-H torsion

> <Gold.Protein.ActiveResidues>
 VAL166  LYS551  ARG553  GLY616  TRP617  ASP618  TYR619  PRO620  LYS621  CYS622 
 ASP623  PHE694  ASN695  SER759  ASP760  ASP761  ALA762  ILE779  LEU786  VAL792 
 PHE793  MET794  SER795  GLU796  ALA797  LYS798  CYS799  TRP800  GLU811  SER814 

> <Gold.Protein.RotatedAtoms>
  152.2161  133.4948  159.5136 H   0  0  0  0  0  0  0  0  0  0  0  0  # atno 6907 bound_to 6896
  150.7001  134.1403  159.4111 H   0  0  0  0  0  0  0  0  0  0  0  0  # atno 6908 bound_to 6896
  151.9323  135.0250  160.0581 H   0  0  0  0  0  0  0  0  0  0  0  0  # atno 6909 bound_to 6896
  144.7200  140.2344  143.6300 H   0  0  0  0  0  0  0  0  0  0  0  0  # atno 7974 bound_to 7965
  154.6286  140.0606  156.9704 H   0  0  0  0  0  0  0  0  0  0  0  0  # atno 8008 bound_to 7997
  155.1701  140.3290  155.4376 H   0  0  0  0  0  0  0  0  0  0  0  0  # atno 8009 bound_to 7997
  156.2471  140.1915  156.6804 H   0  0  0  0  0  0  0  0  0  0  0  0  # atno 8010 bound_to 7997
  139.7315  144.7035  151.0714 H   0  0  0  0  0  0  0  0  0  0  0  0  # atno 10167 bound_to 10162
  156.6725  130.9090  151.3046 H   0  0  0  0  0  0  0  0  0  0  0  0  # atno 10718 bound_to 10713
  153.5643  135.3514  155.2812 H   0  0  0  0  0  0  0  0  0  0  0  0  # atno 10763 bound_to 10752
  154.8690  135.4144  154.2795 H   0  0  0  0  0  0  0  0  0  0  0  0  # atno 10764 bound_to 10752
  153.3548  135.7057  153.6829 H   0  0  0  0  0  0  0  0  0  0  0  0  # atno 10765 bound_to 10752
  139.8810  134.8790  156.3718 H   0  0  0  0  0  0  0  0  0  0  0  0  # atno 11005 bound_to 11000
  145.8380  139.2116  143.1844 LP  0  0  0  0  0  0  0  0  0  0  0  0  # atno 17320 bound_to 7965
  146.0372  140.8200  142.9846 LP  0  0  0  0  0  0  0  0  0  0  0  0  # atno 17321 bound_to 7965
  140.7772  143.5037  150.9739 LP  0  0  0  0  0  0  0  0  0  0  0  0  # atno 17342 bound_to 10162
  139.8725  143.7174  152.3165 LP  0  0  0  0  0  0  0  0  0  0  0  0  # atno 17343 bound_to 10162
  157.7072  130.9398  150.0970 LP  0  0  0  0  0  0  0  0  0  0  0  0  # atno 17370 bound_to 10713
  156.1928  130.3655  149.8888 LP  0  0  0  0  0  0  0  0  0  0  0  0  # atno 17371 bound_to 10713
  140.9459  133.7483  156.0207 LP  0  0  0  0  0  0  0  0  0  0  0  0  # atno 17394 bound_to 11000
  140.8164  134.3340  157.5395 LP  0  0  0  0  0  0  0  0  0  0  0  0  # atno 17395 bound_to 11000

$$$$
