AV-unprocessed.smi:2445|AV-procd|sdf|9636|dock9
  -GOLD-   2272013273D 1   1.00000     0.00000
 Structure written by MMmdl.
 40 41  0  0  0  0  0  0  0  0  1 V2000
  153.9060  142.1456  163.0373 C   0  0  0  0  0  0  0  0  0  0  0  0
  153.0597  142.8138  162.0082 C   0  0  0  0  0  0  0  0  0  0  0  0
  152.3490  143.9816  162.1336 C   0  0  0  0  0  0  0  0  0  0  0  0
  151.6577  144.3481  160.9772 N   0  0  0  0  0  0  0  0  0  0  0  0
  151.8336  143.4782  159.9786 C   0  0  0  0  0  0  0  0  0  0  0  0
  151.2512  143.6537  158.6085 C   0  0  1  0  0  0  0  0  0  0  0  0
  152.2495  144.3047  157.6399 C   0  0  0  0  0  0  0  0  0  0  0  0
  150.6183  142.3623  158.0452 C   0  0  0  0  0  0  0  0  0  0  0  0
  149.4574  142.6393  157.2005 N   0  0  0  0  0  0  0  0  0  0  0  0
  148.3062  141.9515  157.2076 C   0  0  0  0  0  0  0  0  0  0  0  0
  148.1028  140.9490  157.8921 O   0  0  0  0  0  0  0  0  0  0  0  0
  147.3955  142.5026  156.3935 N   0  0  0  0  0  0  0  0  0  0  0  0
  146.0186  142.0361  156.2282 C   0  0  1  0  0  0  0  0  0  0  0  0
  145.1772  142.4066  157.4486 C   0  0  0  0  0  0  0  0  0  0  0  0
  143.9298  143.0554  156.8581 C   0  0  0  0  0  0  0  0  0  0  0  0
  144.4055  143.6447  155.6610 O   0  0  0  0  0  0  0  0  0  0  0  0
  145.2734  142.7020  155.0485 C   0  0  1  0  0  0  0  0  0  0  0  0
  146.1227  143.3897  153.9675 C   0  0  0  0  0  0  0  0  0  0  0  0
  152.8743  142.1276  160.4159 S   0  0  0  0  0  0  0  0  0  0  0  0
  153.9630  142.7433  163.9474 H   0  0  0  0  0  0  0  0  0  0  0  0
  154.9210  141.9994  162.6671 H   0  0  0  0  0  0  0  0  0  0  0  0
  153.4969  141.1697  163.2997 H   0  0  0  0  0  0  0  0  0  0  0  0
  152.2825  144.6163  163.0050 H   0  0  0  0  0  0  0  0  0  0  0  0
  150.4353  144.3691  158.7200 H   0  0  0  0  0  0  0  0  0  0  0  0
  152.6048  145.2605  158.0265 H   0  0  0  0  0  0  0  0  0  0  0  0
  151.7904  144.4914  156.6688 H   0  0  0  0  0  0  0  0  0  0  0  0
  153.1187  143.6664  157.4788 H   0  0  0  0  0  0  0  0  0  0  0  0
  151.3505  141.8259  157.4411 H   0  0  0  0  0  0  0  0  0  0  0  0
  150.3488  141.6892  158.8609 H   0  0  0  0  0  0  0  0  0  0  0  0
  149.5224  143.4437  156.5942 H   0  0  0  0  0  0  0  0  0  0  0  0
  147.6617  143.3221  155.8677 H   0  0  0  0  0  0  0  0  0  0  0  0
  146.0005  140.9528  156.0949 H   0  0  0  0  0  0  0  0  0  0  0  0
  144.9382  141.5446  158.0723 H   0  0  0  0  0  0  0  0  0  0  0  0
  145.6964  143.1331  158.0759 H   0  0  0  0  0  0  0  0  0  0  0  0
  143.1745  142.3045  156.6208 H   0  0  0  0  0  0  0  0  0  0  0  0
  143.4837  143.7949  157.5232 H   0  0  0  0  0  0  0  0  0  0  0  0
  144.6458  141.9484  154.5692 H   0  0  0  0  0  0  0  0  0  0  0  0
  146.8053  142.6828  153.4957 H   0  0  0  0  0  0  0  0  0  0  0  0
  146.7122  144.2092  154.3792 H   0  0  0  0  0  0  0  0  0  0  0  0
  145.4865  143.8048  153.1856 H   0  0  0  0  0  0  0  0  0  0  0  0
  1  2  1  0  0  0  0
  1 20  1  0  0  0  0
  1 21  1  0  0  0  0
  1 22  1  0  0  0  0
  2 19  1  0  0  0  0
  2  3  2  0  0  0  0
  3  4  1  0  0  0  0
  3 23  1  0  0  0  0
  4  5  2  0  0  0  0
  5  6  1  0  0  0  0
  5 19  1  0  0  0  0
  6  7  1  0  0  0  0
  6  8  1  0  0  0  0
  6 24  1  0  0  0  0
  7 25  1  0  0  0  0
  7 26  1  0  0  0  0
  7 27  1  0  0  0  0
  8  9  1  0  0  0  0
  8 28  1  0  0  0  0
  8 29  1  0  0  0  0
  9 10  1  0  0  0  0
  9 30  1  0  0  0  0
 10 11  2  0  0  0  0
 10 12  1  0  0  0  0
 12 13  1  0  0  0  0
 12 31  1  0  0  0  0
 13 17  1  0  0  0  0
 13 14  1  0  0  0  0
 13 32  1  0  0  0  0
 14 15  1  0  0  0  0
 14 33  1  0  0  0  0
 14 34  1  0  0  0  0
 15 16  1  0  0  0  0
 15 35  1  0  0  0  0
 15 36  1  0  0  0  0
 16 17  1  0  0  0  0
 17 18  1  0  0  0  0
 17 37  1  0  0  0  0
 18 38  1  0  0  0  0
 18 39  1  0  0  0  0
 18 40  1  0  0  0  0
M  END
> <s_m_source_file>
AV-unprocessed.smi

> <i_m_source_file_index>
2445

> <i_lp_mmshare_version>
43012

> <i_f3d_flags>
0

> <s_epik_input>
W0NIM11jMVtjSF1uYyhzMSlbQ0BIXShbQ0gzXSlbQ0gyXVtOSF1DKD1PKVtOSF1bQ0BASF0yW0NIMl1bQ0gyXU9bQ0BIXTJbQ0gzXQ==

> <s_epik_cmdline>
J2VwaWtfcHl0aG9uJywgJy1waCcsICc3LjAnLCAnLXRuJywgJzgnLCAnLW1hJywgJzIwMCcsICctbWV0YWxfYmluZGluZycsICctaW1hZScsICc8aW5maWxlLm1hZT4nLCAnLW9tYWUnLCAnPG91dGZpbGUubWFlPic=

> <r_epik_Ionization_Penalty>
0.000649483

> <r_epik_Ionization_Penalty_Charging>
0

> <r_epik_Ionization_Penalty_Neutral>
0.000649483

> <r_epik_State_Penalty>
0.000379895

> <r_epik_Charging_Adjusted_Penalty>
0.000379895

> <i_epik_Tot_Q>
0

> <i_epik_Tot_abs_Q>
0

> <r_epik_Metal_State_Penalty>
-0

> <b_epik_Metal_Only>
0

> <s_lp_Force_Field>
OPLS_2005

> <r_lp_Energy>
6.66007

> <b_lp_Chiralities_Consistent>
1

> <s_lp_Variant>
AV-unprocessed.smi:2445-4

> <Gold.Version>
5.8.1

> <Gold.Id.Protein>
6NUR|6NUR_protein|mol2

> <Gold.PLP.Fitness>
41.8303

> <Gold.PLP.PLP>
-37.9961

> <Gold.PLP.part.hbond>
-2.0000

> <Gold.PLP.part.metal>
0.0000

> <Gold.PLP.part.buried>
-3.3311

> <Gold.PLP.part.nonpolar>
-32.7305

> <Gold.PLP.part.repulsive>
0.3401

> <Gold.PLP.ligand.clash>
0.0000

> <Gold.PLP.ligand.torsion>
1.1079

> <Gold.PLP.Chemscore.Hbond>
1.9760

> <Gold.PLP.Chemscore.CHOScore>
0.0000

> <Gold.PLP.Chemscore.Metal>
0.0000

> <Gold.Chemscore.Hbonds>
donor molecule, donor type, donor heavy atom, donor atom, acceptor molecule, acceptor atom, score
      L1  H     9    30       P1  8028  1.00
      L1  H    12    31       P1  8028  0.77

> <Gold.PLP.Chemscore.Internal.Correction>
0.1220

> <Gold.Rescore>
     Score         DG    S(hbond)    S(metal)    S(lipo)     H(rot)  DE(clash)    DE(int)     intcor
     18.45     -19.59       1.62        0.00     107.73       1.53       0.10       1.04       ----

> <Gold.Chemscore.Fitness>
18.4491

> <Gold.Chemscore.DG>
-19.5855

> <Gold.Chemscore.ZeroCoef>
-5.4800

> <Gold.Chemscore.Hbond>
1.6241

> <Gold.Chemscore.Metal>
0.0000

> <Gold.Chemscore.Lipo>
107.7296

> <Gold.Chemscore.Internal_Hbond>
0.0000

> <Gold.Chemscore.DEClash>
0.0964

> <Gold.Chemscore.DEInternal>
1.0400

> <Gold.Chemscore.Rot>
1.5325

> <Gold.Chemscore.Internal.Correction>
   9.000000E+99

> <Gold.Chemscore.Hbonds>
donor molecule, donor type, donor heavy atom, donor atom, acceptor molecule, acceptor atom, score
      L1  H     9    30       P1  8028  0.97
      L1  H    12    31       P1  8028  0.11

> <Gold.Chemscore.Hbond.Weighted>
-5.4245

> <Gold.Chemscore.Metal.Weighted>
-0.0000

> <Gold.Chemscore.Lipo.Weighted>
-12.6044

> <Gold.Chemscore.Internal_Hbond.Weighted>
0.0000

> <Gold.Chemscore.DEClash.Weighted>
0.0964

> <Gold.Chemscore.DEInternal.Weighted>
1.0400

> <Gold.Chemscore.Rot.Weighted>
3.9233

> <Gold.Chemscore.Internal.Correction.Weighted>
   9.000000E+99

> <Gold.Protein.RotatedTorsions>
[ 6907 6896 6895 6894 ] final -128.78 input  -60.11 | X-H torsion
[ 7974 7965 7964 7962 ] final   27.16 input  175.53 | X-H torsion
[ 8008 7997 7996 7995 ] final   92.87 input   59.86 | X-H torsion
[ 10167 10162 10161 10158 ] final  -38.11 input  -65.29 | X-H torsion
[ 10718 10713 10712 10709 ] final -151.78 input   66.30 | X-H torsion
[ 10763 10752 10751 10750 ] final  160.76 input  -60.55 | X-H torsion
[ 11005 11000 10999 10996 ] final  -69.80 input  -57.11 | X-H torsion

> <Gold.Protein.ActiveResidues>
 VAL166  LYS551  ARG553  GLY616  TRP617  ASP618  TYR619  PRO620  LYS621  CYS622 
 ASP623  PHE694  ASN695  SER759  ASP760  ASP761  ALA762  ILE779  LEU786  VAL792 
 PHE793  MET794  SER795  GLU796  ALA797  LYS798  CYS799  TRP800  GLU811  SER814 

> <Gold.Protein.RotatedAtoms>
  150.9216  133.6874  159.2830 H   0  0  0  0  0  0  0  0  0  0  0  0  # atno 6907 bound_to 6896
  151.4327  135.1010  159.9656 H   0  0  0  0  0  0  0  0  0  0  0  0  # atno 6908 bound_to 6896
  152.4982  133.8642  159.7321 H   0  0  0  0  0  0  0  0  0  0  0  0  # atno 6909 bound_to 6896
  146.1799  139.7229  142.8908 H   0  0  0  0  0  0  0  0  0  0  0  0  # atno 7974 bound_to 7965
  156.0403  140.3320  155.7237 H   0  0  0  0  0  0  0  0  0  0  0  0  # atno 8008 bound_to 7997
  155.5754  140.0632  157.2814 H   0  0  0  0  0  0  0  0  0  0  0  0  # atno 8009 bound_to 7997
  154.4390  140.1853  156.0910 H   0  0  0  0  0  0  0  0  0  0  0  0  # atno 8010 bound_to 7997
  140.7101  143.3298  151.2595 H   0  0  0  0  0  0  0  0  0  0  0  0  # atno 10167 bound_to 10162
  156.4637  130.8225  151.2456 H   0  0  0  0  0  0  0  0  0  0  0  0  # atno 10718 bound_to 10713
  154.2524  135.2771  155.2811 H   0  0  0  0  0  0  0  0  0  0  0  0  # atno 10763 bound_to 10752
  154.5453  135.5690  153.6878 H   0  0  0  0  0  0  0  0  0  0  0  0  # atno 10764 bound_to 10752
  152.9978  135.6261  154.2672 H   0  0  0  0  0  0  0  0  0  0  0  0  # atno 10765 bound_to 10752
  141.1561  133.6773  156.6655 H   0  0  0  0  0  0  0  0  0  0  0  0  # atno 11005 bound_to 11000
  145.4106  141.0396  143.3019 LP  0  0  0  0  0  0  0  0  0  0  0  0  # atno 17320 bound_to 7965
  144.8297  139.5649  143.6949 LP  0  0  0  0  0  0  0  0  0  0  0  0  # atno 17321 bound_to 7965
  139.6777  143.9909  152.2790 LP  0  0  0  0  0  0  0  0  0  0  0  0  # atno 17342 bound_to 10162
  139.9529  144.6609  150.8154 LP  0  0  0  0  0  0  0  0  0  0  0  0  # atno 17343 bound_to 10162
  157.7496  131.0099  150.3284 LP  0  0  0  0  0  0  0  0  0  0  0  0  # atno 17370 bound_to 10713
  156.3690  130.3860  149.7191 LP  0  0  0  0  0  0  0  0  0  0  0  0  # atno 17371 bound_to 10713
  140.3214  134.8004  157.4255 LP  0  0  0  0  0  0  0  0  0  0  0  0  # atno 17394 bound_to 11000
  140.1093  134.5366  155.8280 LP  0  0  0  0  0  0  0  0  0  0  0  0  # atno 17395 bound_to 11000

$$$$
