AV-unprocessed.smi:919|AV-procd|sdf|4166|dock10
  -GOLD-   22720 2 73D 1   1.00000     0.00000
 Structure written by MMmdl.
 43 45  0  0  0  0  0  0  0  0  1 V2000
  150.7284  129.6106  155.4415 C   0  0  0  0  0  0  0  0  0  0  0  0
  151.0613  130.9696  155.9874 C   0  0  0  0  0  0  0  0  0  0  0  0
  151.7890  131.0731  157.0868 N   0  0  0  0  0  0  0  0  0  0  0  0
  151.9196  132.4439  157.3312 O   0  0  0  0  0  0  0  0  0  0  0  0
  151.2583  133.1195  156.3571 C   0  0  0  0  0  0  0  0  0  0  0  0
  151.2791  134.6077  156.4475 C   0  0  0  0  0  0  0  0  0  0  0  0
  150.6945  132.2445  155.4701 C   0  0  0  0  0  0  0  0  0  0  0  0
  149.8771  132.5377  154.2420 C   0  0  0  0  0  0  0  0  0  0  0  0
  148.6874  133.4544  154.5665 C   0  0  0  0  0  0  0  0  0  0  0  0
  148.1252  134.0417  153.3574 N   0  0  0  0  0  0  0  0  0  0  0  0
  146.9590  133.6800  152.7966 C   0  0  0  0  0  0  0  0  0  0  0  0
  146.2176  132.8197  153.2684 O   0  0  0  0  0  0  0  0  0  0  0  0
  146.6552  134.3348  151.6624 N   0  0  0  0  0  0  0  0  0  0  0  0
  145.4665  134.1702  150.8215 C   0  0  2  0  0  0  0  0  0  0  0  0
  144.2271  133.8142  151.6719 C   0  0  0  0  0  0  0  0  0  0  0  0
  143.7634  132.4745  151.0713 C   0  0  2  0  0  0  0  0  0  0  0  0
  144.7590  131.3637  151.4561 C   0  0  0  0  0  0  0  0  0  0  0  0
  145.9795  131.6782  150.5706 C   0  0  0  0  0  0  0  0  0  0  0  0
  145.5441  132.9686  149.8430 C   0  0  1  0  0  0  0  0  0  0  0  0
  144.0684  132.6764  149.5932 C   0  0  0  0  0  0  0  0  0  0  0  0
  149.7236  129.5932  155.0186 H   0  0  0  0  0  0  0  0  0  0  0  0
  150.7722  128.8440  156.2161 H   0  0  0  0  0  0  0  0  0  0  0  0
  151.4250  129.3279  154.6520 H   0  0  0  0  0  0  0  0  0  0  0  0
  150.5161  135.0497  155.8065 H   0  0  0  0  0  0  0  0  0  0  0  0
  152.2487  134.9990  156.1396 H   0  0  0  0  0  0  0  0  0  0  0  0
  151.0901  134.9364  157.4695 H   0  0  0  0  0  0  0  0  0  0  0  0
  150.4924  133.0043  153.4719 H   0  0  0  0  0  0  0  0  0  0  0  0
  149.5128  131.6091  153.8013 H   0  0  0  0  0  0  0  0  0  0  0  0
  147.9149  132.9047  155.1073 H   0  0  0  0  0  0  0  0  0  0  0  0
  149.0085  134.2644  155.2221 H   0  0  0  0  0  0  0  0  0  0  0  0
  148.6672  134.7626  152.9036 H   0  0  0  0  0  0  0  0  0  0  0  0
  147.3101  135.0425  151.3624 H   0  0  0  0  0  0  0  0  0  0  0  0
  145.2676  135.0932  150.2735 H   0  0  0  0  0  0  0  0  0  0  0  0
  144.4424  133.7290  152.7383 H   0  0  0  0  0  0  0  0  0  0  0  0
  143.4552  134.5757  151.5541 H   0  0  0  0  0  0  0  0  0  0  0  0
  142.7256  132.2303  151.2995 H   0  0  0  0  0  0  0  0  0  0  0  0
  145.0020  131.3794  152.5193 H   0  0  0  0  0  0  0  0  0  0  0  0
  144.3573  130.3780  151.2184 H   0  0  0  0  0  0  0  0  0  0  0  0
  146.9003  131.7876  151.1435 H   0  0  0  0  0  0  0  0  0  0  0  0
  146.1406  130.8739  149.8515 H   0  0  0  0  0  0  0  0  0  0  0  0
  146.1241  133.1739  148.9427 H   0  0  0  0  0  0  0  0  0  0  0  0
  143.8977  131.7831  148.9894 H   0  0  0  0  0  0  0  0  0  0  0  0
  143.5295  133.5157  149.1502 H   0  0  0  0  0  0  0  0  0  0  0  0
  1  2  1  0  0  0  0
  1 21  1  0  0  0  0
  1 22  1  0  0  0  0
  1 23  1  0  0  0  0
  2  7  1  0  0  0  0
  2  3  2  0  0  0  0
  3  4  1  0  0  0  0
  4  5  1  0  0  0  0
  5  6  1  0  0  0  0
  5  7  2  0  0  0  0
  6 24  1  0  0  0  0
  6 25  1  0  0  0  0
  6 26  1  0  0  0  0
  7  8  1  0  0  0  0
  8  9  1  0  0  0  0
  8 27  1  0  0  0  0
  8 28  1  0  0  0  0
  9 10  1  0  0  0  0
  9 29  1  0  0  0  0
  9 30  1  0  0  0  0
 10 11  1  0  0  0  0
 10 31  1  0  0  0  0
 11 12  2  0  0  0  0
 11 13  1  0  0  0  0
 13 14  1  0  0  0  0
 13 32  1  0  0  0  0
 14 19  1  0  0  0  0
 14 15  1  0  0  0  0
 14 33  1  0  0  0  0
 15 16  1  0  0  0  0
 15 34  1  0  0  0  0
 15 35  1  0  0  0  0
 16 20  1  0  0  0  0
 16 17  1  0  0  0  0
 16 36  1  0  0  0  0
 17 18  1  0  0  0  0
 17 37  1  0  0  0  0
 17 38  1  0  0  0  0
 18 19  1  0  0  0  0
 18 39  1  0  0  0  0
 18 40  1  0  0  0  0
 19 20  1  0  0  0  0
 19 41  1  0  0  0  0
 20 42  1  0  0  0  0
 20 43  1  0  0  0  0
M  END
> <s_m_source_file>
AV-unprocessed.smi

> <i_m_source_file_index>
919

> <i_lp_mmshare_version>
43012

> <i_f3d_flags>
0

> <s_epik_input>
W0NIM11jMW5vYyhbQ0gzXSljMVtDSDJdW0NIMl1bTkhdQyg9TylbTkhdW0NASF0oW0NIMl1bQ0BASF0yMylbQ0BASF0oW0NIMl0zKVtDSDJdW0NIMl0y

> <s_epik_cmdline>
J2VwaWtfcHl0aG9uJywgJy1waCcsICc3LjAnLCAnLXRuJywgJzgnLCAnLW1hJywgJzIwMCcsICctbWV0YWxfYmluZGluZycsICctaW1hZScsICc8aW5maWxlLm1hZT4nLCAnLW9tYWUnLCAnPG91dGZpbGUubWFlPic=

> <r_lp_tautomer_probability>
1

> <r_epik_Ionization_Penalty>
6.40771e-05

> <r_epik_Ionization_Penalty_Charging>
0

> <r_epik_Ionization_Penalty_Neutral>
6.40771e-05

> <r_epik_State_Penalty>
-0

> <r_epik_Charging_Adjusted_Penalty>
0

> <i_epik_Tot_Q>
0

> <i_epik_Tot_abs_Q>
0

> <r_epik_Metal_State_Penalty>
-0

> <b_epik_Metal_Only>
0

> <s_lp_Force_Field>
OPLS_2005

> <r_lp_Energy>
47.1923

> <b_lp_Chiralities_Consistent>
1

> <s_lp_Variant>
AV-unprocessed.smi:919-3

> <Gold.Version>
5.8.1

> <Gold.Id.Protein>
6NUR|6NUR_protein|mol2

> <Gold.PLP.Fitness>
42.0574

> <Gold.PLP.PLP>
-34.8818

> <Gold.PLP.part.hbond>
-3.0000

> <Gold.PLP.part.metal>
0.0000

> <Gold.PLP.part.buried>
-3.3851

> <Gold.PLP.part.nonpolar>
-28.2260

> <Gold.PLP.part.repulsive>
0.1571

> <Gold.PLP.ligand.clash>
0.6157

> <Gold.PLP.ligand.torsion>
0.5160

> <Gold.PLP.Chemscore.Hbond>
2.9360

> <Gold.PLP.Chemscore.CHOScore>
0.0000

> <Gold.PLP.Chemscore.Metal>
0.0000

> <Gold.Chemscore.Hbonds>
donor molecule, donor type, donor heavy atom, donor atom, acceptor molecule, acceptor atom, score
      L1  H    10    31       P1  7948  0.95
      L1  H    13    32       P1  7948  0.95
      P1  H  6896  6909       L1     4  0.76

> <Gold.PLP.Chemscore.Internal.Correction>
0.0153

> <Gold.Rescore>
     Score         DG    S(hbond)    S(metal)    S(lipo)     H(rot)  DE(clash)    DE(int)     intcor
     13.48     -19.44       1.99        0.00      95.51       1.52       1.56       4.39       ----

> <Gold.Chemscore.Fitness>
13.4803

> <Gold.Chemscore.DG>
-19.4366

> <Gold.Chemscore.ZeroCoef>
-5.4800

> <Gold.Chemscore.Hbond>
1.9950

> <Gold.Chemscore.Metal>
0.0000

> <Gold.Chemscore.Lipo>
95.5098

> <Gold.Chemscore.Internal_Hbond>
0.0000

> <Gold.Chemscore.DEClash>
1.5618

> <Gold.Chemscore.DEInternal>
4.3945

> <Gold.Chemscore.Rot>
1.5161

> <Gold.Chemscore.Internal.Correction>
   9.000000E+99

> <Gold.Chemscore.Hbonds>
donor molecule, donor type, donor heavy atom, donor atom, acceptor molecule, acceptor atom, score
      L1  H    10    31       P1  7948  0.21
      L1  H    13    32       P1  7948  0.56
      P1  H  6896  6909       L1     4  0.58

> <Gold.Chemscore.Hbond.Weighted>
-6.6633

> <Gold.Chemscore.Metal.Weighted>
-0.0000

> <Gold.Chemscore.Lipo.Weighted>
-11.1746

> <Gold.Chemscore.Internal_Hbond.Weighted>
0.0000

> <Gold.Chemscore.DEClash.Weighted>
1.5618

> <Gold.Chemscore.DEInternal.Weighted>
4.3945

> <Gold.Chemscore.Rot.Weighted>
3.8813

> <Gold.Chemscore.Internal.Correction.Weighted>
   9.000000E+99

> <Gold.Protein.RotatedTorsions>
[ 6907 6896 6895 6894 ] final  -53.04 input  -60.11 | X-H torsion
[ 7974 7965 7964 7962 ] final   33.00 input  175.53 | X-H torsion
[ 8008 7997 7996 7995 ] final -162.79 input   59.86 | X-H torsion
[ 10167 10162 10161 10158 ] final    5.12 input  -65.29 | X-H torsion
[ 10718 10713 10712 10709 ] final    6.97 input   66.30 | X-H torsion
[ 10763 10752 10751 10750 ] final  144.98 input  -60.55 | X-H torsion
[ 11005 11000 10999 10996 ] final  -94.10 input  -57.11 | X-H torsion

> <Gold.Protein.ActiveResidues>
 VAL166  LYS551  ARG553  GLY616  TRP617  ASP618  TYR619  PRO620  LYS621  CYS622 
 ASP623  PHE694  ASN695  SER759  ASP760  ASP761  ALA762  ILE779  LEU786  VAL792 
 PHE793  MET794  SER795  GLU796  ALA797  LYS798  CYS799  TRP800  GLU811  SER814 

> <Gold.Protein.RotatedAtoms>
  150.8462  134.7772  159.6972 H   0  0  0  0  0  0  0  0  0  0  0  0  # atno 6907 bound_to 6896
  152.4538  134.5332  159.9827 H   0  0  0  0  0  0  0  0  0  0  0  0  # atno 6908 bound_to 6896
  151.5462  133.3387  159.2980 H   0  0  0  0  0  0  0  0  0  0  0  0  # atno 6909 bound_to 6896
  146.1450  139.6453  142.9138 H   0  0  0  0  0  0  0  0  0  0  0  0  # atno 7974 bound_to 7965
  155.8119  140.0907  157.1899 H   0  0  0  0  0  0  0  0  0  0  0  0  # atno 8008 bound_to 7997
  154.3980  140.1453  156.3456 H   0  0  0  0  0  0  0  0  0  0  0  0  # atno 8009 bound_to 7997
  155.8356  140.3441  155.5602 H   0  0  0  0  0  0  0  0  0  0  0  0  # atno 8010 bound_to 7997
  140.6499  143.7570  150.7558 H   0  0  0  0  0  0  0  0  0  0  0  0  # atno 10167 bound_to 10162
  156.9301  130.5822  149.5649 H   0  0  0  0  0  0  0  0  0  0  0  0  # atno 10718 bound_to 10713
  153.9978  135.2926  155.3406 H   0  0  0  0  0  0  0  0  0  0  0  0  # atno 10763 bound_to 10752
  154.7177  135.5122  153.8767 H   0  0  0  0  0  0  0  0  0  0  0  0  # atno 10764 bound_to 10752
  153.0780  135.6670  154.0223 H   0  0  0  0  0  0  0  0  0  0  0  0  # atno 10765 bound_to 10752
  141.1479  133.7933  157.0252 H   0  0  0  0  0  0  0  0  0  0  0  0  # atno 11005 bound_to 11000
  145.4959  141.0438  143.2567 LP  0  0  0  0  0  0  0  0  0  0  0  0  # atno 17320 bound_to 7965
  144.7835  139.6475  143.7144 LP  0  0  0  0  0  0  0  0  0  0  0  0  # atno 17321 bound_to 7965
  140.1219  143.4604  152.2308 LP  0  0  0  0  0  0  0  0  0  0  0  0  # atno 17342 bound_to 10162
  139.5713  144.7464  151.3883 LP  0  0  0  0  0  0  0  0  0  0  0  0  # atno 17343 bound_to 10162
  156.0451  130.5529  150.8862 LP  0  0  0  0  0  0  0  0  0  0  0  0  # atno 17370 bound_to 10713
  157.5853  131.0945  150.9207 LP  0  0  0  0  0  0  0  0  0  0  0  0  # atno 17371 bound_to 10713
  140.0790  134.9659  157.1593 LP  0  0  0  0  0  0  0  0  0  0  0  0  # atno 17394 bound_to 11000
  140.3604  134.2501  155.7188 LP  0  0  0  0  0  0  0  0  0  0  0  0  # atno 17395 bound_to 11000

$$$$
