AV-unprocessed.smi:1987|AV-procd|sdf|8055|dock9
  -GOLD-   2272010263D 1   1.00000     0.00000
 Structure written by MMmdl.
 37 39  0  0  0  0  0  0  0  0  2 V2000
  150.7418  139.8318  154.5323 O   0  0  0  0  0  0  0  0  0  0  0  0
  151.4092  139.5043  155.5128 C   0  0  0  0  0  0  0  0  0  0  0  0
  152.4360  138.3783  155.3999 C   0  0  0  0  0  0  0  0  0  0  0  0
  152.1545  137.3397  156.3731 N   0  0  0  0  0  0  0  0  0  0  0  0
  152.1493  137.3667  157.7076 C   0  0  0  0  0  0  0  0  0  0  0  0
  151.8707  136.1772  158.2189 N   0  0  0  0  0  0  0  0  0  0  0  0
  151.6950  135.3847  157.0965 N   0  0  0  0  0  0  0  0  0  0  0  0
  151.8631  136.0686  155.9983 N   0  0  0  0  0  0  0  0  0  0  0  0
  151.2713  140.0651  156.7241 N   0  0  0  0  0  0  0  0  0  0  0  0
  150.2628  141.0557  157.0801 C   0  0  0  0  0  0  0  0  0  0  0  0
  150.8809  142.2491  157.8348 C   0  0  1  0  0  0  0  0  0  0  0  0
  151.4584  143.3465  156.9424 C   0  0  0  0  0  0  0  0  0  0  0  0
  151.5326  144.5379  157.8930 C   0  0  0  0  0  0  0  0  0  0  0  0
  150.3509  144.4166  158.7748 N   0  3  2  0  0  0  0  0  0  0  0  0
  150.5716  144.9318  160.1431 C   0  0  0  0  0  0  0  0  0  0  0  0
  151.8852  145.6578  160.3096 C   0  0  0  0  0  0  0  0  0  0  0  0
  151.7154  144.2602  160.8648 C   0  0  0  0  0  0  0  0  0  0  0  0
  149.8896  143.0086  158.7261 C   0  0  0  0  0  0  0  0  0  0  0  0
  152.4085  137.9418  154.4007 H   0  0  0  0  0  0  0  0  0  0  0  0
  153.4440  138.7650  155.5590 H   0  0  0  0  0  0  0  0  0  0  0  0
  152.3586  138.2463  158.2983 H   0  0  0  0  0  0  0  0  0  0  0  0
  151.8703  139.7361  157.4680 H   0  0  0  0  0  0  0  0  0  0  0  0
  149.7894  141.3978  156.1594 H   0  0  0  0  0  0  0  0  0  0  0  0
  149.4775  140.5911  157.6787 H   0  0  0  0  0  0  0  0  0  0  0  0
  151.6866  141.8853  158.4750 H   0  0  0  0  0  0  0  0  0  0  0  0
  152.4292  143.0851  156.5193 H   0  0  0  0  0  0  0  0  0  0  0  0
  150.7771  143.5661  156.1190 H   0  0  0  0  0  0  0  0  0  0  0  0
  152.4467  144.4700  158.4856 H   0  0  0  0  0  0  0  0  0  0  0  0
  151.5444  145.4936  157.3685 H   0  0  0  0  0  0  0  0  0  0  0  0
  149.6873  145.2574  160.6885 H   0  0  0  0  0  0  0  0  0  0  0  0
  152.5220  145.7780  159.4349 H   0  0  0  0  0  0  0  0  0  0  0  0
  151.9187  146.4772  161.0249 H   0  0  0  0  0  0  0  0  0  0  0  0
  151.6371  144.1595  161.9455 H   0  0  0  0  0  0  0  0  0  0  0  0
  152.2400  143.4511  160.3595 H   0  0  0  0  0  0  0  0  0  0  0  0
  148.8901  143.0015  158.2900 H   0  0  0  0  0  0  0  0  0  0  0  0
  149.8169  142.5554  159.7160 H   0  0  0  0  0  0  0  0  0  0  0  0
  149.6160  144.9706  158.3587 H   0  0  0  0  0  0  0  0  0  0  0  0
  1  2  2  0  0  0  0
  2  3  1  0  0  0  0
  2  9  1  0  0  0  0
  3  4  1  0  0  0  0
  3 19  1  0  0  0  0
  3 20  1  0  0  0  0
  4  8  1  0  0  0  0
  4  5  1  0  0  0  0
  5  6  2  0  0  0  0
  5 21  1  0  0  0  0
  6  7  1  0  0  0  0
  7  8  2  0  0  0  0
  9 10  1  0  0  0  0
  9 22  1  0  0  0  0
 10 11  1  0  0  0  0
 10 23  1  0  0  0  0
 10 24  1  0  0  0  0
 11 18  1  0  0  0  0
 11 12  1  0  0  0  0
 11 25  1  0  0  0  0
 12 13  1  0  0  0  0
 12 26  1  0  0  0  0
 12 27  1  0  0  0  0
 13 14  1  0  0  0  0
 13 28  1  0  0  0  0
 13 29  1  0  0  0  0
 14 15  1  0  0  0  0
 14 18  1  0  0  0  0
 14 37  1  0  0  0  0
 15 17  1  0  0  0  0
 15 16  1  0  0  0  0
 15 30  1  0  0  0  0
 16 17  1  0  0  0  0
 16 31  1  0  0  0  0
 16 32  1  0  0  0  0
 17 33  1  0  0  0  0
 17 34  1  0  0  0  0
 18 35  1  0  0  0  0
 18 36  1  0  0  0  0
M  CHG  1  14   1
M  END
> <s_m_source_file>
AV-unprocessed.smi

> <i_m_source_file_index>
1987

> <i_lp_mmshare_version>
43012

> <i_f3d_flags>
0

> <s_epik_input>
bjFubltjSF1uMVtDSDJdQyg9TylbTkhdW0NIMl1bQ0BASF0yW0NIMl1bQ0gyXU4oW0NIMl0yKVtDSF0zW0NIMl1bQ0gyXTM=

> <s_epik_cmdline>
J2VwaWtfcHl0aG9uJywgJy1waCcsICc3LjAnLCAnLXRuJywgJzgnLCAnLW1hJywgJzIwMCcsICctbWV0YWxfYmluZGluZycsICctaW1hZScsICc8aW5maWxlLm1hZT4nLCAnLW9tYWUnLCAnPG91dGZpbGUubWFlPic=

> <r_lp_tautomer_probability>
1

> <r_epik_Ionization_Penalty>
0.000242849

> <r_epik_Ionization_Penalty_Charging>
0.000241326

> <r_epik_Ionization_Penalty_Neutral>
1.52322e-06

> <r_epik_State_Penalty>
-0

> <r_epik_Charging_Adjusted_Penalty>
0.000241326

> <i_epik_Tot_Q>
1

> <i_epik_Tot_abs_Q>
1

> <r_epik_Metal_State_Penalty>
-0

> <b_epik_Metal_Only>
0

> <s_lp_Force_Field>
OPLS_2005

> <r_lp_Energy>
38.094

> <b_lp_Chiralities_Consistent>
1

> <s_lp_Variant>
AV-unprocessed.smi:1987-2

> <Gold.Version>
5.8.1

> <Gold.Id.Protein>
6NUR|6NUR_protein|mol2

> <Gold.PLP.Fitness>
43.6405

> <Gold.PLP.PLP>
-33.3535

> <Gold.PLP.part.hbond>
-5.4688

> <Gold.PLP.part.metal>
0.0000

> <Gold.PLP.part.buried>
-4.7975

> <Gold.PLP.part.nonpolar>
-24.6000

> <Gold.PLP.part.repulsive>
0.3601

> <Gold.PLP.ligand.clash>
2.2744

> <Gold.PLP.ligand.torsion>
1.0665

> <Gold.PLP.Chemscore.Hbond>
4.4742

> <Gold.PLP.Chemscore.CHOScore>
0.0000

> <Gold.PLP.Chemscore.Metal>
0.0000

> <Gold.Chemscore.Hbonds>
donor molecule, donor type, donor heavy atom, donor atom, acceptor molecule, acceptor atom, score
      L1  H    14    37       P1  8029  0.94
      P1  H  6896  6909       L1     6  0.38
      P1  H  7989  7998       L1     1  1.00
      P1  H 10752 10764       L1     8  1.00

> <Gold.PLP.Chemscore.Internal.Correction>
1.2719

> <Gold.Rescore>
     Score         DG    S(hbond)    S(metal)    S(lipo)     H(rot)  DE(clash)    DE(int)     intcor
     15.71     -17.32       2.76        0.00      79.69       2.62       0.31       1.30       ----

> <Gold.Chemscore.Fitness>
15.7062

> <Gold.Chemscore.DG>
-17.3198

> <Gold.Chemscore.ZeroCoef>
-5.4800

> <Gold.Chemscore.Hbond>
2.7649

> <Gold.Chemscore.Metal>
0.0000

> <Gold.Chemscore.Lipo>
79.6886

> <Gold.Chemscore.Internal_Hbond>
0.0000

> <Gold.Chemscore.DEClash>
0.3135

> <Gold.Chemscore.DEInternal>
1.3001

> <Gold.Chemscore.Rot>
2.6244

> <Gold.Chemscore.Internal.Correction>
   9.000000E+99

> <Gold.Chemscore.Hbonds>
donor molecule, donor type, donor heavy atom, donor atom, acceptor molecule, acceptor atom, score
      L1  H    14    37       P1  8029  0.20
      P1  H  6896  6909       L1     6  0.28
      P1  H  7989  7998       L1     1  0.78
      P1  H 10752 10764       L1     8  0.71

> <Gold.Chemscore.Hbond.Weighted>
-9.2348

> <Gold.Chemscore.Metal.Weighted>
-0.0000

> <Gold.Chemscore.Lipo.Weighted>
-9.3236

> <Gold.Chemscore.Internal_Hbond.Weighted>
0.0000

> <Gold.Chemscore.DEClash.Weighted>
0.3135

> <Gold.Chemscore.DEInternal.Weighted>
1.3001

> <Gold.Chemscore.Rot.Weighted>
6.7186

> <Gold.Chemscore.Internal.Correction.Weighted>
   9.000000E+99

> <Gold.Protein.RotatedTorsions>
[ 6907 6896 6895 6894 ] final  111.39 input  -60.11 | X-H torsion
[ 7974 7965 7964 7962 ] final   92.38 input  175.53 | X-H torsion
[ 8008 7997 7996 7995 ] final  114.50 input   59.86 | X-H torsion
[ 10167 10162 10161 10158 ] final   25.14 input  -65.29 | X-H torsion
[ 10718 10713 10712 10709 ] final  109.07 input   66.30 | X-H torsion
[ 10763 10752 10751 10750 ] final  -42.32 input  -60.55 | X-H torsion
[ 11005 11000 10999 10996 ] final  161.16 input  -57.11 | X-H torsion

> <Gold.Protein.ActiveResidues>
 VAL166  LYS551  ARG553  GLY616  TRP617  ASP618  TYR619  PRO620  LYS621  CYS622 
 ASP623  PHE694  ASN695  SER759  ASP760  ASP761  ALA762  ILE779  LEU786  VAL792 
 PHE793  MET794  SER795  GLU796  ALA797  LYS798  CYS799  TRP800  GLU811  SER814 

> <Gold.Protein.RotatedAtoms>
  152.4972  133.8665  159.7276 H   0  0  0  0  0  0  0  0  0  0  0  0  # atno 6907 bound_to 6896
  150.9163  133.6926  159.2849 H   0  0  0  0  0  0  0  0  0  0  0  0  # atno 6908 bound_to 6896
  151.4319  135.1015  159.9697 H   0  0  0  0  0  0  0  0  0  0  0  0  # atno 6909 bound_to 6896
  145.4931  139.2276  143.2819 H   0  0  0  0  0  0  0  0  0  0  0  0  # atno 7974 bound_to 7965
  156.2325  140.2958  156.0225 H   0  0  0  0  0  0  0  0  0  0  0  0  # atno 8008 bound_to 7997
  155.2185  140.0415  157.2962 H   0  0  0  0  0  0  0  0  0  0  0  0  # atno 8009 bound_to 7997
  154.6020  140.2429  155.7787 H   0  0  0  0  0  0  0  0  0  0  0  0  # atno 8010 bound_to 7997
  140.5130  144.0128  150.6381 H   0  0  0  0  0  0  0  0  0  0  0  0  # atno 10167 bound_to 10162
  157.6558  131.0906  150.6399 H   0  0  0  0  0  0  0  0  0  0  0  0  # atno 10718 bound_to 10713
  153.9771  135.6721  153.4749 H   0  0  0  0  0  0  0  0  0  0  0  0  # atno 10763 bound_to 10752
  153.0766  135.4945  154.8413 H   0  0  0  0  0  0  0  0  0  0  0  0  # atno 10764 bound_to 10752
  154.7186  135.3112  154.9045 H   0  0  0  0  0  0  0  0  0  0  0  0  # atno 10765 bound_to 10752
  140.2130  134.8253  157.3141 H   0  0  0  0  0  0  0  0  0  0  0  0  # atno 11005 bound_to 11000
  146.2272  140.5727  142.8991 LP  0  0  0  0  0  0  0  0  0  0  0  0  # atno 17320 bound_to 7965
  144.7822  140.5864  143.6597 LP  0  0  0  0  0  0  0  0  0  0  0  0  # atno 17321 bound_to 7965
  140.3456  143.2993  152.0542 LP  0  0  0  0  0  0  0  0  0  0  0  0  # atno 17342 bound_to 10162
  139.4901  144.6411  151.6875 LP  0  0  0  0  0  0  0  0  0  0  0  0  # atno 17343 bound_to 10162
  156.6706  130.4538  149.5658 LP  0  0  0  0  0  0  0  0  0  0  0  0  # atno 17370 bound_to 10713
  156.2000  130.6614  151.1157 LP  0  0  0  0  0  0  0  0  0  0  0  0  # atno 17371 bound_to 10713
  140.1930  134.4348  155.7705 LP  0  0  0  0  0  0  0  0  0  0  0  0  # atno 17394 bound_to 11000
  141.2225  133.7036  156.8059 LP  0  0  0  0  0  0  0  0  0  0  0  0  # atno 17395 bound_to 11000

$$$$
