AV-unprocessed.smi:1601|AV-procd|sdf|6435|dock2
  -GOLD-   22720 7 83D 1   1.00000     0.00000
 Structure written by MMmdl.
 42 43  0  0  0  0  0  0  0  0  2 V2000
  150.4232  140.0573  154.8747 C   0  0  0  0  0  0  0  0  0  0  0  0
  150.1377  141.1498  155.9346 C   0  0  2  0  0  0  0  0  0  0  0  0
  150.3515  140.5917  157.3702 C   0  0  0  0  0  0  0  0  0  0  0  0
  151.2669  141.3972  158.1752 N   0  0  0  0  0  0  0  0  0  0  0  0
  152.5417  141.0821  158.4593 C   0  0  0  0  0  0  0  0  0  0  0  0
  153.0952  140.0702  158.0278 O   0  0  0  0  0  0  0  0  0  0  0  0
  153.3006  142.0717  159.3592 C   0  0  2  0  0  0  0  0  0  0  0  0
  153.6364  141.4875  160.7466 C   0  0  0  0  0  0  0  0  0  0  0  0
  152.5741  143.3323  159.4594 N   0  0  0  0  0  0  0  0  0  0  0  0
  152.2543  144.0396  160.6009 C   0  0  0  0  0  0  0  0  0  0  0  0
  151.5988  145.1725  160.2124 C   0  0  0  0  0  0  0  0  0  0  0  0
  151.5710  145.0770  158.7934 C   0  0  0  0  0  0  0  0  0  0  0  0
  152.1594  143.9803  158.3456 N   0  0  0  0  0  0  0  0  0  0  0  0
  148.7692  141.7430  155.7526 N   0  3  0  0  0  0  0  0  0  0  0  0
  148.2765  141.7277  154.3457 C   0  0  0  0  0  0  0  0  0  0  0  0
  146.8758  142.3529  154.2280 C   0  0  0  0  0  0  0  0  0  0  0  0
  145.9720  141.6732  155.0837 O   0  0  0  0  0  0  0  0  0  0  0  0
  146.3616  141.7978  156.4415 C   0  0  0  0  0  0  0  0  0  0  0  0
  147.7382  141.1440  156.6472 C   0  0  0  0  0  0  0  0  0  0  0  0
  151.3982  139.5927  155.0158 H   0  0  0  0  0  0  0  0  0  0  0  0
  150.4505  140.4536  153.8614 H   0  0  0  0  0  0  0  0  0  0  0  0
  149.6743  139.2657  154.9114 H   0  0  0  0  0  0  0  0  0  0  0  0
  150.8629  141.9518  155.7867 H   0  0  0  0  0  0  0  0  0  0  0  0
  149.4183  140.6024  157.9313 H   0  0  0  0  0  0  0  0  0  0  0  0
  150.6740  139.5499  157.3269 H   0  0  0  0  0  0  0  0  0  0  0  0
  150.8954  142.2498  158.5688 H   0  0  0  0  0  0  0  0  0  0  0  0
  154.2500  142.2865  158.8658 H   0  0  0  0  0  0  0  0  0  0  0  0
  154.2257  140.5742  160.6574 H   0  0  0  0  0  0  0  0  0  0  0  0
  152.7394  141.2474  161.3192 H   0  0  0  0  0  0  0  0  0  0  0  0
  154.2212  142.1963  161.3334 H   0  0  0  0  0  0  0  0  0  0  0  0
  152.5165  143.6816  161.5856 H   0  0  0  0  0  0  0  0  0  0  0  0
  151.2024  145.9522  160.8456 H   0  0  0  0  0  0  0  0  0  0  0  0
  151.1471  145.7684  158.0801 H   0  0  0  0  0  0  0  0  0  0  0  0
  148.9324  142.3021  153.6939 H   0  0  0  0  0  0  0  0  0  0  0  0
  148.2609  140.7018  153.9742 H   0  0  0  0  0  0  0  0  0  0  0  0
  146.9012  143.4163  154.4723 H   0  0  0  0  0  0  0  0  0  0  0  0
  146.5159  142.2726  153.2022 H   0  0  0  0  0  0  0  0  0  0  0  0
  146.3793  142.8485  156.7363 H   0  0  0  0  0  0  0  0  0  0  0  0
  145.6165  141.3061  157.0673 H   0  0  0  0  0  0  0  0  0  0  0  0
  147.6716  140.0709  156.4609 H   0  0  0  0  0  0  0  0  0  0  0  0
  147.9997  141.2740  157.6951 H   0  0  0  0  0  0  0  0  0  0  0  0
  148.8445  142.7162  156.0132 H   0  0  0  0  0  0  0  0  0  0  0  0
  1  2  1  0  0  0  0
  1 20  1  0  0  0  0
  1 21  1  0  0  0  0
  1 22  1  0  0  0  0
  2  3  1  0  0  0  0
  2 14  1  0  0  0  0
  2 23  1  0  0  0  0
  3  4  1  0  0  0  0
  3 24  1  0  0  0  0
  3 25  1  0  0  0  0
  4  5  1  0  0  0  0
  4 26  1  0  0  0  0
  5  6  2  0  0  0  0
  5  7  1  0  0  0  0
  7  8  1  0  0  0  0
  7  9  1  0  0  0  0
  7 27  1  0  0  0  0
  8 28  1  0  0  0  0
  8 29  1  0  0  0  0
  8 30  1  0  0  0  0
  9 13  1  0  0  0  0
  9 10  1  0  0  0  0
 10 11  2  0  0  0  0
 10 31  1  0  0  0  0
 11 12  1  0  0  0  0
 11 32  1  0  0  0  0
 12 13  2  0  0  0  0
 12 33  1  0  0  0  0
 14 19  1  0  0  0  0
 14 15  1  0  0  0  0
 14 42  1  0  0  0  0
 15 16  1  0  0  0  0
 15 34  1  0  0  0  0
 15 35  1  0  0  0  0
 16 17  1  0  0  0  0
 16 36  1  0  0  0  0
 16 37  1  0  0  0  0
 17 18  1  0  0  0  0
 18 19  1  0  0  0  0
 18 38  1  0  0  0  0
 18 39  1  0  0  0  0
 19 40  1  0  0  0  0
 19 41  1  0  0  0  0
M  CHG  1  14   1
M  END
> <s_m_source_file>
AV-unprocessed.smi

> <i_m_source_file_index>
1601

> <i_lp_mmshare_version>
43012

> <i_f3d_flags>
0

> <s_epik_input>
W0NIMl0xW0NIMl1PW0NIMl1bQ0gyXU4xW0NASF0oW0NIM10pW0NIMl1bTkhdQyg9TylbQ0BIXShbQ0gzXSluMltjSF1bY0hdW2NIXW4y

> <s_epik_cmdline>
J2VwaWtfcHl0aG9uJywgJy1waCcsICc3LjAnLCAnLXRuJywgJzgnLCAnLW1hJywgJzIwMCcsICctbWV0YWxfYmluZGluZycsICctaW1hZScsICc8aW5maWxlLm1hZT4nLCAnLW9tYWUnLCAnPG91dGZpbGUubWFlPic=

> <r_lp_tautomer_probability>
1

> <r_epik_Ionization_Penalty>
0.732551

> <r_epik_Ionization_Penalty_Charging>
0.732531

> <r_epik_Ionization_Penalty_Neutral>
2.04647e-05

> <r_epik_State_Penalty>
0.757939

> <r_epik_Charging_Adjusted_Penalty>
1.49047

> <i_epik_Tot_Q>
1

> <i_epik_Tot_abs_Q>
1

> <r_epik_Metal_State_Penalty>
0.757952

> <b_epik_Metal_Only>
0

> <s_lp_Force_Field>
OPLS_2005

> <r_lp_Energy>
26.1921

> <b_lp_Chiralities_Consistent>
1

> <s_lp_Variant>
AV-unprocessed.smi:1601-5

> <Gold.Version>
5.8.1

> <Gold.Id.Protein>
6NUR|6NUR_protein|mol2

> <Gold.PLP.Fitness>
48.7583

> <Gold.PLP.PLP>
-43.5321

> <Gold.PLP.part.hbond>
-2.0000

> <Gold.PLP.part.metal>
0.0000

> <Gold.PLP.part.buried>
-6.0596

> <Gold.PLP.part.nonpolar>
-36.4595

> <Gold.PLP.part.repulsive>
0.3722

> <Gold.PLP.ligand.clash>
0.0000

> <Gold.PLP.ligand.torsion>
1.9619

> <Gold.PLP.Chemscore.Hbond>
3.0000

> <Gold.PLP.Chemscore.CHOScore>
0.0000

> <Gold.PLP.Chemscore.Metal>
0.0000

> <Gold.Chemscore.Hbonds>
donor molecule, donor type, donor heavy atom, donor atom, acceptor molecule, acceptor atom, score
      L1  H    14    42       P1  8028  1.98
      P1  H  7997  8010       L1     6  0.96

> <Gold.PLP.Chemscore.Internal.Correction>
0.1499

> <Gold.Rescore>
     Score         DG    S(hbond)    S(metal)    S(lipo)     H(rot)  DE(clash)    DE(int)     intcor
     14.85     -17.93       1.94        0.00      91.77       1.86       0.03       3.05       ----

> <Gold.Chemscore.Fitness>
14.8533

> <Gold.Chemscore.DG>
-17.9273

> <Gold.Chemscore.ZeroCoef>
-5.4800

> <Gold.Chemscore.Hbond>
1.9400

> <Gold.Chemscore.Metal>
0.0000

> <Gold.Chemscore.Lipo>
91.7711

> <Gold.Chemscore.Internal_Hbond>
0.0000

> <Gold.Chemscore.DEClash>
0.0269

> <Gold.Chemscore.DEInternal>
3.0471

> <Gold.Chemscore.Rot>
1.8631

> <Gold.Chemscore.Internal.Correction>
   9.000000E+99

> <Gold.Chemscore.Hbonds>
donor molecule, donor type, donor heavy atom, donor atom, acceptor molecule, acceptor atom, score
      L1  H    14    42       P1  8028  0.91
      P1  H  7997  8010       L1     6  0.92

> <Gold.Chemscore.Hbond.Weighted>
-6.4797

> <Gold.Chemscore.Metal.Weighted>
-0.0000

> <Gold.Chemscore.Lipo.Weighted>
-10.7372

> <Gold.Chemscore.Internal_Hbond.Weighted>
0.0000

> <Gold.Chemscore.DEClash.Weighted>
0.0269

> <Gold.Chemscore.DEInternal.Weighted>
3.0471

> <Gold.Chemscore.Rot.Weighted>
4.7697

> <Gold.Chemscore.Internal.Correction.Weighted>
   9.000000E+99

> <Gold.Protein.RotatedTorsions>
[ 6907 6896 6895 6894 ] final -151.66 input  -60.11 | X-H torsion
[ 7974 7965 7964 7962 ] final -148.85 input  175.53 | X-H torsion
[ 8008 7997 7996 7995 ] final   50.99 input   59.86 | X-H torsion
[ 10167 10162 10161 10158 ] final   23.95 input  -65.29 | X-H torsion
[ 10718 10713 10712 10709 ] final  -90.29 input   66.30 | X-H torsion
[ 10763 10752 10751 10750 ] final   25.56 input  -60.55 | X-H torsion
[ 11005 11000 10999 10996 ] final -114.16 input  -57.11 | X-H torsion

> <Gold.Protein.ActiveResidues>
 VAL166  LYS551  ARG553  GLY616  TRP617  ASP618  TYR619  PRO620  LYS621  CYS622 
 ASP623  PHE694  ASN695  SER759  ASP760  ASP761  ALA762  ILE779  LEU786  VAL792 
 PHE793  MET794  SER795  GLU796  ALA797  LYS798  CYS799  TRP800  GLU811  SER814 

> <Gold.Protein.RotatedAtoms>
  151.2164  133.4527  159.2599 H   0  0  0  0  0  0  0  0  0  0  0  0  # atno 6907 bound_to 6896
  151.0927  134.9925  159.8420 H   0  0  0  0  0  0  0  0  0  0  0  0  # atno 6908 bound_to 6896
  152.5436  134.2096  159.8798 H   0  0  0  0  0  0  0  0  0  0  0  0  # atno 6909 bound_to 6896
  144.8003  140.5142  143.5711 H   0  0  0  0  0  0  0  0  0  0  0  0  # atno 7974 bound_to 7965
  155.4280  140.3449  155.4277 H   0  0  0  0  0  0  0  0  0  0  0  0  # atno 8008 bound_to 7997
  156.1354  140.1526  156.9034 H   0  0  0  0  0  0  0  0  0  0  0  0  # atno 8009 bound_to 7997
  154.4927  140.0836  156.7610 H   0  0  0  0  0  0  0  0  0  0  0  0  # atno 8010 bound_to 7997
  140.5228  143.9974  150.6425 H   0  0  0  0  0  0  0  0  0  0  0  0  # atno 10167 bound_to 10162
  155.9987  130.4904  150.5300 H   0  0  0  0  0  0  0  0  0  0  0  0  # atno 10718 bound_to 10713
  153.0684  135.6580  154.0303 H   0  0  0  0  0  0  0  0  0  0  0  0  # atno 10763 bound_to 10752
  153.9955  135.2942  155.3409 H   0  0  0  0  0  0  0  0  0  0  0  0  # atno 10764 bound_to 10752
  154.7049  135.5229  153.8650 H   0  0  0  0  0  0  0  0  0  0  0  0  # atno 10765 bound_to 10752
  141.0569  133.9598  157.2737 H   0  0  0  0  0  0  0  0  0  0  0  0  # atno 11005 bound_to 11000
  145.5569  139.1478  143.3363 LP  0  0  0  0  0  0  0  0  0  0  0  0  # atno 17320 bound_to 7965
  146.2283  140.5706  142.8986 LP  0  0  0  0  0  0  0  0  0  0  0  0  # atno 17321 bound_to 7965
  140.3327  143.3067  152.0670 LP  0  0  0  0  0  0  0  0  0  0  0  0  # atno 17342 bound_to 10162
  139.4929  144.6498  151.6701 LP  0  0  0  0  0  0  0  0  0  0  0  0  # atno 17343 bound_to 10162
  157.3251  131.0689  151.1903 LP  0  0  0  0  0  0  0  0  0  0  0  0  # atno 17370 bound_to 10713
  157.2803  130.6747  149.6063 LP  0  0  0  0  0  0  0  0  0  0  0  0  # atno 17371 bound_to 10713
  139.9398  135.0192  156.8672 LP  0  0  0  0  0  0  0  0  0  0  0  0  # atno 17394 bound_to 11000
  140.5946  134.0230  155.7513 LP  0  0  0  0  0  0  0  0  0  0  0  0  # atno 17395 bound_to 11000

$$$$
