AV-unprocessed.smi:1484|AV-procd|sdf|5998|dock6
  -GOLD-   22720 6 93D 1   1.00000     0.00000
 Structure written by MMmdl.
 38 39  0  0  0  0  0  0  0  0  1 V2000
  151.8570  144.7294  158.5345 C   0  0  0  0  0  0  0  0  0  0  0  0
  152.4258  143.3037  158.5087 C   0  0  1  0  0  0  0  0  0  0  0  0
  152.4984  142.7008  159.9244 C   0  0  0  0  0  0  0  0  0  0  0  0
  153.0680  141.2738  159.8995 C   0  0  0  0  0  0  0  0  0  0  0  0
  152.2563  140.3652  158.9638 C   0  0  0  0  0  0  0  0  0  0  0  0
  152.1729  140.9550  157.5417 C   0  0  1  0  0  0  0  0  0  0  0  0
  151.3267  140.1251  156.6921 N   0  0  0  0  0  0  0  0  0  0  0  0
  151.6929  139.5585  155.5298 C   0  0  0  0  0  0  0  0  0  0  0  0
  152.8204  139.6842  155.0531 O   0  0  0  0  0  0  0  0  0  0  0  0
  150.6512  138.7148  154.7737 C   0  0  0  0  0  0  0  0  0  0  0  0
  149.4173  139.4317  154.4113 N   0  0  0  0  0  0  0  0  0  0  0  0
  149.5653  140.8084  154.3348 N   0  0  0  0  0  0  0  0  0  0  0  0
  148.5597  141.5481  154.0092 C   0  0  0  0  0  0  0  0  0  0  0  0
  148.7519  142.9060  153.9424 O   0  0  0  0  0  0  0  0  0  0  0  0
  147.2661  140.9684  153.7220 C   0  0  0  0  0  0  0  0  0  0  0  0
  147.1308  139.6266  153.8011 C   0  0  0  0  0  0  0  0  0  0  0  0
  148.2517  138.7578  154.1645 C   0  0  0  0  0  0  0  0  0  0  0  0
  148.1601  137.5325  154.2325 O   0  0  0  0  0  0  0  0  0  0  0  0
  151.6098  142.3884  157.5755 C   0  0  0  0  0  0  0  0  0  0  0  0
  148.8173  143.1946  154.8398 H   0  0  0  0  0  0  0  0  0  0  0  0
  150.8387  144.7435  158.9246 H   0  0  0  0  0  0  0  0  0  0  0  0
  151.8364  145.1624  157.5340 H   0  0  0  0  0  0  0  0  0  0  0  0
  152.4635  145.3825  159.1626 H   0  0  0  0  0  0  0  0  0  0  0  0
  153.4419  143.3635  158.1154 H   0  0  0  0  0  0  0  0  0  0  0  0
  153.1163  143.3288  160.5671 H   0  0  0  0  0  0  0  0  0  0  0  0
  151.5034  142.6864  160.3715 H   0  0  0  0  0  0  0  0  0  0  0  0
  154.1077  141.3008  159.5708 H   0  0  0  0  0  0  0  0  0  0  0  0
  153.0731  140.8582  160.9074 H   0  0  0  0  0  0  0  0  0  0  0  0
  152.7094  139.3735  158.9355 H   0  0  0  0  0  0  0  0  0  0  0  0
  151.2520  140.2344  159.3694 H   0  0  0  0  0  0  0  0  0  0  0  0
  153.1770  140.9946  157.1147 H   0  0  0  0  0  0  0  0  0  0  0  0
  150.3806  139.9704  157.0095 H   0  0  0  0  0  0  0  0  0  0  0  0
  151.1220  138.2968  153.8823 H   0  0  0  0  0  0  0  0  0  0  0  0
  150.4051  137.8531  155.3968 H   0  0  0  0  0  0  0  0  0  0  0  0
  146.4340  141.6019  153.4524 H   0  0  0  0  0  0  0  0  0  0  0  0
  146.1701  139.1805  153.5892 H   0  0  0  0  0  0  0  0  0  0  0  0
  150.5698  142.3669  157.9053 H   0  0  0  0  0  0  0  0  0  0  0  0
  151.6037  142.8031  156.5664 H   0  0  0  0  0  0  0  0  0  0  0  0
  1  2  1  0  0  0  0
  1 21  1  0  0  0  0
  1 22  1  0  0  0  0
  1 23  1  0  0  0  0
  2 19  1  0  0  0  0
  2  3  1  0  0  0  0
  2 24  1  0  0  0  0
  3  4  1  0  0  0  0
  3 25  1  0  0  0  0
  3 26  1  0  0  0  0
  4  5  1  0  0  0  0
  4 27  1  0  0  0  0
  4 28  1  0  0  0  0
  5  6  1  0  0  0  0
  5 29  1  0  0  0  0
  5 30  1  0  0  0  0
  6  7  1  0  0  0  0
  6 19  1  0  0  0  0
  6 31  1  0  0  0  0
  7  8  1  0  0  0  0
  7 32  1  0  0  0  0
  8  9  2  0  0  0  0
  8 10  1  0  0  0  0
 10 33  1  0  0  0  0
 10 34  1  0  0  0  0
 10 11  1  0  0  0  0
 11 12  1  0  0  0  0
 11 17  1  0  0  0  0
 12 13  2  0  0  0  0
 13 14  1  0  0  0  0
 13 15  1  0  0  0  0
 14 20  1  0  0  0  0
 15 35  1  0  0  0  0
 15 16  2  0  0  0  0
 16 36  1  0  0  0  0
 16 17  1  0  0  0  0
 17 18  2  0  0  0  0
 19 37  1  0  0  0  0
 19 38  1  0  0  0  0
M  END
> <s_m_source_file>
AV-unprocessed.smi

> <i_m_source_file_index>
1484

> <i_lp_mmshare_version>
43012

> <i_f3d_flags>
0

> <s_epik_input>
W0NIM11bQ0BASF0xW0NIMl1bQ0gyXVtDSDJdW0NASF0oW0NIMl0xKVtOSF1DKD1PKVtDSDJdbjJbbkhdYyg9TylbY0hdW2NIXWMyPU8=

> <s_epik_cmdline>
J2VwaWtfcHl0aG9uJywgJy1waCcsICc3LjAnLCAnLXRuJywgJzgnLCAnLW1hJywgJzIwMCcsICctbWV0YWxfYmluZGluZycsICctaW1hZScsICc8aW5maWxlLm1hZT4nLCAnLW9tYWUnLCAnPG91dGZpbGUubWFlPic=

> <r_lp_tautomer_probability>
0.9996

> <r_epik_Ionization_Penalty>
2.10343

> <r_epik_Ionization_Penalty_Charging>
3.97871e-08

> <r_epik_Ionization_Penalty_Neutral>
2.10343

> <r_epik_State_Penalty>
1.67966

> <r_epik_Charging_Adjusted_Penalty>
1.67966

> <i_epik_Tot_Q>
0

> <i_epik_Tot_abs_Q>
0

> <r_epik_Metal_State_Penalty>
1.67966

> <b_epik_Metal_Only>
0

> <s_lp_Force_Field>
OPLS_2005

> <r_lp_Energy>
20.3723

> <b_lp_Chiralities_Consistent>
1

> <s_lp_Variant>
AV-unprocessed.smi:1484-6

> <Gold.Version>
5.8.1

> <Gold.Id.Protein>
6NUR|6NUR_protein|mol2

> <Gold.PLP.Fitness>
46.0944

> <Gold.PLP.PLP>
-40.1317

> <Gold.PLP.part.hbond>
-5.1412

> <Gold.PLP.part.metal>
0.0000

> <Gold.PLP.part.buried>
-3.3836

> <Gold.PLP.part.nonpolar>
-31.9429

> <Gold.PLP.part.repulsive>
2.2900

> <Gold.PLP.ligand.clash>
0.0000

> <Gold.PLP.ligand.torsion>
0.3472

> <Gold.PLP.Chemscore.Hbond>
2.2174

> <Gold.PLP.Chemscore.CHOScore>
0.0000

> <Gold.PLP.Chemscore.Metal>
0.0000

> <Gold.Chemscore.Hbonds>
donor molecule, donor type, donor heavy atom, donor atom, acceptor molecule, acceptor atom, score
      L1  H    14    20       P1  8028  0.69
      P1  H  7989  7998       L1    12  0.32
      P1  H  7997  8008       L1     9  1.00
      P1  H  8022  8030       L1    14  0.15

> <Gold.PLP.Chemscore.Internal.Correction>
0.0050

> <Gold.Rescore>
     Score         DG    S(hbond)    S(metal)    S(lipo)     H(rot)  DE(clash)    DE(int)     intcor
     12.87     -15.92       1.84        0.00      85.80       2.24       1.55       1.51       ----

> <Gold.Chemscore.Fitness>
12.8672

> <Gold.Chemscore.DG>
-15.9247

> <Gold.Chemscore.ZeroCoef>
-5.4800

> <Gold.Chemscore.Hbond>
1.8402

> <Gold.Chemscore.Metal>
0.0000

> <Gold.Chemscore.Lipo>
85.7962

> <Gold.Chemscore.Internal_Hbond>
0.0000

> <Gold.Chemscore.DEClash>
1.5466

> <Gold.Chemscore.DEInternal>
1.5109

> <Gold.Chemscore.Rot>
2.2421

> <Gold.Chemscore.Internal.Correction>
   9.000000E+99

> <Gold.Chemscore.Hbonds>
donor molecule, donor type, donor heavy atom, donor atom, acceptor molecule, acceptor atom, score
      L1  H    14    20       P1  8028  0.70
      P1  H  7989  7998       L1    12  0.07
      P1  H  7997  8008       L1     9  1.00

> <Gold.Chemscore.Hbond.Weighted>
-6.1464

> <Gold.Chemscore.Metal.Weighted>
-0.0000

> <Gold.Chemscore.Lipo.Weighted>
-10.0382

> <Gold.Chemscore.Internal_Hbond.Weighted>
0.0000

> <Gold.Chemscore.DEClash.Weighted>
1.5466

> <Gold.Chemscore.DEInternal.Weighted>
1.5109

> <Gold.Chemscore.Rot.Weighted>
5.7398

> <Gold.Chemscore.Internal.Correction.Weighted>
   9.000000E+99

> <Gold.Protein.RotatedTorsions>
[ 6907 6896 6895 6894 ] final -151.85 input  -60.11 | X-H torsion
[ 7974 7965 7964 7962 ] final -137.34 input  175.53 | X-H torsion
[ 8008 7997 7996 7995 ] final  -23.29 input   59.86 | X-H torsion
[ 10167 10162 10161 10158 ] final -137.15 input  -65.29 | X-H torsion
[ 10718 10713 10712 10709 ] final  -60.40 input   66.30 | X-H torsion
[ 10763 10752 10751 10750 ] final  160.76 input  -60.55 | X-H torsion
[ 11005 11000 10999 10996 ] final -170.98 input  -57.11 | X-H torsion

> <Gold.Protein.ActiveResidues>
 VAL166  LYS551  ARG553  GLY616  TRP617  ASP618  TYR619  PRO620  LYS621  CYS622 
 ASP623  PHE694  ASN695  SER759  ASP760  ASP761  ALA762  ILE779  LEU786  VAL792 
 PHE793  MET794  SER795  GLU796  ALA797  LYS798  CYS799  TRP800  GLU811  SER814 

> <Gold.Protein.RotatedAtoms>
  151.2191  133.4512  159.2599 H   0  0  0  0  0  0  0  0  0  0  0  0  # atno 6907 bound_to 6896
  151.0902  134.9911  159.8409 H   0  0  0  0  0  0  0  0  0  0  0  0  # atno 6908 bound_to 6896
  152.5434  134.2125  159.8808 H   0  0  0  0  0  0  0  0  0  0  0  0  # atno 6909 bound_to 6896
  144.8850  140.6562  143.5181 H   0  0  0  0  0  0  0  0  0  0  0  0  # atno 7974 bound_to 7965
  154.4594  140.1984  156.0288 H   0  0  0  0  0  0  0  0  0  0  0  0  # atno 8008 bound_to 7997
  156.0810  140.3271  155.7665 H   0  0  0  0  0  0  0  0  0  0  0  0  # atno 8009 bound_to 7997
  155.5112  140.0562  157.2914 H   0  0  0  0  0  0  0  0  0  0  0  0  # atno 8010 bound_to 7997
  139.8607  143.7081  152.2650 H   0  0  0  0  0  0  0  0  0  0  0  0  # atno 10167 bound_to 10162
  156.0993  130.4188  150.0849 H   0  0  0  0  0  0  0  0  0  0  0  0  # atno 10718 bound_to 10713
  154.2525  135.2771  155.2811 H   0  0  0  0  0  0  0  0  0  0  0  0  # atno 10763 bound_to 10752
  154.5453  135.5691  153.6878 H   0  0  0  0  0  0  0  0  0  0  0  0  # atno 10764 bound_to 10752
  152.9978  135.6261  154.2672 H   0  0  0  0  0  0  0  0  0  0  0  0  # atno 10765 bound_to 10752
  140.5134  134.5779  157.5026 H   0  0  0  0  0  0  0  0  0  0  0  0  # atno 11005 bound_to 11000
  145.3884  139.1621  143.4242 LP  0  0  0  0  0  0  0  0  0  0  0  0  # atno 17320 bound_to 7965
  146.3019  140.3972  142.8701 LP  0  0  0  0  0  0  0  0  0  0  0  0  # atno 17321 bound_to 7965
  139.7377  144.7567  151.0702 LP  0  0  0  0  0  0  0  0  0  0  0  0  # atno 17342 bound_to 10162
  140.7775  143.5010  150.9771 LP  0  0  0  0  0  0  0  0  0  0  0  0  # atno 17343 bound_to 10162
  156.8840  130.9566  151.3596 LP  0  0  0  0  0  0  0  0  0  0  0  0  # atno 17370 bound_to 10713
  157.6160  130.8619  149.9030 LP  0  0  0  0  0  0  0  0  0  0  0  0  # atno 17371 bound_to 10713
  139.9646  134.7395  156.0165 LP  0  0  0  0  0  0  0  0  0  0  0  0  # atno 17394 bound_to 11000
  141.1373  133.6572  156.3630 LP  0  0  0  0  0  0  0  0  0  0  0  0  # atno 17395 bound_to 11000

$$$$
