AV-unprocessed.smi:284|AV-procd|sdf|2162|dock10
  -GOLD-   2262021523D 1   1.00000     0.00000
 Structure written by MMmdl.
 60 62  0  0  0  0  0  0  0  0  1 V2000
  158.9923  143.7851  167.2091 C   0  0  0  0  0  0  0  0  0  0  0  0
  158.2026  142.4851  167.2095 C   0  0  0  0  0  0  0  0  0  0  0  0
  158.0071  141.7625  168.3366 C   0  0  0  0  0  0  0  0  0  0  0  0
  157.2897  140.5772  168.3791 N   0  0  0  0  0  0  0  0  0  0  0  0
  157.0024  139.8253  169.6727 C   0  0  1  0  0  0  0  0  0  0  0  0
  157.8928  140.2151  170.8619 C   0  0  0  0  0  0  0  0  0  0  0  0
  156.9886  141.1204  171.6988 C   0  0  1  0  0  0  0  0  0  0  0  0
  157.6072  142.3673  171.9441 O   0  0  0  0  0  0  0  0  0  0  0  0
  155.7064  141.2762  170.8612 C   0  0  2  0  0  0  0  0  0  0  0  0
  154.4089  141.3500  171.6797 C   0  0  0  0  0  0  0  0  0  0  0  0
  153.4834  140.3866  171.2229 O   0  0  0  0  0  0  0  0  0  0  0  0
  155.6950  140.1031  170.0582 O   0  0  0  0  0  0  0  0  0  0  0  0
  156.6444  140.1281  167.2065 C   0  0  0  0  0  0  0  0  0  0  0  0
  155.9208  139.1292  167.2267 O   0  0  0  0  0  0  0  0  0  0  0  0
  156.8431  140.8491  166.0076 N   0  0  0  0  0  0  0  0  0  0  0  0
  156.1691  140.3691  164.7805 C   0  0  0  0  0  0  0  0  0  0  0  0
  155.2660  141.4311  164.1333 C   0  0  0  0  0  0  0  0  0  0  0  0
  155.0329  142.4876  164.7212 O   0  0  0  0  0  0  0  0  0  0  0  0
  154.8145  141.1265  162.9028 N   0  0  0  0  0  0  0  0  0  0  0  0
  153.9409  141.8688  162.0621 C   0  0  0  0  0  0  0  0  0  0  0  0
  153.0047  142.8157  162.5383 C   0  0  0  0  0  0  0  0  0  0  0  0
  152.1568  143.4939  161.6414 C   0  0  0  0  0  0  0  0  0  0  0  0
  152.2142  143.2386  160.2491 C   0  0  0  0  0  0  0  0  0  0  0  0
  151.2986  143.9572  159.2395 C   0  0  0  0  0  0  0  0  0  0  0  0
  152.1552  144.7503  158.2301 C   0  0  0  0  0  0  0  0  0  0  0  0
  150.3264  144.9544  159.9096 C   0  0  0  0  0  0  0  0  0  0  0  0
  150.4524  142.9143  158.4806 C   0  0  0  0  0  0  0  0  0  0  0  0
  153.1434  142.2774  159.7869 C   0  0  0  0  0  0  0  0  0  0  0  0
  153.9924  141.5990  160.6812 C   0  0  0  0  0  0  0  0  0  0  0  0
  157.6190  142.0313  165.9463 C   0  0  0  0  0  0  0  0  0  0  0  0
  157.7650  142.6340  164.8811 O   0  0  0  0  0  0  0  0  0  0  0  0
  159.3971  144.0168  168.1947 H   0  0  0  0  0  0  0  0  0  0  0  0
  158.3544  144.6165  166.9070 H   0  0  0  0  0  0  0  0  0  0  0  0
  159.8295  143.7241  166.5128 H   0  0  0  0  0  0  0  0  0  0  0  0
  158.4281  142.1613  169.2446 H   0  0  0  0  0  0  0  0  0  0  0  0
  157.1252  138.7692  169.4281 H   0  0  0  0  0  0  0  0  0  0  0  0
  158.1221  139.3105  171.4259 H   0  0  0  0  0  0  0  0  0  0  0  0
  158.8436  140.6473  170.5506 H   0  0  0  0  0  0  0  0  0  0  0  0
  156.7704  140.6338  172.6503 H   0  0  0  0  0  0  0  0  0  0  0  0
  157.1232  143.0390  171.4883 H   0  0  0  0  0  0  0  0  0  0  0  0
  155.7763  142.1381  170.1951 H   0  0  0  0  0  0  0  0  0  0  0  0
  154.6178  141.1503  172.7309 H   0  0  0  0  0  0  0  0  0  0  0  0
  153.9647  142.3444  171.6236 H   0  0  0  0  0  0  0  0  0  0  0  0
  153.6138  140.2602  170.2954 H   0  0  0  0  0  0  0  0  0  0  0  0
  156.8863  140.0321  164.0309 H   0  0  0  0  0  0  0  0  0  0  0  0
  155.5790  139.4766  164.9977 H   0  0  0  0  0  0  0  0  0  0  0  0
  155.1710  140.2703  162.5039 H   0  0  0  0  0  0  0  0  0  0  0  0
  152.9042  143.0301  163.5908 H   0  0  0  0  0  0  0  0  0  0  0  0
  151.4618  144.2059  162.0578 H   0  0  0  0  0  0  0  0  0  0  0  0
  151.5297  145.2910  157.5189 H   0  0  0  0  0  0  0  0  0  0  0  0
  152.8110  144.1036  157.6472 H   0  0  0  0  0  0  0  0  0  0  0  0
  152.7832  145.4839  158.7371 H   0  0  0  0  0  0  0  0  0  0  0  0
  150.8607  145.7347  160.4531 H   0  0  0  0  0  0  0  0  0  0  0  0
  149.6522  144.4556  160.6069 H   0  0  0  0  0  0  0  0  0  0  0  0
  149.7010  145.4542  159.1687 H   0  0  0  0  0  0  0  0  0  0  0  0
  149.7825  143.3919  157.7648 H   0  0  0  0  0  0  0  0  0  0  0  0
  149.8368  142.3319  159.1670 H   0  0  0  0  0  0  0  0  0  0  0  0
  151.0717  142.2132  157.9204 H   0  0  0  0  0  0  0  0  0  0  0  0
  153.2123  142.0464  158.7347 H   0  0  0  0  0  0  0  0  0  0  0  0
  154.6899  140.8685  160.2979 H   0  0  0  0  0  0  0  0  0  0  0  0
  1  2  1  0  0  0  0
  1 32  1  0  0  0  0
  1 33  1  0  0  0  0
  1 34  1  0  0  0  0
  2 30  1  0  0  0  0
  2  3  2  0  0  0  0
  3  4  1  0  0  0  0
  3 35  1  0  0  0  0
  4  5  1  0  0  0  0
  4 13  1  0  0  0  0
  5 12  1  0  0  0  0
  5  6  1  0  0  0  0
  5 36  1  0  0  0  0
  6  7  1  0  0  0  0
  6 37  1  0  0  0  0
  6 38  1  0  0  0  0
  7  8  1  0  0  0  0
  7  9  1  0  0  0  0
  7 39  1  0  0  0  0
  8 40  1  0  0  0  0
  9 10  1  0  0  0  0
  9 12  1  0  0  0  0
  9 41  1  0  0  0  0
 10 11  1  0  0  0  0
 10 42  1  0  0  0  0
 10 43  1  0  0  0  0
 11 44  1  0  0  0  0
 13 14  2  0  0  0  0
 13 15  1  0  0  0  0
 15 16  1  0  0  0  0
 15 30  1  0  0  0  0
 16 17  1  0  0  0  0
 16 45  1  0  0  0  0
 16 46  1  0  0  0  0
 17 18  2  0  0  0  0
 17 19  1  0  0  0  0
 19 20  1  0  0  0  0
 19 47  1  0  0  0  0
 20 29  1  0  0  0  0
 20 21  2  0  0  0  0
 21 22  1  0  0  0  0
 21 48  1  0  0  0  0
 22 23  2  0  0  0  0
 22 49  1  0  0  0  0
 23 24  1  0  0  0  0
 23 28  1  0  0  0  0
 24 25  1  0  0  0  0
 24 26  1  0  0  0  0
 24 27  1  0  0  0  0
 25 50  1  0  0  0  0
 25 51  1  0  0  0  0
 25 52  1  0  0  0  0
 26 53  1  0  0  0  0
 26 54  1  0  0  0  0
 26 55  1  0  0  0  0
 27 56  1  0  0  0  0
 27 57  1  0  0  0  0
 27 58  1  0  0  0  0
 28 29  2  0  0  0  0
 28 59  1  0  0  0  0
 29 60  1  0  0  0  0
 30 31  2  0  0  0  0
M  END
> <s_m_source_file>
AV-unprocessed.smi

> <i_m_source_file_index>
284

> <i_lp_mmshare_version>
43012

> <i_f3d_flags>
0

> <s_epik_input>
W09IXVtDSDJdW0NAQEhdKE8xKVtDQEhdKFtPSF0pW0NIMl1bQ0BIXTFuKFtjSF1jMltDSDNdKWMoPU8pbihjMj1PKVtDSDJdQyg9TylbTkhdYzNbY0hdW2NIXWMoQyhbQ0gzXSkoW0NIM10pW0NIM10pW2NIXVtjSF0z

> <s_epik_cmdline>
J2VwaWtfcHl0aG9uJywgJy1waCcsICc3LjAnLCAnLXRuJywgJzgnLCAnLW1hJywgJzIwMCcsICctbWV0YWxfYmluZGluZycsICctaW1hZScsICc8aW5maWxlLm1hZT4nLCAnLW9tYWUnLCAnPG91dGZpbGUubWFlPic=

> <r_lp_tautomer_probability>
1

> <r_epik_Ionization_Penalty>
4.92358e-06

> <r_epik_Ionization_Penalty_Charging>
1.29777e-07

> <r_epik_Ionization_Penalty_Neutral>
4.79381e-06

> <r_epik_State_Penalty>
-0

> <r_epik_Charging_Adjusted_Penalty>
1.29777e-07

> <i_epik_Tot_Q>
0

> <i_epik_Tot_abs_Q>
0

> <r_epik_Metal_State_Penalty>
-0

> <b_epik_Metal_Only>
0

> <s_epik_Chemistry_Notes>
This compound contains an acetal/aminal-like group ( X-CH(R)-Y where X, Y are N, S, or O) that may be acid/base labile, releasing an aldehyde.

> <s_lp_Force_Field>
OPLS_2005

> <r_lp_Energy>
37.3947

> <b_lp_Chiralities_Consistent>
1

> <s_lp_Variant>
AV-unprocessed.smi:284-6

> <Gold.Version>
5.8.1

> <Gold.Id.Protein>
6NUR|6NUR_protein|mol2

> <Gold.PLP.Fitness>
55.6030

> <Gold.PLP.PLP>
-58.0411

> <Gold.PLP.part.hbond>
-7.9592

> <Gold.PLP.part.metal>
0.0000

> <Gold.PLP.part.buried>
-5.5391

> <Gold.PLP.part.nonpolar>
-42.8809

> <Gold.PLP.part.repulsive>
0.2128

> <Gold.PLP.ligand.clash>
0.0000

> <Gold.PLP.ligand.torsion>
1.2827

> <Gold.PLP.Chemscore.Hbond>
0.0000

> <Gold.PLP.Chemscore.CHOScore>
0.0000

> <Gold.PLP.Chemscore.Metal>
0.0000

> <Gold.PLP.Chemscore.Internal.Correction>
0.1272

> <Gold.Rescore>
     Score         DG    S(hbond)    S(metal)    S(lipo)     H(rot)  DE(clash)    DE(int)     intcor
      5.48     -12.27       0.00        0.00     129.63       3.27       3.02       3.77       ----

> <Gold.Chemscore.Fitness>
5.4792

> <Gold.Chemscore.DG>
-12.2665

> <Gold.Chemscore.ZeroCoef>
-5.4800

> <Gold.Chemscore.Hbond>
0.0000

> <Gold.Chemscore.Metal>
0.0000

> <Gold.Chemscore.Lipo>
129.6290

> <Gold.Chemscore.Internal_Hbond>
0.0000

> <Gold.Chemscore.DEClash>
3.0160

> <Gold.Chemscore.DEInternal>
3.7712

> <Gold.Chemscore.Rot>
3.2735

> <Gold.Chemscore.Internal.Correction>
   9.000000E+99

> <Gold.Chemscore.Hbond.Weighted>
-0.0000

> <Gold.Chemscore.Metal.Weighted>
-0.0000

> <Gold.Chemscore.Lipo.Weighted>
-15.1666

> <Gold.Chemscore.Internal_Hbond.Weighted>
0.0000

> <Gold.Chemscore.DEClash.Weighted>
3.0160

> <Gold.Chemscore.DEInternal.Weighted>
3.7712

> <Gold.Chemscore.Rot.Weighted>
8.3801

> <Gold.Chemscore.Internal.Correction.Weighted>
   9.000000E+99

> <Gold.Protein.RotatedTorsions>
[ 6907 6896 6895 6894 ] final   95.32 input  -60.11 | X-H torsion
[ 7974 7965 7964 7962 ] final -112.63 input  175.53 | X-H torsion
[ 8008 7997 7996 7995 ] final  177.10 input   59.86 | X-H torsion
[ 10167 10162 10161 10158 ] final -166.99 input  -65.29 | X-H torsion
[ 10718 10713 10712 10709 ] final   -2.86 input   66.30 | X-H torsion
[ 10763 10752 10751 10750 ] final  -33.23 input  -60.55 | X-H torsion
[ 11005 11000 10999 10996 ] final -136.48 input  -57.11 | X-H torsion

> <Gold.Protein.ActiveResidues>
 VAL166  LYS551  ARG553  GLY616  TRP617  ASP618  TYR619  PRO620  LYS621  CYS622 
 ASP623  PHE694  ASN695  SER759  ASP760  ASP761  ALA762  ILE779  LEU786  VAL792 
 PHE793  MET794  SER795  GLU796  ALA797  LYS798  CYS799  TRP800  GLU811  SER814 

> <Gold.Protein.RotatedAtoms>
  152.5444  134.1057  159.8336 H   0  0  0  0  0  0  0  0  0  0  0  0  # atno 6907 bound_to 6896
  151.1130  133.5152  159.2612 H   0  0  0  0  0  0  0  0  0  0  0  0  # atno 6908 bound_to 6896
  151.1863  135.0392  159.8868 H   0  0  0  0  0  0  0  0  0  0  0  0  # atno 6909 bound_to 6896
  145.1417  140.8781  143.3698 H   0  0  0  0  0  0  0  0  0  0  0  0  # atno 7974 bound_to 7965
  156.0693  140.1367  156.9848 H   0  0  0  0  0  0  0  0  0  0  0  0  # atno 8008 bound_to 7997
  154.4523  140.0975  156.6706 H   0  0  0  0  0  0  0  0  0  0  0  0  # atno 8009 bound_to 7997
  155.5254  140.3457  155.4417 H   0  0  0  0  0  0  0  0  0  0  0  0  # atno 8010 bound_to 7997
  139.6079  144.0876  152.1811 H   0  0  0  0  0  0  0  0  0  0  0  0  # atno 10167 bound_to 10162
  156.7845  130.5341  149.5745 H   0  0  0  0  0  0  0  0  0  0  0  0  # atno 10718 bound_to 10713
  153.8268  135.6869  153.4819 H   0  0  0  0  0  0  0  0  0  0  0  0  # atno 10763 bound_to 10752
  153.1535  135.4608  154.9669 H   0  0  0  0  0  0  0  0  0  0  0  0  # atno 10764 bound_to 10752
  154.7904  135.3299  154.7735 H   0  0  0  0  0  0  0  0  0  0  0  0  # atno 10765 bound_to 10752
  140.8801  134.1942  157.4596 H   0  0  0  0  0  0  0  0  0  0  0  0  # atno 11005 bound_to 11000
  145.0525  139.3170  143.5921 LP  0  0  0  0  0  0  0  0  0  0  0  0  # atno 17320 bound_to 7965
  146.3504  139.9939  142.8683 LP  0  0  0  0  0  0  0  0  0  0  0  0  # atno 17321 bound_to 7965
  140.0487  144.5950  150.7353 LP  0  0  0  0  0  0  0  0  0  0  0  0  # atno 17342 bound_to 10162
  140.7298  143.2676  151.3993 LP  0  0  0  0  0  0  0  0  0  0  0  0  # atno 17343 bound_to 10162
  156.1197  130.6101  151.0175 LP  0  0  0  0  0  0  0  0  0  0  0  0  # atno 17370 bound_to 10713
  157.6630  131.0877  150.7794 LP  0  0  0  0  0  0  0  0  0  0  0  0  # atno 17371 bound_to 10713
  139.8719  134.9813  156.5112 LP  0  0  0  0  0  0  0  0  0  0  0  0  # atno 17394 bound_to 11000
  140.8471  133.8160  155.9132 LP  0  0  0  0  0  0  0  0  0  0  0  0  # atno 17395 bound_to 11000

$$$$
