AV-unprocessed.smi:1621|AV-procd|sdf|6494|dock3
  -GOLD-   22720 7153D 1   1.00000     0.00000
 Structure written by MMmdl.
 39 40  0  0  0  0  0  0  0  0  2 V2000
  148.0986  140.7861  157.0501 C   0  0  0  0  0  0  0  0  0  0  0  0
  148.2782  140.4955  155.6115 N   0  3  2  0  0  0  0  0  0  0  0  0
  147.1258  140.9494  154.7936 C   0  0  0  0  0  0  0  0  0  0  0  0
  147.3889  140.7320  153.2914 C   0  0  0  0  0  0  0  0  0  0  0  0
  147.7454  139.2680  152.9667 C   0  0  2  0  0  0  0  0  0  0  0  0
  146.5083  138.3409  153.0337 C   0  0  0  0  0  0  0  0  0  0  0  0
  146.7002  137.1020  152.2848 N   0  0  0  0  0  0  0  0  0  0  0  0
  145.7336  136.2305  151.9601 C   0  0  0  0  0  0  0  0  0  0  0  0
  144.5510  136.3908  152.2607 O   0  0  0  0  0  0  0  0  0  0  0  0
  146.2342  135.1865  151.2764 N   0  0  0  0  0  0  0  0  0  0  0  0
  145.5700  134.0317  150.7772 C   0  0  0  0  0  0  0  0  0  0  0  0
  146.3755  132.9653  150.3263 C   0  0  0  0  0  0  0  0  0  0  0  0
  145.7521  131.8002  149.8365 C   0  0  0  0  0  0  0  0  0  0  0  0
  144.4131  131.6445  149.7791 N   0  0  0  0  0  0  0  0  0  0  0  0
  143.6426  132.6612  150.2193 C   0  0  0  0  0  0  0  0  0  0  0  0
  144.1638  133.8676  150.7286 C   0  0  0  0  0  0  0  0  0  0  0  0
  148.9193  138.8351  153.8714 C   0  0  0  0  0  0  0  0  0  0  0  0
  148.6186  139.0734  155.3611 C   0  0  0  0  0  0  0  0  0  0  0  0
  147.2547  140.2297  157.4601 H   0  0  0  0  0  0  0  0  0  0  0  0
  147.9178  141.8499  157.2085 H   0  0  0  0  0  0  0  0  0  0  0  0
  148.9932  140.5142  157.6111 H   0  0  0  0  0  0  0  0  0  0  0  0
  146.2233  140.4221  155.1059 H   0  0  0  0  0  0  0  0  0  0  0  0
  146.9472  142.0096  154.9778 H   0  0  0  0  0  0  0  0  0  0  0  0
  146.5228  141.0499  152.7097 H   0  0  0  0  0  0  0  0  0  0  0  0
  148.2122  141.3767  152.9807 H   0  0  0  0  0  0  0  0  0  0  0  0
  148.0996  139.2415  151.9352 H   0  0  0  0  0  0  0  0  0  0  0  0
  146.2276  138.1291  154.0658 H   0  0  0  0  0  0  0  0  0  0  0  0
  145.6507  138.8508  152.5937 H   0  0  0  0  0  0  0  0  0  0  0  0
  147.6437  136.8921  151.9925 H   0  0  0  0  0  0  0  0  0  0  0  0
  147.2202  135.2335  151.0656 H   0  0  0  0  0  0  0  0  0  0  0  0
  147.4535  133.0342  150.3508 H   0  0  0  0  0  0  0  0  0  0  0  0
  146.3463  130.9708  149.4825 H   0  0  0  0  0  0  0  0  0  0  0  0
  142.5749  132.5072  150.1688 H   0  0  0  0  0  0  0  0  0  0  0  0
  143.4764  134.6234  151.0732 H   0  0  0  0  0  0  0  0  0  0  0  0
  149.1833  137.7915  153.7030 H   0  0  0  0  0  0  0  0  0  0  0  0
  149.8071  139.4072  153.5980 H   0  0  0  0  0  0  0  0  0  0  0  0
  149.4930  138.8004  155.9531 H   0  0  0  0  0  0  0  0  0  0  0  0
  147.8010  138.4342  155.6960 H   0  0  0  0  0  0  0  0  0  0  0  0
  149.0750  141.0373  155.3082 H   0  0  0  0  0  0  0  0  0  0  0  0
  1  2  1  0  0  0  0
  1 19  1  0  0  0  0
  1 20  1  0  0  0  0
  1 21  1  0  0  0  0
  2 18  1  0  0  0  0
  2  3  1  0  0  0  0
  2 39  1  0  0  0  0
  3  4  1  0  0  0  0
  3 22  1  0  0  0  0
  3 23  1  0  0  0  0
  4  5  1  0  0  0  0
  4 24  1  0  0  0  0
  4 25  1  0  0  0  0
  5  6  1  0  0  0  0
  5 17  1  0  0  0  0
  5 26  1  0  0  0  0
  6  7  1  0  0  0  0
  6 27  1  0  0  0  0
  6 28  1  0  0  0  0
  7  8  1  0  0  0  0
  7 29  1  0  0  0  0
  8  9  2  0  0  0  0
  8 10  1  0  0  0  0
 10 11  1  0  0  0  0
 10 30  1  0  0  0  0
 11 16  1  0  0  0  0
 11 12  2  0  0  0  0
 12 13  1  0  0  0  0
 12 31  1  0  0  0  0
 13 14  2  0  0  0  0
 13 32  1  0  0  0  0
 14 15  1  0  0  0  0
 15 16  2  0  0  0  0
 15 33  1  0  0  0  0
 16 34  1  0  0  0  0
 17 18  1  0  0  0  0
 17 35  1  0  0  0  0
 17 36  1  0  0  0  0
 18 37  1  0  0  0  0
 18 38  1  0  0  0  0
M  CHG  1   2   1
M  END
> <s_m_source_file>
AV-unprocessed.smi

> <i_m_source_file_index>
1621

> <i_lp_mmshare_version>
43012

> <i_f3d_flags>
0

> <s_epik_input>
W0NIM11OMVtDSDJdW0NIMl1bQ0hdKFtDSDJdW0NIMl0xKVtDSDJdW05IXUMoPU8pW05IXWMyW2NIXVtjSF1uW2NIXVtjSF0y

> <s_epik_cmdline>
J2VwaWtfcHl0aG9uJywgJy1waCcsICc3LjAnLCAnLXRuJywgJzgnLCAnLW1hJywgJzIwMCcsICctbWV0YWxfYmluZGluZycsICctaW1hZScsICc8aW5maWxlLm1hZT4nLCAnLW9tYWUnLCAnPG91dGZpbGUubWFlPic=

> <r_epik_Ionization_Penalty>
0.107254

> <r_epik_Ionization_Penalty_Charging>
0.00106265

> <r_epik_Ionization_Penalty_Neutral>
0.106191

> <r_epik_State_Penalty>
0.0960133

> <r_epik_Charging_Adjusted_Penalty>
0.0970759

> <i_epik_Tot_Q>
1

> <i_epik_Tot_abs_Q>
1

> <r_epik_Metal_State_Penalty>
0.0813061

> <b_epik_Metal_Only>
0

> <s_lp_Force_Field>
OPLS_2005

> <r_lp_Energy>
22.9743

> <b_lp_Chiralities_Consistent>
1

> <s_lp_Variant>
AV-unprocessed.smi:1621-2

> <Gold.Version>
5.8.1

> <Gold.Id.Protein>
6NUR|6NUR_protein|mol2

> <Gold.PLP.Fitness>
40.2951

> <Gold.PLP.PLP>
-29.1909

> <Gold.PLP.part.hbond>
-2.7420

> <Gold.PLP.part.metal>
0.0000

> <Gold.PLP.part.buried>
-2.9055

> <Gold.PLP.part.nonpolar>
-24.2202

> <Gold.PLP.part.repulsive>
0.4595

> <Gold.PLP.ligand.clash>
0.0000

> <Gold.PLP.ligand.torsion>
0.2685

> <Gold.PLP.Chemscore.Hbond>
2.0250

> <Gold.PLP.Chemscore.CHOScore>
1.8525

> <Gold.PLP.Chemscore.Metal>
0.0000

> <Gold.Chemscore.Hbonds>
donor molecule, donor type, donor heavy atom, donor atom, acceptor molecule, acceptor atom, score
      L1  H     7    29       P1  7948  0.81
      L1  H    10    30       P1  7948  0.65
      P1  H 10785 10796       L1    14  0.33
      L1  C    13    32       P1 10747  0.40
      L1  C    15    33       P1 10186  0.80
      L1  C    15    33       P1 10952  0.23

> <Gold.PLP.Chemscore.Internal.Correction>
0.0088

> <Gold.Rescore>
     Score         DG    S(hbond)    S(metal)    S(lipo)     H(rot)  DE(clash)    DE(int)     intcor
     15.57     -17.68       1.92        0.00      76.70       1.25       0.57       1.54       ----

> <Gold.Chemscore.Fitness>
15.5705

> <Gold.Chemscore.DG>
-17.6794

> <Gold.Chemscore.ZeroCoef>
-5.4800

> <Gold.Chemscore.Hbond>
1.9224

> <Gold.Chemscore.Metal>
0.0000

> <Gold.Chemscore.Lipo>
76.7003

> <Gold.Chemscore.Internal_Hbond>
0.0000

> <Gold.Chemscore.DEClash>
0.5701

> <Gold.Chemscore.DEInternal>
1.5389

> <Gold.Chemscore.Rot>
1.2482

> <Gold.Chemscore.Internal.Correction>
   9.000000E+99

> <Gold.Chemscore.Hbonds>
donor molecule, donor type, donor heavy atom, donor atom, acceptor molecule, acceptor atom, score
      L1  H     7    29       P1  7948  0.80
      L1  H    10    30       P1  7948  0.39
      P1  H 10785 10796       L1    14  0.28

> <Gold.Chemscore.Hbond.Weighted>
-6.4209

> <Gold.Chemscore.Metal.Weighted>
-0.0000

> <Gold.Chemscore.Lipo.Weighted>
-8.9739

> <Gold.Chemscore.Internal_Hbond.Weighted>
0.0000

> <Gold.Chemscore.DEClash.Weighted>
0.5701

> <Gold.Chemscore.DEInternal.Weighted>
1.5389

> <Gold.Chemscore.Rot.Weighted>
3.1954

> <Gold.Chemscore.Internal.Correction.Weighted>
   9.000000E+99

> <Gold.Protein.RotatedTorsions>
[ 6907 6896 6895 6894 ] final   61.83 input  -60.11 | X-H torsion
[ 7974 7965 7964 7962 ] final    5.57 input  175.53 | X-H torsion
[ 8008 7997 7996 7995 ] final  -24.07 input   59.86 | X-H torsion
[ 10167 10162 10161 10158 ] final  -60.40 input  -65.29 | X-H torsion
[ 10718 10713 10712 10709 ] final  -28.15 input   66.30 | X-H torsion
[ 10763 10752 10751 10750 ] final  166.91 input  -60.55 | X-H torsion
[ 11005 11000 10999 10996 ] final   73.19 input  -57.11 | X-H torsion

> <Gold.Protein.ActiveResidues>
 VAL166  LYS551  ARG553  GLY616  TRP617  ASP618  TYR619  PRO620  LYS621  CYS622 
 ASP623  PHE694  ASN695  SER759  ASP760  ASP761  ALA762  ILE779  LEU786  VAL792 
 PHE793  MET794  SER795  GLU796  ALA797  LYS798  CYS799  TRP800  GLU811  SER814 

> <Gold.Protein.RotatedAtoms>
  152.4121  134.6105  160.0024 H   0  0  0  0  0  0  0  0  0  0  0  0  # atno 6907 bound_to 6896
  151.6279  133.3328  159.3110 H   0  0  0  0  0  0  0  0  0  0  0  0  # atno 6908 bound_to 6896
  150.8012  134.7147  159.6668 H   0  0  0  0  0  0  0  0  0  0  0  0  # atno 6909 bound_to 6896
  146.2440  140.0365  142.8385 H   0  0  0  0  0  0  0  0  0  0  0  0  # atno 7974 bound_to 7965
  154.4549  140.1963  156.0408 H   0  0  0  0  0  0  0  0  0  0  0  0  # atno 8008 bound_to 7997
  156.0726  140.3282  155.7567 H   0  0  0  0  0  0  0  0  0  0  0  0  # atno 8009 bound_to 7997
  155.5239  140.0572  157.2892 H   0  0  0  0  0  0  0  0  0  0  0  0  # atno 8010 bound_to 7997
  140.6074  143.2377  151.5790 H   0  0  0  0  0  0  0  0  0  0  0  0  # atno 10167 bound_to 10162
  156.4290  130.4441  149.7131 H   0  0  0  0  0  0  0  0  0  0  0  0  # atno 10718 bound_to 10713
  154.3460  135.2753  155.2397 H   0  0  0  0  0  0  0  0  0  0  0  0  # atno 10763 bound_to 10752
  154.4647  135.5898  153.6283 H   0  0  0  0  0  0  0  0  0  0  0  0  # atno 10764 bound_to 10752
  152.9853  135.6073  154.3666 H   0  0  0  0  0  0  0  0  0  0  0  0  # atno 10765 bound_to 10752
  139.9452  134.7326  156.0997 H   0  0  0  0  0  0  0  0  0  0  0  0  # atno 11005 bound_to 11000
  145.1108  140.9404  143.4657 LP  0  0  0  0  0  0  0  0  0  0  0  0  # atno 17320 bound_to 7965
  145.0578  139.3130  143.5896 LP  0  0  0  0  0  0  0  0  0  0  0  0  # atno 17321 bound_to 7965
  139.5335  144.2848  152.1200 LP  0  0  0  0  0  0  0  0  0  0  0  0  # atno 17342 bound_to 10162
  140.2040  144.4629  150.6417 LP  0  0  0  0  0  0  0  0  0  0  0  0  # atno 17343 bound_to 10162
  156.4041  130.7689  151.2699 LP  0  0  0  0  0  0  0  0  0  0  0  0  # atno 17370 bound_to 10713
  157.7508  131.0231  150.3819 LP  0  0  0  0  0  0  0  0  0  0  0  0  # atno 17371 bound_to 10713
  141.1100  133.6646  156.2956 LP  0  0  0  0  0  0  0  0  0  0  0  0  # atno 17394 bound_to 11000
  140.5852  134.5706  157.5488 LP  0  0  0  0  0  0  0  0  0  0  0  0  # atno 17395 bound_to 11000

$$$$
