AV-unprocessed.smi:434|AV-procd|sdf|2552|dock9
  -GOLD-   2262022523D 1   1.00000     0.00000
 Structure written by MMmdl.
 39 41  0  0  0  0  0  0  0  0  1 V2000
  151.5797  138.9396  155.9728 C   0  0  0  0  0  0  0  0  0  0  0  0
  151.8566  140.0644  156.9190 C   0  0  0  0  0  0  0  0  0  0  0  0
  152.7673  139.9711  157.8880 N   0  0  0  0  0  0  0  0  0  0  0  0
  152.6824  141.2052  158.5034 C   0  0  0  0  0  0  0  0  0  0  0  0
  153.3942  141.7336  159.6043 C   0  0  0  0  0  0  0  0  0  0  0  0
  153.1318  143.0414  160.0625 C   0  0  0  0  0  0  0  0  0  0  0  0
  152.1564  143.8378  159.4284 C   0  0  0  0  0  0  0  0  0  0  0  0
  151.4359  143.3311  158.3298 C   0  0  0  0  0  0  0  0  0  0  0  0
  151.7017  142.0252  157.8757 C   0  0  0  0  0  0  0  0  0  0  0  0
  151.1906  141.2429  156.8442 N   0  0  0  0  0  0  0  0  0  0  0  0
  150.1551  141.6271  155.8935 C   0  0  0  0  0  0  0  0  0  0  0  0
  148.7353  141.5289  156.4873 C   0  0  2  0  0  0  0  0  0  0  0  0
  147.8295  142.2019  155.6347 O   0  0  0  0  0  0  0  0  0  0  0  0
  148.6512  142.1638  157.8842 C   0  0  0  0  0  0  0  0  0  0  0  0
  147.3430  141.9754  158.3975 O   0  0  0  0  0  0  0  0  0  0  0  0
  146.5717  143.1636  158.3819 C   0  0  0  0  0  0  0  0  0  0  0  0
  146.7674  143.8135  159.7095 C   0  0  0  0  0  0  0  0  0  0  0  0
  147.3868  144.9644  160.1123 C   0  0  0  0  0  0  0  0  0  0  0  0
  147.2275  145.0326  161.5241 C   0  0  0  0  0  0  0  0  0  0  0  0
  146.5226  143.9173  161.8776 C   0  0  0  0  0  0  0  0  0  0  0  0
  146.2339  143.1627  160.7820 O   0  0  0  0  0  0  0  0  0  0  0  0
  152.2583  138.1066  156.1600 H   0  0  0  0  0  0  0  0  0  0  0  0
  151.7162  139.2654  154.9420 H   0  0  0  0  0  0  0  0  0  0  0  0
  150.5572  138.5835  156.0996 H   0  0  0  0  0  0  0  0  0  0  0  0
  154.1440  141.1320  160.0964 H   0  0  0  0  0  0  0  0  0  0  0  0
  153.6821  143.4357  160.9044 H   0  0  0  0  0  0  0  0  0  0  0  0
  151.9620  144.8389  159.7852 H   0  0  0  0  0  0  0  0  0  0  0  0
  150.6906  143.9402  157.8403 H   0  0  0  0  0  0  0  0  0  0  0  0
  150.3539  142.6436  155.5530 H   0  0  0  0  0  0  0  0  0  0  0  0
  150.2404  140.9927  155.0102 H   0  0  0  0  0  0  0  0  0  0  0  0
  148.4451  140.4796  156.5484 H   0  0  0  0  0  0  0  0  0  0  0  0
  148.0572  143.1190  155.6201 H   0  0  0  0  0  0  0  0  0  0  0  0
  149.3535  141.6696  158.5574 H   0  0  0  0  0  0  0  0  0  0  0  0
  148.9222  143.2209  157.8547 H   0  0  0  0  0  0  0  0  0  0  0  0
  146.9000  143.8280  157.5813 H   0  0  0  0  0  0  0  0  0  0  0  0
  145.5170  142.9356  158.2215 H   0  0  0  0  0  0  0  0  0  0  0  0
  147.8906  145.6708  159.4694 H   0  0  0  0  0  0  0  0  0  0  0  0
  147.5831  145.7999  162.1957 H   0  0  0  0  0  0  0  0  0  0  0  0
  146.1597  143.5255  162.8164 H   0  0  0  0  0  0  0  0  0  0  0  0
  1  2  1  0  0  0  0
  1 22  1  0  0  0  0
  1 23  1  0  0  0  0
  1 24  1  0  0  0  0
  2 10  1  0  0  0  0
  2  3  2  0  0  0  0
  3  4  1  0  0  0  0
  4  9  2  0  0  0  0
  4  5  1  0  0  0  0
  5  6  2  0  0  0  0
  5 25  1  0  0  0  0
  6  7  1  0  0  0  0
  6 26  1  0  0  0  0
  7  8  2  0  0  0  0
  7 27  1  0  0  0  0
  8  9  1  0  0  0  0
  8 28  1  0  0  0  0
  9 10  1  0  0  0  0
 10 11  1  0  0  0  0
 11 12  1  0  0  0  0
 11 29  1  0  0  0  0
 11 30  1  0  0  0  0
 12 13  1  0  0  0  0
 12 14  1  0  0  0  0
 12 31  1  0  0  0  0
 13 32  1  0  0  0  0
 14 15  1  0  0  0  0
 14 33  1  0  0  0  0
 14 34  1  0  0  0  0
 15 16  1  0  0  0  0
 16 17  1  0  0  0  0
 16 35  1  0  0  0  0
 16 36  1  0  0  0  0
 17 21  1  0  0  0  0
 17 18  2  0  0  0  0
 18 19  1  0  0  0  0
 18 37  1  0  0  0  0
 19 20  2  0  0  0  0
 19 38  1  0  0  0  0
 20 21  1  0  0  0  0
 20 39  1  0  0  0  0
M  END
> <s_m_source_file>
AV-unprocessed.smi

> <i_m_source_file_index>
434

> <i_lp_mmshare_version>
43012

> <i_f3d_flags>
0

> <s_epik_input>
W2NIXTFbY0hdW2NIXVtjSF1jKGMxMiluKGMobjIpW0NIM10pW0NIMl1bQ0BIXShbT0hdKVtDSDJdT1tDSDJdYzNbY0hdW2NIXVtjSF1vMw==

> <s_epik_cmdline>
J2VwaWtfcHl0aG9uJywgJy1waCcsICc3LjAnLCAnLXRuJywgJzgnLCAnLW1hJywgJzIwMCcsICctbWV0YWxfYmluZGluZycsICctaW1hZScsICc8aW5maWxlLm1hZT4nLCAnLW9tYWUnLCAnPG91dGZpbGUubWFlPic=

> <r_epik_Ionization_Penalty>
0.126634

> <r_epik_Ionization_Penalty_Charging>
0

> <r_epik_Ionization_Penalty_Neutral>
0.126634

> <r_epik_State_Penalty>
0.116082

> <r_epik_Charging_Adjusted_Penalty>
0.116082

> <i_epik_Tot_Q>
0

> <i_epik_Tot_abs_Q>
0

> <r_epik_Metal_State_Penalty>
0.00012822

> <b_epik_Metal_Only>
0

> <s_lp_Force_Field>
OPLS_2005

> <r_lp_Energy>
9.40114

> <b_lp_Chiralities_Consistent>
1

> <s_lp_Variant>
AV-unprocessed.smi:434-1

> <Gold.Version>
5.8.1

> <Gold.Id.Protein>
6NUR|6NUR_protein|mol2

> <Gold.PLP.Fitness>
50.8673

> <Gold.PLP.PLP>
-43.7500

> <Gold.PLP.part.hbond>
-3.5152

> <Gold.PLP.part.metal>
0.0000

> <Gold.PLP.part.buried>
-7.3533

> <Gold.PLP.part.nonpolar>
-33.5457

> <Gold.PLP.part.repulsive>
0.0602

> <Gold.PLP.ligand.clash>
0.0000

> <Gold.PLP.ligand.torsion>
0.9553

> <Gold.PLP.Chemscore.Hbond>
3.0000

> <Gold.PLP.Chemscore.CHOScore>
0.0000

> <Gold.PLP.Chemscore.Metal>
0.0000

> <Gold.Chemscore.Hbonds>
donor molecule, donor type, donor heavy atom, donor atom, acceptor molecule, acceptor atom, score
      L1  H    13    32       P1  8028  1.00
      P1  H  6934  6946       L1    21  0.10
      P1  H  7997  8008       L1     3  1.00

> <Gold.PLP.Chemscore.Internal.Correction>
0.0279

> <Gold.Rescore>
     Score         DG    S(hbond)    S(metal)    S(lipo)     H(rot)  DE(clash)    DE(int)     intcor
     17.51     -18.71       2.05        0.00     106.09       2.36       0.30       0.89       ----

> <Gold.Chemscore.Fitness>
17.5115

> <Gold.Chemscore.DG>
-18.7052

> <Gold.Chemscore.ZeroCoef>
-5.4800

> <Gold.Chemscore.Hbond>
2.0514

> <Gold.Chemscore.Metal>
0.0000

> <Gold.Chemscore.Lipo>
106.0913

> <Gold.Chemscore.Internal_Hbond>
0.0000

> <Gold.Chemscore.DEClash>
0.3030

> <Gold.Chemscore.DEInternal>
0.8906

> <Gold.Chemscore.Rot>
2.3591

> <Gold.Chemscore.Internal.Correction>
   9.000000E+99

> <Gold.Chemscore.Hbonds>
donor molecule, donor type, donor heavy atom, donor atom, acceptor molecule, acceptor atom, score
      L1  H    13    32       P1  8028  0.78
      P1  H  6934  6946       L1    21  0.08
      P1  H  7997  8008       L1     3  0.19

> <Gold.Chemscore.Hbond.Weighted>
-6.8518

> <Gold.Chemscore.Metal.Weighted>
-0.0000

> <Gold.Chemscore.Lipo.Weighted>
-12.4127

> <Gold.Chemscore.Internal_Hbond.Weighted>
0.0000

> <Gold.Chemscore.DEClash.Weighted>
0.3030

> <Gold.Chemscore.DEInternal.Weighted>
0.8906

> <Gold.Chemscore.Rot.Weighted>
6.0393

> <Gold.Chemscore.Internal.Correction.Weighted>
   9.000000E+99

> <Gold.Protein.RotatedTorsions>
[ 6907 6896 6895 6894 ] final -148.94 input  -60.11 | X-H torsion
[ 7974 7965 7964 7962 ] final   -3.35 input  175.53 | X-H torsion
[ 8008 7997 7996 7995 ] final  -84.07 input   59.86 | X-H torsion
[ 10167 10162 10161 10158 ] final -178.92 input  -65.29 | X-H torsion
[ 10718 10713 10712 10709 ] final   33.03 input   66.30 | X-H torsion
[ 10763 10752 10751 10750 ] final  -90.57 input  -60.55 | X-H torsion
[ 11005 11000 10999 10996 ] final -167.72 input  -57.11 | X-H torsion

> <Gold.Protein.ActiveResidues>
 VAL166  LYS551  ARG553  GLY616  TRP617  ASP618  TYR619  PRO620  LYS621  CYS622 
 ASP623  PHE694  ASN695  SER759  ASP760  ASP761  ALA762  ILE779  LEU786  VAL792 
 PHE793  MET794  SER795  GLU796  ALA797  LYS798  CYS799  TRP800  GLU811  SER814 

> <Gold.Protein.RotatedAtoms>
  151.1770  133.4748  159.2593 H   0  0  0  0  0  0  0  0  0  0  0  0  # atno 6907 bound_to 6896
  151.1297  135.0123  159.8587 H   0  0  0  0  0  0  0  0  0  0  0  0  # atno 6908 bound_to 6896
  152.5459  134.1674  159.8636 H   0  0  0  0  0  0  0  0  0  0  0  0  # atno 6909 bound_to 6896
  146.2391  140.1708  142.8332 H   0  0  0  0  0  0  0  0  0  0  0  0  # atno 7974 bound_to 7965
  154.6259  140.0610  156.9672 H   0  0  0  0  0  0  0  0  0  0  0  0  # atno 8008 bound_to 7997
  155.1743  140.3293  155.4368 H   0  0  0  0  0  0  0  0  0  0  0  0  # atno 8009 bound_to 7997
  156.2457  140.1908  156.6843 H   0  0  0  0  0  0  0  0  0  0  0  0  # atno 8010 bound_to 7997
  139.5410  144.2363  152.0895 H   0  0  0  0  0  0  0  0  0  0  0  0  # atno 10167 bound_to 10162
  157.2927  130.7311  149.6620 H   0  0  0  0  0  0  0  0  0  0  0  0  # atno 10718 bound_to 10713
  154.6672  135.5299  153.8092 H   0  0  0  0  0  0  0  0  0  0  0  0  # atno 10763 bound_to 10752
  153.0478  135.6520  154.0781 H   0  0  0  0  0  0  0  0  0  0  0  0  # atno 10764 bound_to 10752
  154.0684  135.2956  155.3292 H   0  0  0  0  0  0  0  0  0  0  0  0  # atno 10765 bound_to 10752
  140.5500  134.5437  157.5120 H   0  0  0  0  0  0  0  0  0  0  0  0  # atno 11005 bound_to 11000
  145.0013  140.8634  143.5280 LP  0  0  0  0  0  0  0  0  0  0  0  0  # atno 17320 bound_to 7965
  145.1727  139.2395  143.5333 LP  0  0  0  0  0  0  0  0  0  0  0  0  # atno 17321 bound_to 7965
  140.1842  144.4815  150.6512 LP  0  0  0  0  0  0  0  0  0  0  0  0  # atno 17342 bound_to 10162
  140.6640  143.2261  151.5789 LP  0  0  0  0  0  0  0  0  0  0  0  0  # atno 17343 bound_to 10162
  155.9668  130.4304  150.4874 LP  0  0  0  0  0  0  0  0  0  0  0  0  # atno 17370 bound_to 10713
  157.2839  131.0612  151.2179 LP  0  0  0  0  0  0  0  0  0  0  0  0  # atno 17371 bound_to 10713
  139.9460  134.7701  156.0561 LP  0  0  0  0  0  0  0  0  0  0  0  0  # atno 17394 bound_to 11000
  141.1177  133.6622  156.3135 LP  0  0  0  0  0  0  0  0  0  0  0  0  # atno 17395 bound_to 11000

$$$$
