AV-unprocessed.smi:3068|AV-procd|sdf|11704|dock7
  -GOLD-   2272017103D 1   1.00000     0.00000
 Structure written by MMmdl.
 40 42  0  0  0  0  0  0  0  0  2 V2000
  151.6289  137.1752  154.2404 N   0  0  0  0  0  0  0  0  0  0  0  0
  150.9895  138.1375  154.3057 C   0  0  0  0  0  0  0  0  0  0  0  0
  150.1850  139.3497  154.3897 C   0  0  0  0  0  0  0  0  0  0  0  0
  150.7197  140.3887  155.0719 N   0  0  0  0  0  0  0  0  0  0  0  0
  149.9820  141.5159  155.1603 C   0  0  0  0  0  0  0  0  0  0  0  0
  148.7074  141.6115  154.5686 C   0  0  0  0  0  0  0  0  0  0  0  0
  148.1657  140.5803  153.8857 N   0  0  0  0  0  0  0  0  0  0  0  0
  148.8969  139.4416  153.7901 C   0  0  0  0  0  0  0  0  0  0  0  0
  148.3433  138.3593  153.0835 N   0  0  0  0  0  0  0  0  0  0  0  0
  146.9395  138.3533  152.6969 C   0  0  0  0  0  0  0  0  0  0  0  0
  146.0753  137.5866  153.7176 C   0  0  2  0  0  0  0  0  0  0  0  0
  146.6754  136.2248  154.1148 C   0  0  0  0  0  0  0  0  0  0  0  0
  146.5728  135.2452  153.0073 N   0  3  1  0  0  0  0  0  0  0  0  0
  147.1803  133.9364  153.3594 C   0  0  0  0  0  0  0  0  0  0  0  0
  147.1402  132.9662  152.1682 C   0  0  0  0  0  0  0  0  0  0  0  0
  145.7041  132.7856  151.6613 C   0  0  0  0  0  0  0  0  0  0  0  0
  145.0920  134.1521  151.3267 C   0  0  0  0  0  0  0  0  0  0  0  0
  145.1695  135.1138  152.5298 C   0  0  2  0  0  0  0  0  0  0  0  0
  144.6025  136.4994  152.1667 C   0  0  0  0  0  0  0  0  0  0  0  0
  144.7345  137.3952  153.2651 O   0  0  0  0  0  0  0  0  0  0  0  0
  150.4100  142.3439  155.7058 H   0  0  0  0  0  0  0  0  0  0  0  0
  148.1216  142.5155  154.6438 H   0  0  0  0  0  0  0  0  0  0  0  0
  148.8922  137.5235  152.9377 H   0  0  0  0  0  0  0  0  0  0  0  0
  146.5826  139.3754  152.5710 H   0  0  0  0  0  0  0  0  0  0  0  0
  146.8574  137.8734  151.7209 H   0  0  0  0  0  0  0  0  0  0  0  0
  146.0160  138.1961  154.6202 H   0  0  0  0  0  0  0  0  0  0  0  0
  147.7186  136.3462  154.4095 H   0  0  0  0  0  0  0  0  0  0  0  0
  146.1460  135.8338  154.9851 H   0  0  0  0  0  0  0  0  0  0  0  0
  148.2145  134.0863  153.6717 H   0  0  0  0  0  0  0  0  0  0  0  0
  146.6513  133.5049  154.2110 H   0  0  0  0  0  0  0  0  0  0  0  0
  147.7704  133.3459  151.3628 H   0  0  0  0  0  0  0  0  0  0  0  0
  147.5562  132.0013  152.4593 H   0  0  0  0  0  0  0  0  0  0  0  0
  145.6927  132.1415  150.7814 H   0  0  0  0  0  0  0  0  0  0  0  0
  145.1024  132.2867  152.4222 H   0  0  0  0  0  0  0  0  0  0  0  0
  145.6173  134.5842  150.4736 H   0  0  0  0  0  0  0  0  0  0  0  0
  144.0545  134.0233  151.0168 H   0  0  0  0  0  0  0  0  0  0  0  0
  144.5727  134.7017  153.3459 H   0  0  0  0  0  0  0  0  0  0  0  0
  145.0890  136.9066  151.2800 H   0  0  0  0  0  0  0  0  0  0  0  0
  143.5435  136.4155  151.9209 H   0  0  0  0  0  0  0  0  0  0  0  0
  147.1091  135.6176  152.2366 H   0  0  0  0  0  0  0  0  0  0  0  0
  1  2  3  0  0  0  0
  2  3  1  0  0  0  0
  3  8  1  0  0  0  0
  3  4  2  0  0  0  0
  4  5  1  0  0  0  0
  5  6  2  0  0  0  0
  5 21  1  0  0  0  0
  6  7  1  0  0  0  0
  6 22  1  0  0  0  0
  7  8  2  0  0  0  0
  8  9  1  0  0  0  0
  9 10  1  0  0  0  0
  9 23  1  0  0  0  0
 10 11  1  0  0  0  0
 10 24  1  0  0  0  0
 10 25  1  0  0  0  0
 11 20  1  0  0  0  0
 11 12  1  0  0  0  0
 11 26  1  0  0  0  0
 12 13  1  0  0  0  0
 12 27  1  0  0  0  0
 12 28  1  0  0  0  0
 13 18  1  0  0  0  0
 13 14  1  0  0  0  0
 13 40  1  0  0  0  0
 14 15  1  0  0  0  0
 14 29  1  0  0  0  0
 14 30  1  0  0  0  0
 15 16  1  0  0  0  0
 15 31  1  0  0  0  0
 15 32  1  0  0  0  0
 16 17  1  0  0  0  0
 16 33  1  0  0  0  0
 16 34  1  0  0  0  0
 17 18  1  0  0  0  0
 17 35  1  0  0  0  0
 17 36  1  0  0  0  0
 18 19  1  0  0  0  0
 18 37  1  0  0  0  0
 19 20  1  0  0  0  0
 19 38  1  0  0  0  0
 19 39  1  0  0  0  0
M  CHG  1  13   1
M  END
> <s_m_source_file>
AV-unprocessed.smi

> <i_m_source_file_index>
3068

> <i_lp_mmshare_version>
43012

> <i_f3d_flags>
0

> <s_epik_input>
TiNDYzFuW2NIXVtjSF1uYzFbTkhdW0NIMl1bQ0BIXShbQ0gyXTIpT1tDSDJdW0NAQEhdKE4yMylbQ0gyXVtDSDJdW0NIMl1bQ0gyXTM=

> <s_epik_cmdline>
J2VwaWtfcHl0aG9uJywgJy1waCcsICc3LjAnLCAnLXRuJywgJzgnLCAnLW1hJywgJzIwMCcsICctbWV0YWxfYmluZGluZycsICctaW1hZScsICc8aW5maWxlLm1hZT4nLCAnLW9tYWUnLCAnPG91dGZpbGUubWFlPic=

> <r_epik_Ionization_Penalty>
0.0804321

> <r_epik_Ionization_Penalty_Charging>
0.0803403

> <r_epik_Ionization_Penalty_Neutral>
9.17277e-05

> <r_epik_State_Penalty>
0.0711481

> <r_epik_Charging_Adjusted_Penalty>
0.151488

> <i_epik_Tot_Q>
1

> <i_epik_Tot_abs_Q>
1

> <r_epik_Metal_State_Penalty>
0.0711481

> <b_epik_Metal_Only>
0

> <s_lp_Force_Field>
OPLS_2005

> <r_lp_Energy>
40.024

> <b_lp_Chiralities_Consistent>
1

> <s_lp_Variant>
AV-unprocessed.smi:3068-7

> <Gold.Version>
5.8.1

> <Gold.Id.Protein>
6NUR|6NUR_protein|mol2

> <Gold.PLP.Fitness>
44.8082

> <Gold.PLP.PLP>
-30.6421

> <Gold.PLP.part.hbond>
-4.8935

> <Gold.PLP.part.metal>
0.0000

> <Gold.PLP.part.buried>
0.1776

> <Gold.PLP.part.nonpolar>
-26.2533

> <Gold.PLP.part.repulsive>
0.6202

> <Gold.PLP.ligand.clash>
0.0000

> <Gold.PLP.ligand.torsion>
0.2646

> <Gold.PLP.Chemscore.Hbond>
3.5595

> <Gold.PLP.Chemscore.CHOScore>
1.3369

> <Gold.PLP.Chemscore.Metal>
0.0000

> <Gold.Chemscore.Hbonds>
donor molecule, donor type, donor heavy atom, donor atom, acceptor molecule, acceptor atom, score
      L1  H     9    23       P1  7948  0.77
      L1  H    13    40       P1  7948  1.60
      P1  H  7989  7998       L1     4  0.36
      P1  H 10752 10763       L1     1  1.00
      L1  C     5    21       P1  8028  0.19
      L1  C     6    22       P1  8028  0.95

> <Gold.PLP.Chemscore.Internal.Correction>
0.0062

> <Gold.Rescore>
     Score         DG    S(hbond)    S(metal)    S(lipo)     H(rot)  DE(clash)    DE(int)     intcor
     17.57     -18.00       2.64        0.00      60.42       1.32       0.11       0.32       ----

> <Gold.Chemscore.Fitness>
17.5708

> <Gold.Chemscore.DG>
-17.9974

> <Gold.Chemscore.ZeroCoef>
-5.4800

> <Gold.Chemscore.Hbond>
2.6425

> <Gold.Chemscore.Metal>
0.0000

> <Gold.Chemscore.Lipo>
60.4184

> <Gold.Chemscore.Internal_Hbond>
0.0000

> <Gold.Chemscore.DEClash>
0.1080

> <Gold.Chemscore.DEInternal>
0.3185

> <Gold.Chemscore.Rot>
1.3193

> <Gold.Chemscore.Internal.Correction>
   9.000000E+99

> <Gold.Chemscore.Hbonds>
donor molecule, donor type, donor heavy atom, donor atom, acceptor molecule, acceptor atom, score
      L1  H     9    23       P1  7948  0.78
      L1  H    13    40       P1  7948  0.78
      P1  H 10752 10763       L1     1  0.94

> <Gold.Chemscore.Hbond.Weighted>
-8.8258

> <Gold.Chemscore.Metal.Weighted>
-0.0000

> <Gold.Chemscore.Lipo.Weighted>
-7.0690

> <Gold.Chemscore.Internal_Hbond.Weighted>
0.0000

> <Gold.Chemscore.DEClash.Weighted>
0.1080

> <Gold.Chemscore.DEInternal.Weighted>
0.3185

> <Gold.Chemscore.Rot.Weighted>
3.3774

> <Gold.Chemscore.Internal.Correction.Weighted>
   9.000000E+99

> <Gold.Protein.RotatedTorsions>
[ 6907 6896 6895 6894 ] final  -54.72 input  -60.11 | X-H torsion
[ 7974 7965 7964 7962 ] final -121.70 input  175.53 | X-H torsion
[ 8008 7997 7996 7995 ] final   -7.56 input   59.86 | X-H torsion
[ 10167 10162 10161 10158 ] final -131.50 input  -65.29 | X-H torsion
[ 10718 10713 10712 10709 ] final   85.86 input   66.30 | X-H torsion
[ 10763 10752 10751 10750 ] final   45.93 input  -60.55 | X-H torsion
[ 11005 11000 10999 10996 ] final   78.82 input  -57.11 | X-H torsion

> <Gold.Protein.ActiveResidues>
 VAL166  LYS551  ARG553  GLY616  TRP617  ASP618  TYR619  PRO620  LYS621  CYS622 
 ASP623  PHE694  ASN695  SER759  ASP760  ASP761  ALA762  ILE779  LEU786  VAL792 
 PHE793  MET794  SER795  GLU796  ALA797  LYS798  CYS799  TRP800  GLU811  SER814 

> <Gold.Protein.RotatedAtoms>
  150.8314  134.7568  159.6856 H   0  0  0  0  0  0  0  0  0  0  0  0  # atno 6907 bound_to 6896
  152.4418  134.5573  159.9894 H   0  0  0  0  0  0  0  0  0  0  0  0  # atno 6908 bound_to 6896
  151.5733  133.3349  159.3030 H   0  0  0  0  0  0  0  0  0  0  0  0  # atno 6909 bound_to 6896
  145.0374  140.8117  143.4287 H   0  0  0  0  0  0  0  0  0  0  0  0  # atno 7974 bound_to 7965
  154.5827  140.2404  155.8031 H   0  0  0  0  0  0  0  0  0  0  0  0  # atno 8008 bound_to 7997
  156.2190  140.3003  155.9864 H   0  0  0  0  0  0  0  0  0  0  0  0  # atno 8009 bound_to 7997
  155.2513  140.0411  157.2977 H   0  0  0  0  0  0  0  0  0  0  0  0  # atno 8010 bound_to 7997
  139.9183  143.6413  152.2560 H   0  0  0  0  0  0  0  0  0  0  0  0  # atno 10167 bound_to 10162
  157.6921  131.0192  150.2886 H   0  0  0  0  0  0  0  0  0  0  0  0  # atno 10718 bound_to 10713
  152.9817  135.6024  154.3517 H   0  0  0  0  0  0  0  0  0  0  0  0  # atno 10763 bound_to 10752
  154.3206  135.2770  155.2523 H   0  0  0  0  0  0  0  0  0  0  0  0  # atno 10764 bound_to 10752
  154.4692  135.5946  153.6365 H   0  0  0  0  0  0  0  0  0  0  0  0  # atno 10765 bound_to 10752
  139.9197  134.7794  156.1699 H   0  0  0  0  0  0  0  0  0  0  0  0  # atno 11005 bound_to 11000
  145.1691  139.2414  143.5351 LP  0  0  0  0  0  0  0  0  0  0  0  0  # atno 17320 bound_to 7965
  146.3505  140.1438  142.8594 LP  0  0  0  0  0  0  0  0  0  0  0  0  # atno 17321 bound_to 7965
  139.6884  144.7649  151.1483 LP  0  0  0  0  0  0  0  0  0  0  0  0  # atno 17342 bound_to 10162
  140.7669  143.5624  150.9084 LP  0  0  0  0  0  0  0  0  0  0  0  0  # atno 17343 bound_to 10162
  156.3420  130.3817  149.7400 LP  0  0  0  0  0  0  0  0  0  0  0  0  # atno 17370 bound_to 10713
  156.4906  130.8083  151.3093 LP  0  0  0  0  0  0  0  0  0  0  0  0  # atno 17371 bound_to 10713
  141.0707  133.6798  156.2134 LP  0  0  0  0  0  0  0  0  0  0  0  0  # atno 17394 bound_to 11000
  140.6512  134.5065  157.5577 LP  0  0  0  0  0  0  0  0  0  0  0  0  # atno 17395 bound_to 11000

$$$$
