AV-unprocessed.smi:720|AV-procd|sdf|3496|dock1
  -GOLD-   22720 0493D 1   1.00000     0.00000
 Structure written by MMmdl.
 47 49  0  0  0  0  0  0  0  0  2 V2000
  145.5476  136.0272  150.8567 C   0  0  0  0  0  0  0  0  0  0  0  0
  146.2385  136.2878  152.1407 N   0  3  0  0  0  0  0  0  0  0  0  0
  145.8228  135.3254  153.1850 C   0  0  0  0  0  0  0  0  0  0  0  0
  146.1206  137.6938  152.6013 C   0  0  0  0  0  0  0  0  0  0  0  0
  146.9971  137.9918  153.8323 C   0  0  0  0  0  0  0  0  0  0  0  0
  147.2262  139.4143  153.9946 N   0  0  0  0  0  0  0  0  0  0  0  0
  146.7994  140.4545  153.1929 C   0  0  0  0  0  0  0  0  0  0  0  0
  147.2650  141.6149  153.7437 C   0  0  0  0  0  0  0  0  0  0  0  0
  147.9746  141.1701  154.8929 C   0  0  0  0  0  0  0  0  0  0  0  0
  148.6224  142.0959  155.7491 N   0  0  0  0  0  0  0  0  0  0  0  0
  149.2709  141.8382  156.9021 C   0  0  0  0  0  0  0  0  0  0  0  0
  149.3719  140.7234  157.4117 O   0  0  0  0  0  0  0  0  0  0  0  0
  149.8100  142.9235  157.4860 N   0  0  0  0  0  0  0  0  0  0  0  0
  150.5723  142.9901  158.7350 C   0  0  1  0  0  0  0  0  0  0  0  0
  151.8823  142.1682  158.6897 C   0  0  0  0  0  0  0  0  0  0  0  0
  152.9616  143.2262  158.9850 C   0  0  2  0  0  0  0  0  0  0  0  0
  152.8484  143.6840  160.4519 C   0  0  0  0  0  0  0  0  0  0  0  0
  151.5608  144.5316  160.4477 C   0  0  0  0  0  0  0  0  0  0  0  0
  151.0922  144.4223  158.9847 C   0  0  1  0  0  0  0  0  0  0  0  0
  152.4218  144.4367  158.2357 C   0  0  0  0  0  0  0  0  0  0  0  0
  147.9539  139.8532  155.0433 N   0  0  0  0  0  0  0  0  0  0  0  0
  144.4796  136.2336  150.9377 H   0  0  0  0  0  0  0  0  0  0  0  0
  145.6695  134.9845  150.5613 H   0  0  0  0  0  0  0  0  0  0  0  0
  145.9563  136.6378  150.0522 H   0  0  0  0  0  0  0  0  0  0  0  0
  144.7640  135.4389  153.4219 H   0  0  0  0  0  0  0  0  0  0  0  0
  146.3964  135.4724  154.1009 H   0  0  0  0  0  0  0  0  0  0  0  0
  145.9911  134.3000  152.8539 H   0  0  0  0  0  0  0  0  0  0  0  0
  146.3604  138.3760  151.7844 H   0  0  0  0  0  0  0  0  0  0  0  0
  145.0784  137.8820  152.8649 H   0  0  0  0  0  0  0  0  0  0  0  0
  146.5218  137.6165  154.7399 H   0  0  0  0  0  0  0  0  0  0  0  0
  147.9663  137.4989  153.7536 H   0  0  0  0  0  0  0  0  0  0  0  0
  146.2069  140.2851  152.3058 H   0  0  0  0  0  0  0  0  0  0  0  0
  147.1213  142.6218  153.3801 H   0  0  0  0  0  0  0  0  0  0  0  0
  148.5984  143.0604  155.4524 H   0  0  0  0  0  0  0  0  0  0  0  0
  149.6620  143.8059  157.0176 H   0  0  0  0  0  0  0  0  0  0  0  0
  149.9335  142.6756  159.5626 H   0  0  0  0  0  0  0  0  0  0  0  0
  151.8867  141.3586  159.4207 H   0  0  0  0  0  0  0  0  0  0  0  0
  152.0456  141.7252  157.7060 H   0  0  0  0  0  0  0  0  0  0  0  0
  153.9672  142.9171  158.6984 H   0  0  0  0  0  0  0  0  0  0  0  0
  152.7917  142.8430  161.1440 H   0  0  0  0  0  0  0  0  0  0  0  0
  153.7067  144.2941  160.7359 H   0  0  0  0  0  0  0  0  0  0  0  0
  150.8160  144.1645  161.1546 H   0  0  0  0  0  0  0  0  0  0  0  0
  151.7841  145.5675  160.7062 H   0  0  0  0  0  0  0  0  0  0  0  0
  150.3910  145.2069  158.6977 H   0  0  0  0  0  0  0  0  0  0  0  0
  153.0032  145.3452  158.4029 H   0  0  0  0  0  0  0  0  0  0  0  0
  152.3187  144.2713  157.1619 H   0  0  0  0  0  0  0  0  0  0  0  0
  147.2223  136.1197  151.9833 H   0  0  0  0  0  0  0  0  0  0  0  0
  1  2  1  0  0  0  0
  1 22  1  0  0  0  0
  1 23  1  0  0  0  0
  1 24  1  0  0  0  0
  2  3  1  0  0  0  0
  2  4  1  0  0  0  0
  2 47  1  0  0  0  0
  3 25  1  0  0  0  0
  3 26  1  0  0  0  0
  3 27  1  0  0  0  0
  4  5  1  0  0  0  0
  4 28  1  0  0  0  0
  4 29  1  0  0  0  0
  5  6  1  0  0  0  0
  5 30  1  0  0  0  0
  5 31  1  0  0  0  0
  6 21  1  0  0  0  0
  6  7  1  0  0  0  0
  7  8  2  0  0  0  0
  7 32  1  0  0  0  0
  8  9  1  0  0  0  0
  8 33  1  0  0  0  0
  9 10  1  0  0  0  0
  9 21  2  0  0  0  0
 10 11  1  0  0  0  0
 10 34  1  0  0  0  0
 11 12  2  0  0  0  0
 11 13  1  0  0  0  0
 13 14  1  0  0  0  0
 13 35  1  0  0  0  0
 14 19  1  0  0  0  0
 14 15  1  0  0  0  0
 14 36  1  0  0  0  0
 15 16  1  0  0  0  0
 15 37  1  0  0  0  0
 15 38  1  0  0  0  0
 16 20  1  0  0  0  0
 16 17  1  0  0  0  0
 16 39  1  0  0  0  0
 17 18  1  0  0  0  0
 17 40  1  0  0  0  0
 17 41  1  0  0  0  0
 18 19  1  0  0  0  0
 18 42  1  0  0  0  0
 18 43  1  0  0  0  0
 19 20  1  0  0  0  0
 19 44  1  0  0  0  0
 20 45  1  0  0  0  0
 20 46  1  0  0  0  0
M  CHG  1   2   1
M  END
> <s_m_source_file>
AV-unprocessed.smi

> <i_m_source_file_index>
720

> <i_lp_mmshare_version>
43012

> <i_f3d_flags>
0

> <s_epik_input>
W0NIM11OKFtDSDNdKVtDSDJdW0NIMl1uMVtjSF1bY0hdYyhuMSlbTkhdQyg9TylbTkhdW0NASF0oW0NIMl1bQ0BIXTIzKVtDQEhdKFtDSDJdMylbQ0gyXVtDSDJdMg==

> <s_epik_cmdline>
J2VwaWtfcHl0aG9uJywgJy1waCcsICc3LjAnLCAnLXRuJywgJzgnLCAnLW1hJywgJzIwMCcsICctbWV0YWxfYmluZGluZycsICctaW1hZScsICc8aW5maWxlLm1hZT4nLCAnLW9tYWUnLCAnPG91dGZpbGUubWFlPic=

> <r_lp_tautomer_probability>
1

> <r_epik_Ionization_Penalty>
0.0272832

> <r_epik_Ionization_Penalty_Charging>
0.027243

> <r_epik_Ionization_Penalty_Neutral>
4.01867e-05

> <r_epik_State_Penalty>
0.0222865

> <r_epik_Charging_Adjusted_Penalty>
0.0495295

> <i_epik_Tot_Q>
1

> <i_epik_Tot_abs_Q>
1

> <r_epik_Metal_State_Penalty>
0.0222866

> <b_epik_Metal_Only>
0

> <s_lp_Force_Field>
OPLS_2005

> <r_lp_Energy>
59.8818

> <b_lp_Chiralities_Consistent>
1

> <s_lp_Variant>
AV-unprocessed.smi:720-2

> <Gold.Version>
5.8.1

> <Gold.Id.Protein>
6NUR|6NUR_protein|mol2

> <Gold.PLP.Fitness>
54.3996

> <Gold.PLP.PLP>
-40.2846

> <Gold.PLP.part.hbond>
-3.0000

> <Gold.PLP.part.metal>
0.0000

> <Gold.PLP.part.buried>
-4.1979

> <Gold.PLP.part.nonpolar>
-34.0138

> <Gold.PLP.part.repulsive>
0.2358

> <Gold.PLP.ligand.clash>
0.0000

> <Gold.PLP.ligand.torsion>
0.1187

> <Gold.PLP.Chemscore.Hbond>
4.0000

> <Gold.PLP.Chemscore.CHOScore>
0.7572

> <Gold.PLP.Chemscore.Metal>
0.0000

> <Gold.Chemscore.Hbonds>
donor molecule, donor type, donor heavy atom, donor atom, acceptor molecule, acceptor atom, score
      L1  H     2    47       P1  7948  2.00
      L1  H    10    34       P1  8028  1.00
      L1  H    13    35       P1  8028  0.99
      L1  C     7    32       P1 10175  0.79

> <Gold.PLP.Chemscore.Internal.Correction>
0.0806

> <Gold.Rescore>
     Score         DG    S(hbond)    S(metal)    S(lipo)     H(rot)  DE(clash)    DE(int)     intcor
     22.82     -24.34       2.90        0.00     113.91       1.62       0.04       1.48       ----

> <Gold.Chemscore.Fitness>
22.8232

> <Gold.Chemscore.DG>
-24.3449

> <Gold.Chemscore.ZeroCoef>
-5.4800

> <Gold.Chemscore.Hbond>
2.9004

> <Gold.Chemscore.Metal>
0.0000

> <Gold.Chemscore.Lipo>
113.9117

> <Gold.Chemscore.Internal_Hbond>
0.0000

> <Gold.Chemscore.DEClash>
0.0444

> <Gold.Chemscore.DEInternal>
1.4773

> <Gold.Chemscore.Rot>
1.6212

> <Gold.Chemscore.Internal.Correction>
   9.000000E+99

> <Gold.Chemscore.Hbonds>
donor molecule, donor type, donor heavy atom, donor atom, acceptor molecule, acceptor atom, score
      L1  H     2    47       P1  7948  1.00
      L1  H    10    34       P1  8028  0.98
      L1  H    13    35       P1  8028  0.83

> <Gold.Chemscore.Hbond.Weighted>
-9.6874

> <Gold.Chemscore.Metal.Weighted>
-0.0000

> <Gold.Chemscore.Lipo.Weighted>
-13.3277

> <Gold.Chemscore.Internal_Hbond.Weighted>
0.0000

> <Gold.Chemscore.DEClash.Weighted>
0.0444

> <Gold.Chemscore.DEInternal.Weighted>
1.4773

> <Gold.Chemscore.Rot.Weighted>
4.1502

> <Gold.Chemscore.Internal.Correction.Weighted>
   9.000000E+99

> <Gold.Protein.RotatedTorsions>
[ 6907 6896 6895 6894 ] final   13.75 input  -60.11 | X-H torsion
[ 7974 7965 7964 7962 ] final  110.51 input  175.53 | X-H torsion
[ 8008 7997 7996 7995 ] final  124.86 input   59.86 | X-H torsion
[ 10167 10162 10161 10158 ] final   28.63 input  -65.29 | X-H torsion
[ 10718 10713 10712 10709 ] final   89.21 input   66.30 | X-H torsion
[ 10763 10752 10751 10750 ] final -128.06 input  -60.55 | X-H torsion
[ 11005 11000 10999 10996 ] final  -46.76 input  -57.11 | X-H torsion

> <Gold.Protein.ActiveResidues>
 VAL166  LYS551  ARG553  GLY616  TRP617  ASP618  TYR619  PRO620  LYS621  CYS622 
 ASP623  PHE694  ASN695  SER759  ASP760  ASP761  ALA762  ILE779  LEU786  VAL792 
 PHE793  MET794  SER795  GLU796  ALA797  LYS798  CYS799  TRP800  GLU811  SER814 

> <Gold.Protein.RotatedAtoms>
  151.7912  135.0735  160.0387 H   0  0  0  0  0  0  0  0  0  0  0  0  # atno 6907 bound_to 6896
  152.3155  133.5793  159.5717 H   0  0  0  0  0  0  0  0  0  0  0  0  # atno 6908 bound_to 6896
  150.7342  134.0005  159.3678 H   0  0  0  0  0  0  0  0  0  0  0  0  # atno 6909 bound_to 6896
  145.2541  139.2728  143.4052 H   0  0  0  0  0  0  0  0  0  0  0  0  # atno 7974 bound_to 7965
  156.2815  140.2730  156.1856 H   0  0  0  0  0  0  0  0  0  0  0  0  # atno 8008 bound_to 7997
  155.0511  140.0386  157.2562 H   0  0  0  0  0  0  0  0  0  0  0  0  # atno 8009 bound_to 7997
  154.7194  140.2685  155.6561 H   0  0  0  0  0  0  0  0  0  0  0  0  # atno 8010 bound_to 7997
  140.4836  144.0577  150.6273 H   0  0  0  0  0  0  0  0  0  0  0  0  # atno 10167 bound_to 10162
  157.6954  131.0324  150.3392 H   0  0  0  0  0  0  0  0  0  0  0  0  # atno 10718 bound_to 10713
  154.8755  135.3941  154.3694 H   0  0  0  0  0  0  0  0  0  0  0  0  # atno 10763 bound_to 10752
  153.4456  135.7027  153.6146 H   0  0  0  0  0  0  0  0  0  0  0  0  # atno 10764 bound_to 10752
  153.4708  135.3791  155.2359 H   0  0  0  0  0  0  0  0  0  0  0  0  # atno 10765 bound_to 10752
  141.0599  133.6713  156.3201 H   0  0  0  0  0  0  0  0  0  0  0  0  # atno 11005 bound_to 11000
  146.3294  140.2940  142.8617 LP  0  0  0  0  0  0  0  0  0  0  0  0  # atno 17320 bound_to 7965
  144.9477  140.8145  143.5591 LP  0  0  0  0  0  0  0  0  0  0  0  0  # atno 17321 bound_to 7965
  140.3826  143.2794  152.0152 LP  0  0  0  0  0  0  0  0  0  0  0  0  # atno 17342 bound_to 10162
  139.4838  144.6142  151.7377 LP  0  0  0  0  0  0  0  0  0  0  0  0  # atno 17343 bound_to 10162
  156.3855  130.3888  149.7069 LP  0  0  0  0  0  0  0  0  0  0  0  0  # atno 17370 bound_to 10713
  156.4437  130.7873  151.2894 LP  0  0  0  0  0  0  0  0  0  0  0  0  # atno 17371 bound_to 10713
  140.5889  134.5670  157.5495 LP  0  0  0  0  0  0  0  0  0  0  0  0  # atno 17394 bound_to 11000
  139.9423  134.7764  156.0647 LP  0  0  0  0  0  0  0  0  0  0  0  0  # atno 17395 bound_to 11000

$$$$
