AV-unprocessed.smi:942|AV-procd|sdf|4226|dock4
  -GOLD-   22720 2133D 1   1.00000     0.00000
 Structure written by MMmdl.
 42 44  0  0  0  0  0  0  0  0  1 V2000
  150.2547  142.1448  156.5081 O   0  0  0  0  0  0  0  0  0  0  0  0
  150.3138  141.2118  157.3096 C   0  0  0  0  0  0  0  0  0  0  0  0
  149.6262  140.0690  157.1664 N   0  0  0  0  0  0  0  0  0  0  0  0
  148.6687  139.7713  156.0991 C   0  0  1  0  0  0  0  0  0  0  0  0
  147.6688  140.9356  155.9428 C   0  0  0  0  0  0  0  0  0  0  0  0
  147.9457  141.5781  154.5756 C   0  0  0  0  0  0  0  0  0  0  0  0
  149.3227  141.0672  154.1546 C   0  0  0  0  0  0  0  0  0  0  0  0
  149.3654  139.6467  154.7271 C   0  0  1  0  0  0  0  0  0  0  0  0
  150.6860  139.0239  154.7672 N   0  0  0  0  0  0  0  0  0  0  0  0
  151.8795  139.5473  155.2563 C   0  0  0  0  0  0  0  0  0  0  0  0
  152.8418  138.5816  155.0685 C   0  0  0  0  0  0  0  0  0  0  0  0
  152.2755  137.4676  154.4558 N   0  0  0  0  0  0  0  0  0  0  0  0
  151.0026  137.8065  154.3016 C   0  0  0  0  0  0  0  0  0  0  0  0
  151.1938  141.3212  158.5615 C   0  0  0  0  0  0  0  0  0  0  0  0
  151.8353  142.7219  158.6600 C   0  0  0  0  0  0  0  0  0  0  0  0
  152.7302  142.8410  159.9047 C   0  0  0  0  0  0  0  0  0  0  0  0
  153.8058  141.7431  159.9252 C   0  0  0  0  0  0  0  0  0  0  0  0
  153.1762  140.3450  159.8203 C   0  0  0  0  0  0  0  0  0  0  0  0
  152.2841  140.2286  158.5736 C   0  0  0  0  0  0  0  0  0  0  0  0
  149.7423  139.3608  157.8768 H   0  0  0  0  0  0  0  0  0  0  0  0
  148.1351  138.8437  156.3138 H   0  0  0  0  0  0  0  0  0  0  0  0
  146.6396  140.5784  155.9937 H   0  0  0  0  0  0  0  0  0  0  0  0
  147.7862  141.6716  156.7395 H   0  0  0  0  0  0  0  0  0  0  0  0
  147.1979  141.2415  153.8564 H   0  0  0  0  0  0  0  0  0  0  0  0
  147.9008  142.6669  154.6101 H   0  0  0  0  0  0  0  0  0  0  0  0
  149.4653  141.0921  153.0739 H   0  0  0  0  0  0  0  0  0  0  0  0
  150.0899  141.6924  154.6136 H   0  0  0  0  0  0  0  0  0  0  0  0
  148.7406  139.0189  154.0893 H   0  0  0  0  0  0  0  0  0  0  0  0
  151.9534  140.5328  155.6910 H   0  0  0  0  0  0  0  0  0  0  0  0
  153.8919  138.6059  155.3205 H   0  0  0  0  0  0  0  0  0  0  0  0
  150.2772  137.1475  153.8470 H   0  0  0  0  0  0  0  0  0  0  0  0
  150.5610  141.1770  159.4393 H   0  0  0  0  0  0  0  0  0  0  0  0
  152.4318  142.9272  157.7696 H   0  0  0  0  0  0  0  0  0  0  0  0
  151.0599  143.4887  158.6944 H   0  0  0  0  0  0  0  0  0  0  0  0
  153.2019  143.8238  159.9304 H   0  0  0  0  0  0  0  0  0  0  0  0
  152.1169  142.7693  160.8038 H   0  0  0  0  0  0  0  0  0  0  0  0
  154.4981  141.8947  159.0959 H   0  0  0  0  0  0  0  0  0  0  0  0
  154.3963  141.8178  160.8386 H   0  0  0  0  0  0  0  0  0  0  0  0
  153.9585  139.5861  159.7893 H   0  0  0  0  0  0  0  0  0  0  0  0
  152.5843  140.1423  160.7136 H   0  0  0  0  0  0  0  0  0  0  0  0
  151.8252  139.2395  158.5454 H   0  0  0  0  0  0  0  0  0  0  0  0
  152.9065  140.3059  157.6805 H   0  0  0  0  0  0  0  0  0  0  0  0
  1  2  2  0  0  0  0
  2  3  1  0  0  0  0
  2 14  1  0  0  0  0
  3  4  1  0  0  0  0
  3 20  1  0  0  0  0
  4  8  1  0  0  0  0
  4  5  1  0  0  0  0
  4 21  1  0  0  0  0
  5  6  1  0  0  0  0
  5 22  1  0  0  0  0
  5 23  1  0  0  0  0
  6  7  1  0  0  0  0
  6 24  1  0  0  0  0
  6 25  1  0  0  0  0
  7  8  1  0  0  0  0
  7 26  1  0  0  0  0
  7 27  1  0  0  0  0
  8  9  1  0  0  0  0
  8 28  1  0  0  0  0
  9 13  1  0  0  0  0
  9 10  1  0  0  0  0
 10 11  2  0  0  0  0
 10 29  1  0  0  0  0
 11 12  1  0  0  0  0
 11 30  1  0  0  0  0
 12 13  2  0  0  0  0
 13 31  1  0  0  0  0
 14 19  1  0  0  0  0
 14 15  1  0  0  0  0
 14 32  1  0  0  0  0
 15 16  1  0  0  0  0
 15 33  1  0  0  0  0
 15 34  1  0  0  0  0
 16 17  1  0  0  0  0
 16 35  1  0  0  0  0
 16 36  1  0  0  0  0
 17 18  1  0  0  0  0
 17 37  1  0  0  0  0
 17 38  1  0  0  0  0
 18 19  1  0  0  0  0
 18 39  1  0  0  0  0
 18 40  1  0  0  0  0
 19 41  1  0  0  0  0
 19 42  1  0  0  0  0
M  END
> <s_m_source_file>
AV-unprocessed.smi

> <i_m_source_file_index>
942

> <i_lp_mmshare_version>
43012

> <i_f3d_flags>
0

> <s_epik_input>
W0NIMl0xW0NIMl1bQ0gyXVtDSDJdW0NIMl1bQ0hdMUMoPU8pW05IXVtDQEBIXTJbQ0gyXVtDSDJdW0NIMl1bQ0BIXTJuM1tjSF1bY0hdbltjSF0z

> <s_epik_cmdline>
J2VwaWtfcHl0aG9uJywgJy1waCcsICc3LjAnLCAnLXRuJywgJzgnLCAnLW1hJywgJzIwMCcsICctbWV0YWxfYmluZGluZycsICctaW1hZScsICc8aW5maWxlLm1hZT4nLCAnLW9tYWUnLCAnPG91dGZpbGUubWFlPic=

> <r_lp_tautomer_probability>
1

> <r_epik_Ionization_Penalty>
0.778458

> <r_epik_Ionization_Penalty_Charging>
0.778458

> <r_epik_Ionization_Penalty_Neutral>
2.79355e-08

> <r_epik_State_Penalty>
0.807804

> <r_epik_Charging_Adjusted_Penalty>
1.58626

> <i_epik_Tot_Q>
0

> <i_epik_Tot_abs_Q>
0

> <r_epik_Metal_State_Penalty>
0.343007

> <b_epik_Metal_Only>
0

> <s_lp_Force_Field>
OPLS_2005

> <r_lp_Energy>
33.2342

> <b_lp_Chiralities_Consistent>
1

> <s_lp_Variant>
AV-unprocessed.smi:942-6

> <Gold.Version>
5.8.1

> <Gold.Id.Protein>
6NUR|6NUR_protein|mol2

> <Gold.PLP.Fitness>
43.3946

> <Gold.PLP.PLP>
-38.5042

> <Gold.PLP.part.hbond>
-1.0000

> <Gold.PLP.part.metal>
0.0000

> <Gold.PLP.part.buried>
-2.3729

> <Gold.PLP.part.nonpolar>
-36.1370

> <Gold.PLP.part.repulsive>
1.0736

> <Gold.PLP.ligand.clash>
0.0113

> <Gold.PLP.ligand.torsion>
0.3274

> <Gold.PLP.Chemscore.Hbond>
0.7680

> <Gold.PLP.Chemscore.CHOScore>
1.0749

> <Gold.PLP.Chemscore.Metal>
0.0000

> <Gold.Chemscore.Hbonds>
donor molecule, donor type, donor heavy atom, donor atom, acceptor molecule, acceptor atom, score
      P1  H 10752 10763       L1    12  0.74
      L1  C    13    31       P1  7948  0.95
      L1  C    13    31       P1  7949  0.09

> <Gold.PLP.Chemscore.Internal.Correction>
0.0279

> <Gold.Rescore>
     Score         DG    S(hbond)    S(metal)    S(lipo)     H(rot)  DE(clash)    DE(int)     intcor
     10.50     -15.71       0.88        0.00      93.79       1.44       0.22       4.99       ----

> <Gold.Chemscore.Fitness>
10.5032

> <Gold.Chemscore.DG>
-15.7111

> <Gold.Chemscore.ZeroCoef>
-5.4800

> <Gold.Chemscore.Hbond>
0.8811

> <Gold.Chemscore.Metal>
0.0000

> <Gold.Chemscore.Lipo>
93.7895

> <Gold.Chemscore.Internal_Hbond>
0.0000

> <Gold.Chemscore.DEClash>
0.2212

> <Gold.Chemscore.DEInternal>
4.9866

> <Gold.Chemscore.Rot>
1.4395

> <Gold.Chemscore.Internal.Correction>
   9.000000E+99

> <Gold.Chemscore.Hbonds>
donor molecule, donor type, donor heavy atom, donor atom, acceptor molecule, acceptor atom, score
      P1  H 10752 10763       L1    12  0.73

> <Gold.Chemscore.Hbond.Weighted>
-2.9429

> <Gold.Chemscore.Metal.Weighted>
-0.0000

> <Gold.Chemscore.Lipo.Weighted>
-10.9734

> <Gold.Chemscore.Internal_Hbond.Weighted>
0.0000

> <Gold.Chemscore.DEClash.Weighted>
0.2212

> <Gold.Chemscore.DEInternal.Weighted>
4.9866

> <Gold.Chemscore.Rot.Weighted>
3.6852

> <Gold.Chemscore.Internal.Correction.Weighted>
   9.000000E+99

> <Gold.Protein.RotatedTorsions>
[ 6907 6896 6895 6894 ] final  114.05 input  -60.11 | X-H torsion
[ 7974 7965 7964 7962 ] final -106.51 input  175.53 | X-H torsion
[ 8008 7997 7996 7995 ] final   49.99 input   59.86 | X-H torsion
[ 10167 10162 10161 10158 ] final  -95.58 input  -65.29 | X-H torsion
[ 10718 10713 10712 10709 ] final -153.74 input   66.30 | X-H torsion
[ 10763 10752 10751 10750 ] final   39.56 input  -60.55 | X-H torsion
[ 11005 11000 10999 10996 ] final  -84.45 input  -57.11 | X-H torsion

> <Gold.Protein.ActiveResidues>
 VAL166  LYS551  ARG553  GLY616  TRP617  ASP618  TYR619  PRO620  LYS621  CYS622 
 ASP623  PHE694  ASN695  SER759  ASP760  ASP761  ALA762  ILE779  LEU786  VAL792 
 PHE793  MET794  SER795  GLU796  ALA797  LYS798  CYS799  TRP800  GLU811  SER814 

> <Gold.Protein.RotatedAtoms>
  152.4825  133.8290  159.7092 H   0  0  0  0  0  0  0  0  0  0  0  0  # atno 6907 bound_to 6896
  150.8886  133.7265  159.2918 H   0  0  0  0  0  0  0  0  0  0  0  0  # atno 6908 bound_to 6896
  151.4745  135.1052  159.9813 H   0  0  0  0  0  0  0  0  0  0  0  0  # atno 6909 bound_to 6896
  145.2170  140.9119  143.3281 H   0  0  0  0  0  0  0  0  0  0  0  0  # atno 7974 bound_to 7965
  155.4114  140.3442  155.4264 H   0  0  0  0  0  0  0  0  0  0  0  0  # atno 8008 bound_to 7997
  156.1446  140.1552  156.8898 H   0  0  0  0  0  0  0  0  0  0  0  0  # atno 8009 bound_to 7997
  154.5000  140.0817  156.7758 H   0  0  0  0  0  0  0  0  0  0  0  0  # atno 8010 bound_to 7997
  140.3027  143.3153  152.0231 H   0  0  0  0  0  0  0  0  0  0  0  0  # atno 10167 bound_to 10162
  156.4898  130.8342  151.2566 H   0  0  0  0  0  0  0  0  0  0  0  0  # atno 10718 bound_to 10713
  152.9963  135.6217  154.2484 H   0  0  0  0  0  0  0  0  0  0  0  0  # atno 10763 bound_to 10752
  154.2223  135.2795  155.2922 H   0  0  0  0  0  0  0  0  0  0  0  0  # atno 10764 bound_to 10752
  154.5518  135.5731  153.6987 H   0  0  0  0  0  0  0  0  0  0  0  0  # atno 10765 bound_to 10752
  141.1650  133.7346  156.8869 H   0  0  0  0  0  0  0  0  0  0  0  0  # atno 11005 bound_to 11000
  144.9802  139.3791  143.6266 LP  0  0  0  0  0  0  0  0  0  0  0  0  # atno 17320 bound_to 7965
  146.3385  139.8939  142.8805 LP  0  0  0  0  0  0  0  0  0  0  0  0  # atno 17321 bound_to 7965
  139.4911  144.6444  151.6810 LP  0  0  0  0  0  0  0  0  0  0  0  0  # atno 17342 bound_to 10162
  140.5637  144.0225  150.6182 LP  0  0  0  0  0  0  0  0  0  0  0  0  # atno 17343 bound_to 10162
  157.7475  131.0017  150.2973 LP  0  0  0  0  0  0  0  0  0  0  0  0  # atno 17370 bound_to 10713
  156.3437  130.3819  149.7387 LP  0  0  0  0  0  0  0  0  0  0  0  0  # atno 17371 bound_to 10713
  140.1676  134.9122  157.2793 LP  0  0  0  0  0  0  0  0  0  0  0  0  # atno 17394 bound_to 11000
  140.2539  134.3650  155.7431 LP  0  0  0  0  0  0  0  0  0  0  0  0  # atno 17395 bound_to 11000

$$$$
