AV-unprocessed.smi:807|AV-procd|sdf|3803|dock7
  -GOLD-   22720 1243D 1   1.00000     0.00000
 Structure written by MMmdl.
 35 37  0  0  0  0  0  0  0  0  1 V2000
  147.5367  141.1947  154.5935 C   0  0  0  0  0  0  0  0  0  0  0  0
  148.8743  141.4370  155.1097 N   0  0  0  0  0  0  0  0  0  0  0  0
  149.8518  140.4329  155.0611 C   0  0  0  0  0  0  0  0  0  0  0  0
  149.8249  139.5097  154.0721 N   0  0  0  0  0  0  0  0  0  0  0  0
  150.7807  138.5711  154.0660 C   0  0  0  0  0  0  0  0  0  0  0  0
  151.8006  138.3964  154.9211 N   0  0  0  0  0  0  0  0  0  0  0  0
  151.8346  139.3051  155.9055 C   0  0  0  0  0  0  0  0  0  0  0  0
  152.7700  139.3662  156.9245 N   0  0  0  0  0  0  0  0  0  0  0  0
  152.3517  140.4263  157.6123 C   0  0  0  0  0  0  0  0  0  0  0  0
  151.2539  141.0652  157.1624 N   0  0  0  0  0  0  0  0  0  0  0  0
  150.6238  142.2320  157.7548 C   0  0  0  0  0  0  0  0  0  0  0  0
  151.6430  143.3363  158.1043 C   0  0  1  0  0  0  0  0  0  0  0  0
  151.1982  144.5961  157.6393 O   0  0  0  0  0  0  0  0  0  0  0  0
  152.0063  143.3380  159.5873 C   0  0  0  0  0  0  0  0  0  0  0  0
  152.7402  142.2422  160.0952 C   0  0  0  0  0  0  0  0  0  0  0  0
  153.1008  142.1839  161.4543 C   0  0  0  0  0  0  0  0  0  0  0  0
  152.7274  143.2231  162.3246 C   0  0  0  0  0  0  0  0  0  0  0  0
  151.9917  144.3168  161.8331 C   0  0  0  0  0  0  0  0  0  0  0  0
  151.6268  144.3822  160.4730 C   0  0  0  0  0  0  0  0  0  0  0  0
  150.7125  145.7528  159.9462 Cl  0  0  0  0  0  0  0  0  0  0  0  0
  150.8758  140.3552  156.0256 C   0  0  0  0  0  0  0  0  0  0  0  0
  146.9238  142.0877  154.7145 H   0  0  0  0  0  0  0  0  0  0  0  0
  147.0573  140.3761  155.1314 H   0  0  0  0  0  0  0  0  0  0  0  0
  147.5706  140.9449  153.5324 H   0  0  0  0  0  0  0  0  0  0  0  0
  149.0913  142.3362  155.5145 H   0  0  0  0  0  0  0  0  0  0  0  0
  150.7222  137.8548  153.2600 H   0  0  0  0  0  0  0  0  0  0  0  0
  152.8722  140.7566  158.4994 H   0  0  0  0  0  0  0  0  0  0  0  0
  149.8650  142.6025  157.0658 H   0  0  0  0  0  0  0  0  0  0  0  0
  150.0904  141.9120  158.6503 H   0  0  0  0  0  0  0  0  0  0  0  0
  152.5563  143.1360  157.5431 H   0  0  0  0  0  0  0  0  0  0  0  0
  150.5598  144.4558  156.9568 H   0  0  0  0  0  0  0  0  0  0  0  0
  153.0326  141.4335  159.4412 H   0  0  0  0  0  0  0  0  0  0  0  0
  153.6633  141.3413  161.8289 H   0  0  0  0  0  0  0  0  0  0  0  0
  153.0027  143.1808  163.3682 H   0  0  0  0  0  0  0  0  0  0  0  0
  151.7040  145.1113  162.5059 H   0  0  0  0  0  0  0  0  0  0  0  0
  1  2  1  0  0  0  0
  1 22  1  0  0  0  0
  1 23  1  0  0  0  0
  1 24  1  0  0  0  0
  2  3  1  0  0  0  0
  2 25  1  0  0  0  0
  3 21  1  0  0  0  0
  3  4  2  0  0  0  0
  4  5  1  0  0  0  0
  5  6  2  0  0  0  0
  5 26  1  0  0  0  0
  6  7  1  0  0  0  0
  7 21  2  0  0  0  0
  7  8  1  0  0  0  0
  8  9  2  0  0  0  0
  9 10  1  0  0  0  0
  9 27  1  0  0  0  0
 10 11  1  0  0  0  0
 10 21  1  0  0  0  0
 11 12  1  0  0  0  0
 11 28  1  0  0  0  0
 11 29  1  0  0  0  0
 12 13  1  0  0  0  0
 12 14  1  0  0  0  0
 12 30  1  0  0  0  0
 13 31  1  0  0  0  0
 14 19  1  0  0  0  0
 14 15  2  0  0  0  0
 15 16  1  0  0  0  0
 15 32  1  0  0  0  0
 16 17  2  0  0  0  0
 16 33  1  0  0  0  0
 17 18  1  0  0  0  0
 17 34  1  0  0  0  0
 18 19  2  0  0  0  0
 18 35  1  0  0  0  0
 19 20  1  0  0  0  0
M  END
> <s_m_source_file>
AV-unprocessed.smi

> <i_m_source_file_index>
807

> <i_lp_mmshare_version>
43012

> <i_f3d_flags>
0

> <s_epik_input>
bjFbY0hdbmMoW05IXVtDSDNdKWMoYzEyKW4oW2NIXW4yKVtDSDJdW0NASF0oW09IXSljM1tjSF1bY0hdW2NIXVtjSF1jM0Ns

> <s_epik_cmdline>
J2VwaWtfcHl0aG9uJywgJy1waCcsICc3LjAnLCAnLXRuJywgJzgnLCAnLW1hJywgJzIwMCcsICctbWV0YWxfYmluZGluZycsICctaW1hZScsICc8aW5maWxlLm1hZT4nLCAnLW9tYWUnLCAnPG91dGZpbGUubWFlPic=

> <r_lp_tautomer_probability>
1

> <r_epik_Ionization_Penalty>
0.00695285

> <r_epik_Ionization_Penalty_Charging>
0

> <r_epik_Ionization_Penalty_Neutral>
0.00695285

> <r_epik_State_Penalty>
-0

> <r_epik_Charging_Adjusted_Penalty>
0

> <i_epik_Tot_Q>
0

> <i_epik_Tot_abs_Q>
0

> <r_epik_Metal_State_Penalty>
-0

> <b_epik_Metal_Only>
0

> <s_lp_Force_Field>
OPLS_2005

> <r_lp_Energy>
12.6911

> <b_lp_Chiralities_Consistent>
1

> <s_lp_Variant>
AV-unprocessed.smi:807-2

> <Gold.Version>
5.8.1

> <Gold.Id.Protein>
6NUR|6NUR_protein|mol2

> <Gold.PLP.Fitness>
55.7306

> <Gold.PLP.PLP>
-47.4907

> <Gold.PLP.part.hbond>
-2.6854

> <Gold.PLP.part.metal>
0.0000

> <Gold.PLP.part.buried>
-3.5287

> <Gold.PLP.part.nonpolar>
-42.2533

> <Gold.PLP.part.repulsive>
2.0832

> <Gold.PLP.ligand.clash>
0.0000

> <Gold.PLP.ligand.torsion>
1.1895

> <Gold.PLP.Chemscore.Hbond>
2.0878

> <Gold.PLP.Chemscore.CHOScore>
1.4300

> <Gold.PLP.Chemscore.Metal>
0.0000

> <Gold.Chemscore.Hbonds>
donor molecule, donor type, donor heavy atom, donor atom, acceptor molecule, acceptor atom, score
      L1  H     2    25       P1  8028  0.10
      L1  H    13    31       P1  8028  0.83
      P1  H  7997  8009       L1     8  0.76
      L1  C     5    26       P1  7948  0.27
      L1  C     5    26       P1  7949  0.63

> <Gold.PLP.Chemscore.Internal.Correction>
0.0657

> <Gold.Rescore>
     Score         DG    S(hbond)    S(metal)    S(lipo)     H(rot)  DE(clash)    DE(int)     intcor
     12.51     -17.85       1.72        0.00     107.21       2.31       2.33       3.01       ----

> <Gold.Chemscore.Fitness>
12.5125

> <Gold.Chemscore.DG>
-17.8499

> <Gold.Chemscore.ZeroCoef>
-5.4800

> <Gold.Chemscore.Hbond>
1.7197

> <Gold.Chemscore.Metal>
0.0000

> <Gold.Chemscore.Lipo>
107.2107

> <Gold.Chemscore.Internal_Hbond>
0.0000

> <Gold.Chemscore.DEClash>
2.3320

> <Gold.Chemscore.DEInternal>
3.0054

> <Gold.Chemscore.Rot>
2.3115

> <Gold.Chemscore.Internal.Correction>
   9.000000E+99

> <Gold.Chemscore.Hbonds>
donor molecule, donor type, donor heavy atom, donor atom, acceptor molecule, acceptor atom, score
      L1  H     2    25       P1  8028  0.12
      L1  H    13    31       P1  8028  0.73
      P1  H  7997  8009       L1     8  0.08

> <Gold.Chemscore.Hbond.Weighted>
-5.7437

> <Gold.Chemscore.Metal.Weighted>
-0.0000

> <Gold.Chemscore.Lipo.Weighted>
-12.5437

> <Gold.Chemscore.Internal_Hbond.Weighted>
0.0000

> <Gold.Chemscore.DEClash.Weighted>
2.3320

> <Gold.Chemscore.DEInternal.Weighted>
3.0054

> <Gold.Chemscore.Rot.Weighted>
5.9174

> <Gold.Chemscore.Internal.Correction.Weighted>
   9.000000E+99

> <Gold.Protein.RotatedTorsions>
[ 6907 6896 6895 6894 ] final   12.07 input  -60.11 | X-H torsion
[ 7974 7965 7964 7962 ] final  -44.88 input  175.53 | X-H torsion
[ 8008 7997 7996 7995 ] final -153.16 input   59.86 | X-H torsion
[ 10167 10162 10161 10158 ] final   21.96 input  -65.29 | X-H torsion
[ 10718 10713 10712 10709 ] final  -27.12 input   66.30 | X-H torsion
[ 10763 10752 10751 10750 ] final  -56.49 input  -60.55 | X-H torsion
[ 11005 11000 10999 10996 ] final  168.34 input  -57.11 | X-H torsion

> <Gold.Protein.ActiveResidues>
 VAL166  LYS551  ARG553  GLY616  TRP617  ASP618  TYR619  PRO620  LYS621  CYS622 
 ASP623  PHE694  ASN695  SER759  ASP760  ASP761  ALA762  ILE779  LEU786  VAL792 
 PHE793  MET794  SER795  GLU796  ALA797  LYS798  CYS799  TRP800  GLU811  SER814 

> <Gold.Protein.RotatedAtoms>
  151.7644  135.0802  160.0350 H   0  0  0  0  0  0  0  0  0  0  0  0  # atno 6907 bound_to 6896
  152.3331  133.5976  159.5832 H   0  0  0  0  0  0  0  0  0  0  0  0  # atno 6908 bound_to 6896
  150.7434  133.9753  159.3601 H   0  0  0  0  0  0  0  0  0  0  0  0  # atno 6909 bound_to 6896
  145.9877  140.7215  142.9332 H   0  0  0  0  0  0  0  0  0  0  0  0  # atno 7974 bound_to 7965
  155.6664  140.0728  157.2536 H   0  0  0  0  0  0  0  0  0  0  0  0  # atno 8008 bound_to 7997
  154.4132  140.1707  156.1883 H   0  0  0  0  0  0  0  0  0  0  0  0  # atno 8009 bound_to 7997
  155.9654  140.3366  155.6530 H   0  0  0  0  0  0  0  0  0  0  0  0  # atno 8010 bound_to 7997
  140.5386  143.9717  150.6506 H   0  0  0  0  0  0  0  0  0  0  0  0  # atno 10167 bound_to 10162
  156.4422  130.4467  149.7045 H   0  0  0  0  0  0  0  0  0  0  0  0  # atno 10718 bound_to 10713
  154.2074  135.6400  153.5105 H   0  0  0  0  0  0  0  0  0  0  0  0  # atno 10763 bound_to 10752
  152.9998  135.5466  154.6251 H   0  0  0  0  0  0  0  0  0  0  0  0  # atno 10764 bound_to 10752
  154.5679  135.2914  155.0829 H   0  0  0  0  0  0  0  0  0  0  0  0  # atno 10765 bound_to 10752
  140.2862  134.7710  157.3800 H   0  0  0  0  0  0  0  0  0  0  0  0  # atno 11005 bound_to 11000
  144.6879  140.3016  143.7262 LP  0  0  0  0  0  0  0  0  0  0  0  0  # atno 17320 bound_to 7965
  145.7677  139.1846  143.2231 LP  0  0  0  0  0  0  0  0  0  0  0  0  # atno 17321 bound_to 7965
  140.3111  143.3197  152.0877 LP  0  0  0  0  0  0  0  0  0  0  0  0  # atno 17342 bound_to 10162
  139.4980  144.6635  151.6410 LP  0  0  0  0  0  0  0  0  0  0  0  0  # atno 17343 bound_to 10162
  156.3905  130.7624  151.2625 LP  0  0  0  0  0  0  0  0  0  0  0  0  # atno 17370 bound_to 10713
  157.7506  131.0269  150.3983 LP  0  0  0  0  0  0  0  0  0  0  0  0  # atno 17371 bound_to 10713
  140.1237  134.5186  155.8162 LP  0  0  0  0  0  0  0  0  0  0  0  0  # atno 17394 bound_to 11000
  141.2154  133.6765  156.6913 LP  0  0  0  0  0  0  0  0  0  0  0  0  # atno 17395 bound_to 11000

$$$$
