AV-unprocessed.smi:798|AV-procd|sdf|3780|dock6
  -GOLD-   22720 1213D 1   1.00000     0.00000
 Structure written by MMmdl.
 33 35  0  0  0  0  0  0  0  0  2 V2000
  153.5593  139.7148  158.4508 O   0  0  0  0  0  0  0  0  0  0  0  0
  152.4642  139.8567  158.9993 C   0  0  0  0  0  0  0  0  0  0  0  0
  151.6143  138.8684  159.3592 N   0  5  0  0  0  0  0  0  0  0  0  0
  151.3551  137.8621  158.5081 C   0  0  0  0  0  0  0  0  0  0  0  0
  150.7671  136.7213  158.9029 N   0  0  0  0  0  0  0  0  0  0  0  0
  150.5963  135.8094  157.8699 N   0  0  0  0  0  0  0  0  0  0  0  0
  151.0698  136.2854  156.7184 C   0  0  0  0  0  0  0  0  0  0  0  0
  151.7689  137.8892  156.7914 S   0  0  0  0  0  0  0  0  0  0  0  0
  152.0213  141.0845  159.3049 N   0  0  0  0  0  0  0  0  0  0  0  0
  152.7168  142.3470  159.0437 C   0  0  1  0  0  0  0  0  0  0  0  0
  151.9408  143.2534  158.0561 C   0  0  1  0  0  0  0  0  0  0  0  0
  150.4678  143.4234  158.4855 C   0  0  0  0  0  0  0  0  0  0  0  0
  150.5852  144.2986  159.7461 C   0  0  0  0  0  0  0  0  0  0  0  0
  152.1050  144.5430  159.8569 C   0  0  2  0  0  0  0  0  0  0  0  0
  152.4978  144.6343  158.3871 C   0  0  0  0  0  0  0  0  0  0  0  0
  152.8707  143.2683  160.2895 C   0  0  1  0  0  0  0  0  0  0  0  0
  152.4808  142.6800  161.6645 C   0  0  0  0  0  0  0  0  0  0  0  0
  152.4631  143.6942  162.6472 O   0  0  0  0  0  0  0  0  0  0  0  0
  151.0102  135.6874  155.8214 H   0  0  0  0  0  0  0  0  0  0  0  0
  151.1211  141.1494  159.7566 H   0  0  0  0  0  0  0  0  0  0  0  0
  153.7032  142.1434  158.6224 H   0  0  0  0  0  0  0  0  0  0  0  0
  152.0545  142.9542  157.0137 H   0  0  0  0  0  0  0  0  0  0  0  0
  149.9056  143.9496  157.7131 H   0  0  0  0  0  0  0  0  0  0  0  0
  149.9513  142.4822  158.6732 H   0  0  0  0  0  0  0  0  0  0  0  0
  150.0572  145.2417  159.5991 H   0  0  0  0  0  0  0  0  0  0  0  0
  150.1580  143.8245  160.6285 H   0  0  0  0  0  0  0  0  0  0  0  0
  152.3610  145.4234  160.4471 H   0  0  0  0  0  0  0  0  0  0  0  0
  153.5745  144.7168  158.2280 H   0  0  0  0  0  0  0  0  0  0  0  0
  151.9970  145.4442  157.8534 H   0  0  0  0  0  0  0  0  0  0  0  0
  153.9272  143.5345  160.3581 H   0  0  0  0  0  0  0  0  0  0  0  0
  151.5115  142.1833  161.6416 H   0  0  0  0  0  0  0  0  0  0  0  0
  153.2107  141.9303  161.9712 H   0  0  0  0  0  0  0  0  0  0  0  0
  153.0249  144.3976  162.3597 H   0  0  0  0  0  0  0  0  0  0  0  0
  1  2  2  0  0  0  0
  2  3  1  0  0  0  0
  2  9  1  0  0  0  0
  3  4  1  0  0  0  0
  4  8  1  0  0  0  0
  4  5  2  0  0  0  0
  5  6  1  0  0  0  0
  6  7  2  0  0  0  0
  7  8  1  0  0  0  0
  7 19  1  0  0  0  0
  9 10  1  0  0  0  0
  9 20  1  0  0  0  0
 10 16  1  0  0  0  0
 10 11  1  0  0  0  0
 10 21  1  0  0  0  0
 11 15  1  0  0  0  0
 11 12  1  0  0  0  0
 11 22  1  0  0  0  0
 12 13  1  0  0  0  0
 12 23  1  0  0  0  0
 12 24  1  0  0  0  0
 13 14  1  0  0  0  0
 13 25  1  0  0  0  0
 13 26  1  0  0  0  0
 14 15  1  0  0  0  0
 14 16  1  0  0  0  0
 14 27  1  0  0  0  0
 15 28  1  0  0  0  0
 15 29  1  0  0  0  0
 16 17  1  0  0  0  0
 16 30  1  0  0  0  0
 17 18  1  0  0  0  0
 17 31  1  0  0  0  0
 17 32  1  0  0  0  0
 18 33  1  0  0  0  0
M  CHG  1   3  -1
M  END
> <s_m_source_file>
AV-unprocessed.smi

> <i_m_source_file_index>
798

> <i_lp_mmshare_version>
43012

> <i_f3d_flags>
0

> <s_epik_input>
W0NIMl0xW0NIMl1bQ0BASF0oW0NIMl0yKVtDQEBIXShbQ0gyXVtPSF0pW0NAQEhdKFtDQEhdMTIpW05IXUMoPU8pW05IXWMzbm5bY0hdczM=

> <s_epik_cmdline>
J2VwaWtfcHl0aG9uJywgJy1waCcsICc3LjAnLCAnLXRuJywgJzgnLCAnLW1hJywgJzIwMCcsICctbWV0YWxfYmluZGluZycsICctaW1hZScsICc8aW5maWxlLm1hZT4nLCAnLW9tYWUnLCAnPG91dGZpbGUubWFlPic=

> <r_lp_tautomer_probability>
1

> <r_epik_Ionization_Penalty>
4.53732

> <r_epik_Ionization_Penalty_Charging>
4.48632

> <r_epik_Ionization_Penalty_Neutral>
0.0510007

> <r_epik_State_Penalty>
4.48602

> <r_epik_Charging_Adjusted_Penalty>
8.97234

> <i_epik_Tot_Q>
-1

> <i_epik_Tot_abs_Q>
1

> <r_epik_Metal_State_Penalty>
0.812492

> <b_epik_Metal_Only>
1

> <s_lp_Force_Field>
OPLS_2005

> <r_lp_Energy>
48.4262

> <b_lp_Chiralities_Consistent>
1

> <s_lp_Variant>
AV-unprocessed.smi:798-12

> <Gold.Version>
5.8.1

> <Gold.Id.Protein>
6NUR|6NUR_protein|mol2

> <Gold.PLP.Fitness>
41.0312

> <Gold.PLP.PLP>
-38.0281

> <Gold.PLP.part.hbond>
-4.0000

> <Gold.PLP.part.metal>
0.0000

> <Gold.PLP.part.buried>
-6.4582

> <Gold.PLP.part.nonpolar>
-28.0574

> <Gold.PLP.part.repulsive>
0.1426

> <Gold.PLP.ligand.clash>
0.0000

> <Gold.PLP.ligand.torsion>
0.5069

> <Gold.PLP.Chemscore.Hbond>
1.3307

> <Gold.PLP.Chemscore.CHOScore>
0.0000

> <Gold.PLP.Chemscore.Metal>
0.0000

> <Gold.Chemscore.Hbonds>
donor molecule, donor type, donor heavy atom, donor atom, acceptor molecule, acceptor atom, score
      P1  H  6896  6908       L1     5  0.15
      P1  H  7997  8010       L1     1  1.00

> <Gold.PLP.Chemscore.Internal.Correction>
0.0246

> <Gold.Rescore>
     Score         DG    S(hbond)    S(metal)    S(lipo)     H(rot)  DE(clash)    DE(int)     intcor
     14.99     -15.62       1.03        0.00      99.33       1.92       0.09       0.54       ----

> <Gold.Chemscore.Fitness>
14.9945

> <Gold.Chemscore.DG>
-15.6202

> <Gold.Chemscore.ZeroCoef>
-5.4800

> <Gold.Chemscore.Hbond>
1.0286

> <Gold.Chemscore.Metal>
0.0000

> <Gold.Chemscore.Lipo>
99.3297

> <Gold.Chemscore.Internal_Hbond>
0.0000

> <Gold.Chemscore.DEClash>
0.0862

> <Gold.Chemscore.DEInternal>
0.5394

> <Gold.Chemscore.Rot>
1.9207

> <Gold.Chemscore.Internal.Correction>
   9.000000E+99

> <Gold.Chemscore.Hbonds>
donor molecule, donor type, donor heavy atom, donor atom, acceptor molecule, acceptor atom, score
      P1  H  7997  8010       L1     1  1.00

> <Gold.Chemscore.Hbond.Weighted>
-3.4355

> <Gold.Chemscore.Metal.Weighted>
-0.0000

> <Gold.Chemscore.Lipo.Weighted>
-11.6216

> <Gold.Chemscore.Internal_Hbond.Weighted>
0.0000

> <Gold.Chemscore.DEClash.Weighted>
0.0862

> <Gold.Chemscore.DEInternal.Weighted>
0.5394

> <Gold.Chemscore.Rot.Weighted>
4.9169

> <Gold.Chemscore.Internal.Correction.Weighted>
   9.000000E+99

> <Gold.Protein.RotatedTorsions>
[ 6907 6896 6895 6894 ] final -136.36 input  -60.11 | X-H torsion
[ 7974 7965 7964 7962 ] final   -6.70 input  175.53 | X-H torsion
[ 8008 7997 7996 7995 ] final   27.19 input   59.86 | X-H torsion
[ 10167 10162 10161 10158 ] final  118.54 input  -65.29 | X-H torsion
[ 10718 10713 10712 10709 ] final  117.80 input   66.30 | X-H torsion
[ 10763 10752 10751 10750 ] final  -36.26 input  -60.55 | X-H torsion
[ 11005 11000 10999 10996 ] final  -47.09 input  -57.11 | X-H torsion

> <Gold.Protein.ActiveResidues>
 VAL166  LYS551  ARG553  GLY616  TRP617  ASP618  TYR619  PRO620  LYS621  CYS622 
 ASP623  PHE694  ASN695  SER759  ASP760  ASP761  ALA762  ILE779  LEU786  VAL792 
 PHE793  MET794  SER795  GLU796  ALA797  LYS798  CYS799  TRP800  GLU811  SER814 

> <Gold.Protein.RotatedAtoms>
  151.0092  133.5982  159.2684 H   0  0  0  0  0  0  0  0  0  0  0  0  # atno 6907 bound_to 6896
  151.3139  135.0800  159.9292 H   0  0  0  0  0  0  0  0  0  0  0  0  # atno 6908 bound_to 6896
  152.5295  133.9751  159.7834 H   0  0  0  0  0  0  0  0  0  0  0  0  # atno 6909 bound_to 6896
  146.2325  140.2210  142.8337 H   0  0  0  0  0  0  0  0  0  0  0  0  # atno 7974 bound_to 7965
  155.0391  140.3167  155.4731 H   0  0  0  0  0  0  0  0  0  0  0  0  # atno 8008 bound_to 7997
  156.2858  140.2166  156.5457 H   0  0  0  0  0  0  0  0  0  0  0  0  # atno 8009 bound_to 7997
  154.7305  140.0482  157.0710 H   0  0  0  0  0  0  0  0  0  0  0  0  # atno 8010 bound_to 7997
  139.6104  144.7080  151.2856 H   0  0  0  0  0  0  0  0  0  0  0  0  # atno 10167 bound_to 10162
  157.6073  131.1041  150.7666 H   0  0  0  0  0  0  0  0  0  0  0  0  # atno 10718 bound_to 10713
  153.8768  135.6825  153.4770 H   0  0  0  0  0  0  0  0  0  0  0  0  # atno 10763 bound_to 10752
  153.1256  135.4720  154.9264 H   0  0  0  0  0  0  0  0  0  0  0  0  # atno 10764 bound_to 10752
  154.7688  135.3232  154.8184 H   0  0  0  0  0  0  0  0  0  0  0  0  # atno 10765 bound_to 10752
  141.0619  133.6706  156.3248 H   0  0  0  0  0  0  0  0  0  0  0  0  # atno 11005 bound_to 11000
  144.9632  140.8296  143.5500 LP  0  0  0  0  0  0  0  0  0  0  0  0  # atno 17320 bound_to 7965
  145.2183  139.2171  143.5107 LP  0  0  0  0  0  0  0  0  0  0  0  0  # atno 17321 bound_to 7965
  140.7315  143.6849  150.7970 LP  0  0  0  0  0  0  0  0  0  0  0  0  # atno 17342 bound_to 10162
  140.0443  143.5314  152.2703 LP  0  0  0  0  0  0  0  0  0  0  0  0  # atno 17343 bound_to 10162
  156.8051  130.4934  149.5364 LP  0  0  0  0  0  0  0  0  0  0  0  0  # atno 17370 bound_to 10713
  156.1163  130.6077  151.0126 LP  0  0  0  0  0  0  0  0  0  0  0  0  # atno 17371 bound_to 10713
  140.5851  134.5707  157.5488 LP  0  0  0  0  0  0  0  0  0  0  0  0  # atno 17394 bound_to 11000
  139.9441  134.7734  156.0606 LP  0  0  0  0  0  0  0  0  0  0  0  0  # atno 17395 bound_to 11000

$$$$
