AV-unprocessed.smi:2437|AV-procd|sdf|9594|dock4
  -GOLD-   2272013223D 1   1.00000     0.00000
 Structure written by MMmdl.
 34 35  0  0  0  0  0  0  0  0  3 V2000
  151.1268  141.7225  158.6587 O   0  0  0  0  0  0  0  0  0  0  0  0
  150.4425  142.2370  157.7728 C   0  0  0  0  0  0  0  0  0  0  0  0
  149.5547  141.3803  156.8582 C   0  0  0  0  0  0  0  0  0  0  0  0
  149.9056  139.9499  156.8696 N   0  0  0  0  0  0  0  0  0  0  0  0
  149.3921  139.1739  157.9276 C   0  0  0  0  0  0  0  0  0  0  0  0
  149.6548  137.8574  158.0431 C   0  0  0  0  0  0  0  0  0  0  0  0
  149.1188  137.0760  159.1361 N   0  3  0  0  0  0  0  0  0  0  0  0
  149.4888  135.9135  159.2650 O   0  0  0  0  0  0  0  0  0  0  0  0
  148.3106  137.5959  159.8998 O   0  5  0  0  0  0  0  0  0  0  0  0
  150.4974  137.2469  157.0332 C   0  0  0  0  0  0  0  0  0  0  0  0
  150.9932  137.9837  156.0198 C   0  0  0  0  0  0  0  0  0  0  0  0
  150.7050  139.4163  155.8954 C   0  0  0  0  0  0  0  0  0  0  0  0
  151.1555  140.0953  154.9726 O   0  0  0  0  0  0  0  0  0  0  0  0
  150.4064  143.5590  157.5487 N   0  0  0  0  0  0  0  0  0  0  0  0
  151.1720  144.5594  158.2881 C   0  0  0  0  0  0  0  0  0  0  0  0
  152.6747  144.2133  158.3277 C   0  0  0  0  0  0  0  0  0  0  0  0
  152.9724  143.7898  159.7663 C   0  0  0  0  0  0  0  0  0  0  0  0
  151.9838  144.5947  160.6033 C   0  0  0  0  0  0  0  0  0  0  0  0
  150.7102  144.6269  159.7568 C   0  0  0  0  0  0  0  0  0  0  0  0
  148.5166  141.5201  157.1631 H   0  0  0  0  0  0  0  0  0  0  0  0
  149.6067  141.7733  155.8410 H   0  0  0  0  0  0  0  0  0  0  0  0
  148.7824  139.7225  158.6309 H   0  0  0  0  0  0  0  0  0  0  0  0
  150.7389  136.1952  157.0832 H   0  0  0  0  0  0  0  0  0  0  0  0
  151.6203  137.5090  155.2794 H   0  0  0  0  0  0  0  0  0  0  0  0
  149.8107  143.8982  156.8073 H   0  0  0  0  0  0  0  0  0  0  0  0
  151.0366  145.5370  157.8213 H   0  0  0  0  0  0  0  0  0  0  0  0
  152.9667  143.4468  157.6088 H   0  0  0  0  0  0  0  0  0  0  0  0
  153.2523  145.1077  158.0908 H   0  0  0  0  0  0  0  0  0  0  0  0
  152.7731  142.7238  159.8853 H   0  0  0  0  0  0  0  0  0  0  0  0
  154.0092  143.9697  160.0515 H   0  0  0  0  0  0  0  0  0  0  0  0
  151.8215  144.1644  161.5920 H   0  0  0  0  0  0  0  0  0  0  0  0
  152.3607  145.6094  160.7389 H   0  0  0  0  0  0  0  0  0  0  0  0
  150.1092  145.5140  159.9593 H   0  0  0  0  0  0  0  0  0  0  0  0
  150.0969  143.7599  160.0082 H   0  0  0  0  0  0  0  0  0  0  0  0
  1  2  2  0  0  0  0
  2  3  1  0  0  0  0
  2 14  1  0  0  0  0
  3  4  1  0  0  0  0
  3 20  1  0  0  0  0
  3 21  1  0  0  0  0
  4 12  1  0  0  0  0
  4  5  1  0  0  0  0
  5  6  2  0  0  0  0
  5 22  1  0  0  0  0
  6  7  1  0  0  0  0
  6 10  1  0  0  0  0
  7  8  2  0  0  0  0
  7  9  1  0  0  0  0
 10 11  2  0  0  0  0
 10 23  1  0  0  0  0
 11 12  1  0  0  0  0
 11 24  1  0  0  0  0
 12 13  2  0  0  0  0
 14 15  1  0  0  0  0
 14 25  1  0  0  0  0
 15 19  1  0  0  0  0
 15 16  1  0  0  0  0
 15 26  1  0  0  0  0
 16 17  1  0  0  0  0
 16 27  1  0  0  0  0
 16 28  1  0  0  0  0
 17 18  1  0  0  0  0
 17 29  1  0  0  0  0
 17 30  1  0  0  0  0
 18 19  1  0  0  0  0
 18 31  1  0  0  0  0
 18 32  1  0  0  0  0
 19 33  1  0  0  0  0
 19 34  1  0  0  0  0
M  CHG  1   7   1
M  CHG  1   9  -1
M  END
> <s_m_source_file>
AV-unprocessed.smi

> <i_m_source_file_index>
2437

> <i_lp_mmshare_version>
43012

> <i_f3d_flags>
0

> <s_epik_input>
W0NIMl0xW0NIMl1bQ0gyXVtDSDJdW0NIXTFbTkhdQyg9TylbQ0gyXW4yW2NIXWMoW04rXSg9TylbTy1dKVtjSF1bY0hdYzI9Tw==

> <s_epik_cmdline>
J2VwaWtfcHl0aG9uJywgJy1waCcsICc3LjAnLCAnLXRuJywgJzgnLCAnLW1hJywgJzIwMCcsICctbWV0YWxfYmluZGluZycsICctaW1hZScsICc8aW5maWxlLm1hZT4nLCAnLW9tYWUnLCAnPG91dGZpbGUubWFlPic=

> <r_lp_tautomer_probability>
1

> <r_epik_Ionization_Penalty>
1.93821e-08

> <r_epik_Ionization_Penalty_Charging>
8.03436e-11

> <r_epik_Ionization_Penalty_Neutral>
1.93017e-08

> <r_epik_State_Penalty>
-0

> <r_epik_Charging_Adjusted_Penalty>
8.03436e-11

> <i_epik_Tot_Q>
0

> <i_epik_Tot_abs_Q>
2

> <r_epik_Metal_State_Penalty>
-0

> <b_epik_Metal_Only>
0

> <s_lp_Force_Field>
OPLS_2005

> <r_lp_Energy>
29.2975

> <b_lp_Chiralities_Consistent>
1

> <s_lp_Variant>
AV-unprocessed.smi:2437-1

> <Gold.Version>
5.8.1

> <Gold.Id.Protein>
6NUR|6NUR_protein|mol2

> <Gold.PLP.Fitness>
43.9672

> <Gold.PLP.PLP>
-34.2200

> <Gold.PLP.part.hbond>
-5.0000

> <Gold.PLP.part.metal>
0.0000

> <Gold.PLP.part.buried>
-6.4228

> <Gold.PLP.part.nonpolar>
-24.1435

> <Gold.PLP.part.repulsive>
0.0633

> <Gold.PLP.ligand.clash>
0.0000

> <Gold.PLP.ligand.torsion>
0.6114

> <Gold.PLP.Chemscore.Hbond>
3.6495

> <Gold.PLP.Chemscore.CHOScore>
0.0000

> <Gold.PLP.Chemscore.Metal>
0.0000

> <Gold.Chemscore.Hbonds>
donor molecule, donor type, donor heavy atom, donor atom, acceptor molecule, acceptor atom, score
      L1  H    14    25       P1  8028  1.00
      P1  H  6896  6907       L1     8  1.00
      P1  H  6931  6943       L1     9  0.22
      P1  H  6934  6947       L1     9  0.41
      P1  H  7989  7998       L1    13  1.00

> <Gold.PLP.Chemscore.Internal.Correction>
0.0217

> <Gold.Rescore>
     Score         DG    S(hbond)    S(metal)    S(lipo)     H(rot)  DE(clash)    DE(int)     intcor
     21.37     -23.36       3.83        0.00      78.22       1.58       0.17       1.82       ----

> <Gold.Chemscore.Fitness>
21.3705

> <Gold.Chemscore.DG>
-23.3568

> <Gold.Chemscore.ZeroCoef>
-5.4800

> <Gold.Chemscore.Hbond>
3.8256

> <Gold.Chemscore.Metal>
0.0000

> <Gold.Chemscore.Lipo>
78.2221

> <Gold.Chemscore.Internal_Hbond>
0.0000

> <Gold.Chemscore.DEClash>
0.1682

> <Gold.Chemscore.DEInternal>
1.8181

> <Gold.Chemscore.Rot>
1.5831

> <Gold.Chemscore.Internal.Correction>
   9.000000E+99

> <Gold.Chemscore.Hbonds>
donor molecule, donor type, donor heavy atom, donor atom, acceptor molecule, acceptor atom, score
      L1  H    14    25       P1  8028  0.98
      P1  H  6896  6907       L1     8  0.98
      P1  H  6931  6943       L1     9  0.22
      P1  H  6934  6947       L1     9  0.40
      P1  H  7989  7998       L1    13  1.00

> <Gold.Chemscore.Hbond.Weighted>
-12.7775

> <Gold.Chemscore.Metal.Weighted>
-0.0000

> <Gold.Chemscore.Lipo.Weighted>
-9.1520

> <Gold.Chemscore.Internal_Hbond.Weighted>
0.0000

> <Gold.Chemscore.DEClash.Weighted>
0.1682

> <Gold.Chemscore.DEInternal.Weighted>
1.8181

> <Gold.Chemscore.Rot.Weighted>
4.0527

> <Gold.Chemscore.Internal.Correction.Weighted>
   9.000000E+99

> <Gold.Protein.RotatedTorsions>
[ 6907 6896 6895 6894 ] final  -72.48 input  -60.11 | X-H torsion
[ 7974 7965 7964 7962 ] final -139.69 input  175.53 | X-H torsion
[ 8008 7997 7996 7995 ] final  -16.47 input   59.86 | X-H torsion
[ 10167 10162 10161 10158 ] final   67.76 input  -65.29 | X-H torsion
[ 10718 10713 10712 10709 ] final  -65.94 input   66.30 | X-H torsion
[ 10763 10752 10751 10750 ] final  -34.12 input  -60.55 | X-H torsion
[ 11005 11000 10999 10996 ] final    2.49 input  -57.11 | X-H torsion

> <Gold.Protein.ActiveResidues>
 VAL166  LYS551  ARG553  GLY616  TRP617  ASP618  TYR619  PRO620  LYS621  CYS622 
 ASP623  PHE694  ASN695  SER759  ASP760  ASP761  ALA762  ILE779  LEU786  VAL792 
 PHE793  MET794  SER795  GLU796  ALA797  LYS798  CYS799  TRP800  GLU811  SER814 

> <Gold.Protein.RotatedAtoms>
  150.7168  134.5156  159.5628 H   0  0  0  0  0  0  0  0  0  0  0  0  # atno 6907 bound_to 6896
  152.2723  134.7916  160.0421 H   0  0  0  0  0  0  0  0  0  0  0  0  # atno 6908 bound_to 6896
  151.8592  133.3418  159.3735 H   0  0  0  0  0  0  0  0  0  0  0  0  # atno 6909 bound_to 6896
  144.8657  140.6289  143.5300 H   0  0  0  0  0  0  0  0  0  0  0  0  # atno 7974 bound_to 7965
  154.5051  140.2169  155.9268 H   0  0  0  0  0  0  0  0  0  0  0  0  # atno 8008 bound_to 7997
  156.1483  140.3166  155.8573 H   0  0  0  0  0  0  0  0  0  0  0  0  # atno 8009 bound_to 7997
  155.3988  140.0483  157.3028 H   0  0  0  0  0  0  0  0  0  0  0  0  # atno 8010 bound_to 7997
  140.0860  144.5029  150.7130 H   0  0  0  0  0  0  0  0  0  0  0  0  # atno 10167 bound_to 10162
  156.0641  130.4254  150.1636 H   0  0  0  0  0  0  0  0  0  0  0  0  # atno 10718 bound_to 10713
  153.8414  135.6857  153.4802 H   0  0  0  0  0  0  0  0  0  0  0  0  # atno 10763 bound_to 10752
  153.1451  135.4641  154.9552 H   0  0  0  0  0  0  0  0  0  0  0  0  # atno 10764 bound_to 10752
  154.7843  135.3279  154.7868 H   0  0  0  0  0  0  0  0  0  0  0  0  # atno 10765 bound_to 10752
  140.6037  133.9812  155.8144 H   0  0  0  0  0  0  0  0  0  0  0  0  # atno 11005 bound_to 11000
  145.4227  139.1561  143.4065 LP  0  0  0  0  0  0  0  0  0  0  0  0  # atno 17320 bound_to 7965
  146.2893  140.4338  142.8745 LP  0  0  0  0  0  0  0  0  0  0  0  0  # atno 17321 bound_to 7965
  140.7053  143.2463  151.4744 LP  0  0  0  0  0  0  0  0  0  0  0  0  # atno 17342 bound_to 10162
  139.5752  144.1836  152.1893 LP  0  0  0  0  0  0  0  0  0  0  0  0  # atno 17343 bound_to 10162
  156.9700  130.9831  151.3461 LP  0  0  0  0  0  0  0  0  0  0  0  0  # atno 17370 bound_to 10713
  157.5670  130.8284  149.8340 LP  0  0  0  0  0  0  0  0  0  0  0  0  # atno 17371 bound_to 10713
  141.0855  133.9997  157.3320 LP  0  0  0  0  0  0  0  0  0  0  0  0  # atno 17394 bound_to 11000
  139.9221  135.0201  156.8103 LP  0  0  0  0  0  0  0  0  0  0  0  0  # atno 17395 bound_to 11000

$$$$
