AV-unprocessed.smi:1047|AV-procd|sdf|4560|dock6
  -GOLD-   22720 3 03D 1   1.00000     0.00000
 Structure written by MMmdl.
 57 59  0  0  0  0  0  0  0  0  3 V2000
  141.6448  136.1372  153.4611 C   0  0  0  0  0  0  0  0  0  0  0  0
  142.7280  135.2524  154.0948 C   0  0  0  0  0  0  0  0  0  0  0  0
  144.0041  135.2815  153.3369 N   0  3  1  0  0  0  0  0  0  0  0  0
  143.9439  134.4625  152.1026 C   0  0  0  0  0  0  0  0  0  0  0  0
  145.3035  134.4677  151.3840 C   0  0  0  0  0  0  0  0  0  0  0  0
  145.6860  135.8061  151.0906 O   0  0  0  0  0  0  0  0  0  0  0  0
  145.8244  136.5984  152.2652 C   0  0  1  0  0  0  0  0  0  0  0  0
  146.3617  137.9844  151.8681 C   0  0  0  0  0  0  0  0  0  0  0  0
  146.1847  138.9789  152.9467 N   0  3  0  0  0  0  0  0  0  0  0  0
  147.2940  139.9456  153.0691 C   0  0  0  0  0  0  0  0  0  0  0  0
  147.0293  140.9491  154.2031 C   0  0  2  0  0  0  0  0  0  0  0  0
  145.8790  141.7061  153.8781 O   0  0  0  0  0  0  0  0  0  0  0  0
  148.2203  141.9008  154.4264 C   0  0  0  0  0  0  0  0  0  0  0  0
  149.3429  141.2387  155.0668 N   0  0  0  0  0  0  0  0  0  0  0  0
  149.9480  140.1002  154.6763 C   0  0  0  0  0  0  0  0  0  0  0  0
  150.9715  139.6728  155.4101 N   0  0  0  0  0  0  0  0  0  0  0  0
  151.0329  140.6423  156.3963 C   0  0  0  0  0  0  0  0  0  0  0  0
  151.9083  140.7787  157.4958 C   0  0  0  0  0  0  0  0  0  0  0  0
  151.7846  141.8657  158.3902 C   0  0  0  0  0  0  0  0  0  0  0  0
  152.7480  141.9734  159.5591 C   0  0  0  0  0  0  0  0  0  0  0  0
  150.7712  142.8378  158.1919 C   0  0  0  0  0  0  0  0  0  0  0  0
  150.6166  144.0114  159.1430 C   0  0  0  0  0  0  0  0  0  0  0  0
  149.8902  142.7183  157.0968 C   0  0  0  0  0  0  0  0  0  0  0  0
  150.0245  141.6331  156.2129 C   0  0  0  0  0  0  0  0  0  0  0  0
  144.4803  136.6521  153.0228 C   0  0  0  0  0  0  0  0  0  0  0  0
  140.7576  136.1676  154.0941 H   0  0  0  0  0  0  0  0  0  0  0  0
  141.3307  135.7660  152.4861 H   0  0  0  0  0  0  0  0  0  0  0  0
  141.9950  137.1623  153.3365 H   0  0  0  0  0  0  0  0  0  0  0  0
  142.9081  135.6189  155.1066 H   0  0  0  0  0  0  0  0  0  0  0  0
  142.3739  134.2253  154.1967 H   0  0  0  0  0  0  0  0  0  0  0  0
  143.6662  133.4372  152.3502 H   0  0  0  0  0  0  0  0  0  0  0  0
  143.1693  134.8532  151.4405 H   0  0  0  0  0  0  0  0  0  0  0  0
  146.0687  133.9814  151.9913 H   0  0  0  0  0  0  0  0  0  0  0  0
  145.2362  133.9085  150.4507 H   0  0  0  0  0  0  0  0  0  0  0  0
  146.5703  136.1298  152.9102 H   0  0  0  0  0  0  0  0  0  0  0  0
  147.4196  137.9135  151.6118 H   0  0  0  0  0  0  0  0  0  0  0  0
  145.8418  138.3352  150.9754 H   0  0  0  0  0  0  0  0  0  0  0  0
  145.3372  139.4994  152.7671 H   0  0  0  0  0  0  0  0  0  0  0  0
  148.2120  139.3923  153.2716 H   0  0  0  0  0  0  0  0  0  0  0  0
  147.4382  140.4687  152.1224 H   0  0  0  0  0  0  0  0  0  0  0  0
  146.8303  140.4054  155.1278 H   0  0  0  0  0  0  0  0  0  0  0  0
  145.2796  141.1517  153.4007 H   0  0  0  0  0  0  0  0  0  0  0  0
  148.5649  142.3065  153.4743 H   0  0  0  0  0  0  0  0  0  0  0  0
  147.9199  142.7527  155.0388 H   0  0  0  0  0  0  0  0  0  0  0  0
  149.6238  139.5579  153.8000 H   0  0  0  0  0  0  0  0  0  0  0  0
  152.6793  140.0373  157.6474 H   0  0  0  0  0  0  0  0  0  0  0  0
  152.2059  141.9405  160.5044 H   0  0  0  0  0  0  0  0  0  0  0  0
  153.3048  142.9093  159.5107 H   0  0  0  0  0  0  0  0  0  0  0  0
  153.4693  141.1555  159.5585 H   0  0  0  0  0  0  0  0  0  0  0  0
  149.7807  144.6499  158.8555 H   0  0  0  0  0  0  0  0  0  0  0  0
  151.5196  144.6224  159.1457 H   0  0  0  0  0  0  0  0  0  0  0  0
  150.4336  143.6594  160.1586 H   0  0  0  0  0  0  0  0  0  0  0  0
  149.1148  143.4521  156.9343 H   0  0  0  0  0  0  0  0  0  0  0  0
  143.7244  137.1647  152.4260 H   0  0  0  0  0  0  0  0  0  0  0  0
  144.6086  137.2272  153.9394 H   0  0  0  0  0  0  0  0  0  0  0  0
  146.0847  138.4947  153.8271 H   0  0  0  0  0  0  0  0  0  0  0  0
  144.7005  134.8510  153.9293 H   0  0  0  0  0  0  0  0  0  0  0  0
  1  2  1  0  0  0  0
  1 26  1  0  0  0  0
  1 27  1  0  0  0  0
  1 28  1  0  0  0  0
  2  3  1  0  0  0  0
  2 29  1  0  0  0  0
  2 30  1  0  0  0  0
  3 25  1  0  0  0  0
  3  4  1  0  0  0  0
  3 57  1  0  0  0  0
  4  5  1  0  0  0  0
  4 31  1  0  0  0  0
  4 32  1  0  0  0  0
  5  6  1  0  0  0  0
  5 33  1  0  0  0  0
  5 34  1  0  0  0  0
  6  7  1  0  0  0  0
  7  8  1  0  0  0  0
  7 25  1  0  0  0  0
  7 35  1  0  0  0  0
  8  9  1  0  0  0  0
  8 36  1  0  0  0  0
  8 37  1  0  0  0  0
  9 10  1  0  0  0  0
  9 38  1  0  0  0  0
  9 56  1  0  0  0  0
 10 11  1  0  0  0  0
 10 39  1  0  0  0  0
 10 40  1  0  0  0  0
 11 12  1  0  0  0  0
 11 13  1  0  0  0  0
 11 41  1  0  0  0  0
 12 42  1  0  0  0  0
 13 14  1  0  0  0  0
 13 43  1  0  0  0  0
 13 44  1  0  0  0  0
 14 24  1  0  0  0  0
 14 15  1  0  0  0  0
 15 16  2  0  0  0  0
 15 45  1  0  0  0  0
 16 17  1  0  0  0  0
 17 24  2  0  0  0  0
 17 18  1  0  0  0  0
 18 19  2  0  0  0  0
 18 46  1  0  0  0  0
 19 20  1  0  0  0  0
 19 21  1  0  0  0  0
 20 47  1  0  0  0  0
 20 48  1  0  0  0  0
 20 49  1  0  0  0  0
 21 22  1  0  0  0  0
 21 23  2  0  0  0  0
 22 50  1  0  0  0  0
 22 51  1  0  0  0  0
 22 52  1  0  0  0  0
 23 24  1  0  0  0  0
 23 53  1  0  0  0  0
 25 54  1  0  0  0  0
 25 55  1  0  0  0  0
M  CHG  1   3   1
M  CHG  1   9   1
M  END
> <s_m_source_file>
AV-unprocessed.smi

> <i_m_source_file_index>
1047

> <i_lp_mmshare_version>
43012

> <i_f3d_flags>
0

> <s_epik_input>
W0NIM11bQ0gyXU4xW0NIMl1bQ0gyXU9bQ0BIXShbQ0gyXTEpW0NIMl1bTkhdW0NIMl1bQ0BIXShbT0hdKVtDSDJdbihbY0hdbjIpYyhjMjMpW2NIXWMoW0NIM10pYyhbY0hdMylbQ0gzXQ==

> <s_epik_cmdline>
J2VwaWtfcHl0aG9uJywgJy1waCcsICc3LjAnLCAnLXRuJywgJzgnLCAnLW1hJywgJzIwMCcsICctbWV0YWxfYmluZGluZycsICctaW1hZScsICc8aW5maWxlLm1hZT4nLCAnLW9tYWUnLCAnPG91dGZpbGUubWFlPic=

> <r_epik_Ionization_Penalty>
0.528991

> <r_epik_Ionization_Penalty_Charging>
0.438567

> <r_epik_Ionization_Penalty_Neutral>
0.0904237

> <r_epik_State_Penalty>
0.533036

> <r_epik_Charging_Adjusted_Penalty>
0.971603

> <i_epik_Tot_Q>
2

> <i_epik_Tot_abs_Q>
2

> <r_epik_Metal_State_Penalty>
0.448985

> <b_epik_Metal_Only>
0

> <s_lp_Force_Field>
OPLS_2005

> <r_lp_Energy>
32.0872

> <b_lp_Chiralities_Consistent>
1

> <s_lp_Variant>
AV-unprocessed.smi:1047-1

> <Gold.Version>
5.8.1

> <Gold.Id.Protein>
6NUR|6NUR_protein|mol2

> <Gold.PLP.Fitness>
56.6633

> <Gold.PLP.PLP>
-45.8863

> <Gold.PLP.part.hbond>
-2.1778

> <Gold.PLP.part.metal>
0.0000

> <Gold.PLP.part.buried>
-1.3678

> <Gold.PLP.part.nonpolar>
-42.3892

> <Gold.PLP.part.repulsive>
0.3230

> <Gold.PLP.ligand.clash>
0.0000

> <Gold.PLP.ligand.torsion>
0.6353

> <Gold.PLP.Chemscore.Hbond>
2.9588

> <Gold.PLP.Chemscore.CHOScore>
1.0000

> <Gold.PLP.Chemscore.Metal>
0.0000

> <Gold.Chemscore.Hbonds>
donor molecule, donor type, donor heavy atom, donor atom, acceptor molecule, acceptor atom, score
      L1  H     9    38       P1 10175  2.00
      L1  H    12    42       P1 10175  1.00
      L1  C    15    45       P1  7957  0.62

> <Gold.PLP.Chemscore.Internal.Correction>
0.1714

> <Gold.Rescore>
     Score         DG    S(hbond)    S(metal)    S(lipo)     H(rot)  DE(clash)    DE(int)     intcor
     16.19     -18.25       1.81        0.00     116.51       2.70       1.38       0.68       ----

> <Gold.Chemscore.Fitness>
16.1934

> <Gold.Chemscore.DG>
-18.2495

> <Gold.Chemscore.ZeroCoef>
-5.4800

> <Gold.Chemscore.Hbond>
1.8102

> <Gold.Chemscore.Metal>
0.0000

> <Gold.Chemscore.Lipo>
116.5091

> <Gold.Chemscore.Internal_Hbond>
0.0000

> <Gold.Chemscore.DEClash>
1.3780

> <Gold.Chemscore.DEInternal>
0.6780

> <Gold.Chemscore.Rot>
2.6985

> <Gold.Chemscore.Internal.Correction>
   9.000000E+99

> <Gold.Chemscore.Hbonds>
donor molecule, donor type, donor heavy atom, donor atom, acceptor molecule, acceptor atom, score
      L1  H     9    38       P1 10175  0.99
      L1  H    12    42       P1 10175  0.39

> <Gold.Chemscore.Hbond.Weighted>
-6.0461

> <Gold.Chemscore.Metal.Weighted>
-0.0000

> <Gold.Chemscore.Lipo.Weighted>
-13.6316

> <Gold.Chemscore.Internal_Hbond.Weighted>
0.0000

> <Gold.Chemscore.DEClash.Weighted>
1.3780

> <Gold.Chemscore.DEInternal.Weighted>
0.6780

> <Gold.Chemscore.Rot.Weighted>
6.9081

> <Gold.Chemscore.Internal.Correction.Weighted>
   9.000000E+99

> <Gold.Protein.RotatedTorsions>
[ 6907 6896 6895 6894 ] final  -50.76 input  -60.11 | X-H torsion
[ 7974 7965 7964 7962 ] final   91.99 input  175.53 | X-H torsion
[ 8008 7997 7996 7995 ] final   40.10 input   59.86 | X-H torsion
[ 10167 10162 10161 10158 ] final   44.91 input  -65.29 | X-H torsion
[ 10718 10713 10712 10709 ] final   32.15 input   66.30 | X-H torsion
[ 10763 10752 10751 10750 ] final    2.81 input  -60.55 | X-H torsion
[ 11005 11000 10999 10996 ] final   74.77 input  -57.11 | X-H torsion

> <Gold.Protein.ActiveResidues>
 VAL166  LYS551  ARG553  GLY616  TRP617  ASP618  TYR619  PRO620  LYS621  CYS622 
 ASP623  PHE694  ASN695  SER759  ASP760  ASP761  ALA762  ILE779  LEU786  VAL792 
 PHE793  MET794  SER795  GLU796  ALA797  LYS798  CYS799  TRP800  GLU811  SER814 

> <Gold.Protein.RotatedAtoms>
  150.8676  134.8042  159.7129 H   0  0  0  0  0  0  0  0  0  0  0  0  # atno 6907 bound_to 6896
  152.4692  134.4999  159.9731 H   0  0  0  0  0  0  0  0  0  0  0  0  # atno 6908 bound_to 6896
  151.5093  133.3450  159.2917 H   0  0  0  0  0  0  0  0  0  0  0  0  # atno 6909 bound_to 6896
  145.4983  139.2276  143.2791 H   0  0  0  0  0  0  0  0  0  0  0  0  # atno 7974 bound_to 7965
  155.2476  140.3350  155.4285 H   0  0  0  0  0  0  0  0  0  0  0  0  # atno 8008 bound_to 7997
  156.2229  140.1817  156.7477 H   0  0  0  0  0  0  0  0  0  0  0  0  # atno 8009 bound_to 7997
  154.5853  140.0647  156.9148 H   0  0  0  0  0  0  0  0  0  0  0  0  # atno 8010 bound_to 7997
  140.3295  144.2606  150.6170 H   0  0  0  0  0  0  0  0  0  0  0  0  # atno 10167 bound_to 10162
  157.2816  130.7258  149.6560 H   0  0  0  0  0  0  0  0  0  0  0  0  # atno 10718 bound_to 10713
  153.2910  135.6948  153.7293 H   0  0  0  0  0  0  0  0  0  0  0  0  # atno 10763 bound_to 10752
  153.6244  135.3421  155.3022 H   0  0  0  0  0  0  0  0  0  0  0  0  # atno 10764 bound_to 10752
  154.8524  135.4394  154.1992 H   0  0  0  0  0  0  0  0  0  0  0  0  # atno 10765 bound_to 10752
  139.9375  134.7461  156.1189 H   0  0  0  0  0  0  0  0  0  0  0  0  # atno 11005 bound_to 11000
  146.2242  140.5782  142.9004 LP  0  0  0  0  0  0  0  0  0  0  0  0  # atno 17320 bound_to 7965
  144.7794  140.5809  143.6615 LP  0  0  0  0  0  0  0  0  0  0  0  0  # atno 17321 bound_to 7965
  140.5410  143.2223  151.8084 LP  0  0  0  0  0  0  0  0  0  0  0  0  # atno 17342 bound_to 10162
  139.4859  144.4600  151.9552 LP  0  0  0  0  0  0  0  0  0  0  0  0  # atno 17343 bound_to 10162
  155.9664  130.4336  150.5014 LP  0  0  0  0  0  0  0  0  0  0  0  0  # atno 17370 bound_to 10713
  157.2959  131.0635  151.2102 LP  0  0  0  0  0  0  0  0  0  0  0  0  # atno 17371 bound_to 10713
  141.0995  133.6682  156.2722 LP  0  0  0  0  0  0  0  0  0  0  0  0  # atno 17394 bound_to 11000
  140.6037  134.5528  157.5522 LP  0  0  0  0  0  0  0  0  0  0  0  0  # atno 17395 bound_to 11000

$$$$
