AV-unprocessed.smi:2276|AV-procd|sdf|9176|dock1
  -GOLD-   2272012393D 1   1.00000     0.00000
 Structure written by MMmdl.
 52 53  0  0  0  0  0  0  0  0  1 V2000
  151.9786  145.9030  160.1691 C   0  0  0  0  0  0  0  0  0  0  0  0
  151.9604  144.5347  159.5208 C   0  0  0  0  0  0  0  0  0  0  0  0
  152.8651  143.5325  159.9211 C   0  0  0  0  0  0  0  0  0  0  0  0
  152.7975  142.2809  159.2782 C   0  0  0  0  0  0  0  0  0  0  0  0
  153.7318  141.1541  159.6657 C   0  0  0  0  0  0  0  0  0  0  0  0
  151.9083  142.0018  158.3015 N   0  0  0  0  0  0  0  0  0  0  0  0
  151.0319  142.9588  157.9081 C   0  0  0  0  0  0  0  0  0  0  0  0
  150.0508  142.7606  156.9008 N   0  0  0  0  0  0  0  0  0  0  0  0
  149.4074  141.6237  156.5819 C   0  0  0  0  0  0  0  0  0  0  0  0
  149.6273  140.5175  157.0765 O   0  0  0  0  0  0  0  0  0  0  0  0
  148.4791  141.8400  155.6386 N   0  0  0  0  0  0  0  0  0  0  0  0
  147.5856  140.8248  155.0873 C   0  0  0  0  0  0  0  0  0  0  0  0
  148.1947  140.0728  153.8825 C   0  0  2  0  0  0  0  0  0  0  0  0
  147.1854  140.0291  152.7239 C   0  0  0  0  0  0  0  0  0  0  0  0
  148.6648  138.6491  154.2673 C   0  0  0  0  0  0  0  0  0  0  0  0
  149.8578  138.5803  155.1125 N   0  0  0  0  0  0  0  0  0  0  0  0
  151.0395  139.0422  154.3822 C   0  0  0  0  0  0  0  0  0  0  0  0
  152.3052  138.9964  155.2582 C   0  0  0  0  0  0  0  0  0  0  0  0
  152.5646  137.6437  155.7451 N   0  0  0  0  0  0  0  0  0  0  0  0
  153.7632  137.5908  156.5677 C   0  0  0  0  0  0  0  0  0  0  0  0
  151.3907  137.1720  156.4760 C   0  0  0  0  0  0  0  0  0  0  0  0
  150.1235  137.2228  155.6020 C   0  0  0  0  0  0  0  0  0  0  0  0
  151.0322  144.2412  158.5014 C   0  0  0  0  0  0  0  0  0  0  0  0
  152.6713  145.9334  161.0106 H   0  0  0  0  0  0  0  0  0  0  0  0
  150.9854  146.1627  160.5365 H   0  0  0  0  0  0  0  0  0  0  0  0
  152.2862  146.6577  159.4451 H   0  0  0  0  0  0  0  0  0  0  0  0
  153.5898  143.7168  160.7008 H   0  0  0  0  0  0  0  0  0  0  0  0
  154.5626  141.5206  160.2690 H   0  0  0  0  0  0  0  0  0  0  0  0
  154.1436  140.6738  158.7774 H   0  0  0  0  0  0  0  0  0  0  0  0
  153.1939  140.4026  160.2439 H   0  0  0  0  0  0  0  0  0  0  0  0
  149.7890  143.5857  156.3823 H   0  0  0  0  0  0  0  0  0  0  0  0
  148.3713  142.7789  155.2841 H   0  0  0  0  0  0  0  0  0  0  0  0
  147.3481  140.1192  155.8841 H   0  0  0  0  0  0  0  0  0  0  0  0
  146.6425  141.2952  154.8040 H   0  0  0  0  0  0  0  0  0  0  0  0
  149.0494  140.6562  153.5436 H   0  0  0  0  0  0  0  0  0  0  0  0
  146.2927  139.4653  152.9965 H   0  0  0  0  0  0  0  0  0  0  0  0
  147.6171  139.5618  151.8386 H   0  0  0  0  0  0  0  0  0  0  0  0
  146.8711  141.0336  152.4394 H   0  0  0  0  0  0  0  0  0  0  0  0
  147.8564  138.1124  154.7650 H   0  0  0  0  0  0  0  0  0  0  0  0
  148.8519  138.1017  153.3423 H   0  0  0  0  0  0  0  0  0  0  0  0
  151.1900  138.4319  153.4899 H   0  0  0  0  0  0  0  0  0  0  0  0
  150.8826  140.0644  154.0367 H   0  0  0  0  0  0  0  0  0  0  0  0
  153.1588  139.3489  154.6781 H   0  0  0  0  0  0  0  0  0  0  0  0
  152.1939  139.6830  156.0990 H   0  0  0  0  0  0  0  0  0  0  0  0
  153.9559  136.5715  156.9038 H   0  0  0  0  0  0  0  0  0  0  0  0
  153.6657  138.2263  157.4488 H   0  0  0  0  0  0  0  0  0  0  0  0
  154.6339  137.9239  156.0022 H   0  0  0  0  0  0  0  0  0  0  0  0
  151.5545  136.1484  156.8140 H   0  0  0  0  0  0  0  0  0  0  0  0
  151.2402  137.7760  157.3722 H   0  0  0  0  0  0  0  0  0  0  0  0
  149.2860  136.8616  156.1969 H   0  0  0  0  0  0  0  0  0  0  0  0
  150.2290  136.5346  154.7617 H   0  0  0  0  0  0  0  0  0  0  0  0
  150.3271  144.9946  158.1808 H   0  0  0  0  0  0  0  0  0  0  0  0
  1  2  1  0  0  0  0
  1 24  1  0  0  0  0
  1 25  1  0  0  0  0
  1 26  1  0  0  0  0
  2 23  1  0  0  0  0
  2  3  2  0  0  0  0
  3  4  1  0  0  0  0
  3 27  1  0  0  0  0
  4  5  1  0  0  0  0
  4  6  2  0  0  0  0
  5 28  1  0  0  0  0
  5 29  1  0  0  0  0
  5 30  1  0  0  0  0
  6  7  1  0  0  0  0
  7  8  1  0  0  0  0
  7 23  2  0  0  0  0
  8  9  1  0  0  0  0
  8 31  1  0  0  0  0
  9 10  2  0  0  0  0
  9 11  1  0  0  0  0
 11 12  1  0  0  0  0
 11 32  1  0  0  0  0
 12 13  1  0  0  0  0
 12 33  1  0  0  0  0
 12 34  1  0  0  0  0
 13 14  1  0  0  0  0
 13 15  1  0  0  0  0
 13 35  1  0  0  0  0
 14 36  1  0  0  0  0
 14 37  1  0  0  0  0
 14 38  1  0  0  0  0
 15 16  1  0  0  0  0
 15 39  1  0  0  0  0
 15 40  1  0  0  0  0
 16 22  1  0  0  0  0
 16 17  1  0  0  0  0
 17 18  1  0  0  0  0
 17 41  1  0  0  0  0
 17 42  1  0  0  0  0
 18 19  1  0  0  0  0
 18 43  1  0  0  0  0
 18 44  1  0  0  0  0
 19 20  1  0  0  0  0
 19 21  1  0  0  0  0
 20 45  1  0  0  0  0
 20 46  1  0  0  0  0
 20 47  1  0  0  0  0
 21 22  1  0  0  0  0
 21 48  1  0  0  0  0
 21 49  1  0  0  0  0
 22 50  1  0  0  0  0
 22 51  1  0  0  0  0
 23 52  1  0  0  0  0
M  END
> <s_m_source_file>
AV-unprocessed.smi

> <i_m_source_file_index>
2276

> <i_lp_mmshare_version>
43012

> <i_f3d_flags>
0

> <s_epik_input>
W0NIM11jMVtjSF1jKFtDSDNdKW5jKFtjSF0xKVtOSF1DKD1PKVtOSF1bQ0gyXVtDQEhdKFtDSDNdKVtDSDJdTjJbQ0gyXVtDSDJdTihbQ0gzXSlbQ0gyXVtDSDJdMg==

> <s_epik_cmdline>
J2VwaWtfcHl0aG9uJywgJy1waCcsICc3LjAnLCAnLXRuJywgJzgnLCAnLW1hJywgJzIwMCcsICctbWV0YWxfYmluZGluZycsICctaW1hZScsICc8aW5maWxlLm1hZT4nLCAnLW9tYWUnLCAnPG91dGZpbGUubWFlPic=

> <r_epik_Ionization_Penalty>
3.46991

> <r_epik_Ionization_Penalty_Charging>
0

> <r_epik_Ionization_Penalty_Neutral>
3.46991

> <r_epik_State_Penalty>
2.28006

> <r_epik_Charging_Adjusted_Penalty>
2.28006

> <i_epik_Tot_Q>
0

> <i_epik_Tot_abs_Q>
0

> <r_epik_Metal_State_Penalty>
2.28005

> <b_epik_Metal_Only>
0

> <s_lp_Force_Field>
OPLS_2005

> <r_lp_Energy>
36.9952

> <b_lp_Chiralities_Consistent>
1

> <s_lp_Variant>
AV-unprocessed.smi:2276-5

> <Gold.Version>
5.8.1

> <Gold.Id.Protein>
6NUR|6NUR_protein|mol2

> <Gold.PLP.Fitness>
45.7993

> <Gold.PLP.PLP>
-41.9564

> <Gold.PLP.part.hbond>
-2.7487

> <Gold.PLP.part.metal>
0.0000

> <Gold.PLP.part.buried>
-1.9050

> <Gold.PLP.part.nonpolar>
-37.8278

> <Gold.PLP.part.repulsive>
0.2381

> <Gold.PLP.ligand.clash>
0.0000

> <Gold.PLP.ligand.torsion>
1.1696

> <Gold.PLP.Chemscore.Hbond>
1.9787

> <Gold.PLP.Chemscore.CHOScore>
0.0000

> <Gold.PLP.Chemscore.Metal>
0.0000

> <Gold.Chemscore.Hbonds>
donor molecule, donor type, donor heavy atom, donor atom, acceptor molecule, acceptor atom, score
      L1  H     8    31       P1  8028  1.00
      L1  H    11    32       P1  8028  0.86
      P1  H 10752 10763       L1    19  0.07

> <Gold.PLP.Chemscore.Internal.Correction>
0.2459

> <Gold.Rescore>
     Score         DG    S(hbond)    S(metal)    S(lipo)     H(rot)  DE(clash)    DE(int)     intcor
     17.81     -21.73       1.90        0.00     119.12       1.57       0.38       3.54       ----

> <Gold.Chemscore.Fitness>
17.8102

> <Gold.Chemscore.DG>
-21.7251

> <Gold.Chemscore.ZeroCoef>
-5.4800

> <Gold.Chemscore.Hbond>
1.8955

> <Gold.Chemscore.Metal>
0.0000

> <Gold.Chemscore.Lipo>
119.1214

> <Gold.Chemscore.Internal_Hbond>
0.0000

> <Gold.Chemscore.DEClash>
0.3757

> <Gold.Chemscore.DEInternal>
3.5392

> <Gold.Chemscore.Rot>
1.5715

> <Gold.Chemscore.Internal.Correction>
   9.000000E+99

> <Gold.Chemscore.Hbonds>
donor molecule, donor type, donor heavy atom, donor atom, acceptor molecule, acceptor atom, score
      L1  H     8    31       P1  8028  0.99
      L1  H    11    32       P1  8028  0.81

> <Gold.Chemscore.Hbond.Weighted>
-6.3310

> <Gold.Chemscore.Metal.Weighted>
-0.0000

> <Gold.Chemscore.Lipo.Weighted>
-13.9372

> <Gold.Chemscore.Internal_Hbond.Weighted>
0.0000

> <Gold.Chemscore.DEClash.Weighted>
0.3757

> <Gold.Chemscore.DEInternal.Weighted>
3.5392

> <Gold.Chemscore.Rot.Weighted>
4.0231

> <Gold.Chemscore.Internal.Correction.Weighted>
   9.000000E+99

> <Gold.Protein.RotatedTorsions>
[ 6907 6896 6895 6894 ] final   -4.77 input  -60.11 | X-H torsion
[ 7974 7965 7964 7962 ] final  -37.66 input  175.53 | X-H torsion
[ 8008 7997 7996 7995 ] final -105.65 input   59.86 | X-H torsion
[ 10167 10162 10161 10158 ] final  -17.26 input  -65.29 | X-H torsion
[ 10718 10713 10712 10709 ] final -175.55 input   66.30 | X-H torsion
[ 10763 10752 10751 10750 ] final   70.37 input  -60.55 | X-H torsion
[ 11005 11000 10999 10996 ] final  -52.26 input  -57.11 | X-H torsion

> <Gold.Protein.ActiveResidues>
 VAL166  LYS551  ARG553  GLY616  TRP617  ASP618  TYR619  PRO620  LYS621  CYS622 
 ASP623  PHE694  ASN695  SER759  ASP760  ASP761  ALA762  ILE779  LEU786  VAL792 
 PHE793  MET794  SER795  GLU796  ALA797  LYS798  CYS799  TRP800  GLU811  SER814 

> <Gold.Protein.RotatedAtoms>
  151.4922  135.1058  159.9806 H   0  0  0  0  0  0  0  0  0  0  0  0  # atno 6907 bound_to 6896
  152.4736  133.8082  159.7000 H   0  0  0  0  0  0  0  0  0  0  0  0  # atno 6908 bound_to 6896
  150.8760  133.7376  159.2972 H   0  0  0  0  0  0  0  0  0  0  0  0  # atno 6909 bound_to 6896
  146.0555  140.6422  142.9022 H   0  0  0  0  0  0  0  0  0  0  0  0  # atno 7974 bound_to 7965
  154.9029  140.0412  157.1903 H   0  0  0  0  0  0  0  0  0  0  0  0  # atno 8008 bound_to 7997
  154.8425  140.2916  155.5629 H   0  0  0  0  0  0  0  0  0  0  0  0  # atno 8009 bound_to 7997
  156.2993  140.2480  156.3370 H   0  0  0  0  0  0  0  0  0  0  0  0  # atno 8010 bound_to 7997
  140.7245  143.5034  150.9841 H   0  0  0  0  0  0  0  0  0  0  0  0  # atno 10167 bound_to 10162
  156.8016  130.9554  151.3118 H   0  0  0  0  0  0  0  0  0  0  0  0  # atno 10718 bound_to 10713
  153.0338  135.5176  154.7430 H   0  0  0  0  0  0  0  0  0  0  0  0  # atno 10763 bound_to 10752
  154.6424  135.2914  155.0090 H   0  0  0  0  0  0  0  0  0  0  0  0  # atno 10764 bound_to 10752
  154.1003  135.6637  153.4919 H   0  0  0  0  0  0  0  0  0  0  0  0  # atno 10765 bound_to 10752
  141.0915  133.6632  156.3998 H   0  0  0  0  0  0  0  0  0  0  0  0  # atno 11005 bound_to 11000
  144.7146  140.4162  143.7054 LP  0  0  0  0  0  0  0  0  0  0  0  0  # atno 17320 bound_to 7965
  145.6651  139.1588  143.2786 LP  0  0  0  0  0  0  0  0  0  0  0  0  # atno 17321 bound_to 7965
  139.8744  143.7151  152.3163 LP  0  0  0  0  0  0  0  0  0  0  0  0  # atno 17342 bound_to 10162
  139.7411  144.7559  151.0650 LP  0  0  0  0  0  0  0  0  0  0  0  0  # atno 17343 bound_to 10162
  157.6551  130.8917  149.9712 LP  0  0  0  0  0  0  0  0  0  0  0  0  # atno 17370 bound_to 10713
  156.1098  130.3650  150.0070 LP  0  0  0  0  0  0  0  0  0  0  0  0  # atno 17371 bound_to 10713
  140.5241  134.6276  157.5328 LP  0  0  0  0  0  0  0  0  0  0  0  0  # atno 17394 bound_to 11000
  139.9742  134.7243  155.9982 LP  0  0  0  0  0  0  0  0  0  0  0  0  # atno 17395 bound_to 11000

$$$$
