AV-unprocessed.smi:767|AV-procd|sdf|3668|dock5
  -GOLD-   22720 1 73D 1   1.00000     0.00000
 Structure written by MMmdl.
 48 50  0  0  0  0  0  0  0  0  2 V2000
  143.8048  132.7557  148.3228 C   0  0  0  0  0  0  0  0  0  0  0  0
  144.2519  133.0520  149.7385 C   0  0  0  0  0  0  0  0  0  0  0  0
  145.2879  132.3290  150.3676 C   0  0  0  0  0  0  0  0  0  0  0  0
  145.6482  132.6540  151.6917 C   0  0  0  0  0  0  0  0  0  0  0  0
  144.9661  133.6947  152.3604 C   0  0  0  0  0  0  0  0  0  0  0  0
  145.2977  134.0405  153.8021 C   0  0  0  0  0  0  0  0  0  0  0  0
  146.8003  133.9364  154.1326 C   0  0  0  0  0  0  0  0  0  0  0  0
  147.5253  135.1717  153.8422 N   0  0  0  0  0  0  0  0  0  0  0  0
  147.7446  136.1666  154.7143 C   0  0  0  0  0  0  0  0  0  0  0  0
  147.3455  136.1654  155.8792 O   0  0  0  0  0  0  0  0  0  0  0  0
  148.4683  137.1546  154.1730 N   0  0  0  0  0  0  0  0  0  0  0  0
  148.9065  138.3393  154.9026 C   0  0  1  0  0  0  0  0  0  0  0  0
  150.1815  138.9602  154.3115 C   0  0  2  0  0  0  0  0  0  0  0  0
  151.4553  138.9577  155.1117 C   0  0  0  0  0  0  0  0  0  0  0  0
  151.4331  140.3289  155.7933 C   0  0  0  0  0  0  0  0  0  0  0  0
  150.0618  140.7199  155.7763 O   0  0  0  0  0  0  0  0  0  0  0  0
  149.5141  140.3106  154.5252 C   0  0  2  0  0  0  0  0  0  0  0  0
  148.1267  139.6351  154.5650 C   0  0  0  0  0  0  0  0  0  0  0  0
  147.3660  139.6781  153.2319 C   0  0  0  0  0  0  0  0  0  0  0  0
  147.1630  140.1421  155.6390 C   0  0  0  0  0  0  0  0  0  0  0  0
  143.9454  134.3896  151.6767 C   0  0  0  0  0  0  0  0  0  0  0  0
  143.6283  134.0464  150.4093 N   0  3  0  0  0  0  0  0  0  0  0  0
  144.1420  131.7682  148.0060 H   0  0  0  0  0  0  0  0  0  0  0  0
  144.2148  133.4952  147.6345 H   0  0  0  0  0  0  0  0  0  0  0  0
  142.7170  132.7810  148.2487 H   0  0  0  0  0  0  0  0  0  0  0  0
  145.7971  131.5314  149.8468 H   0  0  0  0  0  0  0  0  0  0  0  0
  146.4296  132.0998  152.1907 H   0  0  0  0  0  0  0  0  0  0  0  0
  144.9442  135.0493  154.0195 H   0  0  0  0  0  0  0  0  0  0  0  0
  144.7334  133.3757  154.4570 H   0  0  0  0  0  0  0  0  0  0  0  0
  146.9243  133.7159  155.1930 H   0  0  0  0  0  0  0  0  0  0  0  0
  147.2479  133.0974  153.5968 H   0  0  0  0  0  0  0  0  0  0  0  0
  147.8943  135.2716  152.9077 H   0  0  0  0  0  0  0  0  0  0  0  0
  148.7516  137.0762  153.2072 H   0  0  0  0  0  0  0  0  0  0  0  0
  148.9979  138.1817  155.9800 H   0  0  0  0  0  0  0  0  0  0  0  0
  150.3075  138.7376  153.2503 H   0  0  0  0  0  0  0  0  0  0  0  0
  151.4500  138.1556  155.8504 H   0  0  0  0  0  0  0  0  0  0  0  0
  152.3419  138.8346  154.4892 H   0  0  0  0  0  0  0  0  0  0  0  0
  151.8295  140.3001  156.8084 H   0  0  0  0  0  0  0  0  0  0  0  0
  152.0145  141.0517  155.2192 H   0  0  0  0  0  0  0  0  0  0  0  0
  149.6820  141.0248  153.7175 H   0  0  0  0  0  0  0  0  0  0  0  0
  147.0467  140.6921  152.9893 H   0  0  0  0  0  0  0  0  0  0  0  0
  146.4731  139.0525  153.2559 H   0  0  0  0  0  0  0  0  0  0  0  0
  147.9825  139.3319  152.4020 H   0  0  0  0  0  0  0  0  0  0  0  0
  146.8591  141.1720  155.4496 H   0  0  0  0  0  0  0  0  0  0  0  0
  147.6156  140.1163  156.6305 H   0  0  0  0  0  0  0  0  0  0  0  0
  146.2597  139.5331  155.6848 H   0  0  0  0  0  0  0  0  0  0  0  0
  143.3640  135.1911  152.1083 H   0  0  0  0  0  0  0  0  0  0  0  0
  142.8796  134.5562  149.9398 H   0  0  0  0  0  0  0  0  0  0  0  0
  1  2  1  0  0  0  0
  1 23  1  0  0  0  0
  1 24  1  0  0  0  0
  1 25  1  0  0  0  0
  2 22  1  0  0  0  0
  2  3  2  0  0  0  0
  3  4  1  0  0  0  0
  3 26  1  0  0  0  0
  4  5  2  0  0  0  0
  4 27  1  0  0  0  0
  5  6  1  0  0  0  0
  5 21  1  0  0  0  0
  6  7  1  0  0  0  0
  6 28  1  0  0  0  0
  6 29  1  0  0  0  0
  7  8  1  0  0  0  0
  7 30  1  0  0  0  0
  7 31  1  0  0  0  0
  8  9  1  0  0  0  0
  8 32  1  0  0  0  0
  9 10  2  0  0  0  0
  9 11  1  0  0  0  0
 11 12  1  0  0  0  0
 11 33  1  0  0  0  0
 12 18  1  0  0  0  0
 12 13  1  0  0  0  0
 12 34  1  0  0  0  0
 13 17  1  0  0  0  0
 13 14  1  0  0  0  0
 13 35  1  0  0  0  0
 14 15  1  0  0  0  0
 14 36  1  0  0  0  0
 14 37  1  0  0  0  0
 15 16  1  0  0  0  0
 15 38  1  0  0  0  0
 15 39  1  0  0  0  0
 16 17  1  0  0  0  0
 17 18  1  0  0  0  0
 17 40  1  0  0  0  0
 18 19  1  0  0  0  0
 18 20  1  0  0  0  0
 19 41  1  0  0  0  0
 19 42  1  0  0  0  0
 19 43  1  0  0  0  0
 20 44  1  0  0  0  0
 20 45  1  0  0  0  0
 20 46  1  0  0  0  0
 21 22  2  0  0  0  0
 21 47  1  0  0  0  0
 22 48  1  0  0  0  0
M  CHG  1  22   1
M  END
> <s_m_source_file>
AV-unprocessed.smi

> <i_m_source_file_index>
767

> <i_lp_mmshare_version>
43012

> <i_f3d_flags>
0

> <s_epik_input>
W0NIM11jMVtjSF1bY0hdYyhbY0hdbjEpW0NIMl1bQ0gyXVtOSF1DKD1PKVtOSF1bQ0BIXTJDKFtDSDNdKShbQ0gzXSlbQ0BIXShbQ0BASF0yMylPW0NIMl1bQ0gyXTM=

> <s_epik_cmdline>
J2VwaWtfcHl0aG9uJywgJy1waCcsICc3LjAnLCAnLXRuJywgJzgnLCAnLW1hJywgJzIwMCcsICctbWV0YWxfYmluZGluZycsICctaW1hZScsICc8aW5maWxlLm1hZT4nLCAnLW9tYWUnLCAnPG91dGZpbGUubWFlPic=

> <r_epik_Ionization_Penalty>
1.41853

> <r_epik_Ionization_Penalty_Charging>
1.41848

> <r_epik_Ionization_Penalty_Neutral>
5.17407e-05

> <r_epik_State_Penalty>
1.50205

> <r_epik_Charging_Adjusted_Penalty>
2.92053

> <i_epik_Tot_Q>
1

> <i_epik_Tot_abs_Q>
1

> <r_epik_Metal_State_Penalty>
1.5544

> <b_epik_Metal_Only>
0

> <s_lp_Force_Field>
OPLS_2005

> <r_lp_Energy>
39.2779

> <b_lp_Chiralities_Consistent>
1

> <s_lp_Variant>
AV-unprocessed.smi:767-12

> <Gold.Version>
5.8.1

> <Gold.Id.Protein>
6NUR|6NUR_protein|mol2

> <Gold.PLP.Fitness>
46.2125

> <Gold.PLP.PLP>
-36.1623

> <Gold.PLP.part.hbond>
-2.9540

> <Gold.PLP.part.metal>
0.0000

> <Gold.PLP.part.buried>
-3.6124

> <Gold.PLP.part.nonpolar>
-29.4881

> <Gold.PLP.part.repulsive>
0.1024

> <Gold.PLP.ligand.clash>
0.0000

> <Gold.PLP.ligand.torsion>
0.9447

> <Gold.PLP.Chemscore.Hbond>
3.9200

> <Gold.PLP.Chemscore.CHOScore>
0.0000

> <Gold.PLP.Chemscore.Metal>
0.0000

> <Gold.Chemscore.Hbonds>
donor molecule, donor type, donor heavy atom, donor atom, acceptor molecule, acceptor atom, score
      L1  H     8    32       P1  7948  0.93
      L1  H    11    33       P1  7948  1.00
      L1  H    22    48       P1 10186  1.66

> <Gold.PLP.Chemscore.Internal.Correction>
0.1796

> <Gold.Rescore>
     Score         DG    S(hbond)    S(metal)    S(lipo)     H(rot)  DE(clash)    DE(int)     intcor
     21.62     -22.62       2.81        0.00      99.72       1.52       0.05       0.95       ----

> <Gold.Chemscore.Fitness>
21.6214

> <Gold.Chemscore.DG>
-22.6214

> <Gold.Chemscore.ZeroCoef>
-5.4800

> <Gold.Chemscore.Hbond>
2.8063

> <Gold.Chemscore.Metal>
0.0000

> <Gold.Chemscore.Lipo>
99.7244

> <Gold.Chemscore.Internal_Hbond>
0.0000

> <Gold.Chemscore.DEClash>
0.0512

> <Gold.Chemscore.DEInternal>
0.9488

> <Gold.Chemscore.Rot>
1.5233

> <Gold.Chemscore.Internal.Correction>
   9.000000E+99

> <Gold.Chemscore.Hbonds>
donor molecule, donor type, donor heavy atom, donor atom, acceptor molecule, acceptor atom, score
      L1  H     8    32       P1  7948  0.89
      L1  H    11    33       P1  7948  0.95
      L1  H    22    48       P1 10186  0.71

> <Gold.Chemscore.Hbond.Weighted>
-9.3732

> <Gold.Chemscore.Metal.Weighted>
-0.0000

> <Gold.Chemscore.Lipo.Weighted>
-11.6678

> <Gold.Chemscore.Internal_Hbond.Weighted>
0.0000

> <Gold.Chemscore.DEClash.Weighted>
0.0512

> <Gold.Chemscore.DEInternal.Weighted>
0.9488

> <Gold.Chemscore.Rot.Weighted>
3.8995

> <Gold.Chemscore.Internal.Correction.Weighted>
   9.000000E+99

> <Gold.Protein.RotatedTorsions>
[ 6907 6896 6895 6894 ] final   74.33 input  -60.11 | X-H torsion
[ 7974 7965 7964 7962 ] final  170.24 input  175.53 | X-H torsion
[ 8008 7997 7996 7995 ] final -158.28 input   59.86 | X-H torsion
[ 10167 10162 10161 10158 ] final -153.62 input  -65.29 | X-H torsion
[ 10718 10713 10712 10709 ] final  172.97 input   66.30 | X-H torsion
[ 10763 10752 10751 10750 ] final  120.76 input  -60.55 | X-H torsion
[ 11005 11000 10999 10996 ] final  -42.29 input  -57.11 | X-H torsion

> <Gold.Protein.ActiveResidues>
 VAL166  LYS551  ARG553  GLY616  TRP617  ASP618  TYR619  PRO620  LYS621  CYS622 
 ASP623  PHE694  ASN695  SER759  ASP760  ASP761  ALA762  ILE779  LEU786  VAL792 
 PHE793  MET794  SER795  GLU796  ALA797  LYS798  CYS799  TRP800  GLU811  SER814 

> <Gold.Protein.RotatedAtoms>
  152.4970  134.4288  159.9504 H   0  0  0  0  0  0  0  0  0  0  0  0  # atno 6907 bound_to 6896
  151.4265  133.3676  159.2771 H   0  0  0  0  0  0  0  0  0  0  0  0  # atno 6908 bound_to 6896
  150.9185  134.8625  159.7533 H   0  0  0  0  0  0  0  0  0  0  0  0  # atno 6909 bound_to 6896
  144.7330  139.9172  143.6418 H   0  0  0  0  0  0  0  0  0  0  0  0  # atno 7974 bound_to 7965
  155.7452  140.0819  157.2227 H   0  0  0  0  0  0  0  0  0  0  0  0  # atno 8008 bound_to 7997
  154.4018  140.1570  156.2716 H   0  0  0  0  0  0  0  0  0  0  0  0  # atno 8009 bound_to 7997
  155.8983  140.3411  155.6010 H   0  0  0  0  0  0  0  0  0  0  0  0  # atno 8010 bound_to 7997
  139.7081  143.9153  152.2457 H   0  0  0  0  0  0  0  0  0  0  0  0  # atno 10167 bound_to 10162
  156.9711  131.0090  151.2905 H   0  0  0  0  0  0  0  0  0  0  0  0  # atno 10718 bound_to 10713
  153.6036  135.3443  155.2954 H   0  0  0  0  0  0  0  0  0  0  0  0  # atno 10763 bound_to 10752
  154.8631  135.4233  154.2386 H   0  0  0  0  0  0  0  0  0  0  0  0  # atno 10764 bound_to 10752
  153.3220  135.7039  153.7094 H   0  0  0  0  0  0  0  0  0  0  0  0  # atno 10765 bound_to 10752
  141.0305  133.6822  156.2574 H   0  0  0  0  0  0  0  0  0  0  0  0  # atno 11005 bound_to 11000
  146.0956  139.3949  143.0378 LP  0  0  0  0  0  0  0  0  0  0  0  0  # atno 17320 bound_to 7965
  145.7650  140.9920  143.1180 LP  0  0  0  0  0  0  0  0  0  0  0  0  # atno 17321 bound_to 7965
  139.9014  144.6909  150.8661 LP  0  0  0  0  0  0  0  0  0  0  0  0  # atno 17342 bound_to 10162
  140.7726  143.3511  151.2013 LP  0  0  0  0  0  0  0  0  0  0  0  0  # atno 17343 bound_to 10162
  157.5591  130.8234  149.8243 LP  0  0  0  0  0  0  0  0  0  0  0  0  # atno 17370 bound_to 10713
  156.0282  130.3773  150.1762 LP  0  0  0  0  0  0  0  0  0  0  0  0  # atno 17371 bound_to 10713
  140.6415  134.5161  157.5570 LP  0  0  0  0  0  0  0  0  0  0  0  0  # atno 17394 bound_to 11000
  139.9205  134.8159  156.1228 LP  0  0  0  0  0  0  0  0  0  0  0  0  # atno 17395 bound_to 11000

$$$$
