AV-unprocessed.smi:2568|AV-procd|sdf|10090|dock5
  -GOLD-   2272014113D 1   1.00000     0.00000
 Structure written by MMmdl.
 24 25  0  0  0  0  0  0  0  0  1 V2000
  153.7865  137.4916  157.6939 C   0  0  0  0  0  0  0  0  0  0  0  0
  152.7926  138.5783  157.9279 C   0  0  0  0  0  0  0  0  0  0  0  0
  151.4778  138.3654  157.8549 N   0  0  0  0  0  0  0  0  0  0  0  0
  150.8239  139.5199  158.1024 N   0  0  0  0  0  0  0  0  0  0  0  0
  151.8281  140.3659  158.3319 C   0  0  0  0  0  0  0  0  0  0  0  0
  151.5624  141.8119  158.6174 C   0  0  2  0  0  0  0  0  0  0  0  0
  150.9113  142.5301  157.4190 C   0  0  0  0  0  0  0  0  0  0  0  0
  150.7616  143.9567  157.7034 N   0  0  0  0  0  0  0  0  0  0  0  0
  152.0410  144.5576  158.0782 C   0  0  0  0  0  0  0  0  0  0  0  0
  152.6704  143.7890  159.2544 C   0  0  0  0  0  0  0  0  0  0  0  0
  152.8210  142.4175  158.9043 O   0  0  0  0  0  0  0  0  0  0  0  0
  153.0876  139.8401  158.2194 N   0  0  0  0  0  0  0  0  0  0  0  0
  151.0057  137.4978  157.6436 H   0  0  0  0  0  0  0  0  0  0  0  0
  154.7990  137.8558  157.8711 H   0  0  0  0  0  0  0  0  0  0  0  0
  153.7184  137.1377  156.6651 H   0  0  0  0  0  0  0  0  0  0  0  0
  153.5943  136.6560  158.3672 H   0  0  0  0  0  0  0  0  0  0  0  0
  150.9180  141.8830  159.4964 H   0  0  0  0  0  0  0  0  0  0  0  0
  151.5276  142.3943  156.5293 H   0  0  0  0  0  0  0  0  0  0  0  0
  149.9393  142.0887  157.1980 H   0  0  0  0  0  0  0  0  0  0  0  0
  150.3904  144.4296  156.8856 H   0  0  0  0  0  0  0  0  0  0  0  0
  152.7216  144.5435  157.2260 H   0  0  0  0  0  0  0  0  0  0  0  0
  151.8980  145.6042  158.3478 H   0  0  0  0  0  0  0  0  0  0  0  0
  153.6516  144.2018  159.4895 H   0  0  0  0  0  0  0  0  0  0  0  0
  152.0611  143.8835  160.1548 H   0  0  0  0  0  0  0  0  0  0  0  0
  1 14  1  0  0  0  0
  1 15  1  0  0  0  0
  1 16  1  0  0  0  0
  1  2  1  0  0  0  0
  2 12  2  0  0  0  0
  2  3  1  0  0  0  0
  3  4  1  0  0  0  0
  3 13  1  0  0  0  0
  4  5  2  0  0  0  0
  5 12  1  0  0  0  0
  5  6  1  0  0  0  0
  6 11  1  0  0  0  0
  6  7  1  0  0  0  0
  6 17  1  0  0  0  0
  7  8  1  0  0  0  0
  7 18  1  0  0  0  0
  7 19  1  0  0  0  0
  8  9  1  0  0  0  0
  8 20  1  0  0  0  0
  9 10  1  0  0  0  0
  9 21  1  0  0  0  0
  9 22  1  0  0  0  0
 10 11  1  0  0  0  0
 10 23  1  0  0  0  0
 10 24  1  0  0  0  0
M  END
> <s_m_source_file>
AV-unprocessed.smi

> <i_m_source_file_index>
2568

> <i_lp_mmshare_version>
43012

> <i_f3d_flags>
0

> <s_epik_input>
W0NIM11jMW5bbkhdYyhuMSlbQ0BASF0yW0NIMl1bTkhdW0NIMl1bQ0gyXU8y

> <s_epik_cmdline>
J2VwaWtfcHl0aG9uJywgJy1waCcsICc3LjAnLCAnLXRuJywgJzgnLCAnLW1hJywgJzIwMCcsICctbWV0YWxfYmluZGluZycsICctaW1hZScsICc8aW5maWxlLm1hZT4nLCAnLW9tYWUnLCAnPG91dGZpbGUubWFlPic=

> <r_epik_Ionization_Penalty>
1.10101

> <r_epik_Ionization_Penalty_Charging>
0

> <r_epik_Ionization_Penalty_Neutral>
1.10101

> <r_epik_State_Penalty>
1.26524

> <r_epik_Charging_Adjusted_Penalty>
1.26524

> <i_epik_Tot_Q>
0

> <i_epik_Tot_abs_Q>
0

> <r_epik_Metal_State_Penalty>
1.56429

> <b_epik_Metal_Only>
0

> <s_lp_Force_Field>
OPLS_2005

> <r_lp_Energy>
12.1745

> <b_lp_Chiralities_Consistent>
1

> <s_lp_Variant>
AV-unprocessed.smi:2568-3

> <Gold.Version>
5.8.1

> <Gold.Id.Protein>
6NUR|6NUR_protein|mol2

> <Gold.PLP.Fitness>
26.6237

> <Gold.PLP.PLP>
-20.7700

> <Gold.PLP.part.hbond>
-2.0000

> <Gold.PLP.part.metal>
0.0000

> <Gold.PLP.part.buried>
-3.7368

> <Gold.PLP.part.nonpolar>
-15.5193

> <Gold.PLP.part.repulsive>
0.0471

> <Gold.PLP.ligand.clash>
0.0000

> <Gold.PLP.ligand.torsion>
0.0674

> <Gold.PLP.Chemscore.Hbond>
1.9920

> <Gold.PLP.Chemscore.CHOScore>
0.0000

> <Gold.PLP.Chemscore.Metal>
0.0000

> <Gold.Chemscore.Hbonds>
donor molecule, donor type, donor heavy atom, donor atom, acceptor molecule, acceptor atom, score
      L1  H     8    20       P1  8028  0.99
      P1  H  7997  8010       L1    12  0.95

> <Gold.PLP.Chemscore.Internal.Correction>
0.0126

> <Gold.Rescore>
     Score         DG    S(hbond)    S(metal)    S(lipo)     H(rot)  DE(clash)    DE(int)     intcor
     14.20     -14.32       1.76        0.00      47.31       1.00       0.00       0.11       ----

> <Gold.Chemscore.Fitness>
14.2038

> <Gold.Chemscore.DG>
-14.3196

> <Gold.Chemscore.ZeroCoef>
-5.4800

> <Gold.Chemscore.Hbond>
1.7560

> <Gold.Chemscore.Metal>
0.0000

> <Gold.Chemscore.Lipo>
47.3054

> <Gold.Chemscore.Internal_Hbond>
0.0000

> <Gold.Chemscore.DEClash>
0.0048

> <Gold.Chemscore.DEInternal>
0.1110

> <Gold.Chemscore.Rot>
1.0000

> <Gold.Chemscore.Internal.Correction>
   9.000000E+99

> <Gold.Chemscore.Hbonds>
donor molecule, donor type, donor heavy atom, donor atom, acceptor molecule, acceptor atom, score
      L1  H     8    20       P1  8028  0.85
      P1  H  7997  8010       L1    12  0.21

> <Gold.Chemscore.Hbond.Weighted>
-5.8649

> <Gold.Chemscore.Metal.Weighted>
-0.0000

> <Gold.Chemscore.Lipo.Weighted>
-5.5347

> <Gold.Chemscore.Internal_Hbond.Weighted>
0.0000

> <Gold.Chemscore.DEClash.Weighted>
0.0048

> <Gold.Chemscore.DEInternal.Weighted>
0.1110

> <Gold.Chemscore.Rot.Weighted>
2.5600

> <Gold.Chemscore.Internal.Correction.Weighted>
   9.000000E+99

> <Gold.Protein.RotatedTorsions>
[ 6907 6896 6895 6894 ] final  145.00 input  -60.11 | X-H torsion
[ 7974 7965 7964 7962 ] final  123.55 input  175.53 | X-H torsion
[ 8008 7997 7996 7995 ] final   24.92 input   59.86 | X-H torsion
[ 10167 10162 10161 10158 ] final   -9.50 input  -65.29 | X-H torsion
[ 10718 10713 10712 10709 ] final -144.03 input   66.30 | X-H torsion
[ 10763 10752 10751 10750 ] final   48.99 input  -60.55 | X-H torsion
[ 11005 11000 10999 10996 ] final  176.45 input  -57.11 | X-H torsion

> <Gold.Protein.ActiveResidues>
 VAL166  LYS551  ARG553  GLY616  TRP617  ASP618  TYR619  PRO620  LYS621  CYS622 
 ASP623  PHE694  ASN695  SER759  ASP760  ASP761  ALA762  ILE779  LEU786  VAL792 
 PHE793  MET794  SER795  GLU796  ALA797  LYS798  CYS799  TRP800  GLU811  SER814 

> <Gold.Protein.RotatedAtoms>
  152.1865  133.4743  159.4985 H   0  0  0  0  0  0  0  0  0  0  0  0  # atno 6907 bound_to 6896
  150.6943  134.1767  159.4242 H   0  0  0  0  0  0  0  0  0  0  0  0  # atno 6908 bound_to 6896
  151.9680  135.0090  160.0602 H   0  0  0  0  0  0  0  0  0  0  0  0  # atno 6909 bound_to 6896
  145.0946  139.3562  143.4843 H   0  0  0  0  0  0  0  0  0  0  0  0  # atno 7974 bound_to 7965
  155.0038  140.3128  155.4857 H   0  0  0  0  0  0  0  0  0  0  0  0  # atno 8008 bound_to 7997
  156.2920  140.2227  156.5090 H   0  0  0  0  0  0  0  0  0  0  0  0  # atno 8009 bound_to 7997
  154.7595  140.0460  157.0949 H   0  0  0  0  0  0  0  0  0  0  0  0  # atno 8010 bound_to 7997
  140.7089  143.5851  150.8951 H   0  0  0  0  0  0  0  0  0  0  0  0  # atno 10167 bound_to 10162
  156.3652  130.7759  151.1932 H   0  0  0  0  0  0  0  0  0  0  0  0  # atno 10718 bound_to 10713
  152.9789  135.5926  154.4015 H   0  0  0  0  0  0  0  0  0  0  0  0  # atno 10763 bound_to 10752
  154.3660  135.2767  155.2295 H   0  0  0  0  0  0  0  0  0  0  0  0  # atno 10764 bound_to 10752
  154.4271  135.6045  153.6100 H   0  0  0  0  0  0  0  0  0  0  0  0  # atno 10765 bound_to 10752
  140.3732  134.7011  157.4405 H   0  0  0  0  0  0  0  0  0  0  0  0  # atno 11005 bound_to 11000
  146.3531  140.0796  142.8618 LP  0  0  0  0  0  0  0  0  0  0  0  0  # atno 17320 bound_to 7965
  145.1026  140.9355  143.4704 LP  0  0  0  0  0  0  0  0  0  0  0  0  # atno 17321 bound_to 7965
  139.9577  143.6199  152.3011 LP  0  0  0  0  0  0  0  0  0  0  0  0  # atno 17342 bound_to 10162
  139.6741  144.7659  151.1729 LP  0  0  0  0  0  0  0  0  0  0  0  0  # atno 17343 bound_to 10162
  157.7478  131.0388  150.4522 LP  0  0  0  0  0  0  0  0  0  0  0  0  # atno 17370 bound_to 10713
  156.4740  130.4059  149.6501 LP  0  0  0  0  0  0  0  0  0  0  0  0  # atno 17371 bound_to 10713
  140.0535  134.6096  155.8833 LP  0  0  0  0  0  0  0  0  0  0  0  0  # atno 17394 bound_to 11000
  141.1948  133.6584  156.5610 LP  0  0  0  0  0  0  0  0  0  0  0  0  # atno 17395 bound_to 11000

$$$$
