AV-unprocessed.smi:2334|AV-procd|sdf|9322|dock3
  -GOLD-   2272012543D 1   1.00000     0.00000
 Structure written by MMmdl.
 50 52  0  0  0  0  0  0  0  0  2 V2000
  146.2682  142.8899  154.5330 C   0  0  0  0  0  0  0  0  0  0  0  0
  146.9425  141.5442  154.3221 C   0  0  0  0  0  0  0  0  0  0  0  0
  146.2474  140.6355  153.6020 N   0  3  0  0  0  0  0  0  0  0  0  0
  146.6987  139.3949  153.3210 C   0  0  0  0  0  0  0  0  0  0  0  0
  145.8571  138.5665  152.5653 N   0  0  0  0  0  0  0  0  0  0  0  0
  145.5999  137.2669  153.1623 C   0  0  0  0  0  0  0  0  0  0  0  0
  145.0450  136.3947  152.0323 C   0  0  0  0  0  0  0  0  0  0  0  0
  145.4832  137.0945  150.7402 C   0  0  0  0  0  0  0  0  0  0  0  0
  146.3000  138.3018  151.2065 C   0  0  0  0  0  0  0  0  0  0  0  0
  147.9701  139.0039  153.7965 C   0  0  0  0  0  0  0  0  0  0  0  0
  148.7358  139.9142  154.5513 C   0  0  0  0  0  0  0  0  0  0  0  0
  148.2201  141.2041  154.8361 C   0  0  0  0  0  0  0  0  0  0  0  0
  148.9557  142.1753  155.5718 N   0  0  0  0  0  0  0  0  0  0  0  0
  149.8471  141.9748  156.5579 C   0  0  0  0  0  0  0  0  0  0  0  0
  150.1524  140.8737  157.0146 O   0  0  0  0  0  0  0  0  0  0  0  0
  150.3496  143.1427  156.9946 N   0  0  0  0  0  0  0  0  0  0  0  0
  151.3423  143.3973  158.0499 C   0  0  0  0  0  0  0  0  0  0  0  0
  152.1980  144.5764  157.5379 C   0  0  0  0  0  0  0  0  0  0  0  0
  150.6463  143.7769  159.3823 C   0  0  0  0  0  0  0  0  0  0  0  0
  151.6314  143.8174  160.5648 C   0  0  0  0  0  0  0  0  0  0  0  0
  152.3189  142.5770  160.6712 O   0  0  0  0  0  0  0  0  0  0  0  0
  153.1203  142.2904  159.5318 C   0  0  0  0  0  0  0  0  0  0  0  0
  152.2325  142.1494  158.2823 C   0  0  0  0  0  0  0  0  0  0  0  0
  146.8680  143.5830  155.1213 H   0  0  0  0  0  0  0  0  0  0  0  0
  145.3181  142.7525  155.0500 H   0  0  0  0  0  0  0  0  0  0  0  0
  146.0636  143.3603  153.5708 H   0  0  0  0  0  0  0  0  0  0  0  0
  146.5235  136.8358  153.5513 H   0  0  0  0  0  0  0  0  0  0  0  0
  144.8930  137.3484  153.9885 H   0  0  0  0  0  0  0  0  0  0  0  0
  145.4199  135.3728  152.0970 H   0  0  0  0  0  0  0  0  0  0  0  0
  143.9563  136.3526  152.0819 H   0  0  0  0  0  0  0  0  0  0  0  0
  146.0645  136.4411  150.0888 H   0  0  0  0  0  0  0  0  0  0  0  0
  144.6059  137.4246  150.1825 H   0  0  0  0  0  0  0  0  0  0  0  0
  146.1369  139.1678  150.5640 H   0  0  0  0  0  0  0  0  0  0  0  0
  147.3637  138.0628  151.1850 H   0  0  0  0  0  0  0  0  0  0  0  0
  148.3630  138.0197  153.5879 H   0  0  0  0  0  0  0  0  0  0  0  0
  149.7146  139.6078  154.8867 H   0  0  0  0  0  0  0  0  0  0  0  0
  148.7279  143.1374  155.3683 H   0  0  0  0  0  0  0  0  0  0  0  0
  150.0045  143.9722  156.5342 H   0  0  0  0  0  0  0  0  0  0  0  0
  152.9780  144.8643  158.2415 H   0  0  0  0  0  0  0  0  0  0  0  0
  151.5859  145.4612  157.3592 H   0  0  0  0  0  0  0  0  0  0  0  0
  152.6913  144.3275  156.5975 H   0  0  0  0  0  0  0  0  0  0  0  0
  150.1361  144.7363  159.2880 H   0  0  0  0  0  0  0  0  0  0  0  0
  149.8737  143.0510  159.6335 H   0  0  0  0  0  0  0  0  0  0  0  0
  152.3447  144.6361  160.4640 H   0  0  0  0  0  0  0  0  0  0  0  0
  151.0875  143.9931  161.4929 H   0  0  0  0  0  0  0  0  0  0  0  0
  153.8779  143.0635  159.3999 H   0  0  0  0  0  0  0  0  0  0  0  0
  153.6566  141.3582  159.7109 H   0  0  0  0  0  0  0  0  0  0  0  0
  151.6198  141.2599  158.4242 H   0  0  0  0  0  0  0  0  0  0  0  0
  152.8496  141.9509  157.4053 H   0  0  0  0  0  0  0  0  0  0  0  0
  145.3284  140.9037  153.2493 H   0  0  0  0  0  0  0  0  0  0  0  0
  1  2  1  0  0  0  0
  1 24  1  0  0  0  0
  1 25  1  0  0  0  0
  1 26  1  0  0  0  0
  2 12  1  0  0  0  0
  2  3  2  0  0  0  0
  3  4  1  0  0  0  0
  3 50  1  0  0  0  0
  4  5  1  0  0  0  0
  4 10  2  0  0  0  0
  5  9  1  0  0  0  0
  5  6  1  0  0  0  0
  6  7  1  0  0  0  0
  6 27  1  0  0  0  0
  6 28  1  0  0  0  0
  7  8  1  0  0  0  0
  7 29  1  0  0  0  0
  7 30  1  0  0  0  0
  8  9  1  0  0  0  0
  8 31  1  0  0  0  0
  8 32  1  0  0  0  0
  9 33  1  0  0  0  0
  9 34  1  0  0  0  0
 10 11  1  0  0  0  0
 10 35  1  0  0  0  0
 11 12  2  0  0  0  0
 11 36  1  0  0  0  0
 12 13  1  0  0  0  0
 13 14  1  0  0  0  0
 13 37  1  0  0  0  0
 14 15  2  0  0  0  0
 14 16  1  0  0  0  0
 16 17  1  0  0  0  0
 16 38  1  0  0  0  0
 17 23  1  0  0  0  0
 17 18  1  0  0  0  0
 17 19  1  0  0  0  0
 18 39  1  0  0  0  0
 18 40  1  0  0  0  0
 18 41  1  0  0  0  0
 19 20  1  0  0  0  0
 19 42  1  0  0  0  0
 19 43  1  0  0  0  0
 20 21  1  0  0  0  0
 20 44  1  0  0  0  0
 20 45  1  0  0  0  0
 21 22  1  0  0  0  0
 22 23  1  0  0  0  0
 22 46  1  0  0  0  0
 22 47  1  0  0  0  0
 23 48  1  0  0  0  0
 23 49  1  0  0  0  0
M  CHG  1   3   1
M  END
> <s_m_source_file>
AV-unprocessed.smi

> <i_m_source_file_index>
2334

> <i_lp_mmshare_version>
43012

> <i_f3d_flags>
0

> <s_epik_input>
W0NIMl0xW0NIMl1bQ0gyXVtDSDJdTjFjKG5jMltDSDNdKVtjSF1bY0hdYzJbTkhdQyg9TylbTkhdQzMoW0NIM10pW0NIMl1bQ0gyXU9bQ0gyXVtDSDJdMw==

> <s_epik_cmdline>
J2VwaWtfcHl0aG9uJywgJy1waCcsICc3LjAnLCAnLXRuJywgJzgnLCAnLW1hJywgJzIwMCcsICctbWV0YWxfYmluZGluZycsICctaW1hZScsICc8aW5maWxlLm1hZT4nLCAnLW9tYWUnLCAnPG91dGZpbGUubWFlPic=

> <r_lp_tautomer_probability>
0.999994

> <r_epik_Ionization_Penalty>
0.526488

> <r_epik_Ionization_Penalty_Charging>
0.526468

> <r_epik_Ionization_Penalty_Neutral>
1.9901e-05

> <r_epik_State_Penalty>
0.534906

> <r_epik_Charging_Adjusted_Penalty>
1.06137

> <i_epik_Tot_Q>
1

> <i_epik_Tot_abs_Q>
1

> <r_epik_Metal_State_Penalty>
0.740533

> <b_epik_Metal_Only>
0

> <s_lp_Force_Field>
OPLS_2005

> <r_lp_Energy>
48.5671

> <b_lp_Chiralities_Consistent>
1

> <s_lp_Variant>
AV-unprocessed.smi:2334-2

> <Gold.Version>
5.8.1

> <Gold.Id.Protein>
6NUR|6NUR_protein|mol2

> <Gold.PLP.Fitness>
52.1686

> <Gold.PLP.PLP>
-41.9032

> <Gold.PLP.part.hbond>
-3.0000

> <Gold.PLP.part.metal>
0.0000

> <Gold.PLP.part.buried>
2.4093

> <Gold.PLP.part.nonpolar>
-42.6027

> <Gold.PLP.part.repulsive>
0.5816

> <Gold.PLP.ligand.clash>
0.0076

> <Gold.PLP.ligand.torsion>
0.8346

> <Gold.PLP.Chemscore.Hbond>
3.9760

> <Gold.PLP.Chemscore.CHOScore>
0.0000

> <Gold.PLP.Chemscore.Metal>
0.0000

> <Gold.Chemscore.Hbonds>
donor molecule, donor type, donor heavy atom, donor atom, acceptor molecule, acceptor atom, score
      L1  H     3    50       P1 10175  2.00
      L1  H    13    37       P1  8028  1.00
      L1  H    16    38       P1  8028  1.00

> <Gold.PLP.Chemscore.Internal.Correction>
0.0142

> <Gold.Rescore>
     Score         DG    S(hbond)    S(metal)    S(lipo)     H(rot)  DE(clash)    DE(int)     intcor
     20.65     -25.51       2.81        0.00     116.71       1.18       1.44       3.41       ----

> <Gold.Chemscore.Fitness>
20.6527

> <Gold.Chemscore.DG>
-25.5053

> <Gold.Chemscore.ZeroCoef>
-5.4800

> <Gold.Chemscore.Hbond>
2.8108

> <Gold.Chemscore.Metal>
0.0000

> <Gold.Chemscore.Lipo>
116.7085

> <Gold.Chemscore.Internal_Hbond>
0.0000

> <Gold.Chemscore.DEClash>
1.4384

> <Gold.Chemscore.DEInternal>
3.4142

> <Gold.Chemscore.Rot>
1.1788

> <Gold.Chemscore.Internal.Correction>
   9.000000E+99

> <Gold.Chemscore.Hbonds>
donor molecule, donor type, donor heavy atom, donor atom, acceptor molecule, acceptor atom, score
      L1  H     3    50       P1 10175  0.58
      L1  H    13    37       P1  8028  0.95
      L1  H    16    38       P1  8028  0.95

> <Gold.Chemscore.Hbond.Weighted>
-9.3882

> <Gold.Chemscore.Metal.Weighted>
-0.0000

> <Gold.Chemscore.Lipo.Weighted>
-13.6549

> <Gold.Chemscore.Internal_Hbond.Weighted>
0.0000

> <Gold.Chemscore.DEClash.Weighted>
1.4384

> <Gold.Chemscore.DEInternal.Weighted>
3.4142

> <Gold.Chemscore.Rot.Weighted>
3.0178

> <Gold.Chemscore.Internal.Correction.Weighted>
   9.000000E+99

> <Gold.Protein.RotatedTorsions>
[ 6907 6896 6895 6894 ] final   98.10 input  -60.11 | X-H torsion
[ 7974 7965 7964 7962 ] final  161.57 input  175.53 | X-H torsion
[ 8008 7997 7996 7995 ] final -102.68 input   59.86 | X-H torsion
[ 10167 10162 10161 10158 ] final    9.55 input  -65.29 | X-H torsion
[ 10718 10713 10712 10709 ] final -157.99 input   66.30 | X-H torsion
[ 10763 10752 10751 10750 ] final  -82.51 input  -60.55 | X-H torsion
[ 11005 11000 10999 10996 ] final -123.88 input  -57.11 | X-H torsion

> <Gold.Protein.ActiveResidues>
 VAL166  LYS551  ARG553  GLY616  TRP617  ASP618  TYR619  PRO620  LYS621  CYS622 
 ASP623  PHE694  ASN695  SER759  ASP760  ASP761  ALA762  ILE779  LEU786  VAL792 
 PHE793  MET794  SER795  GLU796  ALA797  LYS798  CYS799  TRP800  GLU811  SER814 

> <Gold.Protein.RotatedAtoms>
  152.5414  134.0632  159.8160 H   0  0  0  0  0  0  0  0  0  0  0  0  # atno 6907 bound_to 6896
  151.0756  133.5423  159.2631 H   0  0  0  0  0  0  0  0  0  0  0  0  # atno 6908 bound_to 6896
  151.2269  135.0548  159.9026 H   0  0  0  0  0  0  0  0  0  0  0  0  # atno 6909 bound_to 6896
  144.7679  139.7916  143.6308 H   0  0  0  0  0  0  0  0  0  0  0  0  # atno 7974 bound_to 7965
  154.8602  140.0427  157.1660 H   0  0  0  0  0  0  0  0  0  0  0  0  # atno 8008 bound_to 7997
  154.8849  140.2978  155.5383 H   0  0  0  0  0  0  0  0  0  0  0  0  # atno 8009 bound_to 7997
  156.2998  140.2404  156.3856 H   0  0  0  0  0  0  0  0  0  0  0  0  # atno 8010 bound_to 7997
  140.6248  143.8125  150.7220 H   0  0  0  0  0  0  0  0  0  0  0  0  # atno 10167 bound_to 10162
  156.5479  130.8592  151.2770 H   0  0  0  0  0  0  0  0  0  0  0  0  # atno 10718 bound_to 10713
  154.5766  135.5588  153.7145 H   0  0  0  0  0  0  0  0  0  0  0  0  # atno 10763 bound_to 10752
  153.0067  135.6310  154.2040 H   0  0  0  0  0  0  0  0  0  0  0  0  # atno 10764 bound_to 10752
  154.1981  135.2879  155.2980 H   0  0  0  0  0  0  0  0  0  0  0  0  # atno 10765 bound_to 10752
  140.9884  134.0573  157.3683 H   0  0  0  0  0  0  0  0  0  0  0  0  # atno 11005 bound_to 11000
  146.1802  139.4991  142.9871 LP  0  0  0  0  0  0  0  0  0  0  0  0  # atno 17320 bound_to 7965
  145.6412  141.0284  143.1810 LP  0  0  0  0  0  0  0  0  0  0  0  0  # atno 17321 bound_to 7965
  140.1723  143.4184  152.1992 LP  0  0  0  0  0  0  0  0  0  0  0  0  # atno 17342 bound_to 10162
  139.5470  144.7307  151.4551 LP  0  0  0  0  0  0  0  0  0  0  0  0  # atno 17343 bound_to 10162
  157.7393  130.9829  150.2305 LP  0  0  0  0  0  0  0  0  0  0  0  0  # atno 17370 bound_to 10713
  156.2911  130.3746  149.7841 LP  0  0  0  0  0  0  0  0  0  0  0  0  # atno 17371 bound_to 10713
  139.8981  135.0153  156.7133 LP  0  0  0  0  0  0  0  0  0  0  0  0  # atno 17394 bound_to 11000
  140.7078  133.9250  155.8065 LP  0  0  0  0  0  0  0  0  0  0  0  0  # atno 17395 bound_to 11000

$$$$
