AV-unprocessed.smi:1978|AV-procd|sdf|7992|dock4
  -GOLD-   2272010173D 1   1.00000     0.00000
 Structure written by MMmdl.
 45 46  0  0  0  0  0  0  0  0  2 V2000
  146.7928  130.0348  152.7339 C   0  0  0  0  0  0  0  0  0  0  0  0
  147.5821  131.1506  153.3279 C   0  0  0  0  0  0  0  0  0  0  0  0
  147.8443  132.4270  152.9156 C   0  0  0  0  0  0  0  0  0  0  0  0
  148.6602  132.9386  153.9595 C   0  0  0  0  0  0  0  0  0  0  0  0
  149.1600  134.2653  153.9102 N   0  0  0  0  0  0  0  0  0  0  0  0
  149.8907  134.8985  154.8438 C   0  0  0  0  0  0  0  0  0  0  0  0
  150.2434  134.4122  155.9186 O   0  0  0  0  0  0  0  0  0  0  0  0
  150.2071  136.1433  154.4555 N   0  0  0  0  0  0  0  0  0  0  0  0
  150.9862  137.1012  155.2384 C   0  0  0  0  0  0  0  0  0  0  0  0
  151.7094  138.1669  154.3638 C   0  0  2  0  0  0  0  0  0  0  0  0
  153.2008  138.2641  154.7734 C   0  0  0  0  0  0  0  0  0  0  0  0
  151.0443  139.5169  154.4199 N   0  3  1  0  0  0  0  0  0  0  0  0
  149.6008  139.4986  154.0295 C   0  0  0  0  0  0  0  0  0  0  0  0
  149.0338  140.9181  153.8643 C   0  0  0  0  0  0  0  0  0  0  0  0
  149.2245  141.7489  155.1342 C   0  0  0  0  0  0  0  0  0  0  0  0
  150.7039  141.7396  155.5332 C   0  0  0  0  0  0  0  0  0  0  0  0
  151.2616  140.3076  155.6785 C   0  0  1  0  0  0  0  0  0  0  0  0
  150.7256  139.6053  156.9467 C   0  0  0  0  0  0  0  0  0  0  0  0
  148.8751  132.0555  154.9224 N   0  0  0  0  0  0  0  0  0  0  0  0
  148.1844  130.9054  154.5231 O   0  0  0  0  0  0  0  0  0  0  0  0
  146.5760  130.2279  151.6831 H   0  0  0  0  0  0  0  0  0  0  0  0
  145.8454  129.9113  153.2584 H   0  0  0  0  0  0  0  0  0  0  0  0
  147.3410  129.0946  152.7977 H   0  0  0  0  0  0  0  0  0  0  0  0
  147.5064  132.9117  152.0117 H   0  0  0  0  0  0  0  0  0  0  0  0
  148.9443  134.7828  153.0712 H   0  0  0  0  0  0  0  0  0  0  0  0
  149.8759  136.4565  153.5544 H   0  0  0  0  0  0  0  0  0  0  0  0
  150.2583  137.5629  155.9030 H   0  0  0  0  0  0  0  0  0  0  0  0
  151.7065  136.5923  155.8811 H   0  0  0  0  0  0  0  0  0  0  0  0
  151.6733  137.8237  153.3288 H   0  0  0  0  0  0  0  0  0  0  0  0
  153.6894  137.2909  154.7831 H   0  0  0  0  0  0  0  0  0  0  0  0
  153.3085  138.6926  155.7705 H   0  0  0  0  0  0  0  0  0  0  0  0
  153.7950  138.8590  154.0828 H   0  0  0  0  0  0  0  0  0  0  0  0
  149.4502  138.9992  153.0764 H   0  0  0  0  0  0  0  0  0  0  0  0
  149.0210  138.9375  154.7627 H   0  0  0  0  0  0  0  0  0  0  0  0
  149.5294  141.4118  153.0274 H   0  0  0  0  0  0  0  0  0  0  0  0
  147.9745  140.8685  153.6095 H   0  0  0  0  0  0  0  0  0  0  0  0
  148.8866  142.7722  154.9676 H   0  0  0  0  0  0  0  0  0  0  0  0
  148.6102  141.3476  155.9407 H   0  0  0  0  0  0  0  0  0  0  0  0
  151.2787  142.2722  154.7742 H   0  0  0  0  0  0  0  0  0  0  0  0
  150.8427  142.2966  156.4605 H   0  0  0  0  0  0  0  0  0  0  0  0
  152.3322  140.4533  155.8131 H   0  0  0  0  0  0  0  0  0  0  0  0
  150.9442  140.2002  157.8340 H   0  0  0  0  0  0  0  0  0  0  0  0
  151.1832  138.6290  157.1010 H   0  0  0  0  0  0  0  0  0  0  0  0
  149.6465  139.4586  156.9174 H   0  0  0  0  0  0  0  0  0  0  0  0
  151.5045  140.0561  153.7004 H   0  0  0  0  0  0  0  0  0  0  0  0
  1  2  1  0  0  0  0
  1 21  1  0  0  0  0
  1 22  1  0  0  0  0
  1 23  1  0  0  0  0
  2 20  1  0  0  0  0
  2  3  2  0  0  0  0
  3  4  1  0  0  0  0
  3 24  1  0  0  0  0
  4  5  1  0  0  0  0
  4 19  2  0  0  0  0
  5  6  1  0  0  0  0
  5 25  1  0  0  0  0
  6  7  2  0  0  0  0
  6  8  1  0  0  0  0
  8  9  1  0  0  0  0
  8 26  1  0  0  0  0
  9 10  1  0  0  0  0
  9 27  1  0  0  0  0
  9 28  1  0  0  0  0
 10 11  1  0  0  0  0
 10 12  1  0  0  0  0
 10 29  1  0  0  0  0
 11 30  1  0  0  0  0
 11 31  1  0  0  0  0
 11 32  1  0  0  0  0
 12 17  1  0  0  0  0
 12 13  1  0  0  0  0
 12 45  1  0  0  0  0
 13 14  1  0  0  0  0
 13 33  1  0  0  0  0
 13 34  1  0  0  0  0
 14 15  1  0  0  0  0
 14 35  1  0  0  0  0
 14 36  1  0  0  0  0
 15 16  1  0  0  0  0
 15 37  1  0  0  0  0
 15 38  1  0  0  0  0
 16 17  1  0  0  0  0
 16 39  1  0  0  0  0
 16 40  1  0  0  0  0
 17 18  1  0  0  0  0
 17 41  1  0  0  0  0
 18 42  1  0  0  0  0
 18 43  1  0  0  0  0
 18 44  1  0  0  0  0
 19 20  1  0  0  0  0
M  CHG  1  12   1
M  END
> <s_m_source_file>
AV-unprocessed.smi

> <i_m_source_file_index>
1978

> <i_lp_mmshare_version>
43012

> <i_f3d_flags>
0

> <s_epik_input>
W0NIM11jMVtjSF1jKG5vMSlbTkhdQyg9TylbTkhdW0NIMl1bQ0BIXShbQ0gzXSlOMltDSDJdW0NIMl1bQ0gyXVtDSDJdW0NASF0yW0NIM10=

> <s_epik_cmdline>
J2VwaWtfcHl0aG9uJywgJy1waCcsICc3LjAnLCAnLXRuJywgJzgnLCAnLW1hJywgJzIwMCcsICctbWV0YWxfYmluZGluZycsICctaW1hZScsICc8aW5maWxlLm1hZT4nLCAnLW9tYWUnLCAnPG91dGZpbGUubWFlPic=

> <r_epik_Ionization_Penalty>
0.00265971

> <r_epik_Ionization_Penalty_Charging>
0.00262393

> <r_epik_Ionization_Penalty_Neutral>
3.57846e-05

> <r_epik_State_Penalty>
0.00182566

> <r_epik_Charging_Adjusted_Penalty>
0.00444959

> <i_epik_Tot_Q>
1

> <i_epik_Tot_abs_Q>
1

> <r_epik_Metal_State_Penalty>
0.0216344

> <b_epik_Metal_Only>
0

> <s_lp_Force_Field>
OPLS_2005

> <r_lp_Energy>
24.7796

> <b_lp_Chiralities_Consistent>
1

> <s_lp_Variant>
AV-unprocessed.smi:1978-1

> <Gold.Version>
5.8.1

> <Gold.Id.Protein>
6NUR|6NUR_protein|mol2

> <Gold.PLP.Fitness>
39.7312

> <Gold.PLP.PLP>
-35.5591

> <Gold.PLP.part.hbond>
-2.6243

> <Gold.PLP.part.metal>
0.0000

> <Gold.PLP.part.buried>
-3.1418

> <Gold.PLP.part.nonpolar>
-30.9492

> <Gold.PLP.part.repulsive>
1.7805

> <Gold.PLP.ligand.clash>
0.0000

> <Gold.PLP.ligand.torsion>
0.9336

> <Gold.PLP.Chemscore.Hbond>
1.9760

> <Gold.PLP.Chemscore.CHOScore>
0.0000

> <Gold.PLP.Chemscore.Metal>
0.0000

> <Gold.Chemscore.Hbonds>
donor molecule, donor type, donor heavy atom, donor atom, acceptor molecule, acceptor atom, score
      L1  H     5    25       P1  7948  0.75
      L1  H     8    26       P1  7948  0.95

> <Gold.PLP.Chemscore.Internal.Correction>
0.1113

> <Gold.Rescore>
     Score         DG    S(hbond)    S(metal)    S(lipo)     H(rot)  DE(clash)    DE(int)     intcor
     12.99     -15.40       1.51        0.00      75.49       1.55       0.22       2.19       ----

> <Gold.Chemscore.Fitness>
12.9880

> <Gold.Chemscore.DG>
-15.4005

> <Gold.Chemscore.ZeroCoef>
-5.4800

> <Gold.Chemscore.Hbond>
1.5119

> <Gold.Chemscore.Metal>
0.0000

> <Gold.Chemscore.Lipo>
75.4876

> <Gold.Chemscore.Internal_Hbond>
0.0000

> <Gold.Chemscore.DEClash>
0.2189

> <Gold.Chemscore.DEInternal>
2.1937

> <Gold.Chemscore.Rot>
1.5474

> <Gold.Chemscore.Internal.Correction>
   9.000000E+99

> <Gold.Chemscore.Hbonds>
donor molecule, donor type, donor heavy atom, donor atom, acceptor molecule, acceptor atom, score
      L1  H     5    25       P1  7948  0.09
      L1  H     8    26       P1  7948  0.21

> <Gold.Chemscore.Hbond.Weighted>
-5.0497

> <Gold.Chemscore.Metal.Weighted>
-0.0000

> <Gold.Chemscore.Lipo.Weighted>
-8.8320

> <Gold.Chemscore.Internal_Hbond.Weighted>
0.0000

> <Gold.Chemscore.DEClash.Weighted>
0.2189

> <Gold.Chemscore.DEInternal.Weighted>
2.1937

> <Gold.Chemscore.Rot.Weighted>
3.9612

> <Gold.Chemscore.Internal.Correction.Weighted>
   9.000000E+99

> <Gold.Protein.RotatedTorsions>
[ 6907 6896 6895 6894 ] final  -88.73 input  -60.11 | X-H torsion
[ 7974 7965 7964 7962 ] final  179.28 input  175.53 | X-H torsion
[ 8008 7997 7996 7995 ] final  -82.39 input   59.86 | X-H torsion
[ 10167 10162 10161 10158 ] final   80.76 input  -65.29 | X-H torsion
[ 10718 10713 10712 10709 ] final   66.83 input   66.30 | X-H torsion
[ 10763 10752 10751 10750 ] final -173.39 input  -60.55 | X-H torsion
[ 11005 11000 10999 10996 ] final   75.64 input  -57.11 | X-H torsion

> <Gold.Protein.ActiveResidues>
 VAL166  LYS551  ARG553  GLY616  TRP617  ASP618  TYR619  PRO620  LYS621  CYS622 
 ASP623  PHE694  ASN695  SER759  ASP760  ASP761  ALA762  ILE779  LEU786  VAL792 
 PHE793  MET794  SER795  GLU796  ALA797  LYS798  CYS799  TRP800  GLU811  SER814 

> <Gold.Protein.RotatedAtoms>
  150.6870  134.2697  159.4582 H   0  0  0  0  0  0  0  0  0  0  0  0  # atno 6907 bound_to 6896
  152.0620  134.9586  160.0584 H   0  0  0  0  0  0  0  0  0  0  0  0  # atno 6908 bound_to 6896
  152.1009  133.4214  159.4623 H   0  0  0  0  0  0  0  0  0  0  0  0  # atno 6909 bound_to 6896
  144.7147  140.0525  143.6435 H   0  0  0  0  0  0  0  0  0  0  0  0  # atno 7974 bound_to 7965
  154.6082  140.0634  156.9458 H   0  0  0  0  0  0  0  0  0  0  0  0  # atno 8008 bound_to 7997
  155.2018  140.3315  155.4324 H   0  0  0  0  0  0  0  0  0  0  0  0  # atno 8009 bound_to 7997
  156.2360  140.1863  156.7101 H   0  0  0  0  0  0  0  0  0  0  0  0  # atno 8010 bound_to 7997
  139.9463  144.6056  150.8203 H   0  0  0  0  0  0  0  0  0  0  0  0  # atno 10167 bound_to 10162
  157.6193  130.9288  150.0161 H   0  0  0  0  0  0  0  0  0  0  0  0  # atno 10718 bound_to 10713
  154.6084  135.2862  155.0459 H   0  0  0  0  0  0  0  0  0  0  0  0  # atno 10763 bound_to 10752
  154.1698  135.6474  153.5010 H   0  0  0  0  0  0  0  0  0  0  0  0  # atno 10764 bound_to 10752
  153.0185  135.5398  154.6828 H   0  0  0  0  0  0  0  0  0  0  0  0  # atno 10765 bound_to 10752
  139.9334  134.7534  156.1296 H   0  0  0  0  0  0  0  0  0  0  0  0  # atno 11005 bound_to 11000
  145.9932  139.3032  143.0972 LP  0  0  0  0  0  0  0  0  0  0  0  0  # atno 17320 bound_to 7965
  145.8879  140.9322  143.0567 LP  0  0  0  0  0  0  0  0  0  0  0  0  # atno 17321 bound_to 7965
  140.7596  143.3133  151.2794 LP  0  0  0  0  0  0  0  0  0  0  0  0  # atno 17342 bound_to 10162
  139.6664  144.0098  152.2725 LP  0  0  0  0  0  0  0  0  0  0  0  0  # atno 17343 bound_to 10162
  156.1330  130.3643  149.9701 LP  0  0  0  0  0  0  0  0  0  0  0  0  # atno 17370 bound_to 10713
  156.7758  130.9203  151.3645 LP  0  0  0  0  0  0  0  0  0  0  0  0  # atno 17371 bound_to 10713
  141.0936  133.6704  156.2594 LP  0  0  0  0  0  0  0  0  0  0  0  0  # atno 17394 bound_to 11000
  140.6140  134.5430  157.5538 LP  0  0  0  0  0  0  0  0  0  0  0  0  # atno 17395 bound_to 11000

$$$$
