AV-unprocessed.smi:1168|AV-procd|sdf|4939|dock7
  -GOLD-   22720 3523D 1   1.00000     0.00000
 Structure written by MMmdl.
 32 33  0  0  0  0  0  0  0  0  1 V2000
  151.6183  141.3217  156.5600 O   0  0  0  0  0  0  0  0  0  0  0  0
  150.9952  142.3747  156.6948 C   0  0  0  0  0  0  0  0  0  0  0  0
  151.6145  143.5389  157.4707 C   0  0  0  0  0  0  0  0  0  0  0  0
  152.2187  143.0823  158.7101 N   0  0  0  0  0  0  0  0  0  0  0  0
  152.0042  143.5441  159.9914 C   0  0  0  0  0  0  0  0  0  0  0  0
  152.7928  142.8063  160.8264 C   0  0  0  0  0  0  0  0  0  0  0  0
  153.4639  141.8981  159.9570 C   0  0  0  0  0  0  0  0  0  0  0  0
  154.4660  140.8315  160.3123 C   0  0  0  0  0  0  0  0  0  0  0  0
  155.6569  141.1234  159.7891 F   0  0  0  0  0  0  0  0  0  0  0  0
  154.5888  140.7471  161.6370 F   0  0  0  0  0  0  0  0  0  0  0  0
  154.0660  139.6524  159.8363 F   0  0  0  0  0  0  0  0  0  0  0  0
  153.1100  142.0684  158.6901 N   0  0  0  0  0  0  0  0  0  0  0  0
  149.7694  142.5784  156.1874 N   0  0  0  0  0  0  0  0  0  0  0  0
  149.0112  141.6066  155.4041 C   0  0  0  0  0  0  0  0  0  0  0  0
  149.6217  141.4426  153.9984 C   0  0  0  0  0  0  0  0  0  0  0  0
  148.4608  141.5768  153.0107 C   0  0  0  0  0  0  0  0  0  0  0  0
  147.4621  142.4850  153.7205 C   0  0  0  0  0  0  0  0  0  0  0  0
  147.5551  142.0652  155.1872 C   0  0  0  0  0  0  0  0  0  0  0  0
  152.3795  144.0392  156.8751 H   0  0  0  0  0  0  0  0  0  0  0  0
  150.8431  144.2793  157.6884 H   0  0  0  0  0  0  0  0  0  0  0  0
  151.3183  144.3520  160.1990 H   0  0  0  0  0  0  0  0  0  0  0  0
  152.8779  142.9002  161.8988 H   0  0  0  0  0  0  0  0  0  0  0  0
  149.3309  143.4732  156.3502 H   0  0  0  0  0  0  0  0  0  0  0  0
  149.0171  140.6430  155.9173 H   0  0  0  0  0  0  0  0  0  0  0  0
  150.3499  142.2308  153.7993 H   0  0  0  0  0  0  0  0  0  0  0  0
  150.1416  140.4909  153.8851 H   0  0  0  0  0  0  0  0  0  0  0  0
  148.7751  141.9716  152.0442 H   0  0  0  0  0  0  0  0  0  0  0  0
  148.0083  140.5990  152.8403 H   0  0  0  0  0  0  0  0  0  0  0  0
  147.7724  143.5254  153.6154 H   0  0  0  0  0  0  0  0  0  0  0  0
  146.4518  142.3949  153.3206 H   0  0  0  0  0  0  0  0  0  0  0  0
  146.8858  141.2216  155.3613 H   0  0  0  0  0  0  0  0  0  0  0  0
  147.2423  142.8634  155.8616 H   0  0  0  0  0  0  0  0  0  0  0  0
  1  2  2  0  0  0  0
  2  3  1  0  0  0  0
  2 13  1  0  0  0  0
  3  4  1  0  0  0  0
  3 19  1  0  0  0  0
  3 20  1  0  0  0  0
  4 12  1  0  0  0  0
  4  5  1  0  0  0  0
  5  6  2  0  0  0  0
  5 21  1  0  0  0  0
  6  7  1  0  0  0  0
  6 22  1  0  0  0  0
  7  8  1  0  0  0  0
  7 12  2  0  0  0  0
  8  9  1  0  0  0  0
  8 10  1  0  0  0  0
  8 11  1  0  0  0  0
 13 14  1  0  0  0  0
 13 23  1  0  0  0  0
 14 18  1  0  0  0  0
 14 15  1  0  0  0  0
 14 24  1  0  0  0  0
 15 16  1  0  0  0  0
 15 25  1  0  0  0  0
 15 26  1  0  0  0  0
 16 17  1  0  0  0  0
 16 27  1  0  0  0  0
 16 28  1  0  0  0  0
 17 18  1  0  0  0  0
 17 29  1  0  0  0  0
 17 30  1  0  0  0  0
 18 31  1  0  0  0  0
 18 32  1  0  0  0  0
M  END
> <s_m_source_file>
AV-unprocessed.smi

> <i_m_source_file_index>
1168

> <i_lp_mmshare_version>
43012

> <i_f3d_flags>
0

> <s_epik_input>
W0NIMl0xW0NIMl1bQ0gyXVtDSDJdW0NIXTFbTkhdQyg9TylbQ0gyXW4yW2NIXVtjSF1jKG4yKUMoRikoRilG

> <s_epik_cmdline>
J2VwaWtfcHl0aG9uJywgJy1waCcsICc3LjAnLCAnLXRuJywgJzgnLCAnLW1hJywgJzIwMCcsICctbWV0YWxfYmluZGluZycsICctaW1hZScsICc8aW5maWxlLm1hZT4nLCAnLW9tYWUnLCAnPG91dGZpbGUubWFlPic=

> <r_lp_tautomer_probability>
1

> <r_epik_Ionization_Penalty>
8.05939e-08

> <r_epik_Ionization_Penalty_Charging>
0

> <r_epik_Ionization_Penalty_Neutral>
8.05939e-08

> <r_epik_State_Penalty>
-0

> <r_epik_Charging_Adjusted_Penalty>
0

> <i_epik_Tot_Q>
0

> <i_epik_Tot_abs_Q>
0

> <r_epik_Metal_State_Penalty>
-0

> <b_epik_Metal_Only>
0

> <s_lp_Force_Field>
OPLS_2005

> <r_lp_Energy>
20.3297

> <b_lp_Chiralities_Consistent>
1

> <s_lp_Variant>
AV-unprocessed.smi:1168-1

> <Gold.Version>
5.8.1

> <Gold.Id.Protein>
6NUR|6NUR_protein|mol2

> <Gold.PLP.Fitness>
44.2498

> <Gold.PLP.PLP>
-42.4253

> <Gold.PLP.part.hbond>
-1.0000

> <Gold.PLP.part.metal>
0.0000

> <Gold.PLP.part.buried>
-3.0802

> <Gold.PLP.part.nonpolar>
-38.7231

> <Gold.PLP.part.repulsive>
0.0733

> <Gold.PLP.ligand.clash>
0.0000

> <Gold.PLP.ligand.torsion>
0.4367

> <Gold.PLP.Chemscore.Hbond>
0.8960

> <Gold.PLP.Chemscore.CHOScore>
0.0000

> <Gold.PLP.Chemscore.Metal>
0.0000

> <Gold.Chemscore.Hbonds>
donor molecule, donor type, donor heavy atom, donor atom, acceptor molecule, acceptor atom, score
      L1  H    13    23       P1  8028  0.79

> <Gold.PLP.Chemscore.Internal.Correction>
0.0100

> <Gold.Rescore>
     Score         DG    S(hbond)    S(metal)    S(lipo)     H(rot)  DE(clash)    DE(int)     intcor
      9.94     -14.77       0.93        0.00      87.32       1.57       1.72       3.11       ----

> <Gold.Chemscore.Fitness>
9.9382

> <Gold.Chemscore.DG>
-14.7708

> <Gold.Chemscore.ZeroCoef>
-5.4800

> <Gold.Chemscore.Hbond>
0.9300

> <Gold.Chemscore.Metal>
0.0000

> <Gold.Chemscore.Lipo>
87.3159

> <Gold.Chemscore.Internal_Hbond>
0.0000

> <Gold.Chemscore.DEClash>
1.7218

> <Gold.Chemscore.DEInternal>
3.1109

> <Gold.Chemscore.Rot>
1.5748

> <Gold.Chemscore.Internal.Correction>
   9.000000E+99

> <Gold.Chemscore.Hbonds>
donor molecule, donor type, donor heavy atom, donor atom, acceptor molecule, acceptor atom, score
      L1  H    13    23       P1  8028  0.74

> <Gold.Chemscore.Hbond.Weighted>
-3.1063

> <Gold.Chemscore.Metal.Weighted>
-0.0000

> <Gold.Chemscore.Lipo.Weighted>
-10.2160

> <Gold.Chemscore.Internal_Hbond.Weighted>
0.0000

> <Gold.Chemscore.DEClash.Weighted>
1.7218

> <Gold.Chemscore.DEInternal.Weighted>
3.1109

> <Gold.Chemscore.Rot.Weighted>
4.0315

> <Gold.Chemscore.Internal.Correction.Weighted>
   9.000000E+99

> <Gold.Protein.RotatedTorsions>
[ 6907 6896 6895 6894 ] final   18.46 input  -60.11 | X-H torsion
[ 7974 7965 7964 7962 ] final  -58.95 input  175.53 | X-H torsion
[ 8008 7997 7996 7995 ] final  137.64 input   59.86 | X-H torsion
[ 10167 10162 10161 10158 ] final   78.93 input  -65.29 | X-H torsion
[ 10718 10713 10712 10709 ] final  -32.05 input   66.30 | X-H torsion
[ 10763 10752 10751 10750 ] final   43.39 input  -60.55 | X-H torsion
[ 11005 11000 10999 10996 ] final   -8.68 input  -57.11 | X-H torsion

> <Gold.Protein.ActiveResidues>
 VAL166  LYS551  ARG553  GLY616  TRP617  ASP618  TYR619  PRO620  LYS621  CYS622 
 ASP623  PHE694  ASN695  SER759  ASP760  ASP761  ALA762  ILE779  LEU786  VAL792 
 PHE793  MET794  SER795  GLU796  ALA797  LYS798  CYS799  TRP800  GLU811  SER814 

> <Gold.Protein.RotatedAtoms>
  151.8657  135.0508  160.0473 H   0  0  0  0  0  0  0  0  0  0  0  0  # atno 6907 bound_to 6896
  152.2628  133.5308  159.5400 H   0  0  0  0  0  0  0  0  0  0  0  0  # atno 6908 bound_to 6896
  150.7122  134.0722  159.3911 H   0  0  0  0  0  0  0  0  0  0  0  0  # atno 6909 bound_to 6896
  145.8333  140.8465  143.0072 H   0  0  0  0  0  0  0  0  0  0  0  0  # atno 7974 bound_to 7965
  156.3001  140.2414  156.3943 H   0  0  0  0  0  0  0  0  0  0  0  0  # atno 8008 bound_to 7997
  154.8586  140.0421  157.1670 H   0  0  0  0  0  0  0  0  0  0  0  0  # atno 8009 bound_to 7997
  154.8921  140.2965  155.5368 H   0  0  0  0  0  0  0  0  0  0  0  0  # atno 8010 bound_to 7997
  139.9657  144.5930  150.8031 H   0  0  0  0  0  0  0  0  0  0  0  0  # atno 10167 bound_to 10162
  156.3797  130.4354  149.7479 H   0  0  0  0  0  0  0  0  0  0  0  0  # atno 10718 bound_to 10713
  152.9862  135.6103  154.3103 H   0  0  0  0  0  0  0  0  0  0  0  0  # atno 10763 bound_to 10752
  154.2819  135.2777  155.2695 H   0  0  0  0  0  0  0  0  0  0  0  0  # atno 10764 bound_to 10752
  154.5030  135.5861  153.6602 H   0  0  0  0  0  0  0  0  0  0  0  0  # atno 10765 bound_to 10752
  140.7261  133.8788  155.8857 H   0  0  0  0  0  0  0  0  0  0  0  0  # atno 11005 bound_to 11000
  144.6738  140.0704  143.7473 LP  0  0  0  0  0  0  0  0  0  0  0  0  # atno 17320 bound_to 7965
  145.9547  139.2758  143.1191 LP  0  0  0  0  0  0  0  0  0  0  0  0  # atno 17321 bound_to 7965
  140.7538  143.3016  151.3066 LP  0  0  0  0  0  0  0  0  0  0  0  0  # atno 17342 bound_to 10162
  139.6519  144.0346  152.2632 LP  0  0  0  0  0  0  0  0  0  0  0  0  # atno 17343 bound_to 10162
  156.4574  130.7935  151.2956 LP  0  0  0  0  0  0  0  0  0  0  0  0  # atno 17370 bound_to 10713
  157.7491  131.0076  150.3198 LP  0  0  0  0  0  0  0  0  0  0  0  0  # atno 17371 bound_to 10713
  140.9962  134.1212  157.4361 LP  0  0  0  0  0  0  0  0  0  0  0  0  # atno 17394 bound_to 11000
  139.8837  135.0055  156.6317 LP  0  0  0  0  0  0  0  0  0  0  0  0  # atno 17395 bound_to 11000

$$$$
