AV-unprocessed.smi:160|AV-procd|sdf|1348|dock7
  -GOLD-   2262019 53D 1   1.00000     0.00000
 Structure written by MMmdl.
 29 30  0  0  0  0  0  0  0  0  1 V2000
  155.1336  137.2563  158.4814 N   0  0  0  0  0  0  0  0  0  0  0  0
  154.6795  136.7267  157.3408 C   0  0  0  0  0  0  0  0  0  0  0  0
  155.0818  135.6475  156.9091 O   0  0  0  0  0  0  0  0  0  0  0  0
  153.6332  137.5226  156.6106 C   0  0  0  0  0  0  0  0  0  0  0  0
  152.7402  136.9160  155.7736 N   0  0  0  0  0  0  0  0  0  0  0  0
  152.0553  137.9854  155.3894 C   0  0  0  0  0  0  0  0  0  0  0  0
  152.4835  139.1327  155.9257 N   0  0  0  0  0  0  0  0  0  0  0  0
  151.9711  140.5294  155.7338 C   0  0  1  0  0  0  0  0  0  0  0  0
  150.8584  140.4805  154.8912 O   0  0  0  0  0  0  0  0  0  0  0  0
  149.6678  140.6143  155.6604 C   0  0  2  0  0  0  0  0  0  0  0  0
  148.4786  141.0424  154.7829 C   0  0  0  0  0  0  0  0  0  0  0  0
  148.8053  142.2129  154.0643 O   0  0  0  0  0  0  0  0  0  0  0  0
  150.0871  141.6131  156.7479 C   0  0  2  0  0  0  0  0  0  0  0  0
  150.0405  142.9430  156.2623 O   0  0  0  0  0  0  0  0  0  0  0  0
  151.5264  141.2102  157.0519 C   0  0  1  0  0  0  0  0  0  0  0  0
  151.5676  140.3670  158.1904 O   0  0  0  0  0  0  0  0  0  0  0  0
  153.5320  138.8465  156.7385 N   0  0  0  0  0  0  0  0  0  0  0  0
  152.7889  141.0508  155.2349 H   0  0  0  0  0  0  0  0  0  0  0  0
  149.4437  139.6624  156.1453 H   0  0  0  0  0  0  0  0  0  0  0  0
  149.4397  141.5531  157.6241 H   0  0  0  0  0  0  0  0  0  0  0  0
  152.1617  142.0756  157.2466 H   0  0  0  0  0  0  0  0  0  0  0  0
  155.8346  136.7687  159.0196 H   0  0  0  0  0  0  0  0  0  0  0  0
  154.7677  138.1426  158.7983 H   0  0  0  0  0  0  0  0  0  0  0  0
  151.2255  137.9320  154.7000 H   0  0  0  0  0  0  0  0  0  0  0  0
  148.2522  140.2651  154.0525 H   0  0  0  0  0  0  0  0  0  0  0  0
  147.5796  141.2034  155.3786 H   0  0  0  0  0  0  0  0  0  0  0  0
  148.7796  142.9480  154.6576 H   0  0  0  0  0  0  0  0  0  0  0  0
  149.1365  143.1823  156.1266 H   0  0  0  0  0  0  0  0  0  0  0  0
  151.7496  140.8968  158.9514 H   0  0  0  0  0  0  0  0  0  0  0  0
  1  2  1  0  0  0  0
  1 22  1  0  0  0  0
  1 23  1  0  0  0  0
  2  3  2  0  0  0  0
  2  4  1  0  0  0  0
  4 17  2  0  0  0  0
  4  5  1  0  0  0  0
  5  6  2  0  0  0  0
  6  7  1  0  0  0  0
  6 24  1  0  0  0  0
  7  8  1  0  0  0  0
  7 17  1  0  0  0  0
  8 18  1  0  0  0  0
  8 15  1  0  0  0  0
  8  9  1  0  0  0  0
  9 10  1  0  0  0  0
 10 19  1  0  0  0  0
 10 11  1  0  0  0  0
 10 13  1  0  0  0  0
 11 12  1  0  0  0  0
 11 25  1  0  0  0  0
 11 26  1  0  0  0  0
 12 27  1  0  0  0  0
 13 20  1  0  0  0  0
 13 14  1  0  0  0  0
 13 15  1  0  0  0  0
 14 28  1  0  0  0  0
 15 21  1  0  0  0  0
 15 16  1  0  0  0  0
 16 29  1  0  0  0  0
M  END
> <s_m_source_file>
AV-unprocessed.smi

> <i_m_source_file_index>
160

> <i_lp_mmshare_version>
43012

> <i_f3d_flags>
0

> <s_epik_input>
W05IMl1DKD1PKWMxbltjSF1uKG4xKVtDQEBIXTJPW0NASF0oW0NIMl1bT0hdKVtDQEBIXShbT0hdKVtDQEhdMltPSF0=

> <s_epik_cmdline>
J2VwaWtfcHl0aG9uJywgJy1waCcsICc3LjAnLCAnLXRuJywgJzgnLCAnLW1hJywgJzIwMCcsICctbWV0YWxfYmluZGluZycsICctaW1hZScsICc8aW5maWxlLm1hZT4nLCAnLW9tYWUnLCAnPG91dGZpbGUubWFlPic=

> <r_lp_tautomer_probability>
1

> <r_epik_Ionization_Penalty>
1.06932e-05

> <r_epik_Ionization_Penalty_Charging>
0

> <r_epik_Ionization_Penalty_Neutral>
1.06932e-05

> <r_epik_State_Penalty>
-0

> <r_epik_Charging_Adjusted_Penalty>
0

> <i_epik_Tot_Q>
0

> <i_epik_Tot_abs_Q>
0

> <r_epik_Metal_State_Penalty>
0.0142097

> <b_epik_Metal_Only>
0

> <s_epik_Chemistry_Notes>
This compound contains an acetal/aminal-like group ( X-CH(R)-Y where X, Y are N, S, or O) that may be acid/base labile, releasing an aldehyde.

> <s_lp_Force_Field>
OPLS_2005

> <r_lp_Energy>
42.6819

> <b_lp_Chiralities_Consistent>
1

> <s_lp_Variant>
AV-unprocessed.smi:160-6

> <Gold.Version>
5.8.1

> <Gold.Id.Protein>
6NUR|6NUR_protein|mol2

> <Gold.PLP.Fitness>
38.4113

> <Gold.PLP.PLP>
-23.3123

> <Gold.PLP.part.hbond>
-6.1338

> <Gold.PLP.part.metal>
0.0000

> <Gold.PLP.part.buried>
-3.1987

> <Gold.PLP.part.nonpolar>
-13.1826

> <Gold.PLP.part.repulsive>
0.1626

> <Gold.PLP.ligand.clash>
0.0000

> <Gold.PLP.ligand.torsion>
0.3016

> <Gold.PLP.Chemscore.Hbond>
5.2320

> <Gold.PLP.Chemscore.CHOScore>
0.0000

> <Gold.PLP.Chemscore.Metal>
0.0000

> <Gold.Chemscore.Hbonds>
donor molecule, donor type, donor heavy atom, donor atom, acceptor molecule, acceptor atom, score
      L1  H    12    27       P1  8028  1.00
      L1  H    14    28       P1  8028  0.32
      P1  H  7989  7998       L1     9  0.85
      P1  H  7997  8008       L1    17  0.86
      P1  H  8011  8017       L1    12  0.29
      P1  H 10752 10763       L1     5  0.45
      P1  H 10752 10764       L1     3  1.00

> <Gold.PLP.Chemscore.Internal.Correction>
0.0061

> <Gold.Rescore>
     Score         DG    S(hbond)    S(metal)    S(lipo)     H(rot)  DE(clash)    DE(int)     intcor
     10.09     -12.49       4.41        0.00      22.99       4.06       0.31       2.09       ----

> <Gold.Chemscore.Fitness>
10.0874

> <Gold.Chemscore.DG>
-12.4924

> <Gold.Chemscore.ZeroCoef>
-5.4800

> <Gold.Chemscore.Hbond>
4.4059

> <Gold.Chemscore.Metal>
0.0000

> <Gold.Chemscore.Lipo>
22.9942

> <Gold.Chemscore.Internal_Hbond>
0.0000

> <Gold.Chemscore.DEClash>
0.3120

> <Gold.Chemscore.DEInternal>
2.0930

> <Gold.Chemscore.Rot>
4.0600

> <Gold.Chemscore.Internal.Correction>
   9.000000E+99

> <Gold.Chemscore.Hbonds>
donor molecule, donor type, donor heavy atom, donor atom, acceptor molecule, acceptor atom, score
      L1  H    12    27       P1  8028  0.94
      L1  H    14    28       P1  8028  0.32
      P1  H  7989  7998       L1     9  0.14
      P1  H  7997  8008       L1    17  0.66
      P1  H  8011  8017       L1    12  0.28
      P1  H 10752 10763       L1     5  0.42
      P1  H 10752 10764       L1     3  0.85

> <Gold.Chemscore.Hbond.Weighted>
-14.7157

> <Gold.Chemscore.Metal.Weighted>
-0.0000

> <Gold.Chemscore.Lipo.Weighted>
-2.6903

> <Gold.Chemscore.Internal_Hbond.Weighted>
0.0000

> <Gold.Chemscore.DEClash.Weighted>
0.3120

> <Gold.Chemscore.DEInternal.Weighted>
2.0930

> <Gold.Chemscore.Rot.Weighted>
10.3936

> <Gold.Chemscore.Internal.Correction.Weighted>
   9.000000E+99

> <Gold.Protein.RotatedTorsions>
[ 6907 6896 6895 6894 ] final  104.06 input  -60.11 | X-H torsion
[ 7974 7965 7964 7962 ] final -118.57 input  175.53 | X-H torsion
[ 8008 7997 7996 7995 ] final  -75.33 input   59.86 | X-H torsion
[ 10167 10162 10161 10158 ] final  172.59 input  -65.29 | X-H torsion
[ 10718 10713 10712 10709 ] final -136.94 input   66.30 | X-H torsion
[ 10763 10752 10751 10750 ] final   57.38 input  -60.55 | X-H torsion
[ 11005 11000 10999 10996 ] final  130.68 input  -57.11 | X-H torsion

> <Gold.Protein.ActiveResidues>
 VAL166  LYS551  ARG553  GLY616  TRP617  ASP618  TYR619  PRO620  LYS621  CYS622 
 ASP623  PHE694  ASN695  SER759  ASP760  ASP761  ALA762  ILE779  LEU786  VAL792 
 PHE793  MET794  SER795  GLU796  ALA797  LYS798  CYS799  TRP800  GLU811  SER814 

> <Gold.Protein.RotatedAtoms>
  152.5276  133.9733  159.7771 H   0  0  0  0  0  0  0  0  0  0  0  0  # atno 6907 bound_to 6896
  151.0000  133.6057  159.2703 H   0  0  0  0  0  0  0  0  0  0  0  0  # atno 6908 bound_to 6896
  151.3169  135.0815  159.9345 H   0  0  0  0  0  0  0  0  0  0  0  0  # atno 6909 bound_to 6896
  145.0723  140.8368  143.4088 H   0  0  0  0  0  0  0  0  0  0  0  0  # atno 7974 bound_to 7965
  154.5407  140.0746  156.8505 H   0  0  0  0  0  0  0  0  0  0  0  0  # atno 8008 bound_to 7997
  155.3186  140.3394  155.4223 H   0  0  0  0  0  0  0  0  0  0  0  0  # atno 8009 bound_to 7997
  156.1872  140.1673  156.8149 H   0  0  0  0  0  0  0  0  0  0  0  0  # atno 8010 bound_to 7997
  139.5081  144.3357  152.0068 H   0  0  0  0  0  0  0  0  0  0  0  0  # atno 10167 bound_to 10162
  156.2826  130.7329  151.1331 H   0  0  0  0  0  0  0  0  0  0  0  0  # atno 10718 bound_to 10713
  152.9849  135.5644  154.5381 H   0  0  0  0  0  0  0  0  0  0  0  0  # atno 10763 bound_to 10752
  154.4840  135.2790  155.1550 H   0  0  0  0  0  0  0  0  0  0  0  0  # atno 10764 bound_to 10752
  154.3047  135.6300  153.5493 H   0  0  0  0  0  0  0  0  0  0  0  0  # atno 10765 bound_to 10752
  139.9686  134.9584  156.9329 H   0  0  0  0  0  0  0  0  0  0  0  0  # atno 11005 bound_to 11000
  145.1277  139.2652  143.5555 LP  0  0  0  0  0  0  0  0  0  0  0  0  # atno 17320 bound_to 7965
  146.3529  140.0919  142.8612 LP  0  0  0  0  0  0  0  0  0  0  0  0  # atno 17321 bound_to 7965
  140.2795  144.3875  150.6123 LP  0  0  0  0  0  0  0  0  0  0  0  0  # atno 17342 bound_to 10162
  140.6028  143.2167  151.7038 LP  0  0  0  0  0  0  0  0  0  0  0  0  # atno 17343 bound_to 10162
  157.7319  131.0604  150.5656 LP  0  0  0  0  0  0  0  0  0  0  0  0  # atno 17370 bound_to 10713
  156.5763  130.4293  149.5997 LP  0  0  0  0  0  0  0  0  0  0  0  0  # atno 17371 bound_to 10713
  140.5342  134.0783  155.7324 LP  0  0  0  0  0  0  0  0  0  0  0  0  # atno 17394 bound_to 11000
  141.1366  133.9211  157.2421 LP  0  0  0  0  0  0  0  0  0  0  0  0  # atno 17395 bound_to 11000

$$$$
