AV-unprocessed.smi:3330|AV-procd|sdf|12807|dock7
  -GOLD-   2272019173D 1   1.00000     0.00000
 Structure written by MMmdl.
 38 39  0  0  0  0  0  0  0  0  1 V2000
  149.9411  143.8618  159.2520 C   0  0  0  0  0  0  0  0  0  0  0  0
  150.8248  143.1484  158.2047 C   0  0  2  0  0  0  0  0  0  0  0  0
  150.5202  141.7204  158.2053 N   0  0  0  0  0  0  0  0  0  0  0  0
  150.2935  141.1845  156.8715 C   0  0  0  0  0  0  0  0  0  0  0  0
  151.6463  140.8391  156.2302 C   0  0  0  0  0  0  0  0  0  0  0  0
  151.7229  139.4178  155.8831 N   0  0  0  0  0  0  0  0  0  0  0  0
  151.0714  138.8551  154.8569 C   0  0  0  0  0  0  0  0  0  0  0  0
  150.3168  139.4048  154.0551 O   0  0  0  0  0  0  0  0  0  0  0  0
  151.4168  137.3823  154.8201 C   0  0  0  0  0  0  0  0  0  0  0  0
  152.3211  137.3253  155.9483 N   0  0  0  0  0  0  0  0  0  0  0  0
  152.4779  138.5174  156.5385 C   0  0  0  0  0  0  0  0  0  0  0  0
  153.1976  138.7369  157.5115 O   0  0  0  0  0  0  0  0  0  0  0  0
  152.3453  143.3189  158.4706 C   0  0  1  0  0  0  0  0  0  0  0  0
  152.8207  144.7717  158.2818 C   0  0  0  0  0  0  0  0  0  0  0  0
  152.7217  142.8525  159.7997 N   0  0  0  0  0  0  0  0  0  0  0  0
  152.3485  143.3587  161.0290 C   0  0  0  0  0  0  0  0  0  0  0  0
  152.9436  142.5884  161.9864 C   0  0  0  0  0  0  0  0  0  0  0  0
  153.6723  141.6230  161.2376 C   0  0  0  0  0  0  0  0  0  0  0  0
  153.5395  141.7843  159.9315 N   0  0  0  0  0  0  0  0  0  0  0  0
  150.1174  144.9373  159.2625 H   0  0  0  0  0  0  0  0  0  0  0  0
  150.1390  143.4866  160.2567 H   0  0  0  0  0  0  0  0  0  0  0  0
  148.8786  143.7299  159.0515 H   0  0  0  0  0  0  0  0  0  0  0  0
  150.6047  143.5596  157.2184 H   0  0  0  0  0  0  0  0  0  0  0  0
  149.7291  141.5310  158.8043 H   0  0  0  0  0  0  0  0  0  0  0  0
  149.6703  140.2920  156.9201 H   0  0  0  0  0  0  0  0  0  0  0  0
  149.7671  141.9215  156.2633 H   0  0  0  0  0  0  0  0  0  0  0  0
  151.8024  141.4447  155.3352 H   0  0  0  0  0  0  0  0  0  0  0  0
  152.4597  141.1008  156.9097 H   0  0  0  0  0  0  0  0  0  0  0  0
  150.5366  136.7580  154.9774 H   0  0  0  0  0  0  0  0  0  0  0  0
  151.9145  137.1073  153.8898 H   0  0  0  0  0  0  0  0  0  0  0  0
  152.7792  136.4756  156.2446 H   0  0  0  0  0  0  0  0  0  0  0  0
  152.8847  142.7019  157.7486 H   0  0  0  0  0  0  0  0  0  0  0  0
  152.6634  145.1146  157.2592 H   0  0  0  0  0  0  0  0  0  0  0  0
  153.8866  144.8642  158.4924 H   0  0  0  0  0  0  0  0  0  0  0  0
  152.2897  145.4555  158.9446 H   0  0  0  0  0  0  0  0  0  0  0  0
  151.6958  144.2145  161.1186 H   0  0  0  0  0  0  0  0  0  0  0  0
  152.8688  142.6976  163.0580 H   0  0  0  0  0  0  0  0  0  0  0  0
  154.2895  140.8148  161.6015 H   0  0  0  0  0  0  0  0  0  0  0  0
  1  2  1  0  0  0  0
  1 20  1  0  0  0  0
  1 21  1  0  0  0  0
  1 22  1  0  0  0  0
  2  3  1  0  0  0  0
  2 13  1  0  0  0  0
  2 23  1  0  0  0  0
  3  4  1  0  0  0  0
  3 24  1  0  0  0  0
  4  5  1  0  0  0  0
  4 25  1  0  0  0  0
  4 26  1  0  0  0  0
  5  6  1  0  0  0  0
  5 27  1  0  0  0  0
  5 28  1  0  0  0  0
  6 11  1  0  0  0  0
  6  7  1  0  0  0  0
  7  8  2  0  0  0  0
  7  9  1  0  0  0  0
  9 10  1  0  0  0  0
  9 29  1  0  0  0  0
  9 30  1  0  0  0  0
 10 11  1  0  0  0  0
 10 31  1  0  0  0  0
 11 12  2  0  0  0  0
 13 14  1  0  0  0  0
 13 15  1  0  0  0  0
 13 32  1  0  0  0  0
 14 33  1  0  0  0  0
 14 34  1  0  0  0  0
 14 35  1  0  0  0  0
 15 19  1  0  0  0  0
 15 16  1  0  0  0  0
 16 17  2  0  0  0  0
 16 36  1  0  0  0  0
 17 18  1  0  0  0  0
 17 37  1  0  0  0  0
 18 19  2  0  0  0  0
 18 38  1  0  0  0  0
M  END
> <s_m_source_file>
AV-unprocessed.smi

> <i_m_source_file_index>
3330

> <i_lp_mmshare_version>
43012

> <i_f3d_flags>
0

> <s_epik_input>
bjFbY0hdW2NIXVtjSF1uMVtDQEBIXShbQ0gzXSlbQ0BIXShbQ0gzXSlbTkhdW0NIMl1bQ0gyXU4yQyg9TylbQ0gyXVtOSF1DMj1P

> <s_epik_cmdline>
J2VwaWtfcHl0aG9uJywgJy1waCcsICc3LjAnLCAnLXRuJywgJzgnLCAnLW1hJywgJzIwMCcsICctbWV0YWxfYmluZGluZycsICctaW1hZScsICc8aW5maWxlLm1hZT4nLCAnLW9tYWUnLCAnPG91dGZpbGUubWFlPic=

> <r_lp_tautomer_probability>
1

> <r_epik_Ionization_Penalty>
2.2997

> <r_epik_Ionization_Penalty_Charging>
0

> <r_epik_Ionization_Penalty_Neutral>
2.2997

> <r_epik_State_Penalty>
2.44917

> <r_epik_Charging_Adjusted_Penalty>
2.44917

> <i_epik_Tot_Q>
0

> <i_epik_Tot_abs_Q>
0

> <r_epik_Metal_State_Penalty>
2.52438

> <b_epik_Metal_Only>
0

> <s_lp_Force_Field>
OPLS_2005

> <r_lp_Energy>
27.6633

> <b_lp_Chiralities_Consistent>
1

> <s_lp_Variant>
AV-unprocessed.smi:3330-7

> <Gold.Version>
5.8.1

> <Gold.Id.Protein>
6NUR|6NUR_protein|mol2

> <Gold.PLP.Fitness>
46.9667

> <Gold.PLP.PLP>
-44.1872

> <Gold.PLP.part.hbond>
-2.0000

> <Gold.PLP.part.metal>
0.0000

> <Gold.PLP.part.buried>
-7.1331

> <Gold.PLP.part.nonpolar>
-35.7900

> <Gold.PLP.part.repulsive>
0.7809

> <Gold.PLP.ligand.clash>
0.0000

> <Gold.PLP.ligand.torsion>
1.3790

> <Gold.PLP.Chemscore.Hbond>
1.8000

> <Gold.PLP.Chemscore.CHOScore>
0.0000

> <Gold.PLP.Chemscore.Metal>
0.0000

> <Gold.Chemscore.Hbonds>
donor molecule, donor type, donor heavy atom, donor atom, acceptor molecule, acceptor atom, score
      P1  H  7989  7998       L1     8  0.84
      P1  H  7997  8009       L1    12  1.00

> <Gold.PLP.Chemscore.Internal.Correction>
0.1375

> <Gold.Rescore>
     Score         DG    S(hbond)    S(metal)    S(lipo)     H(rot)  DE(clash)    DE(int)     intcor
     12.07     -13.59       0.99        0.00      97.99       2.60       0.21       1.31       ----

> <Gold.Chemscore.Fitness>
12.0669

> <Gold.Chemscore.DG>
-13.5922

> <Gold.Chemscore.ZeroCoef>
-5.4800

> <Gold.Chemscore.Hbond>
0.9853

> <Gold.Chemscore.Metal>
0.0000

> <Gold.Chemscore.Lipo>
97.9916

> <Gold.Chemscore.Internal_Hbond>
0.0000

> <Gold.Chemscore.DEClash>
0.2145

> <Gold.Chemscore.DEInternal>
1.3108

> <Gold.Chemscore.Rot>
2.5952

> <Gold.Chemscore.Internal.Correction>
   9.000000E+99

> <Gold.Chemscore.Hbonds>
donor molecule, donor type, donor heavy atom, donor atom, acceptor molecule, acceptor atom, score
      P1  H  7989  7998       L1     8  0.13
      P1  H  7997  8009       L1    12  0.64

> <Gold.Chemscore.Hbond.Weighted>
-3.2909

> <Gold.Chemscore.Metal.Weighted>
-0.0000

> <Gold.Chemscore.Lipo.Weighted>
-11.4650

> <Gold.Chemscore.Internal_Hbond.Weighted>
0.0000

> <Gold.Chemscore.DEClash.Weighted>
0.2145

> <Gold.Chemscore.DEInternal.Weighted>
1.3108

> <Gold.Chemscore.Rot.Weighted>
6.6437

> <Gold.Chemscore.Internal.Correction.Weighted>
   9.000000E+99

> <Gold.Protein.RotatedTorsions>
[ 6907 6896 6895 6894 ] final   -3.75 input  -60.11 | X-H torsion
[ 7974 7965 7964 7962 ] final  107.17 input  175.53 | X-H torsion
[ 8008 7997 7996 7995 ] final  156.98 input   59.86 | X-H torsion
[ 10167 10162 10161 10158 ] final   46.31 input  -65.29 | X-H torsion
[ 10718 10713 10712 10709 ] final    1.15 input   66.30 | X-H torsion
[ 10763 10752 10751 10750 ] final   50.83 input  -60.55 | X-H torsion
[ 11005 11000 10999 10996 ] final  -56.90 input  -57.11 | X-H torsion

> <Gold.Protein.ActiveResidues>
 VAL166  LYS551  ARG553  GLY616  TRP617  ASP618  TYR619  PRO620  LYS621  CYS622 
 ASP623  PHE694  ASN695  SER759  ASP760  ASP761  ALA762  ILE779  LEU786  VAL792 
 PHE793  MET794  SER795  GLU796  ALA797  LYS798  CYS799  TRP800  GLU811  SER814 

> <Gold.Protein.RotatedAtoms>
  151.5087  135.1064  159.9847 H   0  0  0  0  0  0  0  0  0  0  0  0  # atno 6907 bound_to 6896
  152.4671  133.7942  159.6929 H   0  0  0  0  0  0  0  0  0  0  0  0  # atno 6908 bound_to 6896
  150.8660  133.7511  159.3002 H   0  0  0  0  0  0  0  0  0  0  0  0  # atno 6909 bound_to 6896
  145.2971  139.2581  143.3834 H   0  0  0  0  0  0  0  0  0  0  0  0  # atno 7974 bound_to 7965
  156.2391  140.1898  156.7038 H   0  0  0  0  0  0  0  0  0  0  0  0  # atno 8008 bound_to 7997
  154.6163  140.0615  156.9585 H   0  0  0  0  0  0  0  0  0  0  0  0  # atno 8009 bound_to 7997
  155.1935  140.3286  155.4357 H   0  0  0  0  0  0  0  0  0  0  0  0  # atno 8010 bound_to 7997
  140.3152  144.2772  150.6192 H   0  0  0  0  0  0  0  0  0  0  0  0  # atno 10167 bound_to 10162
  156.8439  130.5530  149.5675 H   0  0  0  0  0  0  0  0  0  0  0  0  # atno 10718 bound_to 10713
  152.9784  135.5866  154.4316 H   0  0  0  0  0  0  0  0  0  0  0  0  # atno 10763 bound_to 10752
  154.3928  135.2768  155.2146 H   0  0  0  0  0  0  0  0  0  0  0  0  # atno 10764 bound_to 10752
  154.4011  135.6103  153.5952 H   0  0  0  0  0  0  0  0  0  0  0  0  # atno 10765 bound_to 10752
  141.1141  133.6610  156.4689 H   0  0  0  0  0  0  0  0  0  0  0  0  # atno 11005 bound_to 11000
  146.3165  140.3476  142.8653 LP  0  0  0  0  0  0  0  0  0  0  0  0  # atno 17320 bound_to 7965
  144.9124  140.7773  143.5799 LP  0  0  0  0  0  0  0  0  0  0  0  0  # atno 17321 bound_to 7965
  140.5533  143.2203  151.7890 LP  0  0  0  0  0  0  0  0  0  0  0  0  # atno 17342 bound_to 10162
  139.4885  144.4448  151.9723 LP  0  0  0  0  0  0  0  0  0  0  0  0  # atno 17343 bound_to 10162
  156.0865  130.5862  150.9658 LP  0  0  0  0  0  0  0  0  0  0  0  0  # atno 17370 bound_to 10713
  157.6340  131.0918  150.8384 LP  0  0  0  0  0  0  0  0  0  0  0  0  # atno 17371 bound_to 10713
  140.4695  134.6766  157.5122 LP  0  0  0  0  0  0  0  0  0  0  0  0  # atno 17394 bound_to 11000
  140.0052  134.6775  155.9467 LP  0  0  0  0  0  0  0  0  0  0  0  0  # atno 17395 bound_to 11000

$$$$
