AV-unprocessed.smi:1372|AV-procd|sdf|5585|dock4
  -GOLD-   22720 5183D 1   1.00000     0.00000
 Structure written by MMmdl.
 42 44  0  0  0  0  0  0  0  0  2 V2000
  153.0723  137.7236  157.0885 C   0  0  0  0  0  0  0  0  0  0  0  0
  151.5784  137.0119  156.2813 S   0  0  0  0  0  0  0  0  0  0  0  0
  151.7777  135.5595  156.1580 O   0  0  0  0  0  0  0  0  0  0  0  0
  150.3897  137.5306  156.9742 O   0  0  0  0  0  0  0  0  0  0  0  0
  151.6394  137.7618  154.5952 C   0  0  0  0  0  0  0  0  0  0  0  0
  150.5081  138.7209  154.4020 C   0  0  0  0  0  0  0  0  0  0  0  0
  149.4143  138.5130  153.6146 N   0  3  0  0  0  0  0  0  0  0  0  0
  148.5649  139.6177  153.6811 C   0  0  0  0  0  0  0  0  0  0  0  0
  147.3459  139.8696  153.0589 C   0  0  0  0  0  0  0  0  0  0  0  0
  146.7325  141.1066  153.3467 C   0  0  0  0  0  0  0  0  0  0  0  0
  147.3299  142.0362  154.2228 C   0  0  0  0  0  0  0  0  0  0  0  0
  148.5662  141.7697  154.8473 C   0  0  0  0  0  0  0  0  0  0  0  0
  149.1663  140.5451  154.5554 C   0  0  0  0  0  0  0  0  0  0  0  0
  150.3619  139.9517  154.9751 N   0  0  0  0  0  0  0  0  0  0  0  0
  151.2289  140.6839  155.9115 C   0  0  0  0  0  0  0  0  0  0  0  0
  150.5183  141.0409  157.2314 C   0  0  1  0  0  0  0  0  0  0  0  0
  150.2790  139.8640  157.9796 O   0  0  0  0  0  0  0  0  0  0  0  0
  151.3090  142.0748  158.0165 C   0  0  0  0  0  0  0  0  0  0  0  0
  151.8719  141.7513  159.2711 C   0  0  0  0  0  0  0  0  0  0  0  0
  152.6118  142.7132  159.9860 C   0  0  0  0  0  0  0  0  0  0  0  0
  152.7969  144.0017  159.4495 C   0  0  0  0  0  0  0  0  0  0  0  0
  152.2425  144.3280  158.1969 C   0  0  0  0  0  0  0  0  0  0  0  0
  151.5009  143.3672  157.4823 C   0  0  0  0  0  0  0  0  0  0  0  0
  153.1340  137.3612  158.1144 H   0  0  0  0  0  0  0  0  0  0  0  0
  153.0022  138.8111  157.0965 H   0  0  0  0  0  0  0  0  0  0  0  0
  153.9676  137.4184  156.5473 H   0  0  0  0  0  0  0  0  0  0  0  0
  152.5884  138.2866  154.4859 H   0  0  0  0  0  0  0  0  0  0  0  0
  151.6127  136.9662  153.8512 H   0  0  0  0  0  0  0  0  0  0  0  0
  146.8865  139.1585  152.3881 H   0  0  0  0  0  0  0  0  0  0  0  0
  145.7847  141.3466  152.8872 H   0  0  0  0  0  0  0  0  0  0  0  0
  146.8297  142.9734  154.4198 H   0  0  0  0  0  0  0  0  0  0  0  0
  149.0151  142.4885  155.5169 H   0  0  0  0  0  0  0  0  0  0  0  0
  152.1080  140.0701  156.1068 H   0  0  0  0  0  0  0  0  0  0  0  0
  151.5947  141.5819  155.4120 H   0  0  0  0  0  0  0  0  0  0  0  0
  149.5396  141.4648  157.0031 H   0  0  0  0  0  0  0  0  0  0  0  0
  151.0081  139.2758  157.8524 H   0  0  0  0  0  0  0  0  0  0  0  0
  151.7406  140.7636  159.6885 H   0  0  0  0  0  0  0  0  0  0  0  0
  153.0389  142.4617  160.9456 H   0  0  0  0  0  0  0  0  0  0  0  0
  153.3656  144.7386  159.9972 H   0  0  0  0  0  0  0  0  0  0  0  0
  152.3870  145.3154  157.7837 H   0  0  0  0  0  0  0  0  0  0  0  0
  151.0823  143.6270  156.5210 H   0  0  0  0  0  0  0  0  0  0  0  0
  149.2659  137.6761  153.0649 H   0  0  0  0  0  0  0  0  0  0  0  0
  1  2  1  0  0  0  0
  1 24  1  0  0  0  0
  1 25  1  0  0  0  0
  1 26  1  0  0  0  0
  2  3  2  0  0  0  0
  2  4  2  0  0  0  0
  2  5  1  0  0  0  0
  5  6  1  0  0  0  0
  5 27  1  0  0  0  0
  5 28  1  0  0  0  0
  6 14  1  0  0  0  0
  6  7  2  0  0  0  0
  7  8  1  0  0  0  0
  7 42  1  0  0  0  0
  8 13  2  0  0  0  0
  8  9  1  0  0  0  0
  9 10  2  0  0  0  0
  9 29  1  0  0  0  0
 10 11  1  0  0  0  0
 10 30  1  0  0  0  0
 11 12  2  0  0  0  0
 11 31  1  0  0  0  0
 12 13  1  0  0  0  0
 12 32  1  0  0  0  0
 13 14  1  0  0  0  0
 14 15  1  0  0  0  0
 15 16  1  0  0  0  0
 15 33  1  0  0  0  0
 15 34  1  0  0  0  0
 16 17  1  0  0  0  0
 16 18  1  0  0  0  0
 16 35  1  0  0  0  0
 17 36  1  0  0  0  0
 18 23  1  0  0  0  0
 18 19  2  0  0  0  0
 19 20  1  0  0  0  0
 19 37  1  0  0  0  0
 20 21  2  0  0  0  0
 20 38  1  0  0  0  0
 21 22  1  0  0  0  0
 21 39  1  0  0  0  0
 22 23  2  0  0  0  0
 22 40  1  0  0  0  0
 23 41  1  0  0  0  0
M  CHG  1   7   1
M  END
> <s_m_source_file>
AV-unprocessed.smi

> <i_m_source_file_index>
1372

> <i_lp_mmshare_version>
43012

> <i_f3d_flags>
0

> <s_epik_input>
W2NIXTFbY0hdW2NIXVtjSF1jKGMxMiluKGMobjIpW0NIMl1TKD1PKSg9TylbQ0gzXSlbQ0gyXVtDQEhdKFtPSF0pYzNbY0hdW2NIXVtjSF1bY0hdW2NIXTM=

> <s_epik_cmdline>
J2VwaWtfcHl0aG9uJywgJy1waCcsICc3LjAnLCAnLXRuJywgJzgnLCAnLW1hJywgJzIwMCcsICctbWV0YWxfYmluZGluZycsICctaW1hZScsICc8aW5maWxlLm1hZT4nLCAnLW9tYWUnLCAnPG91dGZpbGUubWFlPic=

> <r_epik_Ionization_Penalty>
2.1801

> <r_epik_Ionization_Penalty_Charging>
2.1801

> <r_epik_Ionization_Penalty_Neutral>
1.34362e-06

> <r_epik_State_Penalty>
2.32206

> <r_epik_Charging_Adjusted_Penalty>
4.50216

> <i_epik_Tot_Q>
1

> <i_epik_Tot_abs_Q>
1

> <r_epik_Metal_State_Penalty>
6.40294

> <b_epik_Metal_Only>
0

> <s_lp_Force_Field>
OPLS_2005

> <r_lp_Energy>
11.7857

> <b_lp_Chiralities_Consistent>
1

> <s_lp_Variant>
AV-unprocessed.smi:1372-4

> <Gold.Version>
5.8.1

> <Gold.Id.Protein>
6NUR|6NUR_protein|mol2

> <Gold.PLP.Fitness>
57.9689

> <Gold.PLP.PLP>
-49.5595

> <Gold.PLP.part.hbond>
-3.0000

> <Gold.PLP.part.metal>
0.0000

> <Gold.PLP.part.buried>
1.4811

> <Gold.PLP.part.nonpolar>
-48.4867

> <Gold.PLP.part.repulsive>
0.0775

> <Gold.PLP.ligand.clash>
0.0000

> <Gold.PLP.ligand.torsion>
0.3934

> <Gold.PLP.Chemscore.Hbond>
3.0000

> <Gold.PLP.Chemscore.CHOScore>
0.0000

> <Gold.PLP.Chemscore.Metal>
0.0000

> <Gold.Chemscore.Hbonds>
donor molecule, donor type, donor heavy atom, donor atom, acceptor molecule, acceptor atom, score
      L1  H     7    42       P1  7948  2.00
      P1  H 10752 10765       L1     3  1.00

> <Gold.PLP.Chemscore.Internal.Correction>
0.1962

> <Gold.Rescore>
     Score         DG    S(hbond)    S(metal)    S(lipo)     H(rot)  DE(clash)    DE(int)     intcor
     20.33     -20.90       1.83        0.00     131.91       2.40       0.18       0.38       ----

> <Gold.Chemscore.Fitness>
20.3313

> <Gold.Chemscore.DG>
-20.8967

> <Gold.Chemscore.ZeroCoef>
-5.4800

> <Gold.Chemscore.Hbond>
1.8309

> <Gold.Chemscore.Metal>
0.0000

> <Gold.Chemscore.Lipo>
131.9065

> <Gold.Chemscore.Internal_Hbond>
0.0000

> <Gold.Chemscore.DEClash>
0.1837

> <Gold.Chemscore.DEInternal>
0.3816

> <Gold.Chemscore.Rot>
2.3951

> <Gold.Chemscore.Internal.Correction>
   9.000000E+99

> <Gold.Chemscore.Hbonds>
donor molecule, donor type, donor heavy atom, donor atom, acceptor molecule, acceptor atom, score
      L1  H     7    42       P1  7948  0.98
      P1  H 10752 10765       L1     3  0.40

> <Gold.Chemscore.Hbond.Weighted>
-6.1150

> <Gold.Chemscore.Metal.Weighted>
-0.0000

> <Gold.Chemscore.Lipo.Weighted>
-15.4331

> <Gold.Chemscore.Internal_Hbond.Weighted>
0.0000

> <Gold.Chemscore.DEClash.Weighted>
0.1837

> <Gold.Chemscore.DEInternal.Weighted>
0.3816

> <Gold.Chemscore.Rot.Weighted>
6.1314

> <Gold.Chemscore.Internal.Correction.Weighted>
   9.000000E+99

> <Gold.Protein.RotatedTorsions>
[ 6907 6896 6895 6894 ] final  142.80 input  -60.11 | X-H torsion
[ 7974 7965 7964 7962 ] final  -26.16 input  175.53 | X-H torsion
[ 8008 7997 7996 7995 ] final  -22.18 input   59.86 | X-H torsion
[ 10167 10162 10161 10158 ] final   75.77 input  -65.29 | X-H torsion
[ 10718 10713 10712 10709 ] final -140.20 input   66.30 | X-H torsion
[ 10763 10752 10751 10750 ] final -144.91 input  -60.55 | X-H torsion
[ 11005 11000 10999 10996 ] final -176.25 input  -57.11 | X-H torsion

> <Gold.Protein.ActiveResidues>
 VAL166  LYS551  ARG553  GLY616  TRP617  ASP618  TYR619  PRO620  LYS621  CYS622 
 ASP623  PHE694  ASN695  SER759  ASP760  ASP761  ALA762  ILE779  LEU786  VAL792 
 PHE793  MET794  SER795  GLU796  ALA797  LYS798  CYS799  TRP800  GLU811  SER814 

> <Gold.Protein.RotatedAtoms>
  152.2142  133.4934  159.5126 H   0  0  0  0  0  0  0  0  0  0  0  0  # atno 6907 bound_to 6896
  150.6997  134.1427  159.4120 H   0  0  0  0  0  0  0  0  0  0  0  0  # atno 6908 bound_to 6896
  151.9347  135.0240  160.0582 H   0  0  0  0  0  0  0  0  0  0  0  0  # atno 6909 bound_to 6896
  146.1444  140.4982  142.8638 H   0  0  0  0  0  0  0  0  0  0  0  0  # atno 7974 bound_to 7965
  154.4660  140.2015  156.0118 H   0  0  0  0  0  0  0  0  0  0  0  0  # atno 8008 bound_to 7997
  156.0927  140.3255  155.7808 H   0  0  0  0  0  0  0  0  0  0  0  0  # atno 8009 bound_to 7997
  155.4929  140.0547  157.2941 H   0  0  0  0  0  0  0  0  0  0  0  0  # atno 8010 bound_to 7997
  139.9994  144.5697  150.7750 H   0  0  0  0  0  0  0  0  0  0  0  0  # atno 10167 bound_to 10162
  156.3195  130.7526  151.1621 H   0  0  0  0  0  0  0  0  0  0  0  0  # atno 10718 bound_to 10713
  154.8407  135.3427  154.6422 H   0  0  0  0  0  0  0  0  0  0  0  0  # atno 10763 bound_to 10752
  153.7033  135.6968  153.5062 H   0  0  0  0  0  0  0  0  0  0  0  0  # atno 10764 bound_to 10752
  153.2506  135.4354  155.0748 H   0  0  0  0  0  0  0  0  0  0  0  0  # atno 10765 bound_to 10752
  140.4542  134.6315  157.4815 H   0  0  0  0  0  0  0  0  0  0  0  0  # atno 11005 bound_to 11000
  144.7829  140.5877  143.6593 LP  0  0  0  0  0  0  0  0  0  0  0  0  # atno 17320 bound_to 7965
  145.4972  139.1485  143.3677 LP  0  0  0  0  0  0  0  0  0  0  0  0  # atno 17321 bound_to 7965
  140.7424  143.2832  151.3538 LP  0  0  0  0  0  0  0  0  0  0  0  0  # atno 17342 bound_to 10162
  139.6282  144.0772  152.2453 LP  0  0  0  0  0  0  0  0  0  0  0  0  # atno 17343 bound_to 10162
  157.7409  131.0511  150.5136 LP  0  0  0  0  0  0  0  0  0  0  0  0  # atno 17370 bound_to 10713
  156.5286  130.4179  149.6213 LP  0  0  0  0  0  0  0  0  0  0  0  0  # atno 17371 bound_to 10713
  139.9987  134.6871  155.9566 LP  0  0  0  0  0  0  0  0  0  0  0  0  # atno 17394 bound_to 11000
  141.1650  133.6537  156.4449 LP  0  0  0  0  0  0  0  0  0  0  0  0  # atno 17395 bound_to 11000

$$$$
