AV-unprocessed.smi:128|AV-procd|sdf|1156|dock1
  -GOLD-   2262018293D 1   1.00000     0.00000
 Structure written by MMmdl.
 41 44  0  0  0  0  0  0  0  0  1 V2000
  150.5475  140.0360  154.1221 O   0  0  0  0  0  0  0  0  0  0  0  0
  150.0705  138.9121  154.2881 C   0  0  0  0  0  0  0  0  0  0  0  0
  148.6545  138.6066  154.1148 C   0  0  0  0  0  0  0  0  0  0  0  0
  147.7980  139.5883  153.7859 F   0  0  0  0  0  0  0  0  0  0  0  0
  148.1872  137.3507  154.2820 C   0  0  0  0  0  0  0  0  0  0  0  0
  148.9981  136.2808  154.6180 N   0  0  0  0  0  0  0  0  0  0  0  0
  148.4191  134.8957  154.7873 C   0  0  1  0  0  0  0  0  0  0  0  0
  149.1644  133.8837  153.9090 C   0  0  0  0  0  0  0  0  0  0  0  0
  149.2648  132.6898  154.8335 C   0  0  0  0  0  0  0  0  0  0  0  0
  149.4250  133.3640  156.1901 C   0  0  0  0  0  0  0  0  0  0  0  0
  148.5646  134.4968  156.1205 O   0  0  0  0  0  0  0  0  0  0  0  0
  150.3799  136.4856  154.8250 C   0  0  0  0  0  0  0  0  0  0  0  0
  151.1211  135.5494  155.1331 O   0  0  0  0  0  0  0  0  0  0  0  0
  150.8705  137.8035  154.6590 N   0  0  0  0  0  0  0  0  0  0  0  0
  152.2963  138.0347  154.8332 C   0  0  0  0  0  0  0  0  0  0  0  0
  152.5966  138.5909  156.1927 C   0  0  0  0  0  0  0  0  0  0  0  0
  153.2825  137.9946  157.1687 N   0  0  0  0  0  0  0  0  0  0  0  0
  153.2978  138.8880  158.2155 N   0  0  0  0  0  0  0  0  0  0  0  0
  152.6183  139.9623  157.7996 C   0  0  0  0  0  0  0  0  0  0  0  0
  152.3315  141.1952  158.5307 C   0  0  0  0  0  0  0  0  0  0  0  0
  152.8058  141.3827  159.8495 C   0  0  0  0  0  0  0  0  0  0  0  0
  152.5257  142.5760  160.5436 C   0  0  0  0  0  0  0  0  0  0  0  0
  151.7668  143.5893  159.9277 C   0  0  0  0  0  0  0  0  0  0  0  0
  151.3902  145.2016  160.8659 Br  0  0  0  0  0  0  0  0  0  0  0  0
  151.2869  143.4081  158.6168 C   0  0  0  0  0  0  0  0  0  0  0  0
  151.5679  142.2161  157.9213 C   0  0  0  0  0  0  0  0  0  0  0  0
  152.1586  139.8334  156.5262 O   0  0  0  0  0  0  0  0  0  0  0  0
  147.1297  137.1853  154.1454 H   0  0  0  0  0  0  0  0  0  0  0  0
  147.3508  134.9523  154.5755 H   0  0  0  0  0  0  0  0  0  0  0  0
  148.6198  133.6847  152.9857 H   0  0  0  0  0  0  0  0  0  0  0  0
  150.1596  134.2585  153.6643 H   0  0  0  0  0  0  0  0  0  0  0  0
  148.3388  132.1137  154.8066 H   0  0  0  0  0  0  0  0  0  0  0  0
  150.0923  132.0242  154.5863 H   0  0  0  0  0  0  0  0  0  0  0  0
  149.1551  132.7091  157.0191 H   0  0  0  0  0  0  0  0  0  0  0  0
  150.4549  133.6910  156.3365 H   0  0  0  0  0  0  0  0  0  0  0  0
  152.8122  137.0860  154.6753 H   0  0  0  0  0  0  0  0  0  0  0  0
  152.6539  138.7077  154.0534 H   0  0  0  0  0  0  0  0  0  0  0  0
  153.3916  140.6184  160.3392 H   0  0  0  0  0  0  0  0  0  0  0  0
  152.8947  142.7137  161.5493 H   0  0  0  0  0  0  0  0  0  0  0  0
  150.7029  144.1834  158.1430 H   0  0  0  0  0  0  0  0  0  0  0  0
  151.1920  142.0924  156.9161 H   0  0  0  0  0  0  0  0  0  0  0  0
  1  2  2  0  0  0  0
  2 14  1  0  0  0  0
  2  3  1  0  0  0  0
  3  4  1  0  0  0  0
  3  5  2  0  0  0  0
  5  6  1  0  0  0  0
  5 28  1  0  0  0  0
  6  7  1  0  0  0  0
  6 12  1  0  0  0  0
  7 11  1  0  0  0  0
  7  8  1  0  0  0  0
  7 29  1  0  0  0  0
  8  9  1  0  0  0  0
  8 30  1  0  0  0  0
  8 31  1  0  0  0  0
  9 10  1  0  0  0  0
  9 32  1  0  0  0  0
  9 33  1  0  0  0  0
 10 11  1  0  0  0  0
 10 34  1  0  0  0  0
 10 35  1  0  0  0  0
 12 13  2  0  0  0  0
 12 14  1  0  0  0  0
 14 15  1  0  0  0  0
 15 16  1  0  0  0  0
 15 36  1  0  0  0  0
 15 37  1  0  0  0  0
 16 27  1  0  0  0  0
 16 17  2  0  0  0  0
 17 18  1  0  0  0  0
 18 19  2  0  0  0  0
 19 20  1  0  0  0  0
 19 27  1  0  0  0  0
 20 26  1  0  0  0  0
 20 21  2  0  0  0  0
 21 22  1  0  0  0  0
 21 38  1  0  0  0  0
 22 23  2  0  0  0  0
 22 39  1  0  0  0  0
 23 24  1  0  0  0  0
 23 25  1  0  0  0  0
 25 26  2  0  0  0  0
 25 40  1  0  0  0  0
 26 41  1  0  0  0  0
M  END
> <s_m_source_file>
AV-unprocessed.smi

> <i_m_source_file_index>
128

> <i_lp_mmshare_version>
43012

> <i_f3d_flags>
0

> <s_epik_input>
TzFbQ0gyXVtDSDJdW0NIMl1bQ0BIXTFuKFtjSF1jKEYpYzI9TyljKD1PKW4yW0NIMl1jM25uYyhvMyktYzRbY0hdW2NIXWMoQnIpW2NIXVtjSF00

> <s_epik_cmdline>
J2VwaWtfcHl0aG9uJywgJy1waCcsICc3LjAnLCAnLXRuJywgJzgnLCAnLW1hJywgJzIwMCcsICctbWV0YWxfYmluZGluZycsICctaW1hZScsICc8aW5maWxlLm1hZT4nLCAnLW9tYWUnLCAnPG91dGZpbGUubWFlPic=

> <r_lp_tautomer_probability>
1

> <r_epik_Ionization_Penalty>
2.55537e-09

> <r_epik_Ionization_Penalty_Charging>
2.54231e-09

> <r_epik_Ionization_Penalty_Neutral>
1.30653e-11

> <r_epik_State_Penalty>
-0

> <r_epik_Charging_Adjusted_Penalty>
2.54231e-09

> <i_epik_Tot_Q>
0

> <i_epik_Tot_abs_Q>
0

> <r_epik_Metal_State_Penalty>
-0

> <b_epik_Metal_Only>
0

> <s_epik_Chemistry_Notes>
This compound contains an acetal/aminal-like group ( X-CH(R)-Y where X, Y are N, S, or O) that may be acid/base labile, releasing an aldehyde.

> <s_lp_Force_Field>
OPLS_2005

> <r_lp_Energy>
32.2768

> <b_lp_Chiralities_Consistent>
1

> <s_lp_Variant>
AV-unprocessed.smi:128-2

> <Gold.Version>
5.8.1

> <Gold.Id.Protein>
6NUR|6NUR_protein|mol2

> <Gold.PLP.Fitness>
49.0762

> <Gold.PLP.PLP>
-42.3707

> <Gold.PLP.part.hbond>
-4.0601

> <Gold.PLP.part.metal>
0.0000

> <Gold.PLP.part.buried>
-1.3945

> <Gold.PLP.part.nonpolar>
-37.3844

> <Gold.PLP.part.repulsive>
1.2432

> <Gold.PLP.ligand.clash>
0.0000

> <Gold.PLP.ligand.torsion>
0.3950

> <Gold.PLP.Chemscore.Hbond>
2.4901

> <Gold.PLP.Chemscore.CHOScore>
0.0000

> <Gold.PLP.Chemscore.Metal>
0.0000

> <Gold.Chemscore.Hbonds>
donor molecule, donor type, donor heavy atom, donor atom, acceptor molecule, acceptor atom, score
      P1  H  7989  7998       L1     1  0.91
      P1  H 10752 10763       L1    13  1.00

> <Gold.PLP.Chemscore.Internal.Correction>
0.0253

> <Gold.Rescore>
     Score         DG    S(hbond)    S(metal)    S(lipo)     H(rot)  DE(clash)    DE(int)     intcor
     13.83     -19.30       1.96        0.00      99.27       1.70       2.19       3.27       ----

> <Gold.Chemscore.Fitness>
13.8341

> <Gold.Chemscore.DG>
-19.3017

> <Gold.Chemscore.ZeroCoef>
-5.4800

> <Gold.Chemscore.Hbond>
1.9621

> <Gold.Chemscore.Metal>
0.0000

> <Gold.Chemscore.Lipo>
99.2746

> <Gold.Chemscore.Internal_Hbond>
0.0000

> <Gold.Chemscore.DEClash>
2.1932

> <Gold.Chemscore.DEInternal>
3.2744

> <Gold.Chemscore.Rot>
1.6980

> <Gold.Chemscore.Internal.Correction>
   9.000000E+99

> <Gold.Chemscore.Hbonds>
donor molecule, donor type, donor heavy atom, donor atom, acceptor molecule, acceptor atom, score
      P1  H  7989  7998       L1     1  0.88
      P1  H 10752 10763       L1    13  0.98

> <Gold.Chemscore.Hbond.Weighted>
-6.5534

> <Gold.Chemscore.Metal.Weighted>
-0.0000

> <Gold.Chemscore.Lipo.Weighted>
-11.6151

> <Gold.Chemscore.Internal_Hbond.Weighted>
0.0000

> <Gold.Chemscore.DEClash.Weighted>
2.1932

> <Gold.Chemscore.DEInternal.Weighted>
3.2744

> <Gold.Chemscore.Rot.Weighted>
4.3469

> <Gold.Chemscore.Internal.Correction.Weighted>
   9.000000E+99

> <Gold.Protein.RotatedTorsions>
[ 6907 6896 6895 6894 ] final   25.88 input  -60.11 | X-H torsion
[ 7974 7965 7964 7962 ] final  114.91 input  175.53 | X-H torsion
[ 8008 7997 7996 7995 ] final -108.43 input   59.86 | X-H torsion
[ 10167 10162 10161 10158 ] final  -85.16 input  -65.29 | X-H torsion
[ 10718 10713 10712 10709 ] final -108.76 input   66.30 | X-H torsion
[ 10763 10752 10751 10750 ] final   68.79 input  -60.55 | X-H torsion
[ 11005 11000 10999 10996 ] final   -5.66 input  -57.11 | X-H torsion

> <Gold.Protein.ActiveResidues>
 VAL166  LYS551  ARG553  GLY616  TRP617  ASP618  TYR619  PRO620  LYS621  CYS622 
 ASP623  PHE694  ASN695  SER759  ASP760  ASP761  ALA762  ILE779  LEU786  VAL792 
 PHE793  MET794  SER795  GLU796  ALA797  LYS798  CYS799  TRP800  GLU811  SER814 

> <Gold.Protein.RotatedAtoms>
  151.9791  135.0038  160.0556 H   0  0  0  0  0  0  0  0  0  0  0  0  # atno 6907 bound_to 6896
  152.1713  133.4640  159.4918 H   0  0  0  0  0  0  0  0  0  0  0  0  # atno 6908 bound_to 6896
  150.6902  134.1867  159.4312 H   0  0  0  0  0  0  0  0  0  0  0  0  # atno 6909 bound_to 6896
  145.1986  139.2964  143.4330 H   0  0  0  0  0  0  0  0  0  0  0  0  # atno 7974 bound_to 7965
  154.9442  140.0402  157.2112 H   0  0  0  0  0  0  0  0  0  0  0  0  # atno 8008 bound_to 7997
  154.8040  140.2856  155.5879 H   0  0  0  0  0  0  0  0  0  0  0  0  # atno 8009 bound_to 7997
  156.2964  140.2549  156.2914 H   0  0  0  0  0  0  0  0  0  0  0  0  # atno 8010 bound_to 7997
  140.4064  143.2641  151.9075 H   0  0  0  0  0  0  0  0  0  0  0  0  # atno 10167 bound_to 10162
  156.0502  130.5729  150.8006 H   0  0  0  0  0  0  0  0  0  0  0  0  # atno 10718 bound_to 10713
  153.0253  135.5234  154.7189 H   0  0  0  0  0  0  0  0  0  0  0  0  # atno 10763 bound_to 10752
  154.6250  135.2893  155.0285 H   0  0  0  0  0  0  0  0  0  0  0  0  # atno 10764 bound_to 10752
  154.1258  135.6600  153.4964 H   0  0  0  0  0  0  0  0  0  0  0  0  # atno 10765 bound_to 10752
  140.6936  133.9050  155.8634 H   0  0  0  0  0  0  0  0  0  0  0  0  # atno 11005 bound_to 11000
  146.3422  140.2222  142.8591 LP  0  0  0  0  0  0  0  0  0  0  0  0  # atno 17320 bound_to 7965
  144.9970  140.8598  143.5304 LP  0  0  0  0  0  0  0  0  0  0  0  0  # atno 17321 bound_to 7965
  139.4783  144.5582  151.8281 LP  0  0  0  0  0  0  0  0  0  0  0  0  # atno 17342 bound_to 10162
  140.4685  144.1621  150.5915 LP  0  0  0  0  0  0  0  0  0  0  0  0  # atno 17343 bound_to 10162
  157.5420  131.0941  150.9814 LP  0  0  0  0  0  0  0  0  0  0  0  0  # atno 17370 bound_to 10713
  157.0095  130.5631  149.5319 LP  0  0  0  0  0  0  0  0  0  0  0  0  # atno 17371 bound_to 10713
  141.0221  134.0874  157.4108 LP  0  0  0  0  0  0  0  0  0  0  0  0  # atno 17394 bound_to 11000
  139.8916  135.0120  156.6803 LP  0  0  0  0  0  0  0  0  0  0  0  0  # atno 17395 bound_to 11000

$$$$
