AV-unprocessed.smi:53|AV-procd|sdf|520|dock3
  -GOLD-   2262016393D 1   1.00000     0.00000
 Structure written by MMmdl.
 30 31  0  0  0  0  0  0  0  0  1 V2000
  152.4230  135.8323  158.4531 N   0  0  0  0  0  0  0  0  0  0  0  0
  152.1080  137.0371  157.9568 C   0  0  0  0  0  0  0  0  0  0  0  0
  151.2432  137.9282  158.6967 C   0  0  0  0  0  0  0  0  0  0  0  0
  150.9690  139.1231  158.1287 C   0  0  0  0  0  0  0  0  0  0  0  0
  151.4762  139.4866  156.8887 N   0  0  0  0  0  0  0  0  0  0  0  0
  151.1628  140.8355  156.2806 C   0  0  1  0  0  0  0  0  0  0  0  0
  150.4427  140.6388  155.0986 O   0  0  0  0  0  0  0  0  0  0  0  0
  149.2933  141.4795  155.0771 C   0  0  1  0  0  0  0  0  0  0  0  0
  148.1957  140.8396  154.2128 C   0  0  0  0  0  0  0  0  0  0  0  0
  148.6618  140.6587  152.8927 O   0  0  0  0  0  0  0  0  0  0  0  0
  148.9263  141.5807  156.5583 C   0  0  2  0  0  0  0  0  0  0  0  0
  148.0900  142.6847  156.8497 O   0  0  0  0  0  0  0  0  0  0  0  0
  150.2884  141.6615  157.2382 C   0  0  2  0  0  0  0  0  0  0  0  0
  150.7647  142.9912  157.3461 O   0  0  0  0  0  0  0  0  0  0  0  0
  152.3389  138.6018  156.1985 C   0  0  0  0  0  0  0  0  0  0  0  0
  152.8449  138.8981  155.1169 O   0  0  0  0  0  0  0  0  0  0  0  0
  152.6035  137.3945  156.7879 N   0  0  0  0  0  0  0  0  0  0  0  0
  152.1183  141.3008  156.0304 H   0  0  0  0  0  0  0  0  0  0  0  0
  149.5737  142.4652  154.7002 H   0  0  0  0  0  0  0  0  0  0  0  0
  148.4251  140.6646  156.8741 H   0  0  0  0  0  0  0  0  0  0  0  0
  150.2704  141.2212  158.2363 H   0  0  0  0  0  0  0  0  0  0  0  0
  153.0301  135.2132  157.9355 H   0  0  0  0  0  0  0  0  0  0  0  0
  152.0546  135.5476  159.3491 H   0  0  0  0  0  0  0  0  0  0  0  0
  150.8201  137.6822  159.6602 H   0  0  0  0  0  0  0  0  0  0  0  0
  150.3329  139.8041  158.6746 H   0  0  0  0  0  0  0  0  0  0  0  0
  147.8616  139.8903  154.6326 H   0  0  0  0  0  0  0  0  0  0  0  0
  147.3264  141.4960  154.1640 H   0  0  0  0  0  0  0  0  0  0  0  0
  147.9211  140.4791  152.3339 H   0  0  0  0  0  0  0  0  0  0  0  0
  148.4130  143.4380  156.3788 H   0  0  0  0  0  0  0  0  0  0  0  0
  150.3564  143.5109  156.6707 H   0  0  0  0  0  0  0  0  0  0  0  0
  1  2  1  0  0  0  0
  1 22  1  0  0  0  0
  1 23  1  0  0  0  0
  2 17  2  0  0  0  0
  2  3  1  0  0  0  0
  3  4  2  0  0  0  0
  3 24  1  0  0  0  0
  4  5  1  0  0  0  0
  4 25  1  0  0  0  0
  5  6  1  0  0  0  0
  5 15  1  0  0  0  0
  6 18  1  0  0  0  0
  6 13  1  0  0  0  0
  6  7  1  0  0  0  0
  7  8  1  0  0  0  0
  8 19  1  0  0  0  0
  8  9  1  0  0  0  0
  8 11  1  0  0  0  0
  9 10  1  0  0  0  0
  9 26  1  0  0  0  0
  9 27  1  0  0  0  0
 10 28  1  0  0  0  0
 11 20  1  0  0  0  0
 11 12  1  0  0  0  0
 11 13  1  0  0  0  0
 12 29  1  0  0  0  0
 13 21  1  0  0  0  0
 13 14  1  0  0  0  0
 14 30  1  0  0  0  0
 15 16  2  0  0  0  0
 15 17  1  0  0  0  0
M  END
> <s_m_source_file>
AV-unprocessed.smi

> <i_m_source_file_index>
53

> <i_lp_mmshare_version>
43012

> <i_f3d_flags>
0

> <s_epik_input>
W05IMl1jMVtjSF1bY0hdbihjKD1PKW4xKVtDQEBIXTJPW0NASF0oW0NIMl1bT0hdKVtDQEBIXShbT0hdKVtDQEBIXTJbT0hd

> <s_epik_cmdline>
J2VwaWtfcHl0aG9uJywgJy1waCcsICc3LjAnLCAnLXRuJywgJzgnLCAnLW1hJywgJzIwMCcsICctbWV0YWxfYmluZGluZycsICctaW1hZScsICc8aW5maWxlLm1hZT4nLCAnLW9tYWUnLCAnPG91dGZpbGUubWFlPic=

> <r_lp_tautomer_probability>
0.99996

> <r_epik_Ionization_Penalty>
0.00069087

> <r_epik_Ionization_Penalty_Charging>
2.61959e-08

> <r_epik_Ionization_Penalty_Neutral>
0.000690844

> <r_epik_State_Penalty>
1.15523e-05

> <r_epik_Charging_Adjusted_Penalty>
1.15785e-05

> <i_epik_Tot_Q>
0

> <i_epik_Tot_abs_Q>
0

> <r_epik_Metal_State_Penalty>
-0

> <b_epik_Metal_Only>
0

> <s_epik_Chemistry_Notes>
This compound contains an acetal/aminal-like group ( X-CH(R)-Y where X, Y are N, S, or O) that may be acid/base labile, releasing an aldehyde.

> <s_lp_Force_Field>
OPLS_2005

> <r_lp_Energy>
33.3856

> <b_lp_Chiralities_Consistent>
1

> <s_lp_Variant>
AV-unprocessed.smi:53-8

> <Gold.Version>
5.8.1

> <Gold.Id.Protein>
6NUR|6NUR_protein|mol2

> <Gold.PLP.Fitness>
36.6613

> <Gold.PLP.PLP>
-23.1741

> <Gold.PLP.part.hbond>
-5.2748

> <Gold.PLP.part.metal>
0.0000

> <Gold.PLP.part.buried>
-1.7997

> <Gold.PLP.part.nonpolar>
-16.3325

> <Gold.PLP.part.repulsive>
0.2745

> <Gold.PLP.ligand.clash>
0.0000

> <Gold.PLP.ligand.torsion>
0.0391

> <Gold.PLP.Chemscore.Hbond>
4.5163

> <Gold.PLP.Chemscore.CHOScore>
0.0000

> <Gold.PLP.Chemscore.Metal>
0.0000

> <Gold.Chemscore.Hbonds>
donor molecule, donor type, donor heavy atom, donor atom, acceptor molecule, acceptor atom, score
      L1  H    12    29       P1  8028  0.99
      L1  H    14    30       P1  8028  0.71
      P1  H  7989  7998       L1     7  0.93
      P1  H  7997  8009       L1    16  0.13
      P1  H  8011  8017       L1    10  0.68

> <Gold.PLP.Chemscore.Internal.Correction>
0.0166

> <Gold.Rescore>
     Score         DG    S(hbond)    S(metal)    S(lipo)     H(rot)  DE(clash)    DE(int)     intcor
      8.80     -10.59       3.19        0.00      33.75       3.71       0.62       1.16       ----

> <Gold.Chemscore.Fitness>
8.8005

> <Gold.Chemscore.DG>
-10.5875

> <Gold.Chemscore.ZeroCoef>
-5.4800

> <Gold.Chemscore.Hbond>
3.1902

> <Gold.Chemscore.Metal>
0.0000

> <Gold.Chemscore.Lipo>
33.7488

> <Gold.Chemscore.Internal_Hbond>
0.0000

> <Gold.Chemscore.DEClash>
0.6241

> <Gold.Chemscore.DEInternal>
1.1629

> <Gold.Chemscore.Rot>
3.7095

> <Gold.Chemscore.Internal.Correction>
   9.000000E+99

> <Gold.Chemscore.Hbonds>
donor molecule, donor type, donor heavy atom, donor atom, acceptor molecule, acceptor atom, score
      L1  H    12    29       P1  8028  0.46
      L1  H    14    30       P1  8028  0.70
      P1  H  7989  7998       L1     7  0.58
      P1  H  7997  8009       L1    16  0.09
      P1  H  8011  8017       L1    10  0.42

> <Gold.Chemscore.Hbond.Weighted>
-10.6553

> <Gold.Chemscore.Metal.Weighted>
-0.0000

> <Gold.Chemscore.Lipo.Weighted>
-3.9486

> <Gold.Chemscore.Internal_Hbond.Weighted>
0.0000

> <Gold.Chemscore.DEClash.Weighted>
0.6241

> <Gold.Chemscore.DEInternal.Weighted>
1.1629

> <Gold.Chemscore.Rot.Weighted>
9.4964

> <Gold.Chemscore.Internal.Correction.Weighted>
   9.000000E+99

> <Gold.Protein.RotatedTorsions>
[ 6907 6896 6895 6894 ] final -175.45 input  -60.11 | X-H torsion
[ 7974 7965 7964 7962 ] final    4.01 input  175.53 | X-H torsion
[ 8008 7997 7996 7995 ] final -110.22 input   59.86 | X-H torsion
[ 10167 10162 10161 10158 ] final  155.85 input  -65.29 | X-H torsion
[ 10718 10713 10712 10709 ] final -135.36 input   66.30 | X-H torsion
[ 10763 10752 10751 10750 ] final  150.52 input  -60.55 | X-H torsion
[ 11005 11000 10999 10996 ] final   25.50 input  -57.11 | X-H torsion

> <Gold.Protein.ActiveResidues>
 VAL166  LYS551  ARG553  GLY616  TRP617  ASP618  TYR619  PRO620  LYS621  CYS622 
 ASP623  PHE694  ASN695  SER759  ASP760  ASP761  ALA762  ILE779  LEU786  VAL792 
 PHE793  MET794  SER795  GLU796  ALA797  LYS798  CYS799  TRP800  GLU811  SER814 

> <Gold.Protein.RotatedAtoms>
  151.5887  133.3369  159.3022 H   0  0  0  0  0  0  0  0  0  0  0  0  # atno 6907 bound_to 6896
  150.8272  134.7512  159.6834 H   0  0  0  0  0  0  0  0  0  0  0  0  # atno 6908 bound_to 6896
  152.4360  134.5691  159.9967 H   0  0  0  0  0  0  0  0  0  0  0  0  # atno 6909 bound_to 6896
  146.2444  140.0599  142.8369 H   0  0  0  0  0  0  0  0  0  0  0  0  # atno 7974 bound_to 7965
  154.9712  140.0397  157.2235 H   0  0  0  0  0  0  0  0  0  0  0  0  # atno 8008 bound_to 7997
  154.7799  140.2817  155.6050 H   0  0  0  0  0  0  0  0  0  0  0  0  # atno 8009 bound_to 7997
  156.2934  140.2593  156.2622 H   0  0  0  0  0  0  0  0  0  0  0  0  # atno 8010 bound_to 7997
  139.4821  144.5062  151.8094 H   0  0  0  0  0  0  0  0  0  0  0  0  # atno 10167 bound_to 10162
  156.2654  130.7234  151.1183 H   0  0  0  0  0  0  0  0  0  0  0  0  # atno 10718 bound_to 10713
  154.0888  135.2854  155.3276 H   0  0  0  0  0  0  0  0  0  0  0  0  # atno 10763 bound_to 10752
  154.6634  135.5326  153.8050 H   0  0  0  0  0  0  0  0  0  0  0  0  # atno 10764 bound_to 10752
  153.0421  135.6539  154.1058 H   0  0  0  0  0  0  0  0  0  0  0  0  # atno 10765 bound_to 10752
  140.3471  134.2269  155.7683 H   0  0  0  0  0  0  0  0  0  0  0  0  # atno 11005 bound_to 11000
  145.0909  140.9283  143.4769 LP  0  0  0  0  0  0  0  0  0  0  0  0  # atno 17320 bound_to 7965
  145.0772  139.2987  143.5802 LP  0  0  0  0  0  0  0  0  0  0  0  0  # atno 17321 bound_to 7965
  140.4560  144.1788  150.5901 LP  0  0  0  0  0  0  0  0  0  0  0  0  # atno 17342 bound_to 10162
  140.4535  143.2477  151.9316 LP  0  0  0  0  0  0  0  0  0  0  0  0  # atno 17343 bound_to 10162
  157.7265  131.0645  150.5905 LP  0  0  0  0  0  0  0  0  0  0  0  0  # atno 17370 bound_to 10713
  156.5997  130.4351  149.5902 LP  0  0  0  0  0  0  0  0  0  0  0  0  # atno 17371 bound_to 10713
  141.2022  133.7942  157.0400 LP  0  0  0  0  0  0  0  0  0  0  0  0  # atno 17394 bound_to 11000
  140.0733  134.9690  157.1504 LP  0  0  0  0  0  0  0  0  0  0  0  0  # atno 17395 bound_to 11000

$$$$
