AV-unprocessed.smi:1669|AV-procd|sdf|6690|dock2
  -GOLD-   22720 7413D 1   1.00000     0.00000
 Structure written by MMmdl.
 49 51  0  0  0  0  0  0  0  0  3 V2000
  145.4126  136.2744  150.5869 C   0  0  0  0  0  0  0  0  0  0  0  0
  145.8890  136.4475  151.9819 N   0  3  2  0  0  0  0  0  0  0  0  0
  145.4425  135.3511  152.8790 C   0  0  0  0  0  0  0  0  0  0  0  0
  145.3538  134.0175  152.1581 C   0  0  0  0  0  0  0  0  0  0  0  0
  144.1849  133.6634  151.4507 C   0  0  0  0  0  0  0  0  0  0  0  0
  144.1101  132.4255  150.7831 C   0  0  0  0  0  0  0  0  0  0  0  0
  145.2019  131.5369  150.8215 C   0  0  0  0  0  0  0  0  0  0  0  0
  146.3690  131.8856  151.5281 C   0  0  0  0  0  0  0  0  0  0  0  0
  146.4447  133.1233  152.1960 C   0  0  0  0  0  0  0  0  0  0  0  0
  145.5765  137.7914  152.5361 C   0  0  0  0  0  0  0  0  0  0  0  0
  146.8350  138.6625  152.7233 C   0  0  2  0  0  0  0  0  0  0  0  0
  147.6959  138.4577  151.6197 O   0  0  0  0  0  0  0  0  0  0  0  0
  147.5795  138.3248  154.0312 C   0  0  0  0  0  0  0  0  0  0  0  0
  148.7197  139.2208  154.2869 N   0  0  0  0  0  0  0  0  0  0  0  0
  148.7508  140.5773  154.4368 C   0  0  0  0  0  0  0  0  0  0  0  0
  147.5845  141.5123  154.3850 C   0  0  0  0  0  0  0  0  0  0  0  0
  147.4639  142.3076  155.5450 O   0  0  0  0  0  0  0  0  0  0  0  0
  150.0498  140.9285  154.6554 N   0  3  0  0  0  0  0  0  0  0  0  0
  150.8575  139.7917  154.6440 C   0  0  0  0  0  0  0  0  0  0  0  0
  152.2308  139.6499  154.8159 C   0  0  0  0  0  0  0  0  0  0  0  0
  152.7452  138.3388  154.7455 C   0  0  0  0  0  0  0  0  0  0  0  0
  151.9033  137.2321  154.5137 C   0  0  0  0  0  0  0  0  0  0  0  0
  150.5120  137.3885  154.3425 C   0  0  0  0  0  0  0  0  0  0  0  0
  150.0101  138.6887  154.4112 C   0  0  0  0  0  0  0  0  0  0  0  0
  144.3231  136.2980  150.5413 H   0  0  0  0  0  0  0  0  0  0  0  0
  145.7479  135.3250  150.1701 H   0  0  0  0  0  0  0  0  0  0  0  0
  145.7947  137.0554  149.9313 H   0  0  0  0  0  0  0  0  0  0  0  0
  146.1498  135.2251  153.7000 H   0  0  0  0  0  0  0  0  0  0  0  0
  144.4832  135.6063  153.3326 H   0  0  0  0  0  0  0  0  0  0  0  0
  143.3432  134.3397  151.4160 H   0  0  0  0  0  0  0  0  0  0  0  0
  143.2146  132.1570  150.2420 H   0  0  0  0  0  0  0  0  0  0  0  0
  145.1436  130.5872  150.3103 H   0  0  0  0  0  0  0  0  0  0  0  0
  147.2057  131.2032  151.5581 H   0  0  0  0  0  0  0  0  0  0  0  0
  147.3430  133.3846  152.7364 H   0  0  0  0  0  0  0  0  0  0  0  0
  144.8570  138.2893  151.8839 H   0  0  0  0  0  0  0  0  0  0  0  0
  145.0860  137.6942  153.5059 H   0  0  0  0  0  0  0  0  0  0  0  0
  146.5647  139.7175  152.7451 H   0  0  0  0  0  0  0  0  0  0  0  0
  148.2805  137.7422  151.8187 H   0  0  0  0  0  0  0  0  0  0  0  0
  146.9007  138.4215  154.8794 H   0  0  0  0  0  0  0  0  0  0  0  0
  147.9230  137.2902  154.0392 H   0  0  0  0  0  0  0  0  0  0  0  0
  147.6784  142.1701  153.5211 H   0  0  0  0  0  0  0  0  0  0  0  0
  146.6704  140.9329  154.2541 H   0  0  0  0  0  0  0  0  0  0  0  0
  147.8984  143.1331  155.3919 H   0  0  0  0  0  0  0  0  0  0  0  0
  152.8775  140.4968  154.9935 H   0  0  0  0  0  0  0  0  0  0  0  0
  153.8064  138.1792  154.8720 H   0  0  0  0  0  0  0  0  0  0  0  0
  152.3338  136.2423  154.4659 H   0  0  0  0  0  0  0  0  0  0  0  0
  149.8811  136.5313  154.1635 H   0  0  0  0  0  0  0  0  0  0  0  0
  146.8973  136.3875  151.9584 H   0  0  0  0  0  0  0  0  0  0  0  0
  150.3565  141.8825  154.7981 H   0  0  0  0  0  0  0  0  0  0  0  0
  1  2  1  0  0  0  0
  1 25  1  0  0  0  0
  1 26  1  0  0  0  0
  1 27  1  0  0  0  0
  2  3  1  0  0  0  0
  2 10  1  0  0  0  0
  2 48  1  0  0  0  0
  3  4  1  0  0  0  0
  3 28  1  0  0  0  0
  3 29  1  0  0  0  0
  4  9  1  0  0  0  0
  4  5  2  0  0  0  0
  5  6  1  0  0  0  0
  5 30  1  0  0  0  0
  6  7  2  0  0  0  0
  6 31  1  0  0  0  0
  7  8  1  0  0  0  0
  7 32  1  0  0  0  0
  8  9  2  0  0  0  0
  8 33  1  0  0  0  0
  9 34  1  0  0  0  0
 10 11  1  0  0  0  0
 10 35  1  0  0  0  0
 10 36  1  0  0  0  0
 11 12  1  0  0  0  0
 11 13  1  0  0  0  0
 11 37  1  0  0  0  0
 12 38  1  0  0  0  0
 13 14  1  0  0  0  0
 13 39  1  0  0  0  0
 13 40  1  0  0  0  0
 14 24  1  0  0  0  0
 14 15  1  0  0  0  0
 15 16  1  0  0  0  0
 15 18  2  0  0  0  0
 16 17  1  0  0  0  0
 16 41  1  0  0  0  0
 16 42  1  0  0  0  0
 17 43  1  0  0  0  0
 18 19  1  0  0  0  0
 18 49  1  0  0  0  0
 19 24  2  0  0  0  0
 19 20  1  0  0  0  0
 20 21  2  0  0  0  0
 20 44  1  0  0  0  0
 21 22  1  0  0  0  0
 21 45  1  0  0  0  0
 22 23  2  0  0  0  0
 22 46  1  0  0  0  0
 23 24  1  0  0  0  0
 23 47  1  0  0  0  0
M  CHG  1   2   1
M  CHG  1  18   1
M  END
> <s_m_source_file>
AV-unprocessed.smi

> <i_m_source_file_index>
1669

> <i_lp_mmshare_version>
43012

> <i_f3d_flags>
0

> <s_epik_input>
W2NIXTFbY0hdW2NIXVtjSF1bY0hdYzFbQ0gyXU4oW0NIM10pW0NIMl1bQ0BIXShbT0hdKVtDSDJdbihjKG4yKVtDSDJdW09IXSljKGMyMylbY0hdW2NIXVtjSF1bY0hdMw==

> <s_epik_cmdline>
J2VwaWtfcHl0aG9uJywgJy1waCcsICc3LjAnLCAnLXRuJywgJzgnLCAnLW1hJywgJzIwMCcsICctbWV0YWxfYmluZGluZycsICctaW1hZScsICc8aW5maWxlLm1hZT4nLCAnLW9tYWUnLCAnPG91dGZpbGUubWFlPic=

> <r_epik_Ionization_Penalty>
1.57484

> <r_epik_Ionization_Penalty_Charging>
1.57398

> <r_epik_Ionization_Penalty_Neutral>
0.000858917

> <r_epik_State_Penalty>
1.64997

> <r_epik_Charging_Adjusted_Penalty>
3.22395

> <i_epik_Tot_Q>
2

> <i_epik_Tot_abs_Q>
2

> <r_epik_Metal_State_Penalty>
5.70481

> <b_epik_Metal_Only>
0

> <s_lp_Force_Field>
OPLS_2005

> <r_lp_Energy>
22.9184

> <b_lp_Chiralities_Consistent>
1

> <s_lp_Variant>
AV-unprocessed.smi:1669-8

> <Gold.Version>
5.8.1

> <Gold.Id.Protein>
6NUR|6NUR_protein|mol2

> <Gold.PLP.Fitness>
55.3272

> <Gold.PLP.PLP>
-44.1617

> <Gold.PLP.part.hbond>
-4.4887

> <Gold.PLP.part.metal>
0.0000

> <Gold.PLP.part.buried>
0.3098

> <Gold.PLP.part.nonpolar>
-40.4540

> <Gold.PLP.part.repulsive>
1.1275

> <Gold.PLP.ligand.clash>
0.0000

> <Gold.PLP.ligand.torsion>
1.5456

> <Gold.PLP.Chemscore.Hbond>
4.4880

> <Gold.PLP.Chemscore.CHOScore>
0.0000

> <Gold.PLP.Chemscore.Metal>
0.0000

> <Gold.Chemscore.Hbonds>
donor molecule, donor type, donor heavy atom, donor atom, acceptor molecule, acceptor atom, score
      L1  H     2    48       P1  7948  1.95
      L1  H    12    38       P1  7948  1.00
      L1  H    17    43       P1  8028  1.00

> <Gold.PLP.Chemscore.Internal.Correction>
0.7927

> <Gold.Rescore>
     Score         DG    S(hbond)    S(metal)    S(lipo)     H(rot)  DE(clash)    DE(int)     intcor
     15.06     -18.48       2.66        0.00     106.70       3.27       0.52       2.90       ----

> <Gold.Chemscore.Fitness>
15.0633

> <Gold.Chemscore.DG>
-18.4835

> <Gold.Chemscore.ZeroCoef>
-5.4800

> <Gold.Chemscore.Hbond>
2.6633

> <Gold.Chemscore.Metal>
0.0000

> <Gold.Chemscore.Lipo>
106.7001

> <Gold.Chemscore.Internal_Hbond>
0.0000

> <Gold.Chemscore.DEClash>
0.5204

> <Gold.Chemscore.DEInternal>
2.8998

> <Gold.Chemscore.Rot>
3.2718

> <Gold.Chemscore.Internal.Correction>
   9.000000E+99

> <Gold.Chemscore.Hbonds>
donor molecule, donor type, donor heavy atom, donor atom, acceptor molecule, acceptor atom, score
      L1  H     2    48       P1  7948  0.91
      L1  H    12    38       P1  7948  0.99
      L1  H    17    43       P1  8028  0.70

> <Gold.Chemscore.Hbond.Weighted>
-8.8955

> <Gold.Chemscore.Metal.Weighted>
-0.0000

> <Gold.Chemscore.Lipo.Weighted>
-12.4839

> <Gold.Chemscore.Internal_Hbond.Weighted>
0.0000

> <Gold.Chemscore.DEClash.Weighted>
0.5204

> <Gold.Chemscore.DEInternal.Weighted>
2.8998

> <Gold.Chemscore.Rot.Weighted>
8.3759

> <Gold.Chemscore.Internal.Correction.Weighted>
   9.000000E+99

> <Gold.Protein.RotatedTorsions>
[ 6907 6896 6895 6894 ] final -123.32 input  -60.11 | X-H torsion
[ 7974 7965 7964 7962 ] final   17.62 input  175.53 | X-H torsion
[ 8008 7997 7996 7995 ] final  -32.69 input   59.86 | X-H torsion
[ 10167 10162 10161 10158 ] final -146.58 input  -65.29 | X-H torsion
[ 10718 10713 10712 10709 ] final   12.32 input   66.30 | X-H torsion
[ 10763 10752 10751 10750 ] final  -71.68 input  -60.55 | X-H torsion
[ 11005 11000 10999 10996 ] final   55.00 input  -57.11 | X-H torsion

> <Gold.Protein.ActiveResidues>
 VAL166  LYS551  ARG553  GLY616  TRP617  ASP618  TYR619  PRO620  LYS621  CYS622 
 ASP623  PHE694  ASN695  SER759  ASP760  ASP761  ALA762  ILE779  LEU786  VAL792 
 PHE793  MET794  SER795  GLU796  ALA797  LYS798  CYS799  TRP800  GLU811  SER814 

> <Gold.Protein.RotatedAtoms>
  150.8659  133.7575  159.2976 H   0  0  0  0  0  0  0  0  0  0  0  0  # atno 6907 bound_to 6896
  151.5202  135.1065  159.9886 H   0  0  0  0  0  0  0  0  0  0  0  0  # atno 6908 bound_to 6896
  152.4661  133.7881  159.6943 H   0  0  0  0  0  0  0  0  0  0  0  0  # atno 6909 bound_to 6896
  146.2212  139.8575  142.8611 H   0  0  0  0  0  0  0  0  0  0  0  0  # atno 7974 bound_to 7965
  154.4172  140.1731  156.1767 H   0  0  0  0  0  0  0  0  0  0  0  0  # atno 8008 bound_to 7997
  155.9716  140.3385  155.6556 H   0  0  0  0  0  0  0  0  0  0  0  0  # atno 8009 bound_to 7997
  155.6618  140.0702  157.2542 H   0  0  0  0  0  0  0  0  0  0  0  0  # atno 8010 bound_to 7997
  139.7700  143.8251  152.2623 H   0  0  0  0  0  0  0  0  0  0  0  0  # atno 10167 bound_to 10162
  157.0085  130.6107  149.5705 H   0  0  0  0  0  0  0  0  0  0  0  0  # atno 10718 bound_to 10713
  154.4352  135.5954  153.6094 H   0  0  0  0  0  0  0  0  0  0  0  0  # atno 10763 bound_to 10752
  152.9801  135.5984  154.3791 H   0  0  0  0  0  0  0  0  0  0  0  0  # atno 10764 bound_to 10752
  154.3634  135.2841  155.2286 H   0  0  0  0  0  0  0  0  0  0  0  0  # atno 10765 bound_to 10752
  140.0641  134.5560  155.9118 H   0  0  0  0  0  0  0  0  0  0  0  0  # atno 11005 bound_to 11000
  145.2738  141.0117  143.3756 LP  0  0  0  0  0  0  0  0  0  0  0  0  # atno 17320 bound_to 7965
  144.9203  139.4420  143.6544 LP  0  0  0  0  0  0  0  0  0  0  0  0  # atno 17321 bound_to 7965
  139.8283  144.7265  150.9483 LP  0  0  0  0  0  0  0  0  0  0  0  0  # atno 17342 bound_to 10162
  140.7813  143.4094  151.1018 LP  0  0  0  0  0  0  0  0  0  0  0  0  # atno 17343 bound_to 10162
  156.0145  130.5238  150.8091 LP  0  0  0  0  0  0  0  0  0  0  0  0  # atno 17370 bound_to 10713
  157.5338  131.0938  150.9920 LP  0  0  0  0  0  0  0  0  0  0  0  0  # atno 17371 bound_to 10713
  141.1985  133.6602  156.5798 LP  0  0  0  0  0  0  0  0  0  0  0  0  # atno 17394 bound_to 11000
  140.3725  134.7593  157.4608 LP  0  0  0  0  0  0  0  0  0  0  0  0  # atno 17395 bound_to 11000

$$$$
