AV-unprocessed.smi:1524|AV-procd|sdf|6139|dock6
  -GOLD-   22720 6283D 1   1.00000     0.00000
 Structure written by MMmdl.
 35 36  0  0  0  0  0  0  0  0  1 V2000
  149.9702  137.8705  157.9929 O   0  0  0  0  0  0  0  0  0  0  0  0
  149.9000  138.0696  156.7820 C   0  0  0  0  0  0  0  0  0  0  0  0
  150.2079  139.2293  156.1657 N   0  0  0  0  0  0  0  0  0  0  0  0
  150.6881  140.4298  156.7128 C   0  0  0  0  0  0  0  0  0  0  0  0
  151.5674  140.5157  157.7448 C   0  0  0  0  0  0  0  0  0  0  0  0
  152.0317  141.7941  158.2573 C   0  0  0  0  0  0  0  0  0  0  0  0
  152.9521  141.8810  159.4649 C   0  0  0  0  0  0  0  0  0  0  0  0
  152.4177  142.6340  160.4272 F   0  0  0  0  0  0  0  0  0  0  0  0
  153.1979  140.6710  159.9678 F   0  0  0  0  0  0  0  0  0  0  0  0
  154.1147  142.4258  159.1089 F   0  0  0  0  0  0  0  0  0  0  0  0
  151.5374  142.8950  157.6609 C   0  0  0  0  0  0  0  0  0  0  0  0
  150.6518  142.8142  156.5839 N   0  0  0  0  0  0  0  0  0  0  0  0
  150.1934  141.6541  156.0625 C   0  0  0  0  0  0  0  0  0  0  0  0
  149.4154  141.6654  155.1089 O   0  0  0  0  0  0  0  0  0  0  0  0
  149.4588  137.1092  155.9491 N   0  0  0  0  0  0  0  0  0  0  0  0
  149.0406  135.7433  156.2744 C   0  0  0  0  0  0  0  0  0  0  0  0
  148.3150  135.6935  157.6317 C   0  0  0  0  0  0  0  0  0  0  0  0
  148.0375  134.2396  158.0477 C   0  0  0  0  0  0  0  0  0  0  0  0
  149.2538  133.5008  158.0817 O   0  0  0  0  0  0  0  0  0  0  0  0
  149.8885  133.4207  156.8101 C   0  0  0  0  0  0  0  0  0  0  0  0
  150.2731  134.8280  156.3256 C   0  0  0  0  0  0  0  0  0  0  0  0
  150.3411  143.6855  156.1786 H   0  0  0  0  0  0  0  0  0  0  0  0
  150.0274  139.2653  155.1729 H   0  0  0  0  0  0  0  0  0  0  0  0
  151.9683  139.6280  158.2062 H   0  0  0  0  0  0  0  0  0  0  0  0
  151.7731  143.9060  157.9589 H   0  0  0  0  0  0  0  0  0  0  0  0
  149.3814  137.3660  154.9755 H   0  0  0  0  0  0  0  0  0  0  0  0
  148.3756  135.3642  155.4960 H   0  0  0  0  0  0  0  0  0  0  0  0
  148.9267  136.1733  158.3971 H   0  0  0  0  0  0  0  0  0  0  0  0
  147.3775  136.2490  157.5888 H   0  0  0  0  0  0  0  0  0  0  0  0
  147.5826  134.2140  159.0379 H   0  0  0  0  0  0  0  0  0  0  0  0
  147.3327  133.7673  157.3615 H   0  0  0  0  0  0  0  0  0  0  0  0
  150.7798  132.7998  156.9006 H   0  0  0  0  0  0  0  0  0  0  0  0
  149.2295  132.9288  156.0930 H   0  0  0  0  0  0  0  0  0  0  0  0
  150.7409  134.7685  155.3422 H   0  0  0  0  0  0  0  0  0  0  0  0
  151.0197  135.2464  157.0022 H   0  0  0  0  0  0  0  0  0  0  0  0
  1  2  2  0  0  0  0
  2  3  1  0  0  0  0
  2 15  1  0  0  0  0
  3  4  1  0  0  0  0
  3 23  1  0  0  0  0
  4 13  1  0  0  0  0
  4  5  2  0  0  0  0
  5  6  1  0  0  0  0
  5 24  1  0  0  0  0
  6  7  1  0  0  0  0
  6 11  2  0  0  0  0
  7  8  1  0  0  0  0
  7  9  1  0  0  0  0
  7 10  1  0  0  0  0
 11 12  1  0  0  0  0
 11 25  1  0  0  0  0
 12 22  1  0  0  0  0
 12 13  1  0  0  0  0
 13 14  2  0  0  0  0
 15 16  1  0  0  0  0
 15 26  1  0  0  0  0
 16 21  1  0  0  0  0
 16 17  1  0  0  0  0
 16 27  1  0  0  0  0
 17 18  1  0  0  0  0
 17 28  1  0  0  0  0
 17 29  1  0  0  0  0
 18 19  1  0  0  0  0
 18 30  1  0  0  0  0
 18 31  1  0  0  0  0
 19 20  1  0  0  0  0
 20 21  1  0  0  0  0
 20 32  1  0  0  0  0
 20 33  1  0  0  0  0
 21 34  1  0  0  0  0
 21 35  1  0  0  0  0
M  END
> <s_m_source_file>
AV-unprocessed.smi

> <i_m_source_file_index>
1524

> <i_lp_mmshare_version>
43012

> <i_f3d_flags>
0

> <s_epik_input>
W0NIMl0xW0NIMl1PW0NIMl1bQ0gyXVtDSF0xW05IXUMoPU8pW05IXWMyW2NIXWMoQyhGKShGKUYpW2NIXVtuSF1jMj1P

> <s_epik_cmdline>
J2VwaWtfcHl0aG9uJywgJy1waCcsICc3LjAnLCAnLXRuJywgJzgnLCAnLW1hJywgJzIwMCcsICctbWV0YWxfYmluZGluZycsICctaW1hZScsICc8aW5maWxlLm1hZT4nLCAnLW9tYWUnLCAnPG91dGZpbGUubWFlPic=

> <r_lp_tautomer_probability>
1

> <r_epik_Ionization_Penalty>
0.00380781

> <r_epik_Ionization_Penalty_Charging>
0.00378827

> <r_epik_Ionization_Penalty_Neutral>
1.95401e-05

> <r_epik_State_Penalty>
-0

> <r_epik_Charging_Adjusted_Penalty>
0.00378827

> <i_epik_Tot_Q>
0

> <i_epik_Tot_abs_Q>
0

> <r_epik_Metal_State_Penalty>
0.371078

> <b_epik_Metal_Only>
0

> <s_lp_Force_Field>
OPLS_2005

> <r_lp_Energy>
30.03

> <b_lp_Chiralities_Consistent>
1

> <s_lp_Variant>
AV-unprocessed.smi:1524-1

> <Gold.Version>
5.8.1

> <Gold.Id.Protein>
6NUR|6NUR_protein|mol2

> <Gold.PLP.Fitness>
34.3125

> <Gold.PLP.PLP>
-29.4638

> <Gold.PLP.part.hbond>
-3.0000

> <Gold.PLP.part.metal>
0.0000

> <Gold.PLP.part.buried>
-4.4168

> <Gold.PLP.part.nonpolar>
-21.3095

> <Gold.PLP.part.repulsive>
0.3044

> <Gold.PLP.ligand.clash>
0.0000

> <Gold.PLP.ligand.torsion>
0.6891

> <Gold.PLP.Chemscore.Hbond>
2.0655

> <Gold.PLP.Chemscore.CHOScore>
0.0000

> <Gold.PLP.Chemscore.Metal>
0.0000

> <Gold.Chemscore.Hbonds>
donor molecule, donor type, donor heavy atom, donor atom, acceptor molecule, acceptor atom, score
      L1  H    12    22       P1  8028  0.94
      P1  H  6896  6909       L1    19  1.00

> <Gold.PLP.Chemscore.Internal.Correction>
0.0304

> <Gold.Rescore>
     Score         DG    S(hbond)    S(metal)    S(lipo)     H(rot)  DE(clash)    DE(int)     intcor
     13.96     -15.92       1.90        0.00      56.94       1.00       0.36       1.61       ----

> <Gold.Chemscore.Fitness>
13.9551

> <Gold.Chemscore.DG>
-15.9221

> <Gold.Chemscore.ZeroCoef>
-5.4800

> <Gold.Chemscore.Hbond>
1.8984

> <Gold.Chemscore.Metal>
0.0000

> <Gold.Chemscore.Lipo>
56.9357

> <Gold.Chemscore.Internal_Hbond>
0.0000

> <Gold.Chemscore.DEClash>
0.3607

> <Gold.Chemscore.DEInternal>
1.6063

> <Gold.Chemscore.Rot>
1.0000

> <Gold.Chemscore.Internal.Correction>
   9.000000E+99

> <Gold.Chemscore.Hbonds>
donor molecule, donor type, donor heavy atom, donor atom, acceptor molecule, acceptor atom, score
      L1  H    12    22       P1  8028  0.91
      P1  H  6896  6909       L1    19  0.25

> <Gold.Chemscore.Hbond.Weighted>
-6.3407

> <Gold.Chemscore.Metal.Weighted>
-0.0000

> <Gold.Chemscore.Lipo.Weighted>
-6.6615

> <Gold.Chemscore.Internal_Hbond.Weighted>
0.0000

> <Gold.Chemscore.DEClash.Weighted>
0.3607

> <Gold.Chemscore.DEInternal.Weighted>
1.6063

> <Gold.Chemscore.Rot.Weighted>
2.5600

> <Gold.Chemscore.Internal.Correction.Weighted>
   9.000000E+99

> <Gold.Protein.RotatedTorsions>
[ 6907 6896 6895 6894 ] final   -8.96 input  -60.11 | X-H torsion
[ 7974 7965 7964 7962 ] final  131.59 input  175.53 | X-H torsion
[ 8008 7997 7996 7995 ] final  120.37 input   59.86 | X-H torsion
[ 10167 10162 10161 10158 ] final  -55.31 input  -65.29 | X-H torsion
[ 10718 10713 10712 10709 ] final  -26.47 input   66.30 | X-H torsion
[ 10763 10752 10751 10750 ] final -140.51 input  -60.55 | X-H torsion
[ 11005 11000 10999 10996 ] final   80.93 input  -57.11 | X-H torsion

> <Gold.Protein.ActiveResidues>
 VAL166  LYS551  ARG553  GLY616  TRP617  ASP618  TYR619  PRO620  LYS621  CYS622 
 ASP623  PHE694  ASN695  SER759  ASP760  ASP761  ALA762  ILE779  LEU786  VAL792 
 PHE793  MET794  SER795  GLU796  ALA797  LYS798  CYS799  TRP800  GLU811  SER814 

> <Gold.Protein.RotatedAtoms>
  151.4253  135.1003  159.9625 H   0  0  0  0  0  0  0  0  0  0  0  0  # atno 6907 bound_to 6896
  152.4974  133.8668  159.7288 H   0  0  0  0  0  0  0  0  0  0  0  0  # atno 6908 bound_to 6896
  150.9193  133.6842  159.2863 H   0  0  0  0  0  0  0  0  0  0  0  0  # atno 6909 bound_to 6896
  145.0057  139.4269  143.5270 H   0  0  0  0  0  0  0  0  0  0  0  0  # atno 7974 bound_to 7965
  156.2639  140.2832  156.1139 H   0  0  0  0  0  0  0  0  0  0  0  0  # atno 8008 bound_to 7997
  155.1228  140.0392  157.2772 H   0  0  0  0  0  0  0  0  0  0  0  0  # atno 8009 bound_to 7997
  154.6658  140.2576  155.7066 H   0  0  0  0  0  0  0  0  0  0  0  0  # atno 8010 bound_to 7997
  140.6382  143.2493  151.5061 H   0  0  0  0  0  0  0  0  0  0  0  0  # atno 10167 bound_to 10162
  156.4508  130.4483  149.6991 H   0  0  0  0  0  0  0  0  0  0  0  0  # atno 10718 bound_to 10713
  154.8576  135.3551  154.5719 H   0  0  0  0  0  0  0  0  0  0  0  0  # atno 10763 bound_to 10752
  153.6332  135.7001  153.5273 H   0  0  0  0  0  0  0  0  0  0  0  0  # atno 10764 bound_to 10752
  153.3032  135.4200  155.1230 H   0  0  0  0  0  0  0  0  0  0  0  0  # atno 10765 bound_to 10752
  139.9116  134.7958  156.1975 H   0  0  0  0  0  0  0  0  0  0  0  0  # atno 11005 bound_to 11000
  146.3460  139.9472  142.8733 LP  0  0  0  0  0  0  0  0  0  0  0  0  # atno 17320 bound_to 7965
  145.2092  140.9888  143.4110 LP  0  0  0  0  0  0  0  0  0  0  0  0  # atno 17321 bound_to 7965
  139.5591  144.2200  152.1662 LP  0  0  0  0  0  0  0  0  0  0  0  0  # atno 17342 bound_to 10162
  140.1463  144.5156  150.6714 LP  0  0  0  0  0  0  0  0  0  0  0  0  # atno 17343 bound_to 10162
  156.3818  130.7583  151.2576 LP  0  0  0  0  0  0  0  0  0  0  0  0  # atno 17370 bound_to 10713
  157.7503  131.0293  150.4088 LP  0  0  0  0  0  0  0  0  0  0  0  0  # atno 17371 bound_to 10713
  141.0546  133.6872  156.1835 LP  0  0  0  0  0  0  0  0  0  0  0  0  # atno 17394 bound_to 11000
  140.6757  134.4820  157.5588 LP  0  0  0  0  0  0  0  0  0  0  0  0  # atno 17395 bound_to 11000

$$$$
