AV-unprocessed.smi:1465|AV-procd|sdf|5951|dock1
  -GOLD-   22720 6 33D 1   1.00000     0.00000
 Structure written by MMmdl.
 54 55  0  0  0  0  0  0  0  0  2 V2000
  150.5663  144.0045  159.9374 C   0  0  0  0  0  0  0  0  0  0  0  0
  150.2888  142.7762  159.2889 O   0  0  0  0  0  0  0  0  0  0  0  0
  151.2861  142.4200  158.3454 C   0  0  0  0  0  0  0  0  0  0  0  0
  150.9496  141.0481  157.7388 C   0  0  0  0  0  0  0  0  0  0  0  0
  149.9658  141.1572  156.6520 N   0  0  0  0  0  0  0  0  0  0  0  0
  148.6880  141.6405  156.9941 C   0  0  0  0  0  0  0  0  0  0  0  0
  147.7022  141.7815  156.0861 C   0  0  0  0  0  0  0  0  0  0  0  0
  146.3910  142.2765  156.5118 C   0  0  0  0  0  0  0  0  0  0  0  0
  146.0201  142.3531  157.6842 O   0  0  0  0  0  0  0  0  0  0  0  0
  145.5964  142.6488  155.4931 N   0  0  0  0  0  0  0  0  0  0  0  0
  144.2379  143.1668  155.6236 C   0  0  2  0  0  0  0  0  0  0  0  0
  143.2040  142.0445  155.4216 C   0  0  0  0  0  0  0  0  0  0  0  0
  141.7691  142.5964  155.4515 C   0  0  0  0  0  0  0  0  0  0  0  0
  141.5837  143.6676  154.4367 N   0  3  1  0  0  0  0  0  0  0  0  0
  140.1805  144.1463  154.3377 C   0  0  0  0  0  0  0  0  0  0  0  0
  139.8778  145.3261  155.2868 C   0  0  0  0  0  0  0  0  0  0  0  0
  139.9379  144.9025  156.7640 C   0  0  0  0  0  0  0  0  0  0  0  0
  138.5087  145.9423  154.9627 C   0  0  0  0  0  0  0  0  0  0  0  0
  142.5475  144.7803  154.6380 C   0  0  0  0  0  0  0  0  0  0  0  0
  143.9991  144.2750  154.5862 C   0  0  0  0  0  0  0  0  0  0  0  0
  148.0057  141.4138  154.7108 C   0  0  0  0  0  0  0  0  0  0  0  0
  149.2241  140.9423  154.3803 C   0  0  0  0  0  0  0  0  0  0  0  0
  150.2869  140.7827  155.3773 C   0  0  0  0  0  0  0  0  0  0  0  0
  151.3967  140.3383  155.0824 O   0  0  0  0  0  0  0  0  0  0  0  0
  149.7714  144.2304  160.6482 H   0  0  0  0  0  0  0  0  0  0  0  0
  150.6212  144.8257  159.2216 H   0  0  0  0  0  0  0  0  0  0  0  0
  151.5066  143.9559  160.4880 H   0  0  0  0  0  0  0  0  0  0  0  0
  151.3187  143.1690  157.5528 H   0  0  0  0  0  0  0  0  0  0  0  0
  152.2706  142.4035  158.8157 H   0  0  0  0  0  0  0  0  0  0  0  0
  151.8632  140.5688  157.3843 H   0  0  0  0  0  0  0  0  0  0  0  0
  150.5730  140.3871  158.5212 H   0  0  0  0  0  0  0  0  0  0  0  0
  148.5694  141.8756  158.0429 H   0  0  0  0  0  0  0  0  0  0  0  0
  145.9641  142.5617  154.5568 H   0  0  0  0  0  0  0  0  0  0  0  0
  144.1101  143.5971  156.6190 H   0  0  0  0  0  0  0  0  0  0  0  0
  143.3794  141.5454  154.4673 H   0  0  0  0  0  0  0  0  0  0  0  0
  143.3184  141.2829  156.1939 H   0  0  0  0  0  0  0  0  0  0  0  0
  141.0739  141.7774  155.2714 H   0  0  0  0  0  0  0  0  0  0  0  0
  141.5415  142.9895  156.4436 H   0  0  0  0  0  0  0  0  0  0  0  0
  139.9669  144.4181  153.3027 H   0  0  0  0  0  0  0  0  0  0  0  0
  139.4963  143.3322  154.5821 H   0  0  0  0  0  0  0  0  0  0  0  0
  140.6187  146.1102  155.1330 H   0  0  0  0  0  0  0  0  0  0  0  0
  139.2125  144.1176  156.9816 H   0  0  0  0  0  0  0  0  0  0  0  0
  139.7211  145.7447  157.4219 H   0  0  0  0  0  0  0  0  0  0  0  0
  140.9257  144.5278  157.0336 H   0  0  0  0  0  0  0  0  0  0  0  0
  137.7043  145.2190  155.1006 H   0  0  0  0  0  0  0  0  0  0  0  0
  138.4682  146.2923  153.9309 H   0  0  0  0  0  0  0  0  0  0  0  0
  138.2994  146.7972  155.6064 H   0  0  0  0  0  0  0  0  0  0  0  0
  142.4066  145.5350  153.8630 H   0  0  0  0  0  0  0  0  0  0  0  0
  142.3504  145.2666  155.5949 H   0  0  0  0  0  0  0  0  0  0  0  0
  144.6846  145.1053  154.7611 H   0  0  0  0  0  0  0  0  0  0  0  0
  144.2158  143.9006  153.5843 H   0  0  0  0  0  0  0  0  0  0  0  0
  147.2682  141.5070  153.9272 H   0  0  0  0  0  0  0  0  0  0  0  0
  149.4258  140.6749  153.3532 H   0  0  0  0  0  0  0  0  0  0  0  0
  141.8075  143.2650  153.5378 H   0  0  0  0  0  0  0  0  0  0  0  0
  1  2  1  0  0  0  0
  1 25  1  0  0  0  0
  1 26  1  0  0  0  0
  1 27  1  0  0  0  0
  2  3  1  0  0  0  0
  3  4  1  0  0  0  0
  3 28  1  0  0  0  0
  3 29  1  0  0  0  0
  4  5  1  0  0  0  0
  4 30  1  0  0  0  0
  4 31  1  0  0  0  0
  5 23  1  0  0  0  0
  5  6  1  0  0  0  0
  6  7  2  0  0  0  0
  6 32  1  0  0  0  0
  7  8  1  0  0  0  0
  7 21  1  0  0  0  0
  8  9  2  0  0  0  0
  8 10  1  0  0  0  0
 10 11  1  0  0  0  0
 10 33  1  0  0  0  0
 11 20  1  0  0  0  0
 11 12  1  0  0  0  0
 11 34  1  0  0  0  0
 12 13  1  0  0  0  0
 12 35  1  0  0  0  0
 12 36  1  0  0  0  0
 13 14  1  0  0  0  0
 13 37  1  0  0  0  0
 13 38  1  0  0  0  0
 14 15  1  0  0  0  0
 14 19  1  0  0  0  0
 14 54  1  0  0  0  0
 15 16  1  0  0  0  0
 15 39  1  0  0  0  0
 15 40  1  0  0  0  0
 16 17  1  0  0  0  0
 16 18  1  0  0  0  0
 16 41  1  0  0  0  0
 17 42  1  0  0  0  0
 17 43  1  0  0  0  0
 17 44  1  0  0  0  0
 18 45  1  0  0  0  0
 18 46  1  0  0  0  0
 18 47  1  0  0  0  0
 19 20  1  0  0  0  0
 19 48  1  0  0  0  0
 19 49  1  0  0  0  0
 20 50  1  0  0  0  0
 20 51  1  0  0  0  0
 21 22  2  0  0  0  0
 21 52  1  0  0  0  0
 22 23  1  0  0  0  0
 22 53  1  0  0  0  0
 23 24  2  0  0  0  0
M  CHG  1  14   1
M  END
> <s_m_source_file>
AV-unprocessed.smi

> <i_m_source_file_index>
1465

> <i_lp_mmshare_version>
43012

> <i_f3d_flags>
0

> <s_epik_input>
W0NIM11PW0NIMl1bQ0gyXW4xW2NIXWMoW2NIXVtjSF1jMT1PKUMoPU8pW05IXVtDSF0yW0NIMl1bQ0gyXU4oW0NIMl1bQ0gyXTIpW0NIMl1bQ0hdKFtDSDNdKVtDSDNd

> <s_epik_cmdline>
J2VwaWtfcHl0aG9uJywgJy1waCcsICc3LjAnLCAnLXRuJywgJzgnLCAnLW1hJywgJzIwMCcsICctbWV0YWxfYmluZGluZycsICctaW1hZScsICc8aW5maWxlLm1hZT4nLCAnLW9tYWUnLCAnPG91dGZpbGUubWFlPic=

> <r_lp_tautomer_probability>
1

> <r_epik_Ionization_Penalty>
0.00386091

> <r_epik_Ionization_Penalty_Charging>
0.0038603

> <r_epik_Ionization_Penalty_Neutral>
6.13806e-07

> <r_epik_State_Penalty>
0.00275716

> <r_epik_Charging_Adjusted_Penalty>
0.00661746

> <i_epik_Tot_Q>
1

> <i_epik_Tot_abs_Q>
1

> <r_epik_Metal_State_Penalty>
-0

> <b_epik_Metal_Only>
0

> <s_lp_Force_Field>
OPLS_2005

> <r_lp_Energy>
35.0866

> <b_lp_Chiralities_Consistent>
1

> <s_lp_Variant>
AV-unprocessed.smi:1465-1

> <Gold.Version>
5.8.1

> <Gold.Id.Protein>
6NUR|6NUR_protein|mol2

> <Gold.PLP.Fitness>
43.2904

> <Gold.PLP.PLP>
-35.5133

> <Gold.PLP.part.hbond>
-2.4678

> <Gold.PLP.part.metal>
0.0000

> <Gold.PLP.part.buried>
-4.0765

> <Gold.PLP.part.nonpolar>
-29.1424

> <Gold.PLP.part.repulsive>
0.3296

> <Gold.PLP.ligand.clash>
0.0000

> <Gold.PLP.ligand.torsion>
0.8792

> <Gold.PLP.Chemscore.Hbond>
3.0000

> <Gold.PLP.Chemscore.CHOScore>
0.0000

> <Gold.PLP.Chemscore.Metal>
0.0000

> <Gold.Chemscore.Hbonds>
donor molecule, donor type, donor heavy atom, donor atom, acceptor molecule, acceptor atom, score
      L1  H    14    54       P1 10174  2.00
      P1  H  7989  7998       L1    24  0.99

> <Gold.PLP.Chemscore.Internal.Correction>
0.5354

> <Gold.Rescore>
     Score         DG    S(hbond)    S(metal)    S(lipo)     H(rot)  DE(clash)    DE(int)     intcor
     13.16     -15.38       1.18        0.00      89.87       1.78       0.27       1.95       ----

> <Gold.Chemscore.Fitness>
13.1623

> <Gold.Chemscore.DG>
-15.3791

> <Gold.Chemscore.ZeroCoef>
-5.4800

> <Gold.Chemscore.Hbond>
1.1777

> <Gold.Chemscore.Metal>
0.0000

> <Gold.Chemscore.Lipo>
89.8676

> <Gold.Chemscore.Internal_Hbond>
0.0000

> <Gold.Chemscore.DEClash>
0.2715

> <Gold.Chemscore.DEInternal>
1.9454

> <Gold.Chemscore.Rot>
1.7769

> <Gold.Chemscore.Internal.Correction>
   9.000000E+99

> <Gold.Chemscore.Hbonds>
donor molecule, donor type, donor heavy atom, donor atom, acceptor molecule, acceptor atom, score
      L1  H    14    54       P1 10174  1.00
      P1  H  7989  7998       L1    24  0.42

> <Gold.Chemscore.Hbond.Weighted>
-3.9336

> <Gold.Chemscore.Metal.Weighted>
-0.0000

> <Gold.Chemscore.Lipo.Weighted>
-10.5145

> <Gold.Chemscore.Internal_Hbond.Weighted>
0.0000

> <Gold.Chemscore.DEClash.Weighted>
0.2715

> <Gold.Chemscore.DEInternal.Weighted>
1.9454

> <Gold.Chemscore.Rot.Weighted>
4.5490

> <Gold.Chemscore.Internal.Correction.Weighted>
   9.000000E+99

> <Gold.Protein.RotatedTorsions>
[ 6907 6896 6895 6894 ] final -144.03 input  -60.11 | X-H torsion
[ 7974 7965 7964 7962 ] final   39.63 input  175.53 | X-H torsion
[ 8008 7997 7996 7995 ] final   53.87 input   59.86 | X-H torsion
[ 10167 10162 10161 10158 ] final -124.46 input  -65.29 | X-H torsion
[ 10718 10713 10712 10709 ] final   54.17 input   66.30 | X-H torsion
[ 10763 10752 10751 10750 ] final   89.23 input  -60.55 | X-H torsion
[ 11005 11000 10999 10996 ] final -100.04 input  -57.11 | X-H torsion

> <Gold.Protein.ActiveResidues>
 VAL166  LYS551  ARG553  GLY616  TRP617  ASP618  TYR619  PRO620  LYS621  CYS622 
 ASP623  PHE694  ASN695  SER759  ASP760  ASP761  ALA762  ILE779  LEU786  VAL792 
 PHE793  MET794  SER795  GLU796  ALA797  LYS798  CYS799  TRP800  GLU811  SER814 

> <Gold.Protein.RotatedAtoms>
  151.1085  133.5190  159.2606 H   0  0  0  0  0  0  0  0  0  0  0  0  # atno 6907 bound_to 6896
  151.1993  135.0435  159.8875 H   0  0  0  0  0  0  0  0  0  0  0  0  # atno 6908 bound_to 6896
  152.5448  134.0916  159.8332 H   0  0  0  0  0  0  0  0  0  0  0  0  # atno 6909 bound_to 6896
  146.0969  139.5629  142.9439 H   0  0  0  0  0  0  0  0  0  0  0  0  # atno 7974 bound_to 7965
  155.4754  140.3466  155.4332 H   0  0  0  0  0  0  0  0  0  0  0  0  # atno 8008 bound_to 7997
  156.1074  140.1451  156.9414 H   0  0  0  0  0  0  0  0  0  0  0  0  # atno 8009 bound_to 7997
  154.4733  140.0893  156.7178 H   0  0  0  0  0  0  0  0  0  0  0  0  # atno 8010 bound_to 7997
  139.9925  143.5625  152.2336 H   0  0  0  0  0  0  0  0  0  0  0  0  # atno 10167 bound_to 10162
  157.5233  130.8579  149.8587 H   0  0  0  0  0  0  0  0  0  0  0  0  # atno 10718 bound_to 10713
  153.1849  135.4478  155.0076 H   0  0  0  0  0  0  0  0  0  0  0  0  # atno 10763 bound_to 10752
  154.8054  135.3272  154.7447 H   0  0  0  0  0  0  0  0  0  0  0  0  # atno 10764 bound_to 10752
  153.7907  135.6970  153.4927 H   0  0  0  0  0  0  0  0  0  0  0  0  # atno 10765 bound_to 10752
  141.1286  133.8368  157.1051 H   0  0  0  0  0  0  0  0  0  0  0  0  # atno 11005 bound_to 11000
  145.5930  141.0367  143.2060 LP  0  0  0  0  0  0  0  0  0  0  0  0  # atno 17320 bound_to 7965
  144.7402  139.7469  143.7313 LP  0  0  0  0  0  0  0  0  0  0  0  0  # atno 17321 bound_to 7965
  139.6329  144.7646  151.2497 LP  0  0  0  0  0  0  0  0  0  0  0  0  # atno 17342 bound_to 10162
  140.7449  143.6447  150.8302 LP  0  0  0  0  0  0  0  0  0  0  0  0  # atno 17343 bound_to 10162
  156.0368  130.3749  150.1538 LP  0  0  0  0  0  0  0  0  0  0  0  0  # atno 17370 bound_to 10713
  156.9725  130.9839  151.3455 LP  0  0  0  0  0  0  0  0  0  0  0  0  # atno 17371 bound_to 10713
  140.0309  134.9901  157.0779 LP  0  0  0  0  0  0  0  0  0  0  0  0  # atno 17394 bound_to 11000
  140.4286  134.1804  155.7167 LP  0  0  0  0  0  0  0  0  0  0  0  0  # atno 17395 bound_to 11000

$$$$
