AV-unprocessed.smi:1381|AV-procd|sdf|5617|dock4
  -GOLD-   22720 5233D 1   1.00000     0.00000
 Structure written by MMmdl.
 42 43  0  0  0  0  0  0  0  0  3 V2000
  153.1781  140.5445  158.6132 C   0  0  0  0  0  0  0  0  0  0  0  0
  152.1262  140.7247  157.5733 C   0  0  0  0  0  0  0  0  0  0  0  0
  150.9554  141.4282  157.5479 C   0  0  0  0  0  0  0  0  0  0  0  0
  150.4485  141.1616  156.2480 C   0  0  0  0  0  0  0  0  0  0  0  0
  149.2179  141.7278  155.8228 N   0  0  0  0  0  0  0  0  0  0  0  0
  148.7385  141.8646  154.5731 C   0  0  0  0  0  0  0  0  0  0  0  0
  149.3930  141.4596  153.6049 O   0  0  0  0  0  0  0  0  0  0  0  0
  147.5195  142.4702  154.5552 N   0  5  0  0  0  0  0  0  0  0  0  0
  147.3104  143.9101  154.4271 C   0  0  0  0  0  0  0  0  0  0  0  0
  146.2926  144.1856  153.3035 C   0  0  0  0  0  0  0  0  0  0  0  0
  145.2226  145.1235  153.7359 N   0  3  1  0  0  0  0  0  0  0  0  0
  144.8855  144.9894  155.1737 C   0  0  0  0  0  0  0  0  0  0  0  0
  143.7167  145.9169  155.5610 C   0  0  2  0  0  0  0  0  0  0  0  0
  142.3500  145.4311  155.0465 C   0  0  0  0  0  0  0  0  0  0  0  0
  143.9969  147.2596  155.1644 O   0  0  0  0  0  0  0  0  0  0  0  0
  144.2931  147.4251  153.7799 C   0  0  1  0  0  0  0  0  0  0  0  0
  144.5676  148.9119  153.5308 C   0  0  0  0  0  0  0  0  0  0  0  0
  145.4991  146.5455  153.4075 C   0  0  0  0  0  0  0  0  0  0  0  0
  151.2401  140.3657  155.5442 N   0  0  0  0  0  0  0  0  0  0  0  0
  152.3192  140.0820  156.3896 O   0  0  0  0  0  0  0  0  0  0  0  0
  152.9423  141.1192  159.5091 H   0  0  0  0  0  0  0  0  0  0  0  0
  154.1479  140.8777  158.2434 H   0  0  0  0  0  0  0  0  0  0  0  0
  153.2646  139.4957  158.8971 H   0  0  0  0  0  0  0  0  0  0  0  0
  150.5311  142.0360  158.3330 H   0  0  0  0  0  0  0  0  0  0  0  0
  148.6234  142.0778  156.5591 H   0  0  0  0  0  0  0  0  0  0  0  0
  146.9407  144.3520  155.3532 H   0  0  0  0  0  0  0  0  0  0  0  0
  148.2402  144.4320  154.1975 H   0  0  0  0  0  0  0  0  0  0  0  0
  146.8341  144.6146  152.4587 H   0  0  0  0  0  0  0  0  0  0  0  0
  145.8511  143.2572  152.9370 H   0  0  0  0  0  0  0  0  0  0  0  0
  144.6288  143.9549  155.4054 H   0  0  0  0  0  0  0  0  0  0  0  0
  145.7663  145.2376  155.7680 H   0  0  0  0  0  0  0  0  0  0  0  0
  143.6536  145.9322  156.6496 H   0  0  0  0  0  0  0  0  0  0  0  0
  142.1019  144.4584  155.4718 H   0  0  0  0  0  0  0  0  0  0  0  0
  142.3290  145.3240  153.9624 H   0  0  0  0  0  0  0  0  0  0  0  0
  141.5588  146.1254  155.3303 H   0  0  0  0  0  0  0  0  0  0  0  0
  143.4295  147.1375  153.1801 H   0  0  0  0  0  0  0  0  0  0  0  0
  144.7832  149.1000  152.4788 H   0  0  0  0  0  0  0  0  0  0  0  0
  145.4200  149.2604  154.1146 H   0  0  0  0  0  0  0  0  0  0  0  0
  143.7047  149.5186  153.8065 H   0  0  0  0  0  0  0  0  0  0  0  0
  146.3890  146.8767  153.9453 H   0  0  0  0  0  0  0  0  0  0  0  0
  145.7132  146.6531  152.3436 H   0  0  0  0  0  0  0  0  0  0  0  0
  144.3943  144.8529  153.2248 H   0  0  0  0  0  0  0  0  0  0  0  0
  1  2  1  0  0  0  0
  1 21  1  0  0  0  0
  1 22  1  0  0  0  0
  1 23  1  0  0  0  0
  2 20  1  0  0  0  0
  2  3  2  0  0  0  0
  3  4  1  0  0  0  0
  3 24  1  0  0  0  0
  4  5  1  0  0  0  0
  4 19  2  0  0  0  0
  5  6  1  0  0  0  0
  5 25  1  0  0  0  0
  6  7  2  0  0  0  0
  6  8  1  0  0  0  0
  8  9  1  0  0  0  0
  9 10  1  0  0  0  0
  9 26  1  0  0  0  0
  9 27  1  0  0  0  0
 10 11  1  0  0  0  0
 10 28  1  0  0  0  0
 10 29  1  0  0  0  0
 11 18  1  0  0  0  0
 11 12  1  0  0  0  0
 11 42  1  0  0  0  0
 12 13  1  0  0  0  0
 12 30  1  0  0  0  0
 12 31  1  0  0  0  0
 13 14  1  0  0  0  0
 13 15  1  0  0  0  0
 13 32  1  0  0  0  0
 14 33  1  0  0  0  0
 14 34  1  0  0  0  0
 14 35  1  0  0  0  0
 15 16  1  0  0  0  0
 16 17  1  0  0  0  0
 16 18  1  0  0  0  0
 16 36  1  0  0  0  0
 17 37  1  0  0  0  0
 17 38  1  0  0  0  0
 17 39  1  0  0  0  0
 18 40  1  0  0  0  0
 18 41  1  0  0  0  0
 19 20  1  0  0  0  0
M  CHG  1   8  -1
M  CHG  1  11   1
M  END
> <s_m_source_file>
AV-unprocessed.smi

> <i_m_source_file_index>
1381

> <i_lp_mmshare_version>
43012

> <i_f3d_flags>
0

> <s_epik_input>
W0NIM11jMVtjSF1jKG5vMSlbTkhdQyg9TylbTkhdW0NIMl1bQ0gyXU4yW0NIMl1bQ0BASF0oW0NIM10pT1tDQEBIXShbQ0gzXSlbQ0gyXTI=

> <s_epik_cmdline>
J2VwaWtfcHl0aG9uJywgJy1waCcsICc3LjAnLCAnLXRuJywgJzgnLCAnLW1hJywgJzIwMCcsICctbWV0YWxfYmluZGluZycsICctaW1hZScsICc8aW5maWxlLm1hZT4nLCAnLW9tYWUnLCAnPG91dGZpbGUubWFlPic=

> <r_epik_Ionization_Penalty>
6.8073

> <r_epik_Ionization_Penalty_Charging>
6.80729

> <r_epik_Ionization_Penalty_Neutral>
5.65391e-06

> <r_epik_State_Penalty>
7.47323

> <r_epik_Charging_Adjusted_Penalty>
14.2805

> <i_epik_Tot_Q>
0

> <i_epik_Tot_abs_Q>
2

> <r_epik_Metal_State_Penalty>
3.40035

> <b_epik_Metal_Only>
1

> <s_lp_Force_Field>
OPLS_2005

> <r_lp_Energy>
15.0618

> <b_lp_Chiralities_Consistent>
1

> <s_lp_Variant>
AV-unprocessed.smi:1381-16

> <Gold.Version>
5.8.1

> <Gold.Id.Protein>
6NUR|6NUR_protein|mol2

> <Gold.PLP.Fitness>
38.8984

> <Gold.PLP.PLP>
-27.4275

> <Gold.PLP.part.hbond>
-5.0000

> <Gold.PLP.part.metal>
0.0000

> <Gold.PLP.part.buried>
-4.2041

> <Gold.PLP.part.nonpolar>
-20.4500

> <Gold.PLP.part.repulsive>
2.3177

> <Gold.PLP.ligand.clash>
0.0000

> <Gold.PLP.ligand.torsion>
1.5884

> <Gold.PLP.Chemscore.Hbond>
4.8640

> <Gold.PLP.Chemscore.CHOScore>
0.0000

> <Gold.PLP.Chemscore.Metal>
0.0000

> <Gold.Chemscore.Hbonds>
donor molecule, donor type, donor heavy atom, donor atom, acceptor molecule, acceptor atom, score
      P1  H  7989  7998       L1    19  0.69
      P1  H  7997  8010       L1    20  0.80
      P1  H  8011  8017       L1     7  0.83

> <Gold.PLP.Chemscore.Internal.Correction>
0.0557

> <Gold.Rescore>
     Score         DG    S(hbond)    S(metal)    S(lipo)     H(rot)  DE(clash)    DE(int)     intcor
     13.65     -15.70       2.21        0.00      58.81       1.58       0.23       1.82       ----

> <Gold.Chemscore.Fitness>
13.6490

> <Gold.Chemscore.DG>
-15.6957

> <Gold.Chemscore.ZeroCoef>
-5.4800

> <Gold.Chemscore.Hbond>
2.2090

> <Gold.Chemscore.Metal>
0.0000

> <Gold.Chemscore.Lipo>
58.8078

> <Gold.Chemscore.Internal_Hbond>
0.0000

> <Gold.Chemscore.DEClash>
0.2314

> <Gold.Chemscore.DEInternal>
1.8153

> <Gold.Chemscore.Rot>
1.5792

> <Gold.Chemscore.Internal.Correction>
   9.000000E+99

> <Gold.Chemscore.Hbonds>
donor molecule, donor type, donor heavy atom, donor atom, acceptor molecule, acceptor atom, score
      P1  H  7989  7998       L1    19  0.61
      P1  H  7997  8010       L1    20  0.11
      P1  H  8011  8017       L1     7  0.82

> <Gold.Chemscore.Hbond.Weighted>
-7.3780

> <Gold.Chemscore.Metal.Weighted>
-0.0000

> <Gold.Chemscore.Lipo.Weighted>
-6.8805

> <Gold.Chemscore.Internal_Hbond.Weighted>
0.0000

> <Gold.Chemscore.DEClash.Weighted>
0.2314

> <Gold.Chemscore.DEInternal.Weighted>
1.8153

> <Gold.Chemscore.Rot.Weighted>
4.0428

> <Gold.Chemscore.Internal.Correction.Weighted>
   9.000000E+99

> <Gold.Protein.RotatedTorsions>
[ 6907 6896 6895 6894 ] final  -13.87 input  -60.11 | X-H torsion
[ 7974 7965 7964 7962 ] final  137.03 input  175.53 | X-H torsion
[ 8008 7997 7996 7995 ] final   70.15 input   59.86 | X-H torsion
[ 10167 10162 10161 10158 ] final  135.74 input  -65.29 | X-H torsion
[ 10718 10713 10712 10709 ] final  -33.67 input   66.30 | X-H torsion
[ 10763 10752 10751 10750 ] final -113.22 input  -60.55 | X-H torsion
[ 11005 11000 10999 10996 ] final   69.12 input  -57.11 | X-H torsion

> <Gold.Protein.ActiveResidues>
 VAL166  LYS551  ARG553  GLY616  TRP617  ASP618  TYR619  PRO620  LYS621  CYS622 
 ASP623  PHE694  ASN695  SER759  ASP760  ASP761  ALA762  ILE779  LEU786  VAL792 
 PHE793  MET794  SER795  GLU796  ALA797  LYS798  CYS799  TRP800  GLU811  SER814 

> <Gold.Protein.RotatedAtoms>
  151.3482  135.0878  159.9393 H   0  0  0  0  0  0  0  0  0  0  0  0  # atno 6907 bound_to 6896
  152.5194  133.9379  159.7622 H   0  0  0  0  0  0  0  0  0  0  0  0  # atno 6908 bound_to 6896
  150.9749  133.6252  159.2761 H   0  0  0  0  0  0  0  0  0  0  0  0  # atno 6909 bound_to 6896
  144.9507  139.4822  143.5527 H   0  0  0  0  0  0  0  0  0  0  0  0  # atno 7974 bound_to 7965
  155.7344  140.3491  155.5075 H   0  0  0  0  0  0  0  0  0  0  0  0  # atno 8008 bound_to 7997
  155.9152  140.1057  157.1270 H   0  0  0  0  0  0  0  0  0  0  0  0  # atno 8009 bound_to 7997
  154.4061  140.1260  156.4595 H   0  0  0  0  0  0  0  0  0  0  0  0  # atno 8010 bound_to 7997
  139.5206  144.6501  151.5326 H   0  0  0  0  0  0  0  0  0  0  0  0  # atno 10167 bound_to 10162
  156.3598  130.4322  149.7633 H   0  0  0  0  0  0  0  0  0  0  0  0  # atno 10718 bound_to 10713
  154.8386  135.4462  154.1316 H   0  0  0  0  0  0  0  0  0  0  0  0  # atno 10763 bound_to 10752
  153.2525  135.6928  153.7670 H   0  0  0  0  0  0  0  0  0  0  0  0  # atno 10764 bound_to 10752
  153.6977  135.3377  155.3193 H   0  0  0  0  0  0  0  0  0  0  0  0  # atno 10765 bound_to 10752
  139.9672  134.6961  156.0521 H   0  0  0  0  0  0  0  0  0  0  0  0  # atno 11005 bound_to 11000
  146.3320  139.8590  142.8859 LP  0  0  0  0  0  0  0  0  0  0  0  0  # atno 17320 bound_to 7965
  145.2849  141.0150  143.3696 LP  0  0  0  0  0  0  0  0  0  0  0  0  # atno 17321 bound_to 7965
  140.6302  143.9090  150.6599 LP  0  0  0  0  0  0  0  0  0  0  0  0  # atno 17342 bound_to 10162
  140.2392  143.3677  152.1501 LP  0  0  0  0  0  0  0  0  0  0  0  0  # atno 17343 bound_to 10162
  156.4801  130.8037  151.3052 LP  0  0  0  0  0  0  0  0  0  0  0  0  # atno 17370 bound_to 10713
  157.7472  131.0008  150.2941 LP  0  0  0  0  0  0  0  0  0  0  0  0  # atno 17371 bound_to 10713
  141.1351  133.6577  156.3573 LP  0  0  0  0  0  0  0  0  0  0  0  0  # atno 17394 bound_to 11000
  140.5371  134.6156  157.5368 LP  0  0  0  0  0  0  0  0  0  0  0  0  # atno 17395 bound_to 11000

$$$$
