AV-unprocessed.smi:1867|AV-procd|sdf|7573|dock4
  -GOLD-   22720 9283D 1   1.00000     0.00000
 Structure written by MMmdl.
 53 56  0  0  0  0  0  0  0  0  3 V2000
  146.6020  137.9062  155.1315 O   0  0  0  0  0  0  0  0  0  0  0  0
  147.3619  137.6303  154.2070 C   0  0  0  0  0  0  0  0  0  0  0  0
  148.6113  138.1161  154.0616 N   0  0  0  0  0  0  0  0  0  0  0  0
  149.3321  139.0207  154.8902 C   0  0  0  0  0  0  0  0  0  0  0  0
  150.7405  138.9970  154.8042 C   0  0  0  0  0  0  0  0  0  0  0  0
  151.5101  139.8659  155.6046 C   0  0  0  0  0  0  0  0  0  0  0  0
  150.8630  140.7582  156.4913 C   0  0  0  0  0  0  0  0  0  0  0  0
  151.5619  141.6499  157.3269 N   0  0  0  0  0  0  0  0  0  0  0  0
  151.3426  143.0851  157.2651 C   0  0  0  0  0  0  0  0  0  0  0  0
  152.1713  143.6514  158.4175 C   0  0  0  0  0  0  0  0  0  0  0  0
  152.1134  142.5407  159.4665 C   0  0  0  0  0  0  0  0  0  0  0  0
  152.0460  141.2498  158.6421 C   0  0  0  0  0  0  0  0  0  0  0  0
  149.5102  140.7425  156.5477 N   0  3  0  0  0  0  0  0  0  0  0  0
  148.7351  139.9274  155.7999 C   0  0  0  0  0  0  0  0  0  0  0  0
  146.9806  136.7893  153.2289 N   0  0  0  0  0  0  0  0  0  0  0  0
  145.7031  136.0911  153.0802 C   0  0  1  0  0  0  0  0  0  0  0  0
  144.5130  137.0078  152.8071 C   0  0  0  0  0  0  0  0  0  0  0  0
  143.4944  136.0434  152.1961 C   0  0  0  0  0  0  0  0  0  0  0  0
  144.2818  135.0464  151.4352 N   0  3  2  0  0  0  0  0  0  0  0  0
  143.7219  133.6728  151.4506 C   0  0  0  0  0  0  0  0  0  0  0  0
  144.6025  132.7160  150.6250 C   0  0  0  0  0  0  0  0  0  0  0  0
  146.0994  132.7993  150.9930 C   0  0  0  0  0  0  0  0  0  0  0  0
  146.3686  133.7935  152.1331 C   0  0  0  0  0  0  0  0  0  0  0  0
  145.7068  135.1621  151.8567 C   0  0  2  0  0  0  0  0  0  0  0  0
  149.1027  137.8095  153.2351 H   0  0  0  0  0  0  0  0  0  0  0  0
  151.2352  138.3156  154.1275 H   0  0  0  0  0  0  0  0  0  0  0  0
  152.5868  139.8342  155.5286 H   0  0  0  0  0  0  0  0  0  0  0  0
  151.6526  143.5019  156.3065 H   0  0  0  0  0  0  0  0  0  0  0  0
  150.2826  143.2974  157.4112 H   0  0  0  0  0  0  0  0  0  0  0  0
  153.2028  143.7978  158.0944 H   0  0  0  0  0  0  0  0  0  0  0  0
  151.7938  144.6066  158.7838 H   0  0  0  0  0  0  0  0  0  0  0  0
  152.9596  142.5597  160.1540 H   0  0  0  0  0  0  0  0  0  0  0  0
  151.2016  142.6453  160.0563 H   0  0  0  0  0  0  0  0  0  0  0  0
  151.3954  140.5163  159.1199 H   0  0  0  0  0  0  0  0  0  0  0  0
  153.0372  140.8088  158.5325 H   0  0  0  0  0  0  0  0  0  0  0  0
  147.6763  140.0399  155.9737 H   0  0  0  0  0  0  0  0  0  0  0  0
  147.6630  136.6120  152.5054 H   0  0  0  0  0  0  0  0  0  0  0  0
  145.4942  135.4986  153.9733 H   0  0  0  0  0  0  0  0  0  0  0  0
  144.1387  137.5032  153.7035 H   0  0  0  0  0  0  0  0  0  0  0  0
  144.7823  137.7773  152.0816 H   0  0  0  0  0  0  0  0  0  0  0  0
  142.9438  135.5488  152.9981 H   0  0  0  0  0  0  0  0  0  0  0  0
  142.7695  136.5498  151.5585 H   0  0  0  0  0  0  0  0  0  0  0  0
  143.6447  133.3179  152.4797 H   0  0  0  0  0  0  0  0  0  0  0  0
  142.7084  133.6891  151.0481 H   0  0  0  0  0  0  0  0  0  0  0  0
  144.2454  131.6935  150.7529 H   0  0  0  0  0  0  0  0  0  0  0  0
  144.4840  132.9429  149.5645 H   0  0  0  0  0  0  0  0  0  0  0  0
  146.4743  131.8128  151.2680 H   0  0  0  0  0  0  0  0  0  0  0  0
  146.6676  133.1024  150.1124 H   0  0  0  0  0  0  0  0  0  0  0  0
  145.9896  133.3743  153.0664 H   0  0  0  0  0  0  0  0  0  0  0  0
  147.4428  133.9183  152.2751 H   0  0  0  0  0  0  0  0  0  0  0  0
  146.2253  135.6496  151.0291 H   0  0  0  0  0  0  0  0  0  0  0  0
  144.2647  135.3443  150.4700 H   0  0  0  0  0  0  0  0  0  0  0  0
  149.0479  141.3825  157.1937 H   0  0  0  0  0  0  0  0  0  0  0  0
  1  2  2  0  0  0  0
  2  3  1  0  0  0  0
  2 15  1  0  0  0  0
  3  4  1  0  0  0  0
  3 25  1  0  0  0  0
  4 14  1  0  0  0  0
  4  5  2  0  0  0  0
  5  6  1  0  0  0  0
  5 26  1  0  0  0  0
  6  7  2  0  0  0  0
  6 27  1  0  0  0  0
  7  8  1  0  0  0  0
  7 13  1  0  0  0  0
  8 12  1  0  0  0  0
  8  9  1  0  0  0  0
  9 10  1  0  0  0  0
  9 28  1  0  0  0  0
  9 29  1  0  0  0  0
 10 11  1  0  0  0  0
 10 30  1  0  0  0  0
 10 31  1  0  0  0  0
 11 12  1  0  0  0  0
 11 32  1  0  0  0  0
 11 33  1  0  0  0  0
 12 34  1  0  0  0  0
 12 35  1  0  0  0  0
 13 14  2  0  0  0  0
 13 53  1  0  0  0  0
 14 36  1  0  0  0  0
 15 16  1  0  0  0  0
 15 37  1  0  0  0  0
 16 24  1  0  0  0  0
 16 17  1  0  0  0  0
 16 38  1  0  0  0  0
 17 18  1  0  0  0  0
 17 39  1  0  0  0  0
 17 40  1  0  0  0  0
 18 19  1  0  0  0  0
 18 41  1  0  0  0  0
 18 42  1  0  0  0  0
 19 24  1  0  0  0  0
 19 20  1  0  0  0  0
 19 52  1  0  0  0  0
 20 21  1  0  0  0  0
 20 43  1  0  0  0  0
 20 44  1  0  0  0  0
 21 22  1  0  0  0  0
 21 45  1  0  0  0  0
 21 46  1  0  0  0  0
 22 23  1  0  0  0  0
 22 47  1  0  0  0  0
 22 48  1  0  0  0  0
 23 24  1  0  0  0  0
 23 49  1  0  0  0  0
 23 50  1  0  0  0  0
 24 51  1  0  0  0  0
M  CHG  1  13   1
M  CHG  1  19   1
M  END
> <s_m_source_file>
AV-unprocessed.smi

> <i_m_source_file_index>
1867

> <i_lp_mmshare_version>
43012

> <i_f3d_flags>
0

> <s_epik_input>
W0NIMl0xW0NIMl1bQ0gyXVtDSDJdW0NASF0oTjEyKVtDQEBIXShbQ0gyXVtDSDJdMilbTkhdQyg9TylbTkhdYzNbY0hdW2NIXWMobltjSF0zKU40W0NIMl1bQ0gyXVtDSDJdW0NIMl00

> <s_epik_cmdline>
J2VwaWtfcHl0aG9uJywgJy1waCcsICc3LjAnLCAnLXRuJywgJzgnLCAnLW1hJywgJzIwMCcsICctbWV0YWxfYmluZGluZycsICctaW1hZScsICc8aW5maWxlLm1hZT4nLCAnLW9tYWUnLCAnPG91dGZpbGUubWFlPic=

> <r_lp_tautomer_probability>
0.999994

> <r_epik_Ionization_Penalty>
1.27347

> <r_epik_Ionization_Penalty_Charging>
1.27345

> <r_epik_Ionization_Penalty_Neutral>
1.96458e-05

> <r_epik_State_Penalty>
1.34393

> <r_epik_Charging_Adjusted_Penalty>
2.61738

> <i_epik_Tot_Q>
2

> <i_epik_Tot_abs_Q>
2

> <r_epik_Metal_State_Penalty>
1.41094

> <b_epik_Metal_Only>
0

> <s_lp_Force_Field>
OPLS_2005

> <r_lp_Energy>
84.8883

> <b_lp_Chiralities_Consistent>
1

> <s_lp_Variant>
AV-unprocessed.smi:1867-14

> <Gold.Version>
5.8.1

> <Gold.Id.Protein>
6NUR|6NUR_protein|mol2

> <Gold.PLP.Fitness>
42.9905

> <Gold.PLP.PLP>
-40.7847

> <Gold.PLP.part.hbond>
-1.8708

> <Gold.PLP.part.metal>
0.0000

> <Gold.PLP.part.buried>
-6.0759

> <Gold.PLP.part.nonpolar>
-33.7235

> <Gold.PLP.part.repulsive>
0.0767

> <Gold.PLP.ligand.clash>
0.0000

> <Gold.PLP.ligand.torsion>
1.4268

> <Gold.PLP.Chemscore.Hbond>
1.6232

> <Gold.PLP.Chemscore.CHOScore>
0.0000

> <Gold.PLP.Chemscore.Metal>
0.0000

> <Gold.Chemscore.Hbonds>
donor molecule, donor type, donor heavy atom, donor atom, acceptor molecule, acceptor atom, score
      L1  H     3    25       P1  7948  0.69
      L1  H    15    37       P1  7948  0.89

> <Gold.PLP.Chemscore.Internal.Correction>
0.1897

> <Gold.Rescore>
     Score         DG    S(hbond)    S(metal)    S(lipo)     H(rot)  DE(clash)    DE(int)     intcor
     18.30     -20.94       1.76        0.00     103.65       1.00       0.05       2.58       ----

> <Gold.Chemscore.Fitness>
18.3049

> <Gold.Chemscore.DG>
-20.9368

> <Gold.Chemscore.ZeroCoef>
-5.4800

> <Gold.Chemscore.Hbond>
1.7635

> <Gold.Chemscore.Metal>
0.0000

> <Gold.Chemscore.Lipo>
103.6482

> <Gold.Chemscore.Internal_Hbond>
0.0000

> <Gold.Chemscore.DEClash>
0.0519

> <Gold.Chemscore.DEInternal>
2.5799

> <Gold.Chemscore.Rot>
1.0000

> <Gold.Chemscore.Internal.Correction>
   9.000000E+99

> <Gold.Chemscore.Hbonds>
donor molecule, donor type, donor heavy atom, donor atom, acceptor molecule, acceptor atom, score
      L1  H     3    25       P1  7948  0.66
      L1  H    15    37       P1  7948  0.85

> <Gold.Chemscore.Hbond.Weighted>
-5.8899

> <Gold.Chemscore.Metal.Weighted>
-0.0000

> <Gold.Chemscore.Lipo.Weighted>
-12.1268

> <Gold.Chemscore.Internal_Hbond.Weighted>
0.0000

> <Gold.Chemscore.DEClash.Weighted>
0.0519

> <Gold.Chemscore.DEInternal.Weighted>
2.5799

> <Gold.Chemscore.Rot.Weighted>
2.5600

> <Gold.Chemscore.Internal.Correction.Weighted>
   9.000000E+99

> <Gold.Protein.RotatedTorsions>
[ 6907 6896 6895 6894 ] final  -98.45 input  -60.11 | X-H torsion
[ 7974 7965 7964 7962 ] final  150.08 input  175.53 | X-H torsion
[ 8008 7997 7996 7995 ] final    0.81 input   59.86 | X-H torsion
[ 10167 10162 10161 10158 ] final   62.37 input  -65.29 | X-H torsion
[ 10718 10713 10712 10709 ] final  -93.59 input   66.30 | X-H torsion
[ 10763 10752 10751 10750 ] final   64.61 input  -60.55 | X-H torsion
[ 11005 11000 10999 10996 ] final  -55.92 input  -57.11 | X-H torsion

> <Gold.Protein.ActiveResidues>
 VAL166  LYS551  ARG553  GLY616  TRP617  ASP618  TYR619  PRO620  LYS621  CYS622 
 ASP623  PHE694  ASN695  SER759  ASP760  ASP761  ALA762  ILE779  LEU786  VAL792 
 PHE793  MET794  SER795  GLU796  ALA797  LYS798  CYS799  TRP800  GLU811  SER814 

> <Gold.Protein.RotatedAtoms>
  150.7047  134.1192  159.4028 H   0  0  0  0  0  0  0  0  0  0  0  0  # atno 6907 bound_to 6896
  151.9179  135.0309  160.0529 H   0  0  0  0  0  0  0  0  0  0  0  0  # atno 6908 bound_to 6896
  152.2281  133.5001  159.5237 H   0  0  0  0  0  0  0  0  0  0  0  0  # atno 6909 bound_to 6896
  144.8390  139.6363  143.6025 H   0  0  0  0  0  0  0  0  0  0  0  0  # atno 7974 bound_to 7965
  154.6725  140.2615  155.6992 H   0  0  0  0  0  0  0  0  0  0  0  0  # atno 8008 bound_to 7997
  156.2664  140.2826  156.1161 H   0  0  0  0  0  0  0  0  0  0  0  0  # atno 8009 bound_to 7997
  155.1148  140.0376  157.2724 H   0  0  0  0  0  0  0  0  0  0  0  0  # atno 8010 bound_to 7997
  140.1446  144.4520  150.6792 H   0  0  0  0  0  0  0  0  0  0  0  0  # atno 10167 bound_to 10162
  156.0015  130.5033  150.5800 H   0  0  0  0  0  0  0  0  0  0  0  0  # atno 10718 bound_to 10713
  153.0062  135.5387  154.6536 H   0  0  0  0  0  0  0  0  0  0  0  0  # atno 10763 bound_to 10752
  154.5762  135.2846  155.0780 H   0  0  0  0  0  0  0  0  0  0  0  0  # atno 10764 bound_to 10752
  154.1927  135.6497  153.5117 H   0  0  0  0  0  0  0  0  0  0  0  0  # atno 10765 bound_to 10752
  141.1096  133.6611  156.4542 H   0  0  0  0  0  0  0  0  0  0  0  0  # atno 11005 bound_to 11000
  146.2685  139.6578  142.9312 LP  0  0  0  0  0  0  0  0  0  0  0  0  # atno 17320 bound_to 7965
  145.4734  141.0436  143.2686 LP  0  0  0  0  0  0  0  0  0  0  0  0  # atno 17321 bound_to 7965
  140.6739  143.2297  151.5555 LP  0  0  0  0  0  0  0  0  0  0  0  0  # atno 17342 bound_to 10162
  139.5455  144.2533  152.1434 LP  0  0  0  0  0  0  0  0  0  0  0  0  # atno 17343 bound_to 10162
  157.3681  131.0761  151.1580 LP  0  0  0  0  0  0  0  0  0  0  0  0  # atno 17370 bound_to 10713
  157.2343  130.6539  149.5863 LP  0  0  0  0  0  0  0  0  0  0  0  0  # atno 17371 bound_to 10713
  140.4810  134.6665  157.5171 LP  0  0  0  0  0  0  0  0  0  0  0  0  # atno 17394 bound_to 11000
  139.9983  134.6876  155.9572 LP  0  0  0  0  0  0  0  0  0  0  0  0  # atno 17395 bound_to 11000

$$$$
