AV-unprocessed.smi:2943|AV-procd|sdf|11270|dock4
  -GOLD-   2272016163D 1   1.00000     0.00000
 Structure written by MMmdl.
 37 39  0  0  0  0  0  0  0  0  2 V2000
  150.6603  137.6612  154.4163 C   0  0  0  0  0  0  0  0  0  0  0  0
  150.3684  139.0914  154.7631 C   0  0  0  0  0  0  0  0  0  0  0  0
  151.1815  139.9396  155.4811 C   0  0  0  0  0  0  0  0  0  0  0  0
  152.5294  139.6527  156.0690 C   0  0  0  0  0  0  0  0  0  0  0  0
  150.5651  141.1856  155.6172 N   0  0  0  0  0  0  0  0  0  0  0  0
  151.1057  142.3384  156.3242 C   0  0  0  0  0  0  0  0  0  0  0  0
  151.0662  142.1499  157.8493 C   0  0  2  0  0  0  0  0  0  0  0  0
  151.3550  143.4247  158.6384 C   0  0  0  0  0  0  0  0  0  0  0  0
  151.8245  142.8605  159.9595 C   0  0  0  0  0  0  0  0  0  0  0  0
  152.6318  141.6445  159.5125 C   0  0  0  0  0  0  0  0  0  0  0  0
  152.0552  141.2178  158.2803 O   0  0  0  0  0  0  0  0  0  0  0  0
  149.3479  141.1479  154.9565 C   0  0  0  0  0  0  0  0  0  0  0  0
  148.4267  142.1405  154.8228 N   0  3  0  0  0  0  0  0  0  0  0  0
  147.3210  141.8585  154.1256 C   0  0  0  0  0  0  0  0  0  0  0  0
  147.1000  140.6577  153.5715 N   0  0  0  0  0  0  0  0  0  0  0  0
  147.9954  139.6461  153.6864 C   0  0  0  0  0  0  0  0  0  0  0  0
  147.6729  138.4396  153.0692 N   0  0  0  0  0  0  0  0  0  0  0  0
  149.2001  139.8505  154.4087 C   0  0  0  0  0  0  0  0  0  0  0  0
  151.2494  137.1717  155.1919 H   0  0  0  0  0  0  0  0  0  0  0  0
  151.2168  137.5897  153.4818 H   0  0  0  0  0  0  0  0  0  0  0  0
  149.7453  137.0807  154.3032 H   0  0  0  0  0  0  0  0  0  0  0  0
  152.9644  138.7470  155.6470 H   0  0  0  0  0  0  0  0  0  0  0  0
  152.4599  139.5190  157.1488 H   0  0  0  0  0  0  0  0  0  0  0  0
  153.2283  140.4655  155.8719 H   0  0  0  0  0  0  0  0  0  0  0  0
  152.1314  142.5011  155.9912 H   0  0  0  0  0  0  0  0  0  0  0  0
  150.5500  143.2308  156.0360 H   0  0  0  0  0  0  0  0  0  0  0  0
  150.0944  141.7585  158.1538 H   0  0  0  0  0  0  0  0  0  0  0  0
  152.1579  143.9966  158.1709 H   0  0  0  0  0  0  0  0  0  0  0  0
  150.4833  144.0727  158.7346 H   0  0  0  0  0  0  0  0  0  0  0  0
  152.4090  143.5690  160.5473 H   0  0  0  0  0  0  0  0  0  0  0  0
  150.9680  142.5447  160.5569 H   0  0  0  0  0  0  0  0  0  0  0  0
  153.6702  141.9226  159.3289 H   0  0  0  0  0  0  0  0  0  0  0  0
  152.6213  140.8458  160.2547 H   0  0  0  0  0  0  0  0  0  0  0  0
  146.5952  142.6514  154.0200 H   0  0  0  0  0  0  0  0  0  0  0  0
  146.8098  138.3220  152.5580 H   0  0  0  0  0  0  0  0  0  0  0  0
  148.2835  137.6373  153.1293 H   0  0  0  0  0  0  0  0  0  0  0  0
  148.5864  143.0601  155.2343 H   0  0  0  0  0  0  0  0  0  0  0  0
  1  2  1  0  0  0  0
  1 19  1  0  0  0  0
  1 20  1  0  0  0  0
  1 21  1  0  0  0  0
  2 18  1  0  0  0  0
  2  3  2  0  0  0  0
  3  4  1  0  0  0  0
  3  5  1  0  0  0  0
  4 22  1  0  0  0  0
  4 23  1  0  0  0  0
  4 24  1  0  0  0  0
  5  6  1  0  0  0  0
  5 12  1  0  0  0  0
  6  7  1  0  0  0  0
  6 25  1  0  0  0  0
  6 26  1  0  0  0  0
  7 11  1  0  0  0  0
  7  8  1  0  0  0  0
  7 27  1  0  0  0  0
  8  9  1  0  0  0  0
  8 28  1  0  0  0  0
  8 29  1  0  0  0  0
  9 10  1  0  0  0  0
  9 30  1  0  0  0  0
  9 31  1  0  0  0  0
 10 11  1  0  0  0  0
 10 32  1  0  0  0  0
 10 33  1  0  0  0  0
 12 18  1  0  0  0  0
 12 13  2  0  0  0  0
 13 14  1  0  0  0  0
 13 37  1  0  0  0  0
 14 15  2  0  0  0  0
 14 34  1  0  0  0  0
 15 16  1  0  0  0  0
 16 17  1  0  0  0  0
 16 18  2  0  0  0  0
 17 35  1  0  0  0  0
 17 36  1  0  0  0  0
M  CHG  1  13   1
M  END
> <s_m_source_file>
AV-unprocessed.smi

> <i_m_source_file_index>
2943

> <i_lp_mmshare_version>
43012

> <i_f3d_flags>
0

> <s_epik_input>
bjFbY0hdbmMoW05IMl0pYyhjMTIpYyhbQ0gzXSljKFtDSDNdKW4yW0NIMl1bQ0BASF0zW0NIMl1bQ0gyXVtDSDJdTzM=

> <s_epik_cmdline>
J2VwaWtfcHl0aG9uJywgJy1waCcsICc3LjAnLCAnLXRuJywgJzgnLCAnLW1hJywgJzIwMCcsICctbWV0YWxfYmluZGluZycsICctaW1hZScsICc8aW5maWxlLm1hZT4nLCAnLW9tYWUnLCAnPG91dGZpbGUubWFlPic=

> <r_epik_Ionization_Penalty>
2.35523

> <r_epik_Ionization_Penalty_Charging>
2.35518

> <r_epik_Ionization_Penalty_Neutral>
5.21205e-05

> <r_epik_State_Penalty>
2.50981

> <r_epik_Charging_Adjusted_Penalty>
4.86499

> <i_epik_Tot_Q>
1

> <i_epik_Tot_abs_Q>
1

> <r_epik_Metal_State_Penalty>
2.52087

> <b_epik_Metal_Only>
0

> <s_lp_Force_Field>
OPLS_2005

> <r_lp_Energy>
21.0086

> <b_lp_Chiralities_Consistent>
1

> <s_lp_Variant>
AV-unprocessed.smi:2943-3

> <Gold.Version>
5.8.1

> <Gold.Id.Protein>
6NUR|6NUR_protein|mol2

> <Gold.PLP.Fitness>
43.8423

> <Gold.PLP.PLP>
-36.0354

> <Gold.PLP.part.hbond>
-2.6902

> <Gold.PLP.part.metal>
0.0000

> <Gold.PLP.part.buried>
-0.5281

> <Gold.PLP.part.nonpolar>
-32.5986

> <Gold.PLP.part.repulsive>
0.3926

> <Gold.PLP.ligand.clash>
0.0000

> <Gold.PLP.ligand.torsion>
0.2152

> <Gold.PLP.Chemscore.Hbond>
2.7454

> <Gold.PLP.Chemscore.CHOScore>
0.0000

> <Gold.PLP.Chemscore.Metal>
0.0000

> <Gold.Chemscore.Hbonds>
donor molecule, donor type, donor heavy atom, donor atom, acceptor molecule, acceptor atom, score
      L1  H    13    37       P1  8028  2.00
      L1  H    17    36       P1  7948  0.72

> <Gold.PLP.Chemscore.Internal.Correction>
0.0011

> <Gold.Rescore>
     Score         DG    S(hbond)    S(metal)    S(lipo)     H(rot)  DE(clash)    DE(int)     intcor
     14.38     -16.06       1.44        0.00      77.24       1.27       0.02       1.66       ----

> <Gold.Chemscore.Fitness>
14.3782

> <Gold.Chemscore.DG>
-16.0555

> <Gold.Chemscore.ZeroCoef>
-5.4800

> <Gold.Chemscore.Hbond>
1.4358

> <Gold.Chemscore.Metal>
0.0000

> <Gold.Chemscore.Lipo>
77.2439

> <Gold.Chemscore.Internal_Hbond>
0.0000

> <Gold.Chemscore.DEClash>
0.0209

> <Gold.Chemscore.DEInternal>
1.6565

> <Gold.Chemscore.Rot>
1.2725

> <Gold.Chemscore.Internal.Correction>
   9.000000E+99

> <Gold.Chemscore.Hbonds>
donor molecule, donor type, donor heavy atom, donor atom, acceptor molecule, acceptor atom, score
      L1  H    13    37       P1  8028  1.00
      L1  H    17    36       P1  7948  0.70

> <Gold.Chemscore.Hbond.Weighted>
-4.7956

> <Gold.Chemscore.Metal.Weighted>
-0.0000

> <Gold.Chemscore.Lipo.Weighted>
-9.0375

> <Gold.Chemscore.Internal_Hbond.Weighted>
0.0000

> <Gold.Chemscore.DEClash.Weighted>
0.0209

> <Gold.Chemscore.DEInternal.Weighted>
1.6565

> <Gold.Chemscore.Rot.Weighted>
3.2576

> <Gold.Chemscore.Internal.Correction.Weighted>
   9.000000E+99

> <Gold.Protein.RotatedTorsions>
[ 6907 6896 6895 6894 ] final   25.27 input  -60.11 | X-H torsion
[ 7974 7965 7964 7962 ] final   53.53 input  175.53 | X-H torsion
[ 8008 7997 7996 7995 ] final   50.43 input   59.86 | X-H torsion
[ 10167 10162 10161 10158 ] final  -21.94 input  -65.29 | X-H torsion
[ 10718 10713 10712 10709 ] final   33.42 input   66.30 | X-H torsion
[ 10763 10752 10751 10750 ] final  111.67 input  -60.55 | X-H torsion
[ 11005 11000 10999 10996 ] final  117.47 input  -57.11 | X-H torsion

> <Gold.Protein.ActiveResidues>
 VAL166  LYS551  ARG553  GLY616  TRP617  ASP618  TYR619  PRO620  LYS621  CYS622 
 ASP623  PHE694  ASN695  SER759  ASP760  ASP761  ALA762  ILE779  LEU786  VAL792 
 PHE793  MET794  SER795  GLU796  ALA797  LYS798  CYS799  TRP800  GLU811  SER814 

> <Gold.Protein.RotatedAtoms>
  151.9700  135.0081  160.0551 H   0  0  0  0  0  0  0  0  0  0  0  0  # atno 6907 bound_to 6896
  152.1792  133.4691  159.4957 H   0  0  0  0  0  0  0  0  0  0  0  0  # atno 6908 bound_to 6896
  150.6914  134.1772  159.4278 H   0  0  0  0  0  0  0  0  0  0  0  0  # atno 6909 bound_to 6896
  145.9702  139.4142  143.0194 H   0  0  0  0  0  0  0  0  0  0  0  0  # atno 7974 bound_to 7965
  155.4187  140.3445  155.4269 H   0  0  0  0  0  0  0  0  0  0  0  0  # atno 8008 bound_to 7997
  156.1406  140.1541  156.8958 H   0  0  0  0  0  0  0  0  0  0  0  0  # atno 8009 bound_to 7997
  154.4968  140.0825  156.7693 H   0  0  0  0  0  0  0  0  0  0  0  0  # atno 8010 bound_to 7997
  140.7284  143.4581  151.0420 H   0  0  0  0  0  0  0  0  0  0  0  0  # atno 10167 bound_to 10162
  157.2976  130.7334  149.6647 H   0  0  0  0  0  0  0  0  0  0  0  0  # atno 10718 bound_to 10713
  153.4667  135.3710  155.2368 H   0  0  0  0  0  0  0  0  0  0  0  0  # atno 10763 bound_to 10752
  154.8757  135.3921  154.3861 H   0  0  0  0  0  0  0  0  0  0  0  0  # atno 10764 bound_to 10752
  153.4443  135.7084  153.6214 H   0  0  0  0  0  0  0  0  0  0  0  0  # atno 10765 bound_to 10752
  139.9075  134.9610  156.7355 H   0  0  0  0  0  0  0  0  0  0  0  0  # atno 11005 bound_to 11000
  145.7916  140.9812  143.1046 LP  0  0  0  0  0  0  0  0  0  0  0  0  # atno 17320 bound_to 7965
  144.6835  139.9690  143.7482 LP  0  0  0  0  0  0  0  0  0  0  0  0  # atno 17321 bound_to 7965
  139.8263  143.7752  152.3178 LP  0  0  0  0  0  0  0  0  0  0  0  0  # atno 17342 bound_to 10162
  139.7852  144.7430  151.0032 LP  0  0  0  0  0  0  0  0  0  0  0  0  # atno 17343 bound_to 10162
  155.9670  130.4290  150.4812 LP  0  0  0  0  0  0  0  0  0  0  0  0  # atno 17370 bound_to 10713
  157.2786  131.0602  151.2212 LP  0  0  0  0  0  0  0  0  0  0  0  0  # atno 17371 bound_to 10713
  140.6891  133.9406  155.7955 LP  0  0  0  0  0  0  0  0  0  0  0  0  # atno 17394 bound_to 11000
  141.0455  134.0560  157.3849 LP  0  0  0  0  0  0  0  0  0  0  0  0  # atno 17395 bound_to 11000

$$$$
