AV-unprocessed.smi:1138|AV-procd|sdf|4868|dock9
  -GOLD-   22720 3443D 1   1.00000     0.00000
 Structure written by MMmdl.
 49 51  0  0  0  0  0  0  0  0  1 V2000
  145.5471  131.2415  151.4258 C   0  0  0  0  0  0  0  0  0  0  0  0
  144.9099  132.2970  150.6448 N   0  0  0  0  0  0  0  0  0  0  0  0
  143.9842  131.9448  149.5751 C   0  0  0  0  0  0  0  0  0  0  0  0
  145.0413  133.6451  151.0504 C   0  0  0  0  0  0  0  0  0  0  0  0
  145.8938  134.0158  152.1199 C   0  0  0  0  0  0  0  0  0  0  0  0
  145.9949  135.3729  152.4800 C   0  0  0  0  0  0  0  0  0  0  0  0
  145.2548  136.3341  151.7658 C   0  0  0  0  0  0  0  0  0  0  0  0
  145.3700  137.6948  152.1589 N   0  0  0  0  0  0  0  0  0  0  0  0
  146.2071  138.2347  153.0613 C   0  0  0  0  0  0  0  0  0  0  0  0
  147.0406  137.6136  153.7207 O   0  0  0  0  0  0  0  0  0  0  0  0
  146.0096  139.5557  153.1761 N   0  0  0  0  0  0  0  0  0  0  0  0
  146.7314  140.4381  154.0883 C   0  0  0  0  0  0  0  0  0  0  0  0
  148.0672  140.8702  153.4467 C   0  0  0  0  0  0  0  0  0  0  0  0
  148.9411  141.6526  154.4438 C   0  0  0  0  0  0  0  0  0  0  0  0
  149.1487  140.8259  155.6394 N   0  0  0  0  0  0  0  0  0  0  0  0
  150.3556  140.2962  155.9610 C   0  0  0  0  0  0  0  0  0  0  0  0
  151.3790  140.5638  155.3292 O   0  0  0  0  0  0  0  0  0  0  0  0
  150.3972  139.3409  157.1147 C   0  0  0  0  0  0  0  0  0  0  0  0
  151.2261  139.7520  158.3135 C   0  0  0  0  0  0  0  0  0  0  0  0
  151.7065  138.6367  157.4230 C   0  0  0  0  0  0  0  0  0  0  0  0
  147.8836  140.5905  156.3496 C   0  0  0  0  0  0  0  0  0  0  0  0
  146.9591  139.7483  155.4529 C   0  0  0  0  0  0  0  0  0  0  0  0
  144.4160  135.8719  150.7250 C   0  0  0  0  0  0  0  0  0  0  0  0
  144.3148  134.5714  150.3783 N   0  0  0  0  0  0  0  0  0  0  0  0
  146.6249  131.3985  151.4775 H   0  0  0  0  0  0  0  0  0  0  0  0
  145.3763  130.2604  150.9830 H   0  0  0  0  0  0  0  0  0  0  0  0
  145.1503  131.2251  152.4416 H   0  0  0  0  0  0  0  0  0  0  0  0
  144.3025  132.3882  148.6312 H   0  0  0  0  0  0  0  0  0  0  0  0
  142.9783  132.2963  149.8066 H   0  0  0  0  0  0  0  0  0  0  0  0
  143.9342  130.8650  149.4337 H   0  0  0  0  0  0  0  0  0  0  0  0
  146.4710  133.2890  152.6709 H   0  0  0  0  0  0  0  0  0  0  0  0
  146.6411  135.6691  153.2935 H   0  0  0  0  0  0  0  0  0  0  0  0
  144.6888  138.3208  151.7549 H   0  0  0  0  0  0  0  0  0  0  0  0
  145.3007  139.9825  152.5979 H   0  0  0  0  0  0  0  0  0  0  0  0
  146.1405  141.3412  154.2543 H   0  0  0  0  0  0  0  0  0  0  0  0
  148.6166  139.9906  153.1068 H   0  0  0  0  0  0  0  0  0  0  0  0
  147.8783  141.4779  152.5611 H   0  0  0  0  0  0  0  0  0  0  0  0
  149.8743  141.9477  153.9622 H   0  0  0  0  0  0  0  0  0  0  0  0
  148.4479  142.5837  154.7268 H   0  0  0  0  0  0  0  0  0  0  0  0
  149.4964  138.7570  157.2954 H   0  0  0  0  0  0  0  0  0  0  0  0
  151.7642  140.6975  158.2661 H   0  0  0  0  0  0  0  0  0  0  0  0
  150.8355  139.4930  159.2952 H   0  0  0  0  0  0  0  0  0  0  0  0
  151.6416  137.6189  157.8021 H   0  0  0  0  0  0  0  0  0  0  0  0
  152.5796  138.8395  156.8055 H   0  0  0  0  0  0  0  0  0  0  0  0
  148.0040  140.1142  157.3216 H   0  0  0  0  0  0  0  0  0  0  0  0
  147.4121  141.5507  156.5636 H   0  0  0  0  0  0  0  0  0  0  0  0
  146.0055  139.5838  155.9559 H   0  0  0  0  0  0  0  0  0  0  0  0
  147.4042  138.7633  155.3028 H   0  0  0  0  0  0  0  0  0  0  0  0
  143.7878  136.5388  150.1558 H   0  0  0  0  0  0  0  0  0  0  0  0
  1  2  1  0  0  0  0
  1 25  1  0  0  0  0
  1 26  1  0  0  0  0
  1 27  1  0  0  0  0
  2  3  1  0  0  0  0
  2  4  1  0  0  0  0
  3 28  1  0  0  0  0
  3 29  1  0  0  0  0
  3 30  1  0  0  0  0
  4 24  1  0  0  0  0
  4  5  2  0  0  0  0
  5  6  1  0  0  0  0
  5 31  1  0  0  0  0
  6  7  2  0  0  0  0
  6 32  1  0  0  0  0
  7  8  1  0  0  0  0
  7 23  1  0  0  0  0
  8  9  1  0  0  0  0
  8 33  1  0  0  0  0
  9 10  2  0  0  0  0
  9 11  1  0  0  0  0
 11 12  1  0  0  0  0
 11 34  1  0  0  0  0
 12 22  1  0  0  0  0
 12 13  1  0  0  0  0
 12 35  1  0  0  0  0
 13 14  1  0  0  0  0
 13 36  1  0  0  0  0
 13 37  1  0  0  0  0
 14 15  1  0  0  0  0
 14 38  1  0  0  0  0
 14 39  1  0  0  0  0
 15 16  1  0  0  0  0
 15 21  1  0  0  0  0
 16 17  2  0  0  0  0
 16 18  1  0  0  0  0
 18 20  1  0  0  0  0
 18 19  1  0  0  0  0
 18 40  1  0  0  0  0
 19 20  1  0  0  0  0
 19 41  1  0  0  0  0
 19 42  1  0  0  0  0
 20 43  1  0  0  0  0
 20 44  1  0  0  0  0
 21 22  1  0  0  0  0
 21 45  1  0  0  0  0
 21 46  1  0  0  0  0
 22 47  1  0  0  0  0
 22 48  1  0  0  0  0
 23 24  2  0  0  0  0
 23 49  1  0  0  0  0
M  END
> <s_m_source_file>
AV-unprocessed.smi

> <i_m_source_file_index>
1138

> <i_lp_mmshare_version>
43012

> <i_f3d_flags>
0

> <s_epik_input>
W0NIM11OKFtDSDNdKWMxW2NIXVtjSF1jKFtjSF1uMSlbTkhdQyg9TylbTkhdW0NIXTJbQ0gyXVtDSDJdTihbQ0gyXVtDSDJdMilDKD1PKVtDSF0zW0NIMl1bQ0gyXTM=

> <s_epik_cmdline>
J2VwaWtfcHl0aG9uJywgJy1waCcsICc3LjAnLCAnLXRuJywgJzgnLCAnLW1hJywgJzIwMCcsICctbWV0YWxfYmluZGluZycsICctaW1hZScsICc8aW5maWxlLm1hZT4nLCAnLW9tYWUnLCAnPG91dGZpbGUubWFlPic=

> <r_lp_tautomer_probability>
1

> <r_epik_Ionization_Penalty>
0.622325

> <r_epik_Ionization_Penalty_Charging>
0

> <r_epik_Ionization_Penalty_Neutral>
0.622325

> <r_epik_State_Penalty>
0.637335

> <r_epik_Charging_Adjusted_Penalty>
0.637335

> <i_epik_Tot_Q>
0

> <i_epik_Tot_abs_Q>
0

> <r_epik_Metal_State_Penalty>
0.306682

> <b_epik_Metal_Only>
0

> <s_lp_Force_Field>
OPLS_2005

> <r_lp_Energy>
33.2088

> <b_lp_Chiralities_Consistent>
1

> <s_lp_Variant>
AV-unprocessed.smi:1138-2

> <Gold.Version>
5.8.1

> <Gold.Id.Protein>
6NUR|6NUR_protein|mol2

> <Gold.PLP.Fitness>
41.7978

> <Gold.PLP.PLP>
-32.3856

> <Gold.PLP.part.hbond>
-3.3782

> <Gold.PLP.part.metal>
0.0000

> <Gold.PLP.part.buried>
0.7184

> <Gold.PLP.part.nonpolar>
-31.0340

> <Gold.PLP.part.repulsive>
0.8123

> <Gold.PLP.ligand.clash>
0.0000

> <Gold.PLP.ligand.torsion>
0.3810

> <Gold.PLP.Chemscore.Hbond>
2.3502

> <Gold.PLP.Chemscore.CHOScore>
1.0000

> <Gold.PLP.Chemscore.Metal>
0.0000

> <Gold.Chemscore.Hbonds>
donor molecule, donor type, donor heavy atom, donor atom, acceptor molecule, acceptor atom, score
      L1  H     8    33       P1 10171  0.55
      L1  H    11    34       P1 10175  0.94
      P1  H  7989  7998       L1    17  0.85
      L1  C    23    49       P1 10171  1.00

> <Gold.PLP.Chemscore.Internal.Correction>
0.1234

> <Gold.Rescore>
     Score         DG    S(hbond)    S(metal)    S(lipo)     H(rot)  DE(clash)    DE(int)     intcor
     14.78     -19.35       2.52        0.00      72.71       1.20       1.30       3.27       ----

> <Gold.Chemscore.Fitness>
14.7821

> <Gold.Chemscore.DG>
-19.3453

> <Gold.Chemscore.ZeroCoef>
-5.4800

> <Gold.Chemscore.Hbond>
2.5217

> <Gold.Chemscore.Metal>
0.0000

> <Gold.Chemscore.Lipo>
72.7089

> <Gold.Chemscore.Internal_Hbond>
0.0000

> <Gold.Chemscore.DEClash>
1.2978

> <Gold.Chemscore.DEInternal>
3.2654

> <Gold.Chemscore.Rot>
1.1969

> <Gold.Chemscore.Internal.Correction>
   9.000000E+99

> <Gold.Chemscore.Hbonds>
donor molecule, donor type, donor heavy atom, donor atom, acceptor molecule, acceptor atom, score
      L1  H     8    33       P1 10171  0.54
      L1  H    11    34       P1 10175  0.91
      P1  H  7989  7998       L1    17  0.83

> <Gold.Chemscore.Hbond.Weighted>
-8.4225

> <Gold.Chemscore.Metal.Weighted>
-0.0000

> <Gold.Chemscore.Lipo.Weighted>
-8.5069

> <Gold.Chemscore.Internal_Hbond.Weighted>
0.0000

> <Gold.Chemscore.DEClash.Weighted>
1.2978

> <Gold.Chemscore.DEInternal.Weighted>
3.2654

> <Gold.Chemscore.Rot.Weighted>
3.0641

> <Gold.Chemscore.Internal.Correction.Weighted>
   9.000000E+99

> <Gold.Protein.RotatedTorsions>
[ 6907 6896 6895 6894 ] final   56.50 input  -60.11 | X-H torsion
[ 7974 7965 7964 7962 ] final  -27.79 input  175.53 | X-H torsion
[ 8008 7997 7996 7995 ] final   21.45 input   59.86 | X-H torsion
[ 10167 10162 10161 10158 ] final  149.04 input  -65.29 | X-H torsion
[ 10718 10713 10712 10709 ] final  -59.09 input   66.30 | X-H torsion
[ 10763 10752 10751 10750 ] final    2.62 input  -60.55 | X-H torsion
[ 11005 11000 10999 10996 ] final  162.25 input  -57.11 | X-H torsion

> <Gold.Protein.ActiveResidues>
 VAL166  LYS551  ARG553  GLY616  TRP617  ASP618  TYR619  PRO620  LYS621  CYS622 
 ASP623  PHE694  ASN695  SER759  ASP760  ASP761  ALA762  ILE779  LEU786  VAL792 
 PHE793  MET794  SER795  GLU796  ALA797  LYS798  CYS799  TRP800  GLU811  SER814 

> <Gold.Protein.RotatedAtoms>
  152.3642  134.6828  160.0196 H   0  0  0  0  0  0  0  0  0  0  0  0  # atno 6907 bound_to 6896
  151.7141  133.3307  159.3306 H   0  0  0  0  0  0  0  0  0  0  0  0  # atno 6908 bound_to 6896
  150.7626  134.6440  159.6297 H   0  0  0  0  0  0  0  0  0  0  0  0  # atno 6909 bound_to 6896
  146.1333  140.5199  142.8684 H   0  0  0  0  0  0  0  0  0  0  0  0  # atno 7974 bound_to 7965
  154.9508  140.3065  155.5076 H   0  0  0  0  0  0  0  0  0  0  0  0  # atno 8008 bound_to 7997
  156.2987  140.2319  156.4524 H   0  0  0  0  0  0  0  0  0  0  0  0  # atno 8009 bound_to 7997
  154.8056  140.0431  157.1293 H   0  0  0  0  0  0  0  0  0  0  0  0  # atno 8010 bound_to 7997
  139.4867  144.5633  151.7191 H   0  0  0  0  0  0  0  0  0  0  0  0  # atno 10167 bound_to 10162
  156.1087  130.4177  150.0667 H   0  0  0  0  0  0  0  0  0  0  0  0  # atno 10718 bound_to 10713
  153.2934  135.6950  153.7272 H   0  0  0  0  0  0  0  0  0  0  0  0  # atno 10763 bound_to 10752
  153.6214  135.3426  155.3013 H   0  0  0  0  0  0  0  0  0  0  0  0  # atno 10764 bound_to 10752
  154.8530  135.4387  154.2023 H   0  0  0  0  0  0  0  0  0  0  0  0  # atno 10765 bound_to 10752
  140.2239  134.8175  157.3249 H   0  0  0  0  0  0  0  0  0  0  0  0  # atno 11005 bound_to 11000
  144.7713  140.5644  143.6668 LP  0  0  0  0  0  0  0  0  0  0  0  0  # atno 17320 bound_to 7965
  145.5212  139.1476  143.3551 LP  0  0  0  0  0  0  0  0  0  0  0  0  # atno 17321 bound_to 7965
  140.5207  144.0884  150.6021 LP  0  0  0  0  0  0  0  0  0  0  0  0  # atno 17342 bound_to 10162
  140.3841  143.2787  152.0137 LP  0  0  0  0  0  0  0  0  0  0  0  0  # atno 17343 bound_to 10162
  156.8636  130.9500  151.3616 LP  0  0  0  0  0  0  0  0  0  0  0  0  # atno 17370 bound_to 10713
  157.6266  130.8696  149.9201 LP  0  0  0  0  0  0  0  0  0  0  0  0  # atno 17371 bound_to 10713
  140.1821  134.4477  155.7766 LP  0  0  0  0  0  0  0  0  0  0  0  0  # atno 17394 bound_to 11000
  141.2221  133.6988  156.7885 LP  0  0  0  0  0  0  0  0  0  0  0  0  # atno 17395 bound_to 11000

$$$$
