AV-unprocessed.smi:406|AV-procd|sdf|2500|dock7
  -GOLD-   2262022443D 1   1.00000     0.00000
 Structure written by MMmdl.
 34 35  0  0  0  0  0  0  0  0  2 V2000
  144.7699  137.4533  153.2595 C   0  0  0  0  0  0  0  0  0  0  0  0
  146.2551  137.7976  153.4129 C   0  0  0  0  0  0  0  0  0  0  0  0
  146.7145  138.8708  152.4134 C   0  0  0  0  0  0  0  0  0  0  0  0
  147.7043  139.7642  153.0012 N   0  0  0  0  0  0  0  0  0  0  0  0
  147.5235  140.5107  154.1031 C   0  0  0  0  0  0  0  0  0  0  0  0
  146.4665  140.5423  154.7332 O   0  0  0  0  0  0  0  0  0  0  0  0
  148.7137  141.3582  154.5628 C   0  0  0  0  0  0  0  0  0  0  0  0
  149.8203  140.4747  155.0617 C   0  0  0  0  0  0  0  0  0  0  0  0
  150.2661  139.3077  154.4971 C   0  0  0  0  0  0  0  0  0  0  0  0
  151.6150  138.6442  155.3740 S   0  0  0  0  0  0  0  0  0  0  0  0
  151.5403  140.0025  156.4973 C   0  0  0  0  0  0  0  0  0  0  0  0
  152.3820  140.1894  157.5299 N   0  5  0  0  0  0  0  0  0  0  0  0
  152.1366  141.0566  158.5519 C   0  0  0  0  0  0  0  0  0  0  0  0
  151.0376  141.5370  158.8237 O   0  0  0  0  0  0  0  0  0  0  0  0
  153.3415  141.4616  159.3549 C   0  0  0  0  0  0  0  0  0  0  0  0
  153.3752  141.1023  160.8276 C   0  0  0  0  0  0  0  0  0  0  0  0
  153.1540  142.5328  160.4123 C   0  0  0  0  0  0  0  0  0  0  0  0
  150.5278  140.8297  156.2135 N   0  0  0  0  0  0  0  0  0  0  0  0
  144.4709  136.6923  153.9805 H   0  0  0  0  0  0  0  0  0  0  0  0
  144.5568  137.0690  152.2617 H   0  0  0  0  0  0  0  0  0  0  0  0
  144.1438  138.3309  153.4223 H   0  0  0  0  0  0  0  0  0  0  0  0
  146.4411  138.1412  154.4313 H   0  0  0  0  0  0  0  0  0  0  0  0
  146.8463  136.8905  153.2806 H   0  0  0  0  0  0  0  0  0  0  0  0
  147.1168  138.4085  151.5102 H   0  0  0  0  0  0  0  0  0  0  0  0
  145.8629  139.4754  152.0997 H   0  0  0  0  0  0  0  0  0  0  0  0
  148.6096  139.7996  152.5534 H   0  0  0  0  0  0  0  0  0  0  0  0
  149.0524  141.9759  153.7302 H   0  0  0  0  0  0  0  0  0  0  0  0
  148.3905  142.0451  155.3460 H   0  0  0  0  0  0  0  0  0  0  0  0
  149.8959  138.8089  153.6142 H   0  0  0  0  0  0  0  0  0  0  0  0
  154.2848  141.4984  158.8127 H   0  0  0  0  0  0  0  0  0  0  0  0
  152.5246  140.5653  161.2434 H   0  0  0  0  0  0  0  0  0  0  0  0
  154.3428  140.8256  161.2410 H   0  0  0  0  0  0  0  0  0  0  0  0
  153.9716  143.2369  160.5511 H   0  0  0  0  0  0  0  0  0  0  0  0
  152.1592  142.9458  160.5697 H   0  0  0  0  0  0  0  0  0  0  0  0
  1  2  1  0  0  0  0
  1 19  1  0  0  0  0
  1 20  1  0  0  0  0
  1 21  1  0  0  0  0
  2  3  1  0  0  0  0
  2 22  1  0  0  0  0
  2 23  1  0  0  0  0
  3  4  1  0  0  0  0
  3 24  1  0  0  0  0
  3 25  1  0  0  0  0
  4  5  1  0  0  0  0
  4 26  1  0  0  0  0
  5  6  2  0  0  0  0
  5  7  1  0  0  0  0
  7  8  1  0  0  0  0
  7 27  1  0  0  0  0
  7 28  1  0  0  0  0
  8 18  1  0  0  0  0
  8  9  2  0  0  0  0
  9 10  1  0  0  0  0
  9 29  1  0  0  0  0
 10 11  1  0  0  0  0
 11 12  1  0  0  0  0
 11 18  2  0  0  0  0
 12 13  1  0  0  0  0
 13 14  2  0  0  0  0
 13 15  1  0  0  0  0
 15 17  1  0  0  0  0
 15 16  1  0  0  0  0
 15 30  1  0  0  0  0
 16 17  1  0  0  0  0
 16 31  1  0  0  0  0
 16 32  1  0  0  0  0
 17 33  1  0  0  0  0
 17 34  1  0  0  0  0
M  CHG  1  12  -1
M  END
> <s_m_source_file>
AV-unprocessed.smi

> <i_m_source_file_index>
406

> <i_lp_mmshare_version>
43012

> <i_f3d_flags>
0

> <s_epik_input>
W0NIM11bQ0gyXVtDSDJdW05IXUMoPU8pW0NIMl1jMVtjSF1zYyhuMSlbTkhdQyg9TylbQ0hdMltDSDJdW0NIMl0y

> <s_epik_cmdline>
J2VwaWtfcHl0aG9uJywgJy1waCcsICc3LjAnLCAnLXRuJywgJzgnLCAnLW1hJywgJzIwMCcsICctbWV0YWxfYmluZGluZycsICctaW1hZScsICc8aW5maWxlLm1hZT4nLCAnLW9tYWUnLCAnPG91dGZpbGUubWFlPic=

> <r_lp_tautomer_probability>
1

> <r_epik_Ionization_Penalty>
5.51776

> <r_epik_Ionization_Penalty_Charging>
5.00105

> <r_epik_Ionization_Penalty_Neutral>
0.516708

> <r_epik_State_Penalty>
5.00092

> <r_epik_Charging_Adjusted_Penalty>
10.002

> <i_epik_Tot_Q>
-1

> <i_epik_Tot_abs_Q>
1

> <r_epik_Metal_State_Penalty>
1.12078

> <b_epik_Metal_Only>
1

> <s_lp_Force_Field>
OPLS_2005

> <r_lp_Energy>
6.22345

> <b_lp_Chiralities_Consistent>
1

> <s_lp_Variant>
AV-unprocessed.smi:406-2

> <Gold.Version>
5.8.1

> <Gold.Id.Protein>
6NUR|6NUR_protein|mol2

> <Gold.PLP.Fitness>
46.4102

> <Gold.PLP.PLP>
-35.6990

> <Gold.PLP.part.hbond>
-1.9556

> <Gold.PLP.part.metal>
0.0000

> <Gold.PLP.part.buried>
-1.5535

> <Gold.PLP.part.nonpolar>
-31.2020

> <Gold.PLP.part.repulsive>
0.2216

> <Gold.PLP.ligand.clash>
0.0000

> <Gold.PLP.ligand.torsion>
0.7129

> <Gold.PLP.Chemscore.Hbond>
3.0000

> <Gold.PLP.Chemscore.CHOScore>
0.9924

> <Gold.PLP.Chemscore.Metal>
0.0000

> <Gold.Chemscore.Hbonds>
donor molecule, donor type, donor heavy atom, donor atom, acceptor molecule, acceptor atom, score
      L1  H     4    26       P1  7957  1.00
      P1  H  7997  8009       L1    12  1.24
      L1  C     9    29       P1  7957  0.40

> <Gold.PLP.Chemscore.Internal.Correction>
0.1598

> <Gold.Rescore>
     Score         DG    S(hbond)    S(metal)    S(lipo)     H(rot)  DE(clash)    DE(int)     intcor
     13.13     -15.76       1.75        0.00      78.37       1.85       0.32       2.31       ----

> <Gold.Chemscore.Fitness>
13.1324

> <Gold.Chemscore.DG>
-15.7597

> <Gold.Chemscore.ZeroCoef>
-5.4800

> <Gold.Chemscore.Hbond>
1.7489

> <Gold.Chemscore.Metal>
0.0000

> <Gold.Chemscore.Lipo>
78.3676

> <Gold.Chemscore.Internal_Hbond>
0.0000

> <Gold.Chemscore.DEClash>
0.3201

> <Gold.Chemscore.DEInternal>
2.3072

> <Gold.Chemscore.Rot>
1.8478

> <Gold.Chemscore.Internal.Correction>
   9.000000E+99

> <Gold.Chemscore.Hbonds>
donor molecule, donor type, donor heavy atom, donor atom, acceptor molecule, acceptor atom, score
      L1  H     4    26       P1  7957  0.95
      P1  H  7997  8009       L1    12  0.26

> <Gold.Chemscore.Hbond.Weighted>
-5.8412

> <Gold.Chemscore.Metal.Weighted>
-0.0000

> <Gold.Chemscore.Lipo.Weighted>
-9.1690

> <Gold.Chemscore.Internal_Hbond.Weighted>
0.0000

> <Gold.Chemscore.DEClash.Weighted>
0.3201

> <Gold.Chemscore.DEInternal.Weighted>
2.3072

> <Gold.Chemscore.Rot.Weighted>
4.7305

> <Gold.Chemscore.Internal.Correction.Weighted>
   9.000000E+99

> <Gold.Protein.RotatedTorsions>
[ 6907 6896 6895 6894 ] final  -66.89 input  -60.11 | X-H torsion
[ 7974 7965 7964 7962 ] final  -79.98 input  175.53 | X-H torsion
[ 8008 7997 7996 7995 ] final -178.40 input   59.86 | X-H torsion
[ 10167 10162 10161 10158 ] final   36.65 input  -65.29 | X-H torsion
[ 10718 10713 10712 10709 ] final  155.79 input   66.30 | X-H torsion
[ 10763 10752 10751 10750 ] final   38.60 input  -60.55 | X-H torsion
[ 11005 11000 10999 10996 ] final  116.08 input  -57.11 | X-H torsion

> <Gold.Protein.ActiveResidues>
 VAL166  LYS551  ARG553  GLY616  TRP617  ASP618  TYR619  PRO620  LYS621  CYS622 
 ASP623  PHE694  ASN695  SER759  ASP760  ASP761  ALA762  ILE779  LEU786  VAL792 
 PHE793  MET794  SER795  GLU796  ALA797  LYS798  CYS799  TRP800  GLU811  SER814 

> <Gold.Protein.RotatedAtoms>
  150.7440  134.5957  159.6010 H   0  0  0  0  0  0  0  0  0  0  0  0  # atno 6907 bound_to 6896
  152.3333  134.7228  160.0293 H   0  0  0  0  0  0  0  0  0  0  0  0  # atno 6908 bound_to 6896
  151.7705  133.3305  159.3479 H   0  0  0  0  0  0  0  0  0  0  0  0  # atno 6909 bound_to 6896
  145.5660  140.9474  143.1421 H   0  0  0  0  0  0  0  0  0  0  0  0  # atno 7974 bound_to 7965
  156.0184  140.1256  157.0383 H   0  0  0  0  0  0  0  0  0  0  0  0  # atno 8008 bound_to 7997
  154.4302  140.1073  156.5998 H   0  0  0  0  0  0  0  0  0  0  0  0  # atno 8009 bound_to 7997
  155.5980  140.3470  155.4588 H   0  0  0  0  0  0  0  0  0  0  0  0  # atno 8010 bound_to 7997
  140.4107  144.1596  150.6139 H   0  0  0  0  0  0  0  0  0  0  0  0  # atno 10167 bound_to 10162
  157.2136  131.0703  151.1954 H   0  0  0  0  0  0  0  0  0  0  0  0  # atno 10718 bound_to 10713
  152.9995  135.6245  154.2330 H   0  0  0  0  0  0  0  0  0  0  0  0  # atno 10763 bound_to 10752
  154.2072  135.2801  155.2972 H   0  0  0  0  0  0  0  0  0  0  0  0  # atno 10764 bound_to 10752
  154.5636  135.5698  153.7088 H   0  0  0  0  0  0  0  0  0  0  0  0  # atno 10765 bound_to 10752
  139.9030  134.9593  156.7143 H   0  0  0  0  0  0  0  0  0  0  0  0  # atno 11005 bound_to 11000
  144.7460  139.7319  143.7292 LP  0  0  0  0  0  0  0  0  0  0  0  0  # atno 17320 bound_to 7965
  146.1818  139.5013  142.9862 LP  0  0  0  0  0  0  0  0  0  0  0  0  # atno 17321 bound_to 7965
  140.4640  143.2438  151.9180 LP  0  0  0  0  0  0  0  0  0  0  0  0  # atno 17342 bound_to 10162
  139.4782  144.5438  151.8489 LP  0  0  0  0  0  0  0  0  0  0  0  0  # atno 17343 bound_to 10162
  157.3647  130.7150  149.6525 LP  0  0  0  0  0  0  0  0  0  0  0  0  # atno 17370 bound_to 10713
  155.9688  130.4215  150.4475 LP  0  0  0  0  0  0  0  0  0  0  0  0  # atno 17371 bound_to 10713
  140.7051  133.9272  155.8049 LP  0  0  0  0  0  0  0  0  0  0  0  0  # atno 17394 bound_to 11000
  141.0342  134.0713  157.3978 LP  0  0  0  0  0  0  0  0  0  0  0  0  # atno 17395 bound_to 11000

$$$$
