AV-unprocessed.smi:3266|AV-procd|sdf|12502|dock5
  -GOLD-   2272018403D 1   1.00000     0.00000
 Structure written by MMmdl.
 39 40  0  0  0  0  0  0  0  0  2 V2000
  152.9078  139.5151  155.1863 O   0  0  0  0  0  0  0  0  0  0  0  0
  151.7313  139.1783  155.0477 C   0  0  0  0  0  0  0  0  0  0  0  0
  151.3755  137.7974  154.4893 C   0  0  0  0  0  0  0  0  0  0  0  0
  150.3894  137.0229  155.3833 C   0  0  0  0  0  0  0  0  0  0  0  0
  150.9972  136.6385  156.7402 C   0  0  2  0  0  0  0  0  0  0  0  0
  151.0217  137.7850  157.7510 C   0  0  0  0  0  0  0  0  0  0  0  0
  152.1790  137.3877  158.6377 C   0  0  0  0  0  0  0  0  0  0  0  0
  153.1601  136.8150  157.6205 C   0  0  0  0  0  0  0  0  0  0  0  0
  152.3597  136.2436  156.5890 O   0  0  0  0  0  0  0  0  0  0  0  0
  150.6997  139.9766  155.3631 N   0  0  0  0  0  0  0  0  0  0  0  0
  150.8238  141.3270  155.8993 C   0  0  0  0  0  0  0  0  0  0  0  0
  150.3599  141.4018  157.3640 C   0  0  0  0  0  0  0  0  0  0  0  0
  151.0070  142.5500  158.1133 C   0  0  0  0  0  0  0  0  0  0  0  0
  151.8946  142.3414  159.1914 C   0  0  0  0  0  0  0  0  0  0  0  0
  152.4584  143.4574  159.8445 C   0  0  0  0  0  0  0  0  0  0  0  0
  152.1233  144.7558  159.4071 C   0  0  0  0  0  0  0  0  0  0  0  0
  151.2304  144.9060  158.3265 C   0  0  0  0  0  0  0  0  0  0  0  0
  150.7107  143.8124  157.7269 N   0  3  0  0  0  0  0  0  0  0  0  0
  150.9509  137.9102  153.4903 H   0  0  0  0  0  0  0  0  0  0  0  0
  152.2993  137.2295  154.3738 H   0  0  0  0  0  0  0  0  0  0  0  0
  149.4888  137.6157  155.5500 H   0  0  0  0  0  0  0  0  0  0  0  0
  150.0713  136.1157  154.8673 H   0  0  0  0  0  0  0  0  0  0  0  0
  150.4529  135.7975  157.1726 H   0  0  0  0  0  0  0  0  0  0  0  0
  151.2425  138.7324  157.2569 H   0  0  0  0  0  0  0  0  0  0  0  0
  150.0830  137.8937  158.2947 H   0  0  0  0  0  0  0  0  0  0  0  0
  152.5910  138.2209  159.2076 H   0  0  0  0  0  0  0  0  0  0  0  0
  151.8660  136.6123  159.3383 H   0  0  0  0  0  0  0  0  0  0  0  0
  153.7653  137.6118  157.1862 H   0  0  0  0  0  0  0  0  0  0  0  0
  153.8337  136.0786  158.0591 H   0  0  0  0  0  0  0  0  0  0  0  0
  149.7643  139.6258  155.2141 H   0  0  0  0  0  0  0  0  0  0  0  0
  151.8565  141.6673  155.8047 H   0  0  0  0  0  0  0  0  0  0  0  0
  150.2194  141.9940  155.2839 H   0  0  0  0  0  0  0  0  0  0  0  0
  149.2753  141.5114  157.4063 H   0  0  0  0  0  0  0  0  0  0  0  0
  150.5949  140.4733  157.8864 H   0  0  0  0  0  0  0  0  0  0  0  0
  152.1415  141.3406  159.5151 H   0  0  0  0  0  0  0  0  0  0  0  0
  153.1400  143.3188  160.6711 H   0  0  0  0  0  0  0  0  0  0  0  0
  152.5447  145.6234  159.8936 H   0  0  0  0  0  0  0  0  0  0  0  0
  150.9184  145.8599  157.9267 H   0  0  0  0  0  0  0  0  0  0  0  0
  150.0656  143.9440  156.9471 H   0  0  0  0  0  0  0  0  0  0  0  0
  1  2  2  0  0  0  0
  2  3  1  0  0  0  0
  2 10  1  0  0  0  0
  3  4  1  0  0  0  0
  3 19  1  0  0  0  0
  3 20  1  0  0  0  0
  4  5  1  0  0  0  0
  4 21  1  0  0  0  0
  4 22  1  0  0  0  0
  5  9  1  0  0  0  0
  5  6  1  0  0  0  0
  5 23  1  0  0  0  0
  6  7  1  0  0  0  0
  6 24  1  0  0  0  0
  6 25  1  0  0  0  0
  7  8  1  0  0  0  0
  7 26  1  0  0  0  0
  7 27  1  0  0  0  0
  8  9  1  0  0  0  0
  8 28  1  0  0  0  0
  8 29  1  0  0  0  0
 10 11  1  0  0  0  0
 10 30  1  0  0  0  0
 11 12  1  0  0  0  0
 11 31  1  0  0  0  0
 11 32  1  0  0  0  0
 12 13  1  0  0  0  0
 12 33  1  0  0  0  0
 12 34  1  0  0  0  0
 13 18  1  0  0  0  0
 13 14  2  0  0  0  0
 14 15  1  0  0  0  0
 14 35  1  0  0  0  0
 15 16  2  0  0  0  0
 15 36  1  0  0  0  0
 16 17  1  0  0  0  0
 16 37  1  0  0  0  0
 17 18  2  0  0  0  0
 17 38  1  0  0  0  0
 18 39  1  0  0  0  0
M  CHG  1  18   1
M  END
> <s_m_source_file>
AV-unprocessed.smi

> <i_m_source_file_index>
3266

> <i_lp_mmshare_version>
43012

> <i_f3d_flags>
0

> <s_epik_input>
TzFbQ0gyXVtDSDJdW0NIMl1bQ0BIXTFbQ0gyXVtDSDJdQyg9TylbTkhdW0NIMl1bQ0gyXWMyW2NIXVtjSF1bY0hdW2NIXW4y

> <s_epik_cmdline>
J2VwaWtfcHl0aG9uJywgJy1waCcsICc3LjAnLCAnLXRuJywgJzgnLCAnLW1hJywgJzIwMCcsICctbWV0YWxfYmluZGluZycsICctaW1hZScsICc8aW5maWxlLm1hZT4nLCAnLW9tYWUnLCAnPG91dGZpbGUubWFlPic=

> <r_epik_Ionization_Penalty>
1.8495

> <r_epik_Ionization_Penalty_Charging>
1.8495

> <r_epik_Ionization_Penalty_Neutral>
1.53068e-08

> <r_epik_State_Penalty>
1.96688

> <r_epik_Charging_Adjusted_Penalty>
3.81638

> <i_epik_Tot_Q>
1

> <i_epik_Tot_abs_Q>
1

> <r_epik_Metal_State_Penalty>
1.99263

> <b_epik_Metal_Only>
0

> <s_lp_Force_Field>
OPLS_2005

> <r_lp_Energy>
20.4442

> <b_lp_Chiralities_Consistent>
1

> <s_lp_Variant>
AV-unprocessed.smi:3266-3

> <Gold.Version>
5.8.1

> <Gold.Id.Protein>
6NUR|6NUR_protein|mol2

> <Gold.PLP.Fitness>
49.1598

> <Gold.PLP.PLP>
-38.0499

> <Gold.PLP.part.hbond>
-3.9100

> <Gold.PLP.part.metal>
0.0000

> <Gold.PLP.part.buried>
-5.7987

> <Gold.PLP.part.nonpolar>
-28.2507

> <Gold.PLP.part.repulsive>
0.1381

> <Gold.PLP.ligand.clash>
0.0000

> <Gold.PLP.ligand.torsion>
0.4594

> <Gold.PLP.Chemscore.Hbond>
4.0000

> <Gold.PLP.Chemscore.CHOScore>
0.0000

> <Gold.PLP.Chemscore.Metal>
0.0000

> <Gold.Chemscore.Hbonds>
donor molecule, donor type, donor heavy atom, donor atom, acceptor molecule, acceptor atom, score
      L1  H    18    39       P1  8028  2.00
      P1  H  7997  8010       L1     1  1.00
      P1  H 10752 10763       L1     9  1.00

> <Gold.PLP.Chemscore.Internal.Correction>
0.0287

> <Gold.Rescore>
     Score         DG    S(hbond)    S(metal)    S(lipo)     H(rot)  DE(clash)    DE(int)     intcor
     21.38     -21.88       2.91        0.00      97.37       1.84       0.00       0.49       ----

> <Gold.Chemscore.Fitness>
21.3803

> <Gold.Chemscore.DG>
-21.8764

> <Gold.Chemscore.ZeroCoef>
-5.4800

> <Gold.Chemscore.Hbond>
2.9070

> <Gold.Chemscore.Metal>
0.0000

> <Gold.Chemscore.Lipo>
97.3744

> <Gold.Chemscore.Internal_Hbond>
0.0000

> <Gold.Chemscore.DEClash>
0.0015

> <Gold.Chemscore.DEInternal>
0.4946

> <Gold.Chemscore.Rot>
1.8382

> <Gold.Chemscore.Internal.Correction>
   9.000000E+99

> <Gold.Chemscore.Hbonds>
donor molecule, donor type, donor heavy atom, donor atom, acceptor molecule, acceptor atom, score
      L1  H    18    39       P1  8028  0.97
      P1  H  7997  8010       L1     1  0.97
      P1  H 10752 10763       L1     9  0.93

> <Gold.Chemscore.Hbond.Weighted>
-9.7093

> <Gold.Chemscore.Metal.Weighted>
-0.0000

> <Gold.Chemscore.Lipo.Weighted>
-11.3928

> <Gold.Chemscore.Internal_Hbond.Weighted>
0.0000

> <Gold.Chemscore.DEClash.Weighted>
0.0015

> <Gold.Chemscore.DEInternal.Weighted>
0.4946

> <Gold.Chemscore.Rot.Weighted>
4.7058

> <Gold.Chemscore.Internal.Correction.Weighted>
   9.000000E+99

> <Gold.Protein.RotatedTorsions>
[ 6907 6896 6895 6894 ] final   81.80 input  -60.11 | X-H torsion
[ 7974 7965 7964 7962 ] final -120.57 input  175.53 | X-H torsion
[ 8008 7997 7996 7995 ] final   81.19 input   59.86 | X-H torsion
[ 10167 10162 10161 10158 ] final   95.82 input  -65.29 | X-H torsion
[ 10718 10713 10712 10709 ] final -117.98 input   66.30 | X-H torsion
[ 10763 10752 10751 10750 ] final  101.97 input  -60.55 | X-H torsion
[ 11005 11000 10999 10996 ] final  149.75 input  -57.11 | X-H torsion

> <Gold.Protein.ActiveResidues>
 VAL166  LYS551  ARG553  GLY616  TRP617  ASP618  TYR619  PRO620  LYS621  CYS622 
 ASP623  PHE694  ASN695  SER759  ASP760  ASP761  ALA762  ILE779  LEU786  VAL792 
 PHE793  MET794  SER795  GLU796  ALA797  LYS798  CYS799  TRP800  GLU811  SER814 

> <Gold.Protein.RotatedAtoms>
  152.5280  134.3148  159.9126 H   0  0  0  0  0  0  0  0  0  0  0  0  # atno 6907 bound_to 6896
  151.3097  133.4079  159.2653 H   0  0  0  0  0  0  0  0  0  0  0  0  # atno 6908 bound_to 6896
  151.0049  134.9368  159.8032 H   0  0  0  0  0  0  0  0  0  0  0  0  # atno 6909 bound_to 6896
  145.0499  140.8210  143.4216 H   0  0  0  0  0  0  0  0  0  0  0  0  # atno 7974 bound_to 7965
  155.8938  140.3437  155.5975 H   0  0  0  0  0  0  0  0  0  0  0  0  # atno 8008 bound_to 7997
  155.7580  140.0829  157.2188 H   0  0  0  0  0  0  0  0  0  0  0  0  # atno 8009 bound_to 7997
  154.4036  140.1541  156.2787 H   0  0  0  0  0  0  0  0  0  0  0  0  # atno 8010 bound_to 7997
  139.7952  144.6836  150.9838 H   0  0  0  0  0  0  0  0  0  0  0  0  # atno 10167 bound_to 10162
  156.1073  130.6221  150.9233 H   0  0  0  0  0  0  0  0  0  0  0  0  # atno 10718 bound_to 10713
  153.3336  135.4026  155.1515 H   0  0  0  0  0  0  0  0  0  0  0  0  # atno 10763 bound_to 10752
  154.8628  135.3616  154.5438 H   0  0  0  0  0  0  0  0  0  0  0  0  # atno 10764 bound_to 10752
  153.5878  135.7075  153.5495 H   0  0  0  0  0  0  0  0  0  0  0  0  # atno 10765 bound_to 10752
  140.1072  134.8947  157.1883 H   0  0  0  0  0  0  0  0  0  0  0  0  # atno 11005 bound_to 11000
  145.1541  139.2497  143.5426 LP  0  0  0  0  0  0  0  0  0  0  0  0  # atno 17320 bound_to 7965
  146.3517  140.1251  142.8599 LP  0  0  0  0  0  0  0  0  0  0  0  0  # atno 17321 bound_to 7965
  140.7820  143.4338  151.0653 LP  0  0  0  0  0  0  0  0  0  0  0  0  # atno 17342 bound_to 10162
  139.8013  143.8079  152.3163 LP  0  0  0  0  0  0  0  0  0  0  0  0  # atno 17343 bound_to 10162
  157.6251  131.0926  150.8549 LP  0  0  0  0  0  0  0  0  0  0  0  0  # atno 17370 bound_to 10713
  156.8665  130.5131  149.5300 LP  0  0  0  0  0  0  0  0  0  0  0  0  # atno 17371 bound_to 10713
  140.3140  134.2992  155.7260 LP  0  0  0  0  0  0  0  0  0  0  0  0  # atno 17394 bound_to 11000
  141.2121  133.7668  156.9816 LP  0  0  0  0  0  0  0  0  0  0  0  0  # atno 17395 bound_to 11000

$$$$
