AV-unprocessed.smi:3336|AV-procd|sdf|12857|dock10
  -GOLD-   2272019253D 1   1.00000     0.00000
 Structure written by MMmdl.
 41 42  0  0  0  0  0  0  0  0  1 V2000
  154.1884  139.8792  160.5135 C   0  0  0  0  0  0  0  0  0  0  0  0
  153.4555  141.0668  159.8689 C   0  0  2  0  0  0  0  0  0  0  0  0
  153.4386  142.3212  160.7800 C   0  0  0  0  0  0  0  0  0  0  0  0
  152.7376  143.4612  160.2101 N   0  0  0  0  0  0  0  0  0  0  0  0
  151.8200  144.2945  160.8155 C   0  0  0  0  0  0  0  0  0  0  0  0
  151.4410  145.2242  159.8901 C   0  0  0  0  0  0  0  0  0  0  0  0
  152.1947  144.8769  158.7343 C   0  0  0  0  0  0  0  0  0  0  0  0
  152.9732  143.8256  158.9304 N   0  0  0  0  0  0  0  0  0  0  0  0
  152.1138  140.5990  159.5079 N   0  0  0  0  0  0  0  0  0  0  0  0
  151.8695  140.2995  158.0808 C   0  0  2  0  0  0  0  0  0  0  0  0
  151.3180  141.5564  157.3894 C   0  0  0  0  0  0  0  0  0  0  0  0
  150.9159  139.1047  157.8443 C   0  0  0  0  0  0  0  0  0  0  0  0
  150.3867  138.5844  158.8287 O   0  0  0  0  0  0  0  0  0  0  0  0
  150.6732  138.6577  156.5859 N   0  0  0  0  0  0  0  0  0  0  0  0
  151.2492  139.2939  155.3956 C   0  0  0  0  0  0  0  0  0  0  0  0
  152.1993  138.2956  154.7124 C   0  0  0  0  0  0  0  0  0  0  0  0
  151.4803  137.1145  154.3705 O   0  0  0  0  0  0  0  0  0  0  0  0
  150.8874  136.4804  155.5000 C   0  0  0  0  0  0  0  0  0  0  0  0
  149.9239  137.4540  156.2034 C   0  0  0  0  0  0  0  0  0  0  0  0
  155.1970  140.1611  160.8169 H   0  0  0  0  0  0  0  0  0  0  0  0
  154.2795  139.0478  159.8136 H   0  0  0  0  0  0  0  0  0  0  0  0
  153.6665  139.5093  161.3965 H   0  0  0  0  0  0  0  0  0  0  0  0
  154.0076  141.3192  158.9642 H   0  0  0  0  0  0  0  0  0  0  0  0
  152.9471  142.0698  161.7204 H   0  0  0  0  0  0  0  0  0  0  0  0
  154.4470  142.6269  161.0595 H   0  0  0  0  0  0  0  0  0  0  0  0
  151.5151  144.1555  161.8424 H   0  0  0  0  0  0  0  0  0  0  0  0
  150.7339  146.0301  160.0192 H   0  0  0  0  0  0  0  0  0  0  0  0
  152.2011  145.3557  157.7660 H   0  0  0  0  0  0  0  0  0  0  0  0
  151.8695  139.8098  160.0891 H   0  0  0  0  0  0  0  0  0  0  0  0
  152.8403  140.0844  157.6440 H   0  0  0  0  0  0  0  0  0  0  0  0
  151.1684  141.3955  156.3215 H   0  0  0  0  0  0  0  0  0  0  0  0
  152.0089  142.3935  157.4959 H   0  0  0  0  0  0  0  0  0  0  0  0
  150.3613  141.8605  157.8161 H   0  0  0  0  0  0  0  0  0  0  0  0
  150.4455  139.5736  154.7129 H   0  0  0  0  0  0  0  0  0  0  0  0
  151.7861  140.2166  155.6184 H   0  0  0  0  0  0  0  0  0  0  0  0
  152.6152  138.7308  153.8037 H   0  0  0  0  0  0  0  0  0  0  0  0
  153.0394  138.0487  155.3635 H   0  0  0  0  0  0  0  0  0  0  0  0
  150.3490  135.5942  155.1641 H   0  0  0  0  0  0  0  0  0  0  0  0
  151.6648  136.1406  156.1863 H   0  0  0  0  0  0  0  0  0  0  0  0
  149.4556  136.9292  157.0315 H   0  0  0  0  0  0  0  0  0  0  0  0
  149.1136  137.7347  155.5291 H   0  0  0  0  0  0  0  0  0  0  0  0
  1  2  1  0  0  0  0
  1 20  1  0  0  0  0
  1 21  1  0  0  0  0
  1 22  1  0  0  0  0
  2  3  1  0  0  0  0
  2  9  1  0  0  0  0
  2 23  1  0  0  0  0
  3  4  1  0  0  0  0
  3 24  1  0  0  0  0
  3 25  1  0  0  0  0
  4  8  1  0  0  0  0
  4  5  1  0  0  0  0
  5  6  2  0  0  0  0
  5 26  1  0  0  0  0
  6  7  1  0  0  0  0
  6 27  1  0  0  0  0
  7  8  2  0  0  0  0
  7 28  1  0  0  0  0
  9 10  1  0  0  0  0
  9 29  1  0  0  0  0
 10 11  1  0  0  0  0
 10 12  1  0  0  0  0
 10 30  1  0  0  0  0
 11 31  1  0  0  0  0
 11 32  1  0  0  0  0
 11 33  1  0  0  0  0
 12 13  2  0  0  0  0
 12 14  1  0  0  0  0
 14 19  1  0  0  0  0
 14 15  1  0  0  0  0
 15 16  1  0  0  0  0
 15 34  1  0  0  0  0
 15 35  1  0  0  0  0
 16 17  1  0  0  0  0
 16 36  1  0  0  0  0
 16 37  1  0  0  0  0
 17 18  1  0  0  0  0
 18 19  1  0  0  0  0
 18 38  1  0  0  0  0
 18 39  1  0  0  0  0
 19 40  1  0  0  0  0
 19 41  1  0  0  0  0
M  END
> <s_m_source_file>
AV-unprocessed.smi

> <i_m_source_file_index>
3336

> <i_lp_mmshare_version>
43012

> <i_f3d_flags>
0

> <s_epik_input>
bjFbY0hdW2NIXVtjSF1uMVtDSDJdW0NAQEhdKFtDSDNdKVtOSF1bQ0BIXShbQ0gzXSlDKD1PKU4yW0NIMl1bQ0gyXU9bQ0gyXVtDSDJdMg==

> <s_epik_cmdline>
J2VwaWtfcHl0aG9uJywgJy1waCcsICc3LjAnLCAnLXRuJywgJzgnLCAnLW1hJywgJzIwMCcsICctbWV0YWxfYmluZGluZycsICctaW1hZScsICc8aW5maWxlLm1hZT4nLCAnLW9tYWUnLCAnPG91dGZpbGUubWFlPic=

> <r_lp_tautomer_probability>
1

> <r_epik_Ionization_Penalty>
0.739958

> <r_epik_Ionization_Penalty_Charging>
0

> <r_epik_Ionization_Penalty_Neutral>
0.739958

> <r_epik_State_Penalty>
0.765967

> <r_epik_Charging_Adjusted_Penalty>
0.765967

> <i_epik_Tot_Q>
0

> <i_epik_Tot_abs_Q>
0

> <r_epik_Metal_State_Penalty>
0.765947

> <b_epik_Metal_Only>
0

> <s_lp_Force_Field>
OPLS_2005

> <r_lp_Energy>
28.3859

> <b_lp_Chiralities_Consistent>
1

> <s_lp_Variant>
AV-unprocessed.smi:3336-5

> <Gold.Version>
5.8.1

> <Gold.Id.Protein>
6NUR|6NUR_protein|mol2

> <Gold.PLP.Fitness>
42.8504

> <Gold.PLP.PLP>
-42.3236

> <Gold.PLP.part.hbond>
-1.1664

> <Gold.PLP.part.metal>
0.0000

> <Gold.PLP.part.buried>
-7.5170

> <Gold.PLP.part.nonpolar>
-34.6320

> <Gold.PLP.part.repulsive>
0.1765

> <Gold.PLP.ligand.clash>
0.0000

> <Gold.PLP.ligand.torsion>
1.2941

> <Gold.PLP.Chemscore.Hbond>
1.0000

> <Gold.PLP.Chemscore.CHOScore>
0.0000

> <Gold.PLP.Chemscore.Metal>
0.0000

> <Gold.Chemscore.Hbonds>
donor molecule, donor type, donor heavy atom, donor atom, acceptor molecule, acceptor atom, score
      P1  H 10752 10765       L1    17  0.56

> <Gold.PLP.Chemscore.Internal.Correction>
0.1149

> <Gold.Rescore>
     Score         DG    S(hbond)    S(metal)    S(lipo)     H(rot)  DE(clash)    DE(int)     intcor
     13.29     -14.80       0.66        0.00     100.11       1.79       0.05       1.47       ----

> <Gold.Chemscore.Fitness>
13.2860

> <Gold.Chemscore.DG>
-14.8028

> <Gold.Chemscore.ZeroCoef>
-5.4800

> <Gold.Chemscore.Hbond>
0.6591

> <Gold.Chemscore.Metal>
0.0000

> <Gold.Chemscore.Lipo>
100.1094

> <Gold.Chemscore.Internal_Hbond>
0.0000

> <Gold.Chemscore.DEClash>
0.0494

> <Gold.Chemscore.DEInternal>
1.4675

> <Gold.Chemscore.Rot>
1.7935

> <Gold.Chemscore.Internal.Correction>
   9.000000E+99

> <Gold.Chemscore.Hbonds>
donor molecule, donor type, donor heavy atom, donor atom, acceptor molecule, acceptor atom, score
      P1  H 10752 10765       L1    17  0.01

> <Gold.Chemscore.Hbond.Weighted>
-2.2013

> <Gold.Chemscore.Metal.Weighted>
-0.0000

> <Gold.Chemscore.Lipo.Weighted>
-11.7128

> <Gold.Chemscore.Internal_Hbond.Weighted>
0.0000

> <Gold.Chemscore.DEClash.Weighted>
0.0494

> <Gold.Chemscore.DEInternal.Weighted>
1.4675

> <Gold.Chemscore.Rot.Weighted>
4.5912

> <Gold.Chemscore.Internal.Correction.Weighted>
   9.000000E+99

> <Gold.Protein.RotatedTorsions>
[ 6907 6896 6895 6894 ] final -164.79 input  -60.11 | X-H torsion
[ 7974 7965 7964 7962 ] final   16.19 input  175.53 | X-H torsion
[ 8008 7997 7996 7995 ] final   26.88 input   59.86 | X-H torsion
[ 10167 10162 10161 10158 ] final  -49.70 input  -65.29 | X-H torsion
[ 10718 10713 10712 10709 ] final   85.37 input   66.30 | X-H torsion
[ 10763 10752 10751 10750 ] final  158.52 input  -60.55 | X-H torsion
[ 11005 11000 10999 10996 ] final    7.12 input  -57.11 | X-H torsion

> <Gold.Protein.ActiveResidues>
 VAL166  LYS551  ARG553  GLY616  TRP617  ASP618  TYR619  PRO620  LYS621  CYS622 
 ASP623  PHE694  ASN695  SER759  ASP760  ASP761  ALA762  ILE779  LEU786  VAL792 
 PHE793  MET794  SER795  GLU796  ALA797  LYS798  CYS799  TRP800  GLU811  SER814 

> <Gold.Protein.RotatedAtoms>
  151.4174  133.3708  159.2751 H   0  0  0  0  0  0  0  0  0  0  0  0  # atno 6907 bound_to 6896
  150.9318  134.8734  159.7567 H   0  0  0  0  0  0  0  0  0  0  0  0  # atno 6908 bound_to 6896
  152.5031  134.4119  159.9504 H   0  0  0  0  0  0  0  0  0  0  0  0  # atno 6909 bound_to 6896
  146.2257  139.8784  142.8575 H   0  0  0  0  0  0  0  0  0  0  0  0  # atno 7974 bound_to 7965
  155.0342  140.3162  155.4747 H   0  0  0  0  0  0  0  0  0  0  0  0  # atno 8008 bound_to 7997
  156.2868  140.2175  156.5407 H   0  0  0  0  0  0  0  0  0  0  0  0  # atno 8009 bound_to 7997
  154.7344  140.0478  157.0743 H   0  0  0  0  0  0  0  0  0  0  0  0  # atno 8010 bound_to 7997
  140.6673  143.2687  151.4252 H   0  0  0  0  0  0  0  0  0  0  0  0  # atno 10167 bound_to 10162
  157.6913  131.0172  150.2812 H   0  0  0  0  0  0  0  0  0  0  0  0  # atno 10718 bound_to 10713
  154.2174  135.2783  155.2937 H   0  0  0  0  0  0  0  0  0  0  0  0  # atno 10763 bound_to 10752
  154.5729  135.5613  153.7116 H   0  0  0  0  0  0  0  0  0  0  0  0  # atno 10764 bound_to 10752
  153.0050  135.6326  154.2314 H   0  0  0  0  0  0  0  0  0  0  0  0  # atno 10765 bound_to 10752
  140.5519  134.0275  155.7940 H   0  0  0  0  0  0  0  0  0  0  0  0  # atno 11005 bound_to 11000
  145.2537  141.0053  143.3866 LP  0  0  0  0  0  0  0  0  0  0  0  0  # atno 17320 bound_to 7965
  144.9354  139.4250  143.6475 LP  0  0  0  0  0  0  0  0  0  0  0  0  # atno 17321 bound_to 7965
  139.5926  144.1465  152.2107 LP  0  0  0  0  0  0  0  0  0  0  0  0  # atno 17342 bound_to 10162
  140.0824  144.5689  150.7112 LP  0  0  0  0  0  0  0  0  0  0  0  0  # atno 17343 bound_to 10162
  156.3359  130.3807  149.7451 LP  0  0  0  0  0  0  0  0  0  0  0  0  # atno 17370 bound_to 10713
  156.4975  130.8113  151.3119 LP  0  0  0  0  0  0  0  0  0  0  0  0  # atno 17371 bound_to 10713
  141.1167  133.9529  157.2809 LP  0  0  0  0  0  0  0  0  0  0  0  0  # atno 17394 bound_to 11000
  139.9451  135.0185  156.8827 LP  0  0  0  0  0  0  0  0  0  0  0  0  # atno 17395 bound_to 11000

$$$$
