AV-unprocessed.smi:2100|AV-procd|sdf|8576|dock7
  -GOLD-   2272011303D 1   1.00000     0.00000
 Structure written by MMmdl.
 40 41  0  0  0  0  0  0  0  0  2 V2000
  154.4438  138.5892  154.2682 C   0  0  0  0  0  0  0  0  0  0  0  0
  153.0506  138.4923  154.8993 C   0  0  2  0  0  0  0  0  0  0  0  0
  153.1176  138.0286  156.3633 C   0  0  0  0  0  0  0  0  0  0  0  0
  151.7652  137.8225  156.9147 N   0  0  0  0  0  0  0  0  0  0  0  0
  151.6154  137.6457  158.6358 S   0  0  0  0  0  0  0  0  0  0  0  0
  150.5233  136.6866  158.8686 O   0  0  0  0  0  0  0  0  0  0  0  0
  152.9597  137.2886  159.1188 O   0  0  0  0  0  0  0  0  0  0  0  0
  151.1807  139.1727  158.9552 N   0  5  0  0  0  0  0  0  0  0  0  0
  151.7991  140.2636  158.2219 C   0  0  0  0  0  0  0  0  0  0  0  0
  152.5768  141.1823  159.1928 C   0  0  0  0  0  0  0  0  0  0  0  0
  151.9478  142.5543  159.4311 C   0  0  0  0  0  0  0  0  0  0  0  0
  151.7421  143.0334  160.7455 C   0  0  0  0  0  0  0  0  0  0  0  0
  151.1585  144.3023  160.9193 C   0  0  0  0  0  0  0  0  0  0  0  0
  150.8125  145.0514  159.7786 C   0  0  0  0  0  0  0  0  0  0  0  0
  151.0666  144.4943  158.5097 C   0  0  0  0  0  0  0  0  0  0  0  0
  151.6239  143.2776  158.3309 N   0  0  0  0  0  0  0  0  0  0  0  0
  150.9388  136.9407  156.0747 C   0  0  0  0  0  0  0  0  0  0  0  0
  150.9491  137.3858  154.5988 C   0  0  1  0  0  0  0  0  0  0  0  0
  150.0670  138.6178  154.3272 C   0  0  0  0  0  0  0  0  0  0  0  0
  152.2842  137.5691  154.1342 O   0  0  0  0  0  0  0  0  0  0  0  0
  155.0704  139.2974  154.8112 H   0  0  0  0  0  0  0  0  0  0  0  0
  154.3802  138.9264  153.2335 H   0  0  0  0  0  0  0  0  0  0  0  0
  154.9480  137.6225  154.2741 H   0  0  0  0  0  0  0  0  0  0  0  0
  152.5944  139.4812  154.8526 H   0  0  0  0  0  0  0  0  0  0  0  0
  153.6736  137.0936  156.4421 H   0  0  0  0  0  0  0  0  0  0  0  0
  153.6621  138.7671  156.9510 H   0  0  0  0  0  0  0  0  0  0  0  0
  152.4889  139.8855  157.4668 H   0  0  0  0  0  0  0  0  0  0  0  0
  151.0648  140.8606  157.6798 H   0  0  0  0  0  0  0  0  0  0  0  0
  152.7069  140.6806  160.1528 H   0  0  0  0  0  0  0  0  0  0  0  0
  153.5845  141.3336  158.8039 H   0  0  0  0  0  0  0  0  0  0  0  0
  152.0128  142.4316  161.6009 H   0  0  0  0  0  0  0  0  0  0  0  0
  150.9793  144.6931  161.9100 H   0  0  0  0  0  0  0  0  0  0  0  0
  150.3634  146.0288  159.8735 H   0  0  0  0  0  0  0  0  0  0  0  0
  150.8158  145.0421  157.6133 H   0  0  0  0  0  0  0  0  0  0  0  0
  151.3265  135.9248  156.1586 H   0  0  0  0  0  0  0  0  0  0  0  0
  149.9148  136.9175  156.4470 H   0  0  0  0  0  0  0  0  0  0  0  0
  150.5356  136.5696  154.0059 H   0  0  0  0  0  0  0  0  0  0  0  0
  149.0218  138.4003  154.5479 H   0  0  0  0  0  0  0  0  0  0  0  0
  150.1277  138.9172  153.2807 H   0  0  0  0  0  0  0  0  0  0  0  0
  150.3524  139.4730  154.9396 H   0  0  0  0  0  0  0  0  0  0  0  0
  1  2  1  0  0  0  0
  1 21  1  0  0  0  0
  1 22  1  0  0  0  0
  1 23  1  0  0  0  0
  2 20  1  0  0  0  0
  2  3  1  0  0  0  0
  2 24  1  0  0  0  0
  3  4  1  0  0  0  0
  3 25  1  0  0  0  0
  3 26  1  0  0  0  0
  4  5  1  0  0  0  0
  4 17  1  0  0  0  0
  5  6  2  0  0  0  0
  5  7  2  0  0  0  0
  5  8  1  0  0  0  0
  8  9  1  0  0  0  0
  9 10  1  0  0  0  0
  9 27  1  0  0  0  0
  9 28  1  0  0  0  0
 10 11  1  0  0  0  0
 10 29  1  0  0  0  0
 10 30  1  0  0  0  0
 11 16  1  0  0  0  0
 11 12  2  0  0  0  0
 12 13  1  0  0  0  0
 12 31  1  0  0  0  0
 13 14  2  0  0  0  0
 13 32  1  0  0  0  0
 14 15  1  0  0  0  0
 14 33  1  0  0  0  0
 15 16  2  0  0  0  0
 15 34  1  0  0  0  0
 17 18  1  0  0  0  0
 17 35  1  0  0  0  0
 17 36  1  0  0  0  0
 18 19  1  0  0  0  0
 18 20  1  0  0  0  0
 18 37  1  0  0  0  0
 19 38  1  0  0  0  0
 19 39  1  0  0  0  0
 19 40  1  0  0  0  0
M  CHG  1   8  -1
M  END
> <s_m_source_file>
AV-unprocessed.smi

> <i_m_source_file_index>
2100

> <i_lp_mmshare_version>
43012

> <i_f3d_flags>
0

> <s_epik_input>
W0NIM11bQ0BASF0xW0NIMl1OKFtDSDJdW0NASF0oTzEpW0NIM10pUyg9TykoPU8pW05IXVtDSDJdW0NIMl1jMltjSF1bY0hdW2NIXVtjSF1uMg==

> <s_epik_cmdline>
J2VwaWtfcHl0aG9uJywgJy1waCcsICc3LjAnLCAnLXRuJywgJzgnLCAnLW1hJywgJzIwMCcsICctbWV0YWxfYmluZGluZycsICctaW1hZScsICc8aW5maWxlLm1hZT4nLCAnLW9tYWUnLCAnPG91dGZpbGUubWFlPic=

> <r_epik_Ionization_Penalty>
1.27779

> <r_epik_Ionization_Penalty_Charging>
1.20871

> <r_epik_Ionization_Penalty_Neutral>
0.0690773

> <r_epik_State_Penalty>
1.64557

> <r_epik_Charging_Adjusted_Penalty>
2.85428

> <i_epik_Tot_Q>
-1

> <i_epik_Tot_abs_Q>
1

> <r_epik_Metal_State_Penalty>
0.643506

> <b_epik_Metal_Only>
0

> <s_lp_Force_Field>
OPLS_2005

> <r_lp_Energy>
11.2488

> <b_lp_Chiralities_Consistent>
1

> <s_lp_Variant>
AV-unprocessed.smi:2100-4

> <Gold.Version>
5.8.1

> <Gold.Id.Protein>
6NUR|6NUR_protein|mol2

> <Gold.PLP.Fitness>
44.9710

> <Gold.PLP.PLP>
-41.4058

> <Gold.PLP.part.hbond>
-2.3370

> <Gold.PLP.part.metal>
0.0000

> <Gold.PLP.part.buried>
-4.4712

> <Gold.PLP.part.nonpolar>
-35.9509

> <Gold.PLP.part.repulsive>
0.1484

> <Gold.PLP.ligand.clash>
0.0000

> <Gold.PLP.ligand.torsion>
1.4846

> <Gold.PLP.Chemscore.Hbond>
1.6752

> <Gold.PLP.Chemscore.CHOScore>
0.0000

> <Gold.PLP.Chemscore.Metal>
0.0000

> <Gold.Chemscore.Hbonds>
donor molecule, donor type, donor heavy atom, donor atom, acceptor molecule, acceptor atom, score
      P1  H  6896  6907       L1     6  1.00
      P1  H 10752 10763       L1    20  0.77
      L1  C    15    34       P1  8028  0.52

> <Gold.PLP.Chemscore.Internal.Correction>
1.5088

> <Gold.Rescore>
     Score         DG    S(hbond)    S(metal)    S(lipo)     H(rot)  DE(clash)    DE(int)     intcor
     18.50     -20.47       1.47        0.00     118.45       1.47       0.49       1.49       ----

> <Gold.Chemscore.Fitness>
18.4958

> <Gold.Chemscore.DG>
-20.4721

> <Gold.Chemscore.ZeroCoef>
-5.4800

> <Gold.Chemscore.Hbond>
1.4685

> <Gold.Chemscore.Metal>
0.0000

> <Gold.Chemscore.Lipo>
118.4482

> <Gold.Chemscore.Internal_Hbond>
0.0000

> <Gold.Chemscore.DEClash>
0.4872

> <Gold.Chemscore.DEInternal>
1.4892

> <Gold.Chemscore.Rot>
1.4731

> <Gold.Chemscore.Internal.Correction>
   9.000000E+99

> <Gold.Chemscore.Hbonds>
donor molecule, donor type, donor heavy atom, donor atom, acceptor molecule, acceptor atom, score
      P1  H  6896  6907       L1     6  0.86
      P1  H 10752 10763       L1    20  0.27

> <Gold.Chemscore.Hbond.Weighted>
-4.9048

> <Gold.Chemscore.Metal.Weighted>
-0.0000

> <Gold.Chemscore.Lipo.Weighted>
-13.8584

> <Gold.Chemscore.Internal_Hbond.Weighted>
0.0000

> <Gold.Chemscore.DEClash.Weighted>
0.4872

> <Gold.Chemscore.DEInternal.Weighted>
1.4892

> <Gold.Chemscore.Rot.Weighted>
3.7712

> <Gold.Chemscore.Internal.Correction.Weighted>
   9.000000E+99

> <Gold.Protein.RotatedTorsions>
[ 6907 6896 6895 6894 ] final  -31.97 input  -60.11 | X-H torsion
[ 7974 7965 7964 7962 ] final   43.81 input  175.53 | X-H torsion
[ 8008 7997 7996 7995 ] final -115.15 input   59.86 | X-H torsion
[ 10167 10162 10161 10158 ] final  119.46 input  -65.29 | X-H torsion
[ 10718 10713 10712 10709 ] final  -47.23 input   66.30 | X-H torsion
[ 10763 10752 10751 10750 ] final   29.70 input  -60.55 | X-H torsion
[ 11005 11000 10999 10996 ] final   -2.07 input  -57.11 | X-H torsion

> <Gold.Protein.ActiveResidues>
 VAL166  LYS551  ARG553  GLY616  TRP617  ASP618  TYR619  PRO620  LYS621  CYS622 
 ASP623  PHE694  ASN695  SER759  ASP760  ASP761  ALA762  ILE779  LEU786  VAL792 
 PHE793  MET794  SER795  GLU796  ALA797  LYS798  CYS799  TRP800  GLU811  SER814 

> <Gold.Protein.RotatedAtoms>
  151.0849  134.9881  159.8374 H   0  0  0  0  0  0  0  0  0  0  0  0  # atno 6907 bound_to 6896
  152.5423  134.2136  159.8769 H   0  0  0  0  0  0  0  0  0  0  0  0  # atno 6908 bound_to 6896
  151.2168  133.4481  159.2633 H   0  0  0  0  0  0  0  0  0  0  0  0  # atno 6909 bound_to 6896
  146.0623  139.5145  142.9650 H   0  0  0  0  0  0  0  0  0  0  0  0  # atno 7974 bound_to 7965
  155.0474  140.0392  157.2531 H   0  0  0  0  0  0  0  0  0  0  0  0  # atno 8008 bound_to 7997
  154.7165  140.2703  155.6556 H   0  0  0  0  0  0  0  0  0  0  0  0  # atno 8009 bound_to 7997
  156.2805  140.2711  156.1824 H   0  0  0  0  0  0  0  0  0  0  0  0  # atno 8010 bound_to 7997
  139.6044  144.7066  151.2987 H   0  0  0  0  0  0  0  0  0  0  0  0  # atno 10167 bound_to 10162
  156.2105  130.4160  149.9121 H   0  0  0  0  0  0  0  0  0  0  0  0  # atno 10718 bound_to 10713
  153.0415  135.6482  154.0931 H   0  0  0  0  0  0  0  0  0  0  0  0  # atno 10763 bound_to 10752
  154.0636  135.2886  155.3322 H   0  0  0  0  0  0  0  0  0  0  0  0  # atno 10764 bound_to 10752
  154.6641  135.5380  153.8120 H   0  0  0  0  0  0  0  0  0  0  0  0  # atno 10765 bound_to 10752
  140.6543  133.9376  155.8398 H   0  0  0  0  0  0  0  0  0  0  0  0  # atno 11005 bound_to 11000
  145.6538  141.0257  143.1746 LP  0  0  0  0  0  0  0  0  0  0  0  0  # atno 17320 bound_to 7965
  144.7182  139.8121  143.7391 LP  0  0  0  0  0  0  0  0  0  0  0  0  # atno 17321 bound_to 7965
  140.7274  143.6964  150.7880 LP  0  0  0  0  0  0  0  0  0  0  0  0  # atno 17342 bound_to 10162
  140.0547  143.5215  152.2657 LP  0  0  0  0  0  0  0  0  0  0  0  0  # atno 17343 bound_to 10162
  156.6801  130.8854  151.3574 LP  0  0  0  0  0  0  0  0  0  0  0  0  # atno 17370 bound_to 10713
  157.7036  130.9360  150.0860 LP  0  0  0  0  0  0  0  0  0  0  0  0  # atno 17371 bound_to 10713
  141.0513  134.0481  157.3780 LP  0  0  0  0  0  0  0  0  0  0  0  0  # atno 17394 bound_to 11000
  139.9035  135.0172  156.7378 LP  0  0  0  0  0  0  0  0  0  0  0  0  # atno 17395 bound_to 11000

$$$$
