AV-unprocessed.smi:82|AV-procd|sdf|797|dock9
  -GOLD-   2262017173D 1   1.00000     0.00000
 Structure written by MMmdl.
 59 62  0  0  0  0  0  0  0  0  2 V2000
  152.0509  138.7729  154.6737 C   0  0  0  0  0  0  0  0  0  0  0  0
  151.3483  140.0029  154.7146 O   0  0  0  0  0  0  0  0  0  0  0  0
  151.0803  140.4332  156.0389 C   0  0  0  0  0  0  0  0  0  0  0  0
  150.3898  141.8057  155.9847 C   0  0  0  0  0  0  0  0  0  0  0  0
  148.9767  141.7194  155.5160 N   0  3  1  0  0  0  0  0  0  0  0  0
  148.8934  141.1255  154.1507 C   0  0  0  0  0  0  0  0  0  0  0  0
  147.4527  141.0874  153.6163 C   0  0  0  0  0  0  0  0  0  0  0  0
  146.5472  140.4559  154.5628 N   0  0  0  0  0  0  0  0  0  0  0  0
  146.3979  139.1181  154.4479 C   0  0  0  0  0  0  0  0  0  0  0  0
  146.3528  138.3387  155.5588 N   0  0  0  0  0  0  0  0  0  0  0  0
  146.2068  137.0158  155.4385 C   0  0  0  0  0  0  0  0  0  0  0  0
  146.0885  136.2877  154.3261 N   0  0  0  0  0  0  0  0  0  0  0  0
  146.1315  137.0698  153.2084 C   0  0  0  0  0  0  0  0  0  0  0  0
  146.2826  138.4845  153.1835 C   0  0  0  0  0  0  0  0  0  0  0  0
  146.2831  138.9440  151.8739 N   0  0  0  0  0  0  0  0  0  0  0  0
  146.1402  137.8602  151.1605 C   0  0  0  0  0  0  0  0  0  0  0  0
  146.0415  136.6883  151.8788 N   0  0  0  0  0  0  0  0  0  0  0  0
  145.8823  135.3678  151.3359 C   0  0  0  0  0  0  0  0  0  0  0  0
  144.6547  134.9867  150.5061 C   0  0  0  0  0  0  0  0  0  0  0  0
  144.7378  133.5452  151.0603 C   0  0  0  0  0  0  0  0  0  0  0  0
  143.3761  132.9267  151.4224 C   0  0  0  0  0  0  0  0  0  0  0  0
  142.6969  132.4351  150.2853 O   0  0  0  0  0  0  0  0  0  0  0  0
  145.5135  132.5728  150.1470 C   0  0  0  0  0  0  0  0  0  0  0  0
  146.9093  132.7860  150.1972 O   0  0  0  0  0  0  0  0  0  0  0  0
  145.5324  134.1765  152.2280 C   0  0  0  0  0  0  0  0  0  0  0  0
  146.6061  140.9832  155.9182 C   0  0  0  0  0  0  0  0  0  0  0  0
  148.0462  141.0499  156.4823 C   0  0  2  0  0  0  0  0  0  0  0  0
  147.9873  141.7543  157.8534 C   0  0  0  0  0  0  0  0  0  0  0  0
  152.2367  138.4916  153.6370 H   0  0  0  0  0  0  0  0  0  0  0  0
  151.4745  137.9730  155.1408 H   0  0  0  0  0  0  0  0  0  0  0  0
  153.0145  138.8518  155.1789 H   0  0  0  0  0  0  0  0  0  0  0  0
  150.4815  139.6952  156.5720 H   0  0  0  0  0  0  0  0  0  0  0  0
  152.0204  140.5268  156.5845 H   0  0  0  0  0  0  0  0  0  0  0  0
  150.4212  142.2849  156.9641 H   0  0  0  0  0  0  0  0  0  0  0  0
  150.9952  142.4282  155.3313 H   0  0  0  0  0  0  0  0  0  0  0  0
  149.4991  141.6923  153.4461 H   0  0  0  0  0  0  0  0  0  0  0  0
  149.3100  140.1180  154.1714 H   0  0  0  0  0  0  0  0  0  0  0  0
  147.0992  142.1028  153.4336 H   0  0  0  0  0  0  0  0  0  0  0  0
  147.4181  140.5697  152.6565 H   0  0  0  0  0  0  0  0  0  0  0  0
  146.1811  136.4610  156.3647 H   0  0  0  0  0  0  0  0  0  0  0  0
  146.1036  137.8888  150.0809 H   0  0  0  0  0  0  0  0  0  0  0  0
  146.7926  135.1524  150.7733 H   0  0  0  0  0  0  0  0  0  0  0  0
  143.7521  135.5148  150.8161 H   0  0  0  0  0  0  0  0  0  0  0  0
  144.7983  135.0728  149.4285 H   0  0  0  0  0  0  0  0  0  0  0  0
  143.5027  132.0897  152.1097 H   0  0  0  0  0  0  0  0  0  0  0  0
  142.7364  133.6472  151.9332 H   0  0  0  0  0  0  0  0  0  0  0  0
  142.1558  133.1261  149.9353 H   0  0  0  0  0  0  0  0  0  0  0  0
  145.3089  131.5356  150.4144 H   0  0  0  0  0  0  0  0  0  0  0  0
  145.2051  132.6811  149.1069 H   0  0  0  0  0  0  0  0  0  0  0  0
  147.3427  131.9465  150.2000 H   0  0  0  0  0  0  0  0  0  0  0  0
  146.3946  133.6005  152.5649 H   0  0  0  0  0  0  0  0  0  0  0  0
  144.8961  134.4474  153.0720 H   0  0  0  0  0  0  0  0  0  0  0  0
  146.1709  141.9830  155.9001 H   0  0  0  0  0  0  0  0  0  0  0  0
  145.9700  140.3855  156.5734 H   0  0  0  0  0  0  0  0  0  0  0  0
  148.4054  140.0322  156.6400 H   0  0  0  0  0  0  0  0  0  0  0  0
  147.1723  141.3549  158.4579 H   0  0  0  0  0  0  0  0  0  0  0  0
  147.8173  142.8258  157.7432 H   0  0  0  0  0  0  0  0  0  0  0  0
  148.8921  141.6102  158.4418 H   0  0  0  0  0  0  0  0  0  0  0  0
  148.6473  142.6712  155.4378 H   0  0  0  0  0  0  0  0  0  0  0  0
  1  2  1  0  0  0  0
  1 29  1  0  0  0  0
  1 30  1  0  0  0  0
  1 31  1  0  0  0  0
  2  3  1  0  0  0  0
  3  4  1  0  0  0  0
  3 32  1  0  0  0  0
  3 33  1  0  0  0  0
  4  5  1  0  0  0  0
  4 34  1  0  0  0  0
  4 35  1  0  0  0  0
  5 27  1  0  0  0  0
  5  6  1  0  0  0  0
  5 59  1  0  0  0  0
  6  7  1  0  0  0  0
  6 36  1  0  0  0  0
  6 37  1  0  0  0  0
  7  8  1  0  0  0  0
  7 38  1  0  0  0  0
  7 39  1  0  0  0  0
  8  9  1  0  0  0  0
  8 26  1  0  0  0  0
  9 14  1  0  0  0  0
  9 10  2  0  0  0  0
 10 11  1  0  0  0  0
 11 12  2  0  0  0  0
 11 40  1  0  0  0  0
 12 13  1  0  0  0  0
 13 17  1  0  0  0  0
 13 14  2  0  0  0  0
 14 15  1  0  0  0  0
 15 16  2  0  0  0  0
 16 17  1  0  0  0  0
 16 41  1  0  0  0  0
 17 18  1  0  0  0  0
 18 25  1  0  0  0  0
 18 19  1  0  0  0  0
 18 42  1  0  0  0  0
 19 20  1  0  0  0  0
 19 43  1  0  0  0  0
 19 44  1  0  0  0  0
 20 21  1  0  0  0  0
 20 23  1  0  0  0  0
 20 25  1  0  0  0  0
 21 22  1  0  0  0  0
 21 45  1  0  0  0  0
 21 46  1  0  0  0  0
 22 47  1  0  0  0  0
 23 24  1  0  0  0  0
 23 48  1  0  0  0  0
 23 49  1  0  0  0  0
 24 50  1  0  0  0  0
 25 51  1  0  0  0  0
 25 52  1  0  0  0  0
 26 27  1  0  0  0  0
 26 53  1  0  0  0  0
 26 54  1  0  0  0  0
 27 28  1  0  0  0  0
 27 55  1  0  0  0  0
 28 56  1  0  0  0  0
 28 57  1  0  0  0  0
 28 58  1  0  0  0  0
M  CHG  1   5   1
M  END
> <s_m_source_file>
AV-unprocessed.smi

> <i_m_source_file_index>
82

> <i_lp_mmshare_version>
43012

> <i_f3d_flags>
0

> <s_epik_input>
W0NIM11PW0NIMl1bQ0gyXU4xW0NIMl1bQ0gyXU4oW0NIMl1bQ0BIXTFbQ0gzXSljKG5bY0hdbjIpYyhjMjMpbltjSF1uM1tDSF0oW0NIMl00KVtDSDJdQzQoW0NIMl1bT0hdKVtDSDJdW09IXQ==

> <s_epik_cmdline>
J2VwaWtfcHl0aG9uJywgJy1waCcsICc3LjAnLCAnLXRuJywgJzgnLCAnLW1hJywgJzIwMCcsICctbWV0YWxfYmluZGluZycsICctaW1hZScsICc8aW5maWxlLm1hZT4nLCAnLW9tYWUnLCAnPG91dGZpbGUubWFlPic=

> <r_lp_tautomer_probability>
1

> <r_epik_Ionization_Penalty>
0.304275

> <r_epik_Ionization_Penalty_Charging>
0.304214

> <r_epik_Ionization_Penalty_Neutral>
6.13137e-05

> <r_epik_State_Penalty>
0.300354

> <r_epik_Charging_Adjusted_Penalty>
0.604567

> <i_epik_Tot_Q>
1

> <i_epik_Tot_abs_Q>
1

> <r_epik_Metal_State_Penalty>
0.301147

> <b_epik_Metal_Only>
0

> <s_lp_Force_Field>
OPLS_2005

> <r_lp_Energy>
60.5055

> <b_lp_Chiralities_Consistent>
1

> <s_lp_Variant>
AV-unprocessed.smi:82-4

> <Gold.Version>
5.8.1

> <Gold.Id.Protein>
6NUR|6NUR_protein|mol2

> <Gold.PLP.Fitness>
57.6401

> <Gold.PLP.PLP>
-42.6183

> <Gold.PLP.part.hbond>
-5.5915

> <Gold.PLP.part.metal>
0.0000

> <Gold.PLP.part.buried>
-1.9911

> <Gold.PLP.part.nonpolar>
-37.8598

> <Gold.PLP.part.repulsive>
1.0734

> <Gold.PLP.ligand.clash>
0.0000

> <Gold.PLP.ligand.torsion>
1.0039

> <Gold.PLP.Chemscore.Hbond>
5.0000

> <Gold.PLP.Chemscore.CHOScore>
0.3916

> <Gold.PLP.Chemscore.Metal>
0.0000

> <Gold.Chemscore.Hbonds>
donor molecule, donor type, donor heavy atom, donor atom, acceptor molecule, acceptor atom, score
      L1  H     5    59       P1  8028  1.82
      L1  H    22    47       P1 10186  1.00
      L1  H    24    50       P1 10747  1.00
      P1  H  7989  7998       L1     2  0.98
      L1  C    16    41       P1 10171  0.40

> <Gold.PLP.Chemscore.Internal.Correction>
0.8548

> <Gold.Rescore>
     Score         DG    S(hbond)    S(metal)    S(lipo)     H(rot)  DE(clash)    DE(int)     intcor
     11.16     -18.57       3.85        0.00      87.35       3.91       2.10       5.31       ----

> <Gold.Chemscore.Fitness>
11.1557

> <Gold.Chemscore.DG>
-18.5654

> <Gold.Chemscore.ZeroCoef>
-5.4800

> <Gold.Chemscore.Hbond>
3.8515

> <Gold.Chemscore.Metal>
0.0000

> <Gold.Chemscore.Lipo>
87.3462

> <Gold.Chemscore.Internal_Hbond>
0.0000

> <Gold.Chemscore.DEClash>
2.0956

> <Gold.Chemscore.DEInternal>
5.3142

> <Gold.Chemscore.Rot>
3.9055

> <Gold.Chemscore.Internal.Correction>
   9.000000E+99

> <Gold.Chemscore.Hbonds>
donor molecule, donor type, donor heavy atom, donor atom, acceptor molecule, acceptor atom, score
      L1  H     5    59       P1  8028  0.86
      L1  H    22    47       P1 10186  1.00
      L1  H    24    50       P1 10747  0.94
      P1  H  7989  7998       L1     2  0.75

> <Gold.Chemscore.Hbond.Weighted>
-12.8640

> <Gold.Chemscore.Metal.Weighted>
-0.0000

> <Gold.Chemscore.Lipo.Weighted>
-10.2195

> <Gold.Chemscore.Internal_Hbond.Weighted>
0.0000

> <Gold.Chemscore.DEClash.Weighted>
2.0956

> <Gold.Chemscore.DEInternal.Weighted>
5.3142

> <Gold.Chemscore.Rot.Weighted>
9.9980

> <Gold.Chemscore.Internal.Correction.Weighted>
   9.000000E+99

> <Gold.Protein.RotatedTorsions>
[ 6907 6896 6895 6894 ] final  136.23 input  -60.11 | X-H torsion
[ 7974 7965 7964 7962 ] final -103.82 input  175.53 | X-H torsion
[ 8008 7997 7996 7995 ] final -115.08 input   59.86 | X-H torsion
[ 10167 10162 10161 10158 ] final  -81.63 input  -65.29 | X-H torsion
[ 10718 10713 10712 10709 ] final  -26.44 input   66.30 | X-H torsion
[ 10763 10752 10751 10750 ] final -123.14 input  -60.55 | X-H torsion
[ 11005 11000 10999 10996 ] final  150.14 input  -57.11 | X-H torsion

> <Gold.Protein.ActiveResidues>
 VAL166  LYS551  ARG553  GLY616  TRP617  ASP618  TYR619  PRO620  LYS621  CYS622 
 ASP623  PHE694  ASN695  SER759  ASP760  ASP761  ALA762  ILE779  LEU786  VAL792 
 PHE793  MET794  SER795  GLU796  ALA797  LYS798  CYS799  TRP800  GLU811  SER814 

> <Gold.Protein.RotatedAtoms>
  152.2917  133.5567  159.5561 H   0  0  0  0  0  0  0  0  0  0  0  0  # atno 6907 bound_to 6896
  150.7238  134.0419  159.3777 H   0  0  0  0  0  0  0  0  0  0  0  0  # atno 6908 bound_to 6896
  151.8325  135.0617  160.0489 H   0  0  0  0  0  0  0  0  0  0  0  0  # atno 6909 bound_to 6896
  145.2510  140.9238  143.3095 H   0  0  0  0  0  0  0  0  0  0  0  0  # atno 7974 bound_to 7965
  155.0464  140.0392  157.2528 H   0  0  0  0  0  0  0  0  0  0  0  0  # atno 8008 bound_to 7997
  154.7174  140.2705  155.6549 H   0  0  0  0  0  0  0  0  0  0  0  0  # atno 8009 bound_to 7997
  156.2807  140.2709  156.1834 H   0  0  0  0  0  0  0  0  0  0  0  0  # atno 8010 bound_to 7997
  140.4394  143.2520  151.8647 H   0  0  0  0  0  0  0  0  0  0  0  0  # atno 10167 bound_to 10162
  156.4512  130.4484  149.6988 H   0  0  0  0  0  0  0  0  0  0  0  0  # atno 10718 bound_to 10713
  154.8702  135.4108  154.2895 H   0  0  0  0  0  0  0  0  0  0  0  0  # atno 10763 bound_to 10752
  153.3773  135.7010  153.6597 H   0  0  0  0  0  0  0  0  0  0  0  0  # atno 10764 bound_to 10752
  153.5434  135.3643  155.2700 H   0  0  0  0  0  0  0  0  0  0  0  0  # atno 10765 bound_to 10752
  140.1106  134.8927  157.1930 H   0  0  0  0  0  0  0  0  0  0  0  0  # atno 11005 bound_to 11000
  144.9503  139.4090  143.6405 LP  0  0  0  0  0  0  0  0  0  0  0  0  # atno 17320 bound_to 7965
  146.3302  139.8507  142.8873 LP  0  0  0  0  0  0  0  0  0  0  0  0  # atno 17321 bound_to 7965
  139.4789  144.5245  151.8754 LP  0  0  0  0  0  0  0  0  0  0  0  0  # atno 17342 bound_to 10162
  140.4335  144.2083  150.5888 LP  0  0  0  0  0  0  0  0  0  0  0  0  # atno 17343 bound_to 10162
  156.3814  130.7581  151.2574 LP  0  0  0  0  0  0  0  0  0  0  0  0  # atno 17370 bound_to 10713
  157.7502  131.0294  150.4093 LP  0  0  0  0  0  0  0  0  0  0  0  0  # atno 17371 bound_to 10713
  140.3097  134.3038  155.7270 LP  0  0  0  0  0  0  0  0  0  0  0  0  # atno 17394 bound_to 11000
  141.2129  133.7642  156.9758 LP  0  0  0  0  0  0  0  0  0  0  0  0  # atno 17395 bound_to 11000

$$$$
