AV-unprocessed.smi:1041|AV-procd|sdf|4529|dock7
  -GOLD-   22720 2553D 1   1.00000     0.00000
 Structure written by MMmdl.
 53 54  0  0  0  0  0  0  0  0  2 V2000
  145.9867  133.7470  150.4351 C   0  0  0  0  0  0  0  0  0  0  0  0
  145.1112  134.8022  150.7929 O   0  0  0  0  0  0  0  0  0  0  0  0
  145.7290  135.7596  151.6368 C   0  0  0  0  0  0  0  0  0  0  0  0
  144.6995  136.8438  151.9912 C   0  0  0  0  0  0  0  0  0  0  0  0
  145.3351  138.0764  152.5216 N   0  3  2  0  0  0  0  0  0  0  0  0
  146.4832  138.5206  151.6896 C   0  0  0  0  0  0  0  0  0  0  0  0
  147.0462  139.8675  152.1819 C   0  0  0  0  0  0  0  0  0  0  0  0
  147.4389  139.8276  153.6706 C   0  0  2  0  0  0  0  0  0  0  0  0
  148.7454  139.0330  153.9052 C   0  0  0  0  0  0  0  0  0  0  0  0
  149.2568  139.2168  155.2590 N   0  0  0  0  0  0  0  0  0  0  0  0
  150.5467  139.3849  155.5894 C   0  0  0  0  0  0  0  0  0  0  0  0
  151.4564  139.4718  154.7653 O   0  0  0  0  0  0  0  0  0  0  0  0
  150.8587  139.4227  157.0845 C   0  0  0  0  0  0  0  0  0  0  0  0
  151.2102  140.8069  157.6259 C   0  0  0  0  0  0  0  0  0  0  0  0
  152.1540  141.0157  158.5905 C   0  0  0  0  0  0  0  0  0  0  0  0
  152.9603  139.8907  159.2162 C   0  0  0  0  0  0  0  0  0  0  0  0
  152.4437  142.3014  159.0681 N   0  0  0  0  0  0  0  0  0  0  0  0
  151.7959  143.3074  158.5801 C   0  0  0  0  0  0  0  0  0  0  0  0
  152.0172  144.7428  159.0083 C   0  0  0  0  0  0  0  0  0  0  0  0
  150.8158  143.1623  157.6000 N   0  0  0  0  0  0  0  0  0  0  0  0
  150.4692  141.9623  157.0834 C   0  0  0  0  0  0  0  0  0  0  0  0
  149.5854  141.8836  156.2314 O   0  0  0  0  0  0  0  0  0  0  0  0
  146.2280  139.3244  154.4846 C   0  0  0  0  0  0  0  0  0  0  0  0
  145.7020  137.9785  153.9591 C   0  0  0  0  0  0  0  0  0  0  0  0
  150.3385  143.9841  157.2593 H   0  0  0  0  0  0  0  0  0  0  0  0
  145.4669  133.0444  149.7839 H   0  0  0  0  0  0  0  0  0  0  0  0
  146.3256  133.2007  151.3165 H   0  0  0  0  0  0  0  0  0  0  0  0
  146.8589  134.1220  149.8981 H   0  0  0  0  0  0  0  0  0  0  0  0
  146.1355  135.2839  152.5295 H   0  0  0  0  0  0  0  0  0  0  0  0
  146.5682  136.2172  151.1108 H   0  0  0  0  0  0  0  0  0  0  0  0
  144.0887  137.0911  151.1219 H   0  0  0  0  0  0  0  0  0  0  0  0
  144.0187  136.4289  152.7360 H   0  0  0  0  0  0  0  0  0  0  0  0
  147.2578  137.7529  151.6935 H   0  0  0  0  0  0  0  0  0  0  0  0
  146.1605  138.6319  150.6537 H   0  0  0  0  0  0  0  0  0  0  0  0
  147.9014  140.1608  151.5721 H   0  0  0  0  0  0  0  0  0  0  0  0
  146.2913  140.6408  152.0324 H   0  0  0  0  0  0  0  0  0  0  0  0
  147.6380  140.8534  153.9846 H   0  0  0  0  0  0  0  0  0  0  0  0
  148.6083  137.9747  153.6815 H   0  0  0  0  0  0  0  0  0  0  0  0
  149.5134  139.3845  153.2155 H   0  0  0  0  0  0  0  0  0  0  0  0
  148.5835  139.1589  156.0100 H   0  0  0  0  0  0  0  0  0  0  0  0
  149.9966  139.0270  157.6212 H   0  0  0  0  0  0  0  0  0  0  0  0
  151.6629  138.7187  157.3046 H   0  0  0  0  0  0  0  0  0  0  0  0
  153.5673  139.3885  158.4626 H   0  0  0  0  0  0  0  0  0  0  0  0
  152.3027  139.1564  159.6805 H   0  0  0  0  0  0  0  0  0  0  0  0
  153.6333  140.2674  159.9872 H   0  0  0  0  0  0  0  0  0  0  0  0
  151.8173  144.8515  160.0745 H   0  0  0  0  0  0  0  0  0  0  0  0
  151.3664  145.4306  158.4666 H   0  0  0  0  0  0  0  0  0  0  0  0
  153.0513  145.0339  158.8217 H   0  0  0  0  0  0  0  0  0  0  0  0
  146.4680  139.2473  155.5449 H   0  0  0  0  0  0  0  0  0  0  0  0
  145.4269  140.0620  154.4213 H   0  0  0  0  0  0  0  0  0  0  0  0
  144.8357  137.6893  154.5525 H   0  0  0  0  0  0  0  0  0  0  0  0
  146.4486  137.1955  154.0968 H   0  0  0  0  0  0  0  0  0  0  0  0
  144.6400  138.8057  152.4454 H   0  0  0  0  0  0  0  0  0  0  0  0
  1  2  1  0  0  0  0
  1 26  1  0  0  0  0
  1 27  1  0  0  0  0
  1 28  1  0  0  0  0
  2  3  1  0  0  0  0
  3  4  1  0  0  0  0
  3 29  1  0  0  0  0
  3 30  1  0  0  0  0
  4  5  1  0  0  0  0
  4 31  1  0  0  0  0
  4 32  1  0  0  0  0
  5 24  1  0  0  0  0
  5  6  1  0  0  0  0
  5 53  1  0  0  0  0
  6  7  1  0  0  0  0
  6 33  1  0  0  0  0
  6 34  1  0  0  0  0
  7  8  1  0  0  0  0
  7 35  1  0  0  0  0
  7 36  1  0  0  0  0
  8  9  1  0  0  0  0
  8 23  1  0  0  0  0
  8 37  1  0  0  0  0
  9 10  1  0  0  0  0
  9 38  1  0  0  0  0
  9 39  1  0  0  0  0
 10 11  1  0  0  0  0
 10 40  1  0  0  0  0
 11 12  2  0  0  0  0
 11 13  1  0  0  0  0
 13 14  1  0  0  0  0
 13 41  1  0  0  0  0
 13 42  1  0  0  0  0
 14 21  1  0  0  0  0
 14 15  2  0  0  0  0
 15 16  1  0  0  0  0
 15 17  1  0  0  0  0
 16 43  1  0  0  0  0
 16 44  1  0  0  0  0
 16 45  1  0  0  0  0
 17 18  2  0  0  0  0
 18 19  1  0  0  0  0
 18 20  1  0  0  0  0
 19 46  1  0  0  0  0
 19 47  1  0  0  0  0
 19 48  1  0  0  0  0
 20 25  1  0  0  0  0
 20 21  1  0  0  0  0
 21 22  2  0  0  0  0
 23 24  1  0  0  0  0
 23 49  1  0  0  0  0
 23 50  1  0  0  0  0
 24 51  1  0  0  0  0
 24 52  1  0  0  0  0
M  CHG  1   5   1
M  END
> <s_m_source_file>
AV-unprocessed.smi

> <i_m_source_file_index>
1041

> <i_lp_mmshare_version>
43012

> <i_f3d_flags>
0

> <s_epik_input>
W0NIM11PW0NIMl1bQ0gyXU4xW0NIMl1bQ0gyXVtDSF0oW0NIMl1bQ0gyXTEpW0NIMl1bTkhdQyg9TylbQ0gyXWMyYyhbQ0gzXSluYyhbQ0gzXSlbbkhdYzI9Tw==

> <s_epik_cmdline>
J2VwaWtfcHl0aG9uJywgJy1waCcsICc3LjAnLCAnLXRuJywgJzgnLCAnLW1hJywgJzIwMCcsICctbWV0YWxfYmluZGluZycsICctaW1hZScsICc8aW5maWxlLm1hZT4nLCAnLW9tYWUnLCAnPG91dGZpbGUubWFlPic=

> <r_lp_tautomer_probability>
0.839158

> <r_epik_Ionization_Penalty>
0.00964357

> <r_epik_Ionization_Penalty_Charging>
0.00961423

> <r_epik_Ionization_Penalty_Neutral>
2.93415e-05

> <r_epik_State_Penalty>
0.0972512

> <r_epik_Charging_Adjusted_Penalty>
0.106865

> <i_epik_Tot_Q>
1

> <i_epik_Tot_abs_Q>
1

> <r_epik_Metal_State_Penalty>
0.270886

> <b_epik_Metal_Only>
0

> <s_lp_Force_Field>
OPLS_2005

> <r_lp_Energy>
21.6557

> <b_lp_Chiralities_Consistent>
1

> <s_lp_Variant>
AV-unprocessed.smi:1041-2

> <Gold.Version>
5.8.1

> <Gold.Id.Protein>
6NUR|6NUR_protein|mol2

> <Gold.PLP.Fitness>
47.9113

> <Gold.PLP.PLP>
-37.9498

> <Gold.PLP.part.hbond>
-3.6386

> <Gold.PLP.part.metal>
0.0000

> <Gold.PLP.part.buried>
-0.1810

> <Gold.PLP.part.nonpolar>
-36.8133

> <Gold.PLP.part.repulsive>
2.2989

> <Gold.PLP.ligand.clash>
0.0000

> <Gold.PLP.ligand.torsion>
0.8702

> <Gold.PLP.Chemscore.Hbond>
3.8580

> <Gold.PLP.Chemscore.CHOScore>
0.0000

> <Gold.PLP.Chemscore.Metal>
0.0000

> <Gold.Chemscore.Hbonds>
donor molecule, donor type, donor heavy atom, donor atom, acceptor molecule, acceptor atom, score
      L1  H     5    53       P1 10175  2.00
      L1  H    20    25       P1  8028  0.37
      P1  H  7989  7998       L1    12  1.00

> <Gold.PLP.Chemscore.Internal.Correction>
0.1280

> <Gold.Rescore>
     Score         DG    S(hbond)    S(metal)    S(lipo)     H(rot)  DE(clash)    DE(int)     intcor
     13.46     -18.61       2.68        0.00      88.96       2.43       1.72       3.43       ----

> <Gold.Chemscore.Fitness>
13.4581

> <Gold.Chemscore.DG>
-18.6058

> <Gold.Chemscore.ZeroCoef>
-5.4800

> <Gold.Chemscore.Hbond>
2.6753

> <Gold.Chemscore.Metal>
0.0000

> <Gold.Chemscore.Lipo>
88.9637

> <Gold.Chemscore.Internal_Hbond>
0.0000

> <Gold.Chemscore.DEClash>
1.7224

> <Gold.Chemscore.DEInternal>
3.4253

> <Gold.Chemscore.Rot>
2.4291

> <Gold.Chemscore.Internal.Correction>
   9.000000E+99

> <Gold.Chemscore.Hbonds>
donor molecule, donor type, donor heavy atom, donor atom, acceptor molecule, acceptor atom, score
      L1  H     5    53       P1 10175  1.00
      L1  H    20    25       P1  8028  0.35
      P1  H  7989  7998       L1    12  1.00

> <Gold.Chemscore.Hbond.Weighted>
-8.9356

> <Gold.Chemscore.Metal.Weighted>
-0.0000

> <Gold.Chemscore.Lipo.Weighted>
-10.4088

> <Gold.Chemscore.Internal_Hbond.Weighted>
0.0000

> <Gold.Chemscore.DEClash.Weighted>
1.7224

> <Gold.Chemscore.DEInternal.Weighted>
3.4253

> <Gold.Chemscore.Rot.Weighted>
6.2186

> <Gold.Chemscore.Internal.Correction.Weighted>
   9.000000E+99

> <Gold.Protein.RotatedTorsions>
[ 6907 6896 6895 6894 ] final -162.53 input  -60.11 | X-H torsion
[ 7974 7965 7964 7962 ] final  -12.16 input  175.53 | X-H torsion
[ 8008 7997 7996 7995 ] final   -6.21 input   59.86 | X-H torsion
[ 10167 10162 10161 10158 ] final  -70.79 input  -65.29 | X-H torsion
[ 10718 10713 10712 10709 ] final -109.40 input   66.30 | X-H torsion
[ 10763 10752 10751 10750 ] final   90.18 input  -60.55 | X-H torsion
[ 11005 11000 10999 10996 ] final  104.17 input  -57.11 | X-H torsion

> <Gold.Protein.ActiveResidues>
 VAL166  LYS551  ARG553  GLY616  TRP617  ASP618  TYR619  PRO620  LYS621  CYS622 
 ASP623  PHE694  ASN695  SER759  ASP760  ASP761  ALA762  ILE779  LEU786  VAL792 
 PHE793  MET794  SER795  GLU796  ALA797  LYS798  CYS799  TRP800  GLU811  SER814 

> <Gold.Protein.RotatedAtoms>
  151.3817  133.3819  159.2710 H   0  0  0  0  0  0  0  0  0  0  0  0  # atno 6907 bound_to 6896
  150.9572  134.8966  159.7719 H   0  0  0  0  0  0  0  0  0  0  0  0  # atno 6908 bound_to 6896
  152.5135  134.3775  159.9392 H   0  0  0  0  0  0  0  0  0  0  0  0  # atno 6909 bound_to 6896
  146.2162  140.3016  142.8375 H   0  0  0  0  0  0  0  0  0  0  0  0  # atno 7974 bound_to 7965
  154.5961  140.2439  155.7855 H   0  0  0  0  0  0  0  0  0  0  0  0  # atno 8008 bound_to 7997
  156.2280  140.2976  156.0069 H   0  0  0  0  0  0  0  0  0  0  0  0  # atno 8009 bound_to 7997
  155.2291  140.0403  157.2950 H   0  0  0  0  0  0  0  0  0  0  0  0  # atno 8010 bound_to 7997
  140.5324  143.2320  151.7237 H   0  0  0  0  0  0  0  0  0  0  0  0  # atno 10167 bound_to 10162
  156.0535  130.5762  150.8095 H   0  0  0  0  0  0  0  0  0  0  0  0  # atno 10718 bound_to 10713
  153.1948  135.4443  155.0194 H   0  0  0  0  0  0  0  0  0  0  0  0  # atno 10763 bound_to 10752
  154.8112  135.3295  154.7302 H   0  0  0  0  0  0  0  0  0  0  0  0  # atno 10764 bound_to 10752
  153.7752  135.6981  153.4954 H   0  0  0  0  0  0  0  0  0  0  0  0  # atno 10765 bound_to 10752
  139.8789  134.9290  156.5321 H   0  0  0  0  0  0  0  0  0  0  0  0  # atno 11005 bound_to 11000
  144.9053  140.7692  143.5841 LP  0  0  0  0  0  0  0  0  0  0  0  0  # atno 17320 bound_to 7965
  145.2944  139.1872  143.4723 LP  0  0  0  0  0  0  0  0  0  0  0  0  # atno 17321 bound_to 7965
  139.4959  144.4093  152.0097 LP  0  0  0  0  0  0  0  0  0  0  0  0  # atno 17342 bound_to 10162
  140.3197  144.3443  150.6013 LP  0  0  0  0  0  0  0  0  0  0  0  0  # atno 17343 bound_to 10162
  157.5484  131.0943  150.9730 LP  0  0  0  0  0  0  0  0  0  0  0  0  # atno 17370 bound_to 10713
  156.9996  130.5594  149.5310 LP  0  0  0  0  0  0  0  0  0  0  0  0  # atno 17371 bound_to 10713
  140.8373  133.8232  155.9041 LP  0  0  0  0  0  0  0  0  0  0  0  0  # atno 17394 bound_to 11000
  140.9271  134.2068  157.4888 LP  0  0  0  0  0  0  0  0  0  0  0  0  # atno 17395 bound_to 11000

$$$$
