AV-unprocessed.smi:1694|AV-procd|sdf|6787|dock5
  -GOLD-   22720 7553D 1   1.00000     0.00000
 Structure written by MMmdl.
 34 35  0  0  0  0  0  0  0  0  1 V2000
  145.4138  135.9365  151.1273 C   0  0  0  0  0  0  0  0  0  0  0  0
  145.2474  134.4667  150.7763 C   0  0  0  0  0  0  0  0  0  0  0  0
  144.1771  134.0752  149.9443 C   0  0  0  0  0  0  0  0  0  0  0  0
  144.0210  132.7170  149.6204 C   0  0  0  0  0  0  0  0  0  0  0  0
  144.9478  131.8020  150.1465 C   0  0  0  0  0  0  0  0  0  0  0  0
  145.9740  132.1681  150.9412 N   0  0  0  0  0  0  0  0  0  0  0  0
  146.1445  133.4767  151.2612 C   0  0  0  0  0  0  0  0  0  0  0  0
  147.1934  133.9482  152.1097 N   0  0  0  0  0  0  0  0  0  0  0  0
  147.7128  133.4528  153.2534 C   0  0  0  0  0  0  0  0  0  0  0  0
  147.2739  132.4187  153.7538 O   0  0  0  0  0  0  0  0  0  0  0  0
  148.7121  134.1595  153.8061 N   0  0  0  0  0  0  0  0  0  0  0  0
  149.4113  133.8217  155.0405 C   0  0  2  0  0  0  0  0  0  0  0  0
  150.5562  134.8148  155.2729 C   0  0  0  0  0  0  0  0  0  0  0  0
  151.3044  134.4986  156.5772 C   0  0  0  0  0  0  0  0  0  0  0  0
  151.6369  133.0085  156.7434 C   0  0  0  0  0  0  0  0  0  0  0  0
  152.4992  132.6685  157.5501 O   0  0  0  0  0  0  0  0  0  0  0  0
  150.9501  132.1021  156.0257 N   0  0  0  0  0  0  0  0  0  0  0  0
  149.9692  132.3858  154.9784 C   0  0  0  0  0  0  0  0  0  0  0  0
  144.6323  136.5455  150.6719 H   0  0  0  0  0  0  0  0  0  0  0  0
  146.3762  136.3064  150.7724 H   0  0  0  0  0  0  0  0  0  0  0  0
  145.3633  136.0803  152.2070 H   0  0  0  0  0  0  0  0  0  0  0  0
  143.4813  134.8053  149.5574 H   0  0  0  0  0  0  0  0  0  0  0  0
  143.2115  132.3857  148.9868 H   0  0  0  0  0  0  0  0  0  0  0  0
  144.8641  130.7482  149.9253 H   0  0  0  0  0  0  0  0  0  0  0  0
  147.6020  134.8225  151.8135 H   0  0  0  0  0  0  0  0  0  0  0  0
  149.0129  134.9967  153.3267 H   0  0  0  0  0  0  0  0  0  0  0  0
  148.7173  133.9011  155.8797 H   0  0  0  0  0  0  0  0  0  0  0  0
  151.2535  134.7835  154.4340 H   0  0  0  0  0  0  0  0  0  0  0  0
  150.1683  135.8335  155.3135 H   0  0  0  0  0  0  0  0  0  0  0  0
  152.2217  135.0856  156.6334 H   0  0  0  0  0  0  0  0  0  0  0  0
  150.6913  134.7964  157.4284 H   0  0  0  0  0  0  0  0  0  0  0  0
  151.1686  131.1287  156.1813 H   0  0  0  0  0  0  0  0  0  0  0  0
  149.1587  131.6593  155.0452 H   0  0  0  0  0  0  0  0  0  0  0  0
  150.4614  132.2176  154.0196 H   0  0  0  0  0  0  0  0  0  0  0  0
  1  2  1  0  0  0  0
  1 19  1  0  0  0  0
  1 20  1  0  0  0  0
  1 21  1  0  0  0  0
  2  7  1  0  0  0  0
  2  3  2  0  0  0  0
  3  4  1  0  0  0  0
  3 22  1  0  0  0  0
  4  5  2  0  0  0  0
  4 23  1  0  0  0  0
  5  6  1  0  0  0  0
  5 24  1  0  0  0  0
  6  7  2  0  0  0  0
  7  8  1  0  0  0  0
  8  9  1  0  0  0  0
  8 25  1  0  0  0  0
  9 10  2  0  0  0  0
  9 11  1  0  0  0  0
 11 12  1  0  0  0  0
 11 26  1  0  0  0  0
 12 18  1  0  0  0  0
 12 13  1  0  0  0  0
 12 27  1  0  0  0  0
 13 14  1  0  0  0  0
 13 28  1  0  0  0  0
 13 29  1  0  0  0  0
 14 15  1  0  0  0  0
 14 30  1  0  0  0  0
 14 31  1  0  0  0  0
 15 16  2  0  0  0  0
 15 17  1  0  0  0  0
 17 18  1  0  0  0  0
 17 32  1  0  0  0  0
 18 33  1  0  0  0  0
 18 34  1  0  0  0  0
M  END
> <s_m_source_file>
AV-unprocessed.smi

> <i_m_source_file_index>
1694

> <i_lp_mmshare_version>
43012

> <i_f3d_flags>
0

> <s_epik_input>
W0NIM11jMVtjSF1bY0hdW2NIXW5jMVtOSF1DKD1PKVtOSF1bQ0BASF0yW0NIMl1bQ0gyXUMoPU8pW05IXVtDSDJdMg==

> <s_epik_cmdline>
J2VwaWtfcHl0aG9uJywgJy1waCcsICc3LjAnLCAnLXRuJywgJzgnLCAnLW1hJywgJzIwMCcsICctbWV0YWxfYmluZGluZycsICctaW1hZScsICc8aW5maWxlLm1hZT4nLCAnLW9tYWUnLCAnPG91dGZpbGUubWFlPic=

> <r_lp_tautomer_probability>
1

> <r_epik_Ionization_Penalty>
5.3746e-05

> <r_epik_Ionization_Penalty_Charging>
0

> <r_epik_Ionization_Penalty_Neutral>
5.3746e-05

> <r_epik_State_Penalty>
-0

> <r_epik_Charging_Adjusted_Penalty>
0

> <i_epik_Tot_Q>
0

> <i_epik_Tot_abs_Q>
0

> <r_epik_Metal_State_Penalty>
-0

> <b_epik_Metal_Only>
0

> <s_lp_Force_Field>
OPLS_2005

> <r_lp_Energy>
12.9813

> <b_lp_Chiralities_Consistent>
1

> <s_lp_Variant>
AV-unprocessed.smi:1694-1

> <Gold.Version>
5.8.1

> <Gold.Id.Protein>
6NUR|6NUR_protein|mol2

> <Gold.PLP.Fitness>
38.8127

> <Gold.PLP.PLP>
-31.1288

> <Gold.PLP.part.hbond>
-3.0000

> <Gold.PLP.part.metal>
0.0000

> <Gold.PLP.part.buried>
-3.5649

> <Gold.PLP.part.nonpolar>
-25.4505

> <Gold.PLP.part.repulsive>
0.2929

> <Gold.PLP.ligand.clash>
0.0000

> <Gold.PLP.ligand.torsion>
0.3588

> <Gold.PLP.Chemscore.Hbond>
2.8000

> <Gold.PLP.Chemscore.CHOScore>
0.0000

> <Gold.PLP.Chemscore.Metal>
0.0000

> <Gold.Chemscore.Hbonds>
donor molecule, donor type, donor heavy atom, donor atom, acceptor molecule, acceptor atom, score
      L1  H     8    25       P1  7948  1.00
      L1  H    11    26       P1  7948  1.00
      P1  H  6896  6909       L1    16  0.77

> <Gold.PLP.Chemscore.Internal.Correction>
0.0015

> <Gold.Rescore>
     Score         DG    S(hbond)    S(metal)    S(lipo)     H(rot)  DE(clash)    DE(int)     intcor
     16.18     -16.65       1.94        0.00      61.93       1.00       0.11       0.36       ----

> <Gold.Chemscore.Fitness>
16.1823

> <Gold.Chemscore.DG>
-16.6512

> <Gold.Chemscore.ZeroCoef>
-5.4800

> <Gold.Chemscore.Hbond>
1.9417

> <Gold.Chemscore.Metal>
0.0000

> <Gold.Chemscore.Lipo>
61.9305

> <Gold.Chemscore.Internal_Hbond>
0.0000

> <Gold.Chemscore.DEClash>
0.1061

> <Gold.Chemscore.DEInternal>
0.3629

> <Gold.Chemscore.Rot>
1.0000

> <Gold.Chemscore.Internal.Correction>
   9.000000E+99

> <Gold.Chemscore.Hbonds>
donor molecule, donor type, donor heavy atom, donor atom, acceptor molecule, acceptor atom, score
      L1  H     8    25       P1  7948  0.59
      L1  H    11    26       P1  7948  0.25
      P1  H  6896  6909       L1    16  0.62

> <Gold.Chemscore.Hbond.Weighted>
-6.4854

> <Gold.Chemscore.Metal.Weighted>
-0.0000

> <Gold.Chemscore.Lipo.Weighted>
-7.2459

> <Gold.Chemscore.Internal_Hbond.Weighted>
0.0000

> <Gold.Chemscore.DEClash.Weighted>
0.1061

> <Gold.Chemscore.DEInternal.Weighted>
0.3629

> <Gold.Chemscore.Rot.Weighted>
2.5600

> <Gold.Chemscore.Internal.Correction.Weighted>
   9.000000E+99

> <Gold.Protein.RotatedTorsions>
[ 6907 6896 6895 6894 ] final  -92.78 input  -60.11 | X-H torsion
[ 7974 7965 7964 7962 ] final -109.77 input  175.53 | X-H torsion
[ 8008 7997 7996 7995 ] final -130.33 input   59.86 | X-H torsion
[ 10167 10162 10161 10158 ] final  143.34 input  -65.29 | X-H torsion
[ 10718 10713 10712 10709 ] final  170.99 input   66.30 | X-H torsion
[ 10763 10752 10751 10750 ] final  148.86 input  -60.55 | X-H torsion
[ 11005 11000 10999 10996 ] final  -71.29 input  -57.11 | X-H torsion

> <Gold.Protein.ActiveResidues>
 VAL166  LYS551  ARG553  GLY616  TRP617  ASP618  TYR619  PRO620  LYS621  CYS622 
 ASP623  PHE694  ASN695  SER759  ASP760  ASP761  ALA762  ILE779  LEU786  VAL792 
 PHE793  MET794  SER795  GLU796  ALA797  LYS798  CYS799  TRP800  GLU811  SER814 

> <Gold.Protein.RotatedAtoms>
  150.6911  134.2069  159.4343 H   0  0  0  0  0  0  0  0  0  0  0  0  # atno 6907 bound_to 6896
  152.0032  134.9914  160.0575 H   0  0  0  0  0  0  0  0  0  0  0  0  # atno 6908 bound_to 6896
  152.1559  133.4516  159.4873 H   0  0  0  0  0  0  0  0  0  0  0  0  # atno 6909 bound_to 6896
  145.1764  140.8950  143.3505 H   0  0  0  0  0  0  0  0  0  0  0  0  # atno 7974 bound_to 7965
  155.2940  140.0449  157.3025 H   0  0  0  0  0  0  0  0  0  0  0  0  # atno 8008 bound_to 7997
  154.5525  140.2321  155.8430 H   0  0  0  0  0  0  0  0  0  0  0  0  # atno 8009 bound_to 7997
  156.1979  140.3033  155.9472 H   0  0  0  0  0  0  0  0  0  0  0  0  # atno 8010 bound_to 7997
  139.4972  144.6047  151.6404 H   0  0  0  0  0  0  0  0  0  0  0  0  # atno 10167 bound_to 10162
  157.0001  131.0173  151.2833 H   0  0  0  0  0  0  0  0  0  0  0  0  # atno 10718 bound_to 10713
  154.0617  135.2873  155.3323 H   0  0  0  0  0  0  0  0  0  0  0  0  # atno 10763 bound_to 10752
  154.6804  135.5265  153.8259 H   0  0  0  0  0  0  0  0  0  0  0  0  # atno 10764 bound_to 10752
  153.0520  135.6580  154.0805 H   0  0  0  0  0  0  0  0  0  0  0  0  # atno 10765 bound_to 10752
  141.1589  133.6813  156.6883 H   0  0  0  0  0  0  0  0  0  0  0  0  # atno 11005 bound_to 11000
  145.0180  139.3449  143.6086 LP  0  0  0  0  0  0  0  0  0  0  0  0  # atno 17320 bound_to 7965
  146.3460  139.9469  142.8734 LP  0  0  0  0  0  0  0  0  0  0  0  0  # atno 17321 bound_to 7965
  140.5706  144.0116  150.6215 LP  0  0  0  0  0  0  0  0  0  0  0  0  # atno 17342 bound_to 10162
  140.3232  143.3124  152.0763 LP  0  0  0  0  0  0  0  0  0  0  0  0  # atno 17343 bound_to 10162
  157.5397  130.8111  149.8013 LP  0  0  0  0  0  0  0  0  0  0  0  0  # atno 17370 bound_to 10713
  156.0174  130.3808  150.2067 LP  0  0  0  0  0  0  0  0  0  0  0  0  # atno 17371 bound_to 10713
  140.3050  134.8133  157.4129 LP  0  0  0  0  0  0  0  0  0  0  0  0  # atno 17394 bound_to 11000
  140.1229  134.5196  155.8169 LP  0  0  0  0  0  0  0  0  0  0  0  0  # atno 17395 bound_to 11000

$$$$
