AV-unprocessed.smi:1046|AV-procd|sdf|4556|dock1
  -GOLD-   22720 2593D 1   1.00000     0.00000
 Structure written by MMmdl.
 54 56  0  0  0  0  0  0  0  0  3 V2000
  153.2959  142.4684  161.7786 C   0  0  0  0  0  0  0  0  0  0  0  0
  152.7308  142.2817  160.3816 C   0  0  0  0  0  0  0  0  0  0  0  0
  153.0383  141.1010  159.6687 C   0  0  0  0  0  0  0  0  0  0  0  0
  152.5312  140.8873  158.3685 C   0  0  0  0  0  0  0  0  0  0  0  0
  152.6942  139.8184  157.5042 N   0  0  0  0  0  0  0  0  0  0  0  0
  151.9747  140.2077  156.4562 C   0  0  0  0  0  0  0  0  0  0  0  0
  151.3545  141.4001  156.5431 N   0  0  0  0  0  0  0  0  0  0  0  0
  150.5094  142.0180  155.5378 C   0  0  0  0  0  0  0  0  0  0  0  0
  149.5058  141.0248  154.9192 C   0  0  2  0  0  0  0  0  0  0  0  0
  149.0929  141.5482  153.6733 O   0  0  0  0  0  0  0  0  0  0  0  0
  148.2571  140.7804  155.7957 C   0  0  0  0  0  0  0  0  0  0  0  0
  147.3855  141.9792  155.9006 N   0  3  2  0  0  0  0  0  0  0  0  0
  146.7659  142.1061  157.2434 C   0  0  0  0  0  0  0  0  0  0  0  0
  145.9457  143.4047  157.3571 C   0  0  0  0  0  0  0  0  0  0  0  0
  144.9108  143.4966  156.2975 N   0  3  2  0  0  0  0  0  0  0  0  0
  143.7238  142.6351  156.5487 C   0  0  0  0  0  0  0  0  0  0  0  0
  142.7507  142.6140  155.3577 C   0  0  0  0  0  0  0  0  0  0  0  0
  142.4882  141.2811  154.9737 O   0  0  0  0  0  0  0  0  0  0  0  0
  145.5156  143.3469  154.9479 C   0  0  0  0  0  0  0  0  0  0  0  0
  146.3628  142.0630  154.8246 C   0  0  0  0  0  0  0  0  0  0  0  0
  151.7018  141.8955  157.7959 C   0  0  0  0  0  0  0  0  0  0  0  0
  151.3918  143.0764  158.4936 C   0  0  0  0  0  0  0  0  0  0  0  0
  151.9063  143.2734  159.7921 C   0  0  0  0  0  0  0  0  0  0  0  0
  151.5649  144.5507  160.5389 C   0  0  0  0  0  0  0  0  0  0  0  0
  153.8708  141.5980  162.0958 H   0  0  0  0  0  0  0  0  0  0  0  0
  152.4924  142.6181  162.4999 H   0  0  0  0  0  0  0  0  0  0  0  0
  153.9559  143.3355  161.8101 H   0  0  0  0  0  0  0  0  0  0  0  0
  153.6682  140.3468  160.1171 H   0  0  0  0  0  0  0  0  0  0  0  0
  151.8868  139.5866  155.5766 H   0  0  0  0  0  0  0  0  0  0  0  0
  149.9861  142.8595  155.9938 H   0  0  0  0  0  0  0  0  0  0  0  0
  151.1538  142.4364  154.7630 H   0  0  0  0  0  0  0  0  0  0  0  0
  150.0268  140.0865  154.7309 H   0  0  0  0  0  0  0  0  0  0  0  0
  149.4014  140.9768  152.9859 H   0  0  0  0  0  0  0  0  0  0  0  0
  147.6609  139.9525  155.4109 H   0  0  0  0  0  0  0  0  0  0  0  0
  148.5897  140.4768  156.7897 H   0  0  0  0  0  0  0  0  0  0  0  0
  146.1350  141.2378  157.4395 H   0  0  0  0  0  0  0  0  0  0  0  0
  147.5448  142.1091  158.0070 H   0  0  0  0  0  0  0  0  0  0  0  0
  145.4899  143.4876  158.3444 H   0  0  0  0  0  0  0  0  0  0  0  0
  146.6126  144.2624  157.2598 H   0  0  0  0  0  0  0  0  0  0  0  0
  144.0375  141.6204  156.7934 H   0  0  0  0  0  0  0  0  0  0  0  0
  143.1821  142.9993  157.4230 H   0  0  0  0  0  0  0  0  0  0  0  0
  141.8143  143.1244  155.5797 H   0  0  0  0  0  0  0  0  0  0  0  0
  143.1976  143.1317  154.5085 H   0  0  0  0  0  0  0  0  0  0  0  0
  143.0977  141.0363  154.2929 H   0  0  0  0  0  0  0  0  0  0  0  0
  144.7512  143.3732  154.1722 H   0  0  0  0  0  0  0  0  0  0  0  0
  146.1534  144.2134  154.7679 H   0  0  0  0  0  0  0  0  0  0  0  0
  146.8439  142.0555  153.8472 H   0  0  0  0  0  0  0  0  0  0  0  0
  145.7234  141.1802  154.8594 H   0  0  0  0  0  0  0  0  0  0  0  0
  150.7630  143.8247  158.0345 H   0  0  0  0  0  0  0  0  0  0  0  0
  150.9598  145.2203  159.9270 H   0  0  0  0  0  0  0  0  0  0  0  0
  152.4730  145.0847  160.8198 H   0  0  0  0  0  0  0  0  0  0  0  0
  151.0026  144.3233  161.4447 H   0  0  0  0  0  0  0  0  0  0  0  0
  147.9952  142.7782  155.7940 H   0  0  0  0  0  0  0  0  0  0  0  0
  144.5518  144.4405  156.3486 H   0  0  0  0  0  0  0  0  0  0  0  0
  1  2  1  0  0  0  0
  1 25  1  0  0  0  0
  1 26  1  0  0  0  0
  1 27  1  0  0  0  0
  2 23  1  0  0  0  0
  2  3  2  0  0  0  0
  3  4  1  0  0  0  0
  3 28  1  0  0  0  0
  4 21  2  0  0  0  0
  4  5  1  0  0  0  0
  5  6  2  0  0  0  0
  6  7  1  0  0  0  0
  6 29  1  0  0  0  0
  7  8  1  0  0  0  0
  7 21  1  0  0  0  0
  8  9  1  0  0  0  0
  8 30  1  0  0  0  0
  8 31  1  0  0  0  0
  9 10  1  0  0  0  0
  9 11  1  0  0  0  0
  9 32  1  0  0  0  0
 10 33  1  0  0  0  0
 11 12  1  0  0  0  0
 11 34  1  0  0  0  0
 11 35  1  0  0  0  0
 12 20  1  0  0  0  0
 12 13  1  0  0  0  0
 12 53  1  0  0  0  0
 13 14  1  0  0  0  0
 13 36  1  0  0  0  0
 13 37  1  0  0  0  0
 14 15  1  0  0  0  0
 14 38  1  0  0  0  0
 14 39  1  0  0  0  0
 15 16  1  0  0  0  0
 15 19  1  0  0  0  0
 15 54  1  0  0  0  0
 16 17  1  0  0  0  0
 16 40  1  0  0  0  0
 16 41  1  0  0  0  0
 17 18  1  0  0  0  0
 17 42  1  0  0  0  0
 17 43  1  0  0  0  0
 18 44  1  0  0  0  0
 19 20  1  0  0  0  0
 19 45  1  0  0  0  0
 19 46  1  0  0  0  0
 20 47  1  0  0  0  0
 20 48  1  0  0  0  0
 21 22  1  0  0  0  0
 22 23  2  0  0  0  0
 22 49  1  0  0  0  0
 23 24  1  0  0  0  0
 24 50  1  0  0  0  0
 24 51  1  0  0  0  0
 24 52  1  0  0  0  0
M  CHG  1  12   1
M  CHG  1  15   1
M  END
> <s_m_source_file>
AV-unprocessed.smi

> <i_m_source_file_index>
1046

> <i_lp_mmshare_version>
43012

> <i_f3d_flags>
0

> <s_epik_input>
W0NIM11jKFtjSF0xKWMoW0NIM10pW2NIXWMoYzEyKW4oW2NIXW4yKVtDSDJdW0NASF0oW09IXSlbQ0gyXU4zW0NIMl1bQ0gyXU4oW0NIMl1bQ0gyXTMpW0NIMl1bQ0gyXVtPSF0=

> <s_epik_cmdline>
J2VwaWtfcHl0aG9uJywgJy1waCcsICc3LjAnLCAnLXRuJywgJzgnLCAnLW1hJywgJzIwMCcsICctbWV0YWxfYmluZGluZycsICctaW1hZScsICc8aW5maWxlLm1hZT4nLCAnLW9tYWUnLCAnPG91dGZpbGUubWFlPic=

> <r_epik_Ionization_Penalty>
3.17398

> <r_epik_Ionization_Penalty_Charging>
3.09061

> <r_epik_Ionization_Penalty_Neutral>
0.0833726

> <r_epik_State_Penalty>
2.17606

> <r_epik_Charging_Adjusted_Penalty>
5.26667

> <i_epik_Tot_Q>
2

> <i_epik_Tot_abs_Q>
2

> <r_epik_Metal_State_Penalty>
2.08587

> <b_epik_Metal_Only>
0

> <s_lp_Force_Field>
OPLS_2005

> <r_lp_Energy>
31.2877

> <b_lp_Chiralities_Consistent>
1

> <s_lp_Variant>
AV-unprocessed.smi:1046-9

> <Gold.Version>
5.8.1

> <Gold.Id.Protein>
6NUR|6NUR_protein|mol2

> <Gold.PLP.Fitness>
55.5802

> <Gold.PLP.PLP>
-43.1899

> <Gold.PLP.part.hbond>
-6.8090

> <Gold.PLP.part.metal>
0.0000

> <Gold.PLP.part.buried>
-2.0576

> <Gold.PLP.part.nonpolar>
-31.8055

> <Gold.PLP.part.repulsive>
0.0262

> <Gold.PLP.ligand.clash>
0.0000

> <Gold.PLP.ligand.torsion>
1.2842

> <Gold.PLP.Chemscore.Hbond>
4.8925

> <Gold.PLP.Chemscore.CHOScore>
0.0000

> <Gold.PLP.Chemscore.Metal>
0.0000

> <Gold.Chemscore.Hbonds>
donor molecule, donor type, donor heavy atom, donor atom, acceptor molecule, acceptor atom, score
      L1  H    10    33       P1  7957  0.94
      L1  H    12    53       P1  8028  1.56
      L1  H    18    44       P1 10175  1.00
      P1  H  7997  8009       L1     5  0.95

> <Gold.PLP.Chemscore.Internal.Correction>
0.2813

> <Gold.Rescore>
     Score         DG    S(hbond)    S(metal)    S(lipo)     H(rot)  DE(clash)    DE(int)     intcor
     14.91     -20.22       2.82        0.00     117.36       3.28       2.96       2.35       ----

> <Gold.Chemscore.Fitness>
14.9112

> <Gold.Chemscore.DG>
-20.2206

> <Gold.Chemscore.ZeroCoef>
-5.4800

> <Gold.Chemscore.Hbond>
2.8183

> <Gold.Chemscore.Metal>
0.0000

> <Gold.Chemscore.Lipo>
117.3611

> <Gold.Chemscore.Internal_Hbond>
0.0000

> <Gold.Chemscore.DEClash>
2.9624

> <Gold.Chemscore.DEInternal>
2.3470

> <Gold.Chemscore.Rot>
3.2828

> <Gold.Chemscore.Internal.Correction>
   9.000000E+99

> <Gold.Chemscore.Hbonds>
donor molecule, donor type, donor heavy atom, donor atom, acceptor molecule, acceptor atom, score
      L1  H    10    33       P1  7957  0.90
      L1  H    12    53       P1  8028  0.60
      L1  H    18    44       P1 10175  0.49
      P1  H  7997  8009       L1     5  0.10

> <Gold.Chemscore.Hbond.Weighted>
-9.4133

> <Gold.Chemscore.Metal.Weighted>
-0.0000

> <Gold.Chemscore.Lipo.Weighted>
-13.7312

> <Gold.Chemscore.Internal_Hbond.Weighted>
0.0000

> <Gold.Chemscore.DEClash.Weighted>
2.9624

> <Gold.Chemscore.DEInternal.Weighted>
2.3470

> <Gold.Chemscore.Rot.Weighted>
8.4039

> <Gold.Chemscore.Internal.Correction.Weighted>
   9.000000E+99

> <Gold.Protein.RotatedTorsions>
[ 6907 6896 6895 6894 ] final  179.71 input  -60.11 | X-H torsion
[ 7974 7965 7964 7962 ] final  105.08 input  175.53 | X-H torsion
[ 8008 7997 7996 7995 ] final  170.90 input   59.86 | X-H torsion
[ 10167 10162 10161 10158 ] final   46.81 input  -65.29 | X-H torsion
[ 10718 10713 10712 10709 ] final   75.78 input   66.30 | X-H torsion
[ 10763 10752 10751 10750 ] final   43.06 input  -60.55 | X-H torsion
[ 11005 11000 10999 10996 ] final  -82.27 input  -57.11 | X-H torsion

> <Gold.Protein.ActiveResidues>
 VAL166  LYS551  ARG553  GLY616  TRP617  ASP618  TYR619  PRO620  LYS621  CYS622 
 ASP623  PHE694  ASN695  SER759  ASP760  ASP761  ALA762  ILE779  LEU786  VAL792 
 PHE793  MET794  SER795  GLU796  ALA797  LYS798  CYS799  TRP800  GLU811  SER814 

> <Gold.Protein.RotatedAtoms>
  151.6673  133.3315  159.3187 H   0  0  0  0  0  0  0  0  0  0  0  0  # atno 6907 bound_to 6896
  150.7885  134.6893  159.6497 H   0  0  0  0  0  0  0  0  0  0  0  0  # atno 6908 bound_to 6896
  152.3959  134.6369  160.0141 H   0  0  0  0  0  0  0  0  0  0  0  0  # atno 6909 bound_to 6896
  145.3243  139.2504  143.3695 H   0  0  0  0  0  0  0  0  0  0  0  0  # atno 7974 bound_to 7965
  156.1322  140.1526  156.9048 H   0  0  0  0  0  0  0  0  0  0  0  0  # atno 8008 bound_to 7997
  154.4918  140.0849  156.7650 H   0  0  0  0  0  0  0  0  0  0  0  0  # atno 8009 bound_to 7997
  155.4235  140.3424  155.4276 H   0  0  0  0  0  0  0  0  0  0  0  0  # atno 8010 bound_to 7997
  140.3101  144.2831  150.6201 H   0  0  0  0  0  0  0  0  0  0  0  0  # atno 10167 bound_to 10162
  157.6647  130.9742  150.1402 H   0  0  0  0  0  0  0  0  0  0  0  0  # atno 10718 bound_to 10713
  152.9869  135.6113  154.3050 H   0  0  0  0  0  0  0  0  0  0  0  0  # atno 10763 bound_to 10752
  154.2768  135.2778  155.2716 H   0  0  0  0  0  0  0  0  0  0  0  0  # atno 10764 bound_to 10752
  154.5073  135.5850  153.6634 H   0  0  0  0  0  0  0  0  0  0  0  0  # atno 10765 bound_to 10752
  141.1664  133.7236  156.8546 H   0  0  0  0  0  0  0  0  0  0  0  0  # atno 11005 bound_to 11000
  146.3070  140.3807  142.8683 LP  0  0  0  0  0  0  0  0  0  0  0  0  # atno 17320 bound_to 7965
  144.8914  140.7529  143.5924 LP  0  0  0  0  0  0  0  0  0  0  0  0  # atno 17321 bound_to 7965
  140.5576  143.2197  151.7821 LP  0  0  0  0  0  0  0  0  0  0  0  0  # atno 17342 bound_to 10162
  139.4895  144.4393  151.9783 LP  0  0  0  0  0  0  0  0  0  0  0  0  # atno 17343 bound_to 10162
  156.2226  130.3675  149.8537 LP  0  0  0  0  0  0  0  0  0  0  0  0  # atno 17370 bound_to 10713
  156.6386  130.8695  151.3509 LP  0  0  0  0  0  0  0  0  0  0  0  0  # atno 17371 bound_to 10713
  140.1891  134.8978  157.3040 LP  0  0  0  0  0  0  0  0  0  0  0  0  # atno 17394 bound_to 11000
  140.2310  134.3910  155.7522 LP  0  0  0  0  0  0  0  0  0  0  0  0  # atno 17395 bound_to 11000

$$$$
