AV-unprocessed.smi:2061|AV-procd|sdf|8378|dock8
  -GOLD-   2272011 53D 1   1.00000     0.00000
 Structure written by MMmdl.
 44 45  0  0  0  0  0  0  0  0  2 V2000
  146.3799  132.8102  162.1423 C   0  0  0  0  0  0  0  0  0  0  0  0
  146.7477  134.1940  161.7283 C   0  0  0  0  0  0  0  0  0  0  0  0
  147.7414  134.6920  160.9343 C   0  0  0  0  0  0  0  0  0  0  0  0
  147.5077  136.0943  160.9620 C   0  0  0  0  0  0  0  0  0  0  0  0
  148.2393  137.0298  160.3372 N   0  5  0  0  0  0  0  0  0  0  0  0
  149.1444  136.6733  159.3967 C   0  0  0  0  0  0  0  0  0  0  0  0
  149.1673  135.6124  158.7683 O   0  0  0  0  0  0  0  0  0  0  0  0
  150.0847  137.6031  159.1739 N   0  0  0  0  0  0  0  0  0  0  0  0
  151.1973  137.4890  158.2334 C   0  0  0  0  0  0  0  0  0  0  0  0
  152.1230  138.7409  158.2130 C   0  0  2  0  0  0  0  0  0  0  0  0
  153.0215  138.7173  159.4764 C   0  0  0  0  0  0  0  0  0  0  0  0
  151.3845  140.0171  158.0594 N   0  0  0  0  0  0  0  0  0  0  0  0
  152.2412  141.1879  158.2694 C   0  0  0  0  0  0  0  0  0  0  0  0
  151.4828  142.5199  158.1295 C   0  0  1  0  0  0  0  0  0  0  0  0
  152.4140  143.7290  158.2689 C   0  0  0  0  0  0  0  0  0  0  0  0
  150.8664  142.5855  156.8482 O   0  0  0  0  0  0  0  0  0  0  0  0
  150.0101  141.4874  156.5426 C   0  0  2  0  0  0  0  0  0  0  0  0
  148.6801  141.5645  157.3122 C   0  0  0  0  0  0  0  0  0  0  0  0
  150.7543  140.1516  156.7409 C   0  0  0  0  0  0  0  0  0  0  0  0
  146.4741  136.4193  161.7203 N   0  0  0  0  0  0  0  0  0  0  0  0
  145.9779  135.2059  162.2112 O   0  0  0  0  0  0  0  0  0  0  0  0
  147.0749  132.4365  162.8943 H   0  0  0  0  0  0  0  0  0  0  0  0
  146.4065  132.1319  161.2894 H   0  0  0  0  0  0  0  0  0  0  0  0
  145.3754  132.7805  162.5650 H   0  0  0  0  0  0  0  0  0  0  0  0
  148.5111  134.1427  160.4135 H   0  0  0  0  0  0  0  0  0  0  0  0
  150.0269  138.4568  159.7092 H   0  0  0  0  0  0  0  0  0  0  0  0
  151.7370  136.5819  158.5007 H   0  0  0  0  0  0  0  0  0  0  0  0
  150.7828  137.3183  157.2395 H   0  0  0  0  0  0  0  0  0  0  0  0
  152.7854  138.6352  157.3523 H   0  0  0  0  0  0  0  0  0  0  0  0
  153.5190  137.7583  159.6163 H   0  0  0  0  0  0  0  0  0  0  0  0
  152.4404  138.9183  160.3770 H   0  0  0  0  0  0  0  0  0  0  0  0
  153.8287  139.4461  159.4247 H   0  0  0  0  0  0  0  0  0  0  0  0
  152.6703  141.1741  159.2691 H   0  0  0  0  0  0  0  0  0  0  0  0
  153.0755  141.1639  157.5665 H   0  0  0  0  0  0  0  0  0  0  0  0
  150.7192  142.5868  158.9050 H   0  0  0  0  0  0  0  0  0  0  0  0
  152.9045  143.7374  159.2426 H   0  0  0  0  0  0  0  0  0  0  0  0
  151.8582  144.6616  158.1693 H   0  0  0  0  0  0  0  0  0  0  0  0
  153.1900  143.7203  157.5029 H   0  0  0  0  0  0  0  0  0  0  0  0
  149.7669  141.5781  155.4836 H   0  0  0  0  0  0  0  0  0  0  0  0
  147.9933  140.7871  156.9768 H   0  0  0  0  0  0  0  0  0  0  0  0
  148.1934  142.5268  157.1516 H   0  0  0  0  0  0  0  0  0  0  0  0
  148.8183  141.4332  158.3851 H   0  0  0  0  0  0  0  0  0  0  0  0
  151.5157  140.0523  155.9657 H   0  0  0  0  0  0  0  0  0  0  0  0
  150.0312  139.3569  156.5707 H   0  0  0  0  0  0  0  0  0  0  0  0
  1  2  1  0  0  0  0
  1 22  1  0  0  0  0
  1 23  1  0  0  0  0
  1 24  1  0  0  0  0
  2 21  1  0  0  0  0
  2  3  2  0  0  0  0
  3  4  1  0  0  0  0
  3 25  1  0  0  0  0
  4  5  1  0  0  0  0
  4 20  2  0  0  0  0
  5  6  1  0  0  0  0
  6  7  2  0  0  0  0
  6  8  1  0  0  0  0
  8  9  1  0  0  0  0
  8 26  1  0  0  0  0
  9 10  1  0  0  0  0
  9 27  1  0  0  0  0
  9 28  1  0  0  0  0
 10 11  1  0  0  0  0
 10 12  1  0  0  0  0
 10 29  1  0  0  0  0
 11 30  1  0  0  0  0
 11 31  1  0  0  0  0
 11 32  1  0  0  0  0
 12 19  1  0  0  0  0
 12 13  1  0  0  0  0
 13 14  1  0  0  0  0
 13 33  1  0  0  0  0
 13 34  1  0  0  0  0
 14 15  1  0  0  0  0
 14 16  1  0  0  0  0
 14 35  1  0  0  0  0
 15 36  1  0  0  0  0
 15 37  1  0  0  0  0
 15 38  1  0  0  0  0
 16 17  1  0  0  0  0
 17 18  1  0  0  0  0
 17 19  1  0  0  0  0
 17 39  1  0  0  0  0
 18 40  1  0  0  0  0
 18 41  1  0  0  0  0
 18 42  1  0  0  0  0
 19 43  1  0  0  0  0
 19 44  1  0  0  0  0
 20 21  1  0  0  0  0
M  CHG  1   5  -1
M  END
> <s_m_source_file>
AV-unprocessed.smi

> <i_m_source_file_index>
2061

> <i_lp_mmshare_version>
43012

> <i_f3d_flags>
0

> <s_epik_input>
W0NIM11jMVtjSF1jKG5vMSlbTkhdQyg9TylbTkhdW0NIMl1bQ0BIXShbQ0gzXSlOMltDSDJdW0NAQEhdKFtDSDNdKU9bQ0BASF0oW0NIM10pW0NIMl0y

> <s_epik_cmdline>
J2VwaWtfcHl0aG9uJywgJy1waCcsICc3LjAnLCAnLXRuJywgJzgnLCAnLW1hJywgJzIwMCcsICctbWV0YWxfYmluZGluZycsICctaW1hZScsICc8aW5maWxlLm1hZT4nLCAnLW9tYWUnLCAnPG91dGZpbGUubWFlPic=

> <r_epik_Ionization_Penalty>
6.88367

> <r_epik_Ionization_Penalty_Charging>
6.57198

> <r_epik_Ionization_Penalty_Neutral>
0.311681

> <r_epik_State_Penalty>
6.77619

> <r_epik_Charging_Adjusted_Penalty>
13.3482

> <i_epik_Tot_Q>
-1

> <i_epik_Tot_abs_Q>
1

> <r_epik_Metal_State_Penalty>
2.70524

> <b_epik_Metal_Only>
1

> <s_lp_Force_Field>
OPLS_2005

> <r_lp_Energy>
23.679

> <b_lp_Chiralities_Consistent>
1

> <s_lp_Variant>
AV-unprocessed.smi:2061-19

> <Gold.Version>
5.8.1

> <Gold.Id.Protein>
6NUR|6NUR_protein|mol2

> <Gold.PLP.Fitness>
42.3406

> <Gold.PLP.PLP>
-32.2711

> <Gold.PLP.part.hbond>
-3.0000

> <Gold.PLP.part.metal>
0.0000

> <Gold.PLP.part.buried>
-6.1017

> <Gold.PLP.part.nonpolar>
-25.3518

> <Gold.PLP.part.repulsive>
0.9020

> <Gold.PLP.ligand.clash>
0.0000

> <Gold.PLP.ligand.torsion>
0.3311

> <Gold.PLP.Chemscore.Hbond>
3.5655

> <Gold.PLP.Chemscore.CHOScore>
0.0000

> <Gold.PLP.Chemscore.Metal>
0.0000

> <Gold.Chemscore.Hbonds>
donor molecule, donor type, donor heavy atom, donor atom, acceptor molecule, acceptor atom, score
      P1  H  6896  6907       L1     7  1.00
      P1  H  6931  6943       L1     5  1.15
      P1  H  6934  6947       L1     5  0.38

> <Gold.PLP.Chemscore.Internal.Correction>
0.0352

> <Gold.Rescore>
     Score         DG    S(hbond)    S(metal)    S(lipo)     H(rot)  DE(clash)    DE(int)     intcor
     14.17     -16.09       1.44        0.00      82.79       1.52       0.09       1.84       ----

> <Gold.Chemscore.Fitness>
14.1657

> <Gold.Chemscore.DG>
-16.0931

> <Gold.Chemscore.ZeroCoef>
-5.4800

> <Gold.Chemscore.Hbond>
1.4417

> <Gold.Chemscore.Metal>
0.0000

> <Gold.Chemscore.Lipo>
82.7892

> <Gold.Chemscore.Internal_Hbond>
0.0000

> <Gold.Chemscore.DEClash>
0.0852

> <Gold.Chemscore.DEInternal>
1.8421

> <Gold.Chemscore.Rot>
1.5190

> <Gold.Chemscore.Internal.Correction>
   9.000000E+99

> <Gold.Chemscore.Hbonds>
donor molecule, donor type, donor heavy atom, donor atom, acceptor molecule, acceptor atom, score
      P1  H  6896  6907       L1     7  0.63
      P1  H  6931  6943       L1     5  0.28
      P1  H  6934  6947       L1     5  0.08

> <Gold.Chemscore.Hbond.Weighted>
-4.8154

> <Gold.Chemscore.Metal.Weighted>
-0.0000

> <Gold.Chemscore.Lipo.Weighted>
-9.6863

> <Gold.Chemscore.Internal_Hbond.Weighted>
0.0000

> <Gold.Chemscore.DEClash.Weighted>
0.0852

> <Gold.Chemscore.DEInternal.Weighted>
1.8421

> <Gold.Chemscore.Rot.Weighted>
3.8886

> <Gold.Chemscore.Internal.Correction.Weighted>
   9.000000E+99

> <Gold.Protein.RotatedTorsions>
[ 6907 6896 6895 6894 ] final  -76.39 input  -60.11 | X-H torsion
[ 7974 7965 7964 7962 ] final  -86.10 input  175.53 | X-H torsion
[ 8008 7997 7996 7995 ] final  137.12 input   59.86 | X-H torsion
[ 10167 10162 10161 10158 ] final -166.82 input  -65.29 | X-H torsion
[ 10718 10713 10712 10709 ] final  -74.59 input   66.30 | X-H torsion
[ 10763 10752 10751 10750 ] final  -49.61 input  -60.55 | X-H torsion
[ 11005 11000 10999 10996 ] final -139.61 input  -57.11 | X-H torsion

> <Gold.Protein.ActiveResidues>
 VAL166  LYS551  ARG553  GLY616  TRP617  ASP618  TYR619  PRO620  LYS621  CYS622 
 ASP623  PHE694  ASN695  SER759  ASP760  ASP761  ALA762  ILE779  LEU786  VAL792 
 PHE793  MET794  SER795  GLU796  ALA797  LYS798  CYS799  TRP800  GLU811  SER814 

> <Gold.Protein.RotatedAtoms>
  150.7029  134.4579  159.5366 H   0  0  0  0  0  0  0  0  0  0  0  0  # atno 6907 bound_to 6896
  152.2260  134.8365  160.0489 H   0  0  0  0  0  0  0  0  0  0  0  0  # atno 6908 bound_to 6896
  151.9198  133.3547  159.3930 H   0  0  0  0  0  0  0  0  0  0  0  0  # atno 6909 bound_to 6896
  145.4843  140.9555  143.1847 H   0  0  0  0  0  0  0  0  0  0  0  0  # atno 7974 bound_to 7965
  156.3003  140.2427  156.3857 H   0  0  0  0  0  0  0  0  0  0  0  0  # atno 8008 bound_to 7997
  154.8660  140.0418  157.1715 H   0  0  0  0  0  0  0  0  0  0  0  0  # atno 8009 bound_to 7997
  154.8846  140.2954  155.5409 H   0  0  0  0  0  0  0  0  0  0  0  0  # atno 8010 bound_to 7997
  139.6090  144.0854  152.1822 H   0  0  0  0  0  0  0  0  0  0  0  0  # atno 10167 bound_to 10162
  156.0237  130.4420  150.2915 H   0  0  0  0  0  0  0  0  0  0  0  0  # atno 10718 bound_to 10713
  154.0969  135.6569  153.4861 H   0  0  0  0  0  0  0  0  0  0  0  0  # atno 10763 bound_to 10752
  153.0302  135.5216  154.7325 H   0  0  0  0  0  0  0  0  0  0  0  0  # atno 10764 bound_to 10752
  154.6465  135.2995  155.0008 H   0  0  0  0  0  0  0  0  0  0  0  0  # atno 10765 bound_to 10752
  140.8503  134.2294  157.4764 H   0  0  0  0  0  0  0  0  0  0  0  0  # atno 11005 bound_to 11000
  144.7870  139.6406  143.7129 LP  0  0  0  0  0  0  0  0  0  0  0  0  # atno 17320 bound_to 7965
  146.2322  139.5836  142.9547 LP  0  0  0  0  0  0  0  0  0  0  0  0  # atno 17321 bound_to 7965
  140.0468  144.5964  150.7367 LP  0  0  0  0  0  0  0  0  0  0  0  0  # atno 17342 bound_to 10162
  140.7305  143.2684  151.3968 LP  0  0  0  0  0  0  0  0  0  0  0  0  # atno 17343 bound_to 10162
  157.1018  131.0198  151.3082 LP  0  0  0  0  0  0  0  0  0  0  0  0  # atno 17370 bound_to 10713
  157.4774  130.7744  149.7381 LP  0  0  0  0  0  0  0  0  0  0  0  0  # atno 17371 bound_to 10713
  139.8704  134.9680  156.4615 LP  0  0  0  0  0  0  0  0  0  0  0  0  # atno 17394 bound_to 11000
  140.8798  133.7926  155.9454 LP  0  0  0  0  0  0  0  0  0  0  0  0  # atno 17395 bound_to 11000

$$$$
