AV-unprocessed.smi:950|AV-procd|sdf|4250|dock3
  -GOLD-   22720 2153D 1   1.00000     0.00000
 Structure written by MMmdl.
 34 35  0  0  0  0  0  0  0  0  1 V2000
  151.8721  144.3840  157.5823 C   0  0  0  0  0  0  0  0  0  0  0  0
  152.2447  144.9646  158.9506 C   0  0  0  0  0  0  0  0  0  0  0  0
  152.6971  143.9168  159.9109 C   0  0  0  0  0  0  0  0  0  0  0  0
  153.4368  142.8641  159.5548 N   0  0  0  0  0  0  0  0  0  0  0  0
  153.6904  141.9946  160.6211 C   0  0  0  0  0  0  0  0  0  0  0  0
  154.4998  140.7478  160.4022 C   0  0  0  0  0  0  0  0  0  0  0  0
  153.6853  139.4446  160.5386 C   0  0  0  0  0  0  0  0  0  0  0  0
  152.7312  139.2496  159.4512 N   0  0  0  0  0  0  0  0  0  0  0  0
  153.0445  138.8322  158.2162 C   0  0  0  0  0  0  0  0  0  0  0  0
  154.1860  138.5127  157.8817 O   0  0  0  0  0  0  0  0  0  0  0  0
  151.8841  138.7779  157.2145 C   0  0  0  0  0  0  0  0  0  0  0  0
  152.2860  138.4872  155.7567 C   0  0  0  0  0  0  0  0  0  0  0  0
  151.3375  139.6065  155.3169 C   0  0  0  0  0  0  0  0  0  0  0  0
  151.4041  140.1609  156.7428 C   0  0  0  0  0  0  0  0  0  0  0  0
  153.1236  142.4098  161.8005 C   0  0  0  0  0  0  0  0  0  0  0  0
  152.2450  143.9024  161.6111 S   0  0  0  0  0  0  0  0  0  0  0  0
  151.5543  145.1718  156.8994 H   0  0  0  0  0  0  0  0  0  0  0  0
  151.0546  143.6676  157.6692 H   0  0  0  0  0  0  0  0  0  0  0  0
  152.7201  143.8706  157.1283 H   0  0  0  0  0  0  0  0  0  0  0  0
  153.0369  145.7055  158.8375 H   0  0  0  0  0  0  0  0  0  0  0  0
  151.3886  145.4859  159.3797 H   0  0  0  0  0  0  0  0  0  0  0  0
  154.9627  140.7803  159.4151 H   0  0  0  0  0  0  0  0  0  0  0  0
  155.3301  140.7183  161.1084 H   0  0  0  0  0  0  0  0  0  0  0  0
  154.3539  138.5852  160.6070 H   0  0  0  0  0  0  0  0  0  0  0  0
  153.1189  139.4684  161.4698 H   0  0  0  0  0  0  0  0  0  0  0  0
  151.7689  139.4901  159.6401 H   0  0  0  0  0  0  0  0  0  0  0  0
  151.0557  138.1473  157.5429 H   0  0  0  0  0  0  0  0  0  0  0  0
  153.3289  138.7048  155.5199 H   0  0  0  0  0  0  0  0  0  0  0  0
  151.9976  137.4982  155.3999 H   0  0  0  0  0  0  0  0  0  0  0  0
  151.7400  140.2706  154.5514 H   0  0  0  0  0  0  0  0  0  0  0  0
  150.3446  139.2386  155.0542 H   0  0  0  0  0  0  0  0  0  0  0  0
  150.4378  140.4640  157.1462 H   0  0  0  0  0  0  0  0  0  0  0  0
  152.1476  140.9526  156.8543 H   0  0  0  0  0  0  0  0  0  0  0  0
  153.1632  141.9260  162.7651 H   0  0  0  0  0  0  0  0  0  0  0  0
  1  2  1  0  0  0  0
  1 17  1  0  0  0  0
  1 18  1  0  0  0  0
  1 19  1  0  0  0  0
  2  3  1  0  0  0  0
  2 20  1  0  0  0  0
  2 21  1  0  0  0  0
  3 16  1  0  0  0  0
  3  4  2  0  0  0  0
  4  5  1  0  0  0  0
  5  6  1  0  0  0  0
  5 15  2  0  0  0  0
  6  7  1  0  0  0  0
  6 22  1  0  0  0  0
  6 23  1  0  0  0  0
  7  8  1  0  0  0  0
  7 24  1  0  0  0  0
  7 25  1  0  0  0  0
  8  9  1  0  0  0  0
  8 26  1  0  0  0  0
  9 10  2  0  0  0  0
  9 11  1  0  0  0  0
 11 14  1  0  0  0  0
 11 12  1  0  0  0  0
 11 27  1  0  0  0  0
 12 13  1  0  0  0  0
 12 28  1  0  0  0  0
 12 29  1  0  0  0  0
 13 14  1  0  0  0  0
 13 30  1  0  0  0  0
 13 31  1  0  0  0  0
 14 32  1  0  0  0  0
 14 33  1  0  0  0  0
 15 16  1  0  0  0  0
 15 34  1  0  0  0  0
M  END
> <s_m_source_file>
AV-unprocessed.smi

> <i_m_source_file_index>
950

> <i_lp_mmshare_version>
43012

> <i_f3d_flags>
0

> <s_epik_input>
W0NIM11bQ0gyXWMxbmMoW2NIXXMxKVtDSDJdW0NIMl1bTkhdQyg9TylbQ0hdMltDSDJdW0NIMl1bQ0gyXTI=

> <s_epik_cmdline>
J2VwaWtfcHl0aG9uJywgJy1waCcsICc3LjAnLCAnLXRuJywgJzgnLCAnLW1hJywgJzIwMCcsICctbWV0YWxfYmluZGluZycsICctaW1hZScsICc8aW5maWxlLm1hZT4nLCAnLW9tYWUnLCAnPG91dGZpbGUubWFlPic=

> <r_epik_Ionization_Penalty>
0.00109666

> <r_epik_Ionization_Penalty_Charging>
0

> <r_epik_Ionization_Penalty_Neutral>
0.00109666

> <r_epik_State_Penalty>
0.000719322

> <r_epik_Charging_Adjusted_Penalty>
0.000719322

> <i_epik_Tot_Q>
0

> <i_epik_Tot_abs_Q>
0

> <r_epik_Metal_State_Penalty>
-0

> <b_epik_Metal_Only>
0

> <s_lp_Force_Field>
OPLS_2005

> <r_lp_Energy>
2.32113

> <b_lp_Chiralities_Consistent>
1

> <s_lp_Variant>
AV-unprocessed.smi:950-1

> <Gold.Version>
5.8.1

> <Gold.Id.Protein>
6NUR|6NUR_protein|mol2

> <Gold.PLP.Fitness>
43.2249

> <Gold.PLP.PLP>
-41.3606

> <Gold.PLP.part.hbond>
-1.0000

> <Gold.PLP.part.metal>
0.0000

> <Gold.PLP.part.buried>
-3.5556

> <Gold.PLP.part.nonpolar>
-36.4357

> <Gold.PLP.part.repulsive>
0.0946

> <Gold.PLP.ligand.clash>
0.0000

> <Gold.PLP.ligand.torsion>
0.6991

> <Gold.PLP.Chemscore.Hbond>
0.9440

> <Gold.PLP.Chemscore.CHOScore>
0.0000

> <Gold.PLP.Chemscore.Metal>
0.0000

> <Gold.Chemscore.Hbonds>
donor molecule, donor type, donor heavy atom, donor atom, acceptor molecule, acceptor atom, score
      P1  H  7997  8009       L1    10  0.94

> <Gold.PLP.Chemscore.Internal.Correction>
0.4305

> <Gold.Rescore>
     Score         DG    S(hbond)    S(metal)    S(lipo)     H(rot)  DE(clash)    DE(int)     intcor
     17.93     -18.61       0.98        0.00     117.38       1.51       0.05       0.63       ----

> <Gold.Chemscore.Fitness>
17.9328

> <Gold.Chemscore.DG>
-18.6092

> <Gold.Chemscore.ZeroCoef>
-5.4800

> <Gold.Chemscore.Hbond>
0.9761

> <Gold.Chemscore.Metal>
0.0000

> <Gold.Chemscore.Lipo>
117.3808

> <Gold.Chemscore.Internal_Hbond>
0.0000

> <Gold.Chemscore.DEClash>
0.0473

> <Gold.Chemscore.DEInternal>
0.6291

> <Gold.Chemscore.Rot>
1.5096

> <Gold.Chemscore.Internal.Correction>
   9.000000E+99

> <Gold.Chemscore.Hbonds>
donor molecule, donor type, donor heavy atom, donor atom, acceptor molecule, acceptor atom, score
      P1  H  7997  8009       L1    10  0.50

> <Gold.Chemscore.Hbond.Weighted>
-3.2602

> <Gold.Chemscore.Metal.Weighted>
-0.0000

> <Gold.Chemscore.Lipo.Weighted>
-13.7336

> <Gold.Chemscore.Internal_Hbond.Weighted>
0.0000

> <Gold.Chemscore.DEClash.Weighted>
0.0473

> <Gold.Chemscore.DEInternal.Weighted>
0.6291

> <Gold.Chemscore.Rot.Weighted>
3.8646

> <Gold.Chemscore.Internal.Correction.Weighted>
   9.000000E+99

> <Gold.Protein.RotatedTorsions>
[ 6907 6896 6895 6894 ] final  -74.72 input  -60.11 | X-H torsion
[ 7974 7965 7964 7962 ] final -121.18 input  175.53 | X-H torsion
[ 8008 7997 7996 7995 ] final  129.85 input   59.86 | X-H torsion
[ 10167 10162 10161 10158 ] final  178.08 input  -65.29 | X-H torsion
[ 10718 10713 10712 10709 ] final  103.58 input   66.30 | X-H torsion
[ 10763 10752 10751 10750 ] final  110.97 input  -60.55 | X-H torsion
[ 11005 11000 10999 10996 ] final   80.25 input  -57.11 | X-H torsion

> <Gold.Protein.ActiveResidues>
 VAL166  LYS551  ARG553  GLY616  TRP617  ASP618  TYR619  PRO620  LYS621  CYS622 
 ASP623  PHE694  ASN695  SER759  ASP760  ASP761  ALA762  ILE779  LEU786  VAL792 
 PHE793  MET794  SER795  GLU796  ALA797  LYS798  CYS799  TRP800  GLU811  SER814 

> <Gold.Protein.RotatedAtoms>
  150.7083  134.4827  159.5477 H   0  0  0  0  0  0  0  0  0  0  0  0  # atno 6907 bound_to 6896
  152.2461  134.8177  160.0462 H   0  0  0  0  0  0  0  0  0  0  0  0  # atno 6908 bound_to 6896
  151.8941  133.3487  159.3845 H   0  0  0  0  0  0  0  0  0  0  0  0  # atno 6909 bound_to 6896
  145.0432  140.8161  143.4254 H   0  0  0  0  0  0  0  0  0  0  0  0  # atno 7974 bound_to 7965
  156.2944  140.2610  156.2665 H   0  0  0  0  0  0  0  0  0  0  0  0  # atno 8008 bound_to 7997
  154.9737  140.0390  157.2264 H   0  0  0  0  0  0  0  0  0  0  0  0  # atno 8009 bound_to 7997
  154.7835  140.2799  155.6050 H   0  0  0  0  0  0  0  0  0  0  0  0  # atno 8010 bound_to 7997
  139.5279  144.2722  152.0618 H   0  0  0  0  0  0  0  0  0  0  0  0  # atno 10167 bound_to 10162
  157.6768  131.0782  150.5576 H   0  0  0  0  0  0  0  0  0  0  0  0  # atno 10718 bound_to 10713
  153.4566  135.3731  155.2314 H   0  0  0  0  0  0  0  0  0  0  0  0  # atno 10763 bound_to 10752
  154.8757  135.3898  154.3974 H   0  0  0  0  0  0  0  0  0  0  0  0  # atno 10764 bound_to 10752
  153.4542  135.7086  153.6154 H   0  0  0  0  0  0  0  0  0  0  0  0  # atno 10765 bound_to 10752
  139.9141  134.7906  156.1885 H   0  0  0  0  0  0  0  0  0  0  0  0  # atno 11005 bound_to 11000
  145.1621  139.2452  143.5386 LP  0  0  0  0  0  0  0  0  0  0  0  0  # atno 17320 bound_to 7965
  146.3511  140.1351  142.8596 LP  0  0  0  0  0  0  0  0  0  0  0  0  # atno 17321 bound_to 7965
  140.2181  144.4494  150.6354 LP  0  0  0  0  0  0  0  0  0  0  0  0  # atno 17342 bound_to 10162
  140.6436  143.2208  151.6235 LP  0  0  0  0  0  0  0  0  0  0  0  0  # atno 17343 bound_to 10162
  156.5880  130.4322  149.5949 LP  0  0  0  0  0  0  0  0  0  0  0  0  # atno 17370 bound_to 10713
  156.2607  130.6960  151.1728 LP  0  0  0  0  0  0  0  0  0  0  0  0  # atno 17371 bound_to 10713
  141.0598  133.6847  156.1931 LP  0  0  0  0  0  0  0  0  0  0  0  0  # atno 17394 bound_to 11000
  140.6678  134.4899  157.5586 LP  0  0  0  0  0  0  0  0  0  0  0  0  # atno 17395 bound_to 11000

$$$$
