AV-unprocessed.smi:1692|AV-procd|sdf|6780|dock2
  -GOLD-   22720 7543D 1   1.00000     0.00000
 Structure written by MMmdl.
 46 47  0  0  0  0  0  0  0  0  2 V2000
  151.3185  135.1115  156.6526 C   0  0  0  0  0  0  0  0  0  0  0  0
  151.0837  136.4567  155.9567 C   0  0  2  0  0  0  0  0  0  0  0  0
  150.1137  136.3316  154.7641 C   0  0  0  0  0  0  0  0  0  0  0  0
  149.9634  137.6255  154.0546 N   0  3  1  0  0  0  0  0  0  0  0  0
  149.0753  138.5892  154.7582 C   0  0  0  0  0  0  0  0  0  0  0  0
  149.2403  140.0274  154.2387 C   0  0  0  0  0  0  0  0  0  0  0  0
  148.2349  140.9966  154.8824 C   0  0  0  0  0  0  0  0  0  0  0  0
  148.8993  141.9711  155.7403 N   0  0  0  0  0  0  0  0  0  0  0  0
  149.9088  141.6938  156.5785 C   0  0  0  0  0  0  0  0  0  0  0  0
  150.3926  140.5683  156.7055 O   0  0  0  0  0  0  0  0  0  0  0  0
  150.3080  142.7932  157.2418 N   0  0  0  0  0  0  0  0  0  0  0  0
  151.3455  142.9094  158.2052 C   0  0  0  0  0  0  0  0  0  0  0  0
  151.7119  141.7000  158.8380 C   0  0  0  0  0  0  0  0  0  0  0  0
  152.7314  141.7073  159.8096 C   0  0  0  0  0  0  0  0  0  0  0  0
  153.3590  142.9256  160.1241 C   0  0  0  0  0  0  0  0  0  0  0  0
  152.9340  144.0843  159.4483 C   0  0  0  0  0  0  0  0  0  0  0  0
  151.9568  144.0797  158.5169 N   0  0  0  0  0  0  0  0  0  0  0  0
  151.2954  138.1639  153.6767 C   0  0  0  0  0  0  0  0  0  0  0  0
  152.2505  138.2252  154.8885 C   0  0  2  0  0  0  0  0  0  0  0  0
  153.6637  138.6588  154.4843 C   0  0  0  0  0  0  0  0  0  0  0  0
  152.3380  136.9337  155.4815 O   0  0  0  0  0  0  0  0  0  0  0  0
  150.3863  134.7053  157.0466 H   0  0  0  0  0  0  0  0  0  0  0  0
  152.0116  135.2206  157.4872 H   0  0  0  0  0  0  0  0  0  0  0  0
  151.7394  134.3779  155.9644 H   0  0  0  0  0  0  0  0  0  0  0  0
  150.6866  137.1578  156.6925 H   0  0  0  0  0  0  0  0  0  0  0  0
  150.5017  135.5984  154.0553 H   0  0  0  0  0  0  0  0  0  0  0  0
  149.1418  135.9570  155.0877 H   0  0  0  0  0  0  0  0  0  0  0  0
  148.0377  138.2944  154.5965 H   0  0  0  0  0  0  0  0  0  0  0  0
  149.2371  138.5515  155.8354 H   0  0  0  0  0  0  0  0  0  0  0  0
  150.2513  140.3829  154.4344 H   0  0  0  0  0  0  0  0  0  0  0  0
  149.1128  140.0398  153.1554 H   0  0  0  0  0  0  0  0  0  0  0  0
  147.6942  141.5412  154.1079 H   0  0  0  0  0  0  0  0  0  0  0  0
  147.4861  140.4468  155.4553 H   0  0  0  0  0  0  0  0  0  0  0  0
  148.5612  142.9215  155.6988 H   0  0  0  0  0  0  0  0  0  0  0  0
  149.8115  143.6472  157.0355 H   0  0  0  0  0  0  0  0  0  0  0  0
  151.2199  140.7724  158.5842 H   0  0  0  0  0  0  0  0  0  0  0  0
  153.0259  140.7935  160.3039 H   0  0  0  0  0  0  0  0  0  0  0  0
  154.1449  142.9712  160.8634 H   0  0  0  0  0  0  0  0  0  0  0  0
  153.3896  145.0399  159.6607 H   0  0  0  0  0  0  0  0  0  0  0  0
  151.7188  137.5033  152.9187 H   0  0  0  0  0  0  0  0  0  0  0  0
  151.2070  139.1418  153.2058 H   0  0  0  0  0  0  0  0  0  0  0  0
  151.8788  138.9346  155.6290 H   0  0  0  0  0  0  0  0  0  0  0  0
  153.6554  139.6513  154.0329 H   0  0  0  0  0  0  0  0  0  0  0  0
  154.0990  137.9662  153.7633 H   0  0  0  0  0  0  0  0  0  0  0  0
  154.3236  138.6946  155.3514 H   0  0  0  0  0  0  0  0  0  0  0  0
  149.4846  137.4109  153.1915 H   0  0  0  0  0  0  0  0  0  0  0  0
  1  2  1  0  0  0  0
  1 22  1  0  0  0  0
  1 23  1  0  0  0  0
  1 24  1  0  0  0  0
  2 21  1  0  0  0  0
  2  3  1  0  0  0  0
  2 25  1  0  0  0  0
  3  4  1  0  0  0  0
  3 26  1  0  0  0  0
  3 27  1  0  0  0  0
  4  5  1  0  0  0  0
  4 18  1  0  0  0  0
  4 46  1  0  0  0  0
  5  6  1  0  0  0  0
  5 28  1  0  0  0  0
  5 29  1  0  0  0  0
  6  7  1  0  0  0  0
  6 30  1  0  0  0  0
  6 31  1  0  0  0  0
  7  8  1  0  0  0  0
  7 32  1  0  0  0  0
  7 33  1  0  0  0  0
  8  9  1  0  0  0  0
  8 34  1  0  0  0  0
  9 10  2  0  0  0  0
  9 11  1  0  0  0  0
 11 12  1  0  0  0  0
 11 35  1  0  0  0  0
 12 17  1  0  0  0  0
 12 13  2  0  0  0  0
 13 14  1  0  0  0  0
 13 36  1  0  0  0  0
 14 15  2  0  0  0  0
 14 37  1  0  0  0  0
 15 16  1  0  0  0  0
 15 38  1  0  0  0  0
 16 17  2  0  0  0  0
 16 39  1  0  0  0  0
 18 19  1  0  0  0  0
 18 40  1  0  0  0  0
 18 41  1  0  0  0  0
 19 20  1  0  0  0  0
 19 21  1  0  0  0  0
 19 42  1  0  0  0  0
 20 43  1  0  0  0  0
 20 44  1  0  0  0  0
 20 45  1  0  0  0  0
M  CHG  1   4   1
M  END
> <s_m_source_file>
AV-unprocessed.smi

> <i_m_source_file_index>
1692

> <i_lp_mmshare_version>
43012

> <i_f3d_flags>
0

> <s_epik_input>
W0NIM11bQ0BASF0xW0NIMl1OKFtDSDJdW0NASF0oTzEpW0NIM10pW0NIMl1bQ0gyXVtDSDJdW05IXUMoPU8pW05IXWMyW2NIXVtjSF1bY0hdW2NIXW4y

> <s_epik_cmdline>
J2VwaWtfcHl0aG9uJywgJy1waCcsICc3LjAnLCAnLXRuJywgJzgnLCAnLW1hJywgJzIwMCcsICctbWV0YWxfYmluZGluZycsICctaW1hZScsICc8aW5maWxlLm1hZT4nLCAnLW9tYWUnLCAnPG91dGZpbGUubWFlPic=

> <r_epik_Ionization_Penalty>
0.270538

> <r_epik_Ionization_Penalty_Charging>
0.270496

> <r_epik_Ionization_Penalty_Neutral>
4.22978e-05

> <r_epik_State_Penalty>
0.262618

> <r_epik_Charging_Adjusted_Penalty>
0.533114

> <i_epik_Tot_Q>
1

> <i_epik_Tot_abs_Q>
1

> <r_epik_Metal_State_Penalty>
0.262618

> <b_epik_Metal_Only>
0

> <s_lp_Force_Field>
OPLS_2005

> <r_lp_Energy>
18.3

> <b_lp_Chiralities_Consistent>
1

> <s_lp_Variant>
AV-unprocessed.smi:1692-3

> <Gold.Version>
5.8.1

> <Gold.Id.Protein>
6NUR|6NUR_protein|mol2

> <Gold.PLP.Fitness>
49.0456

> <Gold.PLP.PLP>
-35.6325

> <Gold.PLP.part.hbond>
-4.0000

> <Gold.PLP.part.metal>
0.0000

> <Gold.PLP.part.buried>
-2.3651

> <Gold.PLP.part.nonpolar>
-30.1803

> <Gold.PLP.part.repulsive>
0.2714

> <Gold.PLP.ligand.clash>
0.0000

> <Gold.PLP.ligand.torsion>
0.7930

> <Gold.PLP.Chemscore.Hbond>
4.9680

> <Gold.PLP.Chemscore.CHOScore>
0.0000

> <Gold.PLP.Chemscore.Metal>
0.0000

> <Gold.Chemscore.Hbonds>
donor molecule, donor type, donor heavy atom, donor atom, acceptor molecule, acceptor atom, score
      L1  H     4    46       P1  7948  2.00
      L1  H     8    34       P1  8028  1.00
      L1  H    11    35       P1  8028  0.94
      P1  H 10752 10763       L1    21  0.83

> <Gold.PLP.Chemscore.Internal.Correction>
0.0951

> <Gold.Rescore>
     Score         DG    S(hbond)    S(metal)    S(lipo)     H(rot)  DE(clash)    DE(int)     intcor
     21.18     -24.78       3.73        0.00      97.34       1.78       0.13       3.47       ----

> <Gold.Chemscore.Fitness>
21.1834

> <Gold.Chemscore.DG>
-24.7791

> <Gold.Chemscore.ZeroCoef>
-5.4800

> <Gold.Chemscore.Hbond>
3.7337

> <Gold.Chemscore.Metal>
0.0000

> <Gold.Chemscore.Lipo>
97.3400

> <Gold.Chemscore.Internal_Hbond>
0.0000

> <Gold.Chemscore.DEClash>
0.1255

> <Gold.Chemscore.DEInternal>
3.4702

> <Gold.Chemscore.Rot>
1.7814

> <Gold.Chemscore.Internal.Correction>
   9.000000E+99

> <Gold.Chemscore.Hbonds>
donor molecule, donor type, donor heavy atom, donor atom, acceptor molecule, acceptor atom, score
      L1  H     4    46       P1  7948  0.85
      L1  H     8    34       P1  8028  0.95
      L1  H    11    35       P1  8028  0.87
      P1  H 10752 10763       L1    21  0.33

> <Gold.Chemscore.Hbond.Weighted>
-12.4706

> <Gold.Chemscore.Metal.Weighted>
-0.0000

> <Gold.Chemscore.Lipo.Weighted>
-11.3888

> <Gold.Chemscore.Internal_Hbond.Weighted>
0.0000

> <Gold.Chemscore.DEClash.Weighted>
0.1255

> <Gold.Chemscore.DEInternal.Weighted>
3.4702

> <Gold.Chemscore.Rot.Weighted>
4.5603

> <Gold.Chemscore.Internal.Correction.Weighted>
   9.000000E+99

> <Gold.Protein.RotatedTorsions>
[ 6907 6896 6895 6894 ] final  168.07 input  -60.11 | X-H torsion
[ 7974 7965 7964 7962 ] final -149.67 input  175.53 | X-H torsion
[ 8008 7997 7996 7995 ] final  -56.37 input   59.86 | X-H torsion
[ 10167 10162 10161 10158 ] final   57.51 input  -65.29 | X-H torsion
[ 10718 10713 10712 10709 ] final  142.56 input   66.30 | X-H torsion
[ 10763 10752 10751 10750 ] final   80.94 input  -60.55 | X-H torsion
[ 11005 11000 10999 10996 ] final   89.65 input  -57.11 | X-H torsion

> <Gold.Protein.ActiveResidues>
 VAL166  LYS551  ARG553  GLY616  TRP617  ASP618  TYR619  PRO620  LYS621  CYS622 
 ASP623  PHE694  ASN695  SER759  ASP760  ASP761  ALA762  ILE779  LEU786  VAL792 
 PHE793  MET794  SER795  GLU796  ALA797  LYS798  CYS799  TRP800  GLU811  SER814 

> <Gold.Protein.RotatedAtoms>
  151.8534  133.3444  159.3680 H   0  0  0  0  0  0  0  0  0  0  0  0  # atno 6907 bound_to 6896
  150.7200  134.5277  159.5694 H   0  0  0  0  0  0  0  0  0  0  0  0  # atno 6908 bound_to 6896
  152.2775  134.7866  160.0454 H   0  0  0  0  0  0  0  0  0  0  0  0  # atno 6909 bound_to 6896
  144.7953  140.5034  143.5744 H   0  0  0  0  0  0  0  0  0  0  0  0  # atno 7974 bound_to 7965
  154.4228  140.1131  156.5627 H   0  0  0  0  0  0  0  0  0  0  0  0  # atno 8008 bound_to 7997
  155.6294  140.3495  155.4659 H   0  0  0  0  0  0  0  0  0  0  0  0  # atno 8009 bound_to 7997
  155.9960  140.1189  157.0583 H   0  0  0  0  0  0  0  0  0  0  0  0  # atno 8010 bound_to 7997
  140.1972  144.4025  150.6545 H   0  0  0  0  0  0  0  0  0  0  0  0  # atno 10167 bound_to 10162
  157.3792  131.0990  151.0755 H   0  0  0  0  0  0  0  0  0  0  0  0  # atno 10718 bound_to 10713
  153.1075  135.4784  154.8977 H   0  0  0  0  0  0  0  0  0  0  0  0  # atno 10763 bound_to 10752
  154.7445  135.3090  154.8671 H   0  0  0  0  0  0  0  0  0  0  0  0  # atno 10764 bound_to 10752
  153.9269  135.6849  153.4800 H   0  0  0  0  0  0  0  0  0  0  0  0  # atno 10765 bound_to 10752
  139.8871  134.8565  156.3172 H   0  0  0  0  0  0  0  0  0  0  0  0  # atno 11005 bound_to 11000
  145.5688  139.1482  143.3300 LP  0  0  0  0  0  0  0  0  0  0  0  0  # atno 17320 bound_to 7965
  146.2220  140.5822  142.9013 LP  0  0  0  0  0  0  0  0  0  0  0  0  # atno 17321 bound_to 7965
  140.6415  143.2204  151.6279 LP  0  0  0  0  0  0  0  0  0  0  0  0  # atno 17342 bound_to 10162
  139.5232  144.3141  152.0967 LP  0  0  0  0  0  0  0  0  0  0  0  0  # atno 17343 bound_to 10162
  157.1830  130.6318  149.5678 LP  0  0  0  0  0  0  0  0  0  0  0  0  # atno 17370 bound_to 10713
  155.9772  130.4747  150.6577 LP  0  0  0  0  0  0  0  0  0  0  0  0  # atno 17371 bound_to 10713
  140.9811  133.7267  156.0673 LP  0  0  0  0  0  0  0  0  0  0  0  0  # atno 17394 bound_to 11000
  140.7748  134.3791  157.5500 LP  0  0  0  0  0  0  0  0  0  0  0  0  # atno 17395 bound_to 11000

$$$$
