AV-unprocessed.smi:72|AV-procd|sdf|730|dock7
  -GOLD-   2262017 63D 1   1.00000     0.00000
 Structure written by MMmdl.
 28 29  0  0  0  0  0  0  0  0  2 V2000
  153.5777  137.4932  155.4774 N   0  0  0  0  0  0  0  0  0  0  0  0
  152.6925  138.3896  155.4195 C   0  0  0  0  0  0  0  0  0  0  0  0
  151.7829  138.4361  154.2955 N   0  0  0  0  0  0  0  0  0  0  0  0
  150.8925  139.3798  154.2773 C   0  0  0  0  0  0  0  0  0  0  0  0
  150.7984  140.3697  155.3414 N   0  0  0  0  0  0  0  0  0  0  0  0
  149.7431  141.4593  155.3034 C   0  0  1  0  0  0  0  0  0  0  0  0
  149.1829  141.5068  154.0240 O   0  0  0  0  0  0  0  0  0  0  0  0
  147.7743  141.6887  154.1228 C   0  0  1  0  0  0  0  0  0  0  0  0
  147.0606  141.2213  152.8420 C   0  0  0  0  0  0  0  0  0  0  0  0
  147.4134  139.8861  152.5481 O   0  0  0  0  0  0  0  0  0  0  0  0
  147.4067  140.9238  155.4014 C   0  0  1  0  0  0  0  0  0  0  0  0
  147.2603  139.5372  155.1409 O   0  0  0  0  0  0  0  0  0  0  0  0
  148.5943  141.2268  156.3092 C   0  0  1  0  0  0  0  0  0  0  0  0
  148.8172  140.2262  157.2884 O   0  0  0  0  0  0  0  0  0  0  0  0
  151.6942  140.2907  156.4414 C   0  0  0  0  0  0  0  0  0  0  0  0
  151.5795  141.1163  157.3475 O   0  0  0  0  0  0  0  0  0  0  0  0
  152.6301  139.3003  156.4513 N   0  5  0  0  0  0  0  0  0  0  0  0
  150.2643  142.4026  155.4711 H   0  0  0  0  0  0  0  0  0  0  0  0
  147.5770  142.7484  154.2970 H   0  0  0  0  0  0  0  0  0  0  0  0
  146.4721  141.2857  155.8309 H   0  0  0  0  0  0  0  0  0  0  0  0
  148.4176  142.1750  156.8186 H   0  0  0  0  0  0  0  0  0  0  0  0
  154.1494  137.5623  156.3066 H   0  0  0  0  0  0  0  0  0  0  0  0
  150.1632  139.4887  153.4739 H   0  0  0  0  0  0  0  0  0  0  0  0
  145.9779  141.3158  152.9333 H   0  0  0  0  0  0  0  0  0  0  0  0
  147.3714  141.8330  151.9947 H   0  0  0  0  0  0  0  0  0  0  0  0
  148.1812  139.8928  151.9972 H   0  0  0  0  0  0  0  0  0  0  0  0
  147.1882  139.0865  155.9687 H   0  0  0  0  0  0  0  0  0  0  0  0
  148.9599  139.4038  156.8444 H   0  0  0  0  0  0  0  0  0  0  0  0
  1  2  2  0  0  0  0
  1 22  1  0  0  0  0
  2 17  1  0  0  0  0
  2  3  1  0  0  0  0
  3  4  2  0  0  0  0
  4  5  1  0  0  0  0
  4 23  1  0  0  0  0
  5  6  1  0  0  0  0
  5 15  1  0  0  0  0
  6 18  1  0  0  0  0
  6 13  1  0  0  0  0
  6  7  1  0  0  0  0
  7  8  1  0  0  0  0
  8 19  1  0  0  0  0
  8  9  1  0  0  0  0
  8 11  1  0  0  0  0
  9 10  1  0  0  0  0
  9 24  1  0  0  0  0
  9 25  1  0  0  0  0
 10 26  1  0  0  0  0
 11 20  1  0  0  0  0
 11 12  1  0  0  0  0
 11 13  1  0  0  0  0
 12 27  1  0  0  0  0
 13 21  1  0  0  0  0
 13 14  1  0  0  0  0
 14 28  1  0  0  0  0
 15 16  2  0  0  0  0
 15 17  1  0  0  0  0
M  CHG  1  17  -1
M  END
> <s_m_source_file>
AV-unprocessed.smi

> <i_m_source_file_index>
72

> <i_lp_mmshare_version>
43012

> <i_f3d_flags>
0

> <s_epik_input>
W05IMl1jMW5bY0hdbihjKD1PKW4xKVtDQEBIXTJPW0NASF0oW0NIMl1bT0hdKVtDQEBIXShbT0hdKVtDQEhdMltPSF0=

> <s_epik_cmdline>
J2VwaWtfcHl0aG9uJywgJy1waCcsICc3LjAnLCAnLXRuJywgJzgnLCAnLW1hJywgJzIwMCcsICctbWV0YWxfYmluZGluZycsICctaW1hZScsICc8aW5maWxlLm1hZT4nLCAnLW9tYWUnLCAnPG91dGZpbGUubWFlPic=

> <r_lp_tautomer_probability>
7.17554e-07

> <r_epik_Ionization_Penalty>
12.8705

> <r_epik_Ionization_Penalty_Charging>
5.64144

> <r_epik_Ionization_Penalty_Neutral>
7.22905

> <r_epik_State_Penalty>
3.30104

> <r_epik_Charging_Adjusted_Penalty>
8.94249

> <i_epik_Tot_Q>
-1

> <i_epik_Tot_abs_Q>
1

> <r_epik_Metal_State_Penalty>
0.529074

> <b_epik_Metal_Only>
1

> <s_epik_Chemistry_Notes>
This compound contains an acetal/aminal-like group ( X-CH(R)-Y where X, Y are N, S, or O) that may be acid/base labile, releasing an aldehyde.

> <s_lp_Force_Field>
OPLS_2005

> <r_lp_Energy>
43.5676

> <b_lp_Chiralities_Consistent>
1

> <s_lp_Variant>
AV-unprocessed.smi:72-68

> <Gold.Version>
5.8.1

> <Gold.Id.Protein>
6NUR|6NUR_protein|mol2

> <Gold.PLP.Fitness>
39.3832

> <Gold.PLP.PLP>
-25.4518

> <Gold.PLP.part.hbond>
-4.9975

> <Gold.PLP.part.metal>
0.0000

> <Gold.PLP.part.buried>
-1.5810

> <Gold.PLP.part.nonpolar>
-17.8674

> <Gold.PLP.part.repulsive>
0.3273

> <Gold.PLP.ligand.clash>
0.0091

> <Gold.PLP.ligand.torsion>
0.3074

> <Gold.PLP.Chemscore.Hbond>
3.9920

> <Gold.PLP.Chemscore.CHOScore>
0.8580

> <Gold.PLP.Chemscore.Metal>
0.0000

> <Gold.Chemscore.Hbonds>
donor molecule, donor type, donor heavy atom, donor atom, acceptor molecule, acceptor atom, score
      L1  H    10    26       P1  7957  1.00
      P1  H  7997  8009       L1    17  2.00
      P1  H  8011  8017       L1     7  0.67
      P1  H 10752 10763       L1     1  0.11
      L1  C     4    23       P1  7957  1.00

> <Gold.PLP.Chemscore.Internal.Correction>
0.0055

> <Gold.Rescore>
     Score         DG    S(hbond)    S(metal)    S(lipo)     H(rot)  DE(clash)    DE(int)     intcor
      2.85      -3.93       1.87        0.00      21.67       4.04       0.49       0.59       ----

> <Gold.Chemscore.Fitness>
2.8483

> <Gold.Chemscore.DG>
-3.9275

> <Gold.Chemscore.ZeroCoef>
-5.4800

> <Gold.Chemscore.Hbond>
1.8728

> <Gold.Chemscore.Metal>
0.0000

> <Gold.Chemscore.Lipo>
21.6701

> <Gold.Chemscore.Internal_Hbond>
0.0000

> <Gold.Chemscore.DEClash>
0.4896

> <Gold.Chemscore.DEInternal>
0.5896

> <Gold.Chemscore.Rot>
4.0403

> <Gold.Chemscore.Internal.Correction>
   9.000000E+99

> <Gold.Chemscore.Hbonds>
donor molecule, donor type, donor heavy atom, donor atom, acceptor molecule, acceptor atom, score
      L1  H    10    26       P1  7957  1.00
      P1  H  7997  8009       L1    17  0.42
      P1  H  8011  8017       L1     7  0.42
      P1  H 10752 10763       L1     1  0.03

> <Gold.Chemscore.Hbond.Weighted>
-6.2552

> <Gold.Chemscore.Metal.Weighted>
-0.0000

> <Gold.Chemscore.Lipo.Weighted>
-2.5354

> <Gold.Chemscore.Internal_Hbond.Weighted>
0.0000

> <Gold.Chemscore.DEClash.Weighted>
0.4896

> <Gold.Chemscore.DEInternal.Weighted>
0.5896

> <Gold.Chemscore.Rot.Weighted>
10.3431

> <Gold.Chemscore.Internal.Correction.Weighted>
   9.000000E+99

> <Gold.Protein.RotatedTorsions>
[ 6907 6896 6895 6894 ] final    5.95 input  -60.11 | X-H torsion
[ 7974 7965 7964 7962 ] final -102.24 input  175.53 | X-H torsion
[ 8008 7997 7996 7995 ] final -179.22 input   59.86 | X-H torsion
[ 10167 10162 10161 10158 ] final  -96.11 input  -65.29 | X-H torsion
[ 10718 10713 10712 10709 ] final -153.75 input   66.30 | X-H torsion
[ 10763 10752 10751 10750 ] final  113.01 input  -60.55 | X-H torsion
[ 11005 11000 10999 10996 ] final  -32.23 input  -57.11 | X-H torsion

> <Gold.Protein.ActiveResidues>
 VAL166  LYS551  ARG553  GLY616  TRP617  ASP618  TYR619  PRO620  LYS621  CYS622 
 ASP623  PHE694  ASN695  SER759  ASP760  ASP761  ALA762  ILE779  LEU786  VAL792 
 PHE793  MET794  SER795  GLU796  ALA797  LYS798  CYS799  TRP800  GLU811  SER814 

> <Gold.Protein.RotatedAtoms>
  151.6659  135.0983  160.0188 H   0  0  0  0  0  0  0  0  0  0  0  0  # atno 6907 bound_to 6896
  152.3920  133.6688  159.6254 H   0  0  0  0  0  0  0  0  0  0  0  0  # atno 6908 bound_to 6896
  150.7834  133.8855  159.3339 H   0  0  0  0  0  0  0  0  0  0  0  0  # atno 6909 bound_to 6896
  145.2713  140.9299  143.2985 H   0  0  0  0  0  0  0  0  0  0  0  0  # atno 7974 bound_to 7965
  156.0280  140.1276  157.0288 H   0  0  0  0  0  0  0  0  0  0  0  0  # atno 8008 bound_to 7997
  154.4338  140.1055  156.6129 H   0  0  0  0  0  0  0  0  0  0  0  0  # atno 8009 bound_to 7997
  155.5848  140.3468  155.4552 H   0  0  0  0  0  0  0  0  0  0  0  0  # atno 8010 bound_to 7997
  140.2972  143.3185  152.0286 H   0  0  0  0  0  0  0  0  0  0  0  0  # atno 10167 bound_to 10162
  156.4901  130.8343  151.2566 H   0  0  0  0  0  0  0  0  0  0  0  0  # atno 10718 bound_to 10713
  153.4862  135.3669  155.2468 H   0  0  0  0  0  0  0  0  0  0  0  0  # atno 10763 bound_to 10752
  154.8753  135.3966  154.3642 H   0  0  0  0  0  0  0  0  0  0  0  0  # atno 10764 bound_to 10752
  153.4254  135.7081  153.6331 H   0  0  0  0  0  0  0  0  0  0  0  0  # atno 10765 bound_to 10752
  140.9535  133.7207  156.1257 H   0  0  0  0  0  0  0  0  0  0  0  0  # atno 11005 bound_to 11000
  144.9333  139.4273  143.6485 LP  0  0  0  0  0  0  0  0  0  0  0  0  # atno 17320 bound_to 7965
  146.3245  139.8255  142.8918 LP  0  0  0  0  0  0  0  0  0  0  0  0  # atno 17321 bound_to 7965
  139.4923  144.6482  151.6732 LP  0  0  0  0  0  0  0  0  0  0  0  0  # atno 17342 bound_to 10162
  140.5682  144.0153  150.6203 LP  0  0  0  0  0  0  0  0  0  0  0  0  # atno 17343 bound_to 10162
  157.7474  131.0016  150.2970 LP  0  0  0  0  0  0  0  0  0  0  0  0  # atno 17370 bound_to 10713
  156.3435  130.3819  149.7389 LP  0  0  0  0  0  0  0  0  0  0  0  0  # atno 17371 bound_to 10713
  140.7569  134.3982  157.5532 LP  0  0  0  0  0  0  0  0  0  0  0  0  # atno 17394 bound_to 11000
  139.8855  134.8936  156.2641 LP  0  0  0  0  0  0  0  0  0  0  0  0  # atno 17395 bound_to 11000

$$$$
