AV-unprocessed.smi:2123|AV-procd|sdf|8648|dock3
  -GOLD-   2272011393D 1   1.00000     0.00000
 Structure written by MMmdl.
 47 48  0  0  0  0  0  0  0  0  1 V2000
  148.4653  132.9277  153.1649 C   0  0  0  0  0  0  0  0  0  0  0  0
  149.7062  132.9523  154.4844 S   0  0  0  0  0  0  0  0  0  0  0  0
  149.8587  134.7469  154.7184 C   0  0  0  0  0  0  0  0  0  0  0  0
  148.5452  135.3912  155.2010 C   0  0  0  0  0  0  0  0  0  0  0  0
  148.5649  136.9241  155.2540 C   0  0  0  0  0  0  0  0  0  0  0  0
  148.4818  137.5279  156.3243 O   0  0  0  0  0  0  0  0  0  0  0  0
  148.6639  137.5456  154.0689 N   0  0  0  0  0  0  0  0  0  0  0  0
  148.6740  138.9934  153.8803 C   0  0  0  0  0  0  0  0  0  0  0  0
  149.4927  139.7658  154.9071 C   0  0  0  0  0  0  0  0  0  0  0  0
  150.8937  139.6324  155.0139 C   0  0  0  0  0  0  0  0  0  0  0  0
  151.5798  140.3842  155.9858 C   0  0  0  0  0  0  0  0  0  0  0  0
  150.8477  141.2471  156.8340 C   0  0  0  0  0  0  0  0  0  0  0  0
  151.5226  142.0158  157.8047 N   0  0  0  0  0  0  0  0  0  0  0  0
  150.7469  143.1154  158.3703 C   0  0  0  0  0  0  0  0  0  0  0  0
  151.6483  144.0746  159.1718 C   0  0  2  0  0  0  0  0  0  0  0  0
  152.5062  144.9926  158.2831 C   0  0  0  0  0  0  0  0  0  0  0  0
  152.4365  143.3439  160.1147 O   0  0  0  0  0  0  0  0  0  0  0  0
  153.2336  142.3036  159.5494 C   0  0  1  0  0  0  0  0  0  0  0  0
  154.0048  141.6238  160.6854 C   0  0  0  0  0  0  0  0  0  0  0  0
  152.3284  141.3120  158.7975 C   0  0  0  0  0  0  0  0  0  0  0  0
  149.4997  141.3596  156.7424 N   0  0  0  0  0  0  0  0  0  0  0  0
  148.8478  140.6398  155.8053 C   0  0  0  0  0  0  0  0  0  0  0  0
  148.2486  131.9004  152.8722 H   0  0  0  0  0  0  0  0  0  0  0  0
  148.8278  133.4677  152.2901 H   0  0  0  0  0  0  0  0  0  0  0  0
  147.5397  133.3936  153.5038 H   0  0  0  0  0  0  0  0  0  0  0  0
  150.6393  134.9220  155.4592 H   0  0  0  0  0  0  0  0  0  0  0  0
  150.2050  135.2070  153.7920 H   0  0  0  0  0  0  0  0  0  0  0  0
  147.7115  135.0609  154.5801 H   0  0  0  0  0  0  0  0  0  0  0  0
  148.3354  135.0347  156.2102 H   0  0  0  0  0  0  0  0  0  0  0  0
  148.7299  136.9763  153.2376 H   0  0  0  0  0  0  0  0  0  0  0  0
  149.0326  139.2273  152.8765 H   0  0  0  0  0  0  0  0  0  0  0  0
  147.6444  139.3484  153.9292 H   0  0  0  0  0  0  0  0  0  0  0  0
  151.4446  138.9676  154.3651 H   0  0  0  0  0  0  0  0  0  0  0  0
  152.6511  140.2849  156.0785 H   0  0  0  0  0  0  0  0  0  0  0  0
  150.2127  143.6741  157.6024 H   0  0  0  0  0  0  0  0  0  0  0  0
  149.9887  142.6909  159.0296 H   0  0  0  0  0  0  0  0  0  0  0  0
  150.9989  144.7245  159.7588 H   0  0  0  0  0  0  0  0  0  0  0  0
  151.8738  145.6331  157.6679 H   0  0  0  0  0  0  0  0  0  0  0  0
  153.1502  144.4310  157.6068 H   0  0  0  0  0  0  0  0  0  0  0  0
  153.1395  145.6397  158.8903 H   0  0  0  0  0  0  0  0  0  0  0  0
  153.9602  142.7318  158.8587 H   0  0  0  0  0  0  0  0  0  0  0  0
  154.6402  140.8238  160.3046 H   0  0  0  0  0  0  0  0  0  0  0  0
  153.3251  141.1910  161.4200 H   0  0  0  0  0  0  0  0  0  0  0  0
  154.6450  142.3381  161.2036 H   0  0  0  0  0  0  0  0  0  0  0  0
  151.6684  140.7979  159.4976 H   0  0  0  0  0  0  0  0  0  0  0  0
  152.9448  140.5538  158.3124 H   0  0  0  0  0  0  0  0  0  0  0  0
  147.7760  140.7696  155.7707 H   0  0  0  0  0  0  0  0  0  0  0  0
  1  2  1  0  0  0  0
  1 23  1  0  0  0  0
  1 24  1  0  0  0  0
  1 25  1  0  0  0  0
  2  3  1  0  0  0  0
  3  4  1  0  0  0  0
  3 26  1  0  0  0  0
  3 27  1  0  0  0  0
  4  5  1  0  0  0  0
  4 28  1  0  0  0  0
  4 29  1  0  0  0  0
  5  6  2  0  0  0  0
  5  7  1  0  0  0  0
  7  8  1  0  0  0  0
  7 30  1  0  0  0  0
  8  9  1  0  0  0  0
  8 31  1  0  0  0  0
  8 32  1  0  0  0  0
  9 22  1  0  0  0  0
  9 10  2  0  0  0  0
 10 11  1  0  0  0  0
 10 33  1  0  0  0  0
 11 12  2  0  0  0  0
 11 34  1  0  0  0  0
 12 13  1  0  0  0  0
 12 21  1  0  0  0  0
 13 20  1  0  0  0  0
 13 14  1  0  0  0  0
 14 15  1  0  0  0  0
 14 35  1  0  0  0  0
 14 36  1  0  0  0  0
 15 16  1  0  0  0  0
 15 17  1  0  0  0  0
 15 37  1  0  0  0  0
 16 38  1  0  0  0  0
 16 39  1  0  0  0  0
 16 40  1  0  0  0  0
 17 18  1  0  0  0  0
 18 19  1  0  0  0  0
 18 20  1  0  0  0  0
 18 41  1  0  0  0  0
 19 42  1  0  0  0  0
 19 43  1  0  0  0  0
 19 44  1  0  0  0  0
 20 45  1  0  0  0  0
 20 46  1  0  0  0  0
 21 22  2  0  0  0  0
 22 47  1  0  0  0  0
M  END
> <s_m_source_file>
AV-unprocessed.smi

> <i_m_source_file_index>
2123

> <i_lp_mmshare_version>
43012

> <i_f3d_flags>
0

> <s_epik_input>
W0NIM11TW0NIMl1bQ0gyXUMoPU8pW05IXVtDSDJdYzFbY0hdW2NIXWMobltjSF0xKU4yW0NIMl1bQ0BASF0oW0NIM10pT1tDQEBIXShbQ0gzXSlbQ0gyXTI=

> <s_epik_cmdline>
J2VwaWtfcHl0aG9uJywgJy1waCcsICc3LjAnLCAnLXRuJywgJzgnLCAnLW1hJywgJzIwMCcsICctbWV0YWxfYmluZGluZycsICctaW1hZScsICc8aW5maWxlLm1hZT4nLCAnLW9tYWUnLCAnPG91dGZpbGUubWFlPic=

> <r_lp_tautomer_probability>
1

> <r_epik_Ionization_Penalty>
0.00642497

> <r_epik_Ionization_Penalty_Charging>
0

> <r_epik_Ionization_Penalty_Neutral>
0.00642497

> <r_epik_State_Penalty>
0.0047515

> <r_epik_Charging_Adjusted_Penalty>
0.0047515

> <i_epik_Tot_Q>
0

> <i_epik_Tot_abs_Q>
0

> <r_epik_Metal_State_Penalty>
-0

> <b_epik_Metal_Only>
0

> <s_lp_Force_Field>
OPLS_2005

> <r_lp_Energy>
18.6886

> <b_lp_Chiralities_Consistent>
1

> <s_lp_Variant>
AV-unprocessed.smi:2123-2

> <Gold.Version>
5.8.1

> <Gold.Id.Protein>
6NUR|6NUR_protein|mol2

> <Gold.PLP.Fitness>
46.1452

> <Gold.PLP.PLP>
-43.5970

> <Gold.PLP.part.hbond>
-1.0000

> <Gold.PLP.part.metal>
0.0000

> <Gold.PLP.part.buried>
-3.4008

> <Gold.PLP.part.nonpolar>
-38.5883

> <Gold.PLP.part.repulsive>
0.1424

> <Gold.PLP.ligand.clash>
0.0000

> <Gold.PLP.ligand.torsion>
0.4223

> <Gold.PLP.Chemscore.Hbond>
1.0000

> <Gold.PLP.Chemscore.CHOScore>
0.0000

> <Gold.PLP.Chemscore.Metal>
0.0000

> <Gold.Chemscore.Hbonds>
donor molecule, donor type, donor heavy atom, donor atom, acceptor molecule, acceptor atom, score
      L1  H     7    30       P1  7948  1.00

> <Gold.PLP.Chemscore.Internal.Correction>
0.3928

> <Gold.Rescore>
     Score         DG    S(hbond)    S(metal)    S(lipo)     H(rot)  DE(clash)    DE(int)     intcor
     17.89     -18.15       0.98        0.00     117.73       1.70       0.08       0.17       ----

> <Gold.Chemscore.Fitness>
17.8935

> <Gold.Chemscore.DG>
-18.1500

> <Gold.Chemscore.ZeroCoef>
-5.4800

> <Gold.Chemscore.Hbond>
0.9761

> <Gold.Chemscore.Metal>
0.0000

> <Gold.Chemscore.Lipo>
117.7319

> <Gold.Chemscore.Internal_Hbond>
0.0000

> <Gold.Chemscore.DEClash>
0.0840

> <Gold.Chemscore.DEInternal>
0.1725

> <Gold.Chemscore.Rot>
1.7049

> <Gold.Chemscore.Internal.Correction>
   9.000000E+99

> <Gold.Chemscore.Hbonds>
donor molecule, donor type, donor heavy atom, donor atom, acceptor molecule, acceptor atom, score
      L1  H     7    30       P1  7948  0.97

> <Gold.Chemscore.Hbond.Weighted>
-3.2600

> <Gold.Chemscore.Metal.Weighted>
-0.0000

> <Gold.Chemscore.Lipo.Weighted>
-13.7746

> <Gold.Chemscore.Internal_Hbond.Weighted>
0.0000

> <Gold.Chemscore.DEClash.Weighted>
0.0840

> <Gold.Chemscore.DEInternal.Weighted>
0.1725

> <Gold.Chemscore.Rot.Weighted>
4.3647

> <Gold.Chemscore.Internal.Correction.Weighted>
   9.000000E+99

> <Gold.Protein.RotatedTorsions>
[ 6907 6896 6895 6894 ] final   21.71 input  -60.11 | X-H torsion
[ 7974 7965 7964 7962 ] final -109.86 input  175.53 | X-H torsion
[ 8008 7997 7996 7995 ] final  -79.71 input   59.86 | X-H torsion
[ 10167 10162 10161 10158 ] final  178.69 input  -65.29 | X-H torsion
[ 10718 10713 10712 10709 ] final  -84.68 input   66.30 | X-H torsion
[ 10763 10752 10751 10750 ] final  167.84 input  -60.55 | X-H torsion
[ 11005 11000 10999 10996 ] final   84.73 input  -57.11 | X-H torsion

> <Gold.Protein.ActiveResidues>
 VAL166  LYS551  ARG553  GLY616  TRP617  ASP618  TYR619  PRO620  LYS621  CYS622 
 ASP623  PHE694  ASN695  SER759  ASP760  ASP761  ALA762  ILE779  LEU786  VAL792 
 PHE793  MET794  SER795  GLU796  ALA797  LYS798  CYS799  TRP800  GLU811  SER814 

> <Gold.Protein.RotatedAtoms>
  151.9160  135.0318  160.0518 H   0  0  0  0  0  0  0  0  0  0  0  0  # atno 6907 bound_to 6896
  152.2239  133.5001  159.5186 H   0  0  0  0  0  0  0  0  0  0  0  0  # atno 6908 bound_to 6896
  150.7007  134.1222  159.4081 H   0  0  0  0  0  0  0  0  0  0  0  0  # atno 6909 bound_to 6896
  145.1753  140.8945  143.3511 H   0  0  0  0  0  0  0  0  0  0  0  0  # atno 7974 bound_to 7965
  154.5812  140.0674  156.9106 H   0  0  0  0  0  0  0  0  0  0  0  0  # atno 8008 bound_to 7997
  155.2460  140.3348  155.4269 H   0  0  0  0  0  0  0  0  0  0  0  0  # atno 8009 bound_to 7997
  156.2190  140.1791  156.7506 H   0  0  0  0  0  0  0  0  0  0  0  0  # atno 8010 bound_to 7997
  139.5304  144.2650  152.0675 H   0  0  0  0  0  0  0  0  0  0  0  0  # atno 10167 bound_to 10162
  156.0004  130.4706  150.4447 H   0  0  0  0  0  0  0  0  0  0  0  0  # atno 10718 bound_to 10713
  154.3598  135.2753  155.2326 H   0  0  0  0  0  0  0  0  0  0  0  0  # atno 10763 bound_to 10752
  154.4519  135.5928  153.6201 H   0  0  0  0  0  0  0  0  0  0  0  0  # atno 10764 bound_to 10752
  152.9844  135.6044  154.3817 H   0  0  0  0  0  0  0  0  0  0  0  0  # atno 10765 bound_to 10752
  139.8992  134.8237  156.2485 H   0  0  0  0  0  0  0  0  0  0  0  0  # atno 11005 bound_to 11000
  145.0191  139.3440  143.6081 LP  0  0  0  0  0  0  0  0  0  0  0  0  # atno 17320 bound_to 7965
  146.3462  139.9484  142.8732 LP  0  0  0  0  0  0  0  0  0  0  0  0  # atno 17321 bound_to 7965
  140.2113  144.4560  150.6384 LP  0  0  0  0  0  0  0  0  0  0  0  0  # atno 17342 bound_to 10162
  140.6479  143.2217  151.6145 LP  0  0  0  0  0  0  0  0  0  0  0  0  # atno 17343 bound_to 10162
  157.2485  131.0541  151.2393 LP  0  0  0  0  0  0  0  0  0  0  0  0  # atno 17370 bound_to 10713
  157.3551  130.7102  149.6465 LP  0  0  0  0  0  0  0  0  0  0  0  0  # atno 17371 bound_to 10713
  141.0239  133.7026  156.1315 LP  0  0  0  0  0  0  0  0  0  0  0  0  # atno 17394 bound_to 11000
  140.7194  134.4375  157.5576 LP  0  0  0  0  0  0  0  0  0  0  0  0  # atno 17395 bound_to 11000

$$$$
