AV-unprocessed.smi:1346|AV-procd|sdf|5514|dock2
  -GOLD-   22720 5 93D 1   1.00000     0.00000
 Structure written by MMmdl.
 47 48  0  0  0  0  0  0  0  0  1 V2000
  149.3974  139.0511  154.1461 C   0  0  0  0  0  0  0  0  0  0  0  0
  150.6990  138.9140  154.8829 C   0  0  0  0  0  0  0  0  0  0  0  0
  151.6262  139.8476  154.7508 N   0  0  0  0  0  0  0  0  0  0  0  0
  152.6999  139.4361  155.5460 O   0  0  0  0  0  0  0  0  0  0  0  0
  152.3733  138.2565  156.1324 C   0  0  0  0  0  0  0  0  0  0  0  0
  153.4010  137.6500  157.0269 C   0  0  0  0  0  0  0  0  0  0  0  0
  151.1178  137.8668  155.7532 C   0  0  0  0  0  0  0  0  0  0  0  0
  150.3520  136.6314  156.1505 C   0  0  0  0  0  0  0  0  0  0  0  0
  150.1809  136.5965  157.6690 C   0  0  0  0  0  0  0  0  0  0  0  0
  151.1703  136.6149  158.4008 O   0  0  0  0  0  0  0  0  0  0  0  0
  148.9214  136.5483  158.1286 N   0  0  0  0  0  0  0  0  0  0  0  0
  148.5382  136.5199  159.5358 C   0  0  0  0  0  0  0  0  0  0  0  0
  147.0145  136.5851  159.7110 C   0  0  0  0  0  0  0  0  0  0  0  0
  146.6109  135.5858  160.6351 O   0  0  0  0  0  0  0  0  0  0  0  0
  146.7933  135.9423  162.0010 C   0  0  2  0  0  0  0  0  0  0  0  0
  147.0036  134.6456  162.8050 C   0  0  0  0  0  0  0  0  0  0  0  0
  145.7407  133.7677  162.8252 C   0  0  0  0  0  0  0  0  0  0  0  0
  144.5236  134.5517  163.3381 C   0  0  0  0  0  0  0  0  0  0  0  0
  144.3016  135.8334  162.5194 C   0  0  0  0  0  0  0  0  0  0  0  0
  145.5601  136.7237  162.5131 C   0  0  2  0  0  0  0  0  0  0  0  0
  145.3265  138.0327  161.7435 C   0  0  0  0  0  0  0  0  0  0  0  0
  148.5541  138.8208  154.7969 H   0  0  0  0  0  0  0  0  0  0  0  0
  149.3579  138.3685  153.2971 H   0  0  0  0  0  0  0  0  0  0  0  0
  149.2522  140.0631  153.7663 H   0  0  0  0  0  0  0  0  0  0  0  0
  152.9360  137.0238  157.7880 H   0  0  0  0  0  0  0  0  0  0  0  0
  153.9786  138.4219  157.5356 H   0  0  0  0  0  0  0  0  0  0  0  0
  154.0922  137.0309  156.4552 H   0  0  0  0  0  0  0  0  0  0  0  0
  149.3643  136.6107  155.6885 H   0  0  0  0  0  0  0  0  0  0  0  0
  150.8580  135.7246  155.8161 H   0  0  0  0  0  0  0  0  0  0  0  0
  148.1704  136.5434  157.4536 H   0  0  0  0  0  0  0  0  0  0  0  0
  148.9243  135.6025  159.9805 H   0  0  0  0  0  0  0  0  0  0  0  0
  149.0141  137.3467  160.0655 H   0  0  0  0  0  0  0  0  0  0  0  0
  146.7262  137.5664  160.0900 H   0  0  0  0  0  0  0  0  0  0  0  0
  146.5153  136.4499  158.7506 H   0  0  0  0  0  0  0  0  0  0  0  0
  147.6848  136.5608  162.1258 H   0  0  0  0  0  0  0  0  0  0  0  0
  147.8417  134.0831  162.3923 H   0  0  0  0  0  0  0  0  0  0  0  0
  147.2802  134.8984  163.8292 H   0  0  0  0  0  0  0  0  0  0  0  0
  145.5371  133.3932  161.8211 H   0  0  0  0  0  0  0  0  0  0  0  0
  145.9086  132.8913  163.4519 H   0  0  0  0  0  0  0  0  0  0  0  0
  143.6330  133.9244  163.2968 H   0  0  0  0  0  0  0  0  0  0  0  0
  144.6710  134.8101  164.3875 H   0  0  0  0  0  0  0  0  0  0  0  0
  144.0272  135.5712  161.4966 H   0  0  0  0  0  0  0  0  0  0  0  0
  143.4563  136.3853  162.9320 H   0  0  0  0  0  0  0  0  0  0  0  0
  145.7644  137.0026  163.5479 H   0  0  0  0  0  0  0  0  0  0  0  0
  145.0674  137.8421  160.7022 H   0  0  0  0  0  0  0  0  0  0  0  0
  146.2169  138.6618  161.7570 H   0  0  0  0  0  0  0  0  0  0  0  0
  144.5115  138.6064  162.1851 H   0  0  0  0  0  0  0  0  0  0  0  0
  1  2  1  0  0  0  0
  1 22  1  0  0  0  0
  1 23  1  0  0  0  0
  1 24  1  0  0  0  0
  2  7  1  0  0  0  0
  2  3  2  0  0  0  0
  3  4  1  0  0  0  0
  4  5  1  0  0  0  0
  5  6  1  0  0  0  0
  5  7  2  0  0  0  0
  6 25  1  0  0  0  0
  6 26  1  0  0  0  0
  6 27  1  0  0  0  0
  7  8  1  0  0  0  0
  8  9  1  0  0  0  0
  8 28  1  0  0  0  0
  8 29  1  0  0  0  0
  9 10  2  0  0  0  0
  9 11  1  0  0  0  0
 11 12  1  0  0  0  0
 11 30  1  0  0  0  0
 12 13  1  0  0  0  0
 12 31  1  0  0  0  0
 12 32  1  0  0  0  0
 13 14  1  0  0  0  0
 13 33  1  0  0  0  0
 13 34  1  0  0  0  0
 14 15  1  0  0  0  0
 15 20  1  0  0  0  0
 15 16  1  0  0  0  0
 15 35  1  0  0  0  0
 16 17  1  0  0  0  0
 16 36  1  0  0  0  0
 16 37  1  0  0  0  0
 17 18  1  0  0  0  0
 17 38  1  0  0  0  0
 17 39  1  0  0  0  0
 18 19  1  0  0  0  0
 18 40  1  0  0  0  0
 18 41  1  0  0  0  0
 19 20  1  0  0  0  0
 19 42  1  0  0  0  0
 19 43  1  0  0  0  0
 20 21  1  0  0  0  0
 20 44  1  0  0  0  0
 21 45  1  0  0  0  0
 21 46  1  0  0  0  0
 21 47  1  0  0  0  0
M  END
> <s_m_source_file>
AV-unprocessed.smi

> <i_m_source_file_index>
1346

> <i_lp_mmshare_version>
43012

> <i_f3d_flags>
0

> <s_epik_input>
W0NIM11jMW5vYyhbQ0gzXSljMVtDSDJdQyg9TylbTkhdW0NIMl1bQ0gyXU9bQ0BASF0yW0NIMl1bQ0gyXVtDSDJdW0NIMl1bQ0BIXTJbQ0gzXQ==

> <s_epik_cmdline>
J2VwaWtfcHl0aG9uJywgJy1waCcsICc3LjAnLCAnLXRuJywgJzgnLCAnLW1hJywgJzIwMCcsICctbWV0YWxfYmluZGluZycsICctaW1hZScsICc8aW5maWxlLm1hZT4nLCAnLW9tYWUnLCAnPG91dGZpbGUubWFlPic=

> <r_lp_tautomer_probability>
1

> <r_epik_Ionization_Penalty>
3.26154e-08

> <r_epik_Ionization_Penalty_Charging>
0

> <r_epik_Ionization_Penalty_Neutral>
3.26154e-08

> <r_epik_State_Penalty>
-0

> <r_epik_Charging_Adjusted_Penalty>
0

> <i_epik_Tot_Q>
0

> <i_epik_Tot_abs_Q>
0

> <r_epik_Metal_State_Penalty>
-0

> <b_epik_Metal_Only>
0

> <s_lp_Force_Field>
OPLS_2005

> <r_lp_Energy>
6.35262

> <b_lp_Chiralities_Consistent>
1

> <s_lp_Variant>
AV-unprocessed.smi:1346-3

> <Gold.Version>
5.8.1

> <Gold.Id.Protein>
6NUR|6NUR_protein|mol2

> <Gold.PLP.Fitness>
41.2477

> <Gold.PLP.PLP>
-34.6814

> <Gold.PLP.part.hbond>
-3.0000

> <Gold.PLP.part.metal>
0.0000

> <Gold.PLP.part.buried>
-5.4778

> <Gold.PLP.part.nonpolar>
-26.8398

> <Gold.PLP.part.repulsive>
0.1130

> <Gold.PLP.ligand.clash>
0.0000

> <Gold.PLP.ligand.torsion>
0.7672

> <Gold.PLP.Chemscore.Hbond>
2.6423

> <Gold.PLP.Chemscore.CHOScore>
0.0000

> <Gold.PLP.Chemscore.Metal>
0.0000

> <Gold.Chemscore.Hbonds>
donor molecule, donor type, donor heavy atom, donor atom, acceptor molecule, acceptor atom, score
      P1  H  6896  6907       L1    10  0.57
      P1  H  7989  7998       L1     3  1.00
      P1  H  7997  8008       L1     4  0.94

> <Gold.PLP.Chemscore.Internal.Correction>
0.1740

> <Gold.Rescore>
     Score         DG    S(hbond)    S(metal)    S(lipo)     H(rot)  DE(clash)    DE(int)     intcor
     15.97     -19.02       2.25        0.00      89.52       1.74       0.00       3.04       ----

> <Gold.Chemscore.Fitness>
15.9721

> <Gold.Chemscore.DG>
-19.0180

> <Gold.Chemscore.ZeroCoef>
-5.4800

> <Gold.Chemscore.Hbond>
2.2474

> <Gold.Chemscore.Metal>
0.0000

> <Gold.Chemscore.Lipo>
89.5196

> <Gold.Chemscore.Internal_Hbond>
0.0000

> <Gold.Chemscore.DEClash>
0.0030

> <Gold.Chemscore.DEInternal>
3.0428

> <Gold.Chemscore.Rot>
1.7352

> <Gold.Chemscore.Internal.Correction>
   9.000000E+99

> <Gold.Chemscore.Hbonds>
donor molecule, donor type, donor heavy atom, donor atom, acceptor molecule, acceptor atom, score
      P1  H  6896  6907       L1    10  0.40
      P1  H  7989  7998       L1     3  0.97
      P1  H  7997  8008       L1     4  0.48

> <Gold.Chemscore.Hbond.Weighted>
-7.5062

> <Gold.Chemscore.Metal.Weighted>
-0.0000

> <Gold.Chemscore.Lipo.Weighted>
-10.4738

> <Gold.Chemscore.Internal_Hbond.Weighted>
0.0000

> <Gold.Chemscore.DEClash.Weighted>
0.0030

> <Gold.Chemscore.DEInternal.Weighted>
3.0428

> <Gold.Chemscore.Rot.Weighted>
4.4420

> <Gold.Chemscore.Internal.Correction.Weighted>
   9.000000E+99

> <Gold.Protein.RotatedTorsions>
[ 6907 6896 6895 6894 ] final  -35.42 input  -60.11 | X-H torsion
[ 7974 7965 7964 7962 ] final  127.03 input  175.53 | X-H torsion
[ 8008 7997 7996 7995 ] final  -53.16 input   59.86 | X-H torsion
[ 10167 10162 10161 10158 ] final   79.28 input  -65.29 | X-H torsion
[ 10718 10713 10712 10709 ] final    8.39 input   66.30 | X-H torsion
[ 10763 10752 10751 10750 ] final  -66.77 input  -60.55 | X-H torsion
[ 11005 11000 10999 10996 ] final  165.55 input  -57.11 | X-H torsion

> <Gold.Protein.ActiveResidues>
 VAL166  LYS551  ARG553  GLY616  TRP617  ASP618  TYR619  PRO620  LYS621  CYS622 
 ASP623  PHE694  ASN695  SER759  ASP760  ASP761  ALA762  ILE779  LEU786  VAL792 
 PHE793  MET794  SER795  GLU796  ALA797  LYS798  CYS799  TRP800  GLU811  SER814 

> <Gold.Protein.RotatedAtoms>
  151.0400  134.9600  159.8156 H   0  0  0  0  0  0  0  0  0  0  0  0  # atno 6907 bound_to 6896
  152.5362  134.2670  159.8967 H   0  0  0  0  0  0  0  0  0  0  0  0  # atno 6908 bound_to 6896
  151.2682  133.4226  159.2653 H   0  0  0  0  0  0  0  0  0  0  0  0  # atno 6909 bound_to 6896
  145.0551  139.3850  143.5034 H   0  0  0  0  0  0  0  0  0  0  0  0  # atno 7974 bound_to 7965
  154.4125  140.1206  156.5108 H   0  0  0  0  0  0  0  0  0  0  0  0  # atno 8008 bound_to 7997
  155.6800  140.3496  155.4832 H   0  0  0  0  0  0  0  0  0  0  0  0  # atno 8009 bound_to 7997
  155.9559  140.1113  157.0927 H   0  0  0  0  0  0  0  0  0  0  0  0  # atno 8010 bound_to 7997
  139.9620  144.5954  150.8063 H   0  0  0  0  0  0  0  0  0  0  0  0  # atno 10167 bound_to 10162
  156.9509  130.5896  149.5656 H   0  0  0  0  0  0  0  0  0  0  0  0  # atno 10718 bound_to 10713
  154.3646  135.6108  153.5708 H   0  0  0  0  0  0  0  0  0  0  0  0  # atno 10763 bound_to 10752
  152.9792  135.5823  154.4593 H   0  0  0  0  0  0  0  0  0  0  0  0  # atno 10764 bound_to 10752
  154.4336  135.2848  155.1873 H   0  0  0  0  0  0  0  0  0  0  0  0  # atno 10765 bound_to 10752
  140.2573  134.7930  157.3558 H   0  0  0  0  0  0  0  0  0  0  0  0  # atno 11005 bound_to 11000
  146.3521  140.0221  142.8657 LP  0  0  0  0  0  0  0  0  0  0  0  0  # atno 17320 bound_to 7965
  145.1478  140.9606  143.4451 LP  0  0  0  0  0  0  0  0  0  0  0  0  # atno 17321 bound_to 7965
  140.7550  143.3038  151.3014 LP  0  0  0  0  0  0  0  0  0  0  0  0  # atno 17342 bound_to 10162
  139.6546  144.0299  152.2651 LP  0  0  0  0  0  0  0  0  0  0  0  0  # atno 17343 bound_to 10162
  156.0363  130.5450  150.8662 LP  0  0  0  0  0  0  0  0  0  0  0  0  # atno 17370 bound_to 10713
  157.5723  131.0946  150.9399 LP  0  0  0  0  0  0  0  0  0  0  0  0  # atno 17371 bound_to 10713
  140.1499  134.4863  155.7969 LP  0  0  0  0  0  0  0  0  0  0  0  0  # atno 17394 bound_to 11000
  141.2194  133.6858  156.7359 LP  0  0  0  0  0  0  0  0  0  0  0  0  # atno 17395 bound_to 11000

$$$$
