AV-unprocessed.smi:702|AV-procd|sdf|3424|dock10
  -GOLD-   22720 0403D 1   1.00000     0.00000
 Structure written by MMmdl.
 50 52  0  0  0  0  0  0  0  0  4 V2000
  145.9293  139.7927  156.0726 C   0  0  0  0  0  0  0  0  0  0  0  0
  147.3789  139.3088  155.8714 C   0  0  2  0  0  0  0  0  0  0  0  0
  148.2735  140.4737  155.9455 N   0  5  0  0  0  0  0  0  0  0  0  0
  149.2230  140.6761  156.8981 C   0  0  0  0  0  0  0  0  0  0  0  0
  149.5262  139.9241  157.8310 O   0  0  0  0  0  0  0  0  0  0  0  0
  149.8773  141.8376  156.7216 N   0  0  0  0  0  0  0  0  0  0  0  0
  150.9150  142.4043  157.5089 C   0  0  0  0  0  0  0  0  0  0  0  0
  151.1743  143.7847  157.3615 C   0  0  0  0  0  0  0  0  0  0  0  0
  152.1831  144.3882  158.1392 C   0  0  0  0  0  0  0  0  0  0  0  0
  152.8824  143.6478  159.0260 N   0  3  0  0  0  0  0  0  0  0  0  0
  152.6570  142.3299  159.2154 C   0  0  0  0  0  0  0  0  0  0  0  0
  151.6611  141.6714  158.4663 C   0  0  0  0  0  0  0  0  0  0  0  0
  147.5863  138.5008  154.5146 C   0  0  0  0  0  0  0  0  0  0  0  0
  148.9448  137.7990  154.4988 N   0  3  0  0  0  0  0  0  0  0  0  0
  150.1480  138.6845  154.4332 C   0  0  0  0  0  0  0  0  0  0  0  0
  151.4017  137.8643  154.0935 C   0  0  0  0  0  0  0  0  0  0  0  0
  151.6132  136.8904  155.1045 O   0  0  0  0  0  0  0  0  0  0  0  0
  150.5198  135.9901  155.2014 C   0  0  0  0  0  0  0  0  0  0  0  0
  149.2314  136.7580  155.5455 C   0  0  0  0  0  0  0  0  0  0  0  0
  146.4252  137.4476  154.3390 C   0  0  0  0  0  0  0  0  0  0  0  0
  145.7789  137.6674  152.9629 C   0  0  0  0  0  0  0  0  0  0  0  0
  146.7075  138.5902  152.1822 C   0  0  0  0  0  0  0  0  0  0  0  0
  147.4436  139.4092  153.2462 C   0  0  0  0  0  0  0  0  0  0  0  0
  145.2254  138.9609  156.0752 H   0  0  0  0  0  0  0  0  0  0  0  0
  145.6184  140.4870  155.2917 H   0  0  0  0  0  0  0  0  0  0  0  0
  145.8184  140.3051  157.0289 H   0  0  0  0  0  0  0  0  0  0  0  0
  147.5982  138.6227  156.6885 H   0  0  0  0  0  0  0  0  0  0  0  0
  149.6459  142.3389  155.8762 H   0  0  0  0  0  0  0  0  0  0  0  0
  150.6120  144.3756  156.6530 H   0  0  0  0  0  0  0  0  0  0  0  0
  152.4486  145.4336  158.0799 H   0  0  0  0  0  0  0  0  0  0  0  0
  153.2711  141.8454  159.9604 H   0  0  0  0  0  0  0  0  0  0  0  0
  151.4768  140.6226  158.6437 H   0  0  0  0  0  0  0  0  0  0  0  0
  150.0671  139.4825  153.7004 H   0  0  0  0  0  0  0  0  0  0  0  0
  150.3009  139.1666  155.3988 H   0  0  0  0  0  0  0  0  0  0  0  0
  151.3069  137.3876  153.1165 H   0  0  0  0  0  0  0  0  0  0  0  0
  152.2751  138.5152  154.0489 H   0  0  0  0  0  0  0  0  0  0  0  0
  150.4041  135.4377  154.2674 H   0  0  0  0  0  0  0  0  0  0  0  0
  150.7384  135.2573  155.9784 H   0  0  0  0  0  0  0  0  0  0  0  0
  149.3362  137.2228  156.5258 H   0  0  0  0  0  0  0  0  0  0  0  0
  148.4531  136.0049  155.6450 H   0  0  0  0  0  0  0  0  0  0  0  0
  146.7693  136.4220  154.4601 H   0  0  0  0  0  0  0  0  0  0  0  0
  145.6159  137.5043  155.0711 H   0  0  0  0  0  0  0  0  0  0  0  0
  145.5946  136.7301  152.4375 H   0  0  0  0  0  0  0  0  0  0  0  0
  144.8145  138.1600  153.0953 H   0  0  0  0  0  0  0  0  0  0  0  0
  147.4056  138.0010  151.5906 H   0  0  0  0  0  0  0  0  0  0  0  0
  146.1604  139.2239  151.4837 H   0  0  0  0  0  0  0  0  0  0  0  0
  146.8336  140.2984  153.4180 H   0  0  0  0  0  0  0  0  0  0  0  0
  148.3923  139.7866  152.8673 H   0  0  0  0  0  0  0  0  0  0  0  0
  148.9381  137.2950  153.6239 H   0  0  0  0  0  0  0  0  0  0  0  0
  153.6074  144.1043  159.5800 H   0  0  0  0  0  0  0  0  0  0  0  0
  1  2  1  0  0  0  0
  1 24  1  0  0  0  0
  1 25  1  0  0  0  0
  1 26  1  0  0  0  0
  2  3  1  0  0  0  0
  2 13  1  0  0  0  0
  2 27  1  0  0  0  0
  3  4  1  0  0  0  0
  4  5  2  0  0  0  0
  4  6  1  0  0  0  0
  6  7  1  0  0  0  0
  6 28  1  0  0  0  0
  7 12  1  0  0  0  0
  7  8  2  0  0  0  0
  8  9  1  0  0  0  0
  8 29  1  0  0  0  0
  9 10  2  0  0  0  0
  9 30  1  0  0  0  0
 10 11  1  0  0  0  0
 10 50  1  0  0  0  0
 11 12  2  0  0  0  0
 11 31  1  0  0  0  0
 12 32  1  0  0  0  0
 13 23  1  0  0  0  0
 13 14  1  0  0  0  0
 13 20  1  0  0  0  0
 14 19  1  0  0  0  0
 14 15  1  0  0  0  0
 14 49  1  0  0  0  0
 15 16  1  0  0  0  0
 15 33  1  0  0  0  0
 15 34  1  0  0  0  0
 16 17  1  0  0  0  0
 16 35  1  0  0  0  0
 16 36  1  0  0  0  0
 17 18  1  0  0  0  0
 18 19  1  0  0  0  0
 18 37  1  0  0  0  0
 18 38  1  0  0  0  0
 19 39  1  0  0  0  0
 19 40  1  0  0  0  0
 20 21  1  0  0  0  0
 20 41  1  0  0  0  0
 20 42  1  0  0  0  0
 21 22  1  0  0  0  0
 21 43  1  0  0  0  0
 21 44  1  0  0  0  0
 22 23  1  0  0  0  0
 22 45  1  0  0  0  0
 22 46  1  0  0  0  0
 23 47  1  0  0  0  0
 23 48  1  0  0  0  0
M  CHG  1   3  -1
M  CHG  1  10   1
M  CHG  1  14   1
M  END
> <s_m_source_file>
AV-unprocessed.smi

> <i_m_source_file_index>
702

> <i_lp_mmshare_version>
43012

> <i_f3d_flags>
0

> <s_epik_input>
W0NIMl0xW0NIMl1PW0NIMl1bQ0gyXU4xQzIoW0NIMl1bQ0gyXVtDSDJdW0NIMl0yKVtDQEhdKFtDSDNdKVtOSF1DKD1PKVtOSF1jM1tjSF1bY0hdbltjSF1bY0hdMw==

> <s_epik_cmdline>
J2VwaWtfcHl0aG9uJywgJy1waCcsICc3LjAnLCAnLXRuJywgJzgnLCAnLW1hJywgJzIwMCcsICctbWV0YWxfYmluZGluZycsICctaW1hZScsICc8aW5maWxlLm1hZT4nLCAnLW9tYWUnLCAnPG91dGZpbGUubWFlPic=

> <r_epik_Ionization_Penalty>
8.33674

> <r_epik_Ionization_Penalty_Charging>
8.33674

> <r_epik_Ionization_Penalty_Neutral>
3.60854e-06

> <r_epik_State_Penalty>
8.24268

> <r_epik_Charging_Adjusted_Penalty>
16.5794

> <i_epik_Tot_Q>
1

> <i_epik_Tot_abs_Q>
3

> <r_epik_Metal_State_Penalty>
4.24853

> <b_epik_Metal_Only>
1

> <s_lp_Force_Field>
OPLS_2005

> <r_lp_Energy>
64.6776

> <b_lp_Chiralities_Consistent>
1

> <s_lp_Variant>
AV-unprocessed.smi:702-9

> <Gold.Version>
5.8.1

> <Gold.Id.Protein>
6NUR|6NUR_protein|mol2

> <Gold.PLP.Fitness>
44.3068

> <Gold.PLP.PLP>
-35.7070

> <Gold.PLP.part.hbond>
-2.4721

> <Gold.PLP.part.metal>
0.0000

> <Gold.PLP.part.buried>
-1.5728

> <Gold.PLP.part.nonpolar>
-32.2104

> <Gold.PLP.part.repulsive>
0.2102

> <Gold.PLP.ligand.clash>
0.0000

> <Gold.PLP.ligand.torsion>
0.2908

> <Gold.PLP.Chemscore.Hbond>
3.0000

> <Gold.PLP.Chemscore.CHOScore>
0.0000

> <Gold.PLP.Chemscore.Metal>
0.0000

> <Gold.Chemscore.Hbonds>
donor molecule, donor type, donor heavy atom, donor atom, acceptor molecule, acceptor atom, score
      L1  H    14    49       P1  7948  1.95
      P1  H 10752 10764       L1    17  0.90

> <Gold.PLP.Chemscore.Internal.Correction>
0.1815

> <Gold.Rescore>
     Score         DG    S(hbond)    S(metal)    S(lipo)     H(rot)  DE(clash)    DE(int)     intcor
     15.75     -18.73       1.54        0.00     100.95       1.45       0.21       2.77       ----

> <Gold.Chemscore.Fitness>
15.7522

> <Gold.Chemscore.DG>
-18.7341

> <Gold.Chemscore.ZeroCoef>
-5.4800

> <Gold.Chemscore.Hbond>
1.5438

> <Gold.Chemscore.Metal>
0.0000

> <Gold.Chemscore.Lipo>
100.9464

> <Gold.Chemscore.Internal_Hbond>
0.0000

> <Gold.Chemscore.DEClash>
0.2137

> <Gold.Chemscore.DEInternal>
2.7681

> <Gold.Chemscore.Rot>
1.4504

> <Gold.Chemscore.Internal.Correction>
   9.000000E+99

> <Gold.Chemscore.Hbonds>
donor molecule, donor type, donor heavy atom, donor atom, acceptor molecule, acceptor atom, score
      L1  H     6    28       P1  8028  0.01
      L1  H    14    49       P1  7948  0.91
      P1  H 10752 10764       L1    17  0.10

> <Gold.Chemscore.Hbond.Weighted>
-5.1562

> <Gold.Chemscore.Metal.Weighted>
-0.0000

> <Gold.Chemscore.Lipo.Weighted>
-11.8107

> <Gold.Chemscore.Internal_Hbond.Weighted>
0.0000

> <Gold.Chemscore.DEClash.Weighted>
0.2137

> <Gold.Chemscore.DEInternal.Weighted>
2.7681

> <Gold.Chemscore.Rot.Weighted>
3.7129

> <Gold.Chemscore.Internal.Correction.Weighted>
   9.000000E+99

> <Gold.Protein.RotatedTorsions>
[ 6907 6896 6895 6894 ] final  -94.48 input  -60.11 | X-H torsion
[ 7974 7965 7964 7962 ] final   79.02 input  175.53 | X-H torsion
[ 8008 7997 7996 7995 ] final -101.17 input   59.86 | X-H torsion
[ 10167 10162 10161 10158 ] final   70.74 input  -65.29 | X-H torsion
[ 10718 10713 10712 10709 ] final   19.77 input   66.30 | X-H torsion
[ 10763 10752 10751 10750 ] final  -71.71 input  -60.55 | X-H torsion
[ 11005 11000 10999 10996 ] final   85.36 input  -57.11 | X-H torsion

> <Gold.Protein.ActiveResidues>
 VAL166  LYS551  ARG553  GLY616  TRP617  ASP618  TYR619  PRO620  LYS621  CYS622 
 ASP623  PHE694  ASN695  SER759  ASP760  ASP761  ALA762  ILE779  LEU786  VAL792 
 PHE793  MET794  SER795  GLU796  ALA797  LYS798  CYS799  TRP800  GLU811  SER814 

> <Gold.Protein.RotatedAtoms>
  150.6943  134.1805  159.4246 H   0  0  0  0  0  0  0  0  0  0  0  0  # atno 6907 bound_to 6896
  151.9780  135.0041  160.0565 H   0  0  0  0  0  0  0  0  0  0  0  0  # atno 6908 bound_to 6896
  152.1781  133.4654  159.4981 H   0  0  0  0  0  0  0  0  0  0  0  0  # atno 6909 bound_to 6896
  145.6696  139.2493  143.1876 H   0  0  0  0  0  0  0  0  0  0  0  0  # atno 7974 bound_to 7965
  154.8389  140.0436  157.1528 H   0  0  0  0  0  0  0  0  0  0  0  0  # atno 8008 bound_to 7997
  154.9069  140.3008  155.5267 H   0  0  0  0  0  0  0  0  0  0  0  0  # atno 8009 bound_to 7997
  156.2991  140.2365  156.4104 H   0  0  0  0  0  0  0  0  0  0  0  0  # atno 8010 bound_to 7997
  140.0537  144.5290  150.7344 H   0  0  0  0  0  0  0  0  0  0  0  0  # atno 10167 bound_to 10162
  157.1151  130.6525  149.5908 H   0  0  0  0  0  0  0  0  0  0  0  0  # atno 10718 bound_to 10713
  154.4356  135.5953  153.6096 H   0  0  0  0  0  0  0  0  0  0  0  0  # atno 10763 bound_to 10752
  152.9802  135.5985  154.3785 H   0  0  0  0  0  0  0  0  0  0  0  0  # atno 10764 bound_to 10752
  154.3629  135.2841  155.2288 H   0  0  0  0  0  0  0  0  0  0  0  0  # atno 10765 bound_to 10752
  139.8973  134.8281  156.2572 H   0  0  0  0  0  0  0  0  0  0  0  0  # atno 11005 bound_to 11000
  146.1056  140.7490  142.9528 LP  0  0  0  0  0  0  0  0  0  0  0  0  # atno 17320 bound_to 7965
  144.7061  140.3857  143.7117 LP  0  0  0  0  0  0  0  0  0  0  0  0  # atno 17321 bound_to 7965
  140.7205  143.2584  151.4295 LP  0  0  0  0  0  0  0  0  0  0  0  0  # atno 17342 bound_to 10162
  139.5937  144.1444  152.2118 LP  0  0  0  0  0  0  0  0  0  0  0  0  # atno 17343 bound_to 10162
  155.9841  130.4864  150.6968 LP  0  0  0  0  0  0  0  0  0  0  0  0  # atno 17370 bound_to 10713
  157.4525  131.0874  151.0830 LP  0  0  0  0  0  0  0  0  0  0  0  0  # atno 17371 bound_to 10713
  141.0186  133.7054  156.1230 LP  0  0  0  0  0  0  0  0  0  0  0  0  # atno 17394 bound_to 11000
  140.7266  134.4300  157.5570 LP  0  0  0  0  0  0  0  0  0  0  0  0  # atno 17395 bound_to 11000

$$$$
