AV-unprocessed.smi:3253|AV-procd|sdf|12446|dock2
  -GOLD-   2272018343D 1   1.00000     0.00000
 Structure written by MMmdl.
 37 38  0  0  0  0  0  0  0  0  2 V2000
  146.7943  135.4875  155.8960 C   0  0  0  0  0  0  0  0  0  0  0  0
  146.4980  135.5050  154.3906 C   0  0  1  0  0  0  0  0  0  0  0  0
  144.9775  135.5264  154.1188 C   0  0  0  0  0  0  0  0  0  0  0  0
  144.6405  135.2821  152.7120 N   0  0  0  0  0  0  0  0  0  0  0  0
  145.4343  135.5016  151.6152 C   0  0  0  0  0  0  0  0  0  0  0  0
  144.7069  135.1083  150.5217 C   0  0  0  0  0  0  0  0  0  0  0  0
  143.4981  134.6741  150.9959 N   0  3  0  0  0  0  0  0  0  0  0  0
  143.4578  134.7852  152.3276 C   0  0  0  0  0  0  0  0  0  0  0  0
  147.1553  136.6664  153.7921 N   0  0  0  0  0  0  0  0  0  0  0  0
  147.1581  137.9107  154.2967 C   0  0  0  0  0  0  0  0  0  0  0  0
  146.5775  138.2190  155.3384 O   0  0  0  0  0  0  0  0  0  0  0  0
  147.9605  138.9642  153.5185 C   0  0  2  0  0  0  0  0  0  0  0  0
  149.1305  139.5062  154.3645 C   0  0  0  0  0  0  0  0  0  0  0  0
  148.7431  140.9482  154.6464 C   0  0  0  0  0  0  0  0  0  0  0  0
  149.3887  141.6778  155.3969 O   0  0  0  0  0  0  0  0  0  0  0  0
  147.6297  141.2813  153.9877 N   0  0  0  0  0  0  0  0  0  0  0  0
  146.9647  142.5762  154.0372 C   0  0  0  0  0  0  0  0  0  0  0  0
  147.1160  140.2060  153.1565 C   0  0  0  0  0  0  0  0  0  0  0  0
  146.3470  134.6153  156.3738 H   0  0  0  0  0  0  0  0  0  0  0  0
  146.3995  136.3759  156.3904 H   0  0  0  0  0  0  0  0  0  0  0  0
  147.8678  135.4495  156.0852 H   0  0  0  0  0  0  0  0  0  0  0  0
  146.9189  134.5890  153.9718 H   0  0  0  0  0  0  0  0  0  0  0  0
  144.4745  134.7602  154.7106 H   0  0  0  0  0  0  0  0  0  0  0  0
  144.5445  136.4846  154.4101 H   0  0  0  0  0  0  0  0  0  0  0  0
  146.4352  135.9008  151.6927 H   0  0  0  0  0  0  0  0  0  0  0  0
  144.9523  135.1041  149.4696 H   0  0  0  0  0  0  0  0  0  0  0  0
  142.6366  134.5147  152.9673 H   0  0  0  0  0  0  0  0  0  0  0  0
  147.6555  136.5086  152.9291 H   0  0  0  0  0  0  0  0  0  0  0  0
  148.3470  138.5115  152.6036 H   0  0  0  0  0  0  0  0  0  0  0  0
  149.2865  138.9641  155.2989 H   0  0  0  0  0  0  0  0  0  0  0  0
  150.0650  139.4845  153.8030 H   0  0  0  0  0  0  0  0  0  0  0  0
  147.6752  143.3840  153.8582 H   0  0  0  0  0  0  0  0  0  0  0  0
  146.5070  142.7302  155.0150 H   0  0  0  0  0  0  0  0  0  0  0  0
  146.1818  142.6435  153.2812 H   0  0  0  0  0  0  0  0  0  0  0  0
  147.2449  140.4693  152.1058 H   0  0  0  0  0  0  0  0  0  0  0  0
  146.0477  140.0648  153.3310 H   0  0  0  0  0  0  0  0  0  0  0  0
  142.7434  134.3160  150.4242 H   0  0  0  0  0  0  0  0  0  0  0  0
  1  2  1  0  0  0  0
  1 19  1  0  0  0  0
  1 20  1  0  0  0  0
  1 21  1  0  0  0  0
  2  3  1  0  0  0  0
  2  9  1  0  0  0  0
  2 22  1  0  0  0  0
  3  4  1  0  0  0  0
  3 23  1  0  0  0  0
  3 24  1  0  0  0  0
  4  8  1  0  0  0  0
  4  5  1  0  0  0  0
  5  6  2  0  0  0  0
  5 25  1  0  0  0  0
  6  7  1  0  0  0  0
  6 26  1  0  0  0  0
  7  8  2  0  0  0  0
  7 37  1  0  0  0  0
  8 27  1  0  0  0  0
  9 10  1  0  0  0  0
  9 28  1  0  0  0  0
 10 11  2  0  0  0  0
 10 12  1  0  0  0  0
 12 18  1  0  0  0  0
 12 13  1  0  0  0  0
 12 29  1  0  0  0  0
 13 14  1  0  0  0  0
 13 30  1  0  0  0  0
 13 31  1  0  0  0  0
 14 15  2  0  0  0  0
 14 16  1  0  0  0  0
 16 17  1  0  0  0  0
 16 18  1  0  0  0  0
 17 32  1  0  0  0  0
 17 33  1  0  0  0  0
 17 34  1  0  0  0  0
 18 35  1  0  0  0  0
 18 36  1  0  0  0  0
M  CHG  1   7   1
M  END
> <s_m_source_file>
AV-unprocessed.smi

> <i_m_source_file_index>
3253

> <i_lp_mmshare_version>
43012

> <i_f3d_flags>
0

> <s_epik_input>
W2NIXTFuW2NIXVtjSF1uMVtDSDJdW0NAQEhdKFtDSDNdKVtOSF1DKD1PKVtDQEBIXTJbQ0gyXUMoPU8pTihbQ0gzXSlbQ0gyXTI=

> <s_epik_cmdline>
J2VwaWtfcHl0aG9uJywgJy1waCcsICc3LjAnLCAnLXRuJywgJzgnLCAnLW1hJywgJzIwMCcsICctbWV0YWxfYmluZGluZycsICctaW1hZScsICc8aW5maWxlLm1hZT4nLCAnLW9tYWUnLCAnPG91dGZpbGUubWFlPic=

> <r_lp_tautomer_probability>
1

> <r_epik_Ionization_Penalty>
0.251561

> <r_epik_Ionization_Penalty_Charging>
0

> <r_epik_Ionization_Penalty_Neutral>
0.251561

> <r_epik_State_Penalty>
0.242926

> <r_epik_Charging_Adjusted_Penalty>
0.242926

> <i_epik_Tot_Q>
1

> <i_epik_Tot_abs_Q>
1

> <r_epik_Metal_State_Penalty>
0.533885

> <b_epik_Metal_Only>
0

> <s_lp_Force_Field>
OPLS_2005

> <r_lp_Energy>
13.6979

> <b_lp_Chiralities_Consistent>
1

> <s_lp_Variant>
AV-unprocessed.smi:3253-2

> <Gold.Version>
5.8.1

> <Gold.Id.Protein>
6NUR|6NUR_protein|mol2

> <Gold.PLP.Fitness>
37.7492

> <Gold.PLP.PLP>
-27.0393

> <Gold.PLP.part.hbond>
-2.0000

> <Gold.PLP.part.metal>
0.0000

> <Gold.PLP.part.buried>
-2.3527

> <Gold.PLP.part.nonpolar>
-22.5972

> <Gold.PLP.part.repulsive>
0.5817

> <Gold.PLP.ligand.clash>
0.0000

> <Gold.PLP.ligand.torsion>
0.6603

> <Gold.PLP.Chemscore.Hbond>
3.0000

> <Gold.PLP.Chemscore.CHOScore>
1.0000

> <Gold.PLP.Chemscore.Metal>
0.0000

> <Gold.Chemscore.Hbonds>
donor molecule, donor type, donor heavy atom, donor atom, acceptor molecule, acceptor atom, score
      L1  H     7    37       P1 10186  2.00
      L1  H     9    28       P1  7948  1.00
      L1  C     5    25       P1  7948  1.00

> <Gold.PLP.Chemscore.Internal.Correction>
0.0304

> <Gold.Rescore>
     Score         DG    S(hbond)    S(metal)    S(lipo)     H(rot)  DE(clash)    DE(int)     intcor
      9.24     -11.41       1.85        0.00      42.30       2.03       0.18       1.98       ----

> <Gold.Chemscore.Fitness>
9.2384

> <Gold.Chemscore.DG>
-11.4054

> <Gold.Chemscore.ZeroCoef>
-5.4800

> <Gold.Chemscore.Hbond>
1.8514

> <Gold.Chemscore.Metal>
0.0000

> <Gold.Chemscore.Lipo>
42.2995

> <Gold.Chemscore.Internal_Hbond>
0.0000

> <Gold.Chemscore.DEClash>
0.1822

> <Gold.Chemscore.DEInternal>
1.9847

> <Gold.Chemscore.Rot>
2.0341

> <Gold.Chemscore.Internal.Correction>
   9.000000E+99

> <Gold.Chemscore.Hbonds>
donor molecule, donor type, donor heavy atom, donor atom, acceptor molecule, acceptor atom, score
      L1  H     7    37       P1 10186  0.67
      L1  H     9    28       P1  7948  1.00

> <Gold.Chemscore.Hbond.Weighted>
-6.1835

> <Gold.Chemscore.Metal.Weighted>
-0.0000

> <Gold.Chemscore.Lipo.Weighted>
-4.9490

> <Gold.Chemscore.Internal_Hbond.Weighted>
0.0000

> <Gold.Chemscore.DEClash.Weighted>
0.1822

> <Gold.Chemscore.DEInternal.Weighted>
1.9847

> <Gold.Chemscore.Rot.Weighted>
5.2072

> <Gold.Chemscore.Internal.Correction.Weighted>
   9.000000E+99

> <Gold.Protein.RotatedTorsions>
[ 6907 6896 6895 6894 ] final  124.30 input  -60.11 | X-H torsion
[ 7974 7965 7964 7962 ] final -150.57 input  175.53 | X-H torsion
[ 8008 7997 7996 7995 ] final  149.58 input   59.86 | X-H torsion
[ 10167 10162 10161 10158 ] final -131.94 input  -65.29 | X-H torsion
[ 10718 10713 10712 10709 ] final  172.57 input   66.30 | X-H torsion
[ 10763 10752 10751 10750 ] final   22.64 input  -60.55 | X-H torsion
[ 11005 11000 10999 10996 ] final  131.68 input  -57.11 | X-H torsion

> <Gold.Protein.ActiveResidues>
 VAL166  LYS551  ARG553  GLY616  TRP617  ASP618  TYR619  PRO620  LYS621  CYS622 
 ASP623  PHE694  ASN695  SER759  ASP760  ASP761  ALA762  ILE779  LEU786  VAL792 
 PHE793  MET794  SER795  GLU796  ALA797  LYS798  CYS799  TRP800  GLU811  SER814 

> <Gold.Protein.RotatedAtoms>
  152.4089  133.6932  159.6380 H   0  0  0  0  0  0  0  0  0  0  0  0  # atno 6907 bound_to 6896
  150.7971  133.8659  159.3254 H   0  0  0  0  0  0  0  0  0  0  0  0  # atno 6908 bound_to 6896
  151.6407  135.1015  160.0192 H   0  0  0  0  0  0  0  0  0  0  0  0  # atno 6909 bound_to 6896
  144.7900  140.4914  143.5779 H   0  0  0  0  0  0  0  0  0  0  0  0  # atno 7974 bound_to 7965
  156.2749  140.2098  156.5881 H   0  0  0  0  0  0  0  0  0  0  0  0  # atno 8008 bound_to 7997
  154.7004  140.0521  157.0476 H   0  0  0  0  0  0  0  0  0  0  0  0  # atno 8009 bound_to 7997
  155.0742  140.3180  155.4624 H   0  0  0  0  0  0  0  0  0  0  0  0  # atno 8010 bound_to 7997
  139.9137  143.6464  152.2570 H   0  0  0  0  0  0  0  0  0  0  0  0  # atno 10167 bound_to 10162
  156.9770  131.0107  151.2891 H   0  0  0  0  0  0  0  0  0  0  0  0  # atno 10718 bound_to 10713
  153.0900  135.6644  153.9874 H   0  0  0  0  0  0  0  0  0  0  0  0  # atno 10763 bound_to 10752
  153.9473  135.2987  155.3441 H   0  0  0  0  0  0  0  0  0  0  0  0  # atno 10764 bound_to 10752
  154.7313  135.5121  153.9041 H   0  0  0  0  0  0  0  0  0  0  0  0  # atno 10765 bound_to 10752
  139.9744  134.9568  156.9473 H   0  0  0  0  0  0  0  0  0  0  0  0  # atno 11005 bound_to 11000
  145.5820  139.1489  143.3230 LP  0  0  0  0  0  0  0  0  0  0  0  0  # atno 17320 bound_to 7965
  146.2148  140.5949  142.9043 LP  0  0  0  0  0  0  0  0  0  0  0  0  # atno 17321 bound_to 7965
  139.6921  144.7645  151.1421 LP  0  0  0  0  0  0  0  0  0  0  0  0  # atno 17342 bound_to 10162
  140.7679  143.5575  150.9136 LP  0  0  0  0  0  0  0  0  0  0  0  0  # atno 17343 bound_to 10162
  157.5553  130.8209  149.8196 LP  0  0  0  0  0  0  0  0  0  0  0  0  # atno 17370 bound_to 10713
  156.0260  130.3779  150.1823 LP  0  0  0  0  0  0  0  0  0  0  0  0  # atno 17371 bound_to 10713
  140.5225  134.0894  155.7295 LP  0  0  0  0  0  0  0  0  0  0  0  0  # atno 17394 bound_to 11000
  141.1422  133.9117  157.2298 LP  0  0  0  0  0  0  0  0  0  0  0  0  # atno 17395 bound_to 11000

$$$$
