AV-unprocessed.smi:1312|AV-procd|sdf|5449|dock3
  -GOLD-   22720 5 23D 1   1.00000     0.00000
 Structure written by MMmdl.
 50 51  0  0  0  0  0  0  0  0  2 V2000
  143.2770  135.9713  152.3470 C   0  0  0  0  0  0  0  0  0  0  0  0
  144.2720  136.1414  153.5061 C   0  0  0  0  0  0  0  0  0  0  0  0
  145.7544  136.3292  153.0753 C   0  0  1  0  0  0  0  0  0  0  0  0
  146.6083  136.7641  154.3025 C   0  0  0  0  0  0  0  0  0  0  0  0
  147.9386  137.2620  153.9701 N   0  0  0  0  0  0  0  0  0  0  0  0
  148.6098  138.1934  154.6673 C   0  0  0  0  0  0  0  0  0  0  0  0
  148.1532  138.7372  155.6721 O   0  0  0  0  0  0  0  0  0  0  0  0
  149.9898  138.6008  154.1418 C   0  0  0  0  0  0  0  0  0  0  0  0
  150.7072  139.4926  155.1272 C   0  0  0  0  0  0  0  0  0  0  0  0
  151.9914  139.2793  155.7103 C   0  0  0  0  0  0  0  0  0  0  0  0
  152.9354  138.1308  155.4940 C   0  0  0  0  0  0  0  0  0  0  0  0
  152.3381  140.2516  156.5365 N   0  0  0  0  0  0  0  0  0  0  0  0
  151.3018  141.1129  156.5100 N   0  0  0  0  0  0  0  0  0  0  0  0
  151.3564  142.3141  157.3205 C   0  0  0  0  0  0  0  0  0  0  0  0
  150.2954  140.6827  155.6669 C   0  0  0  0  0  0  0  0  0  0  0  0
  149.0407  141.4699  155.4613 C   0  0  0  0  0  0  0  0  0  0  0  0
  146.3146  135.0911  152.4378 N   0  3  0  0  0  0  0  0  0  0  0  0
  146.3179  133.8604  153.2613 C   0  0  0  0  0  0  0  0  0  0  0  0
  146.5134  132.7187  152.2720 C   0  0  0  0  0  0  0  0  0  0  0  0
  145.6974  133.1696  151.0681 C   0  0  0  0  0  0  0  0  0  0  0  0
  145.7187  134.7027  151.1318 C   0  0  0  0  0  0  0  0  0  0  0  0
  142.2980  135.6762  152.7252 H   0  0  0  0  0  0  0  0  0  0  0  0
  143.6073  135.1985  151.6525 H   0  0  0  0  0  0  0  0  0  0  0  0
  143.1324  136.8938  151.7862 H   0  0  0  0  0  0  0  0  0  0  0  0
  143.9569  136.9735  154.1368 H   0  0  0  0  0  0  0  0  0  0  0  0
  144.1637  135.2432  154.1124 H   0  0  0  0  0  0  0  0  0  0  0  0
  145.7681  137.1226  152.3264 H   0  0  0  0  0  0  0  0  0  0  0  0
  146.1111  137.5452  154.8758 H   0  0  0  0  0  0  0  0  0  0  0  0
  146.7248  135.9226  154.9862 H   0  0  0  0  0  0  0  0  0  0  0  0
  148.3934  136.8580  153.1639 H   0  0  0  0  0  0  0  0  0  0  0  0
  150.5563  137.6942  153.9295 H   0  0  0  0  0  0  0  0  0  0  0  0
  149.8665  139.1052  153.1825 H   0  0  0  0  0  0  0  0  0  0  0  0
  152.7918  137.6790  154.5126 H   0  0  0  0  0  0  0  0  0  0  0  0
  152.7812  137.3537  156.2425 H   0  0  0  0  0  0  0  0  0  0  0  0
  153.9756  138.4522  155.5560 H   0  0  0  0  0  0  0  0  0  0  0  0
  151.0922  143.1809  156.7147 H   0  0  0  0  0  0  0  0  0  0  0  0
  152.3590  142.4613  157.7240 H   0  0  0  0  0  0  0  0  0  0  0  0
  150.6510  142.2284  158.1473 H   0  0  0  0  0  0  0  0  0  0  0  0
  148.2900  140.8917  154.9240 H   0  0  0  0  0  0  0  0  0  0  0  0
  149.2430  142.3724  154.8843 H   0  0  0  0  0  0  0  0  0  0  0  0
  148.6069  141.7684  156.4160 H   0  0  0  0  0  0  0  0  0  0  0  0
  147.1023  133.8741  154.0188 H   0  0  0  0  0  0  0  0  0  0  0  0
  145.3538  133.7471  153.7603 H   0  0  0  0  0  0  0  0  0  0  0  0
  147.5668  132.6388  151.9997 H   0  0  0  0  0  0  0  0  0  0  0  0
  146.1918  131.7541  152.6662 H   0  0  0  0  0  0  0  0  0  0  0  0
  146.0957  132.7832  150.1292 H   0  0  0  0  0  0  0  0  0  0  0  0
  144.6711  132.8122  151.1642 H   0  0  0  0  0  0  0  0  0  0  0  0
  144.7013  135.0810  151.0260 H   0  0  0  0  0  0  0  0  0  0  0  0
  146.3175  135.1176  150.3203 H   0  0  0  0  0  0  0  0  0  0  0  0
  147.2891  135.2809  152.2526 H   0  0  0  0  0  0  0  0  0  0  0  0
  1  2  1  0  0  0  0
  1 22  1  0  0  0  0
  1 23  1  0  0  0  0
  1 24  1  0  0  0  0
  2  3  1  0  0  0  0
  2 25  1  0  0  0  0
  2 26  1  0  0  0  0
  3  4  1  0  0  0  0
  3 17  1  0  0  0  0
  3 27  1  0  0  0  0
  4  5  1  0  0  0  0
  4 28  1  0  0  0  0
  4 29  1  0  0  0  0
  5  6  1  0  0  0  0
  5 30  1  0  0  0  0
  6  7  2  0  0  0  0
  6  8  1  0  0  0  0
  8  9  1  0  0  0  0
  8 31  1  0  0  0  0
  8 32  1  0  0  0  0
  9 15  2  0  0  0  0
  9 10  1  0  0  0  0
 10 11  1  0  0  0  0
 10 12  2  0  0  0  0
 11 33  1  0  0  0  0
 11 34  1  0  0  0  0
 11 35  1  0  0  0  0
 12 13  1  0  0  0  0
 13 14  1  0  0  0  0
 13 15  1  0  0  0  0
 14 36  1  0  0  0  0
 14 37  1  0  0  0  0
 14 38  1  0  0  0  0
 15 16  1  0  0  0  0
 16 39  1  0  0  0  0
 16 40  1  0  0  0  0
 16 41  1  0  0  0  0
 17 21  1  0  0  0  0
 17 18  1  0  0  0  0
 17 50  1  0  0  0  0
 18 19  1  0  0  0  0
 18 42  1  0  0  0  0
 18 43  1  0  0  0  0
 19 20  1  0  0  0  0
 19 44  1  0  0  0  0
 19 45  1  0  0  0  0
 20 21  1  0  0  0  0
 20 46  1  0  0  0  0
 20 47  1  0  0  0  0
 21 48  1  0  0  0  0
 21 49  1  0  0  0  0
M  CHG  1  17   1
M  END
> <s_m_source_file>
AV-unprocessed.smi

> <i_m_source_file_index>
1312

> <i_lp_mmshare_version>
43012

> <i_f3d_flags>
0

> <s_epik_input>
W0NIMl0xW0NIMl1bQ0gyXVtDSDJdTjFbQ0BIXShbQ0gyXVtDSDNdKVtDSDJdW05IXUMoPU8pW0NIMl1jMmMoW0NIM10pbm4oW0NIM10pYzJbQ0gzXQ==

> <s_epik_cmdline>
J2VwaWtfcHl0aG9uJywgJy1waCcsICc3LjAnLCAnLXRuJywgJzgnLCAnLW1hJywgJzIwMCcsICctbWV0YWxfYmluZGluZycsICctaW1hZScsICc8aW5maWxlLm1hZT4nLCAnLW9tYWUnLCAnPG91dGZpbGUubWFlPic=

> <r_lp_tautomer_probability>
1

> <r_epik_Ionization_Penalty>
0.00585463

> <r_epik_Ionization_Penalty_Charging>
0.00366302

> <r_epik_Ionization_Penalty_Neutral>
0.00219161

> <r_epik_State_Penalty>
-0

> <r_epik_Charging_Adjusted_Penalty>
0.00366302

> <i_epik_Tot_Q>
1

> <i_epik_Tot_abs_Q>
1

> <r_epik_Metal_State_Penalty>
-0

> <b_epik_Metal_Only>
0

> <s_lp_Force_Field>
OPLS_2005

> <r_lp_Energy>
35.2401

> <b_lp_Chiralities_Consistent>
1

> <s_lp_Variant>
AV-unprocessed.smi:1312-2

> <Gold.Version>
5.8.1

> <Gold.Id.Protein>
6NUR|6NUR_protein|mol2

> <Gold.PLP.Fitness>
45.6388

> <Gold.PLP.PLP>
-34.2130

> <Gold.PLP.part.hbond>
-2.9850

> <Gold.PLP.part.metal>
0.0000

> <Gold.PLP.part.buried>
-2.2986

> <Gold.PLP.part.nonpolar>
-29.2840

> <Gold.PLP.part.repulsive>
0.0400

> <Gold.PLP.ligand.clash>
0.0000

> <Gold.PLP.ligand.torsion>
0.4226

> <Gold.PLP.Chemscore.Hbond>
4.0000

> <Gold.PLP.Chemscore.CHOScore>
0.0000

> <Gold.PLP.Chemscore.Metal>
0.0000

> <Gold.Chemscore.Hbonds>
donor molecule, donor type, donor heavy atom, donor atom, acceptor molecule, acceptor atom, score
      L1  H     5    30       P1  7948  1.00
      L1  H    17    50       P1  7948  2.00
      P1  H  7997  8008       L1    12  1.00

> <Gold.PLP.Chemscore.Internal.Correction>
0.2710

> <Gold.Rescore>
     Score         DG    S(hbond)    S(metal)    S(lipo)     H(rot)  DE(clash)    DE(int)     intcor
     18.66     -20.45       2.82        0.00      85.26       1.72       0.23       1.57       ----

> <Gold.Chemscore.Fitness>
18.6594

> <Gold.Chemscore.DG>
-20.4534

> <Gold.Chemscore.ZeroCoef>
-5.4800

> <Gold.Chemscore.Hbond>
2.8159

> <Gold.Chemscore.Metal>
0.0000

> <Gold.Chemscore.Lipo>
85.2552

> <Gold.Chemscore.Internal_Hbond>
0.0000

> <Gold.Chemscore.DEClash>
0.2270

> <Gold.Chemscore.DEInternal>
1.5670

> <Gold.Chemscore.Rot>
1.7213

> <Gold.Chemscore.Internal.Correction>
   9.000000E+99

> <Gold.Chemscore.Hbonds>
donor molecule, donor type, donor heavy atom, donor atom, acceptor molecule, acceptor atom, score
      L1  H     5    30       P1  7948  0.94
      L1  H    17    50       P1  7948  0.99
      P1  H  7997  8008       L1    12  0.28

> <Gold.Chemscore.Hbond.Weighted>
-9.4051

> <Gold.Chemscore.Metal.Weighted>
-0.0000

> <Gold.Chemscore.Lipo.Weighted>
-9.9749

> <Gold.Chemscore.Internal_Hbond.Weighted>
0.0000

> <Gold.Chemscore.DEClash.Weighted>
0.2270

> <Gold.Chemscore.DEInternal.Weighted>
1.5670

> <Gold.Chemscore.Rot.Weighted>
4.4065

> <Gold.Chemscore.Internal.Correction.Weighted>
   9.000000E+99

> <Gold.Protein.RotatedTorsions>
[ 6907 6896 6895 6894 ] final  -79.72 input  -60.11 | X-H torsion
[ 7974 7965 7964 7962 ] final   -5.43 input  175.53 | X-H torsion
[ 8008 7997 7996 7995 ] final  -51.14 input   59.86 | X-H torsion
[ 10167 10162 10161 10158 ] final   92.06 input  -65.29 | X-H torsion
[ 10718 10713 10712 10709 ] final -123.60 input   66.30 | X-H torsion
[ 10763 10752 10751 10750 ] final   58.29 input  -60.55 | X-H torsion
[ 11005 11000 10999 10996 ] final  -62.48 input  -57.11 | X-H torsion

> <Gold.Protein.ActiveResidues>
 VAL166  LYS551  ARG553  GLY616  TRP617  ASP618  TYR619  PRO620  LYS621  CYS622 
 ASP623  PHE694  ASN695  SER759  ASP760  ASP761  ALA762  ILE779  LEU786  VAL792 
 PHE793  MET794  SER795  GLU796  ALA797  LYS798  CYS799  TRP800  GLU811  SER814 

> <Gold.Protein.RotatedAtoms>
  150.6944  134.4079  159.5148 H   0  0  0  0  0  0  0  0  0  0  0  0  # atno 6907 bound_to 6896
  152.1842  134.8725  160.0533 H   0  0  0  0  0  0  0  0  0  0  0  0  # atno 6908 bound_to 6896
  151.9704  133.3689  159.4106 H   0  0  0  0  0  0  0  0  0  0  0  0  # atno 6909 bound_to 6896
  146.2353  140.2019  142.8334 H   0  0  0  0  0  0  0  0  0  0  0  0  # atno 7974 bound_to 7965
  154.4076  140.1255  156.4780 H   0  0  0  0  0  0  0  0  0  0  0  0  # atno 8008 bound_to 7997
  155.7113  140.3494  155.4955 H   0  0  0  0  0  0  0  0  0  0  0  0  # atno 8009 bound_to 7997
  155.9298  140.1067  157.1131 H   0  0  0  0  0  0  0  0  0  0  0  0  # atno 8010 bound_to 7997
  139.8314  144.6685  150.9395 H   0  0  0  0  0  0  0  0  0  0  0  0  # atno 10167 bound_to 10162
  156.1516  130.6538  150.9921 H   0  0  0  0  0  0  0  0  0  0  0  0  # atno 10718 bound_to 10713
  152.9867  135.5612  154.5528 H   0  0  0  0  0  0  0  0  0  0  0  0  # atno 10763 bound_to 10752
  154.4961  135.2795  155.1460 H   0  0  0  0  0  0  0  0  0  0  0  0  # atno 10764 bound_to 10752
  154.2909  135.6326  153.5438 H   0  0  0  0  0  0  0  0  0  0  0  0  # atno 10765 bound_to 10752
  141.1361  133.6640  156.5534 H   0  0  0  0  0  0  0  0  0  0  0  0  # atno 11005 bound_to 11000
  144.9775  140.8428  143.5417 LP  0  0  0  0  0  0  0  0  0  0  0  0  # atno 17320 bound_to 7965
  145.2008  139.2253  143.5194 LP  0  0  0  0  0  0  0  0  0  0  0  0  # atno 17321 bound_to 7965
  140.7806  143.3997  151.1169 LP  0  0  0  0  0  0  0  0  0  0  0  0  # atno 17342 bound_to 10162
  139.7651  143.8578  152.3109 LP  0  0  0  0  0  0  0  0  0  0  0  0  # atno 17343 bound_to 10162
  157.6661  131.0871  150.7724 LP  0  0  0  0  0  0  0  0  0  0  0  0  # atno 17370 bound_to 10713
  156.7792  130.4854  149.5404 LP  0  0  0  0  0  0  0  0  0  0  0  0  # atno 17371 bound_to 10713
  140.4045  134.7327  157.4800 LP  0  0  0  0  0  0  0  0  0  0  0  0  # atno 17394 bound_to 11000
  140.0472  134.6183  155.8907 LP  0  0  0  0  0  0  0  0  0  0  0  0  # atno 17395 bound_to 11000

$$$$
