AV-unprocessed.smi:515|AV-procd|sdf|2781|dock8
  -GOLD-   2262023253D 1   1.00000     0.00000
 Structure written by MMmdl.
 48 50  0  0  0  0  0  0  0  0  2 V2000
  149.2759  139.0759  153.5821 C   0  0  0  0  0  0  0  0  0  0  0  0
  150.7382  138.7745  153.9163 C   0  0  0  0  0  0  0  0  0  0  0  0
  151.2848  139.8872  154.6013 O   0  0  0  0  0  0  0  0  0  0  0  0
  152.1483  139.5165  155.6628 C   0  0  0  0  0  0  0  0  0  0  0  0
  151.3183  138.9789  156.8375 C   0  0  0  0  0  0  0  0  0  0  0  0
  151.4213  139.8315  158.0176 N   0  0  0  0  0  0  0  0  0  0  0  0
  151.8454  139.4807  159.2608 C   0  0  0  0  0  0  0  0  0  0  0  0
  152.3033  138.0966  159.6256 C   0  0  0  0  0  0  0  0  0  0  0  0
  152.3610  138.0947  161.1095 N   0  3  0  0  0  0  0  0  0  0  0  0
  152.3326  136.7380  161.7134 C   0  0  0  0  0  0  0  0  0  0  0  0
  152.3585  136.8333  163.2479 C   0  0  0  0  0  0  0  0  0  0  0  0
  153.5075  137.5615  163.6627 O   0  0  0  0  0  0  0  0  0  0  0  0
  153.5008  138.8933  163.1640 C   0  0  0  0  0  0  0  0  0  0  0  0
  153.5147  138.8675  161.6263 C   0  0  0  0  0  0  0  0  0  0  0  0
  151.8310  140.4822  160.1467 N   0  0  0  0  0  0  0  0  0  0  0  0
  151.3674  141.5589  159.4057 C   0  0  0  0  0  0  0  0  0  0  0  0
  151.1208  141.1904  158.1236 C   0  0  0  0  0  0  0  0  0  0  0  0
  150.6363  142.1392  157.1104 C   0  0  0  0  0  0  0  0  0  0  0  0
  150.4119  141.8302  155.9425 O   0  0  0  0  0  0  0  0  0  0  0  0
  150.4648  143.3926  157.5960 N   0  0  0  0  0  0  0  0  0  0  0  0
  150.6904  143.8280  158.8731 C   0  0  0  0  0  0  0  0  0  0  0  0
  150.4894  145.0063  159.1662 O   0  0  0  0  0  0  0  0  0  0  0  0
  151.1400  142.9112  159.7888 N   0  0  0  0  0  0  0  0  0  0  0  0
  151.3961  143.3225  161.1704 C   0  0  0  0  0  0  0  0  0  0  0  0
  150.1345  144.0850  156.9396 H   0  0  0  0  0  0  0  0  0  0  0  0
  148.8173  138.2408  153.0525 H   0  0  0  0  0  0  0  0  0  0  0  0
  149.1933  139.9603  152.9500 H   0  0  0  0  0  0  0  0  0  0  0  0
  148.6970  139.2564  154.4882 H   0  0  0  0  0  0  0  0  0  0  0  0
  150.8018  137.8799  154.5372 H   0  0  0  0  0  0  0  0  0  0  0  0
  151.2990  138.5838  153.0002 H   0  0  0  0  0  0  0  0  0  0  0  0
  152.8493  138.7519  155.3254 H   0  0  0  0  0  0  0  0  0  0  0  0
  152.7345  140.3792  155.9824 H   0  0  0  0  0  0  0  0  0  0  0  0
  150.2729  138.8830  156.5496 H   0  0  0  0  0  0  0  0  0  0  0  0
  151.6343  137.9683  157.0933 H   0  0  0  0  0  0  0  0  0  0  0  0
  151.6518  137.3134  159.2405 H   0  0  0  0  0  0  0  0  0  0  0  0
  153.2949  137.9408  159.1985 H   0  0  0  0  0  0  0  0  0  0  0  0
  151.4374  136.1983  161.4039 H   0  0  0  0  0  0  0  0  0  0  0  0
  153.1904  136.1631  161.3610 H   0  0  0  0  0  0  0  0  0  0  0  0
  151.4530  137.3124  163.6239 H   0  0  0  0  0  0  0  0  0  0  0  0
  152.3957  135.8356  163.6854 H   0  0  0  0  0  0  0  0  0  0  0  0
  152.6283  139.4315  163.5380 H   0  0  0  0  0  0  0  0  0  0  0  0
  154.3813  139.4154  163.5387 H   0  0  0  0  0  0  0  0  0  0  0  0
  154.4440  138.4219  161.2676 H   0  0  0  0  0  0  0  0  0  0  0  0
  153.4785  139.8880  161.2428 H   0  0  0  0  0  0  0  0  0  0  0  0
  150.4992  143.7565  161.6148 H   0  0  0  0  0  0  0  0  0  0  0  0
  152.1891  144.0708  161.2039 H   0  0  0  0  0  0  0  0  0  0  0  0
  151.7026  142.4921  161.8062 H   0  0  0  0  0  0  0  0  0  0  0  0
  151.5314  138.5775  161.4255 H   0  0  0  0  0  0  0  0  0  0  0  0
  1  2  1  0  0  0  0
  1 26  1  0  0  0  0
  1 27  1  0  0  0  0
  1 28  1  0  0  0  0
  2  3  1  0  0  0  0
  2 29  1  0  0  0  0
  2 30  1  0  0  0  0
  3  4  1  0  0  0  0
  4  5  1  0  0  0  0
  4 31  1  0  0  0  0
  4 32  1  0  0  0  0
  5  6  1  0  0  0  0
  5 33  1  0  0  0  0
  5 34  1  0  0  0  0
  6 17  1  0  0  0  0
  6  7  1  0  0  0  0
  7  8  1  0  0  0  0
  7 15  2  0  0  0  0
  8  9  1  0  0  0  0
  8 35  1  0  0  0  0
  8 36  1  0  0  0  0
  9 14  1  0  0  0  0
  9 10  1  0  0  0  0
  9 48  1  0  0  0  0
 10 11  1  0  0  0  0
 10 37  1  0  0  0  0
 10 38  1  0  0  0  0
 11 12  1  0  0  0  0
 11 39  1  0  0  0  0
 11 40  1  0  0  0  0
 12 13  1  0  0  0  0
 13 14  1  0  0  0  0
 13 41  1  0  0  0  0
 13 42  1  0  0  0  0
 14 43  1  0  0  0  0
 14 44  1  0  0  0  0
 15 16  1  0  0  0  0
 16 23  1  0  0  0  0
 16 17  2  0  0  0  0
 17 18  1  0  0  0  0
 18 19  2  0  0  0  0
 18 20  1  0  0  0  0
 20 25  1  0  0  0  0
 20 21  1  0  0  0  0
 21 22  2  0  0  0  0
 21 23  1  0  0  0  0
 23 24  1  0  0  0  0
 24 45  1  0  0  0  0
 24 46  1  0  0  0  0
 24 47  1  0  0  0  0
M  CHG  1   9   1
M  END
> <s_m_source_file>
AV-unprocessed.smi

> <i_m_source_file_index>
515

> <i_lp_mmshare_version>
43012

> <i_f3d_flags>
0

> <s_epik_input>
W0NIM11uMWMoPU8pW25IXWMoPU8pYyhjMTIpbihbQ0gyXVtDSDJdT1tDSDJdW0NIM10pYyhuMilbQ0gyXU4zW0NIMl1bQ0gyXU9bQ0gyXVtDSDJdMw==

> <s_epik_cmdline>
J2VwaWtfcHl0aG9uJywgJy1waCcsICc3LjAnLCAnLXRuJywgJzgnLCAnLW1hJywgJzIwMCcsICctbWV0YWxfYmluZGluZycsICctaW1hZScsICc8aW5maWxlLm1hZT4nLCAnLW9tYWUnLCAnPG91dGZpbGUubWFlPic=

> <r_epik_Ionization_Penalty>
1.12075

> <r_epik_Ionization_Penalty_Charging>
1.12075

> <r_epik_Ionization_Penalty_Neutral>
5.33793e-09

> <r_epik_State_Penalty>
1.17893

> <r_epik_Charging_Adjusted_Penalty>
2.29968

> <i_epik_Tot_Q>
1

> <i_epik_Tot_abs_Q>
1

> <r_epik_Metal_State_Penalty>
1.3264

> <b_epik_Metal_Only>
0

> <s_lp_Force_Field>
OPLS_2005

> <r_lp_Energy>
34.9817

> <b_lp_Chiralities_Consistent>
1

> <s_lp_Variant>
AV-unprocessed.smi:515-2

> <Gold.Version>
5.8.1

> <Gold.Id.Protein>
6NUR|6NUR_protein|mol2

> <Gold.PLP.Fitness>
48.4289

> <Gold.PLP.PLP>
-44.3220

> <Gold.PLP.part.hbond>
-2.4295

> <Gold.PLP.part.metal>
0.0000

> <Gold.PLP.part.buried>
-6.0293

> <Gold.PLP.part.nonpolar>
-34.9858

> <Gold.PLP.part.repulsive>
0.3511

> <Gold.PLP.ligand.clash>
0.0000

> <Gold.PLP.ligand.torsion>
0.9854

> <Gold.PLP.Chemscore.Hbond>
2.0000

> <Gold.PLP.Chemscore.CHOScore>
0.0000

> <Gold.PLP.Chemscore.Metal>
0.0000

> <Gold.Chemscore.Hbonds>
donor molecule, donor type, donor heavy atom, donor atom, acceptor molecule, acceptor atom, score
      L1  H    20    25       P1  8028  1.00
      P1  H  7989  7998       L1     3  0.96

> <Gold.PLP.Chemscore.Internal.Correction>
0.0777

> <Gold.Rescore>
     Score         DG    S(hbond)    S(metal)    S(lipo)     H(rot)  DE(clash)    DE(int)     intcor
     11.54     -15.56       1.97        0.00      78.38       2.22       0.04       3.98       ----

> <Gold.Chemscore.Fitness>
11.5384

> <Gold.Chemscore.DG>
-15.5553

> <Gold.Chemscore.ZeroCoef>
-5.4800

> <Gold.Chemscore.Hbond>
1.9709

> <Gold.Chemscore.Metal>
0.0000

> <Gold.Chemscore.Lipo>
78.3846

> <Gold.Chemscore.Internal_Hbond>
0.0000

> <Gold.Chemscore.DEClash>
0.0414

> <Gold.Chemscore.DEInternal>
3.9756

> <Gold.Chemscore.Rot>
2.2182

> <Gold.Chemscore.Internal.Correction>
   9.000000E+99

> <Gold.Chemscore.Hbonds>
donor molecule, donor type, donor heavy atom, donor atom, acceptor molecule, acceptor atom, score
      L1  H    20    25       P1  8028  0.93
      P1  H  7989  7998       L1     3  0.41

> <Gold.Chemscore.Hbond.Weighted>
-6.5829

> <Gold.Chemscore.Metal.Weighted>
-0.0000

> <Gold.Chemscore.Lipo.Weighted>
-9.1710

> <Gold.Chemscore.Internal_Hbond.Weighted>
0.0000

> <Gold.Chemscore.DEClash.Weighted>
0.0414

> <Gold.Chemscore.DEInternal.Weighted>
3.9756

> <Gold.Chemscore.Rot.Weighted>
5.6785

> <Gold.Chemscore.Internal.Correction.Weighted>
   9.000000E+99

> <Gold.Protein.RotatedTorsions>
[ 6907 6896 6895 6894 ] final    4.08 input  -60.11 | X-H torsion
[ 7974 7965 7964 7962 ] final   31.60 input  175.53 | X-H torsion
[ 8008 7997 7996 7995 ] final   64.80 input   59.86 | X-H torsion
[ 10167 10162 10161 10158 ] final   -6.77 input  -65.29 | X-H torsion
[ 10718 10713 10712 10709 ] final  149.17 input   66.30 | X-H torsion
[ 10763 10752 10751 10750 ] final   65.34 input  -60.55 | X-H torsion
[ 11005 11000 10999 10996 ] final  100.88 input  -57.11 | X-H torsion

> <Gold.Protein.ActiveResidues>
 VAL166  LYS551  ARG553  GLY616  TRP617  ASP618  TYR619  PRO620  LYS621  CYS622 
 ASP623  PHE694  ASN695  SER759  ASP760  ASP761  ALA762  ILE779  LEU786  VAL792 
 PHE793  MET794  SER795  GLU796  ALA797  LYS798  CYS799  TRP800  GLU811  SER814 

> <Gold.Protein.RotatedAtoms>
  151.6356  135.1018  160.0130 H   0  0  0  0  0  0  0  0  0  0  0  0  # atno 6907 bound_to 6896
  152.4082  133.6918  159.6383 H   0  0  0  0  0  0  0  0  0  0  0  0  # atno 6908 bound_to 6896
  150.7975  133.8587  159.3267 H   0  0  0  0  0  0  0  0  0  0  0  0  # atno 6909 bound_to 6896
  146.1540  139.6636  142.9079 H   0  0  0  0  0  0  0  0  0  0  0  0  # atno 7974 bound_to 7965
  155.6517  140.3497  155.4750 H   0  0  0  0  0  0  0  0  0  0  0  0  # atno 8008 bound_to 7997
  155.9842  140.1180  157.0722 H   0  0  0  0  0  0  0  0  0  0  0  0  # atno 8009 bound_to 7997
  154.4200  140.1132  156.5463 H   0  0  0  0  0  0  0  0  0  0  0  0  # atno 8010 bound_to 7997
  140.7008  143.6156  150.8661 H   0  0  0  0  0  0  0  0  0  0  0  0  # atno 10167 bound_to 10162
  157.2995  131.0868  151.1401 H   0  0  0  0  0  0  0  0  0  0  0  0  # atno 10718 bound_to 10713
  153.0092  135.5360  154.6651 H   0  0  0  0  0  0  0  0  0  0  0  0  # atno 10763 bound_to 10752
  154.5850  135.2853  155.0696 H   0  0  0  0  0  0  0  0  0  0  0  0  # atno 10764 bound_to 10752
  154.1811  135.6516  153.5087 H   0  0  0  0  0  0  0  0  0  0  0  0  # atno 10765 bound_to 10752
  139.8772  134.9159  156.4823 H   0  0  0  0  0  0  0  0  0  0  0  0  # atno 11005 bound_to 11000
  145.4754  141.0437  143.2675 LP  0  0  0  0  0  0  0  0  0  0  0  0  # atno 17320 bound_to 7965
  144.7940  139.6272  143.7101 LP  0  0  0  0  0  0  0  0  0  0  0  0  # atno 17321 bound_to 7965
  139.9878  143.5880  152.2921 LP  0  0  0  0  0  0  0  0  0  0  0  0  # atno 17342 bound_to 10162
  139.6524  144.7661  151.2121 LP  0  0  0  0  0  0  0  0  0  0  0  0  # atno 17343 bound_to 10162
  157.2765  130.6729  149.6045 LP  0  0  0  0  0  0  0  0  0  0  0  0  # atno 17370 bound_to 10713
  155.9671  130.4463  150.5534 LP  0  0  0  0  0  0  0  0  0  0  0  0  # atno 17371 bound_to 10713
  140.8718  133.7983  155.9372 LP  0  0  0  0  0  0  0  0  0  0  0  0  # atno 17394 bound_to 11000
  140.8945  134.2455  157.5076 LP  0  0  0  0  0  0  0  0  0  0  0  0  # atno 17395 bound_to 11000

$$$$
