AV-unprocessed.smi:561|AV-procd|sdf|2938|dock10
  -GOLD-   2262023433D 1   1.00000     0.00000
 Structure written by MMmdl.
 36 37  0  0  0  0  0  0  0  0  1 V2000
  144.3294  135.1388  153.4141 C   0  0  0  0  0  0  0  0  0  0  0  0
  145.3804  135.3284  152.3125 C   0  0  2  0  0  0  0  0  0  0  0  0
  146.0942  134.0018  151.9799 C   0  0  0  0  0  0  0  0  0  0  0  0
  145.3695  133.2054  151.0063 N   0  0  0  0  0  0  0  0  0  0  0  0
  143.9912  133.1001  150.8693 C   0  0  0  0  0  0  0  0  0  0  0  0
  143.7655  132.2306  149.8264 C   0  0  0  0  0  0  0  0  0  0  0  0
  144.9826  131.7961  149.3064 N   0  0  0  0  0  0  0  0  0  0  0  0
  145.8860  132.4163  150.0544 C   0  0  0  0  0  0  0  0  0  0  0  0
  146.3462  136.3379  152.7442 N   0  0  0  0  0  0  0  0  0  0  0  0
  146.0507  137.5068  153.3436 C   0  0  0  0  0  0  0  0  0  0  0  0
  144.9023  137.8422  153.6348 O   0  0  0  0  0  0  0  0  0  0  0  0
  147.2038  138.4017  153.6255 C   0  0  0  0  0  0  0  0  0  0  0  0
  148.3035  137.9112  154.1061 N   0  0  0  0  0  0  0  0  0  0  0  0
  149.4058  138.7001  154.3642 N   0  0  0  0  0  0  0  0  0  0  0  0
  150.6384  137.9626  154.6346 C   0  0  0  0  0  0  0  0  0  0  0  0
  149.3926  140.0559  154.4002 C   0  0  0  0  0  0  0  0  0  0  0  0
  150.3899  140.7447  154.6151 O   0  0  0  0  0  0  0  0  0  0  0  0
  148.0345  140.7307  154.1867 C   0  0  0  0  0  0  0  0  0  0  0  0
  147.0919  139.8804  153.3121 C   0  0  0  0  0  0  0  0  0  0  0  0
  143.5779  134.4067  153.1169 H   0  0  0  0  0  0  0  0  0  0  0  0
  143.8104  136.0740  153.6271 H   0  0  0  0  0  0  0  0  0  0  0  0
  144.7840  134.7905  154.3422 H   0  0  0  0  0  0  0  0  0  0  0  0
  144.8530  135.6724  151.4209 H   0  0  0  0  0  0  0  0  0  0  0  0
  147.0988  134.1916  151.5994 H   0  0  0  0  0  0  0  0  0  0  0  0
  146.2108  133.4016  152.8832 H   0  0  0  0  0  0  0  0  0  0  0  0
  143.3049  133.6321  151.5115 H   0  0  0  0  0  0  0  0  0  0  0  0
  142.8284  131.8874  149.4136 H   0  0  0  0  0  0  0  0  0  0  0  0
  146.9490  132.2889  149.9106 H   0  0  0  0  0  0  0  0  0  0  0  0
  147.3182  136.1489  152.5451 H   0  0  0  0  0  0  0  0  0  0  0  0
  151.0285  138.2119  155.6226 H   0  0  0  0  0  0  0  0  0  0  0  0
  151.4011  138.2087  153.8944 H   0  0  0  0  0  0  0  0  0  0  0  0
  150.4854  136.8824  154.6039 H   0  0  0  0  0  0  0  0  0  0  0  0
  147.5862  140.8820  155.1694 H   0  0  0  0  0  0  0  0  0  0  0  0
  148.1705  141.7195  153.7475 H   0  0  0  0  0  0  0  0  0  0  0  0
  147.3165  140.0417  152.2572 H   0  0  0  0  0  0  0  0  0  0  0  0
  146.0703  140.2303  153.4659 H   0  0  0  0  0  0  0  0  0  0  0  0
  1  2  1  0  0  0  0
  1 20  1  0  0  0  0
  1 21  1  0  0  0  0
  1 22  1  0  0  0  0
  2  3  1  0  0  0  0
  2  9  1  0  0  0  0
  2 23  1  0  0  0  0
  3  4  1  0  0  0  0
  3 24  1  0  0  0  0
  3 25  1  0  0  0  0
  4  8  1  0  0  0  0
  4  5  1  0  0  0  0
  5  6  2  0  0  0  0
  5 26  1  0  0  0  0
  6  7  1  0  0  0  0
  6 27  1  0  0  0  0
  7  8  2  0  0  0  0
  8 28  1  0  0  0  0
  9 10  1  0  0  0  0
  9 29  1  0  0  0  0
 10 11  2  0  0  0  0
 10 12  1  0  0  0  0
 12 19  1  0  0  0  0
 12 13  2  0  0  0  0
 13 14  1  0  0  0  0
 14 15  1  0  0  0  0
 14 16  1  0  0  0  0
 15 30  1  0  0  0  0
 15 31  1  0  0  0  0
 15 32  1  0  0  0  0
 16 17  2  0  0  0  0
 16 18  1  0  0  0  0
 18 19  1  0  0  0  0
 18 33  1  0  0  0  0
 18 34  1  0  0  0  0
 19 35  1  0  0  0  0
 19 36  1  0  0  0  0
M  END
> <s_m_source_file>
AV-unprocessed.smi

> <i_m_source_file_index>
561

> <i_lp_mmshare_version>
43012

> <i_f3d_flags>
0

> <s_epik_input>
W2NIXTFuW2NIXVtjSF1uMVtDSDJdW0NAQEhdKFtDSDNdKVtOSF1DKD1PKUMyPU5OKFtDSDNdKUMoPU8pW0NIMl1bQ0gyXTI=

> <s_epik_cmdline>
J2VwaWtfcHl0aG9uJywgJy1waCcsICc3LjAnLCAnLXRuJywgJzgnLCAnLW1hJywgJzIwMCcsICctbWV0YWxfYmluZGluZycsICctaW1hZScsICc8aW5maWxlLm1hZT4nLCAnLW9tYWUnLCAnPG91dGZpbGUubWFlPic=

> <r_lp_tautomer_probability>
1

> <r_epik_Ionization_Penalty>
0.46798

> <r_epik_Ionization_Penalty_Charging>
0.467902

> <r_epik_Ionization_Penalty_Neutral>
7.78263e-05

> <r_epik_State_Penalty>
0.47192

> <r_epik_Charging_Adjusted_Penalty>
0.939822

> <i_epik_Tot_Q>
0

> <i_epik_Tot_abs_Q>
0

> <r_epik_Metal_State_Penalty>
0.280825

> <b_epik_Metal_Only>
0

> <s_epik_Chemistry_Notes>
This compound has an imine and may undergo hydrolysis.

> <s_lp_Force_Field>
OPLS_2005

> <r_lp_Energy>
18.1828

> <b_lp_Chiralities_Consistent>
1

> <s_lp_Variant>
AV-unprocessed.smi:561-3

> <Gold.Version>
5.8.1

> <Gold.Id.Protein>
6NUR|6NUR_protein|mol2

> <Gold.PLP.Fitness>
38.1964

> <Gold.PLP.PLP>
-29.7517

> <Gold.PLP.part.hbond>
-2.9682

> <Gold.PLP.part.metal>
0.0000

> <Gold.PLP.part.buried>
-5.1247

> <Gold.PLP.part.nonpolar>
-25.6365

> <Gold.PLP.part.repulsive>
2.3403

> <Gold.PLP.ligand.clash>
0.0000

> <Gold.PLP.ligand.torsion>
1.5506

> <Gold.PLP.Chemscore.Hbond>
1.8480

> <Gold.PLP.Chemscore.CHOScore>
1.9967

> <Gold.PLP.Chemscore.Metal>
0.0000

> <Gold.Chemscore.Hbonds>
donor molecule, donor type, donor heavy atom, donor atom, acceptor molecule, acceptor atom, score
      L1  H     9    29       P1  7948  1.00
      P1  H  7989  7998       L1    17  0.83
      L1  C     6    27       P1 10952  0.99
      L1  C     8    28       P1 10747  1.00

> <Gold.PLP.Chemscore.Internal.Correction>
0.0117

> <Gold.Rescore>
     Score         DG    S(hbond)    S(metal)    S(lipo)     H(rot)  DE(clash)    DE(int)     intcor
     10.23     -13.21       1.81        0.00      51.68       1.71       0.07       2.90       ----

> <Gold.Chemscore.Fitness>
10.2314

> <Gold.Chemscore.DG>
-13.2080

> <Gold.Chemscore.ZeroCoef>
-5.4800

> <Gold.Chemscore.Hbond>
1.8130

> <Gold.Chemscore.Metal>
0.0000

> <Gold.Chemscore.Lipo>
51.6791

> <Gold.Chemscore.Internal_Hbond>
0.0000

> <Gold.Chemscore.DEClash>
0.0727

> <Gold.Chemscore.DEInternal>
2.9038

> <Gold.Chemscore.Rot>
1.7086

> <Gold.Chemscore.Internal.Correction>
   9.000000E+99

> <Gold.Chemscore.Hbonds>
donor molecule, donor type, donor heavy atom, donor atom, acceptor molecule, acceptor atom, score
      L1  H     9    29       P1  7948  1.00
      P1  H  7989  7998       L1    17  0.82

> <Gold.Chemscore.Hbond.Weighted>
-6.0555

> <Gold.Chemscore.Metal.Weighted>
-0.0000

> <Gold.Chemscore.Lipo.Weighted>
-6.0465

> <Gold.Chemscore.Internal_Hbond.Weighted>
0.0000

> <Gold.Chemscore.DEClash.Weighted>
0.0727

> <Gold.Chemscore.DEInternal.Weighted>
2.9038

> <Gold.Chemscore.Rot.Weighted>
4.3739

> <Gold.Chemscore.Internal.Correction.Weighted>
   9.000000E+99

> <Gold.Protein.RotatedTorsions>
[ 6907 6896 6895 6894 ] final   -1.25 input  -60.11 | X-H torsion
[ 7974 7965 7964 7962 ] final   85.36 input  175.53 | X-H torsion
[ 8008 7997 7996 7995 ] final   85.93 input   59.86 | X-H torsion
[ 10167 10162 10161 10158 ] final -114.79 input  -65.29 | X-H torsion
[ 10718 10713 10712 10709 ] final  -64.30 input   66.30 | X-H torsion
[ 10763 10752 10751 10750 ] final -154.44 input  -60.55 | X-H torsion
[ 11005 11000 10999 10996 ] final -133.44 input  -57.11 | X-H torsion

> <Gold.Protein.ActiveResidues>
 VAL166  LYS551  ARG553  GLY616  TRP617  ASP618  TYR619  PRO620  LYS621  CYS622 
 ASP623  PHE694  ASN695  SER759  ASP760  ASP761  ALA762  ILE779  LEU786  VAL792 
 PHE793  MET794  SER795  GLU796  ALA797  LYS798  CYS799  TRP800  GLU811  SER814 

> <Gold.Protein.RotatedAtoms>
  151.5490  135.1067  159.9944 H   0  0  0  0  0  0  0  0  0  0  0  0  # atno 6907 bound_to 6896
  152.4500  133.7606  159.6755 H   0  0  0  0  0  0  0  0  0  0  0  0  # atno 6908 bound_to 6896
  150.8426  133.7845  159.3079 H   0  0  0  0  0  0  0  0  0  0  0  0  # atno 6909 bound_to 6896
  145.5865  139.2332  143.2323 H   0  0  0  0  0  0  0  0  0  0  0  0  # atno 7974 bound_to 7965
  155.9563  140.3397  155.6451 H   0  0  0  0  0  0  0  0  0  0  0  0  # atno 8008 bound_to 7997
  155.6856  140.0743  157.2486 H   0  0  0  0  0  0  0  0  0  0  0  0  # atno 8009 bound_to 7997
  154.4133  140.1666  156.2018 H   0  0  0  0  0  0  0  0  0  0  0  0  # atno 8010 bound_to 7997
  140.0971  143.4646  152.1835 H   0  0  0  0  0  0  0  0  0  0  0  0  # atno 10167 bound_to 10162
  156.0738  130.4231  150.1400 H   0  0  0  0  0  0  0  0  0  0  0  0  # atno 10718 bound_to 10713
  154.7858  135.3190  154.7888 H   0  0  0  0  0  0  0  0  0  0  0  0  # atno 10763 bound_to 10752
  153.8589  135.6855  153.4789 H   0  0  0  0  0  0  0  0  0  0  0  0  # atno 10764 bound_to 10752
  153.1510  135.4699  154.9575 H   0  0  0  0  0  0  0  0  0  0  0  0  # atno 10765 bound_to 10752
  140.9080  134.1605  157.4411 H   0  0  0  0  0  0  0  0  0  0  0  0  # atno 11005 bound_to 11000
  146.1678  140.6691  142.9247 LP  0  0  0  0  0  0  0  0  0  0  0  0  # atno 17320 bound_to 7965
  144.7370  140.4837  143.6896 LP  0  0  0  0  0  0  0  0  0  0  0  0  # atno 17321 bound_to 7965
  139.5692  144.7453  151.3938 LP  0  0  0  0  0  0  0  0  0  0  0  0  # atno 17342 bound_to 10162
  140.6998  143.7661  150.7384 LP  0  0  0  0  0  0  0  0  0  0  0  0  # atno 17343 bound_to 10162
  156.9445  130.9755  151.3510 LP  0  0  0  0  0  0  0  0  0  0  0  0  # atno 17370 bound_to 10713
  157.5823  130.8385  149.8539 LP  0  0  0  0  0  0  0  0  0  0  0  0  # atno 17371 bound_to 10713
  139.8752  134.9924  156.5597 LP  0  0  0  0  0  0  0  0  0  0  0  0  # atno 17394 bound_to 11000
  140.8146  133.8401  155.8841 LP  0  0  0  0  0  0  0  0  0  0  0  0  # atno 17395 bound_to 11000

$$$$
