AV-unprocessed.smi:1947|AV-procd|sdf|7867|dock2
  -GOLD-   2272010 13D 1   1.00000     0.00000
 Structure written by MMmdl.
 39 40  0  0  0  0  0  0  0  0  1 V2000
  153.2282  142.1862  160.8032 C   0  0  0  0  0  0  0  0  0  0  0  0
  152.9341  143.4838  160.0328 C   0  0  2  0  0  0  0  0  0  0  0  0
  151.8742  144.3469  160.7455 C   0  0  0  0  0  0  0  0  0  0  0  0
  151.6072  145.6537  159.9815 C   0  0  0  0  0  0  0  0  0  0  0  0
  151.1970  145.3768  158.5270 C   0  0  0  0  0  0  0  0  0  0  0  0
  152.2450  144.5134  157.8043 C   0  0  0  0  0  0  0  0  0  0  0  0
  152.5326  143.2066  158.5672 C   0  0  2  0  0  0  0  0  0  0  0  0
  151.3569  142.4069  158.5599 O   0  0  0  0  0  0  0  0  0  0  0  0
  150.9386  141.9931  157.2692 C   0  0  0  0  0  0  0  0  0  0  0  0
  149.4765  141.5261  157.3478 C   0  0  0  0  0  0  0  0  0  0  0  0
  148.5453  142.6495  157.3101 N   0  0  0  0  0  0  0  0  0  0  0  0
  147.3516  142.6906  157.9178 C   0  0  0  0  0  0  0  0  0  0  0  0
  146.8663  141.7384  158.5284 O   0  0  0  0  0  0  0  0  0  0  0  0
  146.7796  143.8967  157.7751 N   0  0  0  0  0  0  0  0  0  0  0  0
  145.5728  144.3625  158.3532 C   0  0  0  0  0  0  0  0  0  0  0  0
  144.7400  143.4584  158.8821 N   0  0  0  0  0  0  0  0  0  0  0  0
  143.5949  144.0480  159.4038 N   0  0  0  0  0  0  0  0  0  0  0  0
  143.6087  145.3751  159.2457 C   0  0  0  0  0  0  0  0  0  0  0  0
  145.0215  146.0378  158.4430 S   0  0  0  0  0  0  0  0  0  0  0  0
  152.3387  141.5619  160.8907 H   0  0  0  0  0  0  0  0  0  0  0  0
  153.5811  142.4007  161.8122 H   0  0  0  0  0  0  0  0  0  0  0  0
  153.9980  141.5983  160.3027 H   0  0  0  0  0  0  0  0  0  0  0  0
  153.8618  144.0577  160.0126 H   0  0  0  0  0  0  0  0  0  0  0  0
  150.9443  143.7853  160.8452 H   0  0  0  0  0  0  0  0  0  0  0  0
  152.2028  144.5784  161.7592 H   0  0  0  0  0  0  0  0  0  0  0  0
  150.8270  146.2252  160.4849 H   0  0  0  0  0  0  0  0  0  0  0  0
  152.5036  146.2748  159.9963 H   0  0  0  0  0  0  0  0  0  0  0  0
  150.2308  144.8710  158.5108 H   0  0  0  0  0  0  0  0  0  0  0  0
  151.0601  146.3178  157.9939 H   0  0  0  0  0  0  0  0  0  0  0  0
  151.9089  144.2901  156.7914 H   0  0  0  0  0  0  0  0  0  0  0  0
  153.1700  145.0819  157.7017 H   0  0  0  0  0  0  0  0  0  0  0  0
  153.3598  142.6878  158.0783 H   0  0  0  0  0  0  0  0  0  0  0  0
  151.0341  142.8179  156.5616 H   0  0  0  0  0  0  0  0  0  0  0  0
  151.5742  141.1814  156.9123 H   0  0  0  0  0  0  0  0  0  0  0  0
  149.2532  140.8760  156.5017 H   0  0  0  0  0  0  0  0  0  0  0  0
  149.3128  140.9345  158.2497 H   0  0  0  0  0  0  0  0  0  0  0  0
  148.8605  143.4788  156.8285 H   0  0  0  0  0  0  0  0  0  0  0  0
  147.2844  144.5731  157.2215 H   0  0  0  0  0  0  0  0  0  0  0  0
  142.7798  145.9677  159.6033 H   0  0  0  0  0  0  0  0  0  0  0  0
  1  2  1  0  0  0  0
  1 20  1  0  0  0  0
  1 21  1  0  0  0  0
  1 22  1  0  0  0  0
  2  7  1  0  0  0  0
  2  3  1  0  0  0  0
  2 23  1  0  0  0  0
  3  4  1  0  0  0  0
  3 24  1  0  0  0  0
  3 25  1  0  0  0  0
  4  5  1  0  0  0  0
  4 26  1  0  0  0  0
  4 27  1  0  0  0  0
  5  6  1  0  0  0  0
  5 28  1  0  0  0  0
  5 29  1  0  0  0  0
  6  7  1  0  0  0  0
  6 30  1  0  0  0  0
  6 31  1  0  0  0  0
  7  8  1  0  0  0  0
  7 32  1  0  0  0  0
  8  9  1  0  0  0  0
  9 10  1  0  0  0  0
  9 33  1  0  0  0  0
  9 34  1  0  0  0  0
 10 11  1  0  0  0  0
 10 35  1  0  0  0  0
 10 36  1  0  0  0  0
 11 12  1  0  0  0  0
 11 37  1  0  0  0  0
 12 13  2  0  0  0  0
 12 14  1  0  0  0  0
 14 15  1  0  0  0  0
 14 38  1  0  0  0  0
 15 19  1  0  0  0  0
 15 16  2  0  0  0  0
 16 17  1  0  0  0  0
 17 18  2  0  0  0  0
 18 19  1  0  0  0  0
 18 39  1  0  0  0  0
M  END
> <s_m_source_file>
AV-unprocessed.smi

> <i_m_source_file_index>
1947

> <i_lp_mmshare_version>
43012

> <i_f3d_flags>
0

> <s_epik_input>
W0NIM11bQ0BASF0xW0NIMl1bQ0gyXVtDSDJdW0NIMl1bQ0BIXTFPW0NIMl1bQ0gyXVtOSF1DKD1PKVtOSF1jMm5uW2NIXXMy

> <s_epik_cmdline>
J2VwaWtfcHl0aG9uJywgJy1waCcsICc3LjAnLCAnLXRuJywgJzgnLCAnLW1hJywgJzIwMCcsICctbWV0YWxfYmluZGluZycsICctaW1hZScsICc8aW5maWxlLm1hZT4nLCAnLW9tYWUnLCAnPG91dGZpbGUubWFlPic=

> <r_lp_tautomer_probability>
1

> <r_epik_Ionization_Penalty>
0.00220897

> <r_epik_Ionization_Penalty_Charging>
0

> <r_epik_Ionization_Penalty_Neutral>
0.00220897

> <r_epik_State_Penalty>
-0

> <r_epik_Charging_Adjusted_Penalty>
0

> <i_epik_Tot_Q>
0

> <i_epik_Tot_abs_Q>
0

> <r_epik_Metal_State_Penalty>
0.345002

> <b_epik_Metal_Only>
0

> <s_lp_Force_Field>
OPLS_2005

> <r_lp_Energy>
8.93842

> <b_lp_Chiralities_Consistent>
1

> <s_lp_Variant>
AV-unprocessed.smi:1947-3

> <Gold.Version>
5.8.1

> <Gold.Id.Protein>
6NUR|6NUR_protein|mol2

> <Gold.PLP.Fitness>
46.1883

> <Gold.PLP.PLP>
-39.4744

> <Gold.PLP.part.hbond>
-3.0000

> <Gold.PLP.part.metal>
0.0000

> <Gold.PLP.part.buried>
-4.0590

> <Gold.PLP.part.nonpolar>
-32.5492

> <Gold.PLP.part.repulsive>
0.1761

> <Gold.PLP.ligand.clash>
0.0000

> <Gold.PLP.ligand.torsion>
0.4179

> <Gold.PLP.Chemscore.Hbond>
2.4917

> <Gold.PLP.Chemscore.CHOScore>
0.0000

> <Gold.PLP.Chemscore.Metal>
0.0000

> <Gold.Chemscore.Hbonds>
donor molecule, donor type, donor heavy atom, donor atom, acceptor molecule, acceptor atom, score
      L1  H    11    37       P1  8028  1.00
      P1  H  6934  6946       L1    13  0.13

> <Gold.PLP.Chemscore.Internal.Correction>
0.0748

> <Gold.Rescore>
     Score         DG    S(hbond)    S(metal)    S(lipo)     H(rot)  DE(clash)    DE(int)     intcor
     16.11     -18.02       1.43        0.00     108.66       1.94       0.08       1.83       ----

> <Gold.Chemscore.Fitness>
16.1084

> <Gold.Chemscore.DG>
-18.0192

> <Gold.Chemscore.ZeroCoef>
-5.4800

> <Gold.Chemscore.Hbond>
1.4338

> <Gold.Chemscore.Metal>
0.0000

> <Gold.Chemscore.Lipo>
108.6578

> <Gold.Chemscore.Internal_Hbond>
0.0000

> <Gold.Chemscore.DEClash>
0.0811

> <Gold.Chemscore.DEInternal>
1.8298

> <Gold.Chemscore.Rot>
1.9385

> <Gold.Chemscore.Internal.Correction>
   9.000000E+99

> <Gold.Chemscore.Hbonds>
donor molecule, donor type, donor heavy atom, donor atom, acceptor molecule, acceptor atom, score
      L1  H    11    37       P1  8028  0.65
      P1  H  6934  6946       L1    13  0.14

> <Gold.Chemscore.Hbond.Weighted>
-4.7888

> <Gold.Chemscore.Metal.Weighted>
-0.0000

> <Gold.Chemscore.Lipo.Weighted>
-12.7130

> <Gold.Chemscore.Internal_Hbond.Weighted>
0.0000

> <Gold.Chemscore.DEClash.Weighted>
0.0811

> <Gold.Chemscore.DEInternal.Weighted>
1.8298

> <Gold.Chemscore.Rot.Weighted>
4.9625

> <Gold.Chemscore.Internal.Correction.Weighted>
   9.000000E+99

> <Gold.Protein.RotatedTorsions>
[ 6907 6896 6895 6894 ] final -144.15 input  -60.11 | X-H torsion
[ 7974 7965 7964 7962 ] final   -1.99 input  175.53 | X-H torsion
[ 8008 7997 7996 7995 ] final  125.16 input   59.86 | X-H torsion
[ 10167 10162 10161 10158 ] final -179.51 input  -65.29 | X-H torsion
[ 10718 10713 10712 10709 ] final  -79.20 input   66.30 | X-H torsion
[ 10763 10752 10751 10750 ] final  138.55 input  -60.55 | X-H torsion
[ 11005 11000 10999 10996 ] final  155.84 input  -57.11 | X-H torsion

> <Gold.Protein.ActiveResidues>
 VAL166  LYS551  ARG553  GLY616  TRP617  ASP618  TYR619  PRO620  LYS621  CYS622 
 ASP623  PHE694  ASN695  SER759  ASP760  ASP761  ALA762  ILE779  LEU786  VAL792 
 PHE793  MET794  SER795  GLU796  ALA797  LYS798  CYS799  TRP800  GLU811  SER814 

> <Gold.Protein.RotatedAtoms>
  151.1101  133.5179  159.2605 H   0  0  0  0  0  0  0  0  0  0  0  0  # atno 6907 bound_to 6896
  151.1977  135.0429  159.8869 H   0  0  0  0  0  0  0  0  0  0  0  0  # atno 6908 bound_to 6896
  152.5449  134.0933  159.8339 H   0  0  0  0  0  0  0  0  0  0  0  0  # atno 6909 bound_to 6896
  146.2410  140.1504  142.8334 H   0  0  0  0  0  0  0  0  0  0  0  0  # atno 7974 bound_to 7965
  156.2825  140.2723  156.1904 H   0  0  0  0  0  0  0  0  0  0  0  0  # atno 8008 bound_to 7997
  155.0464  140.0386  157.2546 H   0  0  0  0  0  0  0  0  0  0  0  0  # atno 8009 bound_to 7997
  154.7231  140.2692  155.6528 H   0  0  0  0  0  0  0  0  0  0  0  0  # atno 8010 bound_to 7997
  139.5383  144.2435  152.0842 H   0  0  0  0  0  0  0  0  0  0  0  0  # atno 10167 bound_to 10162
  156.0098  130.4539  150.3612 H   0  0  0  0  0  0  0  0  0  0  0  0  # atno 10718 bound_to 10713
  153.8914  135.3032  155.3447 H   0  0  0  0  0  0  0  0  0  0  0  0  # atno 10763 bound_to 10752
  154.7715  135.4883  153.9661 H   0  0  0  0  0  0  0  0  0  0  0  0  # atno 10764 bound_to 10752
  153.1296  135.6801  153.9299 H   0  0  0  0  0  0  0  0  0  0  0  0  # atno 10765 bound_to 10752
  140.1619  134.8603  157.2585 H   0  0  0  0  0  0  0  0  0  0  0  0  # atno 11005 bound_to 11000
  145.0172  140.8764  143.5188 LP  0  0  0  0  0  0  0  0  0  0  0  0  # atno 17320 bound_to 7965
  145.1547  139.2494  143.5423 LP  0  0  0  0  0  0  0  0  0  0  0  0  # atno 17321 bound_to 7965
  140.1909  144.4753  150.6479 LP  0  0  0  0  0  0  0  0  0  0  0  0  # atno 17342 bound_to 10162
  140.6601  143.2249  151.5877 LP  0  0  0  0  0  0  0  0  0  0  0  0  # atno 17343 bound_to 10162
  157.1700  131.0366  151.2800 LP  0  0  0  0  0  0  0  0  0  0  0  0  # atno 17370 bound_to 10713
  157.4237  130.7452  149.6934 LP  0  0  0  0  0  0  0  0  0  0  0  0  # atno 17371 bound_to 10713
  140.2479  134.3717  155.7454 LP  0  0  0  0  0  0  0  0  0  0  0  0  # atno 17394 bound_to 11000
  141.2210  133.7301  156.8890 LP  0  0  0  0  0  0  0  0  0  0  0  0  # atno 17395 bound_to 11000

$$$$
