AV-unprocessed.smi:13|AV-procd|sdf|69|dock6
  -GOLD-   2262015193D 1   1.00000     0.00000
 Structure written by MMmdl.
 54 58  0  0  0  0  0  0  0  0  1 V2000
  153.1635  140.8541  161.5683 C   0  0  0  0  0  0  0  0  0  0  0  0
  153.6079  140.6309  160.1166 C   0  0  0  0  0  0  0  0  0  0  0  0
  155.1328  140.5316  160.1352 C   0  0  0  0  0  0  0  0  0  0  0  0
  152.8756  139.5102  159.3624 C   0  0  0  0  0  0  0  0  0  0  0  0
  152.0057  140.5401  158.8185 N   0  0  0  0  0  0  0  0  0  0  0  0
  151.6170  140.3523  157.4654 C   0  0  0  0  0  0  0  0  0  0  0  0
  152.3570  139.4753  156.7416 N   0  0  0  0  0  0  0  0  0  0  0  0
  152.0695  139.2182  155.4628 C   0  0  0  0  0  0  0  0  0  0  0  0
  151.0910  139.7228  154.7118 N   0  0  0  0  0  0  0  0  0  0  0  0
  150.3373  140.6081  155.4220 C   0  0  0  0  0  0  0  0  0  0  0  0
  150.5275  140.9762  156.7852 C   0  0  0  0  0  0  0  0  0  0  0  0
  149.5582  141.9020  157.1568 N   0  0  0  0  0  0  0  0  0  0  0  0
  148.8406  142.0696  156.0805 C   0  0  0  0  0  0  0  0  0  0  0  0
  149.2429  141.3359  154.9885 N   0  0  0  0  0  0  0  0  0  0  0  0
  148.6324  141.3337  153.6680 C   0  0  0  0  0  0  0  0  0  0  0  0
  147.2173  141.9559  153.6496 C   0  0  1  0  0  0  0  0  0  0  0  0
  146.6467  141.7577  152.3674 O   0  0  0  0  0  0  0  0  0  0  0  0
  146.2675  141.3813  154.6961 C   0  0  0  0  0  0  0  0  0  0  0  0
  145.3562  142.5598  155.0072 C   0  0  0  0  0  0  0  0  0  0  0  0
  146.2544  143.6566  155.0040 O   0  0  0  0  0  0  0  0  0  0  0  0
  147.2058  143.4658  153.9608 C   0  0  0  0  0  0  0  0  0  0  0  0
  153.0164  141.5667  159.0410 C   0  0  1  0  0  0  0  0  0  0  0  0
  152.3811  142.9109  159.3976 C   0  0  2  0  0  0  0  0  0  0  0  0
  152.6658  144.0220  158.3873 C   0  0  0  0  0  0  0  0  0  0  0  0
  152.5336  145.2925  159.2107 C   0  0  0  0  0  0  0  0  0  0  0  0
  152.6324  144.8069  160.6599 C   0  0  0  0  0  0  0  0  0  0  0  0
  152.9820  143.4324  160.5717 O   0  0  0  0  0  0  0  0  0  0  0  0
  153.4934  140.0417  162.2164 H   0  0  0  0  0  0  0  0  0  0  0  0
  152.0779  140.9090  161.6547 H   0  0  0  0  0  0  0  0  0  0  0  0
  153.5682  141.7825  161.9728 H   0  0  0  0  0  0  0  0  0  0  0  0
  155.5335  140.3531  159.1368 H   0  0  0  0  0  0  0  0  0  0  0  0
  155.4742  139.7133  160.7699 H   0  0  0  0  0  0  0  0  0  0  0  0
  155.5876  141.4511  160.5051 H   0  0  0  0  0  0  0  0  0  0  0  0
  153.4958  139.0076  158.6196 H   0  0  0  0  0  0  0  0  0  0  0  0
  152.3573  138.7992  160.0063 H   0  0  0  0  0  0  0  0  0  0  0  0
  152.7169  138.5066  154.9717 H   0  0  0  0  0  0  0  0  0  0  0  0
  147.9961  142.7426  156.0511 H   0  0  0  0  0  0  0  0  0  0  0  0
  149.2893  141.8772  152.9876 H   0  0  0  0  0  0  0  0  0  0  0  0
  148.6010  140.3057  153.3045 H   0  0  0  0  0  0  0  0  0  0  0  0
  145.7269  141.5695  152.4755 H   0  0  0  0  0  0  0  0  0  0  0  0
  145.7288  140.4925  154.3639 H   0  0  0  0  0  0  0  0  0  0  0  0
  146.8171  141.1181  155.6005 H   0  0  0  0  0  0  0  0  0  0  0  0
  144.6057  142.6938  154.2266 H   0  0  0  0  0  0  0  0  0  0  0  0
  144.8468  142.4585  155.9656 H   0  0  0  0  0  0  0  0  0  0  0  0
  148.1771  143.8238  154.3034 H   0  0  0  0  0  0  0  0  0  0  0  0
  146.9272  144.0643  153.0918 H   0  0  0  0  0  0  0  0  0  0  0  0
  153.7096  141.6482  158.2035 H   0  0  0  0  0  0  0  0  0  0  0  0
  151.3059  142.8191  159.5638 H   0  0  0  0  0  0  0  0  0  0  0  0
  153.6858  143.9361  158.0097 H   0  0  0  0  0  0  0  0  0  0  0  0
  151.9898  143.9977  157.5322 H   0  0  0  0  0  0  0  0  0  0  0  0
  153.3229  146.0032  158.9638 H   0  0  0  0  0  0  0  0  0  0  0  0
  151.5741  145.7802  159.0355 H   0  0  0  0  0  0  0  0  0  0  0  0
  153.3725  145.3608  161.2376 H   0  0  0  0  0  0  0  0  0  0  0  0
  151.6684  144.9008  161.1619 H   0  0  0  0  0  0  0  0  0  0  0  0
  1  2  1  0  0  0  0
  1 28  1  0  0  0  0
  1 29  1  0  0  0  0
  1 30  1  0  0  0  0
  2 22  1  0  0  0  0
  2  3  1  0  0  0  0
  2  4  1  0  0  0  0
  3 31  1  0  0  0  0
  3 32  1  0  0  0  0
  3 33  1  0  0  0  0
  4  5  1  0  0  0  0
  4 34  1  0  0  0  0
  4 35  1  0  0  0  0
  5  6  1  0  0  0  0
  5 22  1  0  0  0  0
  6 11  1  0  0  0  0
  6  7  2  0  0  0  0
  7  8  1  0  0  0  0
  8  9  2  0  0  0  0
  8 36  1  0  0  0  0
  9 10  1  0  0  0  0
 10 14  1  0  0  0  0
 10 11  2  0  0  0  0
 11 12  1  0  0  0  0
 12 13  2  0  0  0  0
 13 14  1  0  0  0  0
 13 37  1  0  0  0  0
 14 15  1  0  0  0  0
 15 16  1  0  0  0  0
 15 38  1  0  0  0  0
 15 39  1  0  0  0  0
 16 21  1  0  0  0  0
 16 17  1  0  0  0  0
 16 18  1  0  0  0  0
 17 40  1  0  0  0  0
 18 19  1  0  0  0  0
 18 41  1  0  0  0  0
 18 42  1  0  0  0  0
 19 20  1  0  0  0  0
 19 43  1  0  0  0  0
 19 44  1  0  0  0  0
 20 21  1  0  0  0  0
 21 45  1  0  0  0  0
 21 46  1  0  0  0  0
 22 23  1  0  0  0  0
 22 47  1  0  0  0  0
 23 27  1  0  0  0  0
 23 24  1  0  0  0  0
 23 48  1  0  0  0  0
 24 25  1  0  0  0  0
 24 49  1  0  0  0  0
 24 50  1  0  0  0  0
 25 26  1  0  0  0  0
 25 51  1  0  0  0  0
 25 52  1  0  0  0  0
 26 27  1  0  0  0  0
 26 53  1  0  0  0  0
 26 54  1  0  0  0  0
M  END
> <s_m_source_file>
AV-unprocessed.smi

> <i_m_source_file_index>
13

> <i_lp_mmshare_version>
43012

> <i_f3d_flags>
0

> <s_epik_input>
TzFbQ0gyXVtDSDJdW0NIMl1bQ0BIXTFbQ0BASF0yTihbQ0gyXUMyKFtDSDNdKVtDSDNdKWMobltjSF1uMyljKGMzNCluW2NIXW40W0NIMl1bQ0BAXTUoW09IXSlbQ0gyXVtDSDJdT1tDSDJdNQ==

> <s_epik_cmdline>
J2VwaWtfcHl0aG9uJywgJy1waCcsICc3LjAnLCAnLXRuJywgJzgnLCAnLW1hJywgJzIwMCcsICctbWV0YWxfYmluZGluZycsICctaW1hZScsICc8aW5maWxlLm1hZT4nLCAnLW9tYWUnLCAnPG91dGZpbGUubWFlPic=

> <r_lp_tautomer_probability>
1

> <r_epik_Ionization_Penalty>
0.00202764

> <r_epik_Ionization_Penalty_Charging>
0

> <r_epik_Ionization_Penalty_Neutral>
0.00202764

> <r_epik_State_Penalty>
0.00134017

> <r_epik_Charging_Adjusted_Penalty>
0.00134017

> <i_epik_Tot_Q>
0

> <i_epik_Tot_abs_Q>
0

> <r_epik_Metal_State_Penalty>
-0

> <b_epik_Metal_Only>
0

> <s_lp_Force_Field>
OPLS_2005

> <r_lp_Energy>
60.4132

> <b_lp_Chiralities_Consistent>
1

> <s_lp_Variant>
AV-unprocessed.smi:13-1

> <Gold.Version>
5.8.1

> <Gold.Id.Protein>
6NUR|6NUR_protein|mol2

> <Gold.PLP.Fitness>
57.0406

> <Gold.PLP.PLP>
-51.9472

> <Gold.PLP.part.hbond>
-3.0000

> <Gold.PLP.part.metal>
0.0000

> <Gold.PLP.part.buried>
-4.0366

> <Gold.PLP.part.nonpolar>
-45.2970

> <Gold.PLP.part.repulsive>
0.3549

> <Gold.PLP.ligand.clash>
0.0000

> <Gold.PLP.ligand.torsion>
2.0297

> <Gold.PLP.Chemscore.Hbond>
2.9000

> <Gold.PLP.Chemscore.CHOScore>
0.0000

> <Gold.PLP.Chemscore.Metal>
0.0000

> <Gold.Chemscore.Hbonds>
donor molecule, donor type, donor heavy atom, donor atom, acceptor molecule, acceptor atom, score
      L1  H    17    40       P1 10175  0.04
      P1  H  7989  7998       L1     9  0.85
      P1  H  7997  8009       L1     7  0.65
      L1  C    13    37       P1  8028  0.51

> <Gold.PLP.Chemscore.Internal.Correction>
0.4527

> <Gold.Rescore>
     Score         DG    S(hbond)    S(metal)    S(lipo)     H(rot)  DE(clash)    DE(int)     intcor
     15.83     -19.69       1.68        0.00     123.95       2.30       0.56       3.29       ----

> <Gold.Chemscore.Fitness>
15.8349

> <Gold.Chemscore.DG>
-19.6926

> <Gold.Chemscore.ZeroCoef>
-5.4800

> <Gold.Chemscore.Hbond>
1.6757

> <Gold.Chemscore.Metal>
0.0000

> <Gold.Chemscore.Lipo>
123.9533

> <Gold.Chemscore.Internal_Hbond>
0.0000

> <Gold.Chemscore.DEClash>
0.5635

> <Gold.Chemscore.DEInternal>
3.2941

> <Gold.Chemscore.Rot>
2.2996

> <Gold.Chemscore.Internal.Correction>
   9.000000E+99

> <Gold.Chemscore.Hbonds>
donor molecule, donor type, donor heavy atom, donor atom, acceptor molecule, acceptor atom, score
      P1  H  7989  7998       L1     9  0.13
      P1  H  7997  8009       L1     7  0.28

> <Gold.Chemscore.Hbond.Weighted>
-5.5970

> <Gold.Chemscore.Metal.Weighted>
-0.0000

> <Gold.Chemscore.Lipo.Weighted>
-14.5025

> <Gold.Chemscore.Internal_Hbond.Weighted>
0.0000

> <Gold.Chemscore.DEClash.Weighted>
0.5635

> <Gold.Chemscore.DEInternal.Weighted>
3.2941

> <Gold.Chemscore.Rot.Weighted>
5.8869

> <Gold.Chemscore.Internal.Correction.Weighted>
   9.000000E+99

> <Gold.Protein.RotatedTorsions>
[ 6907 6896 6895 6894 ] final -166.72 input  -60.11 | X-H torsion
[ 7974 7965 7964 7962 ] final   80.94 input  175.53 | X-H torsion
[ 8008 7997 7996 7995 ] final  168.52 input   59.86 | X-H torsion
[ 10167 10162 10161 10158 ] final  159.45 input  -65.29 | X-H torsion
[ 10718 10713 10712 10709 ] final -110.85 input   66.30 | X-H torsion
[ 10763 10752 10751 10750 ] final -107.03 input  -60.55 | X-H torsion
[ 11005 11000 10999 10996 ] final  166.53 input  -57.11 | X-H torsion

> <Gold.Protein.ActiveResidues>
 VAL166  LYS551  ARG553  GLY616  TRP617  ASP618  TYR619  PRO620  LYS621  CYS622 
 ASP623  PHE694  ASN695  SER759  ASP760  ASP761  ALA762  ILE779  LEU786  VAL792 
 PHE793  MET794  SER795  GLU796  ALA797  LYS798  CYS799  TRP800  GLU811  SER814 

> <Gold.Protein.RotatedAtoms>
  151.4481  133.3625  159.2791 H   0  0  0  0  0  0  0  0  0  0  0  0  # atno 6907 bound_to 6896
  150.9110  134.8528  159.7436 H   0  0  0  0  0  0  0  0  0  0  0  0  # atno 6908 bound_to 6896
  152.4932  134.4411  159.9596 H   0  0  0  0  0  0  0  0  0  0  0  0  # atno 6909 bound_to 6896
  145.6447  139.2433  143.2011 H   0  0  0  0  0  0  0  0  0  0  0  0  # atno 7974 bound_to 7965
  156.1539  140.1588  156.8724 H   0  0  0  0  0  0  0  0  0  0  0  0  # atno 8008 bound_to 7997
  154.5097  140.0804  156.8001 H   0  0  0  0  0  0  0  0  0  0  0  0  # atno 8009 bound_to 7997
  155.3841  140.3406  155.4250 H   0  0  0  0  0  0  0  0  0  0  0  0  # atno 8010 bound_to 7997
  139.4832  144.4728  151.8552 H   0  0  0  0  0  0  0  0  0  0  0  0  # atno 10167 bound_to 10162
  156.0614  130.5837  150.8293 H   0  0  0  0  0  0  0  0  0  0  0  0  # atno 10718 bound_to 10713
  154.8050  135.4690  154.0369 H   0  0  0  0  0  0  0  0  0  0  0  0  # atno 10763 bound_to 10752
  153.1845  135.6845  153.8440 H   0  0  0  0  0  0  0  0  0  0  0  0  # atno 10764 bound_to 10752
  153.7979  135.3234  155.3364 H   0  0  0  0  0  0  0  0  0  0  0  0  # atno 10765 bound_to 10752
  140.2674  134.7854  157.3645 H   0  0  0  0  0  0  0  0  0  0  0  0  # atno 11005 bound_to 11000
  146.1252  140.7257  142.9438 LP  0  0  0  0  0  0  0  0  0  0  0  0  # atno 17320 bound_to 7965
  144.7144  140.4158  143.7055 LP  0  0  0  0  0  0  0  0  0  0  0  0  # atno 17321 bound_to 7965
  140.4198  144.2258  150.5887 LP  0  0  0  0  0  0  0  0  0  0  0  0  # atno 17342 bound_to 10162
  140.4885  143.2355  151.8853 LP  0  0  0  0  0  0  0  0  0  0  0  0  # atno 17343 bound_to 10162
  157.5625  131.0946  150.9538 LP  0  0  0  0  0  0  0  0  0  0  0  0  # atno 17370 bound_to 10713
  156.9773  130.5513  149.5294 LP  0  0  0  0  0  0  0  0  0  0  0  0  # atno 17371 bound_to 10713
  140.1406  134.4977  155.8035 LP  0  0  0  0  0  0  0  0  0  0  0  0  # atno 17394 bound_to 11000
  141.2182  133.6824  156.7203 LP  0  0  0  0  0  0  0  0  0  0  0  0  # atno 17395 bound_to 11000

$$$$
