AV-unprocessed.smi:1971|AV-procd|sdf|7972|dock2
  -GOLD-   2272010143D 1   1.00000     0.00000
 Structure written by MMmdl.
 42 43  0  0  0  0  0  0  0  0  2 V2000
  152.1623  145.2326  159.4509 C   0  0  0  0  0  0  0  0  0  0  0  0
  150.9363  144.3202  159.3031 C   0  0  0  0  0  0  0  0  0  0  0  0
  151.1648  143.1057  158.5231 N   0  0  0  0  0  0  0  0  0  0  0  0
  149.9047  142.4268  158.2315 C   0  0  0  0  0  0  0  0  0  0  0  0
  150.1244  141.1563  157.3905 C   0  0  0  0  0  0  0  0  0  0  0  0
  151.0014  140.1901  158.0652 N   0  0  0  0  0  0  0  0  0  0  0  0
  151.2130  138.9609  157.2697 C   0  0  2  0  0  0  0  0  0  0  0  0
  151.6949  139.2356  155.8271 C   0  0  0  0  0  0  0  0  0  0  0  0
  149.9743  138.0277  157.2071 C   0  0  0  0  0  0  0  0  0  0  0  0
  149.2047  138.0366  158.4509 N   0  0  0  0  0  0  0  0  0  0  0  0
  148.8547  136.9682  159.1813 C   0  0  0  0  0  0  0  0  0  0  0  0
  149.2052  135.8387  158.8316 O   0  0  0  0  0  0  0  0  0  0  0  0
  148.1132  137.2740  160.2704 N   0  5  0  0  0  0  0  0  0  0  0  0
  147.4626  136.3041  160.9336 C   0  0  0  0  0  0  0  0  0  0  0  0
  147.0713  135.1625  160.3559 N   0  0  0  0  0  0  0  0  0  0  0  0
  146.4163  134.2936  161.2306 C   0  0  0  0  0  0  0  0  0  0  0  0
  146.3140  134.7811  162.5065 C   0  0  0  0  0  0  0  0  0  0  0  0
  147.0446  136.3546  162.6491 S   0  0  0  0  0  0  0  0  0  0  0  0
  152.2602  140.8799  158.3788 C   0  0  0  0  0  0  0  0  0  0  0  0
  152.0371  142.1550  159.2125 C   0  0  0  0  0  0  0  0  0  0  0  0
  151.8887  146.1627  159.9490 H   0  0  0  0  0  0  0  0  0  0  0  0
  152.5808  145.4890  158.4772 H   0  0  0  0  0  0  0  0  0  0  0  0
  152.9484  144.7672  160.0450 H   0  0  0  0  0  0  0  0  0  0  0  0
  150.5538  144.0607  160.2912 H   0  0  0  0  0  0  0  0  0  0  0  0
  150.1507  144.9042  158.8219 H   0  0  0  0  0  0  0  0  0  0  0  0
  149.3945  142.1671  159.1608 H   0  0  0  0  0  0  0  0  0  0  0  0
  149.2404  143.1011  157.6901 H   0  0  0  0  0  0  0  0  0  0  0  0
  149.1454  140.7167  157.2058 H   0  0  0  0  0  0  0  0  0  0  0  0
  150.5399  141.4245  156.4178 H   0  0  0  0  0  0  0  0  0  0  0  0
  152.0041  138.3839  157.7509 H   0  0  0  0  0  0  0  0  0  0  0  0
  151.7222  138.3184  155.2382 H   0  0  0  0  0  0  0  0  0  0  0  0
  152.7055  139.6417  155.8031 H   0  0  0  0  0  0  0  0  0  0  0  0
  151.0377  139.9372  155.3125 H   0  0  0  0  0  0  0  0  0  0  0  0
  149.3446  138.2974  156.3580 H   0  0  0  0  0  0  0  0  0  0  0  0
  150.2717  137.0002  157.0022 H   0  0  0  0  0  0  0  0  0  0  0  0
  148.8886  138.9379  158.7776 H   0  0  0  0  0  0  0  0  0  0  0  0
  146.0554  133.3462  160.8587 H   0  0  0  0  0  0  0  0  0  0  0  0
  145.8588  134.3137  163.3665 H   0  0  0  0  0  0  0  0  0  0  0  0
  152.9177  140.2301  158.9536 H   0  0  0  0  0  0  0  0  0  0  0  0
  152.7898  141.1295  157.4581 H   0  0  0  0  0  0  0  0  0  0  0  0
  153.0071  142.6099  159.4104 H   0  0  0  0  0  0  0  0  0  0  0  0
  151.6123  141.8895  160.1820 H   0  0  0  0  0  0  0  0  0  0  0  0
  1  2  1  0  0  0  0
  1 21  1  0  0  0  0
  1 22  1  0  0  0  0
  1 23  1  0  0  0  0
  2  3  1  0  0  0  0
  2 24  1  0  0  0  0
  2 25  1  0  0  0  0
  3 20  1  0  0  0  0
  3  4  1  0  0  0  0
  4  5  1  0  0  0  0
  4 26  1  0  0  0  0
  4 27  1  0  0  0  0
  5  6  1  0  0  0  0
  5 28  1  0  0  0  0
  5 29  1  0  0  0  0
  6  7  1  0  0  0  0
  6 19  1  0  0  0  0
  7  8  1  0  0  0  0
  7  9  1  0  0  0  0
  7 30  1  0  0  0  0
  8 31  1  0  0  0  0
  8 32  1  0  0  0  0
  8 33  1  0  0  0  0
  9 10  1  0  0  0  0
  9 34  1  0  0  0  0
  9 35  1  0  0  0  0
 10 11  1  0  0  0  0
 10 36  1  0  0  0  0
 11 12  2  0  0  0  0
 11 13  1  0  0  0  0
 13 14  1  0  0  0  0
 14 18  1  0  0  0  0
 14 15  2  0  0  0  0
 15 16  1  0  0  0  0
 16 17  2  0  0  0  0
 16 37  1  0  0  0  0
 17 18  1  0  0  0  0
 17 38  1  0  0  0  0
 19 20  1  0  0  0  0
 19 39  1  0  0  0  0
 19 40  1  0  0  0  0
 20 41  1  0  0  0  0
 20 42  1  0  0  0  0
M  CHG  1  13  -1
M  END
> <s_m_source_file>
AV-unprocessed.smi

> <i_m_source_file_index>
1971

> <i_lp_mmshare_version>
43012

> <i_f3d_flags>
0

> <s_epik_input>
W0NIM11bQ0gyXU4xW0NIMl1bQ0gyXU4oW0NIMl1bQ0gyXTEpW0NASF0oW0NIM10pW0NIMl1bTkhdQyg9TylbTkhdYzJuW2NIXVtjSF1zMg==

> <s_epik_cmdline>
J2VwaWtfcHl0aG9uJywgJy1waCcsICc3LjAnLCAnLXRuJywgJzgnLCAnLW1hJywgJzIwMCcsICctbWV0YWxfYmluZGluZycsICctaW1hZScsICc8aW5maWxlLm1hZT4nLCAnLW9tYWUnLCAnPG91dGZpbGUubWFlPic=

> <r_lp_tautomer_probability>
0.999

> <r_epik_Ionization_Penalty>
9.52272

> <r_epik_Ionization_Penalty_Charging>
5.92713

> <r_epik_Ionization_Penalty_Neutral>
3.59559

> <r_epik_State_Penalty>
7.69531

> <r_epik_Charging_Adjusted_Penalty>
13.6224

> <i_epik_Tot_Q>
-1

> <i_epik_Tot_abs_Q>
1

> <r_epik_Metal_State_Penalty>
3.66212

> <b_epik_Metal_Only>
1

> <s_lp_Force_Field>
OPLS_2005

> <r_lp_Energy>
40.0066

> <b_lp_Chiralities_Consistent>
1

> <s_lp_Variant>
AV-unprocessed.smi:1971-11

> <Gold.Version>
5.8.1

> <Gold.Id.Protein>
6NUR|6NUR_protein|mol2

> <Gold.PLP.Fitness>
46.3298

> <Gold.PLP.PLP>
-38.3528

> <Gold.PLP.part.hbond>
-3.0000

> <Gold.PLP.part.metal>
0.0000

> <Gold.PLP.part.buried>
-6.2156

> <Gold.PLP.part.nonpolar>
-30.6673

> <Gold.PLP.part.repulsive>
0.2541

> <Gold.PLP.ligand.clash>
0.0000

> <Gold.PLP.ligand.torsion>
0.5914

> <Gold.PLP.Chemscore.Hbond>
3.0390

> <Gold.PLP.Chemscore.CHOScore>
0.0000

> <Gold.PLP.Chemscore.Metal>
0.0000

> <Gold.Chemscore.Hbonds>
donor molecule, donor type, donor heavy atom, donor atom, acceptor molecule, acceptor atom, score
      P1  H  6896  6907       L1    12  0.81
      P1  H  6931  6943       L1    13  1.04
      P1  H  6934  6947       L1    13  1.18

> <Gold.PLP.Chemscore.Internal.Correction>
0.0427

> <Gold.Rescore>
     Score         DG    S(hbond)    S(metal)    S(lipo)     H(rot)  DE(clash)    DE(int)     intcor
     15.74     -17.85       2.02        0.00      85.39       1.70       0.10       2.01       ----

> <Gold.Chemscore.Fitness>
15.7396

> <Gold.Chemscore.DG>
-17.8494

> <Gold.Chemscore.ZeroCoef>
-5.4800

> <Gold.Chemscore.Hbond>
2.0179

> <Gold.Chemscore.Metal>
0.0000

> <Gold.Chemscore.Lipo>
85.3928

> <Gold.Chemscore.Internal_Hbond>
0.0000

> <Gold.Chemscore.DEClash>
0.1004

> <Gold.Chemscore.DEInternal>
2.0094

> <Gold.Chemscore.Rot>
1.7037

> <Gold.Chemscore.Internal.Correction>
   9.000000E+99

> <Gold.Chemscore.Hbonds>
donor molecule, donor type, donor heavy atom, donor atom, acceptor molecule, acceptor atom, score
      P1  H  6896  6907       L1    12  0.78
      P1  H  6931  6943       L1    13  0.13
      P1  H  6934  6947       L1    13  0.26

> <Gold.Chemscore.Hbond.Weighted>
-6.7399

> <Gold.Chemscore.Metal.Weighted>
-0.0000

> <Gold.Chemscore.Lipo.Weighted>
-9.9910

> <Gold.Chemscore.Internal_Hbond.Weighted>
0.0000

> <Gold.Chemscore.DEClash.Weighted>
0.1004

> <Gold.Chemscore.DEInternal.Weighted>
2.0094

> <Gold.Chemscore.Rot.Weighted>
4.3614

> <Gold.Chemscore.Internal.Correction.Weighted>
   9.000000E+99

> <Gold.Protein.RotatedTorsions>
[ 6907 6896 6895 6894 ] final  -45.55 input  -60.11 | X-H torsion
[ 7974 7965 7964 7962 ] final    6.77 input  175.53 | X-H torsion
[ 8008 7997 7996 7995 ] final   60.88 input   59.86 | X-H torsion
[ 10167 10162 10161 10158 ] final  -49.38 input  -65.29 | X-H torsion
[ 10718 10713 10712 10709 ] final  -98.18 input   66.30 | X-H torsion
[ 10763 10752 10751 10750 ] final  114.20 input  -60.55 | X-H torsion
[ 11005 11000 10999 10996 ] final  102.95 input  -57.11 | X-H torsion

> <Gold.Protein.ActiveResidues>
 VAL166  LYS551  ARG553  GLY616  TRP617  ASP618  TYR619  PRO620  LYS621  CYS622 
 ASP623  PHE694  ASN695  SER759  ASP760  ASP761  ALA762  ILE779  LEU786  VAL792 
 PHE793  MET794  SER795  GLU796  ALA797  LYS798  CYS799  TRP800  GLU811  SER814 

> <Gold.Protein.RotatedAtoms>
  150.9207  134.8625  159.7486 H   0  0  0  0  0  0  0  0  0  0  0  0  # atno 6907 bound_to 6896
  152.4991  134.4222  159.9494 H   0  0  0  0  0  0  0  0  0  0  0  0  # atno 6908 bound_to 6896
  151.4256  133.3645  159.2797 H   0  0  0  0  0  0  0  0  0  0  0  0  # atno 6909 bound_to 6896
  146.2432  140.0184  142.8400 H   0  0  0  0  0  0  0  0  0  0  0  0  # atno 7974 bound_to 7965
  155.5894  140.3492  155.4562 H   0  0  0  0  0  0  0  0  0  0  0  0  # atno 8008 bound_to 7997
  156.0312  140.1275  157.0280 H   0  0  0  0  0  0  0  0  0  0  0  0  # atno 8009 bound_to 7997
  154.4353  140.1043  156.6089 H   0  0  0  0  0  0  0  0  0  0  0  0  # atno 8010 bound_to 7997
  140.6687  143.2700  151.4207 H   0  0  0  0  0  0  0  0  0  0  0  0  # atno 10167 bound_to 10162
  156.0101  130.5227  150.6484 H   0  0  0  0  0  0  0  0  0  0  0  0  # atno 10718 bound_to 10713
  153.5038  135.3632  155.2553 H   0  0  0  0  0  0  0  0  0  0  0  0  # atno 10763 bound_to 10752
  154.8746  135.4006  154.3448 H   0  0  0  0  0  0  0  0  0  0  0  0  # atno 10764 bound_to 10752
  153.4089  135.7077  153.6439 H   0  0  0  0  0  0  0  0  0  0  0  0  # atno 10765 bound_to 10752
  139.8780  134.9244  156.5136 H   0  0  0  0  0  0  0  0  0  0  0  0  # atno 11005 bound_to 11000
  145.1264  140.9492  143.4570 LP  0  0  0  0  0  0  0  0  0  0  0  0  # atno 17320 bound_to 7965
  145.0431  139.3244  143.5967 LP  0  0  0  0  0  0  0  0  0  0  0  0  # atno 17321 bound_to 7965
  139.5947  144.1424  152.2129 LP  0  0  0  0  0  0  0  0  0  0  0  0  # atno 17342 bound_to 10162
  140.0789  144.5717  150.7136 LP  0  0  0  0  0  0  0  0  0  0  0  0  # atno 17343 bound_to 10162
  157.4251  131.0842  151.1094 LP  0  0  0  0  0  0  0  0  0  0  0  0  # atno 17370 bound_to 10713
  157.1684  130.6256  149.5632 LP  0  0  0  0  0  0  0  0  0  0  0  0  # atno 17371 bound_to 10713
  140.8502  133.8138  155.9161 LP  0  0  0  0  0  0  0  0  0  0  0  0  # atno 17394 bound_to 11000
  140.9152  134.2211  157.4961 LP  0  0  0  0  0  0  0  0  0  0  0  0  # atno 17395 bound_to 11000

$$$$
