AV-unprocessed.smi:88|AV-procd|sdf|824|dock4
  -GOLD-   2262017233D 1   1.00000     0.00000
 Structure written by MMmdl.
 56 60  0  0  0  0  0  0  0  0  1 V2000
  143.6935  134.8435  155.9944 C   0  0  0  0  0  0  0  0  0  0  0  0
  143.3488  135.6424  154.8162 N   0  0  0  0  0  0  0  0  0  0  0  0
  142.3048  135.3947  154.0085 C   0  0  0  0  0  0  0  0  0  0  0  0
  141.4953  134.4754  154.1165 O   0  0  0  0  0  0  0  0  0  0  0  0
  142.2817  136.3223  153.0530 N   0  0  0  0  0  0  0  0  0  0  0  0
  143.3463  137.2919  153.1646 C   0  0  0  0  0  0  0  0  0  0  0  0
  144.1251  136.8224  154.4124 C   0  0  0  0  0  0  0  0  0  0  0  0
  144.1357  137.9032  155.5226 C   0  0  0  0  0  0  0  0  0  0  0  0
  145.0038  139.1132  155.1333 C   0  0  0  0  0  0  0  0  0  0  0  0
  146.3529  138.6873  154.7717 N   0  0  0  0  0  0  0  0  0  0  0  0
  147.2123  139.7134  154.6010 C   0  0  0  0  0  0  0  0  0  0  0  0
  147.0422  140.4880  153.5022 N   0  0  0  0  0  0  0  0  0  0  0  0
  147.8624  141.5198  153.2802 C   0  0  0  0  0  0  0  0  0  0  0  0
  148.8931  141.9419  154.0167 N   0  0  0  0  0  0  0  0  0  0  0  0
  149.0652  141.1617  155.1228 C   0  0  0  0  0  0  0  0  0  0  0  0
  148.2764  140.0356  155.4898 C   0  0  0  0  0  0  0  0  0  0  0  0
  148.7486  139.4922  156.6786 N   0  0  0  0  0  0  0  0  0  0  0  0
  149.7603  140.2534  156.9956 C   0  0  0  0  0  0  0  0  0  0  0  0
  150.0239  141.2777  156.1141 N   0  0  0  0  0  0  0  0  0  0  0  0
  151.0846  142.2677  156.2209 C   0  0  0  0  0  0  0  0  0  0  0  0
  151.0475  143.0863  157.5348 C   0  0  0  0  0  0  0  0  0  0  0  0
  149.6926  143.4068  157.8016 O   0  0  0  0  0  0  0  0  0  0  0  0
  151.6124  142.3036  158.7407 C   0  0  0  0  0  0  0  0  0  0  0  0
  151.7633  143.1913  159.9891 C   0  0  0  0  0  0  0  0  0  0  0  0
  152.5555  144.3335  159.6876 O   0  0  0  0  0  0  0  0  0  0  0  0
  151.9639  145.1685  158.6998 C   0  0  0  0  0  0  0  0  0  0  0  0
  151.8359  144.4012  157.3719 C   0  0  0  0  0  0  0  0  0  0  0  0
  146.4245  137.6906  153.7072 C   0  0  0  0  0  0  0  0  0  0  0  0
  145.5884  136.4488  154.0656 C   0  0  0  0  0  0  0  0  0  0  0  0
  143.0335  133.9839  156.1172 H   0  0  0  0  0  0  0  0  0  0  0  0
  143.6162  135.4394  156.9031 H   0  0  0  0  0  0  0  0  0  0  0  0
  144.7093  134.4573  155.9230 H   0  0  0  0  0  0  0  0  0  0  0  0
  141.5896  136.3574  152.3186 H   0  0  0  0  0  0  0  0  0  0  0  0
  143.9472  137.2799  152.2548 H   0  0  0  0  0  0  0  0  0  0  0  0
  142.9195  138.2889  153.2772 H   0  0  0  0  0  0  0  0  0  0  0  0
  143.1203  138.2301  155.7500 H   0  0  0  0  0  0  0  0  0  0  0  0
  144.5367  137.4866  156.4469 H   0  0  0  0  0  0  0  0  0  0  0  0
  144.5491  139.6485  154.2996 H   0  0  0  0  0  0  0  0  0  0  0  0
  145.0532  139.8130  155.9688 H   0  0  0  0  0  0  0  0  0  0  0  0
  147.6640  142.0884  152.3836 H   0  0  0  0  0  0  0  0  0  0  0  0
  150.3502  140.0855  157.8851 H   0  0  0  0  0  0  0  0  0  0  0  0
  152.0399  141.7490  156.1312 H   0  0  0  0  0  0  0  0  0  0  0  0
  151.0196  142.9316  155.3575 H   0  0  0  0  0  0  0  0  0  0  0  0
  149.3599  143.9253  157.0848 H   0  0  0  0  0  0  0  0  0  0  0  0
  150.9839  141.4442  158.9778 H   0  0  0  0  0  0  0  0  0  0  0  0
  152.5929  141.9032  158.4803 H   0  0  0  0  0  0  0  0  0  0  0  0
  150.7896  143.5014  160.3716 H   0  0  0  0  0  0  0  0  0  0  0  0
  152.2496  142.6294  160.7867 H   0  0  0  0  0  0  0  0  0  0  0  0
  150.9930  145.5287  159.0430 H   0  0  0  0  0  0  0  0  0  0  0  0
  152.5939  146.0473  158.5618 H   0  0  0  0  0  0  0  0  0  0  0  0
  152.8393  144.1768  157.0079 H   0  0  0  0  0  0  0  0  0  0  0  0
  151.3722  145.0357  156.6154 H   0  0  0  0  0  0  0  0  0  0  0  0
  146.0718  138.1247  152.7714 H   0  0  0  0  0  0  0  0  0  0  0  0
  147.4635  137.3991  153.5479 H   0  0  0  0  0  0  0  0  0  0  0  0
  146.0632  135.9608  154.9168 H   0  0  0  0  0  0  0  0  0  0  0  0
  145.6172  135.7295  153.2462 H   0  0  0  0  0  0  0  0  0  0  0  0
  1  2  1  0  0  0  0
  1 30  1  0  0  0  0
  1 31  1  0  0  0  0
  1 32  1  0  0  0  0
  2  7  1  0  0  0  0
  2  3  1  0  0  0  0
  3  4  2  0  0  0  0
  3  5  1  0  0  0  0
  5  6  1  0  0  0  0
  5 33  1  0  0  0  0
  6  7  1  0  0  0  0
  6 34  1  0  0  0  0
  6 35  1  0  0  0  0
  7 29  1  0  0  0  0
  7  8  1  0  0  0  0
  8  9  1  0  0  0  0
  8 36  1  0  0  0  0
  8 37  1  0  0  0  0
  9 10  1  0  0  0  0
  9 38  1  0  0  0  0
  9 39  1  0  0  0  0
 10 11  1  0  0  0  0
 10 28  1  0  0  0  0
 11 16  1  0  0  0  0
 11 12  2  0  0  0  0
 12 13  1  0  0  0  0
 13 14  2  0  0  0  0
 13 40  1  0  0  0  0
 14 15  1  0  0  0  0
 15 19  1  0  0  0  0
 15 16  2  0  0  0  0
 16 17  1  0  0  0  0
 17 18  2  0  0  0  0
 18 19  1  0  0  0  0
 18 41  1  0  0  0  0
 19 20  1  0  0  0  0
 20 21  1  0  0  0  0
 20 42  1  0  0  0  0
 20 43  1  0  0  0  0
 21 27  1  0  0  0  0
 21 22  1  0  0  0  0
 21 23  1  0  0  0  0
 22 44  1  0  0  0  0
 23 24  1  0  0  0  0
 23 45  1  0  0  0  0
 23 46  1  0  0  0  0
 24 25  1  0  0  0  0
 24 47  1  0  0  0  0
 24 48  1  0  0  0  0
 25 26  1  0  0  0  0
 26 27  1  0  0  0  0
 26 49  1  0  0  0  0
 26 50  1  0  0  0  0
 27 51  1  0  0  0  0
 27 52  1  0  0  0  0
 28 29  1  0  0  0  0
 28 53  1  0  0  0  0
 28 54  1  0  0  0  0
 29 55  1  0  0  0  0
 29 56  1  0  0  0  0
M  END
> <s_m_source_file>
AV-unprocessed.smi

> <i_m_source_file_index>
88

> <i_lp_mmshare_version>
43012

> <i_f3d_flags>
0

> <s_epik_input>
W0NIMl0xW05IXUMoPU8pTihbQ0gzXSlDMTJbQ0gyXVtDSDJdTihbQ0gyXVtDSDJdMiljKG5bY0hdbjMpYyhjMzQpbltjSF1uNFtDSDJdQzUoW09IXSlbQ0gyXVtDSDJdT1tDSDJdW0NIMl01

> <s_epik_cmdline>
J2VwaWtfcHl0aG9uJywgJy1waCcsICc3LjAnLCAnLXRuJywgJzgnLCAnLW1hJywgJzIwMCcsICctbWV0YWxfYmluZGluZycsICctaW1hZScsICc8aW5maWxlLm1hZT4nLCAnLW9tYWUnLCAnPG91dGZpbGUubWFlPic=

> <r_lp_tautomer_probability>
1

> <r_epik_Ionization_Penalty>
0.00363326

> <r_epik_Ionization_Penalty_Charging>
0

> <r_epik_Ionization_Penalty_Neutral>
0.00363326

> <r_epik_State_Penalty>
0.00246926

> <r_epik_Charging_Adjusted_Penalty>
0.00246926

> <i_epik_Tot_Q>
0

> <i_epik_Tot_abs_Q>
0

> <r_epik_Metal_State_Penalty>
-0

> <b_epik_Metal_Only>
0

> <s_lp_Force_Field>
OPLS_2005

> <r_lp_Energy>
63.3868

> <b_lp_Chiralities_Consistent>
1

> <s_lp_Variant>
AV-unprocessed.smi:88-1

> <Gold.Version>
5.8.1

> <Gold.Id.Protein>
6NUR|6NUR_protein|mol2

> <Gold.PLP.Fitness>
43.3438

> <Gold.PLP.PLP>
-37.4301

> <Gold.PLP.part.hbond>
-3.0703

> <Gold.PLP.part.metal>
0.0000

> <Gold.PLP.part.buried>
-7.4935

> <Gold.PLP.part.nonpolar>
-27.1306

> <Gold.PLP.part.repulsive>
1.4126

> <Gold.PLP.ligand.clash>
0.0000

> <Gold.PLP.ligand.torsion>
0.3791

> <Gold.PLP.Chemscore.Hbond>
2.1612

> <Gold.PLP.Chemscore.CHOScore>
0.0000

> <Gold.PLP.Chemscore.Metal>
0.0000

> <Gold.Chemscore.Hbonds>
donor molecule, donor type, donor heavy atom, donor atom, acceptor molecule, acceptor atom, score
      L1  H    22    44       P1  8028  1.00
      P1  H  8011  8017       L1    14  0.18
      P1  H 11000 11005       L1     4  1.00

> <Gold.PLP.Chemscore.Internal.Correction>
0.1885

> <Gold.Rescore>
     Score         DG    S(hbond)    S(metal)    S(lipo)     H(rot)  DE(clash)    DE(int)     intcor
     14.26     -15.30       1.84        0.00      79.07       2.18       0.62       0.42       ----

> <Gold.Chemscore.Fitness>
14.2591

> <Gold.Chemscore.DG>
-15.2971

> <Gold.Chemscore.ZeroCoef>
-5.4800

> <Gold.Chemscore.Hbond>
1.8434

> <Gold.Chemscore.Metal>
0.0000

> <Gold.Chemscore.Lipo>
79.0655

> <Gold.Chemscore.Internal_Hbond>
0.0000

> <Gold.Chemscore.DEClash>
0.6218

> <Gold.Chemscore.DEInternal>
0.4163

> <Gold.Chemscore.Rot>
2.1838

> <Gold.Chemscore.Internal.Correction>
   9.000000E+99

> <Gold.Chemscore.Hbonds>
donor molecule, donor type, donor heavy atom, donor atom, acceptor molecule, acceptor atom, score
      L1  H    22    44       P1  8028  0.55
      P1  H 11000 11005       L1     4  0.98

> <Gold.Chemscore.Hbond.Weighted>
-6.1569

> <Gold.Chemscore.Metal.Weighted>
-0.0000

> <Gold.Chemscore.Lipo.Weighted>
-9.2507

> <Gold.Chemscore.Internal_Hbond.Weighted>
0.0000

> <Gold.Chemscore.DEClash.Weighted>
0.6218

> <Gold.Chemscore.DEInternal.Weighted>
0.4163

> <Gold.Chemscore.Rot.Weighted>
5.5905

> <Gold.Chemscore.Internal.Correction.Weighted>
   9.000000E+99

> <Gold.Protein.RotatedTorsions>
[ 6907 6896 6895 6894 ] final  -73.33 input  -60.11 | X-H torsion
[ 7974 7965 7964 7962 ] final -161.25 input  175.53 | X-H torsion
[ 8008 7997 7996 7995 ] final  121.02 input   59.86 | X-H torsion
[ 10167 10162 10161 10158 ] final   53.37 input  -65.29 | X-H torsion
[ 10718 10713 10712 10709 ] final -163.36 input   66.30 | X-H torsion
[ 10763 10752 10751 10750 ] final  -47.69 input  -60.55 | X-H torsion
[ 11005 11000 10999 10996 ] final   11.20 input  -57.11 | X-H torsion

> <Gold.Protein.ActiveResidues>
 VAL166  LYS551  ARG553  GLY616  TRP617  ASP618  TYR619  PRO620  LYS621  CYS622 
 ASP623  PHE694  ASN695  SER759  ASP760  ASP761  ALA762  ILE779  LEU786  VAL792 
 PHE793  MET794  SER795  GLU796  ALA797  LYS798  CYS799  TRP800  GLU811  SER814 

> <Gold.Protein.RotatedAtoms>
  150.7134  134.5032  159.5571 H   0  0  0  0  0  0  0  0  0  0  0  0  # atno 6907 bound_to 6896
  152.2625  134.8016  160.0437 H   0  0  0  0  0  0  0  0  0  0  0  0  # atno 6908 bound_to 6896
  151.8725  133.3443  159.3776 H   0  0  0  0  0  0  0  0  0  0  0  0  # atno 6909 bound_to 6896
  144.7398  140.3425  143.6132 H   0  0  0  0  0  0  0  0  0  0  0  0  # atno 7974 bound_to 7965
  156.2668  140.2817  156.1242 H   0  0  0  0  0  0  0  0  0  0  0  0  # atno 8008 bound_to 7997
  155.1123  140.0391  157.2745 H   0  0  0  0  0  0  0  0  0  0  0  0  # atno 8009 bound_to 7997
  154.6733  140.2592  155.6990 H   0  0  0  0  0  0  0  0  0  0  0  0  # atno 8010 bound_to 7997
  140.2415  144.3578  150.6378 H   0  0  0  0  0  0  0  0  0  0  0  0  # atno 10167 bound_to 10162
  156.6236  130.8901  151.2963 H   0  0  0  0  0  0  0  0  0  0  0  0  # atno 10718 bound_to 10713
  154.0655  135.6612  153.4817 H   0  0  0  0  0  0  0  0  0  0  0  0  # atno 10763 bound_to 10752
  153.0410  135.5145  154.7618 H   0  0  0  0  0  0  0  0  0  0  0  0  # atno 10764 bound_to 10752
  154.6667  135.3023  154.9763 H   0  0  0  0  0  0  0  0  0  0  0  0  # atno 10765 bound_to 10752
  140.5058  134.0700  155.7805 H   0  0  0  0  0  0  0  0  0  0  0  0  # atno 11005 bound_to 11000
  145.7359  139.1750  143.2403 LP  0  0  0  0  0  0  0  0  0  0  0  0  # atno 17320 bound_to 7965
  146.1171  140.7356  142.9475 LP  0  0  0  0  0  0  0  0  0  0  0  0  # atno 17321 bound_to 7965
  140.6110  143.2169  151.6886 LP  0  0  0  0  0  0  0  0  0  0  0  0  # atno 17342 bound_to 10162
  139.5076  144.3641  152.0533 LP  0  0  0  0  0  0  0  0  0  0  0  0  # atno 17343 bound_to 10162
  157.7220  130.9571  150.1478 LP  0  0  0  0  0  0  0  0  0  0  0  0  # atno 17370 bound_to 10713
  156.2291  130.3680  149.8466 LP  0  0  0  0  0  0  0  0  0  0  0  0  # atno 17371 bound_to 10713
  141.1411  133.9136  157.2323 LP  0  0  0  0  0  0  0  0  0  0  0  0  # atno 17394 bound_to 11000
  139.9687  135.0134  156.9454 LP  0  0  0  0  0  0  0  0  0  0  0  0  # atno 17395 bound_to 11000

$$$$
