AV-unprocessed.smi:1755|AV-procd|sdf|7070|dock9
  -GOLD-   22720 8293D 1   1.00000     0.00000
 Structure written by MMmdl.
 46 47  0  0  0  0  0  0  0  0  2 V2000
  151.2072  139.0187  154.6924 C   0  0  0  0  0  0  0  0  0  0  0  0
  150.7455  140.1578  155.5527 C   0  0  0  0  0  0  0  0  0  0  0  0
  149.4373  140.7163  155.6410 C   0  0  0  0  0  0  0  0  0  0  0  0
  149.5963  141.7101  156.5680 C   0  0  0  0  0  0  0  0  0  0  0  0
  148.6715  142.5775  157.0592 N   0  0  0  0  0  0  0  0  0  0  0  0
  147.6170  142.3190  157.8522 C   0  0  0  0  0  0  0  0  0  0  0  0
  147.2713  141.2029  158.2393 O   0  0  0  0  0  0  0  0  0  0  0  0
  146.9705  143.4468  158.1808 N   0  0  0  0  0  0  0  0  0  0  0  0
  145.7791  143.5262  159.0263 C   0  0  0  0  0  0  0  0  0  0  0  0
  145.7545  144.7854  159.9502 C   0  0  0  0  0  0  0  0  0  0  0  0
  145.6677  146.0265  159.0990 N   0  3  0  0  0  0  0  0  0  0  0  0
  145.8710  147.3246  159.7902 C   0  0  0  0  0  0  0  0  0  0  0  0
  144.4702  146.0826  158.2223 C   0  0  0  0  0  0  0  0  0  0  0  0
  144.5971  144.6674  160.9652 C   0  0  0  0  0  0  0  0  0  0  0  0
  145.0914  143.7240  162.0723 C   0  0  0  0  0  0  0  0  0  0  0  0
  146.6242  143.7303  161.9911 C   0  0  0  0  0  0  0  0  0  0  0  0
  146.9722  144.7597  160.9111 C   0  0  0  0  0  0  0  0  0  0  0  0
  150.9079  141.7217  156.9873 N   0  0  0  0  0  0  0  0  0  0  0  0
  151.5586  142.5849  157.9535 C   0  0  0  0  0  0  0  0  0  0  0  0
  151.6153  140.7607  156.3554 N   0  0  0  0  0  0  0  0  0  0  0  0
  150.3869  138.6167  154.0974 H   0  0  0  0  0  0  0  0  0  0  0  0
  151.6058  138.2053  155.2990 H   0  0  0  0  0  0  0  0  0  0  0  0
  151.9902  139.3382  154.0042 H   0  0  0  0  0  0  0  0  0  0  0  0
  148.5474  140.4200  155.1064 H   0  0  0  0  0  0  0  0  0  0  0  0
  148.8116  143.5431  156.8016 H   0  0  0  0  0  0  0  0  0  0  0  0
  147.3158  144.3155  157.7997 H   0  0  0  0  0  0  0  0  0  0  0  0
  144.9209  143.5346  158.3553 H   0  0  0  0  0  0  0  0  0  0  0  0
  145.6605  142.6054  159.5984 H   0  0  0  0  0  0  0  0  0  0  0  0
  145.1737  147.4534  160.6184 H   0  0  0  0  0  0  0  0  0  0  0  0
  145.7246  148.1567  159.1010 H   0  0  0  0  0  0  0  0  0  0  0  0
  146.8901  147.4195  160.1645 H   0  0  0  0  0  0  0  0  0  0  0  0
  143.5593  146.2338  158.8023 H   0  0  0  0  0  0  0  0  0  0  0  0
  144.3512  145.1781  157.6280 H   0  0  0  0  0  0  0  0  0  0  0  0
  144.5545  146.9109  157.5183 H   0  0  0  0  0  0  0  0  0  0  0  0
  144.3851  145.6399  161.4109 H   0  0  0  0  0  0  0  0  0  0  0  0
  143.6680  144.3149  160.5156 H   0  0  0  0  0  0  0  0  0  0  0  0
  144.7373  144.0489  163.0513 H   0  0  0  0  0  0  0  0  0  0  0  0
  144.7150  142.7133  161.9102 H   0  0  0  0  0  0  0  0  0  0  0  0
  147.0843  143.9794  162.9479 H   0  0  0  0  0  0  0  0  0  0  0  0
  146.9891  142.7428  161.7056 H   0  0  0  0  0  0  0  0  0  0  0  0
  147.9203  144.5495  160.4180 H   0  0  0  0  0  0  0  0  0  0  0  0
  147.0971  145.7037  161.4389 H   0  0  0  0  0  0  0  0  0  0  0  0
  151.0252  142.5398  158.9036 H   0  0  0  0  0  0  0  0  0  0  0  0
  151.5514  143.6123  157.5882 H   0  0  0  0  0  0  0  0  0  0  0  0
  152.5918  142.2727  158.1136 H   0  0  0  0  0  0  0  0  0  0  0  0
  146.4542  145.9554  158.4695 H   0  0  0  0  0  0  0  0  0  0  0  0
  1  2  1  0  0  0  0
  1 21  1  0  0  0  0
  1 22  1  0  0  0  0
  1 23  1  0  0  0  0
  2 20  2  0  0  0  0
  2  3  1  0  0  0  0
  3  4  2  0  0  0  0
  3 24  1  0  0  0  0
  4  5  1  0  0  0  0
  4 18  1  0  0  0  0
  5  6  1  0  0  0  0
  5 25  1  0  0  0  0
  6  7  2  0  0  0  0
  6  8  1  0  0  0  0
  8  9  1  0  0  0  0
  8 26  1  0  0  0  0
  9 10  1  0  0  0  0
  9 27  1  0  0  0  0
  9 28  1  0  0  0  0
 10 17  1  0  0  0  0
 10 11  1  0  0  0  0
 10 14  1  0  0  0  0
 11 12  1  0  0  0  0
 11 13  1  0  0  0  0
 11 46  1  0  0  0  0
 12 29  1  0  0  0  0
 12 30  1  0  0  0  0
 12 31  1  0  0  0  0
 13 32  1  0  0  0  0
 13 33  1  0  0  0  0
 13 34  1  0  0  0  0
 14 15  1  0  0  0  0
 14 35  1  0  0  0  0
 14 36  1  0  0  0  0
 15 16  1  0  0  0  0
 15 37  1  0  0  0  0
 15 38  1  0  0  0  0
 16 17  1  0  0  0  0
 16 39  1  0  0  0  0
 16 40  1  0  0  0  0
 17 41  1  0  0  0  0
 17 42  1  0  0  0  0
 18 19  1  0  0  0  0
 18 20  1  0  0  0  0
 19 43  1  0  0  0  0
 19 44  1  0  0  0  0
 19 45  1  0  0  0  0
M  CHG  1  11   1
M  END
> <s_m_source_file>
AV-unprocessed.smi

> <i_m_source_file_index>
1755

> <i_lp_mmshare_version>
43012

> <i_f3d_flags>
0

> <s_epik_input>
W0NIM11jMVtjSF1jKG4objEpW0NIM10pW05IXUMoPU8pW05IXVtDSDJdQzIoTihbQ0gzXSlbQ0gzXSlbQ0gyXVtDSDJdW0NIMl1bQ0gyXTI=

> <s_epik_cmdline>
J2VwaWtfcHl0aG9uJywgJy1waCcsICc3LjAnLCAnLXRuJywgJzgnLCAnLW1hJywgJzIwMCcsICctbWV0YWxfYmluZGluZycsICctaW1hZScsICc8aW5maWxlLm1hZT4nLCAnLW9tYWUnLCAnPG91dGZpbGUubWFlPic=

> <r_lp_tautomer_probability>
1

> <r_epik_Ionization_Penalty>
0.00248705

> <r_epik_Ionization_Penalty_Charging>
0.00240703

> <r_epik_Ionization_Penalty_Neutral>
8.00151e-05

> <r_epik_State_Penalty>
0.00166499

> <r_epik_Charging_Adjusted_Penalty>
0.00407202

> <i_epik_Tot_Q>
1

> <i_epik_Tot_abs_Q>
1

> <r_epik_Metal_State_Penalty>
-0

> <b_epik_Metal_Only>
0

> <s_lp_Force_Field>
OPLS_2005

> <r_lp_Energy>
45.253

> <b_lp_Chiralities_Consistent>
1

> <s_lp_Variant>
AV-unprocessed.smi:1755-1

> <Gold.Version>
5.8.1

> <Gold.Id.Protein>
6NUR|6NUR_protein|mol2

> <Gold.PLP.Fitness>
44.3935

> <Gold.PLP.PLP>
-35.0231

> <Gold.PLP.part.hbond>
-4.0000

> <Gold.PLP.part.metal>
0.0000

> <Gold.PLP.part.buried>
-3.7320

> <Gold.PLP.part.nonpolar>
-27.2475

> <Gold.PLP.part.repulsive>
0.1203

> <Gold.PLP.ligand.clash>
0.0000

> <Gold.PLP.ligand.torsion>
0.9397

> <Gold.PLP.Chemscore.Hbond>
3.7000

> <Gold.PLP.Chemscore.CHOScore>
0.0000

> <Gold.PLP.Chemscore.Metal>
0.0000

> <Gold.Chemscore.Hbonds>
donor molecule, donor type, donor heavy atom, donor atom, acceptor molecule, acceptor atom, score
      L1  H     5    25       P1  8028  1.00
      L1  H     8    26       P1  8029  0.80
      L1  H    11    46       P1  8029  2.00

> <Gold.PLP.Chemscore.Internal.Correction>
0.1499

> <Gold.Rescore>
     Score         DG    S(hbond)    S(metal)    S(lipo)     H(rot)  DE(clash)    DE(int)     intcor
     14.70     -15.65       1.82        0.00      67.51       1.49       0.02       0.93       ----

> <Gold.Chemscore.Fitness>
14.7030

> <Gold.Chemscore.DG>
-15.6491

> <Gold.Chemscore.ZeroCoef>
-5.4800

> <Gold.Chemscore.Hbond>
1.8179

> <Gold.Chemscore.Metal>
0.0000

> <Gold.Chemscore.Lipo>
67.5145

> <Gold.Chemscore.Internal_Hbond>
0.0000

> <Gold.Chemscore.DEClash>
0.0155

> <Gold.Chemscore.DEInternal>
0.9306

> <Gold.Chemscore.Rot>
1.4851

> <Gold.Chemscore.Internal.Correction>
   9.000000E+99

> <Gold.Chemscore.Hbonds>
donor molecule, donor type, donor heavy atom, donor atom, acceptor molecule, acceptor atom, score
      L1  H     5    25       P1  8028  0.52
      L1  H     8    26       P1  8029  0.12
      L1  H    11    46       P1  8029  1.00

> <Gold.Chemscore.Hbond.Weighted>
-6.0717

> <Gold.Chemscore.Metal.Weighted>
-0.0000

> <Gold.Chemscore.Lipo.Weighted>
-7.8992

> <Gold.Chemscore.Internal_Hbond.Weighted>
0.0000

> <Gold.Chemscore.DEClash.Weighted>
0.0155

> <Gold.Chemscore.DEInternal.Weighted>
0.9306

> <Gold.Chemscore.Rot.Weighted>
3.8018

> <Gold.Chemscore.Internal.Correction.Weighted>
   9.000000E+99

> <Gold.Protein.RotatedTorsions>
[ 6907 6896 6895 6894 ] final -111.74 input  -60.11 | X-H torsion
[ 7974 7965 7964 7962 ] final   86.28 input  175.53 | X-H torsion
[ 8008 7997 7996 7995 ] final  128.24 input   59.86 | X-H torsion
[ 10167 10162 10161 10158 ] final   98.13 input  -65.29 | X-H torsion
[ 10718 10713 10712 10709 ] final -155.39 input   66.30 | X-H torsion
[ 10763 10752 10751 10750 ] final -177.34 input  -60.55 | X-H torsion
[ 11005 11000 10999 10996 ] final   -1.30 input  -57.11 | X-H torsion

> <Gold.Protein.ActiveResidues>
 VAL166  LYS551  ARG553  GLY616  TRP617  ASP618  TYR619  PRO620  LYS621  CYS622 
 ASP623  PHE694  ASN695  SER759  ASP760  ASP761  ALA762  ILE779  LEU786  VAL792 
 PHE793  MET794  SER795  GLU796  ALA797  LYS798  CYS799  TRP800  GLU811  SER814 

> <Gold.Protein.RotatedAtoms>
  150.7711  133.9191  159.3392 H   0  0  0  0  0  0  0  0  0  0  0  0  # atno 6907 bound_to 6896
  151.7077  135.0916  160.0271 H   0  0  0  0  0  0  0  0  0  0  0  0  # atno 6908 bound_to 6896
  152.3728  133.6404  159.6136 H   0  0  0  0  0  0  0  0  0  0  0  0  # atno 6909 bound_to 6896
  145.5743  139.2317  143.2388 H   0  0  0  0  0  0  0  0  0  0  0  0  # atno 7974 bound_to 7965
  156.2910  140.2649  156.2403 H   0  0  0  0  0  0  0  0  0  0  0  0  # atno 8008 bound_to 7997
  154.9984  140.0388  157.2368 H   0  0  0  0  0  0  0  0  0  0  0  0  # atno 8009 bound_to 7997
  154.7623  140.2763  155.6209 H   0  0  0  0  0  0  0  0  0  0  0  0  # atno 8010 bound_to 7997
  139.7737  144.6913  151.0120 H   0  0  0  0  0  0  0  0  0  0  0  0  # atno 10167 bound_to 10162
  156.5122  130.8440  151.2651 H   0  0  0  0  0  0  0  0  0  0  0  0  # atno 10718 bound_to 10713
  154.5614  135.2820  155.0916 H   0  0  0  0  0  0  0  0  0  0  0  0  # atno 10763 bound_to 10752
  154.2323  135.6372  153.5183 H   0  0  0  0  0  0  0  0  0  0  0  0  # atno 10764 bound_to 10752
  153.0030  135.5540  154.6209 H   0  0  0  0  0  0  0  0  0  0  0  0  # atno 10765 bound_to 10752
  140.6458  133.9448  155.8352 H   0  0  0  0  0  0  0  0  0  0  0  0  # atno 11005 bound_to 11000
  146.1762  140.6569  142.9210 LP  0  0  0  0  0  0  0  0  0  0  0  0  # atno 17320 bound_to 7965
  144.7423  140.4976  143.6860 LP  0  0  0  0  0  0  0  0  0  0  0  0  # atno 17321 bound_to 7965
  140.7815  143.4560  151.0345 LP  0  0  0  0  0  0  0  0  0  0  0  0  # atno 17342 bound_to 10162
  139.8243  143.7777  152.3178 LP  0  0  0  0  0  0  0  0  0  0  0  0  # atno 17343 bound_to 10162
  157.7449  130.9945  150.2712 LP  0  0  0  0  0  0  0  0  0  0  0  0  # atno 17370 bound_to 10713
  156.3229  130.3788  149.7559 LP  0  0  0  0  0  0  0  0  0  0  0  0  # atno 17371 bound_to 10713
  141.0573  134.0398  157.3705 LP  0  0  0  0  0  0  0  0  0  0  0  0  # atno 17394 bound_to 11000
  139.9063  135.0180  156.7501 LP  0  0  0  0  0  0  0  0  0  0  0  0  # atno 17395 bound_to 11000

$$$$
