AV-unprocessed.smi:1769|AV-procd|sdf|7153|dock10
  -GOLD-   22720 8393D 1   1.00000     0.00000
 Structure written by MMmdl.
 42 43  0  0  0  0  0  0  0  0  2 V2000
  153.1210  141.9997  162.1482 C   0  0  0  0  0  0  0  0  0  0  0  0
  152.7513  143.2256  161.3099 C   0  0  0  0  0  0  0  0  0  0  0  0
  152.4907  144.2734  161.9015 O   0  0  0  0  0  0  0  0  0  0  0  0
  152.7278  143.1219  159.9592 N   0  0  0  0  0  0  0  0  0  0  0  0
  152.3218  144.1867  159.0330 C   0  0  0  0  0  0  0  0  0  0  0  0
  150.9572  143.8162  158.4256 C   0  0  0  0  0  0  0  0  0  0  0  0
  151.0166  142.4385  157.7388 C   0  0  0  0  0  0  0  0  0  0  0  0
  151.6190  141.3575  158.6682 C   0  0  1  0  0  0  0  0  0  0  0  0
  151.8049  140.0280  157.9253 C   0  0  0  0  0  0  0  0  0  0  0  0
  152.4906  139.9773  156.9036 O   0  0  0  0  0  0  0  0  0  0  0  0
  151.1867  138.9571  158.4471 N   0  0  0  0  0  0  0  0  0  0  0  0
  151.2382  137.6112  157.8890 C   0  0  0  0  0  0  0  0  0  0  0  0
  149.8321  137.0828  157.5616 C   0  0  0  0  0  0  0  0  0  0  0  0
  149.8694  135.9345  156.5725 C   0  0  0  0  0  0  0  0  0  0  0  0
  150.3923  134.6787  156.9526 C   0  0  0  0  0  0  0  0  0  0  0  0
  150.4118  133.6252  156.0150 C   0  0  0  0  0  0  0  0  0  0  0  0
  149.9071  133.8512  154.7180 C   0  0  0  0  0  0  0  0  0  0  0  0
  149.4144  135.0663  154.3905 N   0  3  0  0  0  0  0  0  0  0  0  0
  149.3783  136.1006  155.2593 C   0  0  0  0  0  0  0  0  0  0  0  0
  152.9593  141.8530  159.2574 C   0  0  0  0  0  0  0  0  0  0  0  0
  154.1147  141.6359  161.8855 H   0  0  0  0  0  0  0  0  0  0  0  0
  152.3979  141.1976  161.9994 H   0  0  0  0  0  0  0  0  0  0  0  0
  153.1287  142.2485  163.2099 H   0  0  0  0  0  0  0  0  0  0  0  0
  152.2686  145.1718  159.4940 H   0  0  0  0  0  0  0  0  0  0  0  0
  153.0686  144.2770  158.2427 H   0  0  0  0  0  0  0  0  0  0  0  0
  150.2006  143.8020  159.2113 H   0  0  0  0  0  0  0  0  0  0  0  0
  150.6458  144.5766  157.7090 H   0  0  0  0  0  0  0  0  0  0  0  0
  150.0172  142.1452  157.4150 H   0  0  0  0  0  0  0  0  0  0  0  0
  151.6188  142.5278  156.8330 H   0  0  0  0  0  0  0  0  0  0  0  0
  150.9245  141.1959  159.4952 H   0  0  0  0  0  0  0  0  0  0  0  0
  150.6469  139.0843  159.2913 H   0  0  0  0  0  0  0  0  0  0  0  0
  151.8681  137.6022  156.9975 H   0  0  0  0  0  0  0  0  0  0  0  0
  151.7220  136.9592  158.6167 H   0  0  0  0  0  0  0  0  0  0  0  0
  149.3351  136.7526  158.4749 H   0  0  0  0  0  0  0  0  0  0  0  0
  149.2137  137.8807  157.1477 H   0  0  0  0  0  0  0  0  0  0  0  0
  150.7728  134.5225  157.9519 H   0  0  0  0  0  0  0  0  0  0  0  0
  150.8074  132.6578  156.2881 H   0  0  0  0  0  0  0  0  0  0  0  0
  149.8821  133.1029  153.9391 H   0  0  0  0  0  0  0  0  0  0  0  0
  148.9591  137.0215  154.8805 H   0  0  0  0  0  0  0  0  0  0  0  0
  153.6928  142.0130  158.4651 H   0  0  0  0  0  0  0  0  0  0  0  0
  153.3914  141.0902  159.9073 H   0  0  0  0  0  0  0  0  0  0  0  0
  149.0537  135.2083  153.4467 H   0  0  0  0  0  0  0  0  0  0  0  0
  1  2  1  0  0  0  0
  1 21  1  0  0  0  0
  1 22  1  0  0  0  0
  1 23  1  0  0  0  0
  2  3  2  0  0  0  0
  2  4  1  0  0  0  0
  4 20  1  0  0  0  0
  4  5  1  0  0  0  0
  5  6  1  0  0  0  0
  5 24  1  0  0  0  0
  5 25  1  0  0  0  0
  6  7  1  0  0  0  0
  6 26  1  0  0  0  0
  6 27  1  0  0  0  0
  7  8  1  0  0  0  0
  7 28  1  0  0  0  0
  7 29  1  0  0  0  0
  8  9  1  0  0  0  0
  8 20  1  0  0  0  0
  8 30  1  0  0  0  0
  9 10  2  0  0  0  0
  9 11  1  0  0  0  0
 11 12  1  0  0  0  0
 11 31  1  0  0  0  0
 12 13  1  0  0  0  0
 12 32  1  0  0  0  0
 12 33  1  0  0  0  0
 13 14  1  0  0  0  0
 13 34  1  0  0  0  0
 13 35  1  0  0  0  0
 14 19  1  0  0  0  0
 14 15  2  0  0  0  0
 15 16  1  0  0  0  0
 15 36  1  0  0  0  0
 16 17  2  0  0  0  0
 16 37  1  0  0  0  0
 17 18  1  0  0  0  0
 17 38  1  0  0  0  0
 18 19  2  0  0  0  0
 18 42  1  0  0  0  0
 19 39  1  0  0  0  0
 20 40  1  0  0  0  0
 20 41  1  0  0  0  0
M  CHG  1  18   1
M  END
> <s_m_source_file>
AV-unprocessed.smi

> <i_m_source_file_index>
1769

> <i_lp_mmshare_version>
43012

> <i_f3d_flags>
0

> <s_epik_input>
W0NIM11DKD1PKU4xW0NIMl1bQ0gyXVtDSDJdW0NASF0oW0NIMl0xKUMoPU8pW05IXVtDSDJdW0NIMl1jMltjSF1bY0hdW2NIXW5bY0hdMg==

> <s_epik_cmdline>
J2VwaWtfcHl0aG9uJywgJy1waCcsICc3LjAnLCAnLXRuJywgJzgnLCAnLW1hJywgJzIwMCcsICctbWV0YWxfYmluZGluZycsICctaW1hZScsICc8aW5maWxlLm1hZT4nLCAnLW9tYWUnLCAnPG91dGZpbGUubWFlPic=

> <r_epik_Ionization_Penalty>
2.25127

> <r_epik_Ionization_Penalty_Charging>
2.25127

> <r_epik_Ionization_Penalty_Neutral>
1.02261e-06

> <r_epik_State_Penalty>
2.39841

> <r_epik_Charging_Adjusted_Penalty>
4.64968

> <i_epik_Tot_Q>
1

> <i_epik_Tot_abs_Q>
1

> <r_epik_Metal_State_Penalty>
2.41159

> <b_epik_Metal_Only>
0

> <s_lp_Force_Field>
OPLS_2005

> <r_lp_Energy>
29.7946

> <b_lp_Chiralities_Consistent>
1

> <s_lp_Variant>
AV-unprocessed.smi:1769-3

> <Gold.Version>
5.8.1

> <Gold.Id.Protein>
6NUR|6NUR_protein|mol2

> <Gold.PLP.Fitness>
44.2953

> <Gold.PLP.PLP>
-36.0624

> <Gold.PLP.part.hbond>
-2.0000

> <Gold.PLP.part.metal>
0.0000

> <Gold.PLP.part.buried>
-2.7798

> <Gold.PLP.part.nonpolar>
-31.0577

> <Gold.PLP.part.repulsive>
0.3093

> <Gold.PLP.ligand.clash>
0.0000

> <Gold.PLP.ligand.torsion>
0.2174

> <Gold.PLP.Chemscore.Hbond>
2.8800

> <Gold.PLP.Chemscore.CHOScore>
0.0000

> <Gold.PLP.Chemscore.Metal>
0.0000

> <Gold.Chemscore.Hbonds>
donor molecule, donor type, donor heavy atom, donor atom, acceptor molecule, acceptor atom, score
      L1  H    18    42       P1  7948  2.00
      P1  H  7997  8010       L1    10  0.88

> <Gold.PLP.Chemscore.Internal.Correction>
0.0277

> <Gold.Rescore>
     Score         DG    S(hbond)    S(metal)    S(lipo)     H(rot)  DE(clash)    DE(int)     intcor
     16.05     -16.28       1.51        0.00      84.41       1.61       0.05       0.18       ----

> <Gold.Chemscore.Fitness>
16.0509

> <Gold.Chemscore.DG>
-16.2788

> <Gold.Chemscore.ZeroCoef>
-5.4800

> <Gold.Chemscore.Hbond>
1.5105

> <Gold.Chemscore.Metal>
0.0000

> <Gold.Chemscore.Lipo>
84.4053

> <Gold.Chemscore.Internal_Hbond>
0.0000

> <Gold.Chemscore.DEClash>
0.0491

> <Gold.Chemscore.DEInternal>
0.1788

> <Gold.Chemscore.Rot>
1.6100

> <Gold.Chemscore.Internal.Correction>
   9.000000E+99

> <Gold.Chemscore.Hbonds>
donor molecule, donor type, donor heavy atom, donor atom, acceptor molecule, acceptor atom, score
      L1  H    18    42       P1  7948  0.38
      P1  H  7997  8010       L1    10  0.83

> <Gold.Chemscore.Hbond.Weighted>
-5.0450

> <Gold.Chemscore.Metal.Weighted>
-0.0000

> <Gold.Chemscore.Lipo.Weighted>
-9.8754

> <Gold.Chemscore.Internal_Hbond.Weighted>
0.0000

> <Gold.Chemscore.DEClash.Weighted>
0.0491

> <Gold.Chemscore.DEInternal.Weighted>
0.1788

> <Gold.Chemscore.Rot.Weighted>
4.1216

> <Gold.Chemscore.Internal.Correction.Weighted>
   9.000000E+99

> <Gold.Protein.RotatedTorsions>
[ 6907 6896 6895 6894 ] final   19.48 input  -60.11 | X-H torsion
[ 7974 7965 7964 7962 ] final   79.55 input  175.53 | X-H torsion
[ 8008 7997 7996 7995 ] final   44.08 input   59.86 | X-H torsion
[ 10167 10162 10161 10158 ] final    7.55 input  -65.29 | X-H torsion
[ 10718 10713 10712 10709 ] final -157.55 input   66.30 | X-H torsion
[ 10763 10752 10751 10750 ] final  104.83 input  -60.55 | X-H torsion
[ 11005 11000 10999 10996 ] final   91.02 input  -57.11 | X-H torsion

> <Gold.Protein.ActiveResidues>
 VAL166  LYS551  ARG553  GLY616  TRP617  ASP618  TYR619  PRO620  LYS621  CYS622 
 ASP623  PHE694  ASN695  SER759  ASP760  ASP761  ALA762  ILE779  LEU786  VAL792 
 PHE793  MET794  SER795  GLU796  ALA797  LYS798  CYS799  TRP800  GLU811  SER814 

> <Gold.Protein.RotatedAtoms>
  151.8815  135.0452  160.0488 H   0  0  0  0  0  0  0  0  0  0  0  0  # atno 6907 bound_to 6896
  152.2509  133.5210  159.5333 H   0  0  0  0  0  0  0  0  0  0  0  0  # atno 6908 bound_to 6896
  150.7083  134.0878  159.3963 H   0  0  0  0  0  0  0  0  0  0  0  0  # atno 6909 bound_to 6896
  145.6627  139.2475  143.1913 H   0  0  0  0  0  0  0  0  0  0  0  0  # atno 7974 bound_to 7965
  155.3134  140.3392  155.4243 H   0  0  0  0  0  0  0  0  0  0  0  0  # atno 8008 bound_to 7997
  156.1944  140.1709  156.8065 H   0  0  0  0  0  0  0  0  0  0  0  0  # atno 8009 bound_to 7997
  154.5481  140.0711  156.8606 H   0  0  0  0  0  0  0  0  0  0  0  0  # atno 8010 bound_to 7997
  140.6365  143.7874  150.7367 H   0  0  0  0  0  0  0  0  0  0  0  0  # atno 10167 bound_to 10162
  156.5418  130.8567  151.2751 H   0  0  0  0  0  0  0  0  0  0  0  0  # atno 10718 bound_to 10713
  153.3712  135.3930  155.1790 H   0  0  0  0  0  0  0  0  0  0  0  0  # atno 10763 bound_to 10752
  154.8694  135.3703  154.4975 H   0  0  0  0  0  0  0  0  0  0  0  0  # atno 10764 bound_to 10752
  153.5443  135.7084  153.5682 H   0  0  0  0  0  0  0  0  0  0  0  0  # atno 10765 bound_to 10752
  139.8846  134.8649  156.3368 H   0  0  0  0  0  0  0  0  0  0  0  0  # atno 11005 bound_to 11000
  146.1112  140.7426  142.9502 LP  0  0  0  0  0  0  0  0  0  0  0  0  # atno 17320 bound_to 7965
  144.7083  140.3942  143.7100 LP  0  0  0  0  0  0  0  0  0  0  0  0  # atno 17321 bound_to 7965
  140.1496  143.4369  152.2140 LP  0  0  0  0  0  0  0  0  0  0  0  0  # atno 17342 bound_to 10162
  139.5575  144.7383  151.4251 LP  0  0  0  0  0  0  0  0  0  0  0  0  # atno 17343 bound_to 10162
  157.7404  130.9849  150.2374 LP  0  0  0  0  0  0  0  0  0  0  0  0  # atno 17370 bound_to 10713
  156.2964  130.3752  149.7792 LP  0  0  0  0  0  0  0  0  0  0  0  0  # atno 17371 bound_to 10713
  140.9686  133.7342  156.0502 LP  0  0  0  0  0  0  0  0  0  0  0  0  # atno 17394 bound_to 11000
  140.7900  134.3628  157.5467 LP  0  0  0  0  0  0  0  0  0  0  0  0  # atno 17395 bound_to 11000

$$$$
