AV-unprocessed.smi:3029|AV-procd|sdf|11527|dock4
  -GOLD-   2272016473D 1   1.00000     0.00000
 Structure written by MMmdl.
 42 43  0  0  0  0  0  0  0  0  4 V2000
  150.8545  140.3325  155.2163 O   0  0  0  0  0  0  0  0  0  0  0  0
  149.7348  140.8425  155.2546 C   0  0  0  0  0  0  0  0  0  0  0  0
  148.9683  141.1346  154.0391 C   0  0  0  0  0  0  0  0  0  0  0  0
  147.7358  141.6769  154.0924 C   0  0  0  0  0  0  0  0  0  0  0  0
  147.1239  141.9884  155.3697 C   0  0  0  0  0  0  0  0  0  0  0  0
  145.7956  142.5567  155.4398 N   0  3  0  0  0  0  0  0  0  0  0  0
  145.2749  142.7177  156.5396 O   0  0  0  0  0  0  0  0  0  0  0  0
  145.2297  142.8607  154.3948 O   0  5  0  0  0  0  0  0  0  0  0  0
  147.8335  141.7254  156.4848 C   0  0  0  0  0  0  0  0  0  0  0  0
  149.1260  141.1687  156.4346 N   0  0  0  0  0  0  0  0  0  0  0  0
  149.8003  140.9275  157.7175 C   0  0  0  0  0  0  0  0  0  0  0  0
  151.0708  141.7816  157.8545 C   0  0  0  0  0  0  0  0  0  0  0  0
  151.7471  141.5121  159.1401 N   0  3  0  0  0  0  0  0  0  0  0  0
  153.0223  142.2375  159.3567 C   0  0  2  0  0  0  0  0  0  0  0  0
  154.0609  141.3507  160.0799 C   0  0  0  0  0  0  0  0  0  0  0  0
  153.6592  141.0613  161.5366 C   0  0  0  0  0  0  0  0  0  0  0  0
  153.4184  142.3624  162.3160 C   0  0  0  0  0  0  0  0  0  0  0  0
  152.3906  143.2614  161.6099 C   0  0  0  0  0  0  0  0  0  0  0  0
  152.7997  143.5538  160.1490 C   0  0  2  0  0  0  0  0  0  0  0  0
  151.8455  144.5506  159.4516 C   0  0  0  0  0  0  0  0  0  0  0  0
  150.5710  144.1815  159.5821 F   0  0  0  0  0  0  0  0  0  0  0  0
  151.9926  145.7624  159.9862 F   0  0  0  0  0  0  0  0  0  0  0  0
  152.1400  144.6307  158.1543 F   0  0  0  0  0  0  0  0  0  0  0  0
  149.4048  140.9094  153.0771 H   0  0  0  0  0  0  0  0  0  0  0  0
  147.2104  141.8754  153.1698 H   0  0  0  0  0  0  0  0  0  0  0  0
  147.4651  141.9155  157.4828 H   0  0  0  0  0  0  0  0  0  0  0  0
  149.1203  141.1290  158.5477 H   0  0  0  0  0  0  0  0  0  0  0  0
  150.0565  139.8711  157.8138 H   0  0  0  0  0  0  0  0  0  0  0  0
  151.7464  141.5679  157.0266 H   0  0  0  0  0  0  0  0  0  0  0  0
  150.8190  142.8415  157.8006 H   0  0  0  0  0  0  0  0  0  0  0  0
  151.1110  141.7913  159.8739 H   0  0  0  0  0  0  0  0  0  0  0  0
  153.4216  142.5012  158.3763 H   0  0  0  0  0  0  0  0  0  0  0  0
  154.2239  140.4158  159.5445 H   0  0  0  0  0  0  0  0  0  0  0  0
  155.0252  141.8607  160.0770 H   0  0  0  0  0  0  0  0  0  0  0  0
  152.7579  140.4478  161.5580 H   0  0  0  0  0  0  0  0  0  0  0  0
  154.4385  140.4768  162.0264 H   0  0  0  0  0  0  0  0  0  0  0  0
  153.0798  142.1332  163.3269 H   0  0  0  0  0  0  0  0  0  0  0  0
  154.3606  142.9016  162.4225 H   0  0  0  0  0  0  0  0  0  0  0  0
  151.4091  142.7871  161.6369 H   0  0  0  0  0  0  0  0  0  0  0  0
  152.2924  144.1948  162.1649 H   0  0  0  0  0  0  0  0  0  0  0  0
  153.7697  144.0524  160.1920 H   0  0  0  0  0  0  0  0  0  0  0  0
  151.9181  140.5203  159.2278 H   0  0  0  0  0  0  0  0  0  0  0  0
  1  2  2  0  0  0  0
  2 10  1  0  0  0  0
  2  3  1  0  0  0  0
  3  4  2  0  0  0  0
  3 24  1  0  0  0  0
  4  5  1  0  0  0  0
  4 25  1  0  0  0  0
  5  6  1  0  0  0  0
  5  9  2  0  0  0  0
  6  7  2  0  0  0  0
  6  8  1  0  0  0  0
  9 10  1  0  0  0  0
  9 26  1  0  0  0  0
 10 11  1  0  0  0  0
 11 12  1  0  0  0  0
 11 27  1  0  0  0  0
 11 28  1  0  0  0  0
 12 13  1  0  0  0  0
 12 29  1  0  0  0  0
 12 30  1  0  0  0  0
 13 14  1  0  0  0  0
 13 31  1  0  0  0  0
 13 42  1  0  0  0  0
 14 19  1  0  0  0  0
 14 15  1  0  0  0  0
 14 32  1  0  0  0  0
 15 16  1  0  0  0  0
 15 33  1  0  0  0  0
 15 34  1  0  0  0  0
 16 17  1  0  0  0  0
 16 35  1  0  0  0  0
 16 36  1  0  0  0  0
 17 18  1  0  0  0  0
 17 37  1  0  0  0  0
 17 38  1  0  0  0  0
 18 19  1  0  0  0  0
 18 39  1  0  0  0  0
 18 40  1  0  0  0  0
 19 20  1  0  0  0  0
 19 41  1  0  0  0  0
 20 21  1  0  0  0  0
 20 22  1  0  0  0  0
 20 23  1  0  0  0  0
M  CHG  1   6   1
M  CHG  1   8  -1
M  CHG  1  13   1
M  END
> <s_m_source_file>
AV-unprocessed.smi

> <i_m_source_file_index>
3029

> <i_lp_mmshare_version>
43012

> <i_f3d_flags>
0

> <s_epik_input>
Tz1jMVtjSF1bY0hdYyhbTitdKD1PKVtPLV0pW2NIXW4xW0NIMl1bQ0gyXVtOSF1bQ0BASF0yW0NIMl1bQ0gyXVtDSDJdW0NIMl1bQ0BIXTJDKEYpKEYpRg==

> <s_epik_cmdline>
J2VwaWtfcHl0aG9uJywgJy1waCcsICc3LjAnLCAnLXRuJywgJzgnLCAnLW1hJywgJzIwMCcsICctbWV0YWxfYmluZGluZycsICctaW1hZScsICc8aW5maWxlLm1hZT4nLCAnLW9tYWUnLCAnPG91dGZpbGUubWFlPic=

> <r_lp_tautomer_probability>
1

> <r_epik_Ionization_Penalty>
0.037386

> <r_epik_Ionization_Penalty_Charging>
0.037386

> <r_epik_Ionization_Penalty_Neutral>
0

> <r_epik_State_Penalty>
0.0312892

> <r_epik_Charging_Adjusted_Penalty>
0.0686752

> <i_epik_Tot_Q>
1

> <i_epik_Tot_abs_Q>
3

> <r_epik_Metal_State_Penalty>
0.0312892

> <b_epik_Metal_Only>
0

> <s_lp_Force_Field>
OPLS_2005

> <r_lp_Energy>
34.7992

> <b_lp_Chiralities_Consistent>
1

> <s_lp_Variant>
AV-unprocessed.smi:3029-3

> <Gold.Version>
5.8.1

> <Gold.Id.Protein>
6NUR|6NUR_protein|mol2

> <Gold.PLP.Fitness>
58.7733

> <Gold.PLP.PLP>
-57.2786

> <Gold.PLP.part.hbond>
-1.0000

> <Gold.PLP.part.metal>
0.0000

> <Gold.PLP.part.buried>
-6.3574

> <Gold.PLP.part.nonpolar>
-50.5177

> <Gold.PLP.part.repulsive>
0.4642

> <Gold.PLP.ligand.clash>
0.0364

> <Gold.PLP.ligand.torsion>
0.7775

> <Gold.PLP.Chemscore.Hbond>
1.0000

> <Gold.PLP.Chemscore.CHOScore>
0.0000

> <Gold.PLP.Chemscore.Metal>
0.0000

> <Gold.Chemscore.Hbonds>
donor molecule, donor type, donor heavy atom, donor atom, acceptor molecule, acceptor atom, score
      P1  H  7989  7998       L1     1  1.00

> <Gold.PLP.Chemscore.Internal.Correction>
0.0862

> <Gold.Rescore>
     Score         DG    S(hbond)    S(metal)    S(lipo)     H(rot)  DE(clash)    DE(int)     intcor
     13.31     -16.49       0.94        0.00     108.93       1.90       0.09       3.10       ----

> <Gold.Chemscore.Fitness>
13.3057

> <Gold.Chemscore.DG>
-16.4946

> <Gold.Chemscore.ZeroCoef>
-5.4800

> <Gold.Chemscore.Hbond>
0.9410

> <Gold.Chemscore.Metal>
0.0000

> <Gold.Chemscore.Lipo>
108.9326

> <Gold.Chemscore.Internal_Hbond>
0.0000

> <Gold.Chemscore.DEClash>
0.0931

> <Gold.Chemscore.DEInternal>
3.0958

> <Gold.Chemscore.Rot>
1.9037

> <Gold.Chemscore.Internal.Correction>
   9.000000E+99

> <Gold.Chemscore.Hbonds>
donor molecule, donor type, donor heavy atom, donor atom, acceptor molecule, acceptor atom, score
      P1  H  7989  7998       L1     1  0.53

> <Gold.Chemscore.Hbond.Weighted>
-3.1431

> <Gold.Chemscore.Metal.Weighted>
-0.0000

> <Gold.Chemscore.Lipo.Weighted>
-12.7451

> <Gold.Chemscore.Internal_Hbond.Weighted>
0.0000

> <Gold.Chemscore.DEClash.Weighted>
0.0931

> <Gold.Chemscore.DEInternal.Weighted>
3.0958

> <Gold.Chemscore.Rot.Weighted>
4.8736

> <Gold.Chemscore.Internal.Correction.Weighted>
   9.000000E+99

> <Gold.Protein.RotatedTorsions>
[ 6907 6896 6895 6894 ] final  -44.57 input  -60.11 | X-H torsion
[ 7974 7965 7964 7962 ] final  179.49 input  175.53 | X-H torsion
[ 8008 7997 7996 7995 ] final  -35.46 input   59.86 | X-H torsion
[ 10167 10162 10161 10158 ] final   87.76 input  -65.29 | X-H torsion
[ 10718 10713 10712 10709 ] final  -30.47 input   66.30 | X-H torsion
[ 10763 10752 10751 10750 ] final  115.63 input  -60.55 | X-H torsion
[ 11005 11000 10999 10996 ] final   78.31 input  -57.11 | X-H torsion

> <Gold.Protein.ActiveResidues>
 VAL166  LYS551  ARG553  GLY616  TRP617  ASP618  TYR619  PRO620  LYS621  CYS622 
 ASP623  PHE694  ASN695  SER759  ASP760  ASP761  ALA762  ILE779  LEU786  VAL792 
 PHE793  MET794  SER795  GLU796  ALA797  LYS798  CYS799  TRP800  GLU811  SER814 

> <Gold.Protein.RotatedAtoms>
  150.9313  134.8728  159.7552 H   0  0  0  0  0  0  0  0  0  0  0  0  # atno 6907 bound_to 6896
  152.5039  134.4075  159.9447 H   0  0  0  0  0  0  0  0  0  0  0  0  # atno 6908 bound_to 6896
  151.4101  133.3690  159.2778 H   0  0  0  0  0  0  0  0  0  0  0  0  # atno 6909 bound_to 6896
  144.7145  140.0556  143.6434 H   0  0  0  0  0  0  0  0  0  0  0  0  # atno 7974 bound_to 7965
  154.4095  140.1656  156.2215 H   0  0  0  0  0  0  0  0  0  0  0  0  # atno 8008 bound_to 7997
  155.9359  140.3411  155.6264 H   0  0  0  0  0  0  0  0  0  0  0  0  # atno 8009 bound_to 7997
  155.7049  140.0749  157.2386 H   0  0  0  0  0  0  0  0  0  0  0  0  # atno 8010 bound_to 7997
  139.8741  144.6476  150.8916 H   0  0  0  0  0  0  0  0  0  0  0  0  # atno 10167 bound_to 10162
  156.3994  130.4387  149.7334 H   0  0  0  0  0  0  0  0  0  0  0  0  # atno 10718 bound_to 10713
  153.5251  135.3590  155.2650 H   0  0  0  0  0  0  0  0  0  0  0  0  # atno 10763 bound_to 10752
  154.8732  135.4055  154.3215 H   0  0  0  0  0  0  0  0  0  0  0  0  # atno 10764 bound_to 10752
  153.3893  135.7071  153.6574 H   0  0  0  0  0  0  0  0  0  0  0  0  # atno 10765 bound_to 10752
  139.9218  134.7753  156.1633 H   0  0  0  0  0  0  0  0  0  0  0  0  # atno 11005 bound_to 11000
  145.9907  139.3013  143.0986 LP  0  0  0  0  0  0  0  0  0  0  0  0  # atno 17320 bound_to 7965
  145.8906  140.9306  143.0554 LP  0  0  0  0  0  0  0  0  0  0  0  0  # atno 17321 bound_to 7965
  140.7756  143.3639  151.1775 LP  0  0  0  0  0  0  0  0  0  0  0  0  # atno 17342 bound_to 10162
  139.7256  143.9153  152.3001 LP  0  0  0  0  0  0  0  0  0  0  0  0  # atno 17343 bound_to 10162
  156.4356  130.7836  151.2857 LP  0  0  0  0  0  0  0  0  0  0  0  0  # atno 17370 bound_to 10713
  157.7503  131.0140  150.3449 LP  0  0  0  0  0  0  0  0  0  0  0  0  # atno 17371 bound_to 10713
  141.0744  133.6782  156.2207 LP  0  0  0  0  0  0  0  0  0  0  0  0  # atno 17394 bound_to 11000
  140.6452  134.5124  157.5573 LP  0  0  0  0  0  0  0  0  0  0  0  0  # atno 17395 bound_to 11000

$$$$
