AV-unprocessed.smi:3176|AV-procd|sdf|12126|dock7
  -GOLD-   2272017563D 1   1.00000     0.00000
 Structure written by MMmdl.
 33 34  0  0  0  0  0  0  0  0  2 V2000
  148.8831  141.2857  153.9106 O   0  0  0  0  0  0  0  0  0  0  0  0
  148.1956  141.4208  154.9230 C   0  0  0  0  0  0  0  0  0  0  0  0
  148.7063  141.3770  156.1638 N   0  0  0  0  0  0  0  0  0  0  0  0
  150.1132  141.1733  156.4858 C   0  0  0  0  0  0  0  0  0  0  0  0
  150.9366  142.4481  156.2409 C   0  0  0  0  0  0  0  0  0  0  0  0
  151.2836  143.1637  157.5317 C   0  0  0  0  0  0  0  0  0  0  0  0
  152.1342  142.5907  158.5019 C   0  0  0  0  0  0  0  0  0  0  0  0
  152.4104  143.3070  159.6853 C   0  0  0  0  0  0  0  0  0  0  0  0
  151.8304  144.5787  159.8736 C   0  0  0  0  0  0  0  0  0  0  0  0
  150.9859  145.1019  158.8732 C   0  0  0  0  0  0  0  0  0  0  0  0
  150.7445  144.3846  157.7537 N   0  3  0  0  0  0  0  0  0  0  0  0
  146.6804  141.6297  154.7987 C   0  0  2  0  0  0  0  0  0  0  0  0
  146.2875  142.8908  154.0293 C   0  0  0  0  0  0  0  0  0  0  0  0
  144.8822  143.1272  154.5384 C   0  0  0  0  0  0  0  0  0  0  0  0
  144.9736  142.6855  155.9986 C   0  0  0  0  0  0  0  0  0  0  0  0
  146.0910  141.8040  156.0856 O   0  0  0  0  0  0  0  0  0  0  0  0
  148.0694  141.5006  156.9382 H   0  0  0  0  0  0  0  0  0  0  0  0
  150.2157  140.8397  157.5199 H   0  0  0  0  0  0  0  0  0  0  0  0
  150.4887  140.3634  155.8597 H   0  0  0  0  0  0  0  0  0  0  0  0
  151.8578  142.2015  155.7116 H   0  0  0  0  0  0  0  0  0  0  0  0
  150.3872  143.1356  155.5962 H   0  0  0  0  0  0  0  0  0  0  0  0
  152.5691  141.6142  158.3441 H   0  0  0  0  0  0  0  0  0  0  0  0
  153.0585  142.8851  160.4397 H   0  0  0  0  0  0  0  0  0  0  0  0
  152.0299  145.1435  160.7727 H   0  0  0  0  0  0  0  0  0  0  0  0
  150.4998  146.0647  158.9339 H   0  0  0  0  0  0  0  0  0  0  0  0
  146.2319  140.7528  154.3290 H   0  0  0  0  0  0  0  0  0  0  0  0
  146.9314  143.7311  154.2950 H   0  0  0  0  0  0  0  0  0  0  0  0
  146.3237  142.7575  152.9477 H   0  0  0  0  0  0  0  0  0  0  0  0
  144.5533  144.1605  154.4257 H   0  0  0  0  0  0  0  0  0  0  0  0
  144.1820  142.4872  153.9995 H   0  0  0  0  0  0  0  0  0  0  0  0
  145.1568  143.5404  156.6504 H   0  0  0  0  0  0  0  0  0  0  0  0
  144.0589  142.1957  156.3331 H   0  0  0  0  0  0  0  0  0  0  0  0
  150.1295  144.7825  157.0432 H   0  0  0  0  0  0  0  0  0  0  0  0
  1  2  2  0  0  0  0
  2  3  1  0  0  0  0
  2 12  1  0  0  0  0
  3  4  1  0  0  0  0
  3 17  1  0  0  0  0
  4  5  1  0  0  0  0
  4 18  1  0  0  0  0
  4 19  1  0  0  0  0
  5  6  1  0  0  0  0
  5 20  1  0  0  0  0
  5 21  1  0  0  0  0
  6 11  1  0  0  0  0
  6  7  2  0  0  0  0
  7  8  1  0  0  0  0
  7 22  1  0  0  0  0
  8  9  2  0  0  0  0
  8 23  1  0  0  0  0
  9 10  1  0  0  0  0
  9 24  1  0  0  0  0
 10 11  2  0  0  0  0
 10 25  1  0  0  0  0
 11 33  1  0  0  0  0
 12 16  1  0  0  0  0
 12 13  1  0  0  0  0
 12 26  1  0  0  0  0
 13 14  1  0  0  0  0
 13 27  1  0  0  0  0
 13 28  1  0  0  0  0
 14 15  1  0  0  0  0
 14 29  1  0  0  0  0
 14 30  1  0  0  0  0
 15 16  1  0  0  0  0
 15 31  1  0  0  0  0
 15 32  1  0  0  0  0
M  CHG  1  11   1
M  END
> <s_m_source_file>
AV-unprocessed.smi

> <i_m_source_file_index>
3176

> <i_lp_mmshare_version>
43012

> <i_f3d_flags>
0

> <s_epik_input>
TzFbQ0gyXVtDSDJdW0NIMl1bQ0BIXTFDKD1PKVtOSF1bQ0gyXVtDSDJdYzJbY0hdW2NIXVtjSF1bY0hdbjI=

> <s_epik_cmdline>
J2VwaWtfcHl0aG9uJywgJy1waCcsICc3LjAnLCAnLXRuJywgJzgnLCAnLW1hJywgJzIwMCcsICctbWV0YWxfYmluZGluZycsICctaW1hZScsICc8aW5maWxlLm1hZT4nLCAnLW9tYWUnLCAnPG91dGZpbGUubWFlPic=

> <r_epik_Ionization_Penalty>
1.81664

> <r_epik_Ionization_Penalty_Charging>
1.81664

> <r_epik_Ionization_Penalty_Neutral>
5.71603e-08

> <r_epik_State_Penalty>
1.93152

> <r_epik_Charging_Adjusted_Penalty>
3.74817

> <i_epik_Tot_Q>
1

> <i_epik_Tot_abs_Q>
1

> <r_epik_Metal_State_Penalty>
1.95876

> <b_epik_Metal_Only>
0

> <s_lp_Force_Field>
OPLS_2005

> <r_lp_Energy>
22.4632

> <b_lp_Chiralities_Consistent>
1

> <s_lp_Variant>
AV-unprocessed.smi:3176-3

> <Gold.Version>
5.8.1

> <Gold.Id.Protein>
6NUR|6NUR_protein|mol2

> <Gold.PLP.Fitness>
43.5718

> <Gold.PLP.PLP>
-36.2146

> <Gold.PLP.part.hbond>
-2.6866

> <Gold.PLP.part.metal>
0.0000

> <Gold.PLP.part.buried>
-4.9319

> <Gold.PLP.part.nonpolar>
-28.7735

> <Gold.PLP.part.repulsive>
0.5819

> <Gold.PLP.ligand.clash>
0.0000

> <Gold.PLP.ligand.torsion>
0.4555

> <Gold.PLP.Chemscore.Hbond>
2.7520

> <Gold.PLP.Chemscore.CHOScore>
0.0000

> <Gold.PLP.Chemscore.Metal>
0.0000

> <Gold.Chemscore.Hbonds>
donor molecule, donor type, donor heavy atom, donor atom, acceptor molecule, acceptor atom, score
      L1  H    11    33       P1  8028  2.00
      P1  H  8011  8017       L1     1  0.57

> <Gold.PLP.Chemscore.Internal.Correction>
0.0122

> <Gold.Rescore>
     Score         DG    S(hbond)    S(metal)    S(lipo)     H(rot)  DE(clash)    DE(int)     intcor
     16.27     -17.33       1.59        0.00      90.99       1.61       0.61       0.45       ----

> <Gold.Chemscore.Fitness>
16.2691

> <Gold.Chemscore.DG>
-17.3306

> <Gold.Chemscore.ZeroCoef>
-5.4800

> <Gold.Chemscore.Hbond>
1.5911

> <Gold.Chemscore.Metal>
0.0000

> <Gold.Chemscore.Lipo>
90.9913

> <Gold.Chemscore.Internal_Hbond>
0.0000

> <Gold.Chemscore.DEClash>
0.6118

> <Gold.Chemscore.DEInternal>
0.4497

> <Gold.Chemscore.Rot>
1.6054

> <Gold.Chemscore.Internal.Correction>
   9.000000E+99

> <Gold.Chemscore.Hbonds>
donor molecule, donor type, donor heavy atom, donor atom, acceptor molecule, acceptor atom, score
      L1  H    11    33       P1  8028  0.34
      P1  H  8011  8017       L1     1  0.56

> <Gold.Chemscore.Hbond.Weighted>
-5.3144

> <Gold.Chemscore.Metal.Weighted>
-0.0000

> <Gold.Chemscore.Lipo.Weighted>
-10.6460

> <Gold.Chemscore.Internal_Hbond.Weighted>
0.0000

> <Gold.Chemscore.DEClash.Weighted>
0.6118

> <Gold.Chemscore.DEInternal.Weighted>
0.4497

> <Gold.Chemscore.Rot.Weighted>
4.1097

> <Gold.Chemscore.Internal.Correction.Weighted>
   9.000000E+99

> <Gold.Protein.RotatedTorsions>
[ 6907 6896 6895 6894 ] final  163.42 input  -60.11 | X-H torsion
[ 7974 7965 7964 7962 ] final -177.92 input  175.53 | X-H torsion
[ 8008 7997 7996 7995 ] final  119.02 input   59.86 | X-H torsion
[ 10167 10162 10161 10158 ] final -146.65 input  -65.29 | X-H torsion
[ 10718 10713 10712 10709 ] final   47.61 input   66.30 | X-H torsion
[ 10763 10752 10751 10750 ] final   45.03 input  -60.55 | X-H torsion
[ 11005 11000 10999 10996 ] final -168.70 input  -57.11 | X-H torsion

> <Gold.Protein.ActiveResidues>
 VAL166  LYS551  ARG553  GLY616  TRP617  ASP618  TYR619  PRO620  LYS621  CYS622 
 ASP623  PHE694  ASN695  SER759  ASP760  ASP761  ALA762  ILE779  LEU786  VAL792 
 PHE793  MET794  SER795  GLU796  ALA797  LYS798  CYS799  TRP800  GLU811  SER814 

> <Gold.Protein.RotatedAtoms>
  151.9255  133.3597  159.3911 H   0  0  0  0  0  0  0  0  0  0  0  0  # atno 6907 bound_to 6896
  150.7028  134.4591  159.5381 H   0  0  0  0  0  0  0  0  0  0  0  0  # atno 6908 bound_to 6896
  152.2222  134.8402  160.0535 H   0  0  0  0  0  0  0  0  0  0  0  0  # atno 6909 bound_to 6896
  144.7129  140.0947  143.6419 H   0  0  0  0  0  0  0  0  0  0  0  0  # atno 7974 bound_to 7965
  156.2575  140.2862  156.0926 H   0  0  0  0  0  0  0  0  0  0  0  0  # atno 8008 bound_to 7997
  155.1446  140.0396  157.2824 H   0  0  0  0  0  0  0  0  0  0  0  0  # atno 8009 bound_to 7997
  154.6504  140.2543  155.7226 H   0  0  0  0  0  0  0  0  0  0  0  0  # atno 8010 bound_to 7997
  139.7693  143.8261  152.2622 H   0  0  0  0  0  0  0  0  0  0  0  0  # atno 10167 bound_to 10162
  157.4602  130.8192  149.7879 H   0  0  0  0  0  0  0  0  0  0  0  0  # atno 10718 bound_to 10713
  152.9831  135.6052  154.3371 H   0  0  0  0  0  0  0  0  0  0  0  0  # atno 10763 bound_to 10752
  154.3070  135.2772  155.2586 H   0  0  0  0  0  0  0  0  0  0  0  0  # atno 10764 bound_to 10752
  154.4812  135.5916  153.6447 H   0  0  0  0  0  0  0  0  0  0  0  0  # atno 10765 bound_to 10752
  140.5390  134.5541  157.5095 H   0  0  0  0  0  0  0  0  0  0  0  0  # atno 11005 bound_to 11000
  145.9590  139.2787  143.1167 LP  0  0  0  0  0  0  0  0  0  0  0  0  # atno 17320 bound_to 7965
  145.9241  140.9094  143.0390 LP  0  0  0  0  0  0  0  0  0  0  0  0  # atno 17321 bound_to 7965
  139.8290  144.7262  150.9474 LP  0  0  0  0  0  0  0  0  0  0  0  0  # atno 17342 bound_to 10162
  140.7813  143.4087  151.1028 LP  0  0  0  0  0  0  0  0  0  0  0  0  # atno 17343 bound_to 10162
  156.0025  130.3872  150.2551 LP  0  0  0  0  0  0  0  0  0  0  0  0  # atno 17370 bound_to 10713
  157.0728  131.0121  151.3184 LP  0  0  0  0  0  0  0  0  0  0  0  0  # atno 17371 bound_to 10713
  139.9514  134.7610  156.0440 LP  0  0  0  0  0  0  0  0  0  0  0  0  # atno 17394 bound_to 11000
  141.1238  133.6605  156.3283 LP  0  0  0  0  0  0  0  0  0  0  0  0  # atno 17395 bound_to 11000

$$$$
