AV-unprocessed.smi:1381|AV-procd|sdf|5602|dock2
  -GOLD-   22720 5213D 1   1.00000     0.00000
 Structure written by MMmdl.
 42 43  0  0  0  0  0  0  0  0  1 V2000
  148.5445  129.4784  152.7838 C   0  0  0  0  0  0  0  0  0  0  0  0
  149.0589  130.7531  153.3602 C   0  0  0  0  0  0  0  0  0  0  0  0
  149.0421  132.0459  152.9173 C   0  0  0  0  0  0  0  0  0  0  0  0
  149.7067  132.7489  153.9571 C   0  0  0  0  0  0  0  0  0  0  0  0
  149.8993  134.1520  153.8793 N   0  0  0  0  0  0  0  0  0  0  0  0
  150.5411  134.9409  154.7579 C   0  0  0  0  0  0  0  0  0  0  0  0
  151.0755  134.5564  155.7987 O   0  0  0  0  0  0  0  0  0  0  0  0
  150.5313  136.2217  154.3611 N   0  0  0  0  0  0  0  0  0  0  0  0
  151.1410  137.3267  155.0912 C   0  0  0  0  0  0  0  0  0  0  0  0
  151.5389  138.4730  154.1425 C   0  0  0  0  0  0  0  0  0  0  0  0
  151.0678  139.7974  154.5434 N   0  0  0  0  0  0  0  0  0  0  0  0
  149.6242  139.9520  154.3788 C   0  0  0  0  0  0  0  0  0  0  0  0
  149.1372  141.3428  154.8306 C   0  0  1  0  0  0  0  0  0  0  0  0
  147.6137  141.4806  154.7422 C   0  0  0  0  0  0  0  0  0  0  0  0
  149.5285  141.5593  156.1835 O   0  0  0  0  0  0  0  0  0  0  0  0
  150.9360  141.4658  156.3839 C   0  0  1  0  0  0  0  0  0  0  0  0
  151.2300  141.7290  157.8645 C   0  0  0  0  0  0  0  0  0  0  0  0
  151.4150  140.0730  155.9328 C   0  0  0  0  0  0  0  0  0  0  0  0
  150.0952  131.9570  154.9449 N   0  0  0  0  0  0  0  0  0  0  0  0
  149.6825  130.6739  154.5672 O   0  0  0  0  0  0  0  0  0  0  0  0
  149.2656  129.0527  152.0861 H   0  0  0  0  0  0  0  0  0  0  0  0
  147.6108  129.6451  152.2463 H   0  0  0  0  0  0  0  0  0  0  0  0
  148.3555  128.7429  153.5661 H   0  0  0  0  0  0  0  0  0  0  0  0
  148.6215  132.4239  151.9974 H   0  0  0  0  0  0  0  0  0  0  0  0
  149.5048  134.6035  153.0675 H   0  0  0  0  0  0  0  0  0  0  0  0
  150.0666  136.4508  153.4947 H   0  0  0  0  0  0  0  0  0  0  0  0
  150.4186  137.6864  155.8244 H   0  0  0  0  0  0  0  0  0  0  0  0
  151.9990  136.9560  155.6531 H   0  0  0  0  0  0  0  0  0  0  0  0
  152.6232  138.4923  154.0213 H   0  0  0  0  0  0  0  0  0  0  0  0
  151.1328  138.2411  153.1570 H   0  0  0  0  0  0  0  0  0  0  0  0
  149.3458  139.8096  153.3353 H   0  0  0  0  0  0  0  0  0  0  0  0
  149.1036  139.1811  154.9494 H   0  0  0  0  0  0  0  0  0  0  0  0
  149.5947  142.1104  154.2039 H   0  0  0  0  0  0  0  0  0  0  0  0
  147.2651  141.3346  153.7194 H   0  0  0  0  0  0  0  0  0  0  0  0
  147.2932  142.4716  155.0641 H   0  0  0  0  0  0  0  0  0  0  0  0
  147.1137  140.7465  155.3746 H   0  0  0  0  0  0  0  0  0  0  0  0
  151.4303  142.2336  155.7861 H   0  0  0  0  0  0  0  0  0  0  0  0
  152.3000  141.6790  158.0669 H   0  0  0  0  0  0  0  0  0  0  0  0
  150.7337  140.9962  158.5014 H   0  0  0  0  0  0  0  0  0  0  0  0
  150.8809  142.7183  158.1608 H   0  0  0  0  0  0  0  0  0  0  0  0
  150.9767  139.3112  156.5799 H   0  0  0  0  0  0  0  0  0  0  0  0
  152.4961  140.0060  156.0617 H   0  0  0  0  0  0  0  0  0  0  0  0
  1  2  1  0  0  0  0
  1 21  1  0  0  0  0
  1 22  1  0  0  0  0
  1 23  1  0  0  0  0
  2 20  1  0  0  0  0
  2  3  2  0  0  0  0
  3  4  1  0  0  0  0
  3 24  1  0  0  0  0
  4  5  1  0  0  0  0
  4 19  2  0  0  0  0
  5  6  1  0  0  0  0
  5 25  1  0  0  0  0
  6  7  2  0  0  0  0
  6  8  1  0  0  0  0
  8  9  1  0  0  0  0
  8 26  1  0  0  0  0
  9 10  1  0  0  0  0
  9 27  1  0  0  0  0
  9 28  1  0  0  0  0
 10 11  1  0  0  0  0
 10 29  1  0  0  0  0
 10 30  1  0  0  0  0
 11 18  1  0  0  0  0
 11 12  1  0  0  0  0
 12 13  1  0  0  0  0
 12 31  1  0  0  0  0
 12 32  1  0  0  0  0
 13 14  1  0  0  0  0
 13 15  1  0  0  0  0
 13 33  1  0  0  0  0
 14 34  1  0  0  0  0
 14 35  1  0  0  0  0
 14 36  1  0  0  0  0
 15 16  1  0  0  0  0
 16 17  1  0  0  0  0
 16 18  1  0  0  0  0
 16 37  1  0  0  0  0
 17 38  1  0  0  0  0
 17 39  1  0  0  0  0
 17 40  1  0  0  0  0
 18 41  1  0  0  0  0
 18 42  1  0  0  0  0
 19 20  1  0  0  0  0
M  END
> <s_m_source_file>
AV-unprocessed.smi

> <i_m_source_file_index>
1381

> <i_lp_mmshare_version>
43012

> <i_f3d_flags>
0

> <s_epik_input>
W0NIM11jMVtjSF1jKG5vMSlbTkhdQyg9TylbTkhdW0NIMl1bQ0gyXU4yW0NIMl1bQ0BASF0oW0NIM10pT1tDQEBIXShbQ0gzXSlbQ0gyXTI=

> <s_epik_cmdline>
J2VwaWtfcHl0aG9uJywgJy1waCcsICc3LjAnLCAnLXRuJywgJzgnLCAnLW1hJywgJzIwMCcsICctbWV0YWxfYmluZGluZycsICctaW1hZScsICc8aW5maWxlLm1hZT4nLCAnLW9tYWUnLCAnPG91dGZpbGUubWFlPic=

> <r_epik_Ionization_Penalty>
0.214073

> <r_epik_Ionization_Penalty_Charging>
0

> <r_epik_Ionization_Penalty_Neutral>
0.214073

> <r_epik_State_Penalty>
0.204211

> <r_epik_Charging_Adjusted_Penalty>
0.204211

> <i_epik_Tot_Q>
0

> <i_epik_Tot_abs_Q>
0

> <r_epik_Metal_State_Penalty>
0.217067

> <b_epik_Metal_Only>
0

> <s_lp_Force_Field>
OPLS_2005

> <r_lp_Energy>
17.1752

> <b_lp_Chiralities_Consistent>
1

> <s_lp_Variant>
AV-unprocessed.smi:1381-1

> <Gold.Version>
5.8.1

> <Gold.Id.Protein>
6NUR|6NUR_protein|mol2

> <Gold.PLP.Fitness>
43.9008

> <Gold.PLP.PLP>
-36.6716

> <Gold.PLP.part.hbond>
-3.6662

> <Gold.PLP.part.metal>
0.0000

> <Gold.PLP.part.buried>
-5.1438

> <Gold.PLP.part.nonpolar>
-28.7191

> <Gold.PLP.part.repulsive>
0.3485

> <Gold.PLP.ligand.clash>
0.0000

> <Gold.PLP.ligand.torsion>
0.5879

> <Gold.PLP.Chemscore.Hbond>
2.7930

> <Gold.PLP.Chemscore.CHOScore>
0.0000

> <Gold.PLP.Chemscore.Metal>
0.0000

> <Gold.Chemscore.Hbonds>
donor molecule, donor type, donor heavy atom, donor atom, acceptor molecule, acceptor atom, score
      L1  H     5    25       P1  7948  0.05
      L1  H     8    26       P1  7948  0.70
      P1  H  7989  7998       L1    11  1.00

> <Gold.PLP.Chemscore.Internal.Correction>
0.0261

> <Gold.Rescore>
     Score         DG    S(hbond)    S(metal)    S(lipo)     H(rot)  DE(clash)    DE(int)     intcor
     14.06     -15.99       1.97        0.00      67.85       1.57       0.24       1.69       ----

> <Gold.Chemscore.Fitness>
14.0640

> <Gold.Chemscore.DG>
-15.9946

> <Gold.Chemscore.ZeroCoef>
-5.4800

> <Gold.Chemscore.Hbond>
1.9744

> <Gold.Chemscore.Metal>
0.0000

> <Gold.Chemscore.Lipo>
67.8516

> <Gold.Chemscore.Internal_Hbond>
0.0000

> <Gold.Chemscore.DEClash>
0.2380

> <Gold.Chemscore.DEInternal>
1.6925

> <Gold.Chemscore.Rot>
1.5697

> <Gold.Chemscore.Internal.Correction>
   9.000000E+99

> <Gold.Chemscore.Hbonds>
donor molecule, donor type, donor heavy atom, donor atom, acceptor molecule, acceptor atom, score
      L1  H     8    26       P1  7948  0.07
      P1  H  7989  7998       L1    11  0.20

> <Gold.Chemscore.Hbond.Weighted>
-6.5944

> <Gold.Chemscore.Metal.Weighted>
-0.0000

> <Gold.Chemscore.Lipo.Weighted>
-7.9386

> <Gold.Chemscore.Internal_Hbond.Weighted>
0.0000

> <Gold.Chemscore.DEClash.Weighted>
0.2380

> <Gold.Chemscore.DEInternal.Weighted>
1.6925

> <Gold.Chemscore.Rot.Weighted>
4.0185

> <Gold.Chemscore.Internal.Correction.Weighted>
   9.000000E+99

> <Gold.Protein.RotatedTorsions>
[ 6907 6896 6895 6894 ] final    0.87 input  -60.11 | X-H torsion
[ 7974 7965 7964 7962 ] final  179.56 input  175.53 | X-H torsion
[ 8008 7997 7996 7995 ] final -159.79 input   59.86 | X-H torsion
[ 10167 10162 10161 10158 ] final  134.59 input  -65.29 | X-H torsion
[ 10718 10713 10712 10709 ] final  159.84 input   66.30 | X-H torsion
[ 10763 10752 10751 10750 ] final  123.47 input  -60.55 | X-H torsion
[ 11005 11000 10999 10996 ] final  145.51 input  -57.11 | X-H torsion

> <Gold.Protein.ActiveResidues>
 VAL166  LYS551  ARG553  GLY616  TRP617  ASP618  TYR619  PRO620  LYS621  CYS622 
 ASP623  PHE694  ASN695  SER759  ASP760  ASP761  ALA762  ILE779  LEU786  VAL792 
 PHE793  MET794  SER795  GLU796  ALA797  LYS798  CYS799  TRP800  GLU811  SER814 

> <Gold.Protein.RotatedAtoms>
  151.5835  135.1057  160.0022 H   0  0  0  0  0  0  0  0  0  0  0  0  # atno 6907 bound_to 6896
  152.4342  133.7327  159.6607 H   0  0  0  0  0  0  0  0  0  0  0  0  # atno 6908 bound_to 6896
  150.8238  133.8137  159.3150 H   0  0  0  0  0  0  0  0  0  0  0  0  # atno 6909 bound_to 6896
  144.7144  140.0567  143.6434 H   0  0  0  0  0  0  0  0  0  0  0  0  # atno 7974 bound_to 7965
  155.7679  140.0848  157.2123 H   0  0  0  0  0  0  0  0  0  0  0  0  # atno 8008 bound_to 7997
  154.3998  140.1531  156.2964 H   0  0  0  0  0  0  0  0  0  0  0  0  # atno 8009 bound_to 7997
  155.8776  140.3422  155.5867 H   0  0  0  0  0  0  0  0  0  0  0  0  # atno 8010 bound_to 7997
  139.5250  144.6559  151.5162 H   0  0  0  0  0  0  0  0  0  0  0  0  # atno 10167 bound_to 10162
  157.1587  131.0582  151.2243 H   0  0  0  0  0  0  0  0  0  0  0  0  # atno 10718 bound_to 10713
  153.6461  135.3371  155.3086 H   0  0  0  0  0  0  0  0  0  0  0  0  # atno 10763 bound_to 10752
  154.8548  135.4330  154.1954 H   0  0  0  0  0  0  0  0  0  0  0  0  # atno 10764 bound_to 10752
  153.2885  135.7015  153.7391 H   0  0  0  0  0  0  0  0  0  0  0  0  # atno 10765 bound_to 10752
  140.0718  134.9147  157.1357 H   0  0  0  0  0  0  0  0  0  0  0  0  # atno 11005 bound_to 11000
  145.9898  139.3006  143.0991 LP  0  0  0  0  0  0  0  0  0  0  0  0  # atno 17320 bound_to 7965
  145.8915  140.9300  143.0549 LP  0  0  0  0  0  0  0  0  0  0  0  0  # atno 17321 bound_to 7965
  140.6385  143.8936  150.6669 LP  0  0  0  0  0  0  0  0  0  0  0  0  # atno 17342 bound_to 10162
  140.2263  143.3770  152.1602 LP  0  0  0  0  0  0  0  0  0  0  0  0  # atno 17343 bound_to 10162
  157.4153  130.7407  149.6870 LP  0  0  0  0  0  0  0  0  0  0  0  0  # atno 17370 bound_to 10713
  155.9757  130.4085  150.3827 LP  0  0  0  0  0  0  0  0  0  0  0  0  # atno 17371 bound_to 10713
  140.3616  134.2488  155.7186 LP  0  0  0  0  0  0  0  0  0  0  0  0  # atno 17394 bound_to 11000
  141.2014  133.7962  157.0440 LP  0  0  0  0  0  0  0  0  0  0  0  0  # atno 17395 bound_to 11000

$$$$
