AV-unprocessed.smi:199|AV-procd|sdf|1560|dock3
  -GOLD-   2262019433D 1   1.00000     0.00000
 Structure written by MMmdl.
 51 55  0  0  0  0  0  0  0  0  1 V2000
  147.0651  133.2487  162.0248 C   0  0  0  0  0  0  0  0  0  0  0  0
  146.6831  134.6806  162.4311 C   0  0  2  0  0  0  0  0  0  0  0  0
  145.2843  134.6929  162.7053 O   0  0  0  0  0  0  0  0  0  0  0  0
  144.7651  135.9717  162.3860 C   0  0  0  0  0  0  0  0  0  0  0  0
  145.5054  136.3119  161.1022 C   0  0  0  0  0  0  0  0  0  0  0  0
  146.9161  135.7954  161.3718 C   0  0  1  0  0  0  0  0  0  0  0  0
  147.6461  136.8366  162.0003 O   0  0  0  0  0  0  0  0  0  0  0  0
  147.6813  135.3805  160.0870 C   0  0  0  0  0  0  0  0  0  0  0  0
  147.9690  136.4972  159.1986 N   0  0  0  0  0  0  0  0  0  0  0  0
  147.0767  137.1431  158.3738 C   0  0  0  0  0  0  0  0  0  0  0  0
  147.5794  138.1142  157.6627 N   0  0  0  0  0  0  0  0  0  0  0  0
  148.9189  138.1544  158.0324 C   0  0  0  0  0  0  0  0  0  0  0  0
  150.0351  138.9547  157.6517 C   0  0  0  0  0  0  0  0  0  0  0  0
  149.9653  139.9562  156.7329 N   0  0  0  0  0  0  0  0  0  0  0  0
  151.1439  140.7485  156.4236 C   0  0  1  0  0  0  0  0  0  0  0  0
  152.0060  139.8128  155.5535 C   0  0  0  0  0  0  0  0  0  0  0  0
  150.9263  139.0471  154.7730 C   0  0  0  0  0  0  0  0  0  0  0  0
  149.6375  139.6816  155.3398 C   0  0  2  0  0  0  0  0  0  0  0  0
  149.4802  141.0977  154.7428 C   0  0  1  0  0  0  0  0  0  0  0  0
  148.0698  141.6880  154.9255 C   0  0  0  0  0  0  0  0  0  0  0  0
  147.9487  142.8996  154.2111 O   0  0  0  0  0  0  0  0  0  0  0  0
  150.5565  141.8626  155.5408 C   0  0  0  0  0  0  0  0  0  0  0  0
  151.2331  138.6630  158.2250 N   0  0  0  0  0  0  0  0  0  0  0  0
  151.3330  137.6841  159.1282 C   0  0  0  0  0  0  0  0  0  0  0  0
  150.3792  136.8734  159.5875 N   0  0  0  0  0  0  0  0  0  0  0  0
  149.1784  137.1407  158.9997 C   0  0  0  0  0  0  0  0  0  0  0  0
  148.1309  133.1645  161.8128 H   0  0  0  0  0  0  0  0  0  0  0  0
  146.5129  132.9221  161.1434 H   0  0  0  0  0  0  0  0  0  0  0  0
  146.8377  132.5485  162.8290 H   0  0  0  0  0  0  0  0  0  0  0  0
  147.2025  134.9232  163.3602 H   0  0  0  0  0  0  0  0  0  0  0  0
  143.6830  135.9478  162.2569 H   0  0  0  0  0  0  0  0  0  0  0  0
  145.0052  136.6798  163.1805 H   0  0  0  0  0  0  0  0  0  0  0  0
  145.0512  135.7531  160.2835 H   0  0  0  0  0  0  0  0  0  0  0  0
  145.4630  137.3715  160.8461 H   0  0  0  0  0  0  0  0  0  0  0  0
  147.7335  136.6301  162.9181 H   0  0  0  0  0  0  0  0  0  0  0  0
  148.6271  134.9027  160.3454 H   0  0  0  0  0  0  0  0  0  0  0  0
  147.1089  134.6452  159.5207 H   0  0  0  0  0  0  0  0  0  0  0  0
  146.0353  136.8633  158.3091 H   0  0  0  0  0  0  0  0  0  0  0  0
  151.6824  141.1496  157.2804 H   0  0  0  0  0  0  0  0  0  0  0  0
  152.6938  140.3566  154.9049 H   0  0  0  0  0  0  0  0  0  0  0  0
  152.5901  139.1304  156.1724 H   0  0  0  0  0  0  0  0  0  0  0  0
  151.0177  139.1667  153.6929 H   0  0  0  0  0  0  0  0  0  0  0  0
  150.9753  137.9807  154.9959 H   0  0  0  0  0  0  0  0  0  0  0  0
  148.7542  139.0590  155.1919 H   0  0  0  0  0  0  0  0  0  0  0  0
  149.7249  141.1001  153.6794 H   0  0  0  0  0  0  0  0  0  0  0  0
  147.3036  140.9903  154.5858 H   0  0  0  0  0  0  0  0  0  0  0  0
  147.8784  141.8911  155.9794 H   0  0  0  0  0  0  0  0  0  0  0  0
  148.0991  143.6165  154.8082 H   0  0  0  0  0  0  0  0  0  0  0  0
  150.1124  142.6429  156.1606 H   0  0  0  0  0  0  0  0  0  0  0  0
  151.3052  142.3303  154.9005 H   0  0  0  0  0  0  0  0  0  0  0  0
  152.3188  137.5276  159.5405 H   0  0  0  0  0  0  0  0  0  0  0  0
  1  2  1  0  0  0  0
  1 27  1  0  0  0  0
  1 28  1  0  0  0  0
  1 29  1  0  0  0  0
  2  6  1  0  0  0  0
  2  3  1  0  0  0  0
  2 30  1  0  0  0  0
  3  4  1  0  0  0  0
  4  5  1  0  0  0  0
  4 31  1  0  0  0  0
  4 32  1  0  0  0  0
  5  6  1  0  0  0  0
  5 33  1  0  0  0  0
  5 34  1  0  0  0  0
  6  7  1  0  0  0  0
  6  8  1  0  0  0  0
  7 35  1  0  0  0  0
  8  9  1  0  0  0  0
  8 36  1  0  0  0  0
  8 37  1  0  0  0  0
  9 26  1  0  0  0  0
  9 10  1  0  0  0  0
 10 11  2  0  0  0  0
 10 38  1  0  0  0  0
 11 12  1  0  0  0  0
 12 26  2  0  0  0  0
 12 13  1  0  0  0  0
 13 14  1  0  0  0  0
 13 23  2  0  0  0  0
 14 18  1  0  0  0  0
 14 15  1  0  0  0  0
 15 22  1  0  0  0  0
 15 16  1  0  0  0  0
 15 39  1  0  0  0  0
 16 17  1  0  0  0  0
 16 40  1  0  0  0  0
 16 41  1  0  0  0  0
 17 18  1  0  0  0  0
 17 42  1  0  0  0  0
 17 43  1  0  0  0  0
 18 19  1  0  0  0  0
 18 44  1  0  0  0  0
 19 20  1  0  0  0  0
 19 22  1  0  0  0  0
 19 45  1  0  0  0  0
 20 21  1  0  0  0  0
 20 46  1  0  0  0  0
 20 47  1  0  0  0  0
 21 48  1  0  0  0  0
 22 49  1  0  0  0  0
 22 50  1  0  0  0  0
 23 24  1  0  0  0  0
 24 25  2  0  0  0  0
 24 51  1  0  0  0  0
 25 26  1  0  0  0  0
M  END
> <s_m_source_file>
AV-unprocessed.smi

> <i_m_source_file_index>
199

> <i_lp_mmshare_version>
43012

> <i_f3d_flags>
0

> <s_epik_input>
W0NIMl0xW0NIMl1PW0NAQEhdKFtDSDNdKVtDQEBdMShbT0hdKVtDSDJdbihbY0hdbjIpYyhjMjMpbltjSF1uYzNOKFtDQEBIXTQ1KVtDQEhdKFtDSDJdW0NIMl00KVtDQEhdKFtDSDJdNSlbQ0gyXVtPSF0=

> <s_epik_cmdline>
J2VwaWtfcHl0aG9uJywgJy1waCcsICc3LjAnLCAnLXRuJywgJzgnLCAnLW1hJywgJzIwMCcsICctbWV0YWxfYmluZGluZycsICctaW1hZScsICc8aW5maWxlLm1hZT4nLCAnLW9tYWUnLCAnPG91dGZpbGUubWFlPic=

> <r_lp_tautomer_probability>
1

> <r_epik_Ionization_Penalty>
0.00583903

> <r_epik_Ionization_Penalty_Charging>
0

> <r_epik_Ionization_Penalty_Neutral>
0.00583903

> <r_epik_State_Penalty>
-0

> <r_epik_Charging_Adjusted_Penalty>
0

> <i_epik_Tot_Q>
0

> <i_epik_Tot_abs_Q>
0

> <r_epik_Metal_State_Penalty>
-0

> <b_epik_Metal_Only>
0

> <s_lp_Force_Field>
OPLS_2005

> <r_lp_Energy>
83.6751

> <b_lp_Chiralities_Consistent>
1

> <s_lp_Variant>
AV-unprocessed.smi:199-1

> <Gold.Version>
5.8.1

> <Gold.Id.Protein>
6NUR|6NUR_protein|mol2

> <Gold.PLP.Fitness>
51.9211

> <Gold.PLP.PLP>
-43.5048

> <Gold.PLP.part.hbond>
-5.3229

> <Gold.PLP.part.metal>
0.0000

> <Gold.PLP.part.buried>
-4.2645

> <Gold.PLP.part.nonpolar>
-33.9616

> <Gold.PLP.part.repulsive>
0.0144

> <Gold.PLP.ligand.clash>
0.0000

> <Gold.PLP.ligand.torsion>
0.3127

> <Gold.PLP.Chemscore.Hbond>
3.0000

> <Gold.PLP.Chemscore.CHOScore>
0.0000

> <Gold.PLP.Chemscore.Metal>
0.0000

> <Gold.Chemscore.Hbonds>
donor molecule, donor type, donor heavy atom, donor atom, acceptor molecule, acceptor atom, score
      L1  H    21    48       P1  8028  1.00
      P1  H  6896  6908       L1    25  1.00
      P1  H  6931  6943       L1     7  0.85

> <Gold.PLP.Chemscore.Internal.Correction>
0.0417

> <Gold.Rescore>
     Score         DG    S(hbond)    S(metal)    S(lipo)     H(rot)  DE(clash)    DE(int)     intcor
     11.25     -12.43       1.65        0.00      79.67       3.07       0.26       0.92       ----

> <Gold.Chemscore.Fitness>
11.2511

> <Gold.Chemscore.DG>
-12.4319

> <Gold.Chemscore.ZeroCoef>
-5.4800

> <Gold.Chemscore.Hbond>
1.6460

> <Gold.Chemscore.Metal>
0.0000

> <Gold.Chemscore.Lipo>
79.6658

> <Gold.Chemscore.Internal_Hbond>
0.0000

> <Gold.Chemscore.DEClash>
0.2609

> <Gold.Chemscore.DEInternal>
0.9198

> <Gold.Chemscore.Rot>
3.0729

> <Gold.Chemscore.Internal.Correction>
   9.000000E+99

> <Gold.Chemscore.Hbonds>
donor molecule, donor type, donor heavy atom, donor atom, acceptor molecule, acceptor atom, score
      L1  H    21    48       P1  8028  0.75
      P1  H  6896  6908       L1    25  0.80
      P1  H  6931  6943       L1     7  0.14
      P1  H  6934  6947       L1     7  0.02

> <Gold.Chemscore.Hbond.Weighted>
-5.4977

> <Gold.Chemscore.Metal.Weighted>
-0.0000

> <Gold.Chemscore.Lipo.Weighted>
-9.3209

> <Gold.Chemscore.Internal_Hbond.Weighted>
0.0000

> <Gold.Chemscore.DEClash.Weighted>
0.2609

> <Gold.Chemscore.DEInternal.Weighted>
0.9198

> <Gold.Chemscore.Rot.Weighted>
7.8667

> <Gold.Chemscore.Internal.Correction.Weighted>
   9.000000E+99

> <Gold.Protein.RotatedTorsions>
[ 6907 6896 6895 6894 ] final -154.49 input  -60.11 | X-H torsion
[ 7974 7965 7964 7962 ] final   79.92 input  175.53 | X-H torsion
[ 8008 7997 7996 7995 ] final  -47.57 input   59.86 | X-H torsion
[ 10167 10162 10161 10158 ] final  -88.29 input  -65.29 | X-H torsion
[ 10718 10713 10712 10709 ] final  -73.62 input   66.30 | X-H torsion
[ 10763 10752 10751 10750 ] final  -22.09 input  -60.55 | X-H torsion
[ 11005 11000 10999 10996 ] final -131.95 input  -57.11 | X-H torsion

> <Gold.Protein.ActiveResidues>
 VAL166  LYS551  ARG553  GLY616  TRP617  ASP618  TYR619  PRO620  LYS621  CYS622 
 ASP623  PHE694  ASN695  SER759  ASP760  ASP761  ALA762  ILE779  LEU786  VAL792 
 PHE793  MET794  SER795  GLU796  ALA797  LYS798  CYS799  TRP800  GLU811  SER814 

> <Gold.Protein.RotatedAtoms>
  151.2583  133.4315  159.2614 H   0  0  0  0  0  0  0  0  0  0  0  0  # atno 6907 bound_to 6896
  151.0554  134.9701  159.8243 H   0  0  0  0  0  0  0  0  0  0  0  0  # atno 6908 bound_to 6896
  152.5389  134.2535  159.8961 H   0  0  0  0  0  0  0  0  0  0  0  0  # atno 6909 bound_to 6896
  145.6580  139.2464  143.1939 H   0  0  0  0  0  0  0  0  0  0  0  0  # atno 7974 bound_to 7965
  154.4018  140.1343  156.4196 H   0  0  0  0  0  0  0  0  0  0  0  0  # atno 8008 bound_to 7997
  155.7655  140.3485  155.5199 H   0  0  0  0  0  0  0  0  0  0  0  0  # atno 8009 bound_to 7997
  155.8818  140.0988  157.1470 H   0  0  0  0  0  0  0  0  0  0  0  0  # atno 8010 bound_to 7997
  140.3761  143.2771  151.9441 H   0  0  0  0  0  0  0  0  0  0  0  0  # atno 10167 bound_to 10162
  156.0273  130.4398  150.2770 H   0  0  0  0  0  0  0  0  0  0  0  0  # atno 10718 bound_to 10713
  153.6465  135.6983  153.5223 H   0  0  0  0  0  0  0  0  0  0  0  0  # atno 10763 bound_to 10752
  153.2740  135.4206  155.1015 H   0  0  0  0  0  0  0  0  0  0  0  0  # atno 10764 bound_to 10752
  154.8487  135.3585  154.6009 H   0  0  0  0  0  0  0  0  0  0  0  0  # atno 10765 bound_to 10752
  140.9213  134.1440  157.4312 H   0  0  0  0  0  0  0  0  0  0  0  0  # atno 11005 bound_to 11000
  146.1149  140.7382  142.9485 LP  0  0  0  0  0  0  0  0  0  0  0  0  # atno 17320 bound_to 7965
  144.7099  140.3998  143.7089 LP  0  0  0  0  0  0  0  0  0  0  0  0  # atno 17321 bound_to 7965
  139.4799  144.5862  151.7849 LP  0  0  0  0  0  0  0  0  0  0  0  0  # atno 17342 bound_to 10162
  140.4985  144.1205  150.5965 LP  0  0  0  0  0  0  0  0  0  0  0  0  # atno 17343 bound_to 10162
  157.0874  131.0160  151.3134 LP  0  0  0  0  0  0  0  0  0  0  0  0  # atno 17370 bound_to 10713
  157.4881  130.7805  149.7480 LP  0  0  0  0  0  0  0  0  0  0  0  0  # atno 17371 bound_to 10713
  139.8776  134.9972  156.5836 LP  0  0  0  0  0  0  0  0  0  0  0  0  # atno 17394 bound_to 11000
  140.7984  133.8525  155.8705 LP  0  0  0  0  0  0  0  0  0  0  0  0  # atno 17395 bound_to 11000

$$$$
