AV-unprocessed.smi:928|AV-procd|sdf|4193|dock5
  -GOLD-   22720 2103D 1   1.00000     0.00000
 Structure written by MMmdl.
 43 44  0  0  0  0  0  0  0  0  1 V2000
  152.2908  142.3487  159.1111 C   0  0  0  0  0  0  0  0  0  0  0  0
  150.8889  142.1469  158.5257 C   0  0  0  0  0  0  0  0  0  0  0  0
  150.8819  141.2933  157.3008 C   0  0  0  0  0  0  0  0  0  0  0  0
  150.3969  141.6164  156.0576 C   0  0  0  0  0  0  0  0  0  0  0  0
  150.5483  140.6011  155.1106 N   0  0  0  0  0  0  0  0  0  0  0  0
  151.1243  139.5104  155.6205 C   0  0  0  0  0  0  0  0  0  0  0  0
  151.4404  138.2943  154.8171 C   0  0  0  0  0  0  0  0  0  0  0  0
  150.9217  137.0085  155.4805 C   0  0  0  0  0  0  0  0  0  0  0  0
  150.0872  136.2313  154.5722 N   0  0  0  0  0  0  0  0  0  0  0  0
  149.4246  135.1151  154.9045 C   0  0  0  0  0  0  0  0  0  0  0  0
  149.4473  134.6066  156.0256 O   0  0  0  0  0  0  0  0  0  0  0  0
  148.7368  134.6196  153.8668 N   0  0  0  0  0  0  0  0  0  0  0  0
  147.9139  133.4121  153.8975 C   0  0  2  0  0  0  0  0  0  0  0  0
  148.7290  132.1572  153.5200 C   0  0  0  0  0  0  0  0  0  0  0  0
  147.8507  130.8962  153.5580 C   0  0  0  0  0  0  0  0  0  0  0  0
  146.6136  131.0446  152.6575 C   0  0  0  0  0  0  0  0  0  0  0  0
  145.8012  132.3028  153.0162 C   0  0  0  0  0  0  0  0  0  0  0  0
  146.6672  133.5776  152.9987 C   0  0  2  0  0  0  0  0  0  0  0  0
  147.0376  133.8620  151.6618 O   0  0  0  0  0  0  0  0  0  0  0  0
  151.5480  139.6804  157.3195 S   0  0  0  0  0  0  0  0  0  0  0  0
  152.2542  142.9810  159.9983 H   0  0  0  0  0  0  0  0  0  0  0  0
  152.9528  142.8268  158.3884 H   0  0  0  0  0  0  0  0  0  0  0  0
  152.7397  141.3974  159.3987 H   0  0  0  0  0  0  0  0  0  0  0  0
  150.2433  141.6982  159.2814 H   0  0  0  0  0  0  0  0  0  0  0  0
  150.4519  143.1187  158.2948 H   0  0  0  0  0  0  0  0  0  0  0  0
  149.9354  142.5457  155.7577 H   0  0  0  0  0  0  0  0  0  0  0  0
  151.0023  138.4104  153.8251 H   0  0  0  0  0  0  0  0  0  0  0  0
  152.5209  138.2410  154.6767 H   0  0  0  0  0  0  0  0  0  0  0  0
  151.7543  136.3999  155.8375 H   0  0  0  0  0  0  0  0  0  0  0  0
  150.3227  137.2590  156.3564 H   0  0  0  0  0  0  0  0  0  0  0  0
  150.0063  136.5702  153.6248 H   0  0  0  0  0  0  0  0  0  0  0  0
  148.7864  135.1119  152.9874 H   0  0  0  0  0  0  0  0  0  0  0  0
  147.5534  133.2800  154.9199 H   0  0  0  0  0  0  0  0  0  0  0  0
  149.1597  132.2745  152.5248 H   0  0  0  0  0  0  0  0  0  0  0  0
  149.5683  132.0329  154.2053 H   0  0  0  0  0  0  0  0  0  0  0  0
  148.4337  130.0284  153.2482 H   0  0  0  0  0  0  0  0  0  0  0  0
  147.5331  130.7049  154.5837 H   0  0  0  0  0  0  0  0  0  0  0  0
  146.9261  131.0930  151.6137 H   0  0  0  0  0  0  0  0  0  0  0  0
  145.9827  130.1600  152.7466 H   0  0  0  0  0  0  0  0  0  0  0  0
  144.9558  132.4095  152.3353 H   0  0  0  0  0  0  0  0  0  0  0  0
  145.3742  132.1763  154.0118 H   0  0  0  0  0  0  0  0  0  0  0  0
  146.0704  134.4173  153.3570 H   0  0  0  0  0  0  0  0  0  0  0  0
  147.6589  134.5734  151.6671 H   0  0  0  0  0  0  0  0  0  0  0  0
  1  2  1  0  0  0  0
  1 21  1  0  0  0  0
  1 22  1  0  0  0  0
  1 23  1  0  0  0  0
  2  3  1  0  0  0  0
  2 24  1  0  0  0  0
  2 25  1  0  0  0  0
  3 20  1  0  0  0  0
  3  4  2  0  0  0  0
  4  5  1  0  0  0  0
  4 26  1  0  0  0  0
  5  6  2  0  0  0  0
  6  7  1  0  0  0  0
  6 20  1  0  0  0  0
  7  8  1  0  0  0  0
  7 27  1  0  0  0  0
  7 28  1  0  0  0  0
  8  9  1  0  0  0  0
  8 29  1  0  0  0  0
  8 30  1  0  0  0  0
  9 10  1  0  0  0  0
  9 31  1  0  0  0  0
 10 11  2  0  0  0  0
 10 12  1  0  0  0  0
 12 13  1  0  0  0  0
 12 32  1  0  0  0  0
 13 18  1  0  0  0  0
 13 14  1  0  0  0  0
 13 33  1  0  0  0  0
 14 15  1  0  0  0  0
 14 34  1  0  0  0  0
 14 35  1  0  0  0  0
 15 16  1  0  0  0  0
 15 36  1  0  0  0  0
 15 37  1  0  0  0  0
 16 17  1  0  0  0  0
 16 38  1  0  0  0  0
 16 39  1  0  0  0  0
 17 18  1  0  0  0  0
 17 40  1  0  0  0  0
 17 41  1  0  0  0  0
 18 19  1  0  0  0  0
 18 42  1  0  0  0  0
 19 43  1  0  0  0  0
M  END
> <s_m_source_file>
AV-unprocessed.smi

> <i_m_source_file_index>
928

> <i_lp_mmshare_version>
43012

> <i_f3d_flags>
0

> <s_epik_input>
W0NIM11bQ0gyXWMxW2NIXW5jKHMxKVtDSDJdW0NIMl1bTkhdQyg9TylbTkhdW0NAQEhdMltDSDJdW0NIMl1bQ0gyXVtDSDJdW0NASF0yW09IXQ==

> <s_epik_cmdline>
J2VwaWtfcHl0aG9uJywgJy1waCcsICc3LjAnLCAnLXRuJywgJzgnLCAnLW1hJywgJzIwMCcsICctbWV0YWxfYmluZGluZycsICctaW1hZScsICc8aW5maWxlLm1hZT4nLCAnLW9tYWUnLCAnPG91dGZpbGUubWFlPic=

> <r_epik_Ionization_Penalty>
0.000957396

> <r_epik_Ionization_Penalty_Charging>
0

> <r_epik_Ionization_Penalty_Neutral>
0.000957396

> <r_epik_State_Penalty>
0.000586538

> <r_epik_Charging_Adjusted_Penalty>
0.000586538

> <i_epik_Tot_Q>
0

> <i_epik_Tot_abs_Q>
0

> <r_epik_Metal_State_Penalty>
-0

> <b_epik_Metal_Only>
0

> <s_lp_Force_Field>
OPLS_2005

> <r_lp_Energy>
-0.721606

> <b_lp_Chiralities_Consistent>
1

> <s_lp_Variant>
AV-unprocessed.smi:928-3

> <Gold.Version>
5.8.1

> <Gold.Id.Protein>
6NUR|6NUR_protein|mol2

> <Gold.PLP.Fitness>
48.1260

> <Gold.PLP.PLP>
-36.0394

> <Gold.PLP.part.hbond>
-4.6338

> <Gold.PLP.part.metal>
0.0000

> <Gold.PLP.part.buried>
-2.6082

> <Gold.PLP.part.nonpolar>
-28.3382

> <Gold.PLP.part.repulsive>
0.1715

> <Gold.PLP.ligand.clash>
0.0000

> <Gold.PLP.ligand.torsion>
0.8134

> <Gold.PLP.Chemscore.Hbond>
3.5625

> <Gold.PLP.Chemscore.CHOScore>
1.0000

> <Gold.PLP.Chemscore.Metal>
0.0000

> <Gold.Chemscore.Hbonds>
donor molecule, donor type, donor heavy atom, donor atom, acceptor molecule, acceptor atom, score
      L1  H     9    31       P1  7948  0.74
      L1  H    12    32       P1  7948  1.00
      L1  H    19    43       P1  7948  0.94
      P1  H  7989  7998       L1     5  0.94
      L1  C     4    26       P1  8028  1.00

> <Gold.PLP.Chemscore.Internal.Correction>
0.0258

> <Gold.Rescore>
     Score         DG    S(hbond)    S(metal)    S(lipo)     H(rot)  DE(clash)    DE(int)     intcor
     17.69     -18.51       2.73        0.00      81.77       2.21       0.01       0.82       ----

> <Gold.Chemscore.Fitness>
17.6851

> <Gold.Chemscore.DG>
-18.5139

> <Gold.Chemscore.ZeroCoef>
-5.4800

> <Gold.Chemscore.Hbond>
2.7308

> <Gold.Chemscore.Metal>
0.0000

> <Gold.Chemscore.Lipo>
81.7657

> <Gold.Chemscore.Internal_Hbond>
0.0000

> <Gold.Chemscore.DEClash>
0.0078

> <Gold.Chemscore.DEInternal>
0.8209

> <Gold.Chemscore.Rot>
2.2084

> <Gold.Chemscore.Internal.Correction>
   9.000000E+99

> <Gold.Chemscore.Hbonds>
donor molecule, donor type, donor heavy atom, donor atom, acceptor molecule, acceptor atom, score
      L1  H     9    31       P1  7948  0.14
      L1  H    12    32       P1  7948  0.38
      L1  H    19    43       P1  7948  0.23
      P1  H  7989  7998       L1     5  0.26

> <Gold.Chemscore.Hbond.Weighted>
-9.1208

> <Gold.Chemscore.Metal.Weighted>
-0.0000

> <Gold.Chemscore.Lipo.Weighted>
-9.5666

> <Gold.Chemscore.Internal_Hbond.Weighted>
0.0000

> <Gold.Chemscore.DEClash.Weighted>
0.0078

> <Gold.Chemscore.DEInternal.Weighted>
0.8209

> <Gold.Chemscore.Rot.Weighted>
5.6535

> <Gold.Chemscore.Internal.Correction.Weighted>
   9.000000E+99

> <Gold.Protein.RotatedTorsions>
[ 6907 6896 6895 6894 ] final  144.45 input  -60.11 | X-H torsion
[ 7974 7965 7964 7962 ] final  177.98 input  175.53 | X-H torsion
[ 8008 7997 7996 7995 ] final   64.23 input   59.86 | X-H torsion
[ 10167 10162 10161 10158 ] final   61.48 input  -65.29 | X-H torsion
[ 10718 10713 10712 10709 ] final -105.86 input   66.30 | X-H torsion
[ 10763 10752 10751 10750 ] final  132.87 input  -60.55 | X-H torsion
[ 11005 11000 10999 10996 ] final   35.53 input  -57.11 | X-H torsion

> <Gold.Protein.ActiveResidues>
 VAL166  LYS551  ARG553  GLY616  TRP617  ASP618  TYR619  PRO620  LYS621  CYS622 
 ASP623  PHE694  ASN695  SER759  ASP760  ASP761  ALA762  ILE779  LEU786  VAL792 
 PHE793  MET794  SER795  GLU796  ALA797  LYS798  CYS799  TRP800  GLU811  SER814 

> <Gold.Protein.RotatedAtoms>
  152.1935  133.4790  159.5020 H   0  0  0  0  0  0  0  0  0  0  0  0  # atno 6907 bound_to 6896
  150.6955  134.1682  159.4211 H   0  0  0  0  0  0  0  0  0  0  0  0  # atno 6908 bound_to 6896
  151.9598  135.0129  160.0597 H   0  0  0  0  0  0  0  0  0  0  0  0  # atno 6909 bound_to 6896
  144.7162  140.0328  143.6438 H   0  0  0  0  0  0  0  0  0  0  0  0  # atno 7974 bound_to 7965
  155.6428  140.3497  155.4721 H   0  0  0  0  0  0  0  0  0  0  0  0  # atno 8008 bound_to 7997
  155.9912  140.1194  157.0659 H   0  0  0  0  0  0  0  0  0  0  0  0  # atno 8009 bound_to 7997
  154.4220  140.1119  156.5554 H   0  0  0  0  0  0  0  0  0  0  0  0  # atno 8010 bound_to 7997
  140.1543  144.4432  150.6742 H   0  0  0  0  0  0  0  0  0  0  0  0  # atno 10167 bound_to 10162
  156.0364  130.5584  150.7599 H   0  0  0  0  0  0  0  0  0  0  0  0  # atno 10718 bound_to 10713
  153.7978  135.3146  155.3386 H   0  0  0  0  0  0  0  0  0  0  0  0  # atno 10763 bound_to 10752
  154.8101  135.4673  154.0496 H   0  0  0  0  0  0  0  0  0  0  0  0  # atno 10764 bound_to 10752
  153.1835  135.6897  153.8534 H   0  0  0  0  0  0  0  0  0  0  0  0  # atno 10765 bound_to 10752
  140.2417  134.3407  155.7923 H   0  0  0  0  0  0  0  0  0  0  0  0  # atno 11005 bound_to 11000
  146.0088  139.3152  143.0883 LP  0  0  0  0  0  0  0  0  0  0  0  0  # atno 17320 bound_to 7965
  145.8706  140.9422  143.0652 LP  0  0  0  0  0  0  0  0  0  0  0  0  # atno 17321 bound_to 7965
  140.6683  143.2276  151.5689 LP  0  0  0  0  0  0  0  0  0  0  0  0  # atno 17342 bound_to 10162
  139.5411  144.2646  152.1352 LP  0  0  0  0  0  0  0  0  0  0  0  0  # atno 17343 bound_to 10162
  157.5121  131.0926  151.0185 LP  0  0  0  0  0  0  0  0  0  0  0  0  # atno 17370 bound_to 10713
  157.0538  130.5797  149.5374 LP  0  0  0  0  0  0  0  0  0  0  0  0  # atno 17371 bound_to 10713
  141.2210  133.7302  156.8896 LP  0  0  0  0  0  0  0  0  0  0  0  0  # atno 17394 bound_to 11000
  140.1647  134.9142  157.2758 LP  0  0  0  0  0  0  0  0  0  0  0  0  # atno 17395 bound_to 11000

$$$$
