AV-unprocessed.smi:498|AV-procd|sdf|2730|dock5
  -GOLD-   2262023183D 1   1.00000     0.00000
 Structure written by MMmdl.
 41 43  0  0  0  0  0  0  0  0  2 V2000
  151.3250  137.1883  155.2152 C   0  0  0  0  0  0  0  0  0  0  0  0
  152.1091  138.2192  154.4010 C   0  0  0  0  0  0  0  0  0  0  0  0
  151.7684  139.5151  154.8599 O   0  0  0  0  0  0  0  0  0  0  0  0
  152.3181  139.8097  156.1336 C   0  0  0  0  0  0  0  0  0  0  0  0
  151.2935  140.5824  156.9792 C   0  0  0  0  0  0  0  0  0  0  0  0
  151.8756  141.1285  158.2099 N   0  0  0  0  0  0  0  0  0  0  0  0
  152.5170  140.5022  159.2452 C   0  0  0  0  0  0  0  0  0  0  0  0
  152.7595  139.0129  159.3275 C   0  0  0  0  0  0  0  0  0  0  0  0
  153.7347  138.6878  160.3643 N   0  5  0  0  0  0  0  0  0  0  0  0
  153.8721  137.4554  160.9257 C   0  0  0  0  0  0  0  0  0  0  0  0
  153.7599  136.3358  160.4152 O   0  0  0  0  0  0  0  0  0  0  0  0
  154.2407  137.5406  162.3569 C   0  0  0  0  0  0  0  0  0  0  0  0
  154.0342  136.6830  163.4079 C   0  0  0  0  0  0  0  0  0  0  0  0
  154.6437  137.2757  164.5479 C   0  0  0  0  0  0  0  0  0  0  0  0
  155.1885  138.4491  164.1128 C   0  0  0  0  0  0  0  0  0  0  0  0
  154.9606  138.6203  162.7824 O   0  0  0  0  0  0  0  0  0  0  0  0
  152.9311  141.3061  160.2282 N   0  0  0  0  0  0  0  0  0  0  0  0
  152.5214  142.5544  159.8085 C   0  0  0  0  0  0  0  0  0  0  0  0
  152.6637  143.8198  160.4219 C   0  0  0  0  0  0  0  0  0  0  0  0
  152.1549  144.9770  159.7973 C   0  0  0  0  0  0  0  0  0  0  0  0
  151.4985  144.8850  158.5534 C   0  0  0  0  0  0  0  0  0  0  0  0
  151.3485  143.6337  157.9254 C   0  0  0  0  0  0  0  0  0  0  0  0
  151.8590  142.4801  158.5522 C   0  0  0  0  0  0  0  0  0  0  0  0
  151.5657  136.1743  154.8958 H   0  0  0  0  0  0  0  0  0  0  0  0
  150.2510  137.3316  155.0962 H   0  0  0  0  0  0  0  0  0  0  0  0
  151.5584  137.2701  156.2769 H   0  0  0  0  0  0  0  0  0  0  0  0
  153.1800  138.0479  154.5186 H   0  0  0  0  0  0  0  0  0  0  0  0
  151.8714  138.1193  153.3410 H   0  0  0  0  0  0  0  0  0  0  0  0
  152.6023  138.8869  156.6383 H   0  0  0  0  0  0  0  0  0  0  0  0
  153.2259  140.4028  156.0172 H   0  0  0  0  0  0  0  0  0  0  0  0
  150.8349  141.3780  156.3922 H   0  0  0  0  0  0  0  0  0  0  0  0
  150.4754  139.9167  157.2546 H   0  0  0  0  0  0  0  0  0  0  0  0
  151.7959  138.5299  159.4949 H   0  0  0  0  0  0  0  0  0  0  0  0
  153.0895  138.6601  158.3496 H   0  0  0  0  0  0  0  0  0  0  0  0
  153.5079  135.7409  163.3602 H   0  0  0  0  0  0  0  0  0  0  0  0
  154.6816  136.8905  165.5559 H   0  0  0  0  0  0  0  0  0  0  0  0
  155.7475  139.2400  164.5903 H   0  0  0  0  0  0  0  0  0  0  0  0
  153.1636  143.8982  161.3756 H   0  0  0  0  0  0  0  0  0  0  0  0
  152.2677  145.9389  160.2753 H   0  0  0  0  0  0  0  0  0  0  0  0
  151.1090  145.7752  158.0816 H   0  0  0  0  0  0  0  0  0  0  0  0
  150.8418  143.5601  156.9747 H   0  0  0  0  0  0  0  0  0  0  0  0
  1  2  1  0  0  0  0
  1 24  1  0  0  0  0
  1 25  1  0  0  0  0
  1 26  1  0  0  0  0
  2  3  1  0  0  0  0
  2 27  1  0  0  0  0
  2 28  1  0  0  0  0
  3  4  1  0  0  0  0
  4  5  1  0  0  0  0
  4 29  1  0  0  0  0
  4 30  1  0  0  0  0
  5  6  1  0  0  0  0
  5 31  1  0  0  0  0
  5 32  1  0  0  0  0
  6 23  1  0  0  0  0
  6  7  1  0  0  0  0
  7  8  1  0  0  0  0
  7 17  2  0  0  0  0
  8  9  1  0  0  0  0
  8 33  1  0  0  0  0
  8 34  1  0  0  0  0
  9 10  1  0  0  0  0
 10 11  2  0  0  0  0
 10 12  1  0  0  0  0
 12 16  1  0  0  0  0
 12 13  2  0  0  0  0
 13 14  1  0  0  0  0
 13 35  1  0  0  0  0
 14 15  2  0  0  0  0
 14 36  1  0  0  0  0
 15 16  1  0  0  0  0
 15 37  1  0  0  0  0
 17 18  1  0  0  0  0
 18 23  2  0  0  0  0
 18 19  1  0  0  0  0
 19 20  2  0  0  0  0
 19 38  1  0  0  0  0
 20 21  1  0  0  0  0
 20 39  1  0  0  0  0
 21 22  2  0  0  0  0
 21 40  1  0  0  0  0
 22 23  1  0  0  0  0
 22 41  1  0  0  0  0
M  CHG  1   9  -1
M  END
> <s_m_source_file>
AV-unprocessed.smi

> <i_m_source_file_index>
498

> <i_lp_mmshare_version>
43012

> <i_f3d_flags>
0

> <s_epik_input>
W0NIM11bQ0gyXU9bQ0gyXVtDSDJdbihjKGMxMilbY0hdW2NIXVtjSF1bY0hdMiljKG4xKVtDSDJdW05IXUMoPU8pYzNbY0hdW2NIXVtjSF1vMw==

> <s_epik_cmdline>
J2VwaWtfcHl0aG9uJywgJy1waCcsICc3LjAnLCAnLXRuJywgJzgnLCAnLW1hJywgJzIwMCcsICctbWV0YWxfYmluZGluZycsICctaW1hZScsICc8aW5maWxlLm1hZT4nLCAnLW9tYWUnLCAnPG91dGZpbGUubWFlPic=

> <r_epik_Ionization_Penalty>
7.14443

> <r_epik_Ionization_Penalty_Charging>
6.27046

> <r_epik_Ionization_Penalty_Neutral>
0.873973

> <r_epik_State_Penalty>
6.33192

> <r_epik_Charging_Adjusted_Penalty>
12.6024

> <i_epik_Tot_Q>
-1

> <i_epik_Tot_abs_Q>
1

> <r_epik_Metal_State_Penalty>
2.32923

> <b_epik_Metal_Only>
1

> <s_lp_Force_Field>
OPLS_2005

> <r_lp_Energy>
15.7295

> <b_lp_Chiralities_Consistent>
1

> <s_lp_Variant>
AV-unprocessed.smi:498-3

> <Gold.Version>
5.8.1

> <Gold.Id.Protein>
6NUR|6NUR_protein|mol2

> <Gold.PLP.Fitness>
56.4854

> <Gold.PLP.PLP>
-52.8401

> <Gold.PLP.part.hbond>
-2.0000

> <Gold.PLP.part.metal>
0.0000

> <Gold.PLP.part.buried>
-7.4289

> <Gold.PLP.part.nonpolar>
-42.2017

> <Gold.PLP.part.repulsive>
0.0516

> <Gold.PLP.ligand.clash>
0.0000

> <Gold.PLP.ligand.torsion>
1.2561

> <Gold.PLP.Chemscore.Hbond>
2.0000

> <Gold.PLP.Chemscore.CHOScore>
0.0000

> <Gold.PLP.Chemscore.Metal>
0.0000

> <Gold.Chemscore.Hbonds>
donor molecule, donor type, donor heavy atom, donor atom, acceptor molecule, acceptor atom, score
      P1  H  6896  6909       L1    11  0.80
      P1  H  7989  7998       L1     3  1.00

> <Gold.PLP.Chemscore.Internal.Correction>
0.1576

> <Gold.Rescore>
     Score         DG    S(hbond)    S(metal)    S(lipo)     H(rot)  DE(clash)    DE(int)     intcor
     21.18     -22.42       1.95        0.00     130.55       1.90       0.04       1.20       ----

> <Gold.Chemscore.Fitness>
21.1760

> <Gold.Chemscore.DG>
-22.4164

> <Gold.Chemscore.ZeroCoef>
-5.4800

> <Gold.Chemscore.Hbond>
1.9534

> <Gold.Chemscore.Metal>
0.0000

> <Gold.Chemscore.Lipo>
130.5488

> <Gold.Chemscore.Internal_Hbond>
0.0000

> <Gold.Chemscore.DEClash>
0.0396

> <Gold.Chemscore.DEInternal>
1.2009

> <Gold.Chemscore.Rot>
1.8992

> <Gold.Chemscore.Internal.Correction>
   9.000000E+99

> <Gold.Chemscore.Hbonds>
donor molecule, donor type, donor heavy atom, donor atom, acceptor molecule, acceptor atom, score
      P1  H  6896  6909       L1    11  0.79
      P1  H  7989  7998       L1     3  0.86

> <Gold.Chemscore.Hbond.Weighted>
-6.5243

> <Gold.Chemscore.Metal.Weighted>
-0.0000

> <Gold.Chemscore.Lipo.Weighted>
-15.2742

> <Gold.Chemscore.Internal_Hbond.Weighted>
0.0000

> <Gold.Chemscore.DEClash.Weighted>
0.0396

> <Gold.Chemscore.DEInternal.Weighted>
1.2009

> <Gold.Chemscore.Rot.Weighted>
4.8621

> <Gold.Chemscore.Internal.Correction.Weighted>
   9.000000E+99

> <Gold.Protein.RotatedTorsions>
[ 6907 6896 6895 6894 ] final  158.42 input  -60.11 | X-H torsion
[ 7974 7965 7964 7962 ] final  -33.33 input  175.53 | X-H torsion
[ 8008 7997 7996 7995 ] final  -76.20 input   59.86 | X-H torsion
[ 10167 10162 10161 10158 ] final  -56.91 input  -65.29 | X-H torsion
[ 10718 10713 10712 10709 ] final   46.29 input   66.30 | X-H torsion
[ 10763 10752 10751 10750 ] final   39.02 input  -60.55 | X-H torsion
[ 11005 11000 10999 10996 ] final   10.92 input  -57.11 | X-H torsion

> <Gold.Protein.ActiveResidues>
 VAL166  LYS551  ARG553  GLY616  TRP617  ASP618  TYR619  PRO620  LYS621  CYS622 
 ASP623  PHE694  ASN695  SER759  ASP760  ASP761  ALA762  ILE779  LEU786  VAL792 
 PHE793  MET794  SER795  GLU796  ALA797  LYS798  CYS799  TRP800  GLU811  SER814 

> <Gold.Protein.RotatedAtoms>
  152.0006  133.3824  159.4179 H   0  0  0  0  0  0  0  0  0  0  0  0  # atno 6907 bound_to 6896
  150.6910  134.3838  159.5055 H   0  0  0  0  0  0  0  0  0  0  0  0  # atno 6908 bound_to 6896
  152.1584  134.8931  160.0594 H   0  0  0  0  0  0  0  0  0  0  0  0  # atno 6909 bound_to 6896
  146.0919  140.5903  142.8860 H   0  0  0  0  0  0  0  0  0  0  0  0  # atno 7974 bound_to 7965
  154.5484  140.0731  156.8627 H   0  0  0  0  0  0  0  0  0  0  0  0  # atno 8008 bound_to 7997
  155.3042  140.3386  155.4228 H   0  0  0  0  0  0  0  0  0  0  0  0  # atno 8009 bound_to 7997
  156.1939  140.1696  156.8024 H   0  0  0  0  0  0  0  0  0  0  0  0  # atno 8010 bound_to 7997
  140.6289  143.2450  151.5291 H   0  0  0  0  0  0  0  0  0  0  0  0  # atno 10167 bound_to 10162
  157.4465  130.8113  149.7746 H   0  0  0  0  0  0  0  0  0  0  0  0  # atno 10718 bound_to 10713
  152.9981  135.6232  154.2399 H   0  0  0  0  0  0  0  0  0  0  0  0  # atno 10763 bound_to 10752
  154.2139  135.2798  155.2950 H   0  0  0  0  0  0  0  0  0  0  0  0  # atno 10764 bound_to 10752
  154.5584  135.5712  153.7043 H   0  0  0  0  0  0  0  0  0  0  0  0  # atno 10765 bound_to 10752
  140.5090  134.0671  155.7813 H   0  0  0  0  0  0  0  0  0  0  0  0  # atno 11005 bound_to 11000
  144.7366  140.4826  143.6899 LP  0  0  0  0  0  0  0  0  0  0  0  0  # atno 17320 bound_to 7965
  145.6023  139.1505  143.3122 LP  0  0  0  0  0  0  0  0  0  0  0  0  # atno 17321 bound_to 7965
  139.5506  144.2406  152.1523 LP  0  0  0  0  0  0  0  0  0  0  0  0  # atno 17342 bound_to 10162
  140.1644  144.4995  150.6614 LP  0  0  0  0  0  0  0  0  0  0  0  0  # atno 17343 bound_to 10162
  155.9970  130.3903  150.2759 LP  0  0  0  0  0  0  0  0  0  0  0  0  # atno 17370 bound_to 10713
  157.0927  131.0174  151.3115 LP  0  0  0  0  0  0  0  0  0  0  0  0  # atno 17371 bound_to 10713
  141.1396  133.9162  157.2357 LP  0  0  0  0  0  0  0  0  0  0  0  0  # atno 17394 bound_to 11000
  139.9670  135.0139  156.9412 LP  0  0  0  0  0  0  0  0  0  0  0  0  # atno 17395 bound_to 11000

$$$$
