AV-unprocessed.smi:1867|AV-procd|sdf|7580|dock7
  -GOLD-   22720 9293D 1   1.00000     0.00000
 Structure written by MMmdl.
 52 55  0  0  0  0  0  0  0  0  4 V2000
  146.3337  140.4933  155.5066 O   0  0  0  0  0  0  0  0  0  0  0  0
  146.9197  139.5481  154.9821 C   0  0  0  0  0  0  0  0  0  0  0  0
  148.2719  139.4847  155.0662 N   0  0  0  0  0  0  0  0  0  0  0  0
  149.1698  140.3559  155.7387 C   0  0  0  0  0  0  0  0  0  0  0  0
  150.2457  139.7781  156.4439 C   0  0  0  0  0  0  0  0  0  0  0  0
  151.1500  140.6046  157.1414 C   0  0  0  0  0  0  0  0  0  0  0  0
  150.9636  142.0073  157.1370 C   0  0  0  0  0  0  0  0  0  0  0  0
  151.8245  142.8921  157.8135 N   0  0  0  0  0  0  0  0  0  0  0  0
  152.5188  142.4932  159.0278 C   0  0  0  0  0  0  0  0  0  0  0  0
  153.1738  143.7763  159.5361 C   0  0  0  0  0  0  0  0  0  0  0  0
  152.1847  144.8609  159.1078 C   0  0  0  0  0  0  0  0  0  0  0  0
  151.5906  144.3298  157.7978 C   0  0  0  0  0  0  0  0  0  0  0  0
  149.9021  142.5162  156.4671 N   0  3  0  0  0  0  0  0  0  0  0  0
  149.0144  141.7613  155.7842 C   0  0  0  0  0  0  0  0  0  0  0  0
  146.2354  138.5824  154.2968 N   0  5  0  0  0  0  0  0  0  0  0  0
  146.6565  137.8006  153.1240 C   0  0  2  0  0  0  0  0  0  0  0  0
  146.4487  138.5518  151.8005 C   0  0  0  0  0  0  0  0  0  0  0  0
  146.2190  137.4443  150.7570 C   0  0  0  0  0  0  0  0  0  0  0  0
  146.1402  136.1759  151.5173 N   0  3  2  0  0  0  0  0  0  0  0  0
  145.3409  135.0811  150.9092 C   0  0  0  0  0  0  0  0  0  0  0  0
  143.8303  135.2537  151.1344 C   0  0  0  0  0  0  0  0  0  0  0  0
  143.5272  135.4424  152.6238 C   0  0  0  0  0  0  0  0  0  0  0  0
  144.2942  136.6608  153.1488 C   0  0  0  0  0  0  0  0  0  0  0  0
  145.8305  136.5138  152.9268 C   0  0  2  0  0  0  0  0  0  0  0  0
  148.7035  138.7477  154.5289 H   0  0  0  0  0  0  0  0  0  0  0  0
  150.3831  138.7065  156.4476 H   0  0  0  0  0  0  0  0  0  0  0  0
  151.9710  140.1516  157.6770 H   0  0  0  0  0  0  0  0  0  0  0  0
  151.7974  142.1166  159.7546 H   0  0  0  0  0  0  0  0  0  0  0  0
  153.2556  141.7130  158.8340 H   0  0  0  0  0  0  0  0  0  0  0  0
  153.3570  143.7634  160.6109 H   0  0  0  0  0  0  0  0  0  0  0  0
  154.1293  143.9296  159.0318 H   0  0  0  0  0  0  0  0  0  0  0  0
  151.3967  144.9492  159.8571 H   0  0  0  0  0  0  0  0  0  0  0  0
  152.6493  145.8409  158.9950 H   0  0  0  0  0  0  0  0  0  0  0  0
  152.1045  144.7609  156.9379 H   0  0  0  0  0  0  0  0  0  0  0  0
  150.5310  144.5765  157.7238 H   0  0  0  0  0  0  0  0  0  0  0  0
  148.2121  142.3110  155.3149 H   0  0  0  0  0  0  0  0  0  0  0  0
  147.7078  137.5127  153.1873 H   0  0  0  0  0  0  0  0  0  0  0  0
  145.5684  139.1949  151.8497 H   0  0  0  0  0  0  0  0  0  0  0  0
  147.3022  139.1835  151.5523 H   0  0  0  0  0  0  0  0  0  0  0  0
  145.2965  137.6328  150.2059 H   0  0  0  0  0  0  0  0  0  0  0  0
  147.0329  137.3897  150.0327 H   0  0  0  0  0  0  0  0  0  0  0  0
  145.5676  135.0058  149.8452 H   0  0  0  0  0  0  0  0  0  0  0  0
  145.6639  134.1428  151.3617 H   0  0  0  0  0  0  0  0  0  0  0  0
  143.4618  136.1114  150.5708 H   0  0  0  0  0  0  0  0  0  0  0  0
  143.2969  134.3825  150.7532 H   0  0  0  0  0  0  0  0  0  0  0  0
  142.4560  135.5794  152.7753 H   0  0  0  0  0  0  0  0  0  0  0  0
  143.8132  134.5503  153.1822 H   0  0  0  0  0  0  0  0  0  0  0  0
  143.8968  137.5485  152.6512 H   0  0  0  0  0  0  0  0  0  0  0  0
  144.0744  136.7863  154.2105 H   0  0  0  0  0  0  0  0  0  0  0  0
  146.2056  135.7192  153.5733 H   0  0  0  0  0  0  0  0  0  0  0  0
  147.0931  135.8422  151.5405 H   0  0  0  0  0  0  0  0  0  0  0  0
  149.7624  143.5266  156.4777 H   0  0  0  0  0  0  0  0  0  0  0  0
  1  2  2  0  0  0  0
  2  3  1  0  0  0  0
  2 15  1  0  0  0  0
  3  4  1  0  0  0  0
  3 25  1  0  0  0  0
  4 14  1  0  0  0  0
  4  5  2  0  0  0  0
  5  6  1  0  0  0  0
  5 26  1  0  0  0  0
  6  7  2  0  0  0  0
  6 27  1  0  0  0  0
  7  8  1  0  0  0  0
  7 13  1  0  0  0  0
  8 12  1  0  0  0  0
  8  9  1  0  0  0  0
  9 10  1  0  0  0  0
  9 28  1  0  0  0  0
  9 29  1  0  0  0  0
 10 11  1  0  0  0  0
 10 30  1  0  0  0  0
 10 31  1  0  0  0  0
 11 12  1  0  0  0  0
 11 32  1  0  0  0  0
 11 33  1  0  0  0  0
 12 34  1  0  0  0  0
 12 35  1  0  0  0  0
 13 14  2  0  0  0  0
 13 52  1  0  0  0  0
 14 36  1  0  0  0  0
 15 16  1  0  0  0  0
 16 24  1  0  0  0  0
 16 17  1  0  0  0  0
 16 37  1  0  0  0  0
 17 18  1  0  0  0  0
 17 38  1  0  0  0  0
 17 39  1  0  0  0  0
 18 19  1  0  0  0  0
 18 40  1  0  0  0  0
 18 41  1  0  0  0  0
 19 24  1  0  0  0  0
 19 20  1  0  0  0  0
 19 51  1  0  0  0  0
 20 21  1  0  0  0  0
 20 42  1  0  0  0  0
 20 43  1  0  0  0  0
 21 22  1  0  0  0  0
 21 44  1  0  0  0  0
 21 45  1  0  0  0  0
 22 23  1  0  0  0  0
 22 46  1  0  0  0  0
 22 47  1  0  0  0  0
 23 24  1  0  0  0  0
 23 48  1  0  0  0  0
 23 49  1  0  0  0  0
 24 50  1  0  0  0  0
M  CHG  1  13   1
M  CHG  1  15  -1
M  CHG  1  19   1
M  END
> <s_m_source_file>
AV-unprocessed.smi

> <i_m_source_file_index>
1867

> <i_lp_mmshare_version>
43012

> <i_f3d_flags>
0

> <s_epik_input>
W0NIMl0xW0NIMl1bQ0gyXVtDSDJdW0NASF0oTjEyKVtDQEBIXShbQ0gyXVtDSDJdMilbTkhdQyg9TylbTkhdYzNbY0hdW2NIXWMobltjSF0zKU40W0NIMl1bQ0gyXVtDSDJdW0NIMl00

> <s_epik_cmdline>
J2VwaWtfcHl0aG9uJywgJy1waCcsICc3LjAnLCAnLXRuJywgJzgnLCAnLW1hJywgJzIwMCcsICctbWV0YWxfYmluZGluZycsICctaW1hZScsICc8aW5maWxlLm1hZT4nLCAnLW9tYWUnLCAnPG91dGZpbGUubWFlPic=

> <r_lp_tautomer_probability>
0.999994

> <r_epik_Ionization_Penalty>
8.56137

> <r_epik_Ionization_Penalty_Charging>
8.56136

> <r_epik_Ionization_Penalty_Neutral>
3.91889e-06

> <r_epik_State_Penalty>
8.16255

> <r_epik_Charging_Adjusted_Penalty>
16.7239

> <i_epik_Tot_Q>
1

> <i_epik_Tot_abs_Q>
3

> <r_epik_Metal_State_Penalty>
4.14279

> <b_epik_Metal_Only>
1

> <s_lp_Force_Field>
OPLS_2005

> <r_lp_Energy>
70.2226

> <b_lp_Chiralities_Consistent>
1

> <s_lp_Variant>
AV-unprocessed.smi:1867-21

> <Gold.Version>
5.8.1

> <Gold.Id.Protein>
6NUR|6NUR_protein|mol2

> <Gold.PLP.Fitness>
48.0172

> <Gold.PLP.PLP>
-38.8948

> <Gold.PLP.part.hbond>
-1.8811

> <Gold.PLP.part.metal>
0.0000

> <Gold.PLP.part.buried>
3.0550

> <Gold.PLP.part.nonpolar>
-40.7197

> <Gold.PLP.part.repulsive>
0.3305

> <Gold.PLP.ligand.clash>
0.0000

> <Gold.PLP.ligand.torsion>
1.0149

> <Gold.PLP.Chemscore.Hbond>
3.6320

> <Gold.PLP.Chemscore.CHOScore>
0.0000

> <Gold.PLP.Chemscore.Metal>
0.0000

> <Gold.Chemscore.Hbonds>
donor molecule, donor type, donor heavy atom, donor atom, acceptor molecule, acceptor atom, score
      L1  H    13    52       P1  8028  1.63
      L1  H    19    51       P1  7948  1.95

> <Gold.PLP.Chemscore.Internal.Correction>
0.2562

> <Gold.Rescore>
     Score         DG    S(hbond)    S(metal)    S(lipo)     H(rot)  DE(clash)    DE(int)     intcor
     18.39     -22.10       1.70        0.00     115.37       1.00       1.65       2.06       ----

> <Gold.Chemscore.Fitness>
18.3880

> <Gold.Chemscore.DG>
-22.0979

> <Gold.Chemscore.ZeroCoef>
-5.4800

> <Gold.Chemscore.Hbond>
1.7004

> <Gold.Chemscore.Metal>
0.0000

> <Gold.Chemscore.Lipo>
115.3708

> <Gold.Chemscore.Internal_Hbond>
0.0000

> <Gold.Chemscore.DEClash>
1.6541

> <Gold.Chemscore.DEInternal>
2.0558

> <Gold.Chemscore.Rot>
1.0000

> <Gold.Chemscore.Internal.Correction>
   9.000000E+99

> <Gold.Chemscore.Hbonds>
donor molecule, donor type, donor heavy atom, donor atom, acceptor molecule, acceptor atom, score
      L1  H    13    52       P1  8028  0.81
      L1  H    19    51       P1  7948  0.93

> <Gold.Chemscore.Hbond.Weighted>
-5.6795

> <Gold.Chemscore.Metal.Weighted>
-0.0000

> <Gold.Chemscore.Lipo.Weighted>
-13.4984

> <Gold.Chemscore.Internal_Hbond.Weighted>
0.0000

> <Gold.Chemscore.DEClash.Weighted>
1.6541

> <Gold.Chemscore.DEInternal.Weighted>
2.0558

> <Gold.Chemscore.Rot.Weighted>
2.5600

> <Gold.Chemscore.Internal.Correction.Weighted>
   9.000000E+99

> <Gold.Protein.RotatedTorsions>
[ 6907 6896 6895 6894 ] final   -6.46 input  -60.11 | X-H torsion
[ 7974 7965 7964 7962 ] final -117.64 input  175.53 | X-H torsion
[ 8008 7997 7996 7995 ] final  -40.98 input   59.86 | X-H torsion
[ 10167 10162 10161 10158 ] final  119.50 input  -65.29 | X-H torsion
[ 10718 10713 10712 10709 ] final  114.14 input   66.30 | X-H torsion
[ 10763 10752 10751 10750 ] final -137.27 input  -60.55 | X-H torsion
[ 11005 11000 10999 10996 ] final   27.93 input  -57.11 | X-H torsion

> <Gold.Protein.ActiveResidues>
 VAL166  LYS551  ARG553  GLY616  TRP617  ASP618  TYR619  PRO620  LYS621  CYS622 
 ASP623  PHE694  ASN695  SER759  ASP760  ASP761  ALA762  ILE779  LEU786  VAL792 
 PHE793  MET794  SER795  GLU796  ALA797  LYS798  CYS799  TRP800  GLU811  SER814 

> <Gold.Protein.RotatedAtoms>
  151.4652  135.1041  159.9735 H   0  0  0  0  0  0  0  0  0  0  0  0  # atno 6907 bound_to 6896
  152.4837  133.8315  159.7116 H   0  0  0  0  0  0  0  0  0  0  0  0  # atno 6908 bound_to 6896
  150.8930  133.7158  159.2926 H   0  0  0  0  0  0  0  0  0  0  0  0  # atno 6909 bound_to 6896
  145.0830  140.8438  143.4028 H   0  0  0  0  0  0  0  0  0  0  0  0  # atno 7974 bound_to 7965
  154.4007  140.1511  156.3115 H   0  0  0  0  0  0  0  0  0  0  0  0  # atno 8008 bound_to 7997
  155.8611  140.3453  155.5735 H   0  0  0  0  0  0  0  0  0  0  0  0  # atno 8009 bound_to 7997
  155.7879  140.0852  157.2015 H   0  0  0  0  0  0  0  0  0  0  0  0  # atno 8010 bound_to 7997
  139.6042  144.7065  151.2991 H   0  0  0  0  0  0  0  0  0  0  0  0  # atno 10167 bound_to 10162
  157.6298  131.0994  150.7143 H   0  0  0  0  0  0  0  0  0  0  0  0  # atno 10718 bound_to 10713
  154.8665  135.3647  154.5196 H   0  0  0  0  0  0  0  0  0  0  0  0  # atno 10763 bound_to 10752
  153.5827  135.7018  153.5461 H   0  0  0  0  0  0  0  0  0  0  0  0  # atno 10764 bound_to 10752
  153.3443  135.4089  155.1559 H   0  0  0  0  0  0  0  0  0  0  0  0  # atno 10765 bound_to 10752
  140.3210  134.2543  155.7717 H   0  0  0  0  0  0  0  0  0  0  0  0  # atno 11005 bound_to 11000
  145.1156  139.2727  143.5615 LP  0  0  0  0  0  0  0  0  0  0  0  0  # atno 17320 bound_to 7965
  146.3531  140.0765  142.8620 LP  0  0  0  0  0  0  0  0  0  0  0  0  # atno 17321 bound_to 7965
  140.7272  143.6968  150.7877 LP  0  0  0  0  0  0  0  0  0  0  0  0  # atno 17342 bound_to 10162
  140.0550  143.5211  152.2655 LP  0  0  0  0  0  0  0  0  0  0  0  0  # atno 17343 bound_to 10162
  156.7485  130.4761  149.5462 LP  0  0  0  0  0  0  0  0  0  0  0  0  # atno 17370 bound_to 10713
  156.1494  130.6299  151.0575 LP  0  0  0  0  0  0  0  0  0  0  0  0  # atno 17371 bound_to 10713
  141.2086  133.7772  157.0046 LP  0  0  0  0  0  0  0  0  0  0  0  0  # atno 17394 bound_to 11000
  140.0942  134.9574  157.1823 LP  0  0  0  0  0  0  0  0  0  0  0  0  # atno 17395 bound_to 11000

$$$$
