AV-unprocessed.smi:1639|AV-procd|sdf|6549|dock1
  -GOLD-   22720 7233D 1   1.00000     0.00000
 Structure written by MMmdl.
 37 38  0  0  0  0  0  0  0  0  1 V2000
  152.0068  145.5572  159.2500 C   0  0  0  0  0  0  0  0  0  0  0  0
  150.9649  144.8696  160.1351 C   0  0  0  0  0  0  0  0  0  0  0  0
  151.6217  143.9131  160.9536 O   0  0  0  0  0  0  0  0  0  0  0  0
  152.4727  143.0183  160.2486 C   0  0  1  0  0  0  0  0  0  0  0  0
  153.0725  141.9599  161.1951 C   0  0  0  0  0  0  0  0  0  0  0  0
  153.8649  140.9201  160.3895 C   0  0  0  0  0  0  0  0  0  0  0  0
  152.9953  140.2887  159.2901 C   0  0  0  0  0  0  0  0  0  0  0  0
  152.3893  141.3166  158.4423 N   0  0  0  0  0  0  0  0  0  0  0  0
  151.8749  140.8590  157.2097 C   0  0  0  0  0  0  0  0  0  0  0  0
  150.6727  141.3899  156.6830 C   0  0  0  0  0  0  0  0  0  0  0  0
  150.2352  140.8730  155.4453 C   0  0  0  0  0  0  0  0  0  0  0  0
  148.9632  141.3659  154.7886 C   0  0  0  0  0  0  0  0  0  0  0  0
  150.9268  139.9179  154.7871 N   0  0  0  0  0  0  0  0  0  0  0  0
  152.0435  139.4827  155.3713 C   0  0  0  0  0  0  0  0  0  0  0  0
  152.7454  138.5075  154.7064 N   0  0  0  0  0  0  0  0  0  0  0  0
  152.5498  139.8945  156.5348 N   0  0  0  0  0  0  0  0  0  0  0  0
  151.6243  142.3416  159.1568 C   0  0  0  0  0  0  0  0  0  0  0  0
  151.5408  146.3062  158.6095 H   0  0  0  0  0  0  0  0  0  0  0  0
  152.5119  144.8353  158.6081 H   0  0  0  0  0  0  0  0  0  0  0  0
  152.7642  146.0576  159.8538 H   0  0  0  0  0  0  0  0  0  0  0  0
  150.4604  145.6124  160.7548 H   0  0  0  0  0  0  0  0  0  0  0  0
  150.2104  144.3935  159.5093 H   0  0  0  0  0  0  0  0  0  0  0  0
  153.2753  143.5743  159.7602 H   0  0  0  0  0  0  0  0  0  0  0  0
  153.7270  142.4215  161.9337 H   0  0  0  0  0  0  0  0  0  0  0  0
  152.2739  141.4644  161.7487 H   0  0  0  0  0  0  0  0  0  0  0  0
  154.7359  141.3960  159.9370 H   0  0  0  0  0  0  0  0  0  0  0  0
  154.2461  140.1440  161.0536 H   0  0  0  0  0  0  0  0  0  0  0  0
  153.6066  139.5962  158.7134 H   0  0  0  0  0  0  0  0  0  0  0  0
  152.1974  139.6978  159.7419 H   0  0  0  0  0  0  0  0  0  0  0  0
  150.1010  142.1442  157.2026 H   0  0  0  0  0  0  0  0  0  0  0  0
  148.3487  141.9245  155.4950 H   0  0  0  0  0  0  0  0  0  0  0  0
  148.3735  140.5280  154.4156 H   0  0  0  0  0  0  0  0  0  0  0  0
  149.2012  142.0200  153.9496 H   0  0  0  0  0  0  0  0  0  0  0  0
  152.4118  138.1546  153.8216 H   0  0  0  0  0  0  0  0  0  0  0  0
  153.6480  138.2090  155.0461 H   0  0  0  0  0  0  0  0  0  0  0  0
  150.7411  141.8797  159.6008 H   0  0  0  0  0  0  0  0  0  0  0  0
  151.2736  143.1041  158.4602 H   0  0  0  0  0  0  0  0  0  0  0  0
  1  2  1  0  0  0  0
  1 18  1  0  0  0  0
  1 19  1  0  0  0  0
  1 20  1  0  0  0  0
  2  3  1  0  0  0  0
  2 21  1  0  0  0  0
  2 22  1  0  0  0  0
  3  4  1  0  0  0  0
  4 17  1  0  0  0  0
  4  5  1  0  0  0  0
  4 23  1  0  0  0  0
  5  6  1  0  0  0  0
  5 24  1  0  0  0  0
  5 25  1  0  0  0  0
  6  7  1  0  0  0  0
  6 26  1  0  0  0  0
  6 27  1  0  0  0  0
  7  8  1  0  0  0  0
  7 28  1  0  0  0  0
  7 29  1  0  0  0  0
  8  9  1  0  0  0  0
  8 17  1  0  0  0  0
  9 16  1  0  0  0  0
  9 10  2  0  0  0  0
 10 11  1  0  0  0  0
 10 30  1  0  0  0  0
 11 12  1  0  0  0  0
 11 13  2  0  0  0  0
 12 31  1  0  0  0  0
 12 32  1  0  0  0  0
 12 33  1  0  0  0  0
 13 14  1  0  0  0  0
 14 15  1  0  0  0  0
 14 16  2  0  0  0  0
 15 34  1  0  0  0  0
 15 35  1  0  0  0  0
 17 36  1  0  0  0  0
 17 37  1  0  0  0  0
M  END
> <s_m_source_file>
AV-unprocessed.smi

> <i_m_source_file_index>
1639

> <i_lp_mmshare_version>
43012

> <i_f3d_flags>
0

> <s_epik_input>
W0NIM11bQ0gyXU9bQ0BASF0xW0NIMl1bQ0gyXVtDSDJdTihbQ0gyXTEpYzJbY0hdYyhbQ0gzXSluYyhuMilbTkgyXQ==

> <s_epik_cmdline>
J2VwaWtfcHl0aG9uJywgJy1waCcsICc3LjAnLCAnLXRuJywgJzgnLCAnLW1hJywgJzIwMCcsICctbWV0YWxfYmluZGluZycsICctaW1hZScsICc8aW5maWxlLm1hZT4nLCAnLW9tYWUnLCAnPG91dGZpbGUubWFlPic=

> <r_lp_tautomer_probability>
1

> <r_epik_Ionization_Penalty>
0.383805

> <r_epik_Ionization_Penalty_Charging>
0

> <r_epik_Ionization_Penalty_Neutral>
0.383805

> <r_epik_State_Penalty>
0.0922942

> <r_epik_Charging_Adjusted_Penalty>
0.0922942

> <i_epik_Tot_Q>
0

> <i_epik_Tot_abs_Q>
0

> <r_epik_Metal_State_Penalty>
0.050432

> <b_epik_Metal_Only>
0

> <s_lp_Force_Field>
OPLS_2005

> <r_lp_Energy>
9.4445

> <b_lp_Chiralities_Consistent>
1

> <s_lp_Variant>
AV-unprocessed.smi:1639-2

> <Gold.Version>
5.8.1

> <Gold.Id.Protein>
6NUR|6NUR_protein|mol2

> <Gold.PLP.Fitness>
45.4913

> <Gold.PLP.PLP>
-39.7650

> <Gold.PLP.part.hbond>
-2.0000

> <Gold.PLP.part.metal>
0.0000

> <Gold.PLP.part.buried>
-5.0971

> <Gold.PLP.part.nonpolar>
-31.5228

> <Gold.PLP.part.repulsive>
0.4214

> <Gold.PLP.ligand.clash>
0.0000

> <Gold.PLP.ligand.torsion>
0.3443

> <Gold.PLP.Chemscore.Hbond>
2.0000

> <Gold.PLP.Chemscore.CHOScore>
0.0000

> <Gold.PLP.Chemscore.Metal>
0.0000

> <Gold.Chemscore.Hbonds>
donor molecule, donor type, donor heavy atom, donor atom, acceptor molecule, acceptor atom, score
      P1  H  7989  7998       L1    13  0.95
      P1  H  7997  8008       L1    16  1.00

> <Gold.PLP.Chemscore.Internal.Correction>
0.4149

> <Gold.Rescore>
     Score         DG    S(hbond)    S(metal)    S(lipo)     H(rot)  DE(clash)    DE(int)     intcor
     14.87     -15.21       0.84        0.00      90.37       1.43       0.06       0.28       ----

> <Gold.Chemscore.Fitness>
14.8660

> <Gold.Chemscore.DG>
-15.2072

> <Gold.Chemscore.ZeroCoef>
-5.4800

> <Gold.Chemscore.Hbond>
0.8423

> <Gold.Chemscore.Metal>
0.0000

> <Gold.Chemscore.Lipo>
90.3672

> <Gold.Chemscore.Internal_Hbond>
0.0000

> <Gold.Chemscore.DEClash>
0.0572

> <Gold.Chemscore.DEInternal>
0.2840

> <Gold.Chemscore.Rot>
1.4293

> <Gold.Chemscore.Internal.Correction>
   9.000000E+99

> <Gold.Chemscore.Hbonds>
donor molecule, donor type, donor heavy atom, donor atom, acceptor molecule, acceptor atom, score
      P1  H  7989  7998       L1    13  0.06
      P1  H  7997  8008       L1    16  0.65

> <Gold.Chemscore.Hbond.Weighted>
-2.8132

> <Gold.Chemscore.Metal.Weighted>
-0.0000

> <Gold.Chemscore.Lipo.Weighted>
-10.5730

> <Gold.Chemscore.Internal_Hbond.Weighted>
0.0000

> <Gold.Chemscore.DEClash.Weighted>
0.0572

> <Gold.Chemscore.DEInternal.Weighted>
0.2840

> <Gold.Chemscore.Rot.Weighted>
3.6589

> <Gold.Chemscore.Internal.Correction.Weighted>
   9.000000E+99

> <Gold.Protein.RotatedTorsions>
[ 6907 6896 6895 6894 ] final  124.06 input  -60.11 | X-H torsion
[ 7974 7965 7964 7962 ] final -129.95 input  175.53 | X-H torsion
[ 8008 7997 7996 7995 ] final  -43.17 input   59.86 | X-H torsion
[ 10167 10162 10161 10158 ] final  -39.53 input  -65.29 | X-H torsion
[ 10718 10713 10712 10709 ] final  -94.84 input   66.30 | X-H torsion
[ 10763 10752 10751 10750 ] final   51.84 input  -60.55 | X-H torsion
[ 11005 11000 10999 10996 ] final  148.26 input  -57.11 | X-H torsion

> <Gold.Protein.ActiveResidues>
 VAL166  LYS551  ARG553  GLY616  TRP617  ASP618  TYR619  PRO620  LYS621  CYS622 
 ASP623  PHE694  ASN695  SER759  ASP760  ASP761  ALA762  ILE779  LEU786  VAL792 
 PHE793  MET794  SER795  GLU796  ALA797  LYS798  CYS799  TRP800  GLU811  SER814 

> <Gold.Protein.RotatedAtoms>
  152.4110  133.6963  159.6397 H   0  0  0  0  0  0  0  0  0  0  0  0  # atno 6907 bound_to 6896
  150.7990  133.8624  159.3244 H   0  0  0  0  0  0  0  0  0  0  0  0  # atno 6908 bound_to 6896
  151.6367  135.1019  160.0184 H   0  0  0  0  0  0  0  0  0  0  0  0  # atno 6909 bound_to 6896
  144.9522  140.7357  143.4781 H   0  0  0  0  0  0  0  0  0  0  0  0  # atno 7974 bound_to 7965
  154.3997  140.1455  156.3475 H   0  0  0  0  0  0  0  0  0  0  0  0  # atno 8008 bound_to 7997
  155.8300  140.3466  155.5545 H   0  0  0  0  0  0  0  0  0  0  0  0  # atno 8009 bound_to 7997
  155.8198  140.0896  157.1846 H   0  0  0  0  0  0  0  0  0  0  0  0  # atno 8010 bound_to 7997
  140.7061  143.3209  151.2795 H   0  0  0  0  0  0  0  0  0  0  0  0  # atno 10167 bound_to 10162
  156.0033  130.5084  150.5988 H   0  0  0  0  0  0  0  0  0  0  0  0  # atno 10718 bound_to 10713
  152.9786  135.5832  154.4481 H   0  0  0  0  0  0  0  0  0  0  0  0  # atno 10763 bound_to 10752
  154.4074  135.2769  155.2061 H   0  0  0  0  0  0  0  0  0  0  0  0  # atno 10764 bound_to 10752
  154.3865  135.6135  153.5874 H   0  0  0  0  0  0  0  0  0  0  0  0  # atno 10765 bound_to 10752
  140.0945  134.9021  157.1702 H   0  0  0  0  0  0  0  0  0  0  0  0  # atno 11005 bound_to 11000
  145.2827  139.1912  143.4782 LP  0  0  0  0  0  0  0  0  0  0  0  0  # atno 17320 bound_to 7965
  146.3325  140.2791  142.8609 LP  0  0  0  0  0  0  0  0  0  0  0  0  # atno 17321 bound_to 7965
  139.6662  144.0101  152.2724 LP  0  0  0  0  0  0  0  0  0  0  0  0  # atno 17342 bound_to 10162
  139.9684  144.6510  150.8012 LP  0  0  0  0  0  0  0  0  0  0  0  0  # atno 17343 bound_to 10162
  157.3840  131.0785  151.1452 LP  0  0  0  0  0  0  0  0  0  0  0  0  # atno 17370 bound_to 10713
  157.2165  130.6462  149.5794 LP  0  0  0  0  0  0  0  0  0  0  0  0  # atno 17371 bound_to 10713
  140.3306  134.2814  155.7229 LP  0  0  0  0  0  0  0  0  0  0  0  0  # atno 17394 bound_to 11000
  141.2088  133.7768  157.0037 LP  0  0  0  0  0  0  0  0  0  0  0  0  # atno 17395 bound_to 11000

$$$$
