AV-unprocessed.smi:2671|AV-procd|sdf|10348|dock10
  -GOLD-   2272014373D 1   1.00000     0.00000
 Structure written by MMmdl.
 29 30  0  0  0  0  0  0  0  0  1 V2000
  152.9911  136.2245  160.1827 O   0  0  0  0  0  0  0  0  0  0  0  0
  153.0464  137.3040  159.5983 C   0  0  0  0  0  0  0  0  0  0  0  0
  153.0919  137.4474  158.1438 C   0  0  0  0  0  0  0  0  0  0  0  0
  153.1484  138.6764  157.5752 C   0  0  0  0  0  0  0  0  0  0  0  0
  153.2014  138.8451  156.0652 C   0  0  0  0  0  0  0  0  0  0  0  0
  153.1553  140.1376  155.7428 F   0  0  0  0  0  0  0  0  0  0  0  0
  154.3372  138.3384  155.5857 F   0  0  0  0  0  0  0  0  0  0  0  0
  152.1822  138.2281  155.4652 F   0  0  0  0  0  0  0  0  0  0  0  0
  153.1694  139.8318  158.3708 N   0  0  0  0  0  0  0  0  0  0  0  0
  153.1316  139.7302  159.6630 C   0  0  0  0  0  0  0  0  0  0  0  0
  153.1449  141.0423  160.9178 S   0  0  0  0  0  0  0  0  0  0  0  0
  151.5172  141.8029  160.6534 C   0  0  0  0  0  0  0  0  0  0  0  0
  151.6335  143.2281  160.0958 C   0  0  2  0  0  0  0  0  0  0  0  0
  150.2956  143.9331  159.8687 C   0  0  0  0  0  0  0  0  0  0  0  0
  150.6609  144.9392  158.8021 C   0  0  0  0  0  0  0  0  0  0  0  0
  151.6275  144.1361  157.9376 C   0  0  0  0  0  0  0  0  0  0  0  0
  152.2570  143.2042  158.8139 O   0  0  0  0  0  0  0  0  0  0  0  0
  153.0702  138.4742  160.2766 N   0  0  0  0  0  0  0  0  0  0  0  0
  153.0421  138.4312  161.2848 H   0  0  0  0  0  0  0  0  0  0  0  0
  153.0803  136.5646  157.5213 H   0  0  0  0  0  0  0  0  0  0  0  0
  150.9629  141.8077  161.5926 H   0  0  0  0  0  0  0  0  0  0  0  0
  150.9559  141.1817  159.9546 H   0  0  0  0  0  0  0  0  0  0  0  0
  152.2582  143.8375  160.7507 H   0  0  0  0  0  0  0  0  0  0  0  0
  149.5507  143.2352  159.4834 H   0  0  0  0  0  0  0  0  0  0  0  0
  149.8974  144.3949  160.7727 H   0  0  0  0  0  0  0  0  0  0  0  0
  149.7994  145.3118  158.2473 H   0  0  0  0  0  0  0  0  0  0  0  0
  151.1745  145.7903  159.2512 H   0  0  0  0  0  0  0  0  0  0  0  0
  151.0828  143.5784  157.1748 H   0  0  0  0  0  0  0  0  0  0  0  0
  152.3594  144.7691  157.4355 H   0  0  0  0  0  0  0  0  0  0  0  0
  1  2  2  0  0  0  0
  2 18  1  0  0  0  0
  2  3  1  0  0  0  0
  3 20  1  0  0  0  0
  3  4  2  0  0  0  0
  4  5  1  0  0  0  0
  4  9  1  0  0  0  0
  5  6  1  0  0  0  0
  5  7  1  0  0  0  0
  5  8  1  0  0  0  0
  9 10  2  0  0  0  0
 10 11  1  0  0  0  0
 10 18  1  0  0  0  0
 11 12  1  0  0  0  0
 12 13  1  0  0  0  0
 12 21  1  0  0  0  0
 12 22  1  0  0  0  0
 13 17  1  0  0  0  0
 13 14  1  0  0  0  0
 13 23  1  0  0  0  0
 14 15  1  0  0  0  0
 14 24  1  0  0  0  0
 14 25  1  0  0  0  0
 15 16  1  0  0  0  0
 15 26  1  0  0  0  0
 15 27  1  0  0  0  0
 16 17  1  0  0  0  0
 16 28  1  0  0  0  0
 16 29  1  0  0  0  0
 18 19  1  0  0  0  0
M  END
> <s_m_source_file>
AV-unprocessed.smi

> <i_m_source_file_index>
2671

> <i_lp_mmshare_version>
43012

> <i_f3d_flags>
0

> <s_epik_input>
W09IXWMxW2NIXWMoQyhGKShGKUYpbmMobjEpU1tDSDJdW0NAQEhdMltDSDJdW0NIMl1bQ0gyXU8y

> <s_epik_cmdline>
J2VwaWtfcHl0aG9uJywgJy1waCcsICc3LjAnLCAnLXRuJywgJzgnLCAnLW1hJywgJzIwMCcsICctbWV0YWxfYmluZGluZycsICctaW1hZScsICc8aW5maWxlLm1hZT4nLCAnLW9tYWUnLCAnPG91dGZpbGUubWFlPic=

> <r_lp_tautomer_probability>
0.660323

> <r_epik_Ionization_Penalty>
0.14469

> <r_epik_Ionization_Penalty_Charging>
0.14469

> <r_epik_Ionization_Penalty_Neutral>
3.1007e-10

> <r_epik_State_Penalty>
0.804349

> <r_epik_Charging_Adjusted_Penalty>
0.949039

> <i_epik_Tot_Q>
0

> <i_epik_Tot_abs_Q>
0

> <r_epik_Metal_State_Penalty>
1.52783

> <b_epik_Metal_Only>
0

> <s_lp_Force_Field>
OPLS_2005

> <r_lp_Energy>
21.2239

> <b_lp_Chiralities_Consistent>
1

> <s_lp_Variant>
AV-unprocessed.smi:2671-3

> <Gold.Version>
5.8.1

> <Gold.Id.Protein>
6NUR|6NUR_protein|mol2

> <Gold.PLP.Fitness>
43.0840

> <Gold.PLP.PLP>
-38.5626

> <Gold.PLP.part.hbond>
-2.0000

> <Gold.PLP.part.metal>
0.0000

> <Gold.PLP.part.buried>
-5.1467

> <Gold.PLP.part.nonpolar>
-31.3762

> <Gold.PLP.part.repulsive>
0.0436

> <Gold.PLP.ligand.clash>
0.0000

> <Gold.PLP.ligand.torsion>
0.5173

> <Gold.PLP.Chemscore.Hbond>
1.8500

> <Gold.PLP.Chemscore.CHOScore>
0.0000

> <Gold.PLP.Chemscore.Metal>
0.0000

> <Gold.Chemscore.Hbonds>
donor molecule, donor type, donor heavy atom, donor atom, acceptor molecule, acceptor atom, score
      P1  H  6896  6908       L1     1  0.98

> <Gold.PLP.Chemscore.Internal.Correction>
0.0059

> <Gold.Rescore>
     Score         DG    S(hbond)    S(metal)    S(lipo)     H(rot)  DE(clash)    DE(int)     intcor
     14.64     -15.22       1.21        0.00      85.81       1.69       0.01       0.56       ----

> <Gold.Chemscore.Fitness>
14.6399

> <Gold.Chemscore.DG>
-15.2156

> <Gold.Chemscore.ZeroCoef>
-5.4800

> <Gold.Chemscore.Hbond>
1.2061

> <Gold.Chemscore.Metal>
0.0000

> <Gold.Chemscore.Lipo>
85.8092

> <Gold.Chemscore.Internal_Hbond>
0.0000

> <Gold.Chemscore.DEClash>
0.0126

> <Gold.Chemscore.DEInternal>
0.5631

> <Gold.Chemscore.Rot>
1.6924

> <Gold.Chemscore.Internal.Correction>
   9.000000E+99

> <Gold.Chemscore.Hbonds>
donor molecule, donor type, donor heavy atom, donor atom, acceptor molecule, acceptor atom, score
      P1  H  6896  6908       L1     1  0.91

> <Gold.Chemscore.Hbond.Weighted>
-4.0283

> <Gold.Chemscore.Metal.Weighted>
-0.0000

> <Gold.Chemscore.Lipo.Weighted>
-10.0397

> <Gold.Chemscore.Internal_Hbond.Weighted>
0.0000

> <Gold.Chemscore.DEClash.Weighted>
0.0126

> <Gold.Chemscore.DEInternal.Weighted>
0.5631

> <Gold.Chemscore.Rot.Weighted>
4.3324

> <Gold.Chemscore.Internal.Correction.Weighted>
   9.000000E+99

> <Gold.Protein.RotatedTorsions>
[ 6907 6896 6895 6894 ] final  -93.51 input  -60.11 | X-H torsion
[ 7974 7965 7964 7962 ] final  102.19 input  175.53 | X-H torsion
[ 8008 7997 7996 7995 ] final  147.66 input   59.86 | X-H torsion
[ 10167 10162 10161 10158 ] final  144.31 input  -65.29 | X-H torsion
[ 10718 10713 10712 10709 ] final -109.01 input   66.30 | X-H torsion
[ 10763 10752 10751 10750 ] final   98.23 input  -60.55 | X-H torsion
[ 11005 11000 10999 10996 ] final -163.02 input  -57.11 | X-H torsion

> <Gold.Protein.ActiveResidues>
 VAL166  LYS551  ARG553  GLY616  TRP617  ASP618  TYR619  PRO620  LYS621  CYS622 
 ASP623  PHE694  ASN695  SER759  ASP760  ASP761  ALA762  ILE779  LEU786  VAL792 
 PHE793  MET794  SER795  GLU796  ALA797  LYS798  CYS799  TRP800  GLU811  SER814 

> <Gold.Protein.RotatedAtoms>
  150.6924  134.1957  159.4302 H   0  0  0  0  0  0  0  0  0  0  0  0  # atno 6907 bound_to 6896
  151.9925  134.9969  160.0571 H   0  0  0  0  0  0  0  0  0  0  0  0  # atno 6908 bound_to 6896
  152.1654  133.4574  159.4919 H   0  0  0  0  0  0  0  0  0  0  0  0  # atno 6909 bound_to 6896
  145.3623  139.2415  143.3500 H   0  0  0  0  0  0  0  0  0  0  0  0  # atno 7974 bound_to 7965
  156.2817  140.2149  156.5574 H   0  0  0  0  0  0  0  0  0  0  0  0  # atno 8008 bound_to 7997
  154.7241  140.0501  157.0689 H   0  0  0  0  0  0  0  0  0  0  0  0  # atno 8009 bound_to 7997
  155.0439  140.3149  155.4718 H   0  0  0  0  0  0  0  0  0  0  0  0  # atno 8010 bound_to 7997
  139.4950  144.5981  151.6540 H   0  0  0  0  0  0  0  0  0  0  0  0  # atno 10167 bound_to 10162
  156.0514  130.5742  150.8040 H   0  0  0  0  0  0  0  0  0  0  0  0  # atno 10718 bound_to 10713
  153.2865  135.4155  155.1127 H   0  0  0  0  0  0  0  0  0  0  0  0  # atno 10763 bound_to 10752
  154.8506  135.3508  154.6040 H   0  0  0  0  0  0  0  0  0  0  0  0  # atno 10764 bound_to 10752
  153.6462  135.7054  153.5282 H   0  0  0  0  0  0  0  0  0  0  0  0  # atno 10765 bound_to 10752
  140.6027  134.4930  157.5207 H   0  0  0  0  0  0  0  0  0  0  0  0  # atno 11005 bound_to 11000
  146.2922  140.4260  142.8735 LP  0  0  0  0  0  0  0  0  0  0  0  0  # atno 17320 bound_to 7965
  144.8637  140.7176  143.6091 LP  0  0  0  0  0  0  0  0  0  0  0  0  # atno 17321 bound_to 7965
  140.5623  144.0247  150.6176 LP  0  0  0  0  0  0  0  0  0  0  0  0  # atno 17342 bound_to 10162
  140.3337  143.3062  152.0660 LP  0  0  0  0  0  0  0  0  0  0  0  0  # atno 17343 bound_to 10162
  157.5445  131.0942  150.9782 LP  0  0  0  0  0  0  0  0  0  0  0  0  # atno 17370 bound_to 10713
  157.0057  130.5617  149.5316 LP  0  0  0  0  0  0  0  0  0  0  0  0  # atno 17371 bound_to 10713
  139.9225  134.8120  156.1167 LP  0  0  0  0  0  0  0  0  0  0  0  0  # atno 17394 bound_to 11000
  141.0861  133.6733  156.2439 LP  0  0  0  0  0  0  0  0  0  0  0  0  # atno 17395 bound_to 11000

$$$$
