AV-unprocessed.smi:618|AV-procd|sdf|3083|dock5
  -GOLD-   22720 0 03D 1   1.00000     0.00000
 Structure written by MMmdl.
 40 42  0  0  0  0  0  0  0  0  1 V2000
  151.0245  136.5232  158.4220 O   0  0  0  0  0  0  0  0  0  0  0  0
  150.6094  137.1236  157.4313 C   0  0  0  0  0  0  0  0  0  0  0  0
  150.4718  138.4556  157.3736 N   0  0  0  0  0  0  0  0  0  0  0  0
  150.8198  139.3888  158.4400 C   0  0  0  0  0  0  0  0  0  0  0  0
  151.9970  140.2981  158.0286 C   0  0  1  0  0  0  0  0  0  0  0  0
  151.8329  141.7546  158.5254 C   0  0  0  0  0  0  0  0  0  0  0  0
  152.1121  141.8488  159.9458 N   0  0  0  0  0  0  0  0  0  0  0  0
  152.0879  143.1713  160.5264 C   0  0  0  0  0  0  0  0  0  0  0  0
  152.8075  143.0078  161.8763 C   0  0  0  0  0  0  0  0  0  0  0  0
  153.6313  141.7110  161.7185 C   0  0  0  0  0  0  0  0  0  0  0  0
  153.4298  141.3583  160.2436 C   0  0  1  0  0  0  0  0  0  0  0  0
  153.5600  139.8826  159.8479 C   0  0  0  0  0  0  0  0  0  0  0  0
  153.2601  139.7599  158.4534 O   0  0  0  0  0  0  0  0  0  0  0  0
  150.2562  136.5507  156.2682 N   0  0  0  0  0  0  0  0  0  0  0  0
  150.2712  135.1728  155.9210 C   0  0  0  0  0  0  0  0  0  0  0  0
  150.8216  134.1517  156.7333 C   0  0  0  0  0  0  0  0  0  0  0  0
  150.7597  132.8187  156.2836 C   0  0  0  0  0  0  0  0  0  0  0  0
  150.1440  132.5543  155.0448 C   0  0  0  0  0  0  0  0  0  0  0  0
  149.6029  133.5157  154.2671 N   0  0  0  0  0  0  0  0  0  0  0  0
  149.6662  134.7912  154.7047 C   0  0  0  0  0  0  0  0  0  0  0  0
  150.1234  138.8590  156.5165 H   0  0  0  0  0  0  0  0  0  0  0  0
  149.9393  140.0023  158.6326 H   0  0  0  0  0  0  0  0  0  0  0  0
  151.0269  138.8647  159.3742 H   0  0  0  0  0  0  0  0  0  0  0  0
  152.0206  140.3250  156.9386 H   0  0  0  0  0  0  0  0  0  0  0  0
  152.5207  142.3991  157.9758 H   0  0  0  0  0  0  0  0  0  0  0  0
  150.8276  142.1200  158.3138 H   0  0  0  0  0  0  0  0  0  0  0  0
  152.6392  143.8701  159.8951 H   0  0  0  0  0  0  0  0  0  0  0  0
  151.0691  143.5446  160.6354 H   0  0  0  0  0  0  0  0  0  0  0  0
  153.4391  143.8700  162.0922 H   0  0  0  0  0  0  0  0  0  0  0  0
  152.0902  142.9044  162.6913 H   0  0  0  0  0  0  0  0  0  0  0  0
  154.6838  141.8465  161.9691 H   0  0  0  0  0  0  0  0  0  0  0  0
  153.2264  140.9288  162.3619 H   0  0  0  0  0  0  0  0  0  0  0  0
  154.1582  141.9293  159.6639 H   0  0  0  0  0  0  0  0  0  0  0  0
  154.5732  139.5238  160.0280 H   0  0  0  0  0  0  0  0  0  0  0  0
  152.8901  139.2597  160.4405 H   0  0  0  0  0  0  0  0  0  0  0  0
  150.0110  137.1825  155.5199 H   0  0  0  0  0  0  0  0  0  0  0  0
  151.2737  134.3587  157.6907 H   0  0  0  0  0  0  0  0  0  0  0  0
  151.1713  132.0161  156.8776 H   0  0  0  0  0  0  0  0  0  0  0  0
  150.0790  131.5431  154.6715 H   0  0  0  0  0  0  0  0  0  0  0  0
  149.2214  135.5335  154.0575 H   0  0  0  0  0  0  0  0  0  0  0  0
  1  2  2  0  0  0  0
  2  3  1  0  0  0  0
  2 14  1  0  0  0  0
  3  4  1  0  0  0  0
  3 21  1  0  0  0  0
  4  5  1  0  0  0  0
  4 22  1  0  0  0  0
  4 23  1  0  0  0  0
  5 13  1  0  0  0  0
  5  6  1  0  0  0  0
  5 24  1  0  0  0  0
  6  7  1  0  0  0  0
  6 25  1  0  0  0  0
  6 26  1  0  0  0  0
  7 11  1  0  0  0  0
  7  8  1  0  0  0  0
  8  9  1  0  0  0  0
  8 27  1  0  0  0  0
  8 28  1  0  0  0  0
  9 10  1  0  0  0  0
  9 29  1  0  0  0  0
  9 30  1  0  0  0  0
 10 11  1  0  0  0  0
 10 31  1  0  0  0  0
 10 32  1  0  0  0  0
 11 12  1  0  0  0  0
 11 33  1  0  0  0  0
 12 13  1  0  0  0  0
 12 34  1  0  0  0  0
 12 35  1  0  0  0  0
 14 15  1  0  0  0  0
 14 36  1  0  0  0  0
 15 20  1  0  0  0  0
 15 16  2  0  0  0  0
 16 17  1  0  0  0  0
 16 37  1  0  0  0  0
 17 18  2  0  0  0  0
 17 38  1  0  0  0  0
 18 19  1  0  0  0  0
 18 39  1  0  0  0  0
 19 20  2  0  0  0  0
 20 40  1  0  0  0  0
M  END
> <s_m_source_file>
AV-unprocessed.smi

> <i_m_source_file_index>
618

> <i_lp_mmshare_version>
43012

> <i_f3d_flags>
0

> <s_epik_input>
W2NIXTFuW2NIXVtjSF1bY0hdYzFbTkhdQyg9TylbTkhdW0NIMl1bQ0BIXShbQ0gyXTIpT1tDSDJdW0NAQEhdKE4yMylbQ0gyXVtDSDJdW0NIMl0z

> <s_epik_cmdline>
J2VwaWtfcHl0aG9uJywgJy1waCcsICc3LjAnLCAnLXRuJywgJzgnLCAnLW1hJywgJzIwMCcsICctbWV0YWxfYmluZGluZycsICctaW1hZScsICc8aW5maWxlLm1hZT4nLCAnLW9tYWUnLCAnPG91dGZpbGUubWFlPic=

> <r_epik_Ionization_Penalty>
1.07277

> <r_epik_Ionization_Penalty_Charging>
0

> <r_epik_Ionization_Penalty_Neutral>
1.07277

> <r_epik_State_Penalty>
1.13623

> <r_epik_Charging_Adjusted_Penalty>
1.13623

> <i_epik_Tot_Q>
0

> <i_epik_Tot_abs_Q>
0

> <r_epik_Metal_State_Penalty>
1.13277

> <b_epik_Metal_Only>
0

> <s_lp_Force_Field>
OPLS_2005

> <r_lp_Energy>
52.4756

> <b_lp_Chiralities_Consistent>
1

> <s_lp_Variant>
AV-unprocessed.smi:618-10

> <Gold.Version>
5.8.1

> <Gold.Id.Protein>
6NUR|6NUR_protein|mol2

> <Gold.PLP.Fitness>
41.0727

> <Gold.PLP.PLP>
-33.7614

> <Gold.PLP.part.hbond>
-2.0000

> <Gold.PLP.part.metal>
0.0000

> <Gold.PLP.part.buried>
-4.8026

> <Gold.PLP.part.nonpolar>
-27.3792

> <Gold.PLP.part.repulsive>
0.1993

> <Gold.PLP.ligand.clash>
0.0000

> <Gold.PLP.ligand.torsion>
0.5245

> <Gold.PLP.Chemscore.Hbond>
1.7840

> <Gold.PLP.Chemscore.CHOScore>
1.0000

> <Gold.PLP.Chemscore.Metal>
0.0000

> <Gold.Chemscore.Hbonds>
donor molecule, donor type, donor heavy atom, donor atom, acceptor molecule, acceptor atom, score
      P1  H  6896  6908       L1     1  0.77
      P1  H  7997  8010       L1    13  1.00
      L1  C    20    40       P1  7948  1.00

> <Gold.PLP.Chemscore.Internal.Correction>
0.0083

> <Gold.Rescore>
     Score         DG    S(hbond)    S(metal)    S(lipo)     H(rot)  DE(clash)    DE(int)     intcor
     16.88     -18.90       1.72        0.00      92.95       1.25       0.40       1.62       ----

> <Gold.Chemscore.Fitness>
16.8820

> <Gold.Chemscore.DG>
-18.8999

> <Gold.Chemscore.ZeroCoef>
-5.4800

> <Gold.Chemscore.Hbond>
1.7171

> <Gold.Chemscore.Metal>
0.0000

> <Gold.Chemscore.Lipo>
92.9468

> <Gold.Chemscore.Internal_Hbond>
0.0000

> <Gold.Chemscore.DEClash>
0.3991

> <Gold.Chemscore.DEInternal>
1.6189

> <Gold.Chemscore.Rot>
1.2461

> <Gold.Chemscore.Internal.Correction>
   9.000000E+99

> <Gold.Chemscore.Hbonds>
donor molecule, donor type, donor heavy atom, donor atom, acceptor molecule, acceptor atom, score
      P1  H  6896  6908       L1     1  0.72
      P1  H  7997  8010       L1    13  0.82

> <Gold.Chemscore.Hbond.Weighted>
-5.7352

> <Gold.Chemscore.Metal.Weighted>
-0.0000

> <Gold.Chemscore.Lipo.Weighted>
-10.8748

> <Gold.Chemscore.Internal_Hbond.Weighted>
0.0000

> <Gold.Chemscore.DEClash.Weighted>
0.3991

> <Gold.Chemscore.DEInternal.Weighted>
1.6189

> <Gold.Chemscore.Rot.Weighted>
3.1901

> <Gold.Chemscore.Internal.Correction.Weighted>
   9.000000E+99

> <Gold.Protein.RotatedTorsions>
[ 6907 6896 6895 6894 ] final -150.47 input  -60.11 | X-H torsion
[ 7974 7965 7964 7962 ] final  -33.85 input  175.53 | X-H torsion
[ 8008 7997 7996 7995 ] final   24.17 input   59.86 | X-H torsion
[ 10167 10162 10161 10158 ] final  -28.46 input  -65.29 | X-H torsion
[ 10718 10713 10712 10709 ] final  -58.51 input   66.30 | X-H torsion
[ 10763 10752 10751 10750 ] final  118.51 input  -60.55 | X-H torsion
[ 11005 11000 10999 10996 ] final -132.49 input  -57.11 | X-H torsion

> <Gold.Protein.ActiveResidues>
 VAL166  LYS551  ARG553  GLY616  TRP617  ASP618  TYR619  PRO620  LYS621  CYS622 
 ASP623  PHE694  ASN695  SER759  ASP760  ASP761  ALA762  ILE779  LEU786  VAL792 
 PHE793  MET794  SER795  GLU796  ALA797  LYS798  CYS799  TRP800  GLU811  SER814 

> <Gold.Protein.RotatedAtoms>
  151.1990  133.4622  159.2595 H   0  0  0  0  0  0  0  0  0  0  0  0  # atno 6907 bound_to 6896
  151.1088  135.0015  159.8494 H   0  0  0  0  0  0  0  0  0  0  0  0  # atno 6908 bound_to 6896
  152.5449  134.1911  159.8727 H   0  0  0  0  0  0  0  0  0  0  0  0  # atno 6909 bound_to 6896
  146.0877  140.5967  142.8879 H   0  0  0  0  0  0  0  0  0  0  0  0  # atno 7974 bound_to 7965
  154.9922  140.3115  155.4901 H   0  0  0  0  0  0  0  0  0  0  0  0  # atno 8008 bound_to 7997
  156.2938  140.2247  156.4968 H   0  0  0  0  0  0  0  0  0  0  0  0  # atno 8009 bound_to 7997
  154.7693  140.0453  157.1026 H   0  0  0  0  0  0  0  0  0  0  0  0  # atno 8010 bound_to 7997
  140.7269  143.4008  151.1268 H   0  0  0  0  0  0  0  0  0  0  0  0  # atno 10167 bound_to 10162
  156.1130  130.4173  150.0587 H   0  0  0  0  0  0  0  0  0  0  0  0  # atno 10718 bound_to 10713
  153.5688  135.3506  155.2829 H   0  0  0  0  0  0  0  0  0  0  0  0  # atno 10763 bound_to 10752
  154.8685  135.4154  154.2748 H   0  0  0  0  0  0  0  0  0  0  0  0  # atno 10764 bound_to 10752
  153.3509  135.7055  153.6859 H   0  0  0  0  0  0  0  0  0  0  0  0  # atno 10765 bound_to 10752
  140.9165  134.1500  157.4348 H   0  0  0  0  0  0  0  0  0  0  0  0  # atno 11005 bound_to 11000
  144.7337  140.4748  143.6919 LP  0  0  0  0  0  0  0  0  0  0  0  0  # atno 17320 bound_to 7965
  145.6099  139.1512  143.3082 LP  0  0  0  0  0  0  0  0  0  0  0  0  # atno 17321 bound_to 7965
  139.7628  143.8610  152.3104 LP  0  0  0  0  0  0  0  0  0  0  0  0  # atno 17342 bound_to 10162
  139.8502  144.7168  150.9224 LP  0  0  0  0  0  0  0  0  0  0  0  0  # atno 17343 bound_to 10162
  156.8546  130.9470  151.3623 LP  0  0  0  0  0  0  0  0  0  0  0  0  # atno 17370 bound_to 10713
  157.6312  130.8730  149.9277 LP  0  0  0  0  0  0  0  0  0  0  0  0  # atno 17371 bound_to 10713
  139.8767  134.9955  156.5749 LP  0  0  0  0  0  0  0  0  0  0  0  0  # atno 17394 bound_to 11000
  140.8043  133.8480  155.8754 LP  0  0  0  0  0  0  0  0  0  0  0  0  # atno 17395 bound_to 11000

$$$$
