AV-unprocessed.smi:240|AV-procd|sdf|1829|dock10
  -GOLD-   2262020433D 1   1.00000     0.00000
 Structure written by MMmdl.
 55 59  0  0  0  0  0  0  0  0  1 V2000
  149.9607  140.0610  154.1235 O   0  0  0  0  0  0  0  0  0  0  0  0
  148.9683  140.2409  155.1186 C   0  0  1  0  0  0  0  0  0  0  0  0
  147.5928  140.0750  154.4705 C   0  0  0  0  0  0  0  0  0  0  0  0
  147.3196  138.5680  154.4754 C   0  0  0  0  0  0  0  0  0  0  0  0
  148.3301  137.9508  155.4530 C   0  0  0  0  0  0  0  0  0  0  0  0
  149.0236  139.1220  156.1801 C   0  0  1  0  0  0  0  0  0  0  0  0
  150.4348  138.8440  156.7997 C   0  0  1  0  0  0  0  0  0  0  0  0
  151.2033  140.1779  157.0009 C   0  0  0  0  0  0  0  0  0  0  0  0
  152.4729  139.9615  157.6030 O   0  0  0  0  0  0  0  0  0  0  0  0
  152.3482  139.3938  158.8968 C   0  0  0  0  0  0  0  0  0  0  0  0
  151.6817  138.0225  158.7580 C   0  0  0  0  0  0  0  0  0  0  0  0
  150.3851  138.1469  158.0978 N   0  0  0  0  0  0  0  0  0  0  0  0
  149.7448  136.9587  158.1490 C   0  0  0  0  0  0  0  0  0  0  0  0
  149.7597  136.2030  157.0236 N   0  0  0  0  0  0  0  0  0  0  0  0
  149.1379  135.0201  157.0065 C   0  0  0  0  0  0  0  0  0  0  0  0
  148.4498  134.4239  157.9827 N   0  0  0  0  0  0  0  0  0  0  0  0
  148.4210  135.1903  159.1108 C   0  0  0  0  0  0  0  0  0  0  0  0
  149.0359  136.4623  159.2799 C   0  0  0  0  0  0  0  0  0  0  0  0
  148.7930  136.9404  160.5617 N   0  0  0  0  0  0  0  0  0  0  0  0
  148.0774  136.0024  161.1198 C   0  0  0  0  0  0  0  0  0  0  0  0
  147.7995  134.9188  160.3171 N   0  0  0  0  0  0  0  0  0  0  0  0
  147.0210  133.7437  160.6778 C   0  0  0  0  0  0  0  0  0  0  0  0
  146.2526  133.9034  162.0103 C   0  0  1  0  0  0  0  0  0  0  0  0
  147.1864  133.9393  163.0761 O   0  0  0  0  0  0  0  0  0  0  0  0
  145.3829  135.1550  162.0861 C   0  0  0  0  0  0  0  0  0  0  0  0
  144.2318  134.7143  162.9788 C   0  0  0  0  0  0  0  0  0  0  0  0
  143.9952  133.3862  162.5441 O   0  0  0  0  0  0  0  0  0  0  0  0
  145.2493  132.7643  162.2810 C   0  0  0  0  0  0  0  0  0  0  0  0
  149.5335  139.9476  153.2883 H   0  0  0  0  0  0  0  0  0  0  0  0
  149.0773  141.2342  155.5553 H   0  0  0  0  0  0  0  0  0  0  0  0
  146.8446  140.5740  155.0876 H   0  0  0  0  0  0  0  0  0  0  0  0
  147.5319  140.5128  153.4733 H   0  0  0  0  0  0  0  0  0  0  0  0
  146.2927  138.3635  154.7798 H   0  0  0  0  0  0  0  0  0  0  0  0
  147.4554  138.1457  153.4792 H   0  0  0  0  0  0  0  0  0  0  0  0
  147.8294  137.2698  156.1399 H   0  0  0  0  0  0  0  0  0  0  0  0
  149.0635  137.3723  154.8904 H   0  0  0  0  0  0  0  0  0  0  0  0
  148.3650  139.4333  156.9929 H   0  0  0  0  0  0  0  0  0  0  0  0
  151.0107  138.2320  156.1050 H   0  0  0  0  0  0  0  0  0  0  0  0
  151.3896  140.6716  156.0483 H   0  0  0  0  0  0  0  0  0  0  0  0
  150.6217  140.8741  157.6077 H   0  0  0  0  0  0  0  0  0  0  0  0
  153.3390  139.2892  159.3389 H   0  0  0  0  0  0  0  0  0  0  0  0
  151.7706  140.0500  159.5501 H   0  0  0  0  0  0  0  0  0  0  0  0
  152.3289  137.3590  158.1827 H   0  0  0  0  0  0  0  0  0  0  0  0
  151.5588  137.5748  159.7456 H   0  0  0  0  0  0  0  0  0  0  0  0
  149.1999  134.4735  156.0770 H   0  0  0  0  0  0  0  0  0  0  0  0
  147.7233  136.0786  162.1377 H   0  0  0  0  0  0  0  0  0  0  0  0
  146.3222  133.5365  159.8663 H   0  0  0  0  0  0  0  0  0  0  0  0
  147.6935  132.8864  160.7269 H   0  0  0  0  0  0  0  0  0  0  0  0
  146.7929  133.5302  163.8317 H   0  0  0  0  0  0  0  0  0  0  0  0
  145.9072  136.0362  162.4588 H   0  0  0  0  0  0  0  0  0  0  0  0
  144.9846  135.3974  161.1004 H   0  0  0  0  0  0  0  0  0  0  0  0
  144.5261  134.7131  164.0295 H   0  0  0  0  0  0  0  0  0  0  0  0
  143.3458  135.3394  162.8664 H   0  0  0  0  0  0  0  0  0  0  0  0
  145.1398  132.0960  161.4266 H   0  0  0  0  0  0  0  0  0  0  0  0
  145.5411  132.1528  163.1365 H   0  0  0  0  0  0  0  0  0  0  0  0
  1  2  1  0  0  0  0
  1 29  1  0  0  0  0
  2  6  1  0  0  0  0
  2  3  1  0  0  0  0
  2 30  1  0  0  0  0
  3  4  1  0  0  0  0
  3 31  1  0  0  0  0
  3 32  1  0  0  0  0
  4  5  1  0  0  0  0
  4 33  1  0  0  0  0
  4 34  1  0  0  0  0
  5  6  1  0  0  0  0
  5 35  1  0  0  0  0
  5 36  1  0  0  0  0
  6  7  1  0  0  0  0
  6 37  1  0  0  0  0
  7 12  1  0  0  0  0
  7  8  1  0  0  0  0
  7 38  1  0  0  0  0
  8  9  1  0  0  0  0
  8 39  1  0  0  0  0
  8 40  1  0  0  0  0
  9 10  1  0  0  0  0
 10 11  1  0  0  0  0
 10 41  1  0  0  0  0
 10 42  1  0  0  0  0
 11 12  1  0  0  0  0
 11 43  1  0  0  0  0
 11 44  1  0  0  0  0
 12 13  1  0  0  0  0
 13 18  1  0  0  0  0
 13 14  2  0  0  0  0
 14 15  1  0  0  0  0
 15 16  2  0  0  0  0
 15 45  1  0  0  0  0
 16 17  1  0  0  0  0
 17 21  1  0  0  0  0
 17 18  2  0  0  0  0
 18 19  1  0  0  0  0
 19 20  2  0  0  0  0
 20 21  1  0  0  0  0
 20 46  1  0  0  0  0
 21 22  1  0  0  0  0
 22 23  1  0  0  0  0
 22 47  1  0  0  0  0
 22 48  1  0  0  0  0
 23 28  1  0  0  0  0
 23 24  1  0  0  0  0
 23 25  1  0  0  0  0
 24 49  1  0  0  0  0
 25 26  1  0  0  0  0
 25 50  1  0  0  0  0
 25 51  1  0  0  0  0
 26 27  1  0  0  0  0
 26 52  1  0  0  0  0
 26 53  1  0  0  0  0
 27 28  1  0  0  0  0
 28 54  1  0  0  0  0
 28 55  1  0  0  0  0
M  END
> <s_m_source_file>
AV-unprocessed.smi

> <i_m_source_file_index>
240

> <i_lp_mmshare_version>
43012

> <i_f3d_flags>
0

> <s_epik_input>
W09IXVtDQEBIXTFbQ0gyXVtDSDJdW0NIMl1bQ0BIXTFbQ0BASF0yW0NIMl1PW0NIMl1bQ0gyXU4yYyhuW2NIXW4zKWMoYzM0KW5bY0hdbjRbQ0gyXVtDQEBdNShbT0hdKVtDSDJdW0NIMl1PW0NIMl01

> <s_epik_cmdline>
J2VwaWtfcHl0aG9uJywgJy1waCcsICc3LjAnLCAnLXRuJywgJzgnLCAnLW1hJywgJzIwMCcsICctbWV0YWxfYmluZGluZycsICctaW1hZScsICc8aW5maWxlLm1hZT4nLCAnLW9tYWUnLCAnPG91dGZpbGUubWFlPic=

> <r_lp_tautomer_probability>
1

> <r_epik_Ionization_Penalty>
0.000130618

> <r_epik_Ionization_Penalty_Charging>
0

> <r_epik_Ionization_Penalty_Neutral>
0.000130618

> <r_epik_State_Penalty>
-0

> <r_epik_Charging_Adjusted_Penalty>
0

> <i_epik_Tot_Q>
0

> <i_epik_Tot_abs_Q>
0

> <r_epik_Metal_State_Penalty>
-0

> <b_epik_Metal_Only>
0

> <s_lp_Force_Field>
OPLS_2005

> <r_lp_Energy>
62.2831

> <b_lp_Chiralities_Consistent>
1

> <s_lp_Variant>
AV-unprocessed.smi:240-6

> <Gold.Version>
5.8.1

> <Gold.Id.Protein>
6NUR|6NUR_protein|mol2

> <Gold.PLP.Fitness>
44.2396

> <Gold.PLP.PLP>
-36.2694

> <Gold.PLP.part.hbond>
-6.0000

> <Gold.PLP.part.metal>
0.0000

> <Gold.PLP.part.buried>
-6.4718

> <Gold.PLP.part.nonpolar>
-24.7848

> <Gold.PLP.part.repulsive>
0.0871

> <Gold.PLP.ligand.clash>
1.1704

> <Gold.PLP.ligand.torsion>
1.2148

> <Gold.PLP.Chemscore.Hbond>
3.7699

> <Gold.PLP.Chemscore.CHOScore>
0.0000

> <Gold.PLP.Chemscore.Metal>
0.0000

> <Gold.Chemscore.Hbonds>
donor molecule, donor type, donor heavy atom, donor atom, acceptor molecule, acceptor atom, score
      L1  H     1    29       P1  7957  0.73
      P1  H  6931  6943       L1    19  0.80
      P1  H  7989  7998       L1     1  0.84
      P1  H  7997  8010       L1     9  0.76

> <Gold.PLP.Chemscore.Internal.Correction>
0.2606

> <Gold.Rescore>
     Score         DG    S(hbond)    S(metal)    S(lipo)     H(rot)  DE(clash)    DE(int)     intcor
     10.39     -15.06       2.64        0.00      72.20       3.00       0.01       4.65       ----

> <Gold.Chemscore.Fitness>
10.3886

> <Gold.Chemscore.DG>
-15.0577

> <Gold.Chemscore.ZeroCoef>
-5.4800

> <Gold.Chemscore.Hbond>
2.6408

> <Gold.Chemscore.Metal>
0.0000

> <Gold.Chemscore.Lipo>
72.1999

> <Gold.Chemscore.Internal_Hbond>
0.0000

> <Gold.Chemscore.DEClash>
0.0149

> <Gold.Chemscore.DEInternal>
4.6542

> <Gold.Chemscore.Rot>
3.0039

> <Gold.Chemscore.Internal.Correction>
   9.000000E+99

> <Gold.Chemscore.Hbonds>
donor molecule, donor type, donor heavy atom, donor atom, acceptor molecule, acceptor atom, score
      L1  H     1    29       P1  7957  0.70
      P1  H  6931  6943       L1    19  0.44
      P1  H  7989  7998       L1     1  0.16
      P1  H  7997  8010       L1     9  0.73

> <Gold.Chemscore.Hbond.Weighted>
-8.8202

> <Gold.Chemscore.Metal.Weighted>
-0.0000

> <Gold.Chemscore.Lipo.Weighted>
-8.4474

> <Gold.Chemscore.Internal_Hbond.Weighted>
0.0000

> <Gold.Chemscore.DEClash.Weighted>
0.0149

> <Gold.Chemscore.DEInternal.Weighted>
4.6542

> <Gold.Chemscore.Rot.Weighted>
7.6899

> <Gold.Chemscore.Internal.Correction.Weighted>
   9.000000E+99

> <Gold.Protein.RotatedTorsions>
[ 6907 6896 6895 6894 ] final  -28.17 input  -60.11 | X-H torsion
[ 7974 7965 7964 7962 ] final  135.40 input  175.53 | X-H torsion
[ 8008 7997 7996 7995 ] final   56.74 input   59.86 | X-H torsion
[ 10167 10162 10161 10158 ] final  -58.47 input  -65.29 | X-H torsion
[ 10718 10713 10712 10709 ] final   96.56 input   66.30 | X-H torsion
[ 10763 10752 10751 10750 ] final   73.70 input  -60.55 | X-H torsion
[ 11005 11000 10999 10996 ] final   11.90 input  -57.11 | X-H torsion

> <Gold.Protein.ActiveResidues>
 VAL166  LYS551  ARG553  GLY616  TRP617  ASP618  TYR619  PRO620  LYS621  CYS622 
 ASP623  PHE694  ASN695  SER759  ASP760  ASP761  ALA762  ILE779  LEU786  VAL792 
 PHE793  MET794  SER795  GLU796  ALA797  LYS798  CYS799  TRP800  GLU811  SER814 

> <Gold.Protein.RotatedAtoms>
  151.1367  135.0158  159.8606 H   0  0  0  0  0  0  0  0  0  0  0  0  # atno 6907 bound_to 6896
  152.5452  134.1546  159.8543 H   0  0  0  0  0  0  0  0  0  0  0  0  # atno 6908 bound_to 6896
  151.1618  133.4795  159.2627 H   0  0  0  0  0  0  0  0  0  0  0  0  # atno 6909 bound_to 6896
  144.9667  139.4650  143.5453 H   0  0  0  0  0  0  0  0  0  0  0  0  # atno 7974 bound_to 7965
  155.5224  140.3480  155.4409 H   0  0  0  0  0  0  0  0  0  0  0  0  # atno 8008 bound_to 7997
  156.0775  140.1378  156.9780 H   0  0  0  0  0  0  0  0  0  0  0  0  # atno 8009 bound_to 7997
  154.4561  140.0953  156.6737 H   0  0  0  0  0  0  0  0  0  0  0  0  # atno 8010 bound_to 7997
  140.6195  143.2414  151.5515 H   0  0  0  0  0  0  0  0  0  0  0  0  # atno 10167 bound_to 10162
  157.6925  131.0582  150.4510 H   0  0  0  0  0  0  0  0  0  0  0  0  # atno 10718 bound_to 10713
  153.0539  135.5053  154.7933 H   0  0  0  0  0  0  0  0  0  0  0  0  # atno 10763 bound_to 10752
  154.6774  135.2963  154.9662 H   0  0  0  0  0  0  0  0  0  0  0  0  # atno 10764 bound_to 10752
  154.0459  135.6710  153.4847 H   0  0  0  0  0  0  0  0  0  0  0  0  # atno 10765 bound_to 10752
  140.4981  134.0774  155.7787 H   0  0  0  0  0  0  0  0  0  0  0  0  # atno 11005 bound_to 11000
  146.3370  139.8852  142.8818 LP  0  0  0  0  0  0  0  0  0  0  0  0  # atno 17320 bound_to 7965
  145.2620  141.0080  143.3821 LP  0  0  0  0  0  0  0  0  0  0  0  0  # atno 17321 bound_to 7965
  139.5427  144.2605  152.1381 LP  0  0  0  0  0  0  0  0  0  0  0  0  # atno 17342 bound_to 10162
  140.1822  144.4833  150.6522 LP  0  0  0  0  0  0  0  0  0  0  0  0  # atno 17343 bound_to 10162
  156.4861  130.4085  149.6433 LP  0  0  0  0  0  0  0  0  0  0  0  0  # atno 17370 bound_to 10713
  156.3461  130.7407  151.2360 LP  0  0  0  0  0  0  0  0  0  0  0  0  # atno 17371 bound_to 10713
  141.1450  133.9071  157.2237 LP  0  0  0  0  0  0  0  0  0  0  0  0  # atno 17394 bound_to 11000
  139.9730  135.0122  156.9559 LP  0  0  0  0  0  0  0  0  0  0  0  0  # atno 17395 bound_to 11000

$$$$
