AV-unprocessed.smi:3224|AV-procd|sdf|12309|dock7
  -GOLD-   2272018153D 1   1.00000     0.00000
 Structure written by MMmdl.
 31 32  0  0  0  0  0  0  0  0  1 V2000
  149.0430  139.9502  154.2926 C   0  0  0  0  0  0  0  0  0  0  0  0
  148.1617  141.0815  154.8649 C   0  0  0  0  0  0  0  0  0  0  0  0
  148.9794  141.9890  155.6846 N   0  0  0  0  0  0  0  0  0  0  0  0
  149.9429  141.6794  156.5689 C   0  0  0  0  0  0  0  0  0  0  0  0
  150.2957  140.5292  156.8295 O   0  0  0  0  0  0  0  0  0  0  0  0
  150.4620  142.7905  157.1201 N   0  0  0  0  0  0  0  0  0  0  0  0
  151.4730  142.8893  158.1117 C   0  0  0  0  0  0  0  0  0  0  0  0
  151.9108  141.8617  158.8488 N   0  0  0  0  0  0  0  0  0  0  0  0
  152.9056  142.2489  159.7501 C   0  0  0  0  0  0  0  0  0  0  0  0
  153.2154  143.5847  159.6851 C   0  0  0  0  0  0  0  0  0  0  0  0
  152.2651  144.4141  158.4814 S   0  0  0  0  0  0  0  0  0  0  0  0
  147.4317  141.8360  153.7270 C   0  0  0  0  0  0  0  0  0  0  0  0
  146.3767  142.8165  154.2697 C   0  0  0  0  0  0  0  0  0  0  0  0
  145.4378  142.1175  155.0785 O   0  0  0  0  0  0  0  0  0  0  0  0
  146.0327  141.5103  156.2190 C   0  0  0  0  0  0  0  0  0  0  0  0
  147.0781  140.4680  155.7782 C   0  0  0  0  0  0  0  0  0  0  0  0
  148.4417  139.2157  153.7561 H   0  0  0  0  0  0  0  0  0  0  0  0
  149.5741  139.4213  155.0845 H   0  0  0  0  0  0  0  0  0  0  0  0
  149.7858  140.3254  153.5889 H   0  0  0  0  0  0  0  0  0  0  0  0
  148.7851  142.9715  155.5591 H   0  0  0  0  0  0  0  0  0  0  0  0
  150.0812  143.6692  156.8014 H   0  0  0  0  0  0  0  0  0  0  0  0
  153.3397  141.5069  160.4039 H   0  0  0  0  0  0  0  0  0  0  0  0
  153.9417  144.1284  160.2706 H   0  0  0  0  0  0  0  0  0  0  0  0
  148.1343  142.3645  153.0833 H   0  0  0  0  0  0  0  0  0  0  0  0
  146.9289  141.1140  153.0820 H   0  0  0  0  0  0  0  0  0  0  0  0
  146.8416  143.6209  154.8415 H   0  0  0  0  0  0  0  0  0  0  0  0
  145.8434  143.2853  153.4427 H   0  0  0  0  0  0  0  0  0  0  0  0
  146.4788  142.2728  156.8590 H   0  0  0  0  0  0  0  0  0  0  0  0
  145.2501  141.0280  156.8048 H   0  0  0  0  0  0  0  0  0  0  0  0
  146.5617  139.6671  155.2467 H   0  0  0  0  0  0  0  0  0  0  0  0
  147.5336  140.0044  156.6546 H   0  0  0  0  0  0  0  0  0  0  0  0
  1  2  1  0  0  0  0
  1 17  1  0  0  0  0
  1 18  1  0  0  0  0
  1 19  1  0  0  0  0
  2 16  1  0  0  0  0
  2  3  1  0  0  0  0
  2 12  1  0  0  0  0
  3  4  1  0  0  0  0
  3 20  1  0  0  0  0
  4  5  2  0  0  0  0
  4  6  1  0  0  0  0
  6  7  1  0  0  0  0
  6 21  1  0  0  0  0
  7 11  1  0  0  0  0
  7  8  2  0  0  0  0
  8  9  1  0  0  0  0
  9 10  2  0  0  0  0
  9 22  1  0  0  0  0
 10 11  1  0  0  0  0
 10 23  1  0  0  0  0
 12 13  1  0  0  0  0
 12 24  1  0  0  0  0
 12 25  1  0  0  0  0
 13 14  1  0  0  0  0
 13 26  1  0  0  0  0
 13 27  1  0  0  0  0
 14 15  1  0  0  0  0
 15 16  1  0  0  0  0
 15 28  1  0  0  0  0
 15 29  1  0  0  0  0
 16 30  1  0  0  0  0
 16 31  1  0  0  0  0
M  END
> <s_m_source_file>
AV-unprocessed.smi

> <i_m_source_file_index>
3224

> <i_lp_mmshare_version>
43012

> <i_f3d_flags>
0

> <s_epik_input>
W0NIMl0xW0NIMl1PW0NIMl1bQ0gyXUMxKFtDSDNdKVtOSF1DKD1PKVtOSF1jMm5bY0hdW2NIXXMy

> <s_epik_cmdline>
J2VwaWtfcHl0aG9uJywgJy1waCcsICc3LjAnLCAnLXRuJywgJzgnLCAnLW1hJywgJzIwMCcsICctbWV0YWxfYmluZGluZycsICctaW1hZScsICc8aW5maWxlLm1hZT4nLCAnLW9tYWUnLCAnPG91dGZpbGUubWFlPic=

> <r_lp_tautomer_probability>
1

> <r_epik_Ionization_Penalty>
0.000150899

> <r_epik_Ionization_Penalty_Charging>
0

> <r_epik_Ionization_Penalty_Neutral>
0.000150899

> <r_epik_State_Penalty>
-0

> <r_epik_Charging_Adjusted_Penalty>
0

> <i_epik_Tot_Q>
0

> <i_epik_Tot_abs_Q>
0

> <r_epik_Metal_State_Penalty>
0.0306338

> <b_epik_Metal_Only>
0

> <s_lp_Force_Field>
OPLS_2005

> <r_lp_Energy>
7.54186

> <b_lp_Chiralities_Consistent>
1

> <s_lp_Variant>
AV-unprocessed.smi:3224-1

> <Gold.Version>
5.8.1

> <Gold.Id.Protein>
6NUR|6NUR_protein|mol2

> <Gold.PLP.Fitness>
37.0511

> <Gold.PLP.PLP>
-31.7696

> <Gold.PLP.part.hbond>
-2.0000

> <Gold.PLP.part.metal>
0.0000

> <Gold.PLP.part.buried>
-5.6331

> <Gold.PLP.part.nonpolar>
-24.9808

> <Gold.PLP.part.repulsive>
0.3280

> <Gold.PLP.ligand.clash>
0.0000

> <Gold.PLP.ligand.torsion>
0.3626

> <Gold.PLP.Chemscore.Hbond>
2.0000

> <Gold.PLP.Chemscore.CHOScore>
0.0000

> <Gold.PLP.Chemscore.Metal>
0.0000

> <Gold.Chemscore.Hbonds>
donor molecule, donor type, donor heavy atom, donor atom, acceptor molecule, acceptor atom, score
      L1  H     3    20       P1  8028  1.00
      L1  H     6    21       P1  8028  1.00

> <Gold.PLP.Chemscore.Internal.Correction>
0.0067

> <Gold.Rescore>
     Score         DG    S(hbond)    S(metal)    S(lipo)     H(rot)  DE(clash)    DE(int)     intcor
     15.86     -17.15       1.95        0.00      65.97       1.00       0.00       1.29       ----

> <Gold.Chemscore.Fitness>
15.8590

> <Gold.Chemscore.DG>
-17.1489

> <Gold.Chemscore.ZeroCoef>
-5.4800

> <Gold.Chemscore.Hbond>
1.9492

> <Gold.Chemscore.Metal>
0.0000

> <Gold.Chemscore.Lipo>
65.9718

> <Gold.Chemscore.Internal_Hbond>
0.0000

> <Gold.Chemscore.DEClash>
0.0021

> <Gold.Chemscore.DEInternal>
1.2878

> <Gold.Chemscore.Rot>
1.0000

> <Gold.Chemscore.Internal.Correction>
   9.000000E+99

> <Gold.Chemscore.Hbonds>
donor molecule, donor type, donor heavy atom, donor atom, acceptor molecule, acceptor atom, score
      L1  H     3    20       P1  8028  1.00
      L1  H     6    21       P1  8028  0.96

> <Gold.Chemscore.Hbond.Weighted>
-6.5102

> <Gold.Chemscore.Metal.Weighted>
-0.0000

> <Gold.Chemscore.Lipo.Weighted>
-7.7187

> <Gold.Chemscore.Internal_Hbond.Weighted>
0.0000

> <Gold.Chemscore.DEClash.Weighted>
0.0021

> <Gold.Chemscore.DEInternal.Weighted>
1.2878

> <Gold.Chemscore.Rot.Weighted>
2.5600

> <Gold.Chemscore.Internal.Correction.Weighted>
   9.000000E+99

> <Gold.Protein.RotatedTorsions>
[ 6907 6896 6895 6894 ] final   64.12 input  -60.11 | X-H torsion
[ 7974 7965 7964 7962 ] final   41.63 input  175.53 | X-H torsion
[ 8008 7997 7996 7995 ] final  132.12 input   59.86 | X-H torsion
[ 10167 10162 10161 10158 ] final -149.17 input  -65.29 | X-H torsion
[ 10718 10713 10712 10709 ] final -159.72 input   66.30 | X-H torsion
[ 10763 10752 10751 10750 ] final  -45.87 input  -60.55 | X-H torsion
[ 11005 11000 10999 10996 ] final  172.20 input  -57.11 | X-H torsion

> <Gold.Protein.ActiveResidues>
 VAL166  LYS551  ARG553  GLY616  TRP617  ASP618  TYR619  PRO620  LYS621  CYS622 
 ASP623  PHE694  ASN695  SER759  ASP760  ASP761  ALA762  ILE779  LEU786  VAL792 
 PHE793  MET794  SER795  GLU796  ALA797  LYS798  CYS799  TRP800  GLU811  SER814 

> <Gold.Protein.RotatedAtoms>
  152.4307  134.5783  159.9940 H   0  0  0  0  0  0  0  0  0  0  0  0  # atno 6907 bound_to 6896
  151.5907  133.3361  159.3035 H   0  0  0  0  0  0  0  0  0  0  0  0  # atno 6908 bound_to 6896
  150.8200  134.7438  159.6828 H   0  0  0  0  0  0  0  0  0  0  0  0  # atno 6909 bound_to 6896
  146.0807  139.5393  142.9538 H   0  0  0  0  0  0  0  0  0  0  0  0  # atno 7974 bound_to 7965
  156.2979  140.2554  156.3037 H   0  0  0  0  0  0  0  0  0  0  0  0  # atno 8008 bound_to 7997
  154.9393  140.0396  157.2107 H   0  0  0  0  0  0  0  0  0  0  0  0  # atno 8009 bound_to 7997
  154.8142  140.2849  155.5836 H   0  0  0  0  0  0  0  0  0  0  0  0  # atno 8010 bound_to 7997
  139.7466  143.8582  152.2576 H   0  0  0  0  0  0  0  0  0  0  0  0  # atno 10167 bound_to 10162
  156.5721  130.8693  151.2840 H   0  0  0  0  0  0  0  0  0  0  0  0  # atno 10718 bound_to 10713
  154.0356  135.6651  153.4785 H   0  0  0  0  0  0  0  0  0  0  0  0  # atno 10763 bound_to 10752
  153.0522  135.5077  154.7891 H   0  0  0  0  0  0  0  0  0  0  0  0  # atno 10764 bound_to 10752
  154.6850  135.3051  154.9525 H   0  0  0  0  0  0  0  0  0  0  0  0  # atno 10765 bound_to 10752
  140.3272  134.7388  157.4108 H   0  0  0  0  0  0  0  0  0  0  0  0  # atno 11005 bound_to 11000
  145.6223  141.0320  143.1908 LP  0  0  0  0  0  0  0  0  0  0  0  0  # atno 17320 bound_to 7965
  144.7291  139.7780  143.7354 LP  0  0  0  0  0  0  0  0  0  0  0  0  # atno 17321 bound_to 7965
  139.8548  144.7147  150.9171 LP  0  0  0  0  0  0  0  0  0  0  0  0  # atno 17342 bound_to 10162
  140.7793  143.3868  151.1379 LP  0  0  0  0  0  0  0  0  0  0  0  0  # atno 17343 bound_to 10162
  157.7346  130.9748  150.2036 LP  0  0  0  0  0  0  0  0  0  0  0  0  # atno 17370 bound_to 10713
  156.2706  130.3721  149.8036 LP  0  0  0  0  0  0  0  0  0  0  0  0  # atno 17371 bound_to 10713
  140.0891  134.5625  155.8462 LP  0  0  0  0  0  0  0  0  0  0  0  0  # atno 17394 bound_to 11000
  141.2072  133.6662  156.6292 LP  0  0  0  0  0  0  0  0  0  0  0  0  # atno 17395 bound_to 11000

$$$$
