AV-unprocessed.smi:2932|AV-procd|sdf|11250|dock2
  -GOLD-   2272016143D 1   1.00000     0.00000
 Structure written by MMmdl.
 30 30  0  0  0  0  0  0  0  0  2 V2000
  154.6136  140.6477  161.0248 C   0  0  0  0  0  0  0  0  0  0  0  0
  153.5509  141.5853  160.5302 C   0  0  0  0  0  0  0  0  0  0  0  0
  153.0704  141.4511  159.3036 N   0  0  0  0  0  0  0  0  0  0  0  0
  152.1469  142.4369  159.1656 N   0  0  0  0  0  0  0  0  0  0  0  0
  151.4266  142.5541  157.9060 C   0  0  0  0  0  0  0  0  0  0  0  0
  150.8532  141.2071  157.4603 C   0  0  0  0  0  0  0  0  0  0  0  0
  149.6547  140.9669  157.6053 O   0  0  0  0  0  0  0  0  0  0  0  0
  151.7273  140.3360  156.9321 N   0  0  0  0  0  0  0  0  0  0  0  0
  151.4054  139.0004  156.4351 C   0  0  2  0  0  0  0  0  0  0  0  0
  151.7657  137.9818  157.5299 C   0  0  0  0  0  0  0  0  0  0  0  0
  152.2410  138.6834  155.1850 C   0  0  0  0  0  0  0  0  0  0  0  0
  152.9302  139.6144  154.7144 O   0  0  0  0  0  0  0  0  0  0  0  0
  152.1742  137.5241  154.7169 O   0  5  0  0  0  0  0  0  0  0  0  0
  152.0277  143.2045  160.3150 C   0  0  0  0  0  0  0  0  0  0  0  0
  151.0832  144.3558  160.4468 C   0  0  0  0  0  0  0  0  0  0  0  0
  152.9239  142.6717  161.1935 C   0  0  0  0  0  0  0  0  0  0  0  0
  153.2350  143.2145  162.8026 Cl  0  0  0  0  0  0  0  0  0  0  0  0
  150.3412  138.9257  156.2029 H   0  0  0  0  0  0  0  0  0  0  0  0
  154.7873  140.7721  162.0936 H   0  0  0  0  0  0  0  0  0  0  0  0
  155.5594  140.8243  160.5125 H   0  0  0  0  0  0  0  0  0  0  0  0
  154.3310  139.6084  160.8559 H   0  0  0  0  0  0  0  0  0  0  0  0
  150.6109  143.2706  158.0151 H   0  0  0  0  0  0  0  0  0  0  0  0
  152.1031  142.9583  157.1517 H   0  0  0  0  0  0  0  0  0  0  0  0
  152.6881  140.6296  156.8369 H   0  0  0  0  0  0  0  0  0  0  0  0
  151.5563  136.9618  157.2053 H   0  0  0  0  0  0  0  0  0  0  0  0
  151.1811  138.1613  158.4327 H   0  0  0  0  0  0  0  0  0  0  0  0
  152.8201  138.0340  157.8060 H   0  0  0  0  0  0  0  0  0  0  0  0
  151.0014  144.6795  161.4842 H   0  0  0  0  0  0  0  0  0  0  0  0
  150.0848  144.0857  160.1032 H   0  0  0  0  0  0  0  0  0  0  0  0
  151.4269  145.2066  159.8584 H   0  0  0  0  0  0  0  0  0  0  0  0
  1  2  1  0  0  0  0
  1 19  1  0  0  0  0
  1 20  1  0  0  0  0
  1 21  1  0  0  0  0
  2 16  1  0  0  0  0
  2  3  2  0  0  0  0
  3  4  1  0  0  0  0
  4  5  1  0  0  0  0
  4 14  1  0  0  0  0
  5  6  1  0  0  0  0
  5 22  1  0  0  0  0
  5 23  1  0  0  0  0
  6  7  2  0  0  0  0
  6  8  1  0  0  0  0
  8  9  1  0  0  0  0
  8 24  1  0  0  0  0
  9 18  1  0  0  0  0
  9 10  1  0  0  0  0
  9 11  1  0  0  0  0
 10 25  1  0  0  0  0
 10 26  1  0  0  0  0
 10 27  1  0  0  0  0
 11 12  2  0  0  0  0
 11 13  1  0  0  0  0
 14 15  1  0  0  0  0
 14 16  2  0  0  0  0
 15 28  1  0  0  0  0
 15 29  1  0  0  0  0
 15 30  1  0  0  0  0
 16 17  1  0  0  0  0
M  CHG  1  13  -1
M  END
> <s_m_source_file>
AV-unprocessed.smi

> <i_m_source_file_index>
2932

> <i_lp_mmshare_version>
43012

> <i_f3d_flags>
0

> <s_epik_input>
W0NIM11jMW5uKGMoW0NIM10pYzFDbClbQ0gyXUMoPU8pW05IXVtDQEhdKFtDSDNdKUMoPU8pW09IXQ==

> <s_epik_cmdline>
J2VwaWtfcHl0aG9uJywgJy1waCcsICc3LjAnLCAnLXRuJywgJzgnLCAnLW1hJywgJzIwMCcsICctbWV0YWxfYmluZGluZycsICctaW1hZScsICc8aW5maWxlLm1hZT4nLCAnLW9tYWUnLCAnPG91dGZpbGUubWFlPic=

> <r_lp_tautomer_probability>
1

> <r_epik_Ionization_Penalty>
0.000148999

> <r_epik_Ionization_Penalty_Charging>
0.000144005

> <r_epik_Ionization_Penalty_Neutral>
4.99331e-06

> <r_epik_State_Penalty>
-0

> <r_epik_Charging_Adjusted_Penalty>
0.000144005

> <i_epik_Tot_Q>
-1

> <i_epik_Tot_abs_Q>
1

> <r_epik_Metal_State_Penalty>
-0

> <b_epik_Metal_Only>
0

> <s_lp_Force_Field>
OPLS_2005

> <r_lp_Energy>
2.34993

> <b_lp_Chiralities_Consistent>
1

> <s_lp_Variant>
AV-unprocessed.smi:2932-1

> <Gold.Version>
5.8.1

> <Gold.Id.Protein>
6NUR|6NUR_protein|mol2

> <Gold.PLP.Fitness>
46.8680

> <Gold.PLP.PLP>
-36.7507

> <Gold.PLP.part.hbond>
-3.0000

> <Gold.PLP.part.metal>
0.0000

> <Gold.PLP.part.buried>
-6.7014

> <Gold.PLP.part.nonpolar>
-28.1920

> <Gold.PLP.part.repulsive>
0.2733

> <Gold.PLP.ligand.clash>
0.0000

> <Gold.PLP.ligand.torsion>
0.7063

> <Gold.PLP.Chemscore.Hbond>
3.8351

> <Gold.PLP.Chemscore.CHOScore>
0.0000

> <Gold.PLP.Chemscore.Metal>
0.0000

> <Gold.Chemscore.Hbonds>
donor molecule, donor type, donor heavy atom, donor atom, acceptor molecule, acceptor atom, score
      P1  H  7989  7998       L1    12  0.30
      P1  H  7997  8009       L1    12  2.00
      P1  H 10752 10765       L1    13  1.50

> <Gold.PLP.Chemscore.Internal.Correction>
0.0247

> <Gold.Rescore>
     Score         DG    S(hbond)    S(metal)    S(lipo)     H(rot)  DE(clash)    DE(int)     intcor
     15.21     -15.83       1.87        0.00      82.24       2.15       0.01       0.62       ----

> <Gold.Chemscore.Fitness>
15.2054

> <Gold.Chemscore.DG>
-15.8347

> <Gold.Chemscore.ZeroCoef>
-5.4800

> <Gold.Chemscore.Hbond>
1.8704

> <Gold.Chemscore.Metal>
0.0000

> <Gold.Chemscore.Lipo>
82.2407

> <Gold.Chemscore.Internal_Hbond>
0.0000

> <Gold.Chemscore.DEClash>
0.0126

> <Gold.Chemscore.DEInternal>
0.6167

> <Gold.Chemscore.Rot>
2.1542

> <Gold.Chemscore.Internal.Correction>
   9.000000E+99

> <Gold.Chemscore.Hbonds>
donor molecule, donor type, donor heavy atom, donor atom, acceptor molecule, acceptor atom, score
      P1  H  7989  7998       L1    12  0.23
      P1  H  7997  8009       L1    12  0.81
      P1  H 10752 10765       L1    13  0.69

> <Gold.Chemscore.Hbond.Weighted>
-6.2472

> <Gold.Chemscore.Metal.Weighted>
-0.0000

> <Gold.Chemscore.Lipo.Weighted>
-9.6222

> <Gold.Chemscore.Internal_Hbond.Weighted>
0.0000

> <Gold.Chemscore.DEClash.Weighted>
0.0126

> <Gold.Chemscore.DEInternal.Weighted>
0.6167

> <Gold.Chemscore.Rot.Weighted>
5.5146

> <Gold.Chemscore.Internal.Correction.Weighted>
   9.000000E+99

> <Gold.Protein.RotatedTorsions>
[ 6907 6896 6895 6894 ] final  103.67 input  -60.11 | X-H torsion
[ 7974 7965 7964 7962 ] final   99.14 input  175.53 | X-H torsion
[ 8008 7997 7996 7995 ] final -140.02 input   59.86 | X-H torsion
[ 10167 10162 10161 10158 ] final -111.27 input  -65.29 | X-H torsion
[ 10718 10713 10712 10709 ] final   17.49 input   66.30 | X-H torsion
[ 10763 10752 10751 10750 ] final  170.75 input  -60.55 | X-H torsion
[ 11005 11000 10999 10996 ] final  -40.43 input  -57.11 | X-H torsion

> <Gold.Protein.ActiveResidues>
 VAL166  LYS551  ARG553  GLY616  TRP617  ASP618  TYR619  PRO620  LYS621  CYS622 
 ASP623  PHE694  ASN695  SER759  ASP760  ASP761  ALA762  ILE779  LEU786  VAL792 
 PHE793  MET794  SER795  GLU796  ALA797  LYS798  CYS799  TRP800  GLU811  SER814 

> <Gold.Protein.RotatedAtoms>
  152.5288  133.9791  159.7797 H   0  0  0  0  0  0  0  0  0  0  0  0  # atno 6907 bound_to 6896
  151.0048  133.6013  159.2697 H   0  0  0  0  0  0  0  0  0  0  0  0  # atno 6908 bound_to 6896
  151.3109  135.0800  159.9325 H   0  0  0  0  0  0  0  0  0  0  0  0  # atno 6909 bound_to 6896
  145.4028  139.2345  143.3290 H   0  0  0  0  0  0  0  0  0  0  0  0  # atno 7974 bound_to 7965
  155.4545  140.0541  157.2997 H   0  0  0  0  0  0  0  0  0  0  0  0  # atno 8008 bound_to 7997
  154.4763  140.2062  155.9825 H   0  0  0  0  0  0  0  0  0  0  0  0  # atno 8009 bound_to 7997
  156.1137  140.3200  155.8113 H   0  0  0  0  0  0  0  0  0  0  0  0  # atno 8010 bound_to 7997
  140.1355  143.4324  152.1598 H   0  0  0  0  0  0  0  0  0  0  0  0  # atno 10167 bound_to 10162
  157.0828  130.6395  149.5830 H   0  0  0  0  0  0  0  0  0  0  0  0  # atno 10718 bound_to 10713
  154.4021  135.2755  155.2090 H   0  0  0  0  0  0  0  0  0  0  0  0  # atno 10763 bound_to 10752
  154.4112  135.6022  153.5957 H   0  0  0  0  0  0  0  0  0  0  0  0  # atno 10764 bound_to 10752
  152.9831  135.5950  154.4290 H   0  0  0  0  0  0  0  0  0  0  0  0  # atno 10765 bound_to 10752
  141.0174  133.6879  156.2320 H   0  0  0  0  0  0  0  0  0  0  0  0  # atno 11005 bound_to 11000
  146.2743  140.4728  142.8802 LP  0  0  0  0  0  0  0  0  0  0  0  0  # atno 17320 bound_to 7965
  144.8362  140.6785  143.6259 LP  0  0  0  0  0  0  0  0  0  0  0  0  # atno 17321 bound_to 7965
  139.5498  144.7328  151.4470 LP  0  0  0  0  0  0  0  0  0  0  0  0  # atno 17342 bound_to 10162
  140.6792  143.8121  150.7098 LP  0  0  0  0  0  0  0  0  0  0  0  0  # atno 17343 bound_to 10162
  155.9919  130.4975  150.7317 LP  0  0  0  0  0  0  0  0  0  0  0  0  # atno 17370 bound_to 10713
  157.4786  131.0900  151.0562 LP  0  0  0  0  0  0  0  0  0  0  0  0  # atno 17371 bound_to 10713
  140.6632  134.4946  157.5584 LP  0  0  0  0  0  0  0  0  0  0  0  0  # atno 17394 bound_to 11000
  139.9125  134.8315  156.1479 LP  0  0  0  0  0  0  0  0  0  0  0  0  # atno 17395 bound_to 11000

$$$$
