AV-unprocessed.smi:21|AV-procd|sdf|161|dock6
  -GOLD-   2262015403D 1   1.00000     0.00000
 Structure written by MMmdl.
 61 64  0  0  0  0  0  0  0  0  1 V2000
  152.9593  142.9418  162.7818 C   0  0  0  0  0  0  0  0  0  0  0  0
  152.1114  142.3282  161.8240 O   0  0  0  0  0  0  0  0  0  0  0  0
  152.7213  142.1620  160.5512 C   0  0  1  0  0  0  0  0  0  0  0  0
  151.7277  141.6307  159.5026 C   0  0  0  0  0  0  0  0  0  0  0  0
  151.8830  142.5946  158.3209 C   0  0  1  0  0  0  0  0  0  0  0  0
  150.6575  142.6215  157.3824 C   0  0  0  0  0  0  0  0  0  0  0  0
  150.4040  141.3336  156.7352 N   0  0  0  0  0  0  0  0  0  0  0  0
  151.5609  140.5142  156.3790 C   0  0  0  0  0  0  0  0  0  0  0  0
  149.3122  141.2634  155.9259 C   0  0  0  0  0  0  0  0  0  0  0  0
  148.4330  142.3020  155.8993 N   0  0  0  0  0  0  0  0  0  0  0  0
  147.3483  142.2565  155.1210 C   0  0  0  0  0  0  0  0  0  0  0  0
  146.9550  141.2862  154.2954 N   0  0  0  0  0  0  0  0  0  0  0  0
  147.8360  140.2462  154.3027 C   0  0  0  0  0  0  0  0  0  0  0  0
  149.0262  140.1514  155.0800 C   0  0  0  0  0  0  0  0  0  0  0  0
  149.6632  138.9455  154.8107 N   0  0  0  0  0  0  0  0  0  0  0  0
  148.8904  138.3566  153.9405 C   0  0  0  0  0  0  0  0  0  0  0  0
  147.7799  139.0770  153.5644 N   0  0  0  0  0  0  0  0  0  0  0  0
  146.7561  138.6650  152.6210 C   0  0  0  0  0  0  0  0  0  0  0  0
  146.2610  137.2059  152.8005 C   0  0  2  0  0  0  0  0  0  0  0  0
  145.5603  136.7424  151.5024 C   0  0  0  0  0  0  0  0  0  0  0  0
  146.2370  137.2022  150.3500 O   0  0  0  0  0  0  0  0  0  0  0  0
  145.3866  136.9773  154.0681 C   0  0  1  0  0  0  0  0  0  0  0  0
  144.0095  137.6208  154.0165 C   0  0  0  0  0  0  0  0  0  0  0  0
  143.2628  136.8680  155.1069 C   0  0  0  0  0  0  0  0  0  0  0  0
  143.7203  135.5308  154.9835 O   0  0  0  0  0  0  0  0  0  0  0  0
  145.0030  135.5171  154.3627 C   0  0  0  0  0  0  0  0  0  0  0  0
  152.1911  143.8683  158.9485 N   0  0  0  0  0  0  0  0  0  0  0  0
  152.7147  144.8705  158.0305 C   0  0  0  0  0  0  0  0  0  0  0  0
  153.1395  143.5301  159.9948 C   0  0  0  0  0  0  0  0  0  0  0  0
  153.6014  141.5212  160.6285 H   0  0  0  0  0  0  0  0  0  0  0  0
  152.7589  142.2800  157.7523 H   0  0  0  0  0  0  0  0  0  0  0  0
  152.4262  143.0442  163.7267 H   0  0  0  0  0  0  0  0  0  0  0  0
  153.2617  143.9385  162.4586 H   0  0  0  0  0  0  0  0  0  0  0  0
  153.8549  142.3480  162.9668 H   0  0  0  0  0  0  0  0  0  0  0  0
  151.9227  140.5943  159.2258 H   0  0  0  0  0  0  0  0  0  0  0  0
  150.7131  141.6863  159.8959 H   0  0  0  0  0  0  0  0  0  0  0  0
  149.7870  142.9804  157.9303 H   0  0  0  0  0  0  0  0  0  0  0  0
  150.8214  143.3513  156.5894 H   0  0  0  0  0  0  0  0  0  0  0  0
  151.2583  139.4920  156.1486 H   0  0  0  0  0  0  0  0  0  0  0  0
  152.2766  140.4623  157.1982 H   0  0  0  0  0  0  0  0  0  0  0  0
  152.0733  140.9287  155.5101 H   0  0  0  0  0  0  0  0  0  0  0  0
  146.7042  143.1223  155.1656 H   0  0  0  0  0  0  0  0  0  0  0  0
  149.1196  137.3809  153.5368 H   0  0  0  0  0  0  0  0  0  0  0  0
  145.9182  139.3591  152.6974 H   0  0  0  0  0  0  0  0  0  0  0  0
  147.1710  138.7966  151.6208 H   0  0  0  0  0  0  0  0  0  0  0  0
  147.1415  136.5702  152.8992 H   0  0  0  0  0  0  0  0  0  0  0  0
  145.5114  135.6537  151.4652 H   0  0  0  0  0  0  0  0  0  0  0  0
  144.5280  137.0904  151.4669 H   0  0  0  0  0  0  0  0  0  0  0  0
  145.6752  137.8093  149.8932 H   0  0  0  0  0  0  0  0  0  0  0  0
  145.9075  137.3775  154.9394 H   0  0  0  0  0  0  0  0  0  0  0  0
  144.0295  138.6964  154.1953 H   0  0  0  0  0  0  0  0  0  0  0  0
  143.5374  137.4415  153.0495 H   0  0  0  0  0  0  0  0  0  0  0  0
  143.5370  137.2483  156.0917 H   0  0  0  0  0  0  0  0  0  0  0  0
  142.1800  136.9346  155.0023 H   0  0  0  0  0  0  0  0  0  0  0  0
  144.9257  134.9318  153.4460 H   0  0  0  0  0  0  0  0  0  0  0  0
  145.7251  135.0289  155.0158 H   0  0  0  0  0  0  0  0  0  0  0  0
  152.9871  145.7780  158.5701 H   0  0  0  0  0  0  0  0  0  0  0  0
  151.9692  145.1442  157.2844 H   0  0  0  0  0  0  0  0  0  0  0  0
  153.6014  144.5067  157.5099 H   0  0  0  0  0  0  0  0  0  0  0  0
  153.1763  144.3029  160.7635 H   0  0  0  0  0  0  0  0  0  0  0  0
  154.1420  143.4439  159.5717 H   0  0  0  0  0  0  0  0  0  0  0  0
  1  2  1  0  0  0  0
  1 32  1  0  0  0  0
  1 33  1  0  0  0  0
  1 34  1  0  0  0  0
  2  3  1  0  0  0  0
  3 30  1  0  0  0  0
  3 29  1  0  0  0  0
  3  4  1  0  0  0  0
  4  5  1  0  0  0  0
  4 35  1  0  0  0  0
  4 36  1  0  0  0  0
  5 31  1  0  0  0  0
  5  6  1  0  0  0  0
  5 27  1  0  0  0  0
  6  7  1  0  0  0  0
  6 37  1  0  0  0  0
  6 38  1  0  0  0  0
  7  8  1  0  0  0  0
  7  9  1  0  0  0  0
  8 39  1  0  0  0  0
  8 40  1  0  0  0  0
  8 41  1  0  0  0  0
  9 14  1  0  0  0  0
  9 10  2  0  0  0  0
 10 11  1  0  0  0  0
 11 12  2  0  0  0  0
 11 42  1  0  0  0  0
 12 13  1  0  0  0  0
 13 17  1  0  0  0  0
 13 14  2  0  0  0  0
 14 15  1  0  0  0  0
 15 16  2  0  0  0  0
 16 17  1  0  0  0  0
 16 43  1  0  0  0  0
 17 18  1  0  0  0  0
 18 19  1  0  0  0  0
 18 44  1  0  0  0  0
 18 45  1  0  0  0  0
 19 20  1  0  0  0  0
 19 22  1  0  0  0  0
 19 46  1  0  0  0  0
 20 21  1  0  0  0  0
 20 47  1  0  0  0  0
 20 48  1  0  0  0  0
 21 49  1  0  0  0  0
 22 26  1  0  0  0  0
 22 23  1  0  0  0  0
 22 50  1  0  0  0  0
 23 24  1  0  0  0  0
 23 51  1  0  0  0  0
 23 52  1  0  0  0  0
 24 25  1  0  0  0  0
 24 53  1  0  0  0  0
 24 54  1  0  0  0  0
 25 26  1  0  0  0  0
 26 55  1  0  0  0  0
 26 56  1  0  0  0  0
 27 28  1  0  0  0  0
 27 29  1  0  0  0  0
 28 57  1  0  0  0  0
 28 58  1  0  0  0  0
 28 59  1  0  0  0  0
 29 60  1  0  0  0  0
 29 61  1  0  0  0  0
M  END
> <s_m_source_file>
AV-unprocessed.smi

> <i_m_source_file_index>
21

> <i_lp_mmshare_version>
43012

> <i_f3d_flags>
0

> <s_epik_input>
W0NIM11PW0NASF0xW0NIMl1bQ0BIXShOKFtDSDNdKVtDSDJdMSlbQ0gyXU4oW0NIM10pYyhuW2NIXW4yKWMoYzIzKW5bY0hdbjNbQ0gyXVtDQEhdKFtDSDJdW09IXSlbQ0BASF00W0NIMl1bQ0gyXU9bQ0gyXTQ=

> <s_epik_cmdline>
J2VwaWtfcHl0aG9uJywgJy1waCcsICc3LjAnLCAnLXRuJywgJzgnLCAnLW1hJywgJzIwMCcsICctbWV0YWxfYmluZGluZycsICctaW1hZScsICc8aW5maWxlLm1hZT4nLCAnLW9tYWUnLCAnPG91dGZpbGUubWFlPic=

> <r_lp_tautomer_probability>
1

> <r_epik_Ionization_Penalty>
2.17574

> <r_epik_Ionization_Penalty_Charging>
0

> <r_epik_Ionization_Penalty_Neutral>
2.17574

> <r_epik_State_Penalty>
2.31336

> <r_epik_Charging_Adjusted_Penalty>
2.31336

> <i_epik_Tot_Q>
0

> <i_epik_Tot_abs_Q>
0

> <r_epik_Metal_State_Penalty>
2.31025

> <b_epik_Metal_Only>
0

> <s_lp_Force_Field>
OPLS_2005

> <r_lp_Energy>
70.1796

> <b_lp_Chiralities_Consistent>
1

> <s_lp_Variant>
AV-unprocessed.smi:21-41

> <Gold.Version>
5.8.1

> <Gold.Id.Protein>
6NUR|6NUR_protein|mol2

> <Gold.PLP.Fitness>
47.7741

> <Gold.PLP.PLP>
-39.2476

> <Gold.PLP.part.hbond>
-3.2021

> <Gold.PLP.part.metal>
0.0000

> <Gold.PLP.part.buried>
-0.4567

> <Gold.PLP.part.nonpolar>
-40.5618

> <Gold.PLP.part.repulsive>
4.6483

> <Gold.PLP.ligand.clash>
0.0000

> <Gold.PLP.ligand.torsion>
0.7869

> <Gold.PLP.Chemscore.Hbond>
2.0793

> <Gold.PLP.Chemscore.CHOScore>
1.0176

> <Gold.PLP.Chemscore.Metal>
0.0000

> <Gold.Chemscore.Hbonds>
donor molecule, donor type, donor heavy atom, donor atom, acceptor molecule, acceptor atom, score
      L1  H    21    49       P1 10171  0.93
      P1  H  6933  6945       L1     2  0.53
      P1  H  7954  7966       L1    21  0.70
      L1  C    11    42       P1  8028  0.06
      L1  C    16    43       P1  7948  0.97

> <Gold.PLP.Chemscore.Internal.Correction>
0.8096

> <Gold.Rescore>
     Score         DG    S(hbond)    S(metal)    S(lipo)     H(rot)  DE(clash)    DE(int)     intcor
     13.32     -18.57       2.27        0.00     112.69       3.00       3.17       2.08       ----

> <Gold.Chemscore.Fitness>
13.3249

> <Gold.Chemscore.DG>
-18.5709

> <Gold.Chemscore.ZeroCoef>
-5.4800

> <Gold.Chemscore.Hbond>
2.2736

> <Gold.Chemscore.Metal>
0.0000

> <Gold.Chemscore.Lipo>
112.6920

> <Gold.Chemscore.Internal_Hbond>
0.0000

> <Gold.Chemscore.DEClash>
3.1708

> <Gold.Chemscore.DEInternal>
2.0751

> <Gold.Chemscore.Rot>
3.0031

> <Gold.Chemscore.Internal.Correction>
   9.000000E+99

> <Gold.Chemscore.Hbonds>
donor molecule, donor type, donor heavy atom, donor atom, acceptor molecule, acceptor atom, score
      L1  H    21    49       P1 10171  0.89
      P1  H  6933  6945       L1     2  0.51
      P1  H  7954  7966       L1    21  0.30

> <Gold.Chemscore.Hbond.Weighted>
-7.5939

> <Gold.Chemscore.Metal.Weighted>
-0.0000

> <Gold.Chemscore.Lipo.Weighted>
-13.1850

> <Gold.Chemscore.Internal_Hbond.Weighted>
0.0000

> <Gold.Chemscore.DEClash.Weighted>
3.1708

> <Gold.Chemscore.DEInternal.Weighted>
2.0751

> <Gold.Chemscore.Rot.Weighted>
7.6880

> <Gold.Chemscore.Internal.Correction.Weighted>
   9.000000E+99

> <Gold.Protein.RotatedTorsions>
[ 6907 6896 6895 6894 ] final  -30.82 input  -60.11 | X-H torsion
[ 7974 7965 7964 7962 ] final  -36.76 input  175.53 | X-H torsion
[ 8008 7997 7996 7995 ] final -148.13 input   59.86 | X-H torsion
[ 10167 10162 10161 10158 ] final  129.41 input  -65.29 | X-H torsion
[ 10718 10713 10712 10709 ] final  122.66 input   66.30 | X-H torsion
[ 10763 10752 10751 10750 ] final -101.96 input  -60.55 | X-H torsion
[ 11005 11000 10999 10996 ] final   80.43 input  -57.11 | X-H torsion

> <Gold.Protein.ActiveResidues>
 VAL166  LYS551  ARG553  GLY616  TRP617  ASP618  TYR619  PRO620  LYS621  CYS622 
 ASP623  PHE694  ASN695  SER759  ASP760  ASP761  ALA762  ILE779  LEU786  VAL792 
 PHE793  MET794  SER795  GLU796  ALA797  LYS798  CYS799  TRP800  GLU811  SER814 

> <Gold.Protein.RotatedAtoms>
  151.1004  134.9969  159.8445 H   0  0  0  0  0  0  0  0  0  0  0  0  # atno 6907 bound_to 6896
  152.5436  134.1957  159.8702 H   0  0  0  0  0  0  0  0  0  0  0  0  # atno 6908 bound_to 6896
  151.2000  133.4572  159.2629 H   0  0  0  0  0  0  0  0  0  0  0  0  # atno 6909 bound_to 6896
  146.0633  140.6317  142.8986 H   0  0  0  0  0  0  0  0  0  0  0  0  # atno 7974 bound_to 7965
  155.5867  140.0648  157.2769 H   0  0  0  0  0  0  0  0  0  0  0  0  # atno 8008 bound_to 7997
  154.4317  140.1842  156.1079 H   0  0  0  0  0  0  0  0  0  0  0  0  # atno 8009 bound_to 7997
  156.0264  140.3311  155.7096 H   0  0  0  0  0  0  0  0  0  0  0  0  # atno 8010 bound_to 7997
  139.5479  144.6789  151.4415 H   0  0  0  0  0  0  0  0  0  0  0  0  # atno 10167 bound_to 10162
  157.5725  131.1082  150.8341 H   0  0  0  0  0  0  0  0  0  0  0  0  # atno 10718 bound_to 10713
  154.7698  135.4878  153.9626 H   0  0  0  0  0  0  0  0  0  0  0  0  # atno 10763 bound_to 10752
  153.1353  135.6761  153.9120 H   0  0  0  0  0  0  0  0  0  0  0  0  # atno 10764 bound_to 10752
  153.8811  135.3132  155.3424 H   0  0  0  0  0  0  0  0  0  0  0  0  # atno 10765 bound_to 10752
  139.9135  134.7919  156.1908 H   0  0  0  0  0  0  0  0  0  0  0  0  # atno 11005 bound_to 11000
  144.7188  140.4302  143.7024 LP  0  0  0  0  0  0  0  0  0  0  0  0  # atno 17320 bound_to 7965
  145.6521  139.1567  143.2856 LP  0  0  0  0  0  0  0  0  0  0  0  0  # atno 17321 bound_to 7965
  140.6733  143.8246  150.7026 LP  0  0  0  0  0  0  0  0  0  0  0  0  # atno 17342 bound_to 10162
  140.1676  143.4221  152.2023 LP  0  0  0  0  0  0  0  0  0  0  0  0  # atno 17343 bound_to 10162
  156.8808  130.5179  149.5291 LP  0  0  0  0  0  0  0  0  0  0  0  0  # atno 17370 bound_to 10713
  156.0770  130.5790  150.9492 LP  0  0  0  0  0  0  0  0  0  0  0  0  # atno 17371 bound_to 10713
  141.0585  133.6853  156.1907 LP  0  0  0  0  0  0  0  0  0  0  0  0  # atno 17394 bound_to 11000
  140.6699  134.4879  157.5587 LP  0  0  0  0  0  0  0  0  0  0  0  0  # atno 17395 bound_to 11000

$$$$
