AV-unprocessed.smi:1047|AV-procd|sdf|4566|dock7
  -GOLD-   22720 3 13D 1   1.00000     0.00000
 Structure written by MMmdl.
 57 59  0  0  0  0  0  0  0  0  3 V2000
  144.6697  132.6623  151.2880 C   0  0  0  0  0  0  0  0  0  0  0  0
  145.3381  134.0146  151.0034 C   0  0  0  0  0  0  0  0  0  0  0  0
  144.5399  135.1620  151.5116 N   0  3  1  0  0  0  0  0  0  0  0  0
  144.2726  135.0966  152.9690 C   0  0  0  0  0  0  0  0  0  0  0  0
  145.5072  135.5270  153.7802 C   0  0  0  0  0  0  0  0  0  0  0  0
  145.9020  136.8344  153.3822 O   0  0  0  0  0  0  0  0  0  0  0  0
  146.2786  136.9056  152.0108 C   0  0  2  0  0  0  0  0  0  0  0  0
  146.7515  138.3447  151.7445 C   0  0  0  0  0  0  0  0  0  0  0  0
  148.0262  138.6469  152.4285 N   0  3  0  0  0  0  0  0  0  0  0  0
  147.8948  138.8235  153.8891 C   0  0  0  0  0  0  0  0  0  0  0  0
  149.2657  138.7945  154.5850 C   0  0  1  0  0  0  0  0  0  0  0  0
  150.0839  137.8445  153.9290 O   0  0  0  0  0  0  0  0  0  0  0  0
  149.9533  140.1733  154.5516 C   0  0  0  0  0  0  0  0  0  0  0  0
  151.0328  140.2828  155.5172 N   0  0  0  0  0  0  0  0  0  0  0  0
  152.1936  139.5997  155.5142 C   0  0  0  0  0  0  0  0  0  0  0  0
  153.0514  139.8518  156.4980 N   0  0  0  0  0  0  0  0  0  0  0  0
  152.3648  140.8055  157.2297 C   0  0  0  0  0  0  0  0  0  0  0  0
  152.7266  141.4902  158.4102 C   0  0  0  0  0  0  0  0  0  0  0  0
  151.8562  142.4376  158.9945 C   0  0  0  0  0  0  0  0  0  0  0  0
  152.2846  143.1474  160.2671 C   0  0  0  0  0  0  0  0  0  0  0  0
  150.6006  142.7129  158.3956 C   0  0  0  0  0  0  0  0  0  0  0  0
  149.6481  143.7254  159.0068 C   0  0  0  0  0  0  0  0  0  0  0  0
  150.2244  142.0395  157.2144 C   0  0  0  0  0  0  0  0  0  0  0  0
  151.0983  141.0973  156.6434 C   0  0  0  0  0  0  0  0  0  0  0  0
  145.0639  136.5027  151.1408 C   0  0  0  0  0  0  0  0  0  0  0  0
  145.3250  131.8426  150.9923 H   0  0  0  0  0  0  0  0  0  0  0  0
  143.7361  132.5406  150.7399 H   0  0  0  0  0  0  0  0  0  0  0  0
  144.4558  132.5444  152.3507 H   0  0  0  0  0  0  0  0  0  0  0  0
  146.3086  134.0117  151.5011 H   0  0  0  0  0  0  0  0  0  0  0  0
  145.5433  134.1207  149.9383 H   0  0  0  0  0  0  0  0  0  0  0  0
  143.4420  135.7663  153.1962 H   0  0  0  0  0  0  0  0  0  0  0  0
  143.9460  134.0972  153.2587 H   0  0  0  0  0  0  0  0  0  0  0  0
  145.2677  135.5423  154.8435 H   0  0  0  0  0  0  0  0  0  0  0  0
  146.3331  134.8257  153.6522 H   0  0  0  0  0  0  0  0  0  0  0  0
  147.1159  136.2269  151.8410 H   0  0  0  0  0  0  0  0  0  0  0  0
  146.8588  138.5160  150.6725 H   0  0  0  0  0  0  0  0  0  0  0  0
  145.9960  139.0450  152.1037 H   0  0  0  0  0  0  0  0  0  0  0  0
  148.6785  137.8953  152.2558 H   0  0  0  0  0  0  0  0  0  0  0  0
  147.3801  139.7611  154.1050 H   0  0  0  0  0  0  0  0  0  0  0  0
  147.2673  138.0196  154.2764 H   0  0  0  0  0  0  0  0  0  0  0  0
  149.1426  138.4840  155.6237 H   0  0  0  0  0  0  0  0  0  0  0  0
  149.6194  137.5194  153.1717 H   0  0  0  0  0  0  0  0  0  0  0  0
  150.3509  140.3784  153.5567 H   0  0  0  0  0  0  0  0  0  0  0  0
  149.2286  140.9607  154.7633 H   0  0  0  0  0  0  0  0  0  0  0  0
  152.4231  138.8783  154.7435 H   0  0  0  0  0  0  0  0  0  0  0  0
  153.6825  141.2793  158.8669 H   0  0  0  0  0  0  0  0  0  0  0  0
  151.6319  142.8698  161.0947 H   0  0  0  0  0  0  0  0  0  0  0  0
  152.2403  144.2288  160.1384 H   0  0  0  0  0  0  0  0  0  0  0  0
  153.3065  142.8868  160.5436 H   0  0  0  0  0  0  0  0  0  0  0  0
  148.7087  143.7716  158.4555 H   0  0  0  0  0  0  0  0  0  0  0  0
  150.0924  144.7207  158.9961 H   0  0  0  0  0  0  0  0  0  0  0  0
  149.4167  143.4600  160.0382 H   0  0  0  0  0  0  0  0  0  0  0  0
  149.2709  142.2419  156.7492 H   0  0  0  0  0  0  0  0  0  0  0  0
  145.3123  136.5426  150.0812 H   0  0  0  0  0  0  0  0  0  0  0  0
  144.2603  137.2259  151.2876 H   0  0  0  0  0  0  0  0  0  0  0  0
  148.4066  139.5010  152.0453 H   0  0  0  0  0  0  0  0  0  0  0  0
  143.6382  135.0700  151.0647 H   0  0  0  0  0  0  0  0  0  0  0  0
  1  2  1  0  0  0  0
  1 26  1  0  0  0  0
  1 27  1  0  0  0  0
  1 28  1  0  0  0  0
  2  3  1  0  0  0  0
  2 29  1  0  0  0  0
  2 30  1  0  0  0  0
  3 25  1  0  0  0  0
  3  4  1  0  0  0  0
  3 57  1  0  0  0  0
  4  5  1  0  0  0  0
  4 31  1  0  0  0  0
  4 32  1  0  0  0  0
  5  6  1  0  0  0  0
  5 33  1  0  0  0  0
  5 34  1  0  0  0  0
  6  7  1  0  0  0  0
  7  8  1  0  0  0  0
  7 25  1  0  0  0  0
  7 35  1  0  0  0  0
  8  9  1  0  0  0  0
  8 36  1  0  0  0  0
  8 37  1  0  0  0  0
  9 10  1  0  0  0  0
  9 38  1  0  0  0  0
  9 56  1  0  0  0  0
 10 11  1  0  0  0  0
 10 39  1  0  0  0  0
 10 40  1  0  0  0  0
 11 12  1  0  0  0  0
 11 13  1  0  0  0  0
 11 41  1  0  0  0  0
 12 42  1  0  0  0  0
 13 14  1  0  0  0  0
 13 43  1  0  0  0  0
 13 44  1  0  0  0  0
 14 24  1  0  0  0  0
 14 15  1  0  0  0  0
 15 16  2  0  0  0  0
 15 45  1  0  0  0  0
 16 17  1  0  0  0  0
 17 24  2  0  0  0  0
 17 18  1  0  0  0  0
 18 19  2  0  0  0  0
 18 46  1  0  0  0  0
 19 20  1  0  0  0  0
 19 21  1  0  0  0  0
 20 47  1  0  0  0  0
 20 48  1  0  0  0  0
 20 49  1  0  0  0  0
 21 22  1  0  0  0  0
 21 23  2  0  0  0  0
 22 50  1  0  0  0  0
 22 51  1  0  0  0  0
 22 52  1  0  0  0  0
 23 24  1  0  0  0  0
 23 53  1  0  0  0  0
 25 54  1  0  0  0  0
 25 55  1  0  0  0  0
M  CHG  1   3   1
M  CHG  1   9   1
M  END
> <s_m_source_file>
AV-unprocessed.smi

> <i_m_source_file_index>
1047

> <i_lp_mmshare_version>
43012

> <i_f3d_flags>
0

> <s_epik_input>
W0NIM11bQ0gyXU4xW0NIMl1bQ0gyXU9bQ0BIXShbQ0gyXTEpW0NIMl1bTkhdW0NIMl1bQ0BIXShbT0hdKVtDSDJdbihbY0hdbjIpYyhjMjMpW2NIXWMoW0NIM10pYyhbY0hdMylbQ0gzXQ==

> <s_epik_cmdline>
J2VwaWtfcHl0aG9uJywgJy1waCcsICc3LjAnLCAnLXRuJywgJzgnLCAnLW1hJywgJzIwMCcsICctbWV0YWxfYmluZGluZycsICctaW1hZScsICc8aW5maWxlLm1hZT4nLCAnLW9tYWUnLCAnPG91dGZpbGUubWFlPic=

> <r_epik_Ionization_Penalty>
0.528991

> <r_epik_Ionization_Penalty_Charging>
0.438567

> <r_epik_Ionization_Penalty_Neutral>
0.0904237

> <r_epik_State_Penalty>
0.533036

> <r_epik_Charging_Adjusted_Penalty>
0.971603

> <i_epik_Tot_Q>
2

> <i_epik_Tot_abs_Q>
2

> <r_epik_Metal_State_Penalty>
0.448985

> <b_epik_Metal_Only>
0

> <s_lp_Force_Field>
OPLS_2005

> <r_lp_Energy>
33.3507

> <b_lp_Chiralities_Consistent>
1

> <s_lp_Variant>
AV-unprocessed.smi:1047-7

> <Gold.Version>
5.8.1

> <Gold.Id.Protein>
6NUR|6NUR_protein|mol2

> <Gold.PLP.Fitness>
56.5178

> <Gold.PLP.PLP>
-42.4047

> <Gold.PLP.part.hbond>
-4.0000

> <Gold.PLP.part.metal>
0.0000

> <Gold.PLP.part.buried>
0.6958

> <Gold.PLP.part.nonpolar>
-39.6126

> <Gold.PLP.part.repulsive>
0.2647

> <Gold.PLP.ligand.clash>
0.0000

> <Gold.PLP.ligand.torsion>
0.5698

> <Gold.PLP.Chemscore.Hbond>
4.9760

> <Gold.PLP.Chemscore.CHOScore>
0.0000

> <Gold.PLP.Chemscore.Metal>
0.0000

> <Gold.Chemscore.Hbonds>
donor molecule, donor type, donor heavy atom, donor atom, acceptor molecule, acceptor atom, score
      L1  H     9    38       P1  7948  2.00
      L1  H     9    56       P1  7957  0.83
      L1  H    12    42       P1  7948  1.00
      P1  H  7997  8008       L1    16  0.46

> <Gold.PLP.Chemscore.Internal.Correction>
0.3246

> <Gold.Rescore>
     Score         DG    S(hbond)    S(metal)    S(lipo)     H(rot)  DE(clash)    DE(int)     intcor
     19.50     -23.75       3.39        0.00     118.26       2.70       2.22       2.03       ----

> <Gold.Chemscore.Fitness>
19.4985

> <Gold.Chemscore.DG>
-23.7461

> <Gold.Chemscore.ZeroCoef>
-5.4800

> <Gold.Chemscore.Hbond>
3.3947

> <Gold.Chemscore.Metal>
0.0000

> <Gold.Chemscore.Lipo>
118.2558

> <Gold.Chemscore.Internal_Hbond>
0.0000

> <Gold.Chemscore.DEClash>
2.2190

> <Gold.Chemscore.DEInternal>
2.0287

> <Gold.Chemscore.Rot>
2.6985

> <Gold.Chemscore.Internal.Correction>
   9.000000E+99

> <Gold.Chemscore.Hbonds>
donor molecule, donor type, donor heavy atom, donor atom, acceptor molecule, acceptor atom, score
      L1  H     9    38       P1  7948  0.94
      L1  H     9    56       P1  7957  0.79
      L1  H    12    42       P1  7948  0.78
      P1  H  7997  8008       L1    16  0.37

> <Gold.Chemscore.Hbond.Weighted>
-11.3383

> <Gold.Chemscore.Metal.Weighted>
-0.0000

> <Gold.Chemscore.Lipo.Weighted>
-13.8359

> <Gold.Chemscore.Internal_Hbond.Weighted>
0.0000

> <Gold.Chemscore.DEClash.Weighted>
2.2190

> <Gold.Chemscore.DEInternal.Weighted>
2.0287

> <Gold.Chemscore.Rot.Weighted>
6.9081

> <Gold.Chemscore.Internal.Correction.Weighted>
   9.000000E+99

> <Gold.Protein.RotatedTorsions>
[ 6907 6896 6895 6894 ] final  127.19 input  -60.11 | X-H torsion
[ 7974 7965 7964 7962 ] final  129.36 input  175.53 | X-H torsion
[ 8008 7997 7996 7995 ] final  -46.50 input   59.86 | X-H torsion
[ 10167 10162 10161 10158 ] final -157.95 input  -65.29 | X-H torsion
[ 10718 10713 10712 10709 ] final  -50.48 input   66.30 | X-H torsion
[ 10763 10752 10751 10750 ] final   -3.29 input  -60.55 | X-H torsion
[ 11005 11000 10999 10996 ] final -128.56 input  -57.11 | X-H torsion

> <Gold.Protein.ActiveResidues>
 VAL166  LYS551  ARG553  GLY616  TRP617  ASP618  TYR619  PRO620  LYS621  CYS622 
 ASP623  PHE694  ASN695  SER759  ASP760  ASP761  ALA762  ILE779  LEU786  VAL792 
 PHE793  MET794  SER795  GLU796  ALA797  LYS798  CYS799  TRP800  GLU811  SER814 

> <Gold.Protein.RotatedAtoms>
  152.3835  133.6579  159.6180 H   0  0  0  0  0  0  0  0  0  0  0  0  # atno 6907 bound_to 6896
  150.7760  133.9073  159.3368 H   0  0  0  0  0  0  0  0  0  0  0  0  # atno 6908 bound_to 6896
  151.6874  135.0953  160.0278 H   0  0  0  0  0  0  0  0  0  0  0  0  # atno 6909 bound_to 6896
  145.0295  139.4059  143.5157 H   0  0  0  0  0  0  0  0  0  0  0  0  # atno 7974 bound_to 7965
  154.4008  140.1370  156.4022 H   0  0  0  0  0  0  0  0  0  0  0  0  # atno 8008 bound_to 7997
  155.7813  140.3481  155.5279 H   0  0  0  0  0  0  0  0  0  0  0  0  # atno 8009 bound_to 7997
  155.8671  140.0965  157.1565 H   0  0  0  0  0  0  0  0  0  0  0  0  # atno 8010 bound_to 7997
  139.6730  143.9712  152.2294 H   0  0  0  0  0  0  0  0  0  0  0  0  # atno 10167 bound_to 10162
  156.1797  130.4150  149.9525 H   0  0  0  0  0  0  0  0  0  0  0  0  # atno 10718 bound_to 10713
  153.3694  135.6994  153.6649 H   0  0  0  0  0  0  0  0  0  0  0  0  # atno 10763 bound_to 10752
  153.5306  135.3593  155.2674 H   0  0  0  0  0  0  0  0  0  0  0  0  # atno 10764 bound_to 10752
  154.8679  135.4179  154.2969 H   0  0  0  0  0  0  0  0  0  0  0  0  # atno 10765 bound_to 10752
  140.9506  134.1071  157.4066 H   0  0  0  0  0  0  0  0  0  0  0  0  # atno 11005 bound_to 11000
  146.3496  139.9837  142.8693 LP  0  0  0  0  0  0  0  0  0  0  0  0  # atno 17320 bound_to 7965
  145.1789  140.9757  143.4278 LP  0  0  0  0  0  0  0  0  0  0  0  0  # atno 17321 bound_to 7965
  139.9481  144.6638  150.8199 LP  0  0  0  0  0  0  0  0  0  0  0  0  # atno 17342 bound_to 10162
  140.7625  143.3200  151.2644 LP  0  0  0  0  0  0  0  0  0  0  0  0  # atno 17343 bound_to 10162
  156.7299  130.9039  151.3625 LP  0  0  0  0  0  0  0  0  0  0  0  0  # atno 17370 bound_to 10713
  157.6860  130.9186  150.0387 LP  0  0  0  0  0  0  0  0  0  0  0  0  # atno 17371 bound_to 10713
  139.8846  135.0064  156.6381 LP  0  0  0  0  0  0  0  0  0  0  0  0  # atno 17394 bound_to 11000
  140.7608  133.8819  155.8417 LP  0  0  0  0  0  0  0  0  0  0  0  0  # atno 17395 bound_to 11000

$$$$
