AV-unprocessed.smi:2430|AV-procd|sdf|9585|dock3
  -GOLD-   2272013213D 1   1.00000     0.00000
 Structure written by MMmdl.
 46 47  0  0  0  0  0  0  0  0  1 V2000
  153.6471  141.2778  160.5813 C   0  0  0  0  0  0  0  0  0  0  0  0
  153.0625  141.9972  159.3611 C   0  0  1  0  0  0  0  0  0  0  0  0
  152.1362  141.0777  158.5452 C   0  0  0  0  0  0  0  0  0  0  0  0
  151.4946  141.8263  157.4700 N   0  0  0  0  0  0  0  0  0  0  0  0
  150.8744  141.0397  156.4764 C   0  0  0  0  0  0  0  0  0  0  0  0
  151.6161  140.0465  155.7952 C   0  0  0  0  0  0  0  0  0  0  0  0
  150.9815  139.2676  154.8087 C   0  0  0  0  0  0  0  0  0  0  0  0
  149.6182  139.5071  154.5209 C   0  0  0  0  0  0  0  0  0  0  0  0
  148.8653  138.7738  153.5657 N   0  0  0  0  0  0  0  0  0  0  0  0
  147.5405  138.8151  153.3453 C   0  0  0  0  0  0  0  0  0  0  0  0
  146.7373  139.5068  153.9716 O   0  0  0  0  0  0  0  0  0  0  0  0
  147.1862  137.9771  152.3610 N   0  0  0  0  0  0  0  0  0  0  0  0
  145.8183  137.7432  151.9135 C   0  0  0  0  0  0  0  0  0  0  0  0
  145.3916  136.2882  152.1637 C   0  0  0  0  0  0  0  0  0  0  0  0
  144.2545  135.8423  151.2356 C   0  0  0  0  0  0  0  0  0  0  0  0
  144.6556  135.9809  149.8898 O   0  0  0  0  0  0  0  0  0  0  0  0
  148.9602  140.5103  155.2588 C   0  0  0  0  0  0  0  0  0  0  0  0
  149.5655  141.2614  156.2020 N   0  0  0  0  0  0  0  0  0  0  0  0
  150.7876  143.0150  157.9411 C   0  0  0  0  0  0  0  0  0  0  0  0
  151.7096  143.9055  158.7972 C   0  0  2  0  0  0  0  0  0  0  0  0
  152.7371  144.7005  157.9717 C   0  0  0  0  0  0  0  0  0  0  0  0
  152.3281  143.1293  159.8260 O   0  0  0  0  0  0  0  0  0  0  0  0
  154.2292  140.4061  160.2814 H   0  0  0  0  0  0  0  0  0  0  0  0
  152.8590  140.9384  161.2539 H   0  0  0  0  0  0  0  0  0  0  0  0
  154.3054  141.9389  161.1453 H   0  0  0  0  0  0  0  0  0  0  0  0
  153.8919  142.3279  158.7361 H   0  0  0  0  0  0  0  0  0  0  0  0
  152.7136  140.2378  158.1609 H   0  0  0  0  0  0  0  0  0  0  0  0
  151.3608  140.6594  159.1885 H   0  0  0  0  0  0  0  0  0  0  0  0
  152.6609  139.8808  156.0116 H   0  0  0  0  0  0  0  0  0  0  0  0
  151.5464  138.4984  154.3050 H   0  0  0  0  0  0  0  0  0  0  0  0
  149.3844  138.0880  153.0371 H   0  0  0  0  0  0  0  0  0  0  0  0
  147.9121  137.4455  151.9031 H   0  0  0  0  0  0  0  0  0  0  0  0
  145.1336  138.4344  152.4083 H   0  0  0  0  0  0  0  0  0  0  0  0
  145.7681  137.9675  150.8478 H   0  0  0  0  0  0  0  0  0  0  0  0
  146.2512  135.6305  152.0272 H   0  0  0  0  0  0  0  0  0  0  0  0
  145.0755  136.1723  153.2014 H   0  0  0  0  0  0  0  0  0  0  0  0
  143.9904  134.8011  151.4234 H   0  0  0  0  0  0  0  0  0  0  0  0
  143.3601  136.4431  151.4035 H   0  0  0  0  0  0  0  0  0  0  0  0
  144.6105  136.8951  149.6548 H   0  0  0  0  0  0  0  0  0  0  0  0
  147.9157  140.7238  155.0845 H   0  0  0  0  0  0  0  0  0  0  0  0
  150.3998  143.5887  157.0981 H   0  0  0  0  0  0  0  0  0  0  0  0
  149.9301  142.6983  158.5368 H   0  0  0  0  0  0  0  0  0  0  0  0
  151.0820  144.6376  159.3060 H   0  0  0  0  0  0  0  0  0  0  0  0
  152.2353  145.3816  157.2842 H   0  0  0  0  0  0  0  0  0  0  0  0
  153.3783  144.0535  157.3737 H   0  0  0  0  0  0  0  0  0  0  0  0
  153.3761  145.3002  158.6202 H   0  0  0  0  0  0  0  0  0  0  0  0
  1  2  1  0  0  0  0
  1 23  1  0  0  0  0
  1 24  1  0  0  0  0
  1 25  1  0  0  0  0
  2 22  1  0  0  0  0
  2  3  1  0  0  0  0
  2 26  1  0  0  0  0
  3  4  1  0  0  0  0
  3 27  1  0  0  0  0
  3 28  1  0  0  0  0
  4  5  1  0  0  0  0
  4 19  1  0  0  0  0
  5 18  1  0  0  0  0
  5  6  2  0  0  0  0
  6  7  1  0  0  0  0
  6 29  1  0  0  0  0
  7  8  2  0  0  0  0
  7 30  1  0  0  0  0
  8  9  1  0  0  0  0
  8 17  1  0  0  0  0
  9 10  1  0  0  0  0
  9 31  1  0  0  0  0
 10 11  2  0  0  0  0
 10 12  1  0  0  0  0
 12 13  1  0  0  0  0
 12 32  1  0  0  0  0
 13 14  1  0  0  0  0
 13 33  1  0  0  0  0
 13 34  1  0  0  0  0
 14 15  1  0  0  0  0
 14 35  1  0  0  0  0
 14 36  1  0  0  0  0
 15 16  1  0  0  0  0
 15 37  1  0  0  0  0
 15 38  1  0  0  0  0
 16 39  1  0  0  0  0
 17 18  2  0  0  0  0
 17 40  1  0  0  0  0
 19 20  1  0  0  0  0
 19 41  1  0  0  0  0
 19 42  1  0  0  0  0
 20 21  1  0  0  0  0
 20 22  1  0  0  0  0
 20 43  1  0  0  0  0
 21 44  1  0  0  0  0
 21 45  1  0  0  0  0
 21 46  1  0  0  0  0
M  END
> <s_m_source_file>
AV-unprocessed.smi

> <i_m_source_file_index>
2430

> <i_lp_mmshare_version>
43012

> <i_f3d_flags>
0

> <s_epik_input>
W0NIM11bQ0BASF0xW0NIMl1OKFtDSDJdW0NASF0oTzEpW0NIM10pYzJbY0hdW2NIXWMoW2NIXW4yKVtOSF1DKD1PKVtOSF1bQ0gyXVtDSDJdW0NIMl1bT0hd

> <s_epik_cmdline>
J2VwaWtfcHl0aG9uJywgJy1waCcsICc3LjAnLCAnLXRuJywgJzgnLCAnLW1hJywgJzIwMCcsICctbWV0YWxfYmluZGluZycsICctaW1hZScsICc8aW5maWxlLm1hZT4nLCAnLW9tYWUnLCAnPG91dGZpbGUubWFlPic=

> <r_lp_tautomer_probability>
1

> <r_epik_Ionization_Penalty>
0.00269907

> <r_epik_Ionization_Penalty_Charging>
0

> <r_epik_Ionization_Penalty_Neutral>
0.00269907

> <r_epik_State_Penalty>
0.00185337

> <r_epik_Charging_Adjusted_Penalty>
0.00185337

> <i_epik_Tot_Q>
0

> <i_epik_Tot_abs_Q>
0

> <r_epik_Metal_State_Penalty>
-0

> <b_epik_Metal_Only>
0

> <s_lp_Force_Field>
OPLS_2005

> <r_lp_Energy>
20.4491

> <b_lp_Chiralities_Consistent>
1

> <s_lp_Variant>
AV-unprocessed.smi:2430-3

> <Gold.Version>
5.8.1

> <Gold.Id.Protein>
6NUR|6NUR_protein|mol2

> <Gold.PLP.Fitness>
52.6950

> <Gold.PLP.PLP>
-45.7891

> <Gold.PLP.part.hbond>
-4.8078

> <Gold.PLP.part.metal>
0.0000

> <Gold.PLP.part.buried>
-1.9089

> <Gold.PLP.part.nonpolar>
-39.3741

> <Gold.PLP.part.repulsive>
0.4134

> <Gold.PLP.ligand.clash>
0.0000

> <Gold.PLP.ligand.torsion>
0.3181

> <Gold.PLP.Chemscore.Hbond>
2.4046

> <Gold.PLP.Chemscore.CHOScore>
0.0000

> <Gold.PLP.Chemscore.Metal>
0.0000

> <Gold.Chemscore.Hbonds>
donor molecule, donor type, donor heavy atom, donor atom, acceptor molecule, acceptor atom, score
      L1  H     9    31       P1  7948  0.45
      L1  H    12    32       P1  7948  1.00
      L1  H    16    39       P1 10171  1.00

> <Gold.PLP.Chemscore.Internal.Correction>
0.3283

> <Gold.Rescore>
     Score         DG    S(hbond)    S(metal)    S(lipo)     H(rot)  DE(clash)    DE(int)     intcor
     18.64     -20.62       2.51        0.00     108.86       2.33       0.22       1.77       ----

> <Gold.Chemscore.Fitness>
18.6379

> <Gold.Chemscore.DG>
-20.6233

> <Gold.Chemscore.ZeroCoef>
-5.4800

> <Gold.Chemscore.Hbond>
2.5101

> <Gold.Chemscore.Metal>
0.0000

> <Gold.Chemscore.Lipo>
108.8571

> <Gold.Chemscore.Internal_Hbond>
0.0000

> <Gold.Chemscore.DEClash>
0.2187

> <Gold.Chemscore.DEInternal>
1.7667

> <Gold.Chemscore.Rot>
2.3346

> <Gold.Chemscore.Internal.Correction>
   9.000000E+99

> <Gold.Chemscore.Hbonds>
donor molecule, donor type, donor heavy atom, donor atom, acceptor molecule, acceptor atom, score
      L1  H     9    31       P1  7948  0.41
      L1  H    12    32       P1  7948  0.94
      L1  H    16    39       P1 10171  0.97

> <Gold.Chemscore.Hbond.Weighted>
-8.3836

> <Gold.Chemscore.Metal.Weighted>
-0.0000

> <Gold.Chemscore.Lipo.Weighted>
-12.7363

> <Gold.Chemscore.Internal_Hbond.Weighted>
0.0000

> <Gold.Chemscore.DEClash.Weighted>
0.2187

> <Gold.Chemscore.DEInternal.Weighted>
1.7667

> <Gold.Chemscore.Rot.Weighted>
5.9766

> <Gold.Chemscore.Internal.Correction.Weighted>
   9.000000E+99

> <Gold.Protein.RotatedTorsions>
[ 6907 6896 6895 6894 ] final   23.36 input  -60.11 | X-H torsion
[ 7974 7965 7964 7962 ] final   47.89 input  175.53 | X-H torsion
[ 8008 7997 7996 7995 ] final   36.94 input   59.86 | X-H torsion
[ 10167 10162 10161 10158 ] final  149.23 input  -65.29 | X-H torsion
[ 10718 10713 10712 10709 ] final  -71.74 input   66.30 | X-H torsion
[ 10763 10752 10751 10750 ] final  -14.53 input  -60.55 | X-H torsion
[ 11005 11000 10999 10996 ] final -166.57 input  -57.11 | X-H torsion

> <Gold.Protein.ActiveResidues>
 VAL166  LYS551  ARG553  GLY616  TRP617  ASP618  TYR619  PRO620  LYS621  CYS622 
 ASP623  PHE694  ASN695  SER759  ASP760  ASP761  ALA762  ILE779  LEU786  VAL792 
 PHE793  MET794  SER795  GLU796  ALA797  LYS798  CYS799  TRP800  GLU811  SER814 

> <Gold.Protein.RotatedAtoms>
  151.9412  135.0212  160.0535 H   0  0  0  0  0  0  0  0  0  0  0  0  # atno 6907 bound_to 6896
  152.2034  133.4853  159.5079 H   0  0  0  0  0  0  0  0  0  0  0  0  # atno 6908 bound_to 6896
  150.6960  134.1477  159.4171 H   0  0  0  0  0  0  0  0  0  0  0  0  # atno 6909 bound_to 6896
  146.0256  139.4702  142.9870 H   0  0  0  0  0  0  0  0  0  0  0  0  # atno 7974 bound_to 7965
  155.1956  140.3311  155.4351 H   0  0  0  0  0  0  0  0  0  0  0  0  # atno 8008 bound_to 7997
  156.2426  140.1902  156.6996 H   0  0  0  0  0  0  0  0  0  0  0  0  # atno 8009 bound_to 7997
  154.6176  140.0600  156.9560 H   0  0  0  0  0  0  0  0  0  0  0  0  # atno 8010 bound_to 7997
  139.4864  144.5618  151.7218 H   0  0  0  0  0  0  0  0  0  0  0  0  # atno 10167 bound_to 10162
  156.0350  130.4357  150.2489 H   0  0  0  0  0  0  0  0  0  0  0  0  # atno 10718 bound_to 10713
  153.5296  135.7015  153.5690 H   0  0  0  0  0  0  0  0  0  0  0  0  # atno 10763 bound_to 10752
  153.3703  135.3946  155.1783 H   0  0  0  0  0  0  0  0  0  0  0  0  # atno 10764 bound_to 10752
  154.8686  135.3810  154.4792 H   0  0  0  0  0  0  0  0  0  0  0  0  # atno 10765 bound_to 10752
  140.5630  134.5314  157.5147 H   0  0  0  0  0  0  0  0  0  0  0  0  # atno 11005 bound_to 11000
  145.7124  141.0102  143.1446 LP  0  0  0  0  0  0  0  0  0  0  0  0  # atno 17320 bound_to 7965
  144.7008  139.8772  143.7444 LP  0  0  0  0  0  0  0  0  0  0  0  0  # atno 17321 bound_to 7965
  140.5189  144.0910  150.6016 LP  0  0  0  0  0  0  0  0  0  0  0  0  # atno 17342 bound_to 10162
  140.3861  143.2777  152.0114 LP  0  0  0  0  0  0  0  0  0  0  0  0  # atno 17343 bound_to 10162
  157.0588  131.0084  151.3229 LP  0  0  0  0  0  0  0  0  0  0  0  0  # atno 17370 bound_to 10713
  157.5085  130.7924  149.7680 LP  0  0  0  0  0  0  0  0  0  0  0  0  # atno 17371 bound_to 10713
  139.9398  134.7807  156.0707 LP  0  0  0  0  0  0  0  0  0  0  0  0  # atno 17394 bound_to 11000
  141.1103  133.6645  156.2962 LP  0  0  0  0  0  0  0  0  0  0  0  0  # atno 17395 bound_to 11000

$$$$
