AV-unprocessed.smi:1039|AV-procd|sdf|4523|dock5
  -GOLD-   22720 2543D 1   1.00000     0.00000
 Structure written by MMmdl.
 41 42  0  0  0  0  0  0  0  0  2 V2000
  145.3564  143.9958  153.6585 C   0  0  0  0  0  0  0  0  0  0  0  0
  145.8726  142.6159  154.0883 C   0  0  0  0  0  0  0  0  0  0  0  0
  146.5190  142.6598  155.4898 C   0  0  0  0  0  0  0  0  0  0  0  0
  147.1266  141.2960  155.8643 C   0  0  0  0  0  0  0  0  0  0  0  0
  148.1038  140.9138  154.8307 N   0  0  0  0  0  0  0  0  0  0  0  0
  149.4549  140.9245  154.9574 C   0  0  0  0  0  0  0  0  0  0  0  0
  150.2084  140.2795  154.2276 O   0  0  0  0  0  0  0  0  0  0  0  0
  149.9179  141.6728  155.9727 N   0  0  0  0  0  0  0  0  0  0  0  0
  151.3221  141.8279  156.3410 C   0  0  0  0  0  0  0  0  0  0  0  0
  151.5591  141.8379  157.8660 C   0  0  0  0  0  0  0  0  0  0  0  0
  151.3648  143.1729  158.5245 C   0  0  0  0  0  0  0  0  0  0  0  0
  150.7661  144.2263  157.9553 N   0  3  0  0  0  0  0  0  0  0  0  0
  150.7630  145.2946  158.8086 C   0  0  0  0  0  0  0  0  0  0  0  0
  151.3861  144.8750  159.9540 C   0  0  0  0  0  0  0  0  0  0  0  0
  151.7464  143.5667  159.7528 N   0  0  0  0  0  0  0  0  0  0  0  0
  152.4332  142.7056  160.7212 C   0  0  0  0  0  0  0  0  0  0  0  0
  153.6275  142.3411  160.2555 F   0  0  0  0  0  0  0  0  0  0  0  0
  152.5591  143.3251  161.8938 F   0  0  0  0  0  0  0  0  0  0  0  0
  147.4454  140.6904  153.5377 C   0  0  0  0  0  0  0  0  0  0  0  0
  146.8468  142.0218  153.0478 C   0  0  0  0  0  0  0  0  0  0  0  0
  146.1717  144.7147  153.5721 H   0  0  0  0  0  0  0  0  0  0  0  0
  144.6408  144.3896  154.3806 H   0  0  0  0  0  0  0  0  0  0  0  0
  144.8544  143.9434  152.6922 H   0  0  0  0  0  0  0  0  0  0  0  0
  145.0118  141.9482  154.1474 H   0  0  0  0  0  0  0  0  0  0  0  0
  147.2986  143.4227  155.5152 H   0  0  0  0  0  0  0  0  0  0  0  0
  145.7771  142.9511  156.2339 H   0  0  0  0  0  0  0  0  0  0  0  0
  147.5386  141.3402  156.8722 H   0  0  0  0  0  0  0  0  0  0  0  0
  146.3410  140.5403  155.9101 H   0  0  0  0  0  0  0  0  0  0  0  0
  149.2429  142.1773  156.5289 H   0  0  0  0  0  0  0  0  0  0  0  0
  151.9241  141.0502  155.8688 H   0  0  0  0  0  0  0  0  0  0  0  0
  151.6580  142.7708  155.9117 H   0  0  0  0  0  0  0  0  0  0  0  0
  150.8690  141.1513  158.3578 H   0  0  0  0  0  0  0  0  0  0  0  0
  152.5636  141.4889  158.1026 H   0  0  0  0  0  0  0  0  0  0  0  0
  150.3278  146.2473  158.5439 H   0  0  0  0  0  0  0  0  0  0  0  0
  151.5938  145.3985  160.8761 H   0  0  0  0  0  0  0  0  0  0  0  0
  151.8466  141.8006  160.8831 H   0  0  0  0  0  0  0  0  0  0  0  0
  148.1215  140.2872  152.7825 H   0  0  0  0  0  0  0  0  0  0  0  0
  146.6575  139.9449  153.6552 H   0  0  0  0  0  0  0  0  0  0  0  0
  146.3321  141.8688  152.0988 H   0  0  0  0  0  0  0  0  0  0  0  0
  147.6542  142.7287  152.8502 H   0  0  0  0  0  0  0  0  0  0  0  0
  150.3734  144.2278  157.0220 H   0  0  0  0  0  0  0  0  0  0  0  0
  1  2  1  0  0  0  0
  1 21  1  0  0  0  0
  1 22  1  0  0  0  0
  1 23  1  0  0  0  0
  2 20  1  0  0  0  0
  2  3  1  0  0  0  0
  2 24  1  0  0  0  0
  3  4  1  0  0  0  0
  3 25  1  0  0  0  0
  3 26  1  0  0  0  0
  4  5  1  0  0  0  0
  4 27  1  0  0  0  0
  4 28  1  0  0  0  0
  5  6  1  0  0  0  0
  5 19  1  0  0  0  0
  6  7  2  0  0  0  0
  6  8  1  0  0  0  0
  8  9  1  0  0  0  0
  8 29  1  0  0  0  0
  9 10  1  0  0  0  0
  9 30  1  0  0  0  0
  9 31  1  0  0  0  0
 10 11  1  0  0  0  0
 10 32  1  0  0  0  0
 10 33  1  0  0  0  0
 11 15  1  0  0  0  0
 11 12  2  0  0  0  0
 12 13  1  0  0  0  0
 12 41  1  0  0  0  0
 13 14  2  0  0  0  0
 13 34  1  0  0  0  0
 14 15  1  0  0  0  0
 14 35  1  0  0  0  0
 15 16  1  0  0  0  0
 16 17  1  0  0  0  0
 16 18  1  0  0  0  0
 16 36  1  0  0  0  0
 19 20  1  0  0  0  0
 19 37  1  0  0  0  0
 19 38  1  0  0  0  0
 20 39  1  0  0  0  0
 20 40  1  0  0  0  0
M  CHG  1  12   1
M  END
> <s_m_source_file>
AV-unprocessed.smi

> <i_m_source_file_index>
1039

> <i_lp_mmshare_version>
43012

> <i_f3d_flags>
0

> <s_epik_input>
W0NIM11bQ0hdMVtDSDJdW0NIMl1OKFtDSDJdW0NIMl0xKUMoPU8pW05IXVtDSDJdW0NIMl1jMm5bY0hdW2NIXW4yW0NIXShGKUY=

> <s_epik_cmdline>
J2VwaWtfcHl0aG9uJywgJy1waCcsICc3LjAnLCAnLXRuJywgJzgnLCAnLW1hJywgJzIwMCcsICctbWV0YWxfYmluZGluZycsICctaW1hZScsICc8aW5maWxlLm1hZT4nLCAnLW9tYWUnLCAnPG91dGZpbGUubWFlPic=

> <r_lp_tautomer_probability>
1

> <r_epik_Ionization_Penalty>
1.09425

> <r_epik_Ionization_Penalty_Charging>
0

> <r_epik_Ionization_Penalty_Neutral>
1.09425

> <r_epik_State_Penalty>
1.15074

> <r_epik_Charging_Adjusted_Penalty>
1.15074

> <i_epik_Tot_Q>
1

> <i_epik_Tot_abs_Q>
1

> <r_epik_Metal_State_Penalty>
1.2388

> <b_epik_Metal_Only>
0

> <s_lp_Force_Field>
OPLS_2005

> <r_lp_Energy>
37.2769

> <b_lp_Chiralities_Consistent>
1

> <s_lp_Variant>
AV-unprocessed.smi:1039-2

> <Gold.Version>
5.8.1

> <Gold.Id.Protein>
6NUR|6NUR_protein|mol2

> <Gold.PLP.Fitness>
53.0965

> <Gold.PLP.PLP>
-45.9022

> <Gold.PLP.part.hbond>
-2.3652

> <Gold.PLP.part.metal>
0.0000

> <Gold.PLP.part.buried>
-7.5828

> <Gold.PLP.part.nonpolar>
-36.2021

> <Gold.PLP.part.repulsive>
0.4489

> <Gold.PLP.ligand.clash>
0.1439

> <Gold.PLP.ligand.torsion>
0.7435

> <Gold.PLP.Chemscore.Hbond>
2.9265

> <Gold.PLP.Chemscore.CHOScore>
0.0000

> <Gold.PLP.Chemscore.Metal>
0.0000

> <Gold.Chemscore.Hbonds>
donor molecule, donor type, donor heavy atom, donor atom, acceptor molecule, acceptor atom, score
      L1  H    12    41       P1  8028  1.92
      P1  H  7989  7998       L1     7  0.96

> <Gold.PLP.Chemscore.Internal.Correction>
0.0457

> <Gold.Rescore>
     Score         DG    S(hbond)    S(metal)    S(lipo)     H(rot)  DE(clash)    DE(int)     intcor
     15.80     -16.82       1.82        0.00      79.95       1.61       0.30       0.72       ----

> <Gold.Chemscore.Fitness>
15.7994

> <Gold.Chemscore.DG>
-16.8200

> <Gold.Chemscore.ZeroCoef>
-5.4800

> <Gold.Chemscore.Hbond>
1.8248

> <Gold.Chemscore.Metal>
0.0000

> <Gold.Chemscore.Lipo>
79.9522

> <Gold.Chemscore.Internal_Hbond>
0.0000

> <Gold.Chemscore.DEClash>
0.2956

> <Gold.Chemscore.DEInternal>
0.7250

> <Gold.Chemscore.Rot>
1.6051

> <Gold.Chemscore.Internal.Correction>
   9.000000E+99

> <Gold.Chemscore.Hbonds>
donor molecule, donor type, donor heavy atom, donor atom, acceptor molecule, acceptor atom, score
      L1  H    12    41       P1  8028  0.80
      P1  H  7989  7998       L1     7  0.92

> <Gold.Chemscore.Hbond.Weighted>
-6.0948

> <Gold.Chemscore.Metal.Weighted>
-0.0000

> <Gold.Chemscore.Lipo.Weighted>
-9.3544

> <Gold.Chemscore.Internal_Hbond.Weighted>
0.0000

> <Gold.Chemscore.DEClash.Weighted>
0.2956

> <Gold.Chemscore.DEInternal.Weighted>
0.7250

> <Gold.Chemscore.Rot.Weighted>
4.1092

> <Gold.Chemscore.Internal.Correction.Weighted>
   9.000000E+99

> <Gold.Protein.RotatedTorsions>
[ 6907 6896 6895 6894 ] final   40.30 input  -60.11 | X-H torsion
[ 7974 7965 7964 7962 ] final   73.60 input  175.53 | X-H torsion
[ 8008 7997 7996 7995 ] final  -57.60 input   59.86 | X-H torsion
[ 10167 10162 10161 10158 ] final   85.26 input  -65.29 | X-H torsion
[ 10718 10713 10712 10709 ] final  161.91 input   66.30 | X-H torsion
[ 10763 10752 10751 10750 ] final   30.71 input  -60.55 | X-H torsion
[ 11005 11000 10999 10996 ] final  -49.77 input  -57.11 | X-H torsion

> <Gold.Protein.ActiveResidues>
 VAL166  LYS551  ARG553  GLY616  TRP617  ASP618  TYR619  PRO620  LYS621  CYS622 
 ASP623  PHE694  ASN695  SER759  ASP760  ASP761  ALA762  ILE779  LEU786  VAL792 
 PHE793  MET794  SER795  GLU796  ALA797  LYS798  CYS799  TRP800  GLU811  SER814 

> <Gold.Protein.RotatedAtoms>
  152.1808  134.8756  160.0526 H   0  0  0  0  0  0  0  0  0  0  0  0  # atno 6907 bound_to 6896
  151.9681  133.3712  159.4069 H   0  0  0  0  0  0  0  0  0  0  0  0  # atno 6908 bound_to 6896
  150.6917  134.4092  159.5198 H   0  0  0  0  0  0  0  0  0  0  0  0  # atno 6909 bound_to 6896
  145.7388  139.2713  143.1498 H   0  0  0  0  0  0  0  0  0  0  0  0  # atno 7974 bound_to 7965
  154.4274  140.1103  156.5823 H   0  0  0  0  0  0  0  0  0  0  0  0  # atno 8008 bound_to 7997
  155.6099  140.3494  155.4600 H   0  0  0  0  0  0  0  0  0  0  0  0  # atno 8009 bound_to 7997
  156.0107  140.1218  157.0446 H   0  0  0  0  0  0  0  0  0  0  0  0  # atno 8010 bound_to 7997
  139.8996  144.6337  150.8651 H   0  0  0  0  0  0  0  0  0  0  0  0  # atno 10167 bound_to 10162
  157.1299  131.0514  151.2376 H   0  0  0  0  0  0  0  0  0  0  0  0  # atno 10718 bound_to 10713
  153.0356  135.6457  154.1087 H   0  0  0  0  0  0  0  0  0  0  0  0  # atno 10763 bound_to 10752
  154.0802  135.2874  155.3293 H   0  0  0  0  0  0  0  0  0  0  0  0  # atno 10764 bound_to 10752
  154.6535  135.5417  153.7994 H   0  0  0  0  0  0  0  0  0  0  0  0  # atno 10765 bound_to 10752
  141.0778  133.6661  156.3634 H   0  0  0  0  0  0  0  0  0  0  0  0  # atno 11005 bound_to 11000
  146.0467  140.8110  142.9802 LP  0  0  0  0  0  0  0  0  0  0  0  0  # atno 17320 bound_to 7965
  144.6875  140.2992  143.7266 LP  0  0  0  0  0  0  0  0  0  0  0  0  # atno 17321 bound_to 7965
  140.7709  143.3447  151.2136 LP  0  0  0  0  0  0  0  0  0  0  0  0  # atno 17342 bound_to 10162
  139.7037  143.9491  152.2917 LP  0  0  0  0  0  0  0  0  0  0  0  0  # atno 17343 bound_to 10162
  157.4402  130.7539  149.7062 LP  0  0  0  0  0  0  0  0  0  0  0  0  # atno 17370 bound_to 10713
  155.9810  130.4024  150.3496 LP  0  0  0  0  0  0  0  0  0  0  0  0  # atno 17371 bound_to 10713
  140.5534  134.6005  157.5414 LP  0  0  0  0  0  0  0  0  0  0  0  0  # atno 17394 bound_to 11000
  139.9591  134.7484  156.0276 LP  0  0  0  0  0  0  0  0  0  0  0  0  # atno 17395 bound_to 11000

$$$$
