AV-unprocessed.smi:1033|AV-procd|sdf|4507|dock5
  -GOLD-   22720 2513D 1   1.00000     0.00000
 Structure written by MMmdl.
 57 59  0  0  0  0  0  0  0  0  3 V2000
  153.0758  142.4046  160.3575 C   0  0  0  0  0  0  0  0  0  0  0  0
  152.2133  142.1346  159.1369 C   0  0  0  0  0  0  0  0  0  0  0  0
  151.6799  140.8401  158.9455 C   0  0  0  0  0  0  0  0  0  0  0  0
  150.8766  140.5468  157.8222 C   0  0  0  0  0  0  0  0  0  0  0  0
  150.2594  139.3676  157.4416 N   0  0  0  0  0  0  0  0  0  0  0  0
  149.6638  139.7292  156.3095 C   0  0  0  0  0  0  0  0  0  0  0  0
  149.8079  141.0106  155.9193 N   0  0  0  0  0  0  0  0  0  0  0  0
  149.2444  141.6350  154.7363 C   0  0  0  0  0  0  0  0  0  0  0  0
  147.7453  141.3214  154.5582 C   0  0  1  0  0  0  0  0  0  0  0  0
  147.0092  142.3947  155.1084 O   0  0  0  0  0  0  0  0  0  0  0  0
  147.3219  141.1299  153.0851 C   0  0  0  0  0  0  0  0  0  0  0  0
  146.5913  139.8548  152.8685 N   0  3  2  0  0  0  0  0  0  0  0  0
  146.9401  138.7978  153.8525 C   0  0  0  0  0  0  0  0  0  0  0  0
  146.0919  137.5329  153.6313 C   0  0  0  0  0  0  0  0  0  0  0  0
  146.2290  137.0295  152.2423 N   0  3  1  0  0  0  0  0  0  0  0  0
  145.4975  135.7541  152.0269 C   0  0  0  0  0  0  0  0  0  0  0  0
  144.0458  135.9772  151.5593 C   0  0  2  0  0  0  0  0  0  0  0  0
  143.1860  136.6424  152.6417 C   0  0  0  0  0  0  0  0  0  0  0  0
  143.4661  134.7285  151.2404 O   0  0  0  0  0  0  0  0  0  0  0  0
  145.8818  138.0868  151.2580 C   0  0  0  0  0  0  0  0  0  0  0  0
  146.7297  139.3521  151.4797 C   0  0  0  0  0  0  0  0  0  0  0  0
  150.6173  141.5929  156.8889 C   0  0  0  0  0  0  0  0  0  0  0  0
  151.1435  142.8846  157.0674 C   0  0  0  0  0  0  0  0  0  0  0  0
  151.9440  143.1606  158.1956 C   0  0  0  0  0  0  0  0  0  0  0  0
  152.5080  144.5584  158.3799 C   0  0  0  0  0  0  0  0  0  0  0  0
  153.2071  141.5051  160.9597 H   0  0  0  0  0  0  0  0  0  0  0  0
  152.6168  143.1659  160.9885 H   0  0  0  0  0  0  0  0  0  0  0  0
  154.0649  142.7519  160.0577 H   0  0  0  0  0  0  0  0  0  0  0  0
  151.8863  140.0578  159.6613 H   0  0  0  0  0  0  0  0  0  0  0  0
  149.0798  139.0239  155.7362 H   0  0  0  0  0  0  0  0  0  0  0  0
  149.4009  142.7120  154.8130 H   0  0  0  0  0  0  0  0  0  0  0  0
  149.8092  141.2983  153.8654 H   0  0  0  0  0  0  0  0  0  0  0  0
  147.5109  140.4288  155.1361 H   0  0  0  0  0  0  0  0  0  0  0  0
  147.6011  143.1107  155.2847 H   0  0  0  0  0  0  0  0  0  0  0  0
  146.6925  141.9732  152.7959 H   0  0  0  0  0  0  0  0  0  0  0  0
  148.1844  141.1545  152.4179 H   0  0  0  0  0  0  0  0  0  0  0  0
  148.0003  138.5539  153.7651 H   0  0  0  0  0  0  0  0  0  0  0  0
  146.7839  139.1559  154.8695 H   0  0  0  0  0  0  0  0  0  0  0  0
  146.4075  136.7619  154.3354 H   0  0  0  0  0  0  0  0  0  0  0  0
  145.0416  137.7436  153.8401 H   0  0  0  0  0  0  0  0  0  0  0  0
  146.0139  135.1560  151.2740 H   0  0  0  0  0  0  0  0  0  0  0  0
  145.5185  135.1668  152.9464 H   0  0  0  0  0  0  0  0  0  0  0  0
  144.0190  136.6034  150.6683 H   0  0  0  0  0  0  0  0  0  0  0  0
  143.5774  137.6263  152.9022 H   0  0  0  0  0  0  0  0  0  0  0  0
  143.1573  136.0443  153.5534 H   0  0  0  0  0  0  0  0  0  0  0  0
  142.1589  136.7783  152.3007 H   0  0  0  0  0  0  0  0  0  0  0  0
  142.8105  134.8594  150.5716 H   0  0  0  0  0  0  0  0  0  0  0  0
  146.0402  137.7289  150.2413 H   0  0  0  0  0  0  0  0  0  0  0  0
  144.8216  138.3307  151.3437 H   0  0  0  0  0  0  0  0  0  0  0  0
  146.4137  140.1232  150.7758 H   0  0  0  0  0  0  0  0  0  0  0  0
  147.7802  139.1422  151.2715 H   0  0  0  0  0  0  0  0  0  0  0  0
  150.9365  143.6563  156.3407 H   0  0  0  0  0  0  0  0  0  0  0  0
  152.1813  145.2286  157.5842 H   0  0  0  0  0  0  0  0  0  0  0  0
  153.5980  144.5338  158.3695 H   0  0  0  0  0  0  0  0  0  0  0  0
  152.1793  144.9816  159.3292 H   0  0  0  0  0  0  0  0  0  0  0  0
  147.2078  136.8127  152.1143 H   0  0  0  0  0  0  0  0  0  0  0  0
  145.6121  140.0699  152.9967 H   0  0  0  0  0  0  0  0  0  0  0  0
  1  2  1  0  0  0  0
  1 26  1  0  0  0  0
  1 27  1  0  0  0  0
  1 28  1  0  0  0  0
  2 24  1  0  0  0  0
  2  3  2  0  0  0  0
  3  4  1  0  0  0  0
  3 29  1  0  0  0  0
  4 22  2  0  0  0  0
  4  5  1  0  0  0  0
  5  6  2  0  0  0  0
  6  7  1  0  0  0  0
  6 30  1  0  0  0  0
  7  8  1  0  0  0  0
  7 22  1  0  0  0  0
  8  9  1  0  0  0  0
  8 31  1  0  0  0  0
  8 32  1  0  0  0  0
  9 10  1  0  0  0  0
  9 11  1  0  0  0  0
  9 33  1  0  0  0  0
 10 34  1  0  0  0  0
 11 12  1  0  0  0  0
 11 35  1  0  0  0  0
 11 36  1  0  0  0  0
 12 21  1  0  0  0  0
 12 13  1  0  0  0  0
 12 57  1  0  0  0  0
 13 14  1  0  0  0  0
 13 37  1  0  0  0  0
 13 38  1  0  0  0  0
 14 15  1  0  0  0  0
 14 39  1  0  0  0  0
 14 40  1  0  0  0  0
 15 16  1  0  0  0  0
 15 20  1  0  0  0  0
 15 56  1  0  0  0  0
 16 17  1  0  0  0  0
 16 41  1  0  0  0  0
 16 42  1  0  0  0  0
 17 18  1  0  0  0  0
 17 19  1  0  0  0  0
 17 43  1  0  0  0  0
 18 44  1  0  0  0  0
 18 45  1  0  0  0  0
 18 46  1  0  0  0  0
 19 47  1  0  0  0  0
 20 21  1  0  0  0  0
 20 48  1  0  0  0  0
 20 49  1  0  0  0  0
 21 50  1  0  0  0  0
 21 51  1  0  0  0  0
 22 23  1  0  0  0  0
 23 24  2  0  0  0  0
 23 52  1  0  0  0  0
 24 25  1  0  0  0  0
 25 53  1  0  0  0  0
 25 54  1  0  0  0  0
 25 55  1  0  0  0  0
M  CHG  1  12   1
M  CHG  1  15   1
M  END
> <s_m_source_file>
AV-unprocessed.smi

> <i_m_source_file_index>
1033

> <i_lp_mmshare_version>
43012

> <i_f3d_flags>
0

> <s_epik_input>
W0NIM11jKFtjSF0xKWMoW0NIM10pW2NIXWMoYzEyKW4oW2NIXW4yKVtDSDJdW0NASF0oW09IXSlbQ0gyXU4zW0NIMl1bQ0gyXU4oW0NIMl1bQ0gyXTMpW0NIMl1bQ0BIXShbQ0gzXSlbT0hd

> <s_epik_cmdline>
J2VwaWtfcHl0aG9uJywgJy1waCcsICc3LjAnLCAnLXRuJywgJzgnLCAnLW1hJywgJzIwMCcsICctbWV0YWxfYmluZGluZycsICctaW1hZScsICc8aW5maWxlLm1hZT4nLCAnLW9tYWUnLCAnPG91dGZpbGUubWFlPic=

> <r_epik_Ionization_Penalty>
3.16016

> <r_epik_Ionization_Penalty_Charging>
3.07679

> <r_epik_Ionization_Penalty_Neutral>
0.083365

> <r_epik_State_Penalty>
2.09701

> <r_epik_Charging_Adjusted_Penalty>
5.1738

> <i_epik_Tot_Q>
2

> <i_epik_Tot_abs_Q>
2

> <r_epik_Metal_State_Penalty>
2.02534

> <b_epik_Metal_Only>
0

> <s_lp_Force_Field>
OPLS_2005

> <r_lp_Energy>
25.863

> <b_lp_Chiralities_Consistent>
1

> <s_lp_Variant>
AV-unprocessed.smi:1033-18

> <Gold.Version>
5.8.1

> <Gold.Id.Protein>
6NUR|6NUR_protein|mol2

> <Gold.PLP.Fitness>
60.3161

> <Gold.PLP.PLP>
-47.9522

> <Gold.PLP.part.hbond>
-3.9231

> <Gold.PLP.part.metal>
0.0000

> <Gold.PLP.part.buried>
2.0357

> <Gold.PLP.part.nonpolar>
-46.1684

> <Gold.PLP.part.repulsive>
0.0520

> <Gold.PLP.ligand.clash>
0.3132

> <Gold.PLP.ligand.torsion>
2.0651

> <Gold.PLP.Chemscore.Hbond>
5.5626

> <Gold.PLP.Chemscore.CHOScore>
0.0000

> <Gold.PLP.Chemscore.Metal>
0.0000

> <Gold.Chemscore.Hbonds>
donor molecule, donor type, donor heavy atom, donor atom, acceptor molecule, acceptor atom, score
      L1  H    10    34       P1  8028  0.94
      L1  H    12    57       P1 10175  1.95
      L1  H    15    56       P1  7948  2.00
      L1  H    19    47       P1 10186  0.66

> <Gold.PLP.Chemscore.Internal.Correction>
0.1194

> <Gold.Rescore>
     Score         DG    S(hbond)    S(metal)    S(lipo)     H(rot)  DE(clash)    DE(int)     intcor
     17.17     -21.65       2.47        0.00     136.44       3.14       2.37       2.11       ----

> <Gold.Chemscore.Fitness>
17.1712

> <Gold.Chemscore.DG>
-21.6491

> <Gold.Chemscore.ZeroCoef>
-5.4800

> <Gold.Chemscore.Hbond>
2.4666

> <Gold.Chemscore.Metal>
0.0000

> <Gold.Chemscore.Lipo>
136.4437

> <Gold.Chemscore.Internal_Hbond>
0.0000

> <Gold.Chemscore.DEClash>
2.3690

> <Gold.Chemscore.DEInternal>
2.1089

> <Gold.Chemscore.Rot>
3.1380

> <Gold.Chemscore.Internal.Correction>
   9.000000E+99

> <Gold.Chemscore.Hbonds>
donor molecule, donor type, donor heavy atom, donor atom, acceptor molecule, acceptor atom, score
      L1  H    10    34       P1  8028  0.36
      L1  H    12    57       P1 10175  0.91
      L1  H    15    56       P1  7948  1.00
      L1  H    19    47       P1 10186  0.09

> <Gold.Chemscore.Hbond.Weighted>
-8.2384

> <Gold.Chemscore.Metal.Weighted>
-0.0000

> <Gold.Chemscore.Lipo.Weighted>
-15.9639

> <Gold.Chemscore.Internal_Hbond.Weighted>
0.0000

> <Gold.Chemscore.DEClash.Weighted>
2.3690

> <Gold.Chemscore.DEInternal.Weighted>
2.1089

> <Gold.Chemscore.Rot.Weighted>
8.0332

> <Gold.Chemscore.Internal.Correction.Weighted>
   9.000000E+99

> <Gold.Protein.RotatedTorsions>
[ 6907 6896 6895 6894 ] final  155.00 input  -60.11 | X-H torsion
[ 7974 7965 7964 7962 ] final  123.67 input  175.53 | X-H torsion
[ 8008 7997 7996 7995 ] final  -31.63 input   59.86 | X-H torsion
[ 10167 10162 10161 10158 ] final  119.13 input  -65.29 | X-H torsion
[ 10718 10713 10712 10709 ] final  113.56 input   66.30 | X-H torsion
[ 10763 10752 10751 10750 ] final -133.32 input  -60.55 | X-H torsion
[ 11005 11000 10999 10996 ] final  -71.52 input  -57.11 | X-H torsion

> <Gold.Protein.ActiveResidues>
 VAL166  LYS551  ARG553  GLY616  TRP617  ASP618  TYR619  PRO620  LYS621  CYS622 
 ASP623  PHE694  ASN695  SER759  ASP760  ASP761  ALA762  ILE779  LEU786  VAL792 
 PHE793  MET794  SER795  GLU796  ALA797  LYS798  CYS799  TRP800  GLU811  SER814 

> <Gold.Protein.RotatedAtoms>
  152.0504  133.4016  159.4374 H   0  0  0  0  0  0  0  0  0  0  0  0  # atno 6907 bound_to 6896
  150.6870  134.3314  159.4838 H   0  0  0  0  0  0  0  0  0  0  0  0  # atno 6908 bound_to 6896
  152.1123  134.9265  160.0617 H   0  0  0  0  0  0  0  0  0  0  0  0  # atno 6909 bound_to 6896
  145.0932  139.3572  143.4850 H   0  0  0  0  0  0  0  0  0  0  0  0  # atno 7974 bound_to 7965
  154.4207  140.1759  156.1597 H   0  0  0  0  0  0  0  0  0  0  0  0  # atno 8008 bound_to 7997
  155.9848  140.3374  155.6672 H   0  0  0  0  0  0  0  0  0  0  0  0  # atno 8009 bound_to 7997
  155.6452  140.0684  157.2596 H   0  0  0  0  0  0  0  0  0  0  0  0  # atno 8010 bound_to 7997
  139.6066  144.7071  151.2939 H   0  0  0  0  0  0  0  0  0  0  0  0  # atno 10167 bound_to 10162
  157.6331  131.0985  150.7059 H   0  0  0  0  0  0  0  0  0  0  0  0  # atno 10718 bound_to 10713
  154.8734  135.3770  154.4553 H   0  0  0  0  0  0  0  0  0  0  0  0  # atno 10763 bound_to 10752
  153.5226  135.7028  153.5729 H   0  0  0  0  0  0  0  0  0  0  0  0  # atno 10764 bound_to 10752
  153.3969  135.3958  155.1927 H   0  0  0  0  0  0  0  0  0  0  0  0  # atno 10765 bound_to 10752
  141.1593  133.6820  156.6919 H   0  0  0  0  0  0  0  0  0  0  0  0  # atno 11005 bound_to 11000
  146.3531  140.0775  142.8619 LP  0  0  0  0  0  0  0  0  0  0  0  0  # atno 17320 bound_to 7965
  145.1042  140.9365  143.4695 LP  0  0  0  0  0  0  0  0  0  0  0  0  # atno 17321 bound_to 7965
  140.7289  143.6922  150.7913 LP  0  0  0  0  0  0  0  0  0  0  0  0  # atno 17342 bound_to 10162
  140.0509  143.5251  152.2674 LP  0  0  0  0  0  0  0  0  0  0  0  0  # atno 17343 bound_to 10162
  156.7395  130.4734  149.5481 LP  0  0  0  0  0  0  0  0  0  0  0  0  # atno 17370 bound_to 10713
  156.1549  130.6335  151.0644 LP  0  0  0  0  0  0  0  0  0  0  0  0  # atno 17371 bound_to 10713
  140.3024  134.8153  157.4109 LP  0  0  0  0  0  0  0  0  0  0  0  0  # atno 17394 bound_to 11000
  140.1250  134.5170  155.8152 LP  0  0  0  0  0  0  0  0  0  0  0  0  # atno 17395 bound_to 11000

$$$$
