AV-unprocessed.smi:2340|AV-procd|sdf|9348|dock3
  -GOLD-   2272012573D 1   1.00000     0.00000
 Structure written by MMmdl.
 40 41  0  0  0  0  0  0  0  0  1 V2000
  144.3030  132.3156  149.0395 C   0  0  0  0  0  0  0  0  0  0  0  0
  145.0467  132.8426  150.2260 C   0  0  0  0  0  0  0  0  0  0  0  0
  146.2925  132.4602  150.6568 C   0  0  0  0  0  0  0  0  0  0  0  0
  146.7815  133.3322  152.0833 S   0  0  0  0  0  0  0  0  0  0  0  0
  145.2487  134.2014  152.0426 C   0  0  0  0  0  0  0  0  0  0  0  0
  144.8572  135.2413  153.0463 C   0  0  2  0  0  0  0  0  0  0  0  0
  144.7403  136.6310  152.3968 C   0  0  0  0  0  0  0  0  0  0  0  0
  145.7908  135.2100  154.2756 C   0  0  0  0  0  0  0  0  0  0  0  0
  147.0636  135.8837  154.0372 N   0  0  0  0  0  0  0  0  0  0  0  0
  147.7442  136.5852  154.9538 C   0  0  0  0  0  0  0  0  0  0  0  0
  147.3704  136.7478  156.1153 O   0  0  0  0  0  0  0  0  0  0  0  0
  148.8837  137.0822  154.4528 N   0  0  0  0  0  0  0  0  0  0  0  0
  149.8501  137.8943  155.1931 C   0  0  2  0  0  0  0  0  0  0  0  0
  150.4265  138.9907  154.2978 C   0  0  0  0  0  0  0  0  0  0  0  0
  151.9347  138.8787  154.4947 C   0  0  0  0  0  0  0  0  0  0  0  0
  152.1254  137.5018  154.7661 O   0  0  0  0  0  0  0  0  0  0  0  0
  151.0966  137.1069  155.6617 C   0  0  2  0  0  0  0  0  0  0  0  0
  150.9983  135.5734  155.7066 C   0  0  0  0  0  0  0  0  0  0  0  0
  144.4664  133.8325  151.0240 N   0  0  0  0  0  0  0  0  0  0  0  0
  144.8474  131.5045  148.5551 H   0  0  0  0  0  0  0  0  0  0  0  0
  144.1452  133.0969  148.2959 H   0  0  0  0  0  0  0  0  0  0  0  0
  143.3251  131.9291  149.3274 H   0  0  0  0  0  0  0  0  0  0  0  0
  146.9499  131.7210  150.2234 H   0  0  0  0  0  0  0  0  0  0  0  0
  143.8572  134.9757  153.3934 H   0  0  0  0  0  0  0  0  0  0  0  0
  144.0477  136.6103  151.5550 H   0  0  0  0  0  0  0  0  0  0  0  0
  145.7046  136.9788  152.0254 H   0  0  0  0  0  0  0  0  0  0  0  0
  144.3692  137.3740  153.1028 H   0  0  0  0  0  0  0  0  0  0  0  0
  145.2963  135.6639  155.1362 H   0  0  0  0  0  0  0  0  0  0  0  0
  146.0062  134.1786  154.5558 H   0  0  0  0  0  0  0  0  0  0  0  0
  147.4540  135.8059  153.1096 H   0  0  0  0  0  0  0  0  0  0  0  0
  149.1040  136.8849  153.4877 H   0  0  0  0  0  0  0  0  0  0  0  0
  149.3689  138.3510  156.0599 H   0  0  0  0  0  0  0  0  0  0  0  0
  150.1872  138.8062  153.2492 H   0  0  0  0  0  0  0  0  0  0  0  0
  150.0509  139.9823  154.5517 H   0  0  0  0  0  0  0  0  0  0  0  0
  152.5004  139.2004  153.6200 H   0  0  0  0  0  0  0  0  0  0  0  0
  152.2611  139.4689  155.3524 H   0  0  0  0  0  0  0  0  0  0  0  0
  151.3764  137.4653  156.6541 H   0  0  0  0  0  0  0  0  0  0  0  0
  150.2070  135.2494  156.3832 H   0  0  0  0  0  0  0  0  0  0  0  0
  151.9327  135.1385  156.0616 H   0  0  0  0  0  0  0  0  0  0  0  0
  150.7959  135.1535  154.7211 H   0  0  0  0  0  0  0  0  0  0  0  0
  1  2  1  0  0  0  0
  1 20  1  0  0  0  0
  1 21  1  0  0  0  0
  1 22  1  0  0  0  0
  2 19  1  0  0  0  0
  2  3  2  0  0  0  0
  3  4  1  0  0  0  0
  3 23  1  0  0  0  0
  4  5  1  0  0  0  0
  5  6  1  0  0  0  0
  5 19  2  0  0  0  0
  6  7  1  0  0  0  0
  6  8  1  0  0  0  0
  6 24  1  0  0  0  0
  7 25  1  0  0  0  0
  7 26  1  0  0  0  0
  7 27  1  0  0  0  0
  8  9  1  0  0  0  0
  8 28  1  0  0  0  0
  8 29  1  0  0  0  0
  9 10  1  0  0  0  0
  9 30  1  0  0  0  0
 10 11  2  0  0  0  0
 10 12  1  0  0  0  0
 12 13  1  0  0  0  0
 12 31  1  0  0  0  0
 13 17  1  0  0  0  0
 13 14  1  0  0  0  0
 13 32  1  0  0  0  0
 14 15  1  0  0  0  0
 14 33  1  0  0  0  0
 14 34  1  0  0  0  0
 15 16  1  0  0  0  0
 15 35  1  0  0  0  0
 15 36  1  0  0  0  0
 16 17  1  0  0  0  0
 17 18  1  0  0  0  0
 17 37  1  0  0  0  0
 18 38  1  0  0  0  0
 18 39  1  0  0  0  0
 18 40  1  0  0  0  0
M  END
> <s_m_source_file>
AV-unprocessed.smi

> <i_m_source_file_index>
2340

> <i_lp_mmshare_version>
43012

> <i_f3d_flags>
0

> <s_epik_input>
W0NIM11jMVtjSF1zYyhuMSlbQ0BIXShbQ0gzXSlbQ0gyXVtOSF1DKD1PKVtOSF1bQ0BASF0yW0NIMl1bQ0gyXU9bQ0BIXTJbQ0gzXQ==

> <s_epik_cmdline>
J2VwaWtfcHl0aG9uJywgJy1waCcsICc3LjAnLCAnLXRuJywgJzgnLCAnLW1hJywgJzIwMCcsICctbWV0YWxfYmluZGluZycsICctaW1hZScsICc8aW5maWxlLm1hZT4nLCAnLW9tYWUnLCAnPG91dGZpbGUubWFlPic=

> <r_epik_Ionization_Penalty>
0.00156622

> <r_epik_Ionization_Penalty_Charging>
0

> <r_epik_Ionization_Penalty_Neutral>
0.00156622

> <r_epik_State_Penalty>
0.00101902

> <r_epik_Charging_Adjusted_Penalty>
0.00101902

> <i_epik_Tot_Q>
0

> <i_epik_Tot_abs_Q>
0

> <r_epik_Metal_State_Penalty>
-0

> <b_epik_Metal_Only>
0

> <s_lp_Force_Field>
OPLS_2005

> <r_lp_Energy>
6.07196

> <b_lp_Chiralities_Consistent>
1

> <s_lp_Variant>
AV-unprocessed.smi:2340-5

> <Gold.Version>
5.8.1

> <Gold.Id.Protein>
6NUR|6NUR_protein|mol2

> <Gold.PLP.Fitness>
39.3119

> <Gold.PLP.PLP>
-29.2689

> <Gold.PLP.part.hbond>
-3.0000

> <Gold.PLP.part.metal>
0.0000

> <Gold.PLP.part.buried>
-3.9703

> <Gold.PLP.part.nonpolar>
-22.1076

> <Gold.PLP.part.repulsive>
0.2802

> <Gold.PLP.ligand.clash>
0.0000

> <Gold.PLP.ligand.torsion>
0.7819

> <Gold.PLP.Chemscore.Hbond>
2.8400

> <Gold.PLP.Chemscore.CHOScore>
0.9997

> <Gold.PLP.Chemscore.Metal>
0.0000

> <Gold.Chemscore.Hbonds>
donor molecule, donor type, donor heavy atom, donor atom, acceptor molecule, acceptor atom, score
      L1  H     9    30       P1  7948  0.98
      L1  H    12    31       P1  7948  1.00
      P1  H 10752 10764       L1    16  0.62
      L1  C     3    23       P1 10747  1.00

> <Gold.PLP.Chemscore.Internal.Correction>
0.0876

> <Gold.Rescore>
     Score         DG    S(hbond)    S(metal)    S(lipo)     H(rot)  DE(clash)    DE(int)     intcor
     18.39     -19.61       2.69        0.00      77.48       1.53       0.23       0.98       ----

> <Gold.Chemscore.Fitness>
18.3943

> <Gold.Chemscore.DG>
-19.6124

> <Gold.Chemscore.ZeroCoef>
-5.4800

> <Gold.Chemscore.Hbond>
2.6918

> <Gold.Chemscore.Metal>
0.0000

> <Gold.Chemscore.Lipo>
77.4799

> <Gold.Chemscore.Internal_Hbond>
0.0000

> <Gold.Chemscore.DEClash>
0.2339

> <Gold.Chemscore.DEInternal>
0.9842

> <Gold.Chemscore.Rot>
1.5325

> <Gold.Chemscore.Internal.Correction>
   9.000000E+99

> <Gold.Chemscore.Hbonds>
donor molecule, donor type, donor heavy atom, donor atom, acceptor molecule, acceptor atom, score
      L1  H     9    30       P1  7948  0.90
      L1  H    12    31       P1  7948  0.99
      P1  H 10752 10764       L1    16  0.10

> <Gold.Chemscore.Hbond.Weighted>
-8.9906

> <Gold.Chemscore.Metal.Weighted>
-0.0000

> <Gold.Chemscore.Lipo.Weighted>
-9.0652

> <Gold.Chemscore.Internal_Hbond.Weighted>
0.0000

> <Gold.Chemscore.DEClash.Weighted>
0.2339

> <Gold.Chemscore.DEInternal.Weighted>
0.9842

> <Gold.Chemscore.Rot.Weighted>
3.9233

> <Gold.Chemscore.Internal.Correction.Weighted>
   9.000000E+99

> <Gold.Protein.RotatedTorsions>
[ 6907 6896 6895 6894 ] final   22.08 input  -60.11 | X-H torsion
[ 7974 7965 7964 7962 ] final  -98.05 input  175.53 | X-H torsion
[ 8008 7997 7996 7995 ] final -172.32 input   59.86 | X-H torsion
[ 10167 10162 10161 10158 ] final  160.08 input  -65.29 | X-H torsion
[ 10718 10713 10712 10709 ] final   60.58 input   66.30 | X-H torsion
[ 10763 10752 10751 10750 ] final  -64.56 input  -60.55 | X-H torsion
[ 11005 11000 10999 10996 ] final  108.51 input  -57.11 | X-H torsion

> <Gold.Protein.ActiveResidues>
 VAL166  LYS551  ARG553  GLY616  TRP617  ASP618  TYR619  PRO620  LYS621  CYS622 
 ASP623  PHE694  ASN695  SER759  ASP760  ASP761  ALA762  ILE779  LEU786  VAL792 
 PHE793  MET794  SER795  GLU796  ALA797  LYS798  CYS799  TRP800  GLU811  SER814 

> <Gold.Protein.RotatedAtoms>
  151.9216  135.0295  160.0522 H   0  0  0  0  0  0  0  0  0  0  0  0  # atno 6907 bound_to 6896
  152.2194  133.4967  159.5162 H   0  0  0  0  0  0  0  0  0  0  0  0  # atno 6908 bound_to 6896
  150.6996  134.1279  159.4101 H   0  0  0  0  0  0  0  0  0  0  0  0  # atno 6909 bound_to 6896
  145.3257  140.9431  143.2690 H   0  0  0  0  0  0  0  0  0  0  0  0  # atno 7974 bound_to 7965
  155.9430  140.1112  157.1040 H   0  0  0  0  0  0  0  0  0  0  0  0  # atno 8008 bound_to 7997
  154.4093  140.1215  156.5018 H   0  0  0  0  0  0  0  0  0  0  0  0  # atno 8009 bound_to 7997
  155.6938  140.3472  155.4906 H   0  0  0  0  0  0  0  0  0  0  0  0  # atno 8010 bound_to 7997
  139.4837  144.4668  151.8630 H   0  0  0  0  0  0  0  0  0  0  0  0  # atno 10167 bound_to 10162
  157.5764  130.8947  149.9354 H   0  0  0  0  0  0  0  0  0  0  0  0  # atno 10718 bound_to 10713
  154.3320  135.6174  153.5555 H   0  0  0  0  0  0  0  0  0  0  0  0  # atno 10763 bound_to 10752
  152.9811  135.5749  154.4951 H   0  0  0  0  0  0  0  0  0  0  0  0  # atno 10764 bound_to 10752
  154.4639  135.2857  155.1669 H   0  0  0  0  0  0  0  0  0  0  0  0  # atno 10765 bound_to 10752
  139.8845  134.9432  156.5983 H   0  0  0  0  0  0  0  0  0  0  0  0  # atno 11005 bound_to 11000
  144.8903  139.4783  143.6681 LP  0  0  0  0  0  0  0  0  0  0  0  0  # atno 17320 bound_to 7965
  146.3065  139.7597  142.9052 LP  0  0  0  0  0  0  0  0  0  0  0  0  # atno 17321 bound_to 7965
  140.4134  144.2338  150.5888 LP  0  0  0  0  0  0  0  0  0  0  0  0  # atno 17342 bound_to 10162
  140.4944  143.2337  151.8771 LP  0  0  0  0  0  0  0  0  0  0  0  0  # atno 17343 bound_to 10162
  156.0809  130.3673  150.0583 LP  0  0  0  0  0  0  0  0  0  0  0  0  # atno 17370 bound_to 10713
  156.8729  130.9530  151.3607 LP  0  0  0  0  0  0  0  0  0  0  0  0  # atno 17371 bound_to 10713
  140.7903  133.8588  155.8640 LP  0  0  0  0  0  0  0  0  0  0  0  0  # atno 17394 bound_to 11000
  140.9683  134.1565  157.4597 LP  0  0  0  0  0  0  0  0  0  0  0  0  # atno 17395 bound_to 11000

$$$$
