AV-unprocessed.smi:2393|AV-procd|sdf|9488|dock1
  -GOLD-   2272013113D 1   1.00000     0.00000
 Structure written by MMmdl.
 43 44  0  0  0  0  0  0  0  0  1 V2000
  144.2374  132.0951  149.9657 C   0  0  0  0  0  0  0  0  0  0  0  0
  144.0431  133.2318  150.9473 C   0  0  0  0  0  0  0  0  0  0  0  0
  142.7911  133.4614  151.5495 C   0  0  0  0  0  0  0  0  0  0  0  0
  142.6764  134.5332  152.4565 C   0  0  0  0  0  0  0  0  0  0  0  0
  141.3599  134.8383  153.1400 C   0  0  0  0  0  0  0  0  0  0  0  0
  143.7092  135.3427  152.7742 N   0  0  0  0  0  0  0  0  0  0  0  0
  144.9198  135.1306  152.2008 C   0  0  0  0  0  0  0  0  0  0  0  0
  146.0646  135.9299  152.4603 N   0  0  0  0  0  0  0  0  0  0  0  0
  146.2050  136.9057  153.3750 C   0  0  0  0  0  0  0  0  0  0  0  0
  145.3551  137.2316  154.2044 O   0  0  0  0  0  0  0  0  0  0  0  0
  147.4099  137.4879  153.2837 N   0  0  0  0  0  0  0  0  0  0  0  0
  147.8810  138.5775  154.1343 C   0  0  2  0  0  0  0  0  0  0  0  0
  147.7552  139.9135  153.3932 C   0  0  0  0  0  0  0  0  0  0  0  0
  148.3469  141.0518  154.2360 C   0  0  0  0  0  0  0  0  0  0  0  0
  149.7044  140.7703  154.5714 O   0  0  0  0  0  0  0  0  0  0  0  0
  149.9395  139.5653  155.3083 C   0  0  0  0  0  0  0  0  0  0  0  0
  151.4696  139.4363  155.3863 C   0  0  0  0  0  0  0  0  0  0  0  0
  149.3723  139.6772  156.7402 C   0  0  0  0  0  0  0  0  0  0  0  0
  149.3510  138.3601  154.5351 C   0  0  0  0  0  0  0  0  0  0  0  0
  145.1189  134.0804  151.2768 C   0  0  0  0  0  0  0  0  0  0  0  0
  143.2917  131.6029  149.7364 H   0  0  0  0  0  0  0  0  0  0  0  0
  144.9181  131.3519  150.3815 H   0  0  0  0  0  0  0  0  0  0  0  0
  144.6622  132.4672  149.0332 H   0  0  0  0  0  0  0  0  0  0  0  0
  141.9416  132.8335  151.3227 H   0  0  0  0  0  0  0  0  0  0  0  0
  140.5491  134.2427  152.7196 H   0  0  0  0  0  0  0  0  0  0  0  0
  141.1029  135.8914  153.0220 H   0  0  0  0  0  0  0  0  0  0  0  0
  141.4284  134.6185  154.2057 H   0  0  0  0  0  0  0  0  0  0  0  0
  146.8641  135.7465  151.8725 H   0  0  0  0  0  0  0  0  0  0  0  0
  148.0472  137.1568  152.5743 H   0  0  0  0  0  0  0  0  0  0  0  0
  147.2593  138.6230  155.0298 H   0  0  0  0  0  0  0  0  0  0  0  0
  148.2811  139.8623  152.4385 H   0  0  0  0  0  0  0  0  0  0  0  0
  146.7099  140.1241  153.1643 H   0  0  0  0  0  0  0  0  0  0  0  0
  148.3196  141.9826  153.6697 H   0  0  0  0  0  0  0  0  0  0  0  0
  147.7526  141.2226  155.1336 H   0  0  0  0  0  0  0  0  0  0  0  0
  151.7652  138.5318  155.9187 H   0  0  0  0  0  0  0  0  0  0  0  0
  151.9115  140.2867  155.9070 H   0  0  0  0  0  0  0  0  0  0  0  0
  151.9157  139.3957  154.3920 H   0  0  0  0  0  0  0  0  0  0  0  0
  149.6363  138.8007  157.3329 H   0  0  0  0  0  0  0  0  0  0  0  0
  148.2864  139.7570  156.7601 H   0  0  0  0  0  0  0  0  0  0  0  0
  149.7727  140.5525  157.2526 H   0  0  0  0  0  0  0  0  0  0  0  0
  149.4520  137.4496  155.1273 H   0  0  0  0  0  0  0  0  0  0  0  0
  149.9372  138.1973  153.6291 H   0  0  0  0  0  0  0  0  0  0  0  0
  146.0882  133.9228  150.8258 H   0  0  0  0  0  0  0  0  0  0  0  0
  1  2  1  0  0  0  0
  1 21  1  0  0  0  0
  1 22  1  0  0  0  0
  1 23  1  0  0  0  0
  2 20  1  0  0  0  0
  2  3  2  0  0  0  0
  3  4  1  0  0  0  0
  3 24  1  0  0  0  0
  4  5  1  0  0  0  0
  4  6  2  0  0  0  0
  5 25  1  0  0  0  0
  5 26  1  0  0  0  0
  5 27  1  0  0  0  0
  6  7  1  0  0  0  0
  7  8  1  0  0  0  0
  7 20  2  0  0  0  0
  8  9  1  0  0  0  0
  8 28  1  0  0  0  0
  9 10  2  0  0  0  0
  9 11  1  0  0  0  0
 11 12  1  0  0  0  0
 11 29  1  0  0  0  0
 12 19  1  0  0  0  0
 12 13  1  0  0  0  0
 12 30  1  0  0  0  0
 13 14  1  0  0  0  0
 13 31  1  0  0  0  0
 13 32  1  0  0  0  0
 14 15  1  0  0  0  0
 14 33  1  0  0  0  0
 14 34  1  0  0  0  0
 15 16  1  0  0  0  0
 16 17  1  0  0  0  0
 16 18  1  0  0  0  0
 16 19  1  0  0  0  0
 17 35  1  0  0  0  0
 17 36  1  0  0  0  0
 17 37  1  0  0  0  0
 18 38  1  0  0  0  0
 18 39  1  0  0  0  0
 18 40  1  0  0  0  0
 19 41  1  0  0  0  0
 19 42  1  0  0  0  0
 20 43  1  0  0  0  0
M  END
> <s_m_source_file>
AV-unprocessed.smi

> <i_m_source_file_index>
2393

> <i_lp_mmshare_version>
43012

> <i_f3d_flags>
0

> <s_epik_input>
W0NIM11jMVtjSF1jKFtDSDNdKW5jKFtjSF0xKVtOSF1DKD1PKVtOSF1bQ0BASF0oW0NIMl0yKVtDSDJdW0NIMl1PQzIoW0NIM10pW0NIM10=

> <s_epik_cmdline>
J2VwaWtfcHl0aG9uJywgJy1waCcsICc3LjAnLCAnLXRuJywgJzgnLCAnLW1hJywgJzIwMCcsICctbWV0YWxfYmluZGluZycsICctaW1hZScsICc8aW5maWxlLm1hZT4nLCAnLW9tYWUnLCAnPG91dGZpbGUubWFlPic=

> <r_lp_tautomer_probability>
1

> <r_epik_Ionization_Penalty>
0.000261351

> <r_epik_Ionization_Penalty_Charging>
0

> <r_epik_Ionization_Penalty_Neutral>
0.000261351

> <r_epik_State_Penalty>
-0

> <r_epik_Charging_Adjusted_Penalty>
0

> <i_epik_Tot_Q>
0

> <i_epik_Tot_abs_Q>
0

> <r_epik_Metal_State_Penalty>
-0

> <b_epik_Metal_Only>
0

> <s_lp_Force_Field>
OPLS_2005

> <r_lp_Energy>
12.7135

> <b_lp_Chiralities_Consistent>
1

> <s_lp_Variant>
AV-unprocessed.smi:2393-1

> <Gold.Version>
5.8.1

> <Gold.Id.Protein>
6NUR|6NUR_protein|mol2

> <Gold.PLP.Fitness>
39.1840

> <Gold.PLP.PLP>
-31.9341

> <Gold.PLP.part.hbond>
-2.9413

> <Gold.PLP.part.metal>
0.0000

> <Gold.PLP.part.buried>
-1.2194

> <Gold.PLP.part.nonpolar>
-27.7994

> <Gold.PLP.part.repulsive>
0.3015

> <Gold.PLP.ligand.clash>
0.0000

> <Gold.PLP.ligand.torsion>
0.2753

> <Gold.PLP.Chemscore.Hbond>
2.6000

> <Gold.PLP.Chemscore.CHOScore>
0.0000

> <Gold.PLP.Chemscore.Metal>
0.0000

> <Gold.Chemscore.Hbonds>
donor molecule, donor type, donor heavy atom, donor atom, acceptor molecule, acceptor atom, score
      L1  H     8    28       P1  7948  0.61
      L1  H    11    29       P1  7948  0.84
      P1  H  7989  7998       L1    15  0.39

> <Gold.PLP.Chemscore.Internal.Correction>
0.0005

> <Gold.Rescore>
     Score         DG    S(hbond)    S(metal)    S(lipo)     H(rot)  DE(clash)    DE(int)     intcor
     16.48     -18.14       1.92        0.00      75.15       1.00       0.02       1.63       ----

> <Gold.Chemscore.Fitness>
16.4830

> <Gold.Chemscore.DG>
-18.1412

> <Gold.Chemscore.ZeroCoef>
-5.4800

> <Gold.Chemscore.Hbond>
1.9249

> <Gold.Chemscore.Metal>
0.0000

> <Gold.Chemscore.Lipo>
75.1467

> <Gold.Chemscore.Internal_Hbond>
0.0000

> <Gold.Chemscore.DEClash>
0.0234

> <Gold.Chemscore.DEInternal>
1.6347

> <Gold.Chemscore.Rot>
1.0000

> <Gold.Chemscore.Internal.Correction>
   9.000000E+99

> <Gold.Chemscore.Hbonds>
donor molecule, donor type, donor heavy atom, donor atom, acceptor molecule, acceptor atom, score
      L1  H     8    28       P1  7948  0.61
      L1  H    11    29       P1  7948  0.84
      P1  H  7989  7998       L1    15  0.09

> <Gold.Chemscore.Hbond.Weighted>
-6.4290

> <Gold.Chemscore.Metal.Weighted>
-0.0000

> <Gold.Chemscore.Lipo.Weighted>
-8.7922

> <Gold.Chemscore.Internal_Hbond.Weighted>
0.0000

> <Gold.Chemscore.DEClash.Weighted>
0.0234

> <Gold.Chemscore.DEInternal.Weighted>
1.6347

> <Gold.Chemscore.Rot.Weighted>
2.5600

> <Gold.Chemscore.Internal.Correction.Weighted>
   9.000000E+99

> <Gold.Protein.RotatedTorsions>
[ 6907 6896 6895 6894 ] final -113.13 input  -60.11 | X-H torsion
[ 7974 7965 7964 7962 ] final  -32.91 input  175.53 | X-H torsion
[ 8008 7997 7996 7995 ] final -131.14 input   59.86 | X-H torsion
[ 10167 10162 10161 10158 ] final  -74.49 input  -65.29 | X-H torsion
[ 10718 10713 10712 10709 ] final   46.70 input   66.30 | X-H torsion
[ 10763 10752 10751 10750 ] final   89.46 input  -60.55 | X-H torsion
[ 11005 11000 10999 10996 ] final  158.00 input  -57.11 | X-H torsion

> <Gold.Protein.ActiveResidues>
 VAL166  LYS551  ARG553  GLY616  TRP617  ASP618  TYR619  PRO620  LYS621  CYS622 
 ASP623  PHE694  ASN695  SER759  ASP760  ASP761  ALA762  ILE779  LEU786  VAL792 
 PHE793  MET794  SER795  GLU796  ALA797  LYS798  CYS799  TRP800  GLU811  SER814 

> <Gold.Protein.RotatedAtoms>
  150.7807  133.8990  159.3335 H   0  0  0  0  0  0  0  0  0  0  0  0  # atno 6907 bound_to 6896
  151.6853  135.0953  160.0233 H   0  0  0  0  0  0  0  0  0  0  0  0  # atno 6908 bound_to 6896
  152.3857  133.6569  159.6232 H   0  0  0  0  0  0  0  0  0  0  0  0  # atno 6909 bound_to 6896
  146.0952  140.5851  142.8846 H   0  0  0  0  0  0  0  0  0  0  0  0  # atno 7974 bound_to 7965
  155.3074  140.0455  157.3033 H   0  0  0  0  0  0  0  0  0  0  0  0  # atno 8008 bound_to 7997
  154.5452  140.2300  155.8541 H   0  0  0  0  0  0  0  0  0  0  0  0  # atno 8009 bound_to 7997
  156.1918  140.3048  155.9353 H   0  0  0  0  0  0  0  0  0  0  0  0  # atno 8010 bound_to 7997
  140.5022  143.2359  151.7732 H   0  0  0  0  0  0  0  0  0  0  0  0  # atno 10167 bound_to 10162
  157.4508  130.8137  149.7787 H   0  0  0  0  0  0  0  0  0  0  0  0  # atno 10718 bound_to 10713
  153.1874  135.4469  155.0105 H   0  0  0  0  0  0  0  0  0  0  0  0  # atno 10763 bound_to 10752
  154.8069  135.3278  154.7411 H   0  0  0  0  0  0  0  0  0  0  0  0  # atno 10764 bound_to 10752
  153.7869  135.6973  153.4933 H   0  0  0  0  0  0  0  0  0  0  0  0  # atno 10765 bound_to 10752
  140.1823  134.8467  157.2817 H   0  0  0  0  0  0  0  0  0  0  0  0  # atno 11005 bound_to 11000
  144.7390  140.4890  143.6883 LP  0  0  0  0  0  0  0  0  0  0  0  0  # atno 17320 bound_to 7965
  145.5961  139.1499  143.3155 LP  0  0  0  0  0  0  0  0  0  0  0  0  # atno 17321 bound_to 7965
  139.4875  144.4506  151.9659 LP  0  0  0  0  0  0  0  0  0  0  0  0  # atno 17342 bound_to 10162
  140.3595  144.2990  150.5936 LP  0  0  0  0  0  0  0  0  0  0  0  0  # atno 17343 bound_to 10162
  155.9986  130.3893  150.2694 LP  0  0  0  0  0  0  0  0  0  0  0  0  # atno 17370 bound_to 10713
  157.0866  131.0158  151.3137 LP  0  0  0  0  0  0  0  0  0  0  0  0  # atno 17371 bound_to 10713
  140.2253  134.3974  155.7546 LP  0  0  0  0  0  0  0  0  0  0  0  0  # atno 17394 bound_to 11000
  141.2223  133.7187  156.8556 LP  0  0  0  0  0  0  0  0  0  0  0  0  # atno 17395 bound_to 11000

$$$$
