AV-unprocessed.smi:1810|AV-procd|sdf|7334|dock2
  -GOLD-   22720 8593D 1   1.00000     0.00000
 Structure written by MMmdl.
 39 40  0  0  0  0  0  0  0  0  2 V2000
  151.2169  145.5375  160.1452 C   0  0  0  0  0  0  0  0  0  0  0  0
  151.6302  144.1982  159.5970 C   0  0  0  0  0  0  0  0  0  0  0  0
  151.2745  143.9321  158.3831 N   0  0  0  0  0  0  0  0  0  0  0  0
  151.6047  142.7326  157.7834 N   0  0  0  0  0  0  0  0  0  0  0  0
  151.1097  142.5949  156.4095 C   0  0  0  0  0  0  0  0  0  0  0  0
  150.1516  141.4021  156.2716 C   0  0  0  0  0  0  0  0  0  0  0  0
  150.5766  140.6024  155.1768 O   0  0  0  0  0  0  0  0  0  0  0  0
  150.6091  139.2340  155.3427 C   0  0  0  0  0  0  0  0  0  0  0  0
  151.4083  138.3554  154.5665 C   0  0  0  0  0  0  0  0  0  0  0  0
  151.3794  136.9671  154.8022 C   0  0  0  0  0  0  0  0  0  0  0  0
  150.5519  136.4450  155.8155 C   0  0  0  0  0  0  0  0  0  0  0  0
  150.5207  134.6777  156.1156 S   0  0  0  0  0  0  0  0  0  0  0  0
  149.8736  134.7307  157.5933 N   0  5  0  0  0  0  0  0  0  0  0  0
  149.6118  134.0957  155.1159 O   0  0  0  0  0  0  0  0  0  0  0  0
  151.9223  134.2297  156.1220 O   0  0  0  0  0  0  0  0  0  0  0  0
  149.7542  137.3061  156.5944 C   0  0  0  0  0  0  0  0  0  0  0  0
  149.7870  138.6931  156.3538 C   0  0  0  0  0  0  0  0  0  0  0  0
  152.3134  141.7336  158.3822 C   0  0  0  0  0  0  0  0  0  0  0  0
  152.5828  140.6765  157.8099 O   0  0  0  0  0  0  0  0  0  0  0  0
  152.7123  142.0406  159.7577 C   0  0  0  0  0  0  0  0  0  0  0  0
  153.4572  141.0204  160.4224 C   0  0  0  0  0  0  0  0  0  0  0  0
  154.0670  140.2068  160.9760 N   0  0  0  0  0  0  0  0  0  0  0  0
  152.3941  143.2149  160.3583 C   0  0  0  0  0  0  0  0  0  0  0  0
  152.7846  143.5825  161.7833 C   0  0  0  0  0  0  0  0  0  0  0  0
  152.0869  146.1082  160.4704 H   0  0  0  0  0  0  0  0  0  0  0  0
  150.5522  145.4164  161.0007 H   0  0  0  0  0  0  0  0  0  0  0  0
  150.6909  146.1373  159.4008 H   0  0  0  0  0  0  0  0  0  0  0  0
  150.5945  143.5084  156.1070 H   0  0  0  0  0  0  0  0  0  0  0  0
  151.9433  142.4888  155.7128 H   0  0  0  0  0  0  0  0  0  0  0  0
  150.1538  140.8122  157.1895 H   0  0  0  0  0  0  0  0  0  0  0  0
  149.1364  141.7639  156.1001 H   0  0  0  0  0  0  0  0  0  0  0  0
  152.0526  138.7209  153.7816 H   0  0  0  0  0  0  0  0  0  0  0  0
  151.9893  136.3078  154.2024 H   0  0  0  0  0  0  0  0  0  0  0  0
  148.8563  134.6275  157.4985 H   0  0  0  0  0  0  0  0  0  0  0  0
  149.1164  136.9103  157.3707 H   0  0  0  0  0  0  0  0  0  0  0  0
  149.1728  139.3499  156.9522 H   0  0  0  0  0  0  0  0  0  0  0  0
  153.3170  142.7760  162.2869 H   0  0  0  0  0  0  0  0  0  0  0  0
  151.8991  143.8095  162.3780 H   0  0  0  0  0  0  0  0  0  0  0  0
  153.4356  144.4575  161.7867 H   0  0  0  0  0  0  0  0  0  0  0  0
  1  2  1  0  0  0  0
  1 25  1  0  0  0  0
  1 26  1  0  0  0  0
  1 27  1  0  0  0  0
  2 23  1  0  0  0  0
  2  3  2  0  0  0  0
  3  4  1  0  0  0  0
  4  5  1  0  0  0  0
  4 18  1  0  0  0  0
  5  6  1  0  0  0  0
  5 28  1  0  0  0  0
  5 29  1  0  0  0  0
  6  7  1  0  0  0  0
  6 30  1  0  0  0  0
  6 31  1  0  0  0  0
  7  8  1  0  0  0  0
  8 17  1  0  0  0  0
  8  9  2  0  0  0  0
  9 10  1  0  0  0  0
  9 32  1  0  0  0  0
 10 11  2  0  0  0  0
 10 33  1  0  0  0  0
 11 12  1  0  0  0  0
 11 16  1  0  0  0  0
 12 13  1  0  0  0  0
 12 14  2  0  0  0  0
 12 15  2  0  0  0  0
 13 34  1  0  0  0  0
 16 17  2  0  0  0  0
 16 35  1  0  0  0  0
 17 36  1  0  0  0  0
 18 19  2  0  0  0  0
 18 20  1  0  0  0  0
 20 21  1  0  0  0  0
 20 23  2  0  0  0  0
 21 22  3  0  0  0  0
 23 24  1  0  0  0  0
 24 37  1  0  0  0  0
 24 38  1  0  0  0  0
 24 39  1  0  0  0  0
M  CHG  1  13  -1
M  END
> <s_m_source_file>
AV-unprocessed.smi

> <i_m_source_file_index>
1810

> <i_lp_mmshare_version>
43012

> <i_f3d_flags>
0

> <s_epik_input>
TiNDYyhjMVtDSDNdKWMoPU8pbihuYzFbQ0gzXSlbQ0gyXVtDSDJdT2MyW2NIXVtjSF1jKFMoPU8pKD1PKVtOSDJdKVtjSF1bY0hdMg==

> <s_epik_cmdline>
J2VwaWtfcHl0aG9uJywgJy1waCcsICc3LjAnLCAnLXRuJywgJzgnLCAnLW1hJywgJzIwMCcsICctbWV0YWxfYmluZGluZycsICctaW1hZScsICc8aW5maWxlLm1hZT4nLCAnLW9tYWUnLCAnPG91dGZpbGUubWFlPic=

> <r_lp_tautomer_probability>
1

> <r_epik_Ionization_Penalty>
4.40921

> <r_epik_Ionization_Penalty_Charging>
4.40921

> <r_epik_Ionization_Penalty_Neutral>
1.83918e-13

> <r_epik_State_Penalty>
4.40908

> <r_epik_Charging_Adjusted_Penalty>
8.81829

> <i_epik_Tot_Q>
-1

> <i_epik_Tot_abs_Q>
1

> <r_epik_Metal_State_Penalty>
0.775711

> <b_epik_Metal_Only>
1

> <s_lp_Force_Field>
OPLS_2005

> <r_lp_Energy>
29.6197

> <b_lp_Chiralities_Consistent>
1

> <s_lp_Variant>
AV-unprocessed.smi:1810-2

> <Gold.Version>
5.8.1

> <Gold.Id.Protein>
6NUR|6NUR_protein|mol2

> <Gold.PLP.Fitness>
49.0186

> <Gold.PLP.PLP>
-40.6107

> <Gold.PLP.part.hbond>
-3.9102

> <Gold.PLP.part.metal>
0.0000

> <Gold.PLP.part.buried>
-3.3851

> <Gold.PLP.part.nonpolar>
-31.9331

> <Gold.PLP.part.repulsive>
0.2591

> <Gold.PLP.ligand.clash>
0.5560

> <Gold.PLP.ligand.torsion>
2.1799

> <Gold.PLP.Chemscore.Hbond>
3.7249

> <Gold.PLP.Chemscore.CHOScore>
0.0000

> <Gold.PLP.Chemscore.Metal>
0.0000

> <Gold.Chemscore.Hbonds>
donor molecule, donor type, donor heavy atom, donor atom, acceptor molecule, acceptor atom, score
      P1  H  6896  6907       L1    13  1.82
      P1  H  7989  7998       L1     7  0.94
      P1  H  7997  8008       L1    19  0.46
      P1  H 10752 10765       L1    15  0.56

> <Gold.PLP.Chemscore.Internal.Correction>
2.1489

> <Gold.Rescore>
     Score         DG    S(hbond)    S(metal)    S(lipo)     H(rot)  DE(clash)    DE(int)     intcor
     16.46     -20.24       2.40        0.00      99.98       1.94       0.59       3.19       ----

> <Gold.Chemscore.Fitness>
16.4561

> <Gold.Chemscore.DG>
-20.2381

> <Gold.Chemscore.ZeroCoef>
-5.4800

> <Gold.Chemscore.Hbond>
2.4022

> <Gold.Chemscore.Metal>
0.0000

> <Gold.Chemscore.Lipo>
99.9750

> <Gold.Chemscore.Internal_Hbond>
0.0000

> <Gold.Chemscore.DEClash>
0.5882

> <Gold.Chemscore.DEInternal>
3.1937

> <Gold.Chemscore.Rot>
1.9384

> <Gold.Chemscore.Internal.Correction>
   9.000000E+99

> <Gold.Chemscore.Hbonds>
donor molecule, donor type, donor heavy atom, donor atom, acceptor molecule, acceptor atom, score
      P1  H  6896  6907       L1    13  0.78
      P1  H  7989  7998       L1     7  0.35
      P1  H  7997  8008       L1    19  0.46
      P1  H 10752 10765       L1    15  0.48

> <Gold.Chemscore.Hbond.Weighted>
-8.0232

> <Gold.Chemscore.Metal.Weighted>
-0.0000

> <Gold.Chemscore.Lipo.Weighted>
-11.6971

> <Gold.Chemscore.Internal_Hbond.Weighted>
0.0000

> <Gold.Chemscore.DEClash.Weighted>
0.5882

> <Gold.Chemscore.DEInternal.Weighted>
3.1937

> <Gold.Chemscore.Rot.Weighted>
4.9622

> <Gold.Chemscore.Internal.Correction.Weighted>
   9.000000E+99

> <Gold.Protein.RotatedTorsions>
[ 6907 6896 6895 6894 ] final  -97.90 input  -60.11 | X-H torsion
[ 7974 7965 7964 7962 ] final   42.81 input  175.53 | X-H torsion
[ 8008 7997 7996 7995 ] final  -71.69 input   59.86 | X-H torsion
[ 10167 10162 10161 10158 ] final  -22.86 input  -65.29 | X-H torsion
[ 10718 10713 10712 10709 ] final -126.15 input   66.30 | X-H torsion
[ 10763 10752 10751 10750 ] final -145.98 input  -60.55 | X-H torsion
[ 11005 11000 10999 10996 ] final  128.13 input  -57.11 | X-H torsion

> <Gold.Protein.ActiveResidues>
 VAL166  LYS551  ARG553  GLY616  TRP617  ASP618  TYR619  PRO620  LYS621  CYS622 
 ASP623  PHE694  ASN695  SER759  ASP760  ASP761  ALA762  ILE779  LEU786  VAL792 
 PHE793  MET794  SER795  GLU796  ALA797  LYS798  CYS799  TRP800  GLU811  SER814 

> <Gold.Protein.RotatedAtoms>
  150.7030  134.1277  159.4057 H   0  0  0  0  0  0  0  0  0  0  0  0  # atno 6907 bound_to 6896
  151.9263  135.0274  160.0535 H   0  0  0  0  0  0  0  0  0  0  0  0  # atno 6908 bound_to 6896
  152.2214  133.4951  159.5201 H   0  0  0  0  0  0  0  0  0  0  0  0  # atno 6909 bound_to 6896
  146.0709  139.5258  142.9598 H   0  0  0  0  0  0  0  0  0  0  0  0  # atno 7974 bound_to 7965
  154.5108  140.0811  156.7985 H   0  0  0  0  0  0  0  0  0  0  0  0  # atno 8008 bound_to 7997
  155.3790  140.3427  155.4228 H   0  0  0  0  0  0  0  0  0  0  0  0  # atno 8009 bound_to 7997
  156.1570  140.1576  156.8663 H   0  0  0  0  0  0  0  0  0  0  0  0  # atno 8010 bound_to 7997
  140.7287  143.4496  151.0535 H   0  0  0  0  0  0  0  0  0  0  0  0  # atno 10167 bound_to 10162
  156.1739  130.6686  151.0217 H   0  0  0  0  0  0  0  0  0  0  0  0  # atno 10718 bound_to 10713
  154.8358  135.3398  154.6590 H   0  0  0  0  0  0  0  0  0  0  0  0  # atno 10763 bound_to 10752
  153.7205  135.6958  153.5018 H   0  0  0  0  0  0  0  0  0  0  0  0  # atno 10764 bound_to 10752
  153.2385  135.4392  155.0625 H   0  0  0  0  0  0  0  0  0  0  0  0  # atno 10765 bound_to 10752
  139.9544  134.9616  156.8956 H   0  0  0  0  0  0  0  0  0  0  0  0  # atno 11005 bound_to 11000
  145.6393  141.0287  143.1820 LP  0  0  0  0  0  0  0  0  0  0  0  0  # atno 17320 bound_to 7965
  144.7231  139.7964  143.7375 LP  0  0  0  0  0  0  0  0  0  0  0  0  # atno 17321 bound_to 7965
  139.8171  143.7871  152.3175 LP  0  0  0  0  0  0  0  0  0  0  0  0  # atno 17342 bound_to 10162
  139.7940  144.7399  150.9915 LP  0  0  0  0  0  0  0  0  0  0  0  0  # atno 17343 bound_to 10162
  157.6822  131.0835  150.7339 LP  0  0  0  0  0  0  0  0  0  0  0  0  # atno 17370 bound_to 10713
  156.7397  130.4735  149.5480 LP  0  0  0  0  0  0  0  0  0  0  0  0  # atno 17371 bound_to 10713
  140.5644  134.0504  155.7409 LP  0  0  0  0  0  0  0  0  0  0  0  0  # atno 17394 bound_to 11000
  141.1213  133.9457  157.2724 LP  0  0  0  0  0  0  0  0  0  0  0  0  # atno 17395 bound_to 11000

$$$$
