AV-unprocessed.smi:35|AV-procd|sdf|249|dock1
  -GOLD-   2262016 13D 1   1.00000     0.00000
 Structure written by MMmdl.
 29 30  0  0  0  0  0  0  0  0  1 V2000
  150.3401  134.5545  157.3821 O   0  0  0  0  0  0  0  0  0  0  0  0
  150.4261  135.6915  156.9233 C   0  0  0  0  0  0  0  0  0  0  0  0
  151.1662  135.9304  155.7616 N   0  0  0  0  0  0  0  0  0  0  0  0
  151.3365  137.1734  155.1476 C   0  0  0  0  0  0  0  0  0  0  0  0
  151.9998  137.2598  154.1153 O   0  0  0  0  0  0  0  0  0  0  0  0
  150.7131  138.2844  155.7601 N   0  0  0  0  0  0  0  0  0  0  0  0
  150.8555  139.6605  155.1517 C   0  0  2  0  0  0  0  0  0  0  0  0
  151.4083  140.5077  156.1141 O   0  0  0  0  0  0  0  0  0  0  0  0
  150.6719  141.7234  156.1706 C   0  0  2  0  0  0  0  0  0  0  0  0
  150.8248  142.3368  157.5711 C   0  0  0  0  0  0  0  0  0  0  0  0
  150.5286  143.7167  157.5449 O   0  0  0  0  0  0  0  0  0  0  0  0
  149.2487  141.2943  155.8042 C   0  0  1  0  0  0  0  0  0  0  0  0
  148.4462  142.3665  155.3458 O   0  0  0  0  0  0  0  0  0  0  0  0
  149.4804  140.2187  154.7456 C   0  0  1  0  0  0  0  0  0  0  0  0
  149.5147  140.7457  153.4311 O   0  0  0  0  0  0  0  0  0  0  0  0
  149.9609  138.0940  156.9110 C   0  0  0  0  0  0  0  0  0  0  0  0
  149.8026  136.8817  157.4911 C   0  0  0  0  0  0  0  0  0  0  0  0
  148.6888  136.8228  159.1282 Br  0  0  0  0  0  0  0  0  0  0  0  0
  151.6131  135.1358  155.3274 H   0  0  0  0  0  0  0  0  0  0  0  0
  151.5608  139.5842  154.3226 H   0  0  0  0  0  0  0  0  0  0  0  0
  151.0765  142.3919  155.4080 H   0  0  0  0  0  0  0  0  0  0  0  0
  150.1788  141.8351  158.2921 H   0  0  0  0  0  0  0  0  0  0  0  0
  151.8506  142.2159  157.9203 H   0  0  0  0  0  0  0  0  0  0  0  0
  149.7544  143.8481  157.0186 H   0  0  0  0  0  0  0  0  0  0  0  0
  148.7667  140.8431  156.6723 H   0  0  0  0  0  0  0  0  0  0  0  0
  148.8764  143.1782  155.5691 H   0  0  0  0  0  0  0  0  0  0  0  0
  148.7146  139.4425  154.7838 H   0  0  0  0  0  0  0  0  0  0  0  0
  149.3926  140.0350  152.8204 H   0  0  0  0  0  0  0  0  0  0  0  0
  149.4762  138.9428  157.3703 H   0  0  0  0  0  0  0  0  0  0  0  0
  1  2  2  0  0  0  0
  2 17  1  0  0  0  0
  2  3  1  0  0  0  0
  3 19  1  0  0  0  0
  3  4  1  0  0  0  0
  4  5  2  0  0  0  0
  4  6  1  0  0  0  0
  6  7  1  0  0  0  0
  6 16  1  0  0  0  0
  7 14  1  0  0  0  0
  7  8  1  0  0  0  0
  7 20  1  0  0  0  0
  8  9  1  0  0  0  0
  9 10  1  0  0  0  0
  9 12  1  0  0  0  0
  9 21  1  0  0  0  0
 10 11  1  0  0  0  0
 10 22  1  0  0  0  0
 10 23  1  0  0  0  0
 11 24  1  0  0  0  0
 12 13  1  0  0  0  0
 12 14  1  0  0  0  0
 12 25  1  0  0  0  0
 13 26  1  0  0  0  0
 14 15  1  0  0  0  0
 14 27  1  0  0  0  0
 15 28  1  0  0  0  0
 16 17  2  0  0  0  0
 16 29  1  0  0  0  0
 17 18  1  0  0  0  0
M  END
> <s_m_source_file>
AV-unprocessed.smi

> <i_m_source_file_index>
35

> <i_lp_mmshare_version>
43012

> <i_f3d_flags>
0

> <s_epik_input>
Tz1jMVtuSF1jKD1PKW4oW2NIXWMxQnIpW0NAQEhdMk9bQ0BASF0oW0NIMl1bT0hdKVtDQEBIXShbT0hdKVtDQEhdMltPSF0=

> <s_epik_cmdline>
J2VwaWtfcHl0aG9uJywgJy1waCcsICc3LjAnLCAnLXRuJywgJzgnLCAnLW1hJywgJzIwMCcsICctbWV0YWxfYmluZGluZycsICctaW1hZScsICc8aW5maWxlLm1hZT4nLCAnLW9tYWUnLCAnPG91dGZpbGUubWFlPic=

> <r_lp_tautomer_probability>
0.999537

> <r_epik_Ionization_Penalty>
0.10812

> <r_epik_Ionization_Penalty_Charging>
0.108119

> <r_epik_Ionization_Penalty_Neutral>
4.93006e-07

> <r_epik_State_Penalty>
0.0979238

> <r_epik_Charging_Adjusted_Penalty>
0.206043

> <i_epik_Tot_Q>
0

> <i_epik_Tot_abs_Q>
0

> <r_epik_Metal_State_Penalty>
3.07911

> <b_epik_Metal_Only>
0

> <s_epik_Chemistry_Notes>
This compound contains an acetal/aminal-like group ( X-CH(R)-Y where X, Y are N, S, or O) that may be acid/base labile, releasing an aldehyde.

> <s_lp_Force_Field>
OPLS_2005

> <r_lp_Energy>
30.5202

> <b_lp_Chiralities_Consistent>
1

> <s_lp_Variant>
AV-unprocessed.smi:35-3

> <Gold.Version>
5.8.1

> <Gold.Id.Protein>
6NUR|6NUR_protein|mol2

> <Gold.PLP.Fitness>
42.0599

> <Gold.PLP.PLP>
-26.2760

> <Gold.PLP.part.hbond>
-6.0143

> <Gold.PLP.part.metal>
0.0000

> <Gold.PLP.part.buried>
-6.3984

> <Gold.PLP.part.nonpolar>
-16.0470

> <Gold.PLP.part.repulsive>
0.9736

> <Gold.PLP.ligand.clash>
0.0000

> <Gold.PLP.ligand.torsion>
0.2440

> <Gold.PLP.Chemscore.Hbond>
5.4213

> <Gold.PLP.Chemscore.CHOScore>
0.0000

> <Gold.PLP.Chemscore.Metal>
0.0000

> <Gold.Chemscore.Hbonds>
donor molecule, donor type, donor heavy atom, donor atom, acceptor molecule, acceptor atom, score
      L1  H    11    24       P1  8028  0.99
      L1  H    13    26       P1  8028  0.99
      L1  H    15    28       P1  7957  0.56
      P1  H  6896  6907       L1     1  0.67
      P1  H  7989  7998       L1    15  0.19
      P1  H  8011  8017       L1    15  1.00
      P1  H 10752 10765       L1     5  0.96

> <Gold.PLP.Chemscore.Internal.Correction>
0.0080

> <Gold.Rescore>
     Score         DG    S(hbond)    S(metal)    S(lipo)     H(rot)  DE(clash)    DE(int)     intcor
     16.04     -16.29       4.79        0.00      35.99       3.67       0.01       0.24       ----

> <Gold.Chemscore.Fitness>
16.0401

> <Gold.Chemscore.DG>
-16.2884

> <Gold.Chemscore.ZeroCoef>
-5.4800

> <Gold.Chemscore.Hbond>
4.7885

> <Gold.Chemscore.Metal>
0.0000

> <Gold.Chemscore.Lipo>
35.9856

> <Gold.Chemscore.Internal_Hbond>
0.0000

> <Gold.Chemscore.DEClash>
0.0110

> <Gold.Chemscore.DEInternal>
0.2373

> <Gold.Chemscore.Rot>
3.6701

> <Gold.Chemscore.Internal.Correction>
   9.000000E+99

> <Gold.Chemscore.Hbonds>
donor molecule, donor type, donor heavy atom, donor atom, acceptor molecule, acceptor atom, score
      L1  H    11    24       P1  8028  0.85
      L1  H    13    26       P1  8028  0.88
      L1  H    15    28       P1  7957  0.56
      P1  H  6896  6907       L1     1  0.63
      P1  H  8011  8017       L1    15  0.52
      P1  H 10752 10765       L1     5  0.56

> <Gold.Chemscore.Hbond.Weighted>
-15.9936

> <Gold.Chemscore.Metal.Weighted>
-0.0000

> <Gold.Chemscore.Lipo.Weighted>
-4.2103

> <Gold.Chemscore.Internal_Hbond.Weighted>
0.0000

> <Gold.Chemscore.DEClash.Weighted>
0.0110

> <Gold.Chemscore.DEInternal.Weighted>
0.2373

> <Gold.Chemscore.Rot.Weighted>
9.3955

> <Gold.Chemscore.Internal.Correction.Weighted>
   9.000000E+99

> <Gold.Protein.RotatedTorsions>
[ 6907 6896 6895 6894 ] final -102.96 input  -60.11 | X-H torsion
[ 7974 7965 7964 7962 ] final   82.85 input  175.53 | X-H torsion
[ 8008 7997 7996 7995 ] final   57.87 input   59.86 | X-H torsion
[ 10167 10162 10161 10158 ] final  -13.33 input  -65.29 | X-H torsion
[ 10718 10713 10712 10709 ] final  -89.82 input   66.30 | X-H torsion
[ 10763 10752 10751 10750 ] final  144.97 input  -60.55 | X-H torsion
[ 11005 11000 10999 10996 ] final   -6.43 input  -57.11 | X-H torsion

> <Gold.Protein.ActiveResidues>
 VAL166  LYS551  ARG553  GLY616  TRP617  ASP618  TYR619  PRO620  LYS621  CYS622 
 ASP623  PHE694  ASN695  SER759  ASP760  ASP761  ALA762  ILE779  LEU786  VAL792 
 PHE793  MET794  SER795  GLU796  ALA797  LYS798  CYS799  TRP800  GLU811  SER814 

> <Gold.Protein.RotatedAtoms>
  150.7219  134.0502  159.3795 H   0  0  0  0  0  0  0  0  0  0  0  0  # atno 6907 bound_to 6896
  151.8479  135.0566  160.0465 H   0  0  0  0  0  0  0  0  0  0  0  0  # atno 6908 bound_to 6896
  152.2813  133.5437  159.5536 H   0  0  0  0  0  0  0  0  0  0  0  0  # atno 6909 bound_to 6896
  145.6197  139.2383  143.2145 H   0  0  0  0  0  0  0  0  0  0  0  0  # atno 7974 bound_to 7965
  155.5407  140.3484  155.4446 H   0  0  0  0  0  0  0  0  0  0  0  0  # atno 8008 bound_to 7997
  156.0653  140.1350  156.9919 H   0  0  0  0  0  0  0  0  0  0  0  0  # atno 8009 bound_to 7997
  154.4500  140.0977  156.6563 H   0  0  0  0  0  0  0  0  0  0  0  0  # atno 8010 bound_to 7997
  140.7180  143.5438  150.9379 H   0  0  0  0  0  0  0  0  0  0  0  0  # atno 10167 bound_to 10162
  155.9985  130.4887  150.5230 H   0  0  0  0  0  0  0  0  0  0  0  0  # atno 10718 bound_to 10713
  153.9976  135.2926  155.3406 H   0  0  0  0  0  0  0  0  0  0  0  0  # atno 10763 bound_to 10752
  154.7178  135.5122  153.8768 H   0  0  0  0  0  0  0  0  0  0  0  0  # atno 10764 bound_to 10752
  153.0781  135.6670  154.0221 H   0  0  0  0  0  0  0  0  0  0  0  0  # atno 10765 bound_to 10752
  140.7019  133.8982  155.8689 H   0  0  0  0  0  0  0  0  0  0  0  0  # atno 11005 bound_to 11000
  146.1440  140.7018  142.9353 LP  0  0  0  0  0  0  0  0  0  0  0  0  # atno 17320 bound_to 7965
  144.7236  140.4453  143.6990 LP  0  0  0  0  0  0  0  0  0  0  0  0  # atno 17321 bound_to 7965
  139.9161  143.6662  152.3106 LP  0  0  0  0  0  0  0  0  0  0  0  0  # atno 17342 bound_to 10162
  139.7062  144.7627  151.1189 LP  0  0  0  0  0  0  0  0  0  0  0  0  # atno 17343 bound_to 10162
  157.3189  131.0678  151.1947 LP  0  0  0  0  0  0  0  0  0  0  0  0  # atno 17370 bound_to 10713
  157.2867  130.6776  149.6093 LP  0  0  0  0  0  0  0  0  0  0  0  0  # atno 17371 bound_to 10713
  141.0157  134.0959  157.4175 LP  0  0  0  0  0  0  0  0  0  0  0  0  # atno 17394 bound_to 11000
  139.8894  135.0105  156.6679 LP  0  0  0  0  0  0  0  0  0  0  0  0  # atno 17395 bound_to 11000

$$$$
