AV-unprocessed.smi:3117|AV-procd|sdf|11878|dock10
  -GOLD-   2272017263D 1   1.00000     0.00000
 Structure written by MMmdl.
 37 37  0  0  0  0  0  0  0  0  2 V2000
  151.6293  141.1147  157.5129 C   0  0  0  0  0  0  0  0  0  0  0  0
  150.4917  142.1438  157.3742 C   0  0  2  0  0  0  0  0  0  0  0  0
  149.9181  142.0777  156.0100 N   0  3  0  0  0  0  0  0  0  0  0  0
  149.2227  140.8186  155.6665 C   0  0  0  0  0  0  0  0  0  0  0  0
  148.4812  140.9216  154.3169 C   0  0  0  0  0  0  0  0  0  0  0  0
  147.8406  139.5711  153.9558 C   0  0  0  0  0  0  0  0  0  0  0  0
  147.4160  142.0348  154.3201 C   0  0  0  0  0  0  0  0  0  0  0  0
  149.4293  141.2091  153.3074 O   0  0  0  0  0  0  0  0  0  0  0  0
  150.9526  143.5939  157.6746 C   0  0  2  0  0  0  0  0  0  0  0  0
  151.9926  144.1301  156.6727 C   0  0  0  0  0  0  0  0  0  0  0  0
  151.4734  143.6957  159.0344 N   0  0  0  0  0  0  0  0  0  0  0  0
  151.1054  144.5661  160.0419 C   0  0  0  0  0  0  0  0  0  0  0  0
  151.9077  144.3106  161.1167 C   0  0  0  0  0  0  0  0  0  0  0  0
  152.7546  143.2611  160.6646 C   0  0  0  0  0  0  0  0  0  0  0  0
  152.4993  142.9033  159.4168 N   0  0  0  0  0  0  0  0  0  0  0  0
  152.0150  141.0760  158.5311 H   0  0  0  0  0  0  0  0  0  0  0  0
  152.4612  141.3515  156.8488 H   0  0  0  0  0  0  0  0  0  0  0  0
  151.2907  140.1074  157.2718 H   0  0  0  0  0  0  0  0  0  0  0  0
  149.7063  141.8900  158.0880 H   0  0  0  0  0  0  0  0  0  0  0  0
  149.2335  142.8175  155.9398 H   0  0  0  0  0  0  0  0  0  0  0  0
  149.9447  140.0019  155.6389 H   0  0  0  0  0  0  0  0  0  0  0  0
  148.5064  140.5810  156.4543 H   0  0  0  0  0  0  0  0  0  0  0  0
  147.0944  139.2788  154.6954 H   0  0  0  0  0  0  0  0  0  0  0  0
  148.5853  138.7756  153.9090 H   0  0  0  0  0  0  0  0  0  0  0  0
  147.3423  139.6118  152.9863 H   0  0  0  0  0  0  0  0  0  0  0  0
  146.6724  141.8650  155.0995 H   0  0  0  0  0  0  0  0  0  0  0  0
  146.8874  142.0792  153.3671 H   0  0  0  0  0  0  0  0  0  0  0  0
  147.8536  143.0187  154.4924 H   0  0  0  0  0  0  0  0  0  0  0  0
  149.3913  140.5269  152.6538 H   0  0  0  0  0  0  0  0  0  0  0  0
  150.0808  144.2481  157.6086 H   0  0  0  0  0  0  0  0  0  0  0  0
  151.5711  144.2366  155.6735 H   0  0  0  0  0  0  0  0  0  0  0  0
  152.8587  143.4717  156.6001 H   0  0  0  0  0  0  0  0  0  0  0  0
  152.3491  145.1168  156.9710 H   0  0  0  0  0  0  0  0  0  0  0  0
  150.3136  145.2889  159.9123 H   0  0  0  0  0  0  0  0  0  0  0  0
  151.8940  144.8012  162.0788 H   0  0  0  0  0  0  0  0  0  0  0  0
  153.5457  142.7568  161.1998 H   0  0  0  0  0  0  0  0  0  0  0  0
  150.6440  142.2558  155.3303 H   0  0  0  0  0  0  0  0  0  0  0  0
  1  2  1  0  0  0  0
  1 16  1  0  0  0  0
  1 17  1  0  0  0  0
  1 18  1  0  0  0  0
  2  3  1  0  0  0  0
  2  9  1  0  0  0  0
  2 19  1  0  0  0  0
  3  4  1  0  0  0  0
  3 20  1  0  0  0  0
  3 37  1  0  0  0  0
  4  5  1  0  0  0  0
  4 21  1  0  0  0  0
  4 22  1  0  0  0  0
  5  6  1  0  0  0  0
  5  7  1  0  0  0  0
  5  8  1  0  0  0  0
  6 23  1  0  0  0  0
  6 24  1  0  0  0  0
  6 25  1  0  0  0  0
  7 26  1  0  0  0  0
  7 27  1  0  0  0  0
  7 28  1  0  0  0  0
  8 29  1  0  0  0  0
  9 10  1  0  0  0  0
  9 11  1  0  0  0  0
  9 30  1  0  0  0  0
 10 31  1  0  0  0  0
 10 32  1  0  0  0  0
 10 33  1  0  0  0  0
 11 15  1  0  0  0  0
 11 12  1  0  0  0  0
 12 13  2  0  0  0  0
 12 34  1  0  0  0  0
 13 14  1  0  0  0  0
 13 35  1  0  0  0  0
 14 15  2  0  0  0  0
 14 36  1  0  0  0  0
M  CHG  1   3   1
M  END
> <s_m_source_file>
AV-unprocessed.smi

> <i_m_source_file_index>
3117

> <i_lp_mmshare_version>
43012

> <i_f3d_flags>
0

> <s_epik_input>
W0NIM11DKFtDSDNdKShbT0hdKVtDSDJdW05IXVtDQEBIXShbQ0gzXSlbQ0BIXShbQ0gzXSluMVtjSF1bY0hdW2NIXW4x

> <s_epik_cmdline>
J2VwaWtfcHl0aG9uJywgJy1waCcsICc3LjAnLCAnLXRuJywgJzgnLCAnLW1hJywgJzIwMCcsICctbWV0YWxfYmluZGluZycsICctaW1hZScsICc8aW5maWxlLm1hZT4nLCAnLW9tYWUnLCAnPG91dGZpbGUubWFlPic=

> <r_lp_tautomer_probability>
1

> <r_epik_Ionization_Penalty>
0.0164263

> <r_epik_Ionization_Penalty_Charging>
0.0164138

> <r_epik_Ionization_Penalty_Neutral>
1.24697e-05

> <r_epik_State_Penalty>
0.0129543

> <r_epik_Charging_Adjusted_Penalty>
0.0293681

> <i_epik_Tot_Q>
1

> <i_epik_Tot_abs_Q>
1

> <r_epik_Metal_State_Penalty>
0.0129806

> <b_epik_Metal_Only>
0

> <s_lp_Force_Field>
OPLS_2005

> <r_lp_Energy>
12.2787

> <b_lp_Chiralities_Consistent>
1

> <s_lp_Variant>
AV-unprocessed.smi:3117-1

> <Gold.Version>
5.8.1

> <Gold.Id.Protein>
6NUR|6NUR_protein|mol2

> <Gold.PLP.Fitness>
45.5462

> <Gold.PLP.PLP>
-33.7824

> <Gold.PLP.part.hbond>
-3.5275

> <Gold.PLP.part.metal>
0.0000

> <Gold.PLP.part.buried>
-4.3497

> <Gold.PLP.part.nonpolar>
-26.7369

> <Gold.PLP.part.repulsive>
0.1165

> <Gold.PLP.ligand.clash>
0.0000

> <Gold.PLP.ligand.torsion>
0.1966

> <Gold.PLP.Chemscore.Hbond>
4.0149

> <Gold.PLP.Chemscore.CHOScore>
0.0000

> <Gold.PLP.Chemscore.Metal>
0.0000

> <Gold.Chemscore.Hbonds>
donor molecule, donor type, donor heavy atom, donor atom, acceptor molecule, acceptor atom, score
      L1  H     3    20       P1  8028  1.92
      L1  H     8    29       P1  7957  0.99
      P1  H  7989  7998       L1     8  0.03
      P1  H  8011  8017       L1     8  0.85

> <Gold.PLP.Chemscore.Internal.Correction>
0.1123

> <Gold.Rescore>
     Score         DG    S(hbond)    S(metal)    S(lipo)     H(rot)  DE(clash)    DE(int)     intcor
     16.12     -19.36       2.43        0.00      99.08       2.27       1.76       1.47       ----

> <Gold.Chemscore.Fitness>
16.1247

> <Gold.Chemscore.DG>
-19.3551

> <Gold.Chemscore.ZeroCoef>
-5.4800

> <Gold.Chemscore.Hbond>
2.4254

> <Gold.Chemscore.Metal>
0.0000

> <Gold.Chemscore.Lipo>
99.0764

> <Gold.Chemscore.Internal_Hbond>
0.0000

> <Gold.Chemscore.DEClash>
1.7564

> <Gold.Chemscore.DEInternal>
1.4740

> <Gold.Chemscore.Rot>
2.2725

> <Gold.Chemscore.Internal.Correction>
   9.000000E+99

> <Gold.Chemscore.Hbonds>
donor molecule, donor type, donor heavy atom, donor atom, acceptor molecule, acceptor atom, score
      L1  H     3    20       P1  8028  0.91
      L1  H     8    29       P1  7957  0.91
      P1  H  8011  8017       L1     8  0.14

> <Gold.Chemscore.Hbond.Weighted>
-8.1008

> <Gold.Chemscore.Metal.Weighted>
-0.0000

> <Gold.Chemscore.Lipo.Weighted>
-11.5919

> <Gold.Chemscore.Internal_Hbond.Weighted>
0.0000

> <Gold.Chemscore.DEClash.Weighted>
1.7564

> <Gold.Chemscore.DEInternal.Weighted>
1.4740

> <Gold.Chemscore.Rot.Weighted>
5.8176

> <Gold.Chemscore.Internal.Correction.Weighted>
   9.000000E+99

> <Gold.Protein.RotatedTorsions>
[ 6907 6896 6895 6894 ] final  143.44 input  -60.11 | X-H torsion
[ 7974 7965 7964 7962 ] final   37.82 input  175.53 | X-H torsion
[ 8008 7997 7996 7995 ] final  -84.43 input   59.86 | X-H torsion
[ 10167 10162 10161 10158 ] final    9.98 input  -65.29 | X-H torsion
[ 10718 10713 10712 10709 ] final -155.79 input   66.30 | X-H torsion
[ 10763 10752 10751 10750 ] final -103.83 input  -60.55 | X-H torsion
[ 11005 11000 10999 10996 ] final  140.31 input  -57.11 | X-H torsion

> <Gold.Protein.ActiveResidues>
 VAL166  LYS551  ARG553  GLY616  TRP617  ASP618  TYR619  PRO620  LYS621  CYS622 
 ASP623  PHE694  ASN695  SER759  ASP760  ASP761  ALA762  ILE779  LEU786  VAL792 
 PHE793  MET794  SER795  GLU796  ALA797  LYS798  CYS799  TRP800  GLU811  SER814 

> <Gold.Protein.RotatedAtoms>
  152.2062  133.4877  159.5085 H   0  0  0  0  0  0  0  0  0  0  0  0  # atno 6907 bound_to 6896
  150.6980  134.1526  159.4155 H   0  0  0  0  0  0  0  0  0  0  0  0  # atno 6908 bound_to 6896
  151.9445  135.0198  160.0588 H   0  0  0  0  0  0  0  0  0  0  0  0  # atno 6909 bound_to 6896
  146.1109  139.5847  142.9353 H   0  0  0  0  0  0  0  0  0  0  0  0  # atno 7974 bound_to 7965
  154.6297  140.0605  156.9717 H   0  0  0  0  0  0  0  0  0  0  0  0  # atno 8008 bound_to 7997
  155.1685  140.3289  155.4379 H   0  0  0  0  0  0  0  0  0  0  0  0  # atno 8009 bound_to 7997
  156.2476  140.1918  156.6788 H   0  0  0  0  0  0  0  0  0  0  0  0  # atno 8010 bound_to 7997
  140.6222  143.8180  150.7189 H   0  0  0  0  0  0  0  0  0  0  0  0  # atno 10167 bound_to 10162
  156.5176  130.8463  151.2670 H   0  0  0  0  0  0  0  0  0  0  0  0  # atno 10718 bound_to 10713
  154.7835  135.4809  153.9895 H   0  0  0  0  0  0  0  0  0  0  0  0  # atno 10763 bound_to 10752
  153.1527  135.6794  153.8865 H   0  0  0  0  0  0  0  0  0  0  0  0  # atno 10764 bound_to 10752
  153.8505  135.3168  155.3410 H   0  0  0  0  0  0  0  0  0  0  0  0  # atno 10765 bound_to 10752
  140.0318  134.9348  157.0676 H   0  0  0  0  0  0  0  0  0  0  0  0  # atno 11005 bound_to 11000
  145.5666  141.0399  143.2197 LP  0  0  0  0  0  0  0  0  0  0  0  0  # atno 17320 bound_to 7965
  144.7510  139.7193  143.7273 LP  0  0  0  0  0  0  0  0  0  0  0  0  # atno 17321 bound_to 7965
  140.1772  143.4145  152.1959 LP  0  0  0  0  0  0  0  0  0  0  0  0  # atno 17342 bound_to 10162
  139.5448  144.7289  151.4617 LP  0  0  0  0  0  0  0  0  0  0  0  0  # atno 17343 bound_to 10162
  157.7441  130.9928  150.2650 LP  0  0  0  0  0  0  0  0  0  0  0  0  # atno 17370 bound_to 10713
  156.3180  130.3781  149.7601 LP  0  0  0  0  0  0  0  0  0  0  0  0  # atno 17371 bound_to 10713
  140.4213  134.1877  155.7164 LP  0  0  0  0  0  0  0  0  0  0  0  0  # atno 17394 bound_to 11000
  141.1835  133.8363  157.1172 LP  0  0  0  0  0  0  0  0  0  0  0  0  # atno 17395 bound_to 11000

$$$$
