AV-unprocessed.smi:1324|AV-procd|sdf|5471|dock8
  -GOLD-   22720 5 43D 1   1.00000     0.00000
 Structure written by MMmdl.
 42 43  0  0  0  0  0  0  0  0  2 V2000
  146.5547  137.8922  153.0283 C   0  0  0  0  0  0  0  0  0  0  0  0
  147.3798  139.0401  153.5693 C   0  0  0  0  0  0  0  0  0  0  0  0
  146.8191  140.1710  153.7726 N   0  0  0  0  0  0  0  0  0  0  0  0
  147.5794  141.2388  154.2788 C   0  0  0  0  0  0  0  0  0  0  0  0
  146.8309  142.5423  154.4946 C   0  0  0  0  0  0  0  0  0  0  0  0
  148.9068  141.0909  154.5557 C   0  0  0  0  0  0  0  0  0  0  0  0
  149.7781  142.2174  155.1124 C   0  0  0  0  0  0  0  0  0  0  0  0
  150.4344  141.9633  156.4721 C   0  0  0  0  0  0  0  0  0  0  0  0
  150.8803  140.8522  156.7604 O   0  0  0  0  0  0  0  0  0  0  0  0
  150.4858  143.0161  157.3031 N   0  0  0  0  0  0  0  0  0  0  0  0
  151.0656  143.0127  158.6449 C   0  0  0  0  0  0  0  0  0  0  0  0
  151.0242  144.4488  159.2173 C   0  0  0  0  0  0  0  0  0  0  0  0
  151.9130  144.7463  160.4385 C   0  0  0  0  0  0  0  0  0  0  0  0
  152.0640  143.6012  161.4517 C   0  0  0  0  0  0  0  0  0  0  0  0
  153.1938  142.6275  161.0778 C   0  0  0  0  0  0  0  0  0  0  0  0
  152.8711  141.6866  159.9080 C   0  0  0  0  0  0  0  0  0  0  0  0
  152.4725  142.3820  158.5934 C   0  0  0  0  0  0  0  0  0  0  0  0
  149.5170  139.7743  154.2982 C   0  0  0  0  0  0  0  0  0  0  0  0
  150.7151  139.5927  154.5124 O   0  0  0  0  0  0  0  0  0  0  0  0
  148.7100  138.7861  153.8170 N   0  5  0  0  0  0  0  0  0  0  0  0
  145.5970  138.2446  152.6433 H   0  0  0  0  0  0  0  0  0  0  0  0
  146.3619  137.1647  153.8170 H   0  0  0  0  0  0  0  0  0  0  0  0
  147.0832  137.3913  152.2161 H   0  0  0  0  0  0  0  0  0  0  0  0
  146.7969  142.7907  155.5556 H   0  0  0  0  0  0  0  0  0  0  0  0
  145.8042  142.4724  154.1332 H   0  0  0  0  0  0  0  0  0  0  0  0
  147.3175  143.3588  153.9607 H   0  0  0  0  0  0  0  0  0  0  0  0
  150.5726  142.4268  154.3963 H   0  0  0  0  0  0  0  0  0  0  0  0
  149.2068  143.1449  155.1689 H   0  0  0  0  0  0  0  0  0  0  0  0
  150.0923  143.8884  156.9808 H   0  0  0  0  0  0  0  0  0  0  0  0
  150.4414  142.3722  159.2709 H   0  0  0  0  0  0  0  0  0  0  0  0
  151.2861  145.1648  158.4366 H   0  0  0  0  0  0  0  0  0  0  0  0
  149.9900  144.6754  159.4803 H   0  0  0  0  0  0  0  0  0  0  0  0
  152.9012  145.0596  160.0994 H   0  0  0  0  0  0  0  0  0  0  0  0
  151.4990  145.6172  160.9482 H   0  0  0  0  0  0  0  0  0  0  0  0
  152.3138  144.0400  162.4185 H   0  0  0  0  0  0  0  0  0  0  0  0
  151.1193  143.0762  161.5983 H   0  0  0  0  0  0  0  0  0  0  0  0
  154.1058  143.1849  160.8607 H   0  0  0  0  0  0  0  0  0  0  0  0
  153.4255  142.0150  161.9496 H   0  0  0  0  0  0  0  0  0  0  0  0
  153.7502  141.0692  159.7197 H   0  0  0  0  0  0  0  0  0  0  0  0
  152.0856  140.9910  160.2061 H   0  0  0  0  0  0  0  0  0  0  0  0
  152.4884  141.6172  157.8153 H   0  0  0  0  0  0  0  0  0  0  0  0
  153.2200  143.1195  158.2987 H   0  0  0  0  0  0  0  0  0  0  0  0
  1  2  1  0  0  0  0
  1 21  1  0  0  0  0
  1 22  1  0  0  0  0
  1 23  1  0  0  0  0
  2 20  1  0  0  0  0
  2  3  2  0  0  0  0
  3  4  1  0  0  0  0
  4  5  1  0  0  0  0
  4  6  2  0  0  0  0
  5 24  1  0  0  0  0
  5 25  1  0  0  0  0
  5 26  1  0  0  0  0
  6  7  1  0  0  0  0
  6 18  1  0  0  0  0
  7  8  1  0  0  0  0
  7 27  1  0  0  0  0
  7 28  1  0  0  0  0
  8  9  2  0  0  0  0
  8 10  1  0  0  0  0
 10 11  1  0  0  0  0
 10 29  1  0  0  0  0
 11 17  1  0  0  0  0
 11 12  1  0  0  0  0
 11 30  1  0  0  0  0
 12 13  1  0  0  0  0
 12 31  1  0  0  0  0
 12 32  1  0  0  0  0
 13 14  1  0  0  0  0
 13 33  1  0  0  0  0
 13 34  1  0  0  0  0
 14 15  1  0  0  0  0
 14 35  1  0  0  0  0
 14 36  1  0  0  0  0
 15 16  1  0  0  0  0
 15 37  1  0  0  0  0
 15 38  1  0  0  0  0
 16 17  1  0  0  0  0
 16 39  1  0  0  0  0
 16 40  1  0  0  0  0
 17 41  1  0  0  0  0
 17 42  1  0  0  0  0
 18 19  2  0  0  0  0
 18 20  1  0  0  0  0
M  CHG  1  20  -1
M  END
> <s_m_source_file>
AV-unprocessed.smi

> <i_m_source_file_index>
1324

> <i_lp_mmshare_version>
43012

> <i_f3d_flags>
0

> <s_epik_input>
W0NIM11jMW5jKFtDSDNdKWMoYyg9TylbbkhdMSlbQ0gyXUMoPU8pW05IXVtDSF0yW0NIMl1bQ0gyXVtDSDJdW0NIMl1bQ0gyXVtDSDJdMg==

> <s_epik_cmdline>
J2VwaWtfcHl0aG9uJywgJy1waCcsICc3LjAnLCAnLXRuJywgJzgnLCAnLW1hJywgJzIwMCcsICctbWV0YWxfYmluZGluZycsICctaW1hZScsICc8aW5maWxlLm1hZT4nLCAnLW9tYWUnLCAnPG91dGZpbGUubWFlPic=

> <r_lp_tautomer_probability>
0.839158

> <r_epik_Ionization_Penalty>
6.62804

> <r_epik_Ionization_Penalty_Charging>
7.40585e-08

> <r_epik_Ionization_Penalty_Neutral>
6.62804

> <r_epik_State_Penalty>
4.44437

> <r_epik_Charging_Adjusted_Penalty>
4.44437

> <i_epik_Tot_Q>
-1

> <i_epik_Tot_abs_Q>
1

> <r_epik_Metal_State_Penalty>
0.804717

> <b_epik_Metal_Only>
1

> <s_lp_Force_Field>
OPLS_2005

> <r_lp_Energy>
20.4911

> <b_lp_Chiralities_Consistent>
1

> <s_lp_Variant>
AV-unprocessed.smi:1324-3

> <Gold.Version>
5.8.1

> <Gold.Id.Protein>
6NUR|6NUR_protein|mol2

> <Gold.PLP.Fitness>
45.2964

> <Gold.PLP.PLP>
-40.2292

> <Gold.PLP.part.hbond>
-2.0000

> <Gold.PLP.part.metal>
0.0000

> <Gold.PLP.part.buried>
-1.2902

> <Gold.PLP.part.nonpolar>
-37.1063

> <Gold.PLP.part.repulsive>
0.6658

> <Gold.PLP.ligand.clash>
0.0000

> <Gold.PLP.ligand.torsion>
0.3680

> <Gold.PLP.Chemscore.Hbond>
1.9280

> <Gold.PLP.Chemscore.CHOScore>
0.0000

> <Gold.PLP.Chemscore.Metal>
0.0000

> <Gold.Chemscore.Hbonds>
donor molecule, donor type, donor heavy atom, donor atom, acceptor molecule, acceptor atom, score
      L1  H    10    29       P1  8028  0.93
      P1  H  7989  7998       L1    19  1.00

> <Gold.PLP.Chemscore.Internal.Correction>
0.0193

> <Gold.Rescore>
     Score         DG    S(hbond)    S(metal)    S(lipo)     H(rot)  DE(clash)    DE(int)     intcor
     16.04     -20.33       1.86        0.00     105.28       1.45       1.34       2.94       ----

> <Gold.Chemscore.Fitness>
16.0441

> <Gold.Chemscore.DG>
-20.3254

> <Gold.Chemscore.ZeroCoef>
-5.4800

> <Gold.Chemscore.Hbond>
1.8642

> <Gold.Chemscore.Metal>
0.0000

> <Gold.Chemscore.Lipo>
105.2825

> <Gold.Chemscore.Internal_Hbond>
0.0000

> <Gold.Chemscore.DEClash>
1.3363

> <Gold.Chemscore.DEInternal>
2.9449

> <Gold.Chemscore.Rot>
1.4450

> <Gold.Chemscore.Internal.Correction>
   9.000000E+99

> <Gold.Chemscore.Hbonds>
donor molecule, donor type, donor heavy atom, donor atom, acceptor molecule, acceptor atom, score
      L1  H    10    29       P1  8028  0.86
      P1  H  7989  7998       L1    19  0.55

> <Gold.Chemscore.Hbond.Weighted>
-6.2266

> <Gold.Chemscore.Metal.Weighted>
-0.0000

> <Gold.Chemscore.Lipo.Weighted>
-12.3181

> <Gold.Chemscore.Internal_Hbond.Weighted>
0.0000

> <Gold.Chemscore.DEClash.Weighted>
1.3363

> <Gold.Chemscore.DEInternal.Weighted>
2.9449

> <Gold.Chemscore.Rot.Weighted>
3.6992

> <Gold.Chemscore.Internal.Correction.Weighted>
   9.000000E+99

> <Gold.Protein.RotatedTorsions>
[ 6907 6896 6895 6894 ] final    9.98 input  -60.11 | X-H torsion
[ 7974 7965 7964 7962 ] final -172.63 input  175.53 | X-H torsion
[ 8008 7997 7996 7995 ] final   72.03 input   59.86 | X-H torsion
[ 10167 10162 10161 10158 ] final   40.37 input  -65.29 | X-H torsion
[ 10718 10713 10712 10709 ] final  -82.12 input   66.30 | X-H torsion
[ 10763 10752 10751 10750 ] final -136.97 input  -60.55 | X-H torsion
[ 11005 11000 10999 10996 ] final  152.87 input  -57.11 | X-H torsion

> <Gold.Protein.ActiveResidues>
 VAL166  LYS551  ARG553  GLY616  TRP617  ASP618  TYR619  PRO620  LYS621  CYS622 
 ASP623  PHE694  ASN695  SER759  ASP760  ASP761  ALA762  ILE779  LEU786  VAL792 
 PHE793  MET794  SER795  GLU796  ALA797  LYS798  CYS799  TRP800  GLU811  SER814 

> <Gold.Protein.RotatedAtoms>
  151.7309  135.0875  160.0299 H   0  0  0  0  0  0  0  0  0  0  0  0  # atno 6907 bound_to 6896
  152.3541  133.6212  159.5975 H   0  0  0  0  0  0  0  0  0  0  0  0  # atno 6908 bound_to 6896
  150.7560  133.9443  159.3507 H   0  0  0  0  0  0  0  0  0  0  0  0  # atno 6909 bound_to 6896
  144.7144  140.1743  143.6364 H   0  0  0  0  0  0  0  0  0  0  0  0  # atno 7974 bound_to 7965
  155.7627  140.3486  155.5206 H   0  0  0  0  0  0  0  0  0  0  0  0  # atno 8008 bound_to 7997
  155.8898  140.1016  157.1447 H   0  0  0  0  0  0  0  0  0  0  0  0  # atno 8009 bound_to 7997
  154.4032  140.1306  156.4289 H   0  0  0  0  0  0  0  0  0  0  0  0  # atno 8010 bound_to 7997
  140.3749  144.2056  150.6132 H   0  0  0  0  0  0  0  0  0  0  0  0  # atno 10167 bound_to 10162
  156.0038  130.4624  150.4057 H   0  0  0  0  0  0  0  0  0  0  0  0  # atno 10718 bound_to 10713
  154.8672  135.3656  154.5147 H   0  0  0  0  0  0  0  0  0  0  0  0  # atno 10763 bound_to 10752
  153.5781  135.7019  153.5480 H   0  0  0  0  0  0  0  0  0  0  0  0  # atno 10764 bound_to 10752
  153.3482  135.4079  155.1588 H   0  0  0  0  0  0  0  0  0  0  0  0  # atno 10765 bound_to 10752
  140.1347  134.8779  157.2251 H   0  0  0  0  0  0  0  0  0  0  0  0  # atno 11005 bound_to 11000
  145.8915  139.2378  143.1547 LP  0  0  0  0  0  0  0  0  0  0  0  0  # atno 17320 bound_to 7965
  145.9899  140.8611  143.0071 LP  0  0  0  0  0  0  0  0  0  0  0  0  # atno 17321 bound_to 7965
  140.4996  143.2322  151.8698 LP  0  0  0  0  0  0  0  0  0  0  0  0  # atno 17342 bound_to 10162
  139.4800  144.5074  151.8979 LP  0  0  0  0  0  0  0  0  0  0  0  0  # atno 17343 bound_to 10162
  157.2123  131.0463  151.2592 LP  0  0  0  0  0  0  0  0  0  0  0  0  # atno 17370 bound_to 10713
  157.3877  130.7265  149.6675 LP  0  0  0  0  0  0  0  0  0  0  0  0  # atno 17371 bound_to 10713
  140.2798  134.3363  155.7347 LP  0  0  0  0  0  0  0  0  0  0  0  0  # atno 17394 bound_to 11000
  141.2176  133.7471  156.9346 LP  0  0  0  0  0  0  0  0  0  0  0  0  # atno 17395 bound_to 11000

$$$$
