AV-unprocessed.smi:212|AV-procd|sdf|1632|dock1
  -GOLD-   2262019583D 1   1.00000     0.00000
 Structure written by MMmdl.
 65 68  0  0  0  0  0  0  0  0  2 V2000
  147.4408  141.6619  153.7652 C   0  0  0  0  0  0  0  0  0  0  0  0
  146.8260  140.2762  154.0426 C   0  0  1  0  0  0  0  0  0  0  0  0
  146.8022  139.3810  152.7874 C   0  0  0  0  0  0  0  0  0  0  0  0
  146.1318  138.0851  153.0736 N   0  3  1  0  0  0  0  0  0  0  0  0
  145.9749  137.2247  151.8703 C   0  0  0  0  0  0  0  0  0  0  0  0
  144.7862  136.2397  151.9817 C   0  0  0  0  0  0  0  0  0  0  0  0
  145.2117  134.9883  152.7683 C   0  0  0  0  0  0  0  0  0  0  0  0
  143.5506  136.8849  152.6363 C   0  0  0  0  0  0  0  0  0  0  0  0
  144.4228  135.7935  150.6905 O   0  0  0  0  0  0  0  0  0  0  0  0
  146.7548  137.3721  154.2185 C   0  0  0  0  0  0  0  0  0  0  0  0
  146.8390  138.2705  155.4700 C   0  0  0  0  0  0  0  0  0  0  0  0
  147.4322  139.5728  155.1777 N   0  0  0  0  0  0  0  0  0  0  0  0
  148.7784  139.6345  155.3131 C   0  0  0  0  0  0  0  0  0  0  0  0
  149.5894  139.1385  154.3429 N   0  0  0  0  0  0  0  0  0  0  0  0
  150.9170  139.2147  154.4788 C   0  0  0  0  0  0  0  0  0  0  0  0
  151.6249  139.7363  155.4833 N   0  0  0  0  0  0  0  0  0  0  0  0
  150.8101  140.2333  156.4579 C   0  0  0  0  0  0  0  0  0  0  0  0
  149.3880  140.2218  156.4523 C   0  0  0  0  0  0  0  0  0  0  0  0
  148.8992  140.8140  157.6095 N   0  0  0  0  0  0  0  0  0  0  0  0
  149.9746  141.1531  158.2677 C   0  0  0  0  0  0  0  0  0  0  0  0
  151.1644  140.8392  157.6504 N   0  0  0  0  0  0  0  0  0  0  0  0
  152.4986  141.1020  158.1587 C   0  0  0  0  0  0  0  0  0  0  0  0
  152.5194  141.8123  159.5381 C   0  0  1  0  0  0  0  0  0  0  0  0
  153.7412  141.4000  160.3991 C   0  0  0  0  0  0  0  0  0  0  0  0
  153.8578  139.9964  160.5147 O   0  0  0  0  0  0  0  0  0  0  0  0
  152.4681  143.3513  159.3513 C   0  0  1  0  0  0  0  0  0  0  0  0
  151.3385  143.8541  158.4670 C   0  0  0  0  0  0  0  0  0  0  0  0
  151.2629  145.3246  158.8537 C   0  0  0  0  0  0  0  0  0  0  0  0
  151.5283  145.3479  160.2491 O   0  0  0  0  0  0  0  0  0  0  0  0
  152.1999  144.1514  160.6349 C   0  0  0  0  0  0  0  0  0  0  0  0
  146.8818  142.1846  152.9887 H   0  0  0  0  0  0  0  0  0  0  0  0
  148.4753  141.5896  153.4280 H   0  0  0  0  0  0  0  0  0  0  0  0
  147.4202  142.2871  154.6584 H   0  0  0  0  0  0  0  0  0  0  0  0
  145.7890  140.4548  154.3307 H   0  0  0  0  0  0  0  0  0  0  0  0
  146.2774  139.8988  151.9853 H   0  0  0  0  0  0  0  0  0  0  0  0
  147.8155  139.1981  152.4274 H   0  0  0  0  0  0  0  0  0  0  0  0
  145.8853  137.8428  150.9751 H   0  0  0  0  0  0  0  0  0  0  0  0
  146.8828  136.6370  151.7237 H   0  0  0  0  0  0  0  0  0  0  0  0
  145.5011  135.2434  153.7884 H   0  0  0  0  0  0  0  0  0  0  0  0
  146.0632  134.4931  152.2998 H   0  0  0  0  0  0  0  0  0  0  0  0
  144.4018  134.2599  152.8309 H   0  0  0  0  0  0  0  0  0  0  0  0
  143.7829  137.2539  153.6357 H   0  0  0  0  0  0  0  0  0  0  0  0
  142.7344  136.1679  152.7336 H   0  0  0  0  0  0  0  0  0  0  0  0
  143.1736  137.7258  152.0534 H   0  0  0  0  0  0  0  0  0  0  0  0
  144.3224  136.5466  150.1275 H   0  0  0  0  0  0  0  0  0  0  0  0
  146.1706  136.4825  154.4564 H   0  0  0  0  0  0  0  0  0  0  0  0
  147.7468  137.0249  153.9283 H   0  0  0  0  0  0  0  0  0  0  0  0
  145.8371  138.4404  155.8657 H   0  0  0  0  0  0  0  0  0  0  0  0
  147.3988  137.7666  156.2596 H   0  0  0  0  0  0  0  0  0  0  0  0
  151.4955  138.7997  153.6664 H   0  0  0  0  0  0  0  0  0  0  0  0
  149.9310  141.6411  159.2306 H   0  0  0  0  0  0  0  0  0  0  0  0
  153.0407  140.1571  158.2157 H   0  0  0  0  0  0  0  0  0  0  0  0
  153.0122  141.7039  157.4093 H   0  0  0  0  0  0  0  0  0  0  0  0
  151.6163  141.5242  160.0791 H   0  0  0  0  0  0  0  0  0  0  0  0
  154.6631  141.8122  159.9874 H   0  0  0  0  0  0  0  0  0  0  0  0
  153.6569  141.7813  161.4156 H   0  0  0  0  0  0  0  0  0  0  0  0
  153.8409  139.6217  159.6471 H   0  0  0  0  0  0  0  0  0  0  0  0
  153.4119  143.6931  158.9229 H   0  0  0  0  0  0  0  0  0  0  0  0
  151.5288  143.7177  157.4021 H   0  0  0  0  0  0  0  0  0  0  0  0
  150.4022  143.3527  158.7168 H   0  0  0  0  0  0  0  0  0  0  0  0
  152.0378  145.8938  158.3390 H   0  0  0  0  0  0  0  0  0  0  0  0
  150.2976  145.7735  158.6199 H   0  0  0  0  0  0  0  0  0  0  0  0
  151.5457  143.5998  161.3114 H   0  0  0  0  0  0  0  0  0  0  0  0
  153.1187  144.3852  161.1733 H   0  0  0  0  0  0  0  0  0  0  0  0
  145.1947  138.3128  153.3731 H   0  0  0  0  0  0  0  0  0  0  0  0
  1  2  1  0  0  0  0
  1 31  1  0  0  0  0
  1 32  1  0  0  0  0
  1 33  1  0  0  0  0
  2 12  1  0  0  0  0
  2  3  1  0  0  0  0
  2 34  1  0  0  0  0
  3  4  1  0  0  0  0
  3 35  1  0  0  0  0
  3 36  1  0  0  0  0
  4  5  1  0  0  0  0
  4 10  1  0  0  0  0
  4 65  1  0  0  0  0
  5  6  1  0  0  0  0
  5 37  1  0  0  0  0
  5 38  1  0  0  0  0
  6  7  1  0  0  0  0
  6  8  1  0  0  0  0
  6  9  1  0  0  0  0
  7 39  1  0  0  0  0
  7 40  1  0  0  0  0
  7 41  1  0  0  0  0
  8 42  1  0  0  0  0
  8 43  1  0  0  0  0
  8 44  1  0  0  0  0
  9 45  1  0  0  0  0
 10 11  1  0  0  0  0
 10 46  1  0  0  0  0
 10 47  1  0  0  0  0
 11 12  1  0  0  0  0
 11 48  1  0  0  0  0
 11 49  1  0  0  0  0
 12 13  1  0  0  0  0
 13 18  1  0  0  0  0
 13 14  2  0  0  0  0
 14 15  1  0  0  0  0
 15 16  2  0  0  0  0
 15 50  1  0  0  0  0
 16 17  1  0  0  0  0
 17 21  1  0  0  0  0
 17 18  2  0  0  0  0
 18 19  1  0  0  0  0
 19 20  2  0  0  0  0
 20 21  1  0  0  0  0
 20 51  1  0  0  0  0
 21 22  1  0  0  0  0
 22 23  1  0  0  0  0
 22 52  1  0  0  0  0
 22 53  1  0  0  0  0
 23 24  1  0  0  0  0
 23 26  1  0  0  0  0
 23 54  1  0  0  0  0
 24 25  1  0  0  0  0
 24 55  1  0  0  0  0
 24 56  1  0  0  0  0
 25 57  1  0  0  0  0
 26 30  1  0  0  0  0
 26 27  1  0  0  0  0
 26 58  1  0  0  0  0
 27 28  1  0  0  0  0
 27 59  1  0  0  0  0
 27 60  1  0  0  0  0
 28 29  1  0  0  0  0
 28 61  1  0  0  0  0
 28 62  1  0  0  0  0
 29 30  1  0  0  0  0
 30 63  1  0  0  0  0
 30 64  1  0  0  0  0
M  CHG  1   4   1
M  END
> <s_m_source_file>
AV-unprocessed.smi

> <i_m_source_file_index>
212

> <i_lp_mmshare_version>
43012

> <i_f3d_flags>
0

> <s_epik_input>
W0NIM11bQ0BASF0xW0NIMl1OKFtDSDJdQyhbQ0gzXSkoW0NIM10pW09IXSlbQ0gyXVtDSDJdTjFjKG5bY0hdbjIpYyhjMjMpbltjSF1uM1tDSDJdW0NASF0oW0NIMl1bT0hdKVtDQEBIXTRbQ0gyXVtDSDJdT1tDSDJdNA==

> <s_epik_cmdline>
J2VwaWtfcHl0aG9uJywgJy1waCcsICc3LjAnLCAnLXRuJywgJzgnLCAnLW1hJywgJzIwMCcsICctbWV0YWxfYmluZGluZycsICctaW1hZScsICc8aW5maWxlLm1hZT4nLCAnLW9tYWUnLCAnPG91dGZpbGUubWFlPic=

> <r_lp_tautomer_probability>
1

> <r_epik_Ionization_Penalty>
0.00182193

> <r_epik_Ionization_Penalty_Charging>
0.00173996

> <r_epik_Ionization_Penalty_Neutral>
8.19718e-05

> <r_epik_State_Penalty>
-0

> <r_epik_Charging_Adjusted_Penalty>
0.00173996

> <i_epik_Tot_Q>
1

> <i_epik_Tot_abs_Q>
1

> <r_epik_Metal_State_Penalty>
-0

> <b_epik_Metal_Only>
0

> <s_lp_Force_Field>
OPLS_2005

> <r_lp_Energy>
59.0262

> <b_lp_Chiralities_Consistent>
1

> <s_lp_Variant>
AV-unprocessed.smi:212-16

> <Gold.Version>
5.8.1

> <Gold.Id.Protein>
6NUR|6NUR_protein|mol2

> <Gold.PLP.Fitness>
50.1709

> <Gold.PLP.PLP>
-48.4266

> <Gold.PLP.part.hbond>
-1.4089

> <Gold.PLP.part.metal>
0.0000

> <Gold.PLP.part.buried>
-5.9666

> <Gold.PLP.part.nonpolar>
-40.3966

> <Gold.PLP.part.repulsive>
0.4363

> <Gold.PLP.ligand.clash>
0.0000

> <Gold.PLP.ligand.torsion>
1.2261

> <Gold.PLP.Chemscore.Hbond>
1.0000

> <Gold.PLP.Chemscore.CHOScore>
0.0000

> <Gold.PLP.Chemscore.Metal>
0.0000

> <Gold.Chemscore.Hbonds>
donor molecule, donor type, donor heavy atom, donor atom, acceptor molecule, acceptor atom, score
      L1  H     9    45       P1 10171  0.84

> <Gold.PLP.Chemscore.Internal.Correction>
1.1965

> <Gold.Rescore>
     Score         DG    S(hbond)    S(metal)    S(lipo)     H(rot)  DE(clash)    DE(int)     intcor
     11.97     -13.49       1.00        0.00     120.57       3.68       0.12       1.40       ----

> <Gold.Chemscore.Fitness>
11.9748

> <Gold.Chemscore.DG>
-13.4917

> <Gold.Chemscore.ZeroCoef>
-5.4800

> <Gold.Chemscore.Hbond>
0.9968

> <Gold.Chemscore.Metal>
0.0000

> <Gold.Chemscore.Lipo>
120.5663

> <Gold.Chemscore.Internal_Hbond>
0.0000

> <Gold.Chemscore.DEClash>
0.1218

> <Gold.Chemscore.DEInternal>
1.3951

> <Gold.Chemscore.Rot>
3.6812

> <Gold.Chemscore.Internal.Correction>
   9.000000E+99

> <Gold.Chemscore.Hbonds>
donor molecule, donor type, donor heavy atom, donor atom, acceptor molecule, acceptor atom, score
      L1  H     9    45       P1 10171  0.80

> <Gold.Chemscore.Hbond.Weighted>
-3.3294

> <Gold.Chemscore.Metal.Weighted>
-0.0000

> <Gold.Chemscore.Lipo.Weighted>
-14.1063

> <Gold.Chemscore.Internal_Hbond.Weighted>
0.0000

> <Gold.Chemscore.DEClash.Weighted>
0.1218

> <Gold.Chemscore.DEInternal.Weighted>
1.3951

> <Gold.Chemscore.Rot.Weighted>
9.4239

> <Gold.Chemscore.Internal.Correction.Weighted>
   9.000000E+99

> <Gold.Protein.RotatedTorsions>
[ 6907 6896 6895 6894 ] final    3.62 input  -60.11 | X-H torsion
[ 7974 7965 7964 7962 ] final   10.11 input  175.53 | X-H torsion
[ 8008 7997 7996 7995 ] final  -95.44 input   59.86 | X-H torsion
[ 10167 10162 10161 10158 ] final -142.67 input  -65.29 | X-H torsion
[ 10718 10713 10712 10709 ] final  120.76 input   66.30 | X-H torsion
[ 10763 10752 10751 10750 ] final  155.06 input  -60.55 | X-H torsion
[ 11005 11000 10999 10996 ] final -147.33 input  -57.11 | X-H torsion

> <Gold.Protein.ActiveResidues>
 VAL166  LYS551  ARG553  GLY616  TRP617  ASP618  TYR619  PRO620  LYS621  CYS622 
 ASP623  PHE694  ASN695  SER759  ASP760  ASP761  ALA762  ILE779  LEU786  VAL792 
 PHE793  MET794  SER795  GLU796  ALA797  LYS798  CYS799  TRP800  GLU811  SER814 

> <Gold.Protein.RotatedAtoms>
  151.6280  135.1026  160.0115 H   0  0  0  0  0  0  0  0  0  0  0  0  # atno 6907 bound_to 6896
  152.4122  133.6977  159.6416 H   0  0  0  0  0  0  0  0  0  0  0  0  # atno 6908 bound_to 6896
  150.8012  133.8521  159.3249 H   0  0  0  0  0  0  0  0  0  0  0  0  # atno 6909 bound_to 6896
  146.2393  139.9683  142.8450 H   0  0  0  0  0  0  0  0  0  0  0  0  # atno 7974 bound_to 7965
  154.7614  140.0480  157.0977 H   0  0  0  0  0  0  0  0  0  0  0  0  # atno 8008 bound_to 7997
  154.9933  140.3116  155.4878 H   0  0  0  0  0  0  0  0  0  0  0  0  # atno 8009 bound_to 7997
  156.2905  140.2215  156.5039 H   0  0  0  0  0  0  0  0  0  0  0  0  # atno 8010 bound_to 7997
  139.8066  143.7759  152.2661 H   0  0  0  0  0  0  0  0  0  0  0  0  # atno 10167 bound_to 10162
  157.5867  131.1069  150.8080 H   0  0  0  0  0  0  0  0  0  0  0  0  # atno 10718 bound_to 10713
  154.1622  135.2809  155.3105 H   0  0  0  0  0  0  0  0  0  0  0  0  # atno 10763 bound_to 10752
  154.6138  135.5490  153.7504 H   0  0  0  0  0  0  0  0  0  0  0  0  # atno 10764 bound_to 10752
  153.0189  135.6422  154.1764 H   0  0  0  0  0  0  0  0  0  0  0  0  # atno 10765 bound_to 10752
  140.7728  134.3169  157.5069 H   0  0  0  0  0  0  0  0  0  0  0  0  # atno 11005 bound_to 11000
  145.1705  140.9718  143.4324 LP  0  0  0  0  0  0  0  0  0  0  0  0  # atno 17320 bound_to 7965
  145.0032  139.3578  143.6157 LP  0  0  0  0  0  0  0  0  0  0  0  0  # atno 17321 bound_to 7965
  139.7896  144.7415  150.9974 LP  0  0  0  0  0  0  0  0  0  0  0  0  # atno 17342 bound_to 10162
  140.7819  143.4456  151.0487 LP  0  0  0  0  0  0  0  0  0  0  0  0  # atno 17343 bound_to 10162
  156.8512  130.5081  149.5311 LP  0  0  0  0  0  0  0  0  0  0  0  0  # atno 17370 bound_to 10713
  156.0917  130.5901  150.9744 LP  0  0  0  0  0  0  0  0  0  0  0  0  # atno 17371 bound_to 10713
  139.8753  134.9271  156.3417 LP  0  0  0  0  0  0  0  0  0  0  0  0  # atno 17394 bound_to 11000
  140.9557  133.7421  156.0332 LP  0  0  0  0  0  0  0  0  0  0  0  0  # atno 17395 bound_to 11000

$$$$
