AV-unprocessed.smi:2121|AV-procd|sdf|8641|dock3
  -GOLD-   2272011393D 1   1.00000     0.00000
 Structure written by MMmdl.
 49 50  0  0  0  0  0  0  0  0  1 V2000
  153.9304  141.7153  161.7540 C   0  0  0  0  0  0  0  0  0  0  0  0
  152.8124  142.0270  160.7537 C   0  0  2  0  0  0  0  0  0  0  0  0
  152.9463  141.2002  159.4609 C   0  0  0  0  0  0  0  0  0  0  0  0
  151.9362  141.6070  158.4878 N   0  0  0  0  0  0  0  0  0  0  0  0
  151.7738  140.7450  157.3817 C   0  0  0  0  0  0  0  0  0  0  0  0
  150.6337  140.8606  156.5515 C   0  0  0  0  0  0  0  0  0  0  0  0
  150.4883  139.9865  155.4577 C   0  0  0  0  0  0  0  0  0  0  0  0
  151.4833  139.0153  155.2198 C   0  0  0  0  0  0  0  0  0  0  0  0
  151.3962  138.0359  154.0575 C   0  0  0  0  0  0  0  0  0  0  0  0
  150.3589  137.0202  154.2049 N   0  0  0  0  0  0  0  0  0  0  0  0
  150.1102  136.3350  155.3312 C   0  0  0  0  0  0  0  0  0  0  0  0
  150.7456  136.4986  156.3743 O   0  0  0  0  0  0  0  0  0  0  0  0
  148.9470  135.3323  155.2701 C   0  0  2  0  0  0  0  0  0  0  0  0
  149.5438  133.9171  155.1924 C   0  0  0  0  0  0  0  0  0  0  0  0
  148.1371  135.5504  154.0724 N   0  0  0  0  0  0  0  0  0  0  0  0
  146.8264  135.8342  154.0711 C   0  0  0  0  0  0  0  0  0  0  0  0
  146.3455  136.0054  152.8395 N   0  0  0  0  0  0  0  0  0  0  0  0
  146.1327  135.9308  155.0816 O   0  0  0  0  0  0  0  0  0  0  0  0
  152.5903  138.9834  156.0907 C   0  0  0  0  0  0  0  0  0  0  0  0
  152.7357  139.8202  157.1395 N   0  0  0  0  0  0  0  0  0  0  0  0
  151.9207  143.0474  158.2420 C   0  0  0  0  0  0  0  0  0  0  0  0
  151.8135  143.8193  159.5702 C   0  0  2  0  0  0  0  0  0  0  0  0
  151.9127  145.3343  159.3647 C   0  0  0  0  0  0  0  0  0  0  0  0
  152.8728  143.4141  160.4327 O   0  0  0  0  0  0  0  0  0  0  0  0
  153.9188  140.6633  162.0401 H   0  0  0  0  0  0  0  0  0  0  0  0
  153.8169  142.3077  162.6621 H   0  0  0  0  0  0  0  0  0  0  0  0
  154.9109  141.9370  161.3318 H   0  0  0  0  0  0  0  0  0  0  0  0
  151.8534  141.8116  161.2288 H   0  0  0  0  0  0  0  0  0  0  0  0
  153.9337  141.3476  159.0209 H   0  0  0  0  0  0  0  0  0  0  0  0
  152.8651  140.1423  159.7064 H   0  0  0  0  0  0  0  0  0  0  0  0
  149.8810  141.6136  156.7311 H   0  0  0  0  0  0  0  0  0  0  0  0
  149.6245  140.0691  154.8145 H   0  0  0  0  0  0  0  0  0  0  0  0
  151.1910  138.6020  153.1489 H   0  0  0  0  0  0  0  0  0  0  0  0
  152.3627  137.5514  153.9080 H   0  0  0  0  0  0  0  0  0  0  0  0
  149.7896  136.8252  153.3939 H   0  0  0  0  0  0  0  0  0  0  0  0
  148.3241  135.4197  156.1625 H   0  0  0  0  0  0  0  0  0  0  0  0
  150.1570  133.6973  156.0675 H   0  0  0  0  0  0  0  0  0  0  0  0
  150.1689  133.7868  154.3074 H   0  0  0  0  0  0  0  0  0  0  0  0
  148.7560  133.1643  155.1523 H   0  0  0  0  0  0  0  0  0  0  0  0
  148.6163  135.5009  153.1856 H   0  0  0  0  0  0  0  0  0  0  0  0
  145.3698  136.2223  152.6998 H   0  0  0  0  0  0  0  0  0  0  0  0
  146.9649  135.9144  152.0473 H   0  0  0  0  0  0  0  0  0  0  0  0
  153.3835  138.2652  155.9453 H   0  0  0  0  0  0  0  0  0  0  0  0
  152.8320  143.3311  157.7136 H   0  0  0  0  0  0  0  0  0  0  0  0
  151.0766  143.3096  157.6028 H   0  0  0  0  0  0  0  0  0  0  0  0
  150.8577  143.5968  160.0482 H   0  0  0  0  0  0  0  0  0  0  0  0
  151.1123  145.6957  158.7187 H   0  0  0  0  0  0  0  0  0  0  0  0
  152.8632  145.6091  158.9067 H   0  0  0  0  0  0  0  0  0  0  0  0
  151.8363  145.8621  160.3156 H   0  0  0  0  0  0  0  0  0  0  0  0
  1  2  1  0  0  0  0
  1 25  1  0  0  0  0
  1 26  1  0  0  0  0
  1 27  1  0  0  0  0
  2 24  1  0  0  0  0
  2  3  1  0  0  0  0
  2 28  1  0  0  0  0
  3  4  1  0  0  0  0
  3 29  1  0  0  0  0
  3 30  1  0  0  0  0
  4  5  1  0  0  0  0
  4 21  1  0  0  0  0
  5 20  1  0  0  0  0
  5  6  2  0  0  0  0
  6  7  1  0  0  0  0
  6 31  1  0  0  0  0
  7  8  2  0  0  0  0
  7 32  1  0  0  0  0
  8  9  1  0  0  0  0
  8 19  1  0  0  0  0
  9 10  1  0  0  0  0
  9 33  1  0  0  0  0
  9 34  1  0  0  0  0
 10 11  1  0  0  0  0
 10 35  1  0  0  0  0
 11 12  2  0  0  0  0
 11 13  1  0  0  0  0
 13 14  1  0  0  0  0
 13 15  1  0  0  0  0
 13 36  1  0  0  0  0
 14 37  1  0  0  0  0
 14 38  1  0  0  0  0
 14 39  1  0  0  0  0
 15 16  1  0  0  0  0
 15 40  1  0  0  0  0
 16 17  1  0  0  0  0
 16 18  2  0  0  0  0
 17 41  1  0  0  0  0
 17 42  1  0  0  0  0
 19 20  2  0  0  0  0
 19 43  1  0  0  0  0
 21 22  1  0  0  0  0
 21 44  1  0  0  0  0
 21 45  1  0  0  0  0
 22 23  1  0  0  0  0
 22 24  1  0  0  0  0
 22 46  1  0  0  0  0
 23 47  1  0  0  0  0
 23 48  1  0  0  0  0
 23 49  1  0  0  0  0
M  END
> <s_m_source_file>
AV-unprocessed.smi

> <i_m_source_file_index>
2121

> <i_lp_mmshare_version>
43012

> <i_f3d_flags>
0

> <s_epik_input>
W0NIM11bQ0BASF0xW0NIMl1OKFtDSDJdW0NASF0oTzEpW0NIM10pYzJbY0hdW2NIXWMoW2NIXW4yKVtDSDJdW05IXUMoPU8pW0NASF0oW0NIM10pW05IXUMoPU8pW05IMl0=

> <s_epik_cmdline>
J2VwaWtfcHl0aG9uJywgJy1waCcsICc3LjAnLCAnLXRuJywgJzgnLCAnLW1hJywgJzIwMCcsICctbWV0YWxfYmluZGluZycsICctaW1hZScsICc8aW5maWxlLm1hZT4nLCAnLW9tYWUnLCAnPG91dGZpbGUubWFlPic=

> <r_lp_tautomer_probability>
1

> <r_epik_Ionization_Penalty>
0.0063713

> <r_epik_Ionization_Penalty_Charging>
0

> <r_epik_Ionization_Penalty_Neutral>
0.0063713

> <r_epik_State_Penalty>
0.00467069

> <r_epik_Charging_Adjusted_Penalty>
0.00467069

> <i_epik_Tot_Q>
0

> <i_epik_Tot_abs_Q>
0

> <r_epik_Metal_State_Penalty>
-0

> <b_epik_Metal_Only>
0

> <s_lp_Force_Field>
OPLS_2005

> <r_lp_Energy>
8.04486

> <b_lp_Chiralities_Consistent>
1

> <s_lp_Variant>
AV-unprocessed.smi:2121-2

> <Gold.Version>
5.8.1

> <Gold.Id.Protein>
6NUR|6NUR_protein|mol2

> <Gold.PLP.Fitness>
53.2341

> <Gold.PLP.PLP>
-44.2044

> <Gold.PLP.part.hbond>
-4.7924

> <Gold.PLP.part.metal>
0.0000

> <Gold.PLP.part.buried>
-3.2876

> <Gold.PLP.part.nonpolar>
-36.0899

> <Gold.PLP.part.repulsive>
0.1096

> <Gold.PLP.ligand.clash>
0.0000

> <Gold.PLP.ligand.torsion>
0.7683

> <Gold.PLP.Chemscore.Hbond>
3.4032

> <Gold.PLP.Chemscore.CHOScore>
0.0000

> <Gold.PLP.Chemscore.Metal>
0.0000

> <Gold.Chemscore.Hbonds>
donor molecule, donor type, donor heavy atom, donor atom, acceptor molecule, acceptor atom, score
      L1  H    10    35       P1  7948  1.00
      L1  H    15    40       P1  7948  0.95
      L1  H    17    42       P1  7948  0.66
      P1  H  7997  8010       L1    20  0.76

> <Gold.PLP.Chemscore.Internal.Correction>
0.3567

> <Gold.Rescore>
     Score         DG    S(hbond)    S(metal)    S(lipo)     H(rot)  DE(clash)    DE(int)     intcor
     17.22     -19.65       2.48        0.00     106.76       2.58       0.38       2.05       ----

> <Gold.Chemscore.Fitness>
17.2155

> <Gold.Chemscore.DG>
-19.6499

> <Gold.Chemscore.ZeroCoef>
-5.4800

> <Gold.Chemscore.Hbond>
2.4829

> <Gold.Chemscore.Metal>
0.0000

> <Gold.Chemscore.Lipo>
106.7646

> <Gold.Chemscore.Internal_Hbond>
0.0000

> <Gold.Chemscore.DEClash>
0.3833

> <Gold.Chemscore.DEInternal>
2.0511

> <Gold.Chemscore.Rot>
2.5838

> <Gold.Chemscore.Internal.Correction>
   9.000000E+99

> <Gold.Chemscore.Hbonds>
donor molecule, donor type, donor heavy atom, donor atom, acceptor molecule, acceptor atom, score
      L1  H    10    35       P1  7948  0.40
      L1  H    15    40       P1  7948  0.82
      L1  H    17    42       P1  7948  0.63
      P1  H  7997  8010       L1    20  0.11

> <Gold.Chemscore.Hbond.Weighted>
-8.2929

> <Gold.Chemscore.Metal.Weighted>
-0.0000

> <Gold.Chemscore.Lipo.Weighted>
-12.4915

> <Gold.Chemscore.Internal_Hbond.Weighted>
0.0000

> <Gold.Chemscore.DEClash.Weighted>
0.3833

> <Gold.Chemscore.DEInternal.Weighted>
2.0511

> <Gold.Chemscore.Rot.Weighted>
6.6145

> <Gold.Chemscore.Internal.Correction.Weighted>
   9.000000E+99

> <Gold.Protein.RotatedTorsions>
[ 6907 6896 6895 6894 ] final  140.19 input  -60.11 | X-H torsion
[ 7974 7965 7964 7962 ] final -168.17 input  175.53 | X-H torsion
[ 8008 7997 7996 7995 ] final   39.47 input   59.86 | X-H torsion
[ 10167 10162 10161 10158 ] final  -47.74 input  -65.29 | X-H torsion
[ 10718 10713 10712 10709 ] final  -16.73 input   66.30 | X-H torsion
[ 10763 10752 10751 10750 ] final -161.41 input  -60.55 | X-H torsion
[ 11005 11000 10999 10996 ] final -126.40 input  -57.11 | X-H torsion

> <Gold.Protein.ActiveResidues>
 VAL166  LYS551  ARG553  GLY616  TRP617  ASP618  TYR619  PRO620  LYS621  CYS622 
 ASP623  PHE694  ASN695  SER759  ASP760  ASP761  ALA762  ILE779  LEU786  VAL792 
 PHE793  MET794  SER795  GLU796  ALA797  LYS798  CYS799  TRP800  GLU811  SER814 

> <Gold.Protein.RotatedAtoms>
  152.2460  133.5175  159.5297 H   0  0  0  0  0  0  0  0  0  0  0  0  # atno 6907 bound_to 6896
  150.7078  134.1025  159.3980 H   0  0  0  0  0  0  0  0  0  0  0  0  # atno 6908 bound_to 6896
  151.8945  135.0403  160.0551 H   0  0  0  0  0  0  0  0  0  0  0  0  # atno 6909 bound_to 6896
  144.7208  140.2409  143.6291 H   0  0  0  0  0  0  0  0  0  0  0  0  # atno 7974 bound_to 7965
  155.2372  140.3342  155.4296 H   0  0  0  0  0  0  0  0  0  0  0  0  # atno 8008 bound_to 7997
  156.2271  140.1834  156.7381 H   0  0  0  0  0  0  0  0  0  0  0  0  # atno 8009 bound_to 7997
  154.5916  140.0637  156.9232 H   0  0  0  0  0  0  0  0  0  0  0  0  # atno 8010 bound_to 7997
  140.6762  143.2771  151.3970 H   0  0  0  0  0  0  0  0  0  0  0  0  # atno 10167 bound_to 10162
  156.5835  130.4780  149.6310 H   0  0  0  0  0  0  0  0  0  0  0  0  # atno 10718 bound_to 10713
  154.7306  135.3045  154.8897 H   0  0  0  0  0  0  0  0  0  0  0  0  # atno 10763 bound_to 10752
  153.9741  135.6738  153.4752 H   0  0  0  0  0  0  0  0  0  0  0  0  # atno 10764 bound_to 10752
  153.0915  135.4957  154.8619 H   0  0  0  0  0  0  0  0  0  0  0  0  # atno 10765 bound_to 10752
  140.9684  134.0839  157.3895 H   0  0  0  0  0  0  0  0  0  0  0  0  # atno 11005 bound_to 11000
  145.8320  139.2090  143.1877 LP  0  0  0  0  0  0  0  0  0  0  0  0  # atno 17320 bound_to 7965
  146.0422  140.8153  142.9823 LP  0  0  0  0  0  0  0  0  0  0  0  0  # atno 17321 bound_to 7965
  139.6056  144.1205  152.2245 LP  0  0  0  0  0  0  0  0  0  0  0  0  # atno 17342 bound_to 10162
  140.0603  144.5862  150.7268 LP  0  0  0  0  0  0  0  0  0  0  0  0  # atno 17343 bound_to 10162
  156.2611  130.6963  151.1732 LP  0  0  0  0  0  0  0  0  0  0  0  0  # atno 17370 bound_to 10713
  157.7321  131.0603  150.5646 LP  0  0  0  0  0  0  0  0  0  0  0  0  # atno 17371 bound_to 10713
  139.8903  135.0111  156.6728 LP  0  0  0  0  0  0  0  0  0  0  0  0  # atno 17394 bound_to 11000
  140.7365  133.9014  155.8248 LP  0  0  0  0  0  0  0  0  0  0  0  0  # atno 17395 bound_to 11000

$$$$
