AV-unprocessed.smi:923|AV-procd|sdf|4178|dock4
  -GOLD-   22720 2 83D 1   1.00000     0.00000
 Structure written by MMmdl.
 34 35  0  0  0  0  0  0  0  0  2 V2000
  146.2387  138.1385  151.9982 C   0  0  0  0  0  0  0  0  0  0  0  0
  147.1339  138.9500  152.8708 C   0  0  0  0  0  0  0  0  0  0  0  0
  147.9972  138.4011  153.7288 N   0  0  0  0  0  0  0  0  0  0  0  0
  148.7215  139.3578  154.4253 N   0  0  0  0  0  0  0  0  0  0  0  0
  148.4052  140.6134  154.0773 C   0  0  0  0  0  0  0  0  0  0  0  0
  148.9929  141.6861  154.6327 N   0  5  0  0  0  0  0  0  0  0  0  0
  150.1106  141.5322  155.3793 C   0  0  0  0  0  0  0  0  0  0  0  0
  150.9236  140.6091  155.2930 O   0  0  0  0  0  0  0  0  0  0  0  0
  150.2968  142.5093  156.2795 N   0  0  0  0  0  0  0  0  0  0  0  0
  151.4122  142.6243  157.2182 C   0  0  0  0  0  0  0  0  0  0  0  0
  151.3027  141.5045  158.2735 C   0  0  0  0  0  0  0  0  0  0  0  0
  152.3882  141.5197  159.3638 C   0  0  0  0  0  0  0  0  0  0  0  0
  152.1826  142.6423  160.3933 C   0  0  0  0  0  0  0  0  0  0  0  0
  152.7964  144.0021  160.0174 C   0  0  0  0  0  0  0  0  0  0  0  0
  152.7278  144.4014  158.5327 C   0  0  0  0  0  0  0  0  0  0  0  0
  151.4174  144.0499  157.8080 C   0  0  0  0  0  0  0  0  0  0  0  0
  147.1417  140.7054  152.8507 S   0  0  0  0  0  0  0  0  0  0  0  0
  146.8094  137.7146  151.1718 H   0  0  0  0  0  0  0  0  0  0  0  0
  145.4413  138.7604  151.5910 H   0  0  0  0  0  0  0  0  0  0  0  0
  145.7897  137.3257  152.5695 H   0  0  0  0  0  0  0  0  0  0  0  0
  149.6011  143.2399  156.3133 H   0  0  0  0  0  0  0  0  0  0  0  0
  152.3439  142.4912  156.6653 H   0  0  0  0  0  0  0  0  0  0  0  0
  150.3175  141.5314  158.7414 H   0  0  0  0  0  0  0  0  0  0  0  0
  151.3549  140.5433  157.7604 H   0  0  0  0  0  0  0  0  0  0  0  0
  152.3345  140.5672  159.8924 H   0  0  0  0  0  0  0  0  0  0  0  0
  153.3868  141.5612  158.9274 H   0  0  0  0  0  0  0  0  0  0  0  0
  151.1162  142.7644  160.5869 H   0  0  0  0  0  0  0  0  0  0  0  0
  152.6118  142.3331  161.3470 H   0  0  0  0  0  0  0  0  0  0  0  0
  152.3093  144.7713  160.6176 H   0  0  0  0  0  0  0  0  0  0  0  0
  153.8438  144.0157  160.3210 H   0  0  0  0  0  0  0  0  0  0  0  0
  152.8858  145.4785  158.4710 H   0  0  0  0  0  0  0  0  0  0  0  0
  153.5685  143.9605  157.9957 H   0  0  0  0  0  0  0  0  0  0  0  0
  151.3027  144.7561  156.9843 H   0  0  0  0  0  0  0  0  0  0  0  0
  150.5568  144.2113  158.4588 H   0  0  0  0  0  0  0  0  0  0  0  0
  1  2  1  0  0  0  0
  1 18  1  0  0  0  0
  1 19  1  0  0  0  0
  1 20  1  0  0  0  0
  2 17  1  0  0  0  0
  2  3  2  0  0  0  0
  3  4  1  0  0  0  0
  4  5  2  0  0  0  0
  5  6  1  0  0  0  0
  5 17  1  0  0  0  0
  6  7  1  0  0  0  0
  7  8  2  0  0  0  0
  7  9  1  0  0  0  0
  9 10  1  0  0  0  0
  9 21  1  0  0  0  0
 10 16  1  0  0  0  0
 10 11  1  0  0  0  0
 10 22  1  0  0  0  0
 11 12  1  0  0  0  0
 11 23  1  0  0  0  0
 11 24  1  0  0  0  0
 12 13  1  0  0  0  0
 12 25  1  0  0  0  0
 12 26  1  0  0  0  0
 13 14  1  0  0  0  0
 13 27  1  0  0  0  0
 13 28  1  0  0  0  0
 14 15  1  0  0  0  0
 14 29  1  0  0  0  0
 14 30  1  0  0  0  0
 15 16  1  0  0  0  0
 15 31  1  0  0  0  0
 15 32  1  0  0  0  0
 16 33  1  0  0  0  0
 16 34  1  0  0  0  0
M  CHG  1   6  -1
M  END
> <s_m_source_file>
AV-unprocessed.smi

> <i_m_source_file_index>
923

> <i_lp_mmshare_version>
43012

> <i_f3d_flags>
0

> <s_epik_input>
W0NIM11jMW5uYyhzMSlbTkhdQyg9TylbTkhdW0NIXTJbQ0gyXVtDSDJdW0NIMl1bQ0gyXVtDSDJdW0NIMl0y

> <s_epik_cmdline>
J2VwaWtfcHl0aG9uJywgJy1waCcsICc3LjAnLCAnLXRuJywgJzgnLCAnLW1hJywgJzIwMCcsICctbWV0YWxfYmluZGluZycsICctaW1hZScsICc8aW5maWxlLm1hZT4nLCAnLW9tYWUnLCAnPG91dGZpbGUubWFlPic=

> <r_lp_tautomer_probability>
1

> <r_epik_Ionization_Penalty>
4.57867

> <r_epik_Ionization_Penalty_Charging>
4.42407

> <r_epik_Ionization_Penalty_Neutral>
0.154599

> <r_epik_State_Penalty>
4.42373

> <r_epik_Charging_Adjusted_Penalty>
8.84779

> <i_epik_Tot_Q>
-1

> <i_epik_Tot_abs_Q>
1

> <r_epik_Metal_State_Penalty>
0.782603

> <b_epik_Metal_Only>
1

> <s_lp_Force_Field>
OPLS_2005

> <r_lp_Energy>
12.5708

> <b_lp_Chiralities_Consistent>
1

> <s_lp_Variant>
AV-unprocessed.smi:923-2

> <Gold.Version>
5.8.1

> <Gold.Id.Protein>
6NUR|6NUR_protein|mol2

> <Gold.PLP.Fitness>
41.7492

> <Gold.PLP.PLP>
-36.5517

> <Gold.PLP.part.hbond>
-2.2611

> <Gold.PLP.part.metal>
0.0000

> <Gold.PLP.part.buried>
-3.1421

> <Gold.PLP.part.nonpolar>
-30.8841

> <Gold.PLP.part.repulsive>
1.2825

> <Gold.PLP.ligand.clash>
0.0000

> <Gold.PLP.ligand.torsion>
0.2889

> <Gold.PLP.Chemscore.Hbond>
1.9200

> <Gold.PLP.Chemscore.CHOScore>
0.0000

> <Gold.PLP.Chemscore.Metal>
0.0000

> <Gold.Chemscore.Hbonds>
donor molecule, donor type, donor heavy atom, donor atom, acceptor molecule, acceptor atom, score
      L1  H     9    21       P1  8028  1.00
      P1  H  7989  7998       L1     8  0.91

> <Gold.PLP.Chemscore.Internal.Correction>
0.0154

> <Gold.Rescore>
     Score         DG    S(hbond)    S(metal)    S(lipo)     H(rot)  DE(clash)    DE(int)     intcor
     16.76     -19.03       1.36        0.00      98.91       1.00       0.41       1.86       ----

> <Gold.Chemscore.Fitness>
16.7604

> <Gold.Chemscore.DG>
-19.0325

> <Gold.Chemscore.ZeroCoef>
-5.4800

> <Gold.Chemscore.Hbond>
1.3591

> <Gold.Chemscore.Metal>
0.0000

> <Gold.Chemscore.Lipo>
98.9148

> <Gold.Chemscore.Internal_Hbond>
0.0000

> <Gold.Chemscore.DEClash>
0.4144

> <Gold.Chemscore.DEInternal>
1.8576

> <Gold.Chemscore.Rot>
1.0000

> <Gold.Chemscore.Internal.Correction>
   9.000000E+99

> <Gold.Chemscore.Hbonds>
donor molecule, donor type, donor heavy atom, donor atom, acceptor molecule, acceptor atom, score
      L1  H     9    21       P1  8028  0.95
      P1  H  7989  7998       L1     8  0.27

> <Gold.Chemscore.Hbond.Weighted>
-4.5395

> <Gold.Chemscore.Metal.Weighted>
-0.0000

> <Gold.Chemscore.Lipo.Weighted>
-11.5730

> <Gold.Chemscore.Internal_Hbond.Weighted>
0.0000

> <Gold.Chemscore.DEClash.Weighted>
0.4144

> <Gold.Chemscore.DEInternal.Weighted>
1.8576

> <Gold.Chemscore.Rot.Weighted>
2.5600

> <Gold.Chemscore.Internal.Correction.Weighted>
   9.000000E+99

> <Gold.Protein.RotatedTorsions>
[ 6907 6896 6895 6894 ] final  -78.94 input  -60.11 | X-H torsion
[ 7974 7965 7964 7962 ] final   63.48 input  175.53 | X-H torsion
[ 8008 7997 7996 7995 ] final   42.97 input   59.86 | X-H torsion
[ 10167 10162 10161 10158 ] final  -15.06 input  -65.29 | X-H torsion
[ 10718 10713 10712 10709 ] final -170.01 input   66.30 | X-H torsion
[ 10763 10752 10751 10750 ] final   -1.97 input  -60.55 | X-H torsion
[ 11005 11000 10999 10996 ] final  179.20 input  -57.11 | X-H torsion

> <Gold.Protein.ActiveResidues>
 VAL166  LYS551  ARG553  GLY616  TRP617  ASP618  TYR619  PRO620  LYS621  CYS622 
 ASP623  PHE694  ASN695  SER759  ASP760  ASP761  ALA762  ILE779  LEU786  VAL792 
 PHE793  MET794  SER795  GLU796  ALA797  LYS798  CYS799  TRP800  GLU811  SER814 

> <Gold.Protein.RotatedAtoms>
  150.6961  134.4197  159.5198 H   0  0  0  0  0  0  0  0  0  0  0  0  # atno 6907 bound_to 6896
  152.1942  134.8643  160.0523 H   0  0  0  0  0  0  0  0  0  0  0  0  # atno 6908 bound_to 6896
  151.9587  133.3653  159.4064 H   0  0  0  0  0  0  0  0  0  0  0  0  # atno 6909 bound_to 6896
  145.8614  139.3317  143.0817 H   0  0  0  0  0  0  0  0  0  0  0  0  # atno 7974 bound_to 7965
  155.2950  140.3381  155.4250 H   0  0  0  0  0  0  0  0  0  0  0  0  # atno 8008 bound_to 7997
  156.2028  140.1739  156.7903 H   0  0  0  0  0  0  0  0  0  0  0  0  # atno 8009 bound_to 7997
  154.5581  140.0692  156.8760 H   0  0  0  0  0  0  0  0  0  0  0  0  # atno 8010 bound_to 7997
  140.7212  143.5258  150.9579 H   0  0  0  0  0  0  0  0  0  0  0  0  # atno 10167 bound_to 10162
  156.7199  130.9266  151.3096 H   0  0  0  0  0  0  0  0  0  0  0  0  # atno 10718 bound_to 10713
  153.3519  135.6986  153.6782 H   0  0  0  0  0  0  0  0  0  0  0  0  # atno 10763 bound_to 10752
  153.5505  135.3554  155.2758 H   0  0  0  0  0  0  0  0  0  0  0  0  # atno 10764 bound_to 10752
  154.8654  135.4225  154.2756 H   0  0  0  0  0  0  0  0  0  0  0  0  # atno 10765 bound_to 10752
  140.4035  134.6756  157.4575 H   0  0  0  0  0  0  0  0  0  0  0  0  # atno 11005 bound_to 11000
  145.9244  140.9093  143.0388 LP  0  0  0  0  0  0  0  0  0  0  0  0  # atno 17320 bound_to 7965
  144.6726  140.1333  143.7442 LP  0  0  0  0  0  0  0  0  0  0  0  0  # atno 17321 bound_to 7965
  139.8976  143.6875  152.3136 LP  0  0  0  0  0  0  0  0  0  0  0  0  # atno 17342 bound_to 10162
  139.7213  144.7602  151.0950 LP  0  0  0  0  0  0  0  0  0  0  0  0  # atno 17343 bound_to 10162
  157.6902  130.9226  150.0494 LP  0  0  0  0  0  0  0  0  0  0  0  0  # atno 17370 bound_to 10713
  156.1602  130.3644  149.9310 LP  0  0  0  0  0  0  0  0  0  0  0  0  # atno 17371 bound_to 10713
  140.0319  134.6394  155.9095 LP  0  0  0  0  0  0  0  0  0  0  0  0  # atno 17394 bound_to 11000
  141.1848  133.6553  156.5171 LP  0  0  0  0  0  0  0  0  0  0  0  0  # atno 17395 bound_to 11000

$$$$
