AV-unprocessed.smi:571|AV-procd|sdf|2963|dock5
  -GOLD-   2262023463D 1   1.00000     0.00000
 Structure written by MMmdl.
 44 45  0  0  0  0  0  0  0  0  2 V2000
  149.2345  135.0838  155.0167 C   0  0  0  0  0  0  0  0  0  0  0  0
  147.8451  135.3286  155.6279 C   0  0  2  0  0  0  0  0  0  0  0  0
  146.9432  136.1976  154.7131 C   0  0  0  0  0  0  0  0  0  0  0  0
  146.7085  135.5950  153.3750 N   0  3  0  0  0  0  0  0  0  0  0  0
  146.6355  134.1123  153.4162 C   0  0  0  0  0  0  0  0  0  0  0  0
  146.5765  133.5267  151.9955 C   0  0  0  0  0  0  0  0  0  0  0  0
  145.3947  134.1107  151.2100 C   0  0  0  0  0  0  0  0  0  0  0  0
  145.4669  135.6436  151.2157 C   0  0  0  0  0  0  0  0  0  0  0  0
  145.5527  136.1872  152.6520 C   0  0  0  0  0  0  0  0  0  0  0  0
  147.9466  135.8377  156.9999 N   0  0  0  0  0  0  0  0  0  0  0  0
  148.6049  135.2730  158.0262 C   0  0  0  0  0  0  0  0  0  0  0  0
  149.1875  134.1916  157.9427 O   0  0  0  0  0  0  0  0  0  0  0  0
  148.6105  136.0662  159.3391 C   0  0  0  0  0  0  0  0  0  0  0  0
  147.8973  135.3646  160.4184 N   0  0  0  0  0  0  0  0  0  0  0  0
  147.8754  133.9568  160.3482 C   0  0  0  0  0  0  0  0  0  0  0  0
  147.2422  133.2098  161.2661 C   0  0  0  0  0  0  0  0  0  0  0  0
  146.5706  133.8863  162.3505 C   0  0  0  0  0  0  0  0  0  0  0  0
  146.5811  135.2322  162.4241 C   0  0  0  0  0  0  0  0  0  0  0  0
  147.2660  136.0534  161.4190 C   0  0  0  0  0  0  0  0  0  0  0  0
  147.2680  137.2833  161.4716 O   0  0  0  0  0  0  0  0  0  0  0  0
  149.1516  134.6076  154.0394 H   0  0  0  0  0  0  0  0  0  0  0  0
  149.8333  134.4295  155.6512 H   0  0  0  0  0  0  0  0  0  0  0  0
  149.7871  136.0142  154.8834 H   0  0  0  0  0  0  0  0  0  0  0  0
  147.3693  134.3526  155.7248 H   0  0  0  0  0  0  0  0  0  0  0  0
  145.9804  136.3293  155.2090 H   0  0  0  0  0  0  0  0  0  0  0  0
  147.3587  137.2005  154.6032 H   0  0  0  0  0  0  0  0  0  0  0  0
  147.5124  133.7133  153.9275 H   0  0  0  0  0  0  0  0  0  0  0  0
  145.7619  133.8042  153.9927 H   0  0  0  0  0  0  0  0  0  0  0  0
  147.5087  133.7437  151.4718 H   0  0  0  0  0  0  0  0  0  0  0  0
  146.4939  132.4404  152.0421 H   0  0  0  0  0  0  0  0  0  0  0  0
  145.3988  133.7360  150.1859 H   0  0  0  0  0  0  0  0  0  0  0  0
  144.4558  133.7840  151.6590 H   0  0  0  0  0  0  0  0  0  0  0  0
  146.3394  135.9709  150.6481 H   0  0  0  0  0  0  0  0  0  0  0  0
  144.5949  136.0601  150.7103 H   0  0  0  0  0  0  0  0  0  0  0  0
  144.6310  135.9700  153.1939 H   0  0  0  0  0  0  0  0  0  0  0  0
  145.6489  137.2718  152.6133 H   0  0  0  0  0  0  0  0  0  0  0  0
  147.4840  136.7174  157.1809 H   0  0  0  0  0  0  0  0  0  0  0  0
  149.6400  136.2533  159.6495 H   0  0  0  0  0  0  0  0  0  0  0  0
  148.1866  137.0538  159.1514 H   0  0  0  0  0  0  0  0  0  0  0  0
  148.3969  133.5313  159.5028 H   0  0  0  0  0  0  0  0  0  0  0  0
  147.2329  132.1321  161.1943 H   0  0  0  0  0  0  0  0  0  0  0  0
  146.0572  133.3107  163.1065 H   0  0  0  0  0  0  0  0  0  0  0  0
  146.0727  135.7208  163.2426 H   0  0  0  0  0  0  0  0  0  0  0  0
  147.5316  135.8117  152.8311 H   0  0  0  0  0  0  0  0  0  0  0  0
  1  2  1  0  0  0  0
  1 21  1  0  0  0  0
  1 22  1  0  0  0  0
  1 23  1  0  0  0  0
  2  3  1  0  0  0  0
  2 10  1  0  0  0  0
  2 24  1  0  0  0  0
  3  4  1  0  0  0  0
  3 25  1  0  0  0  0
  3 26  1  0  0  0  0
  4  9  1  0  0  0  0
  4  5  1  0  0  0  0
  4 44  1  0  0  0  0
  5  6  1  0  0  0  0
  5 27  1  0  0  0  0
  5 28  1  0  0  0  0
  6  7  1  0  0  0  0
  6 29  1  0  0  0  0
  6 30  1  0  0  0  0
  7  8  1  0  0  0  0
  7 31  1  0  0  0  0
  7 32  1  0  0  0  0
  8  9  1  0  0  0  0
  8 33  1  0  0  0  0
  8 34  1  0  0  0  0
  9 35  1  0  0  0  0
  9 36  1  0  0  0  0
 10 11  1  0  0  0  0
 10 37  1  0  0  0  0
 11 12  2  0  0  0  0
 11 13  1  0  0  0  0
 13 14  1  0  0  0  0
 13 38  1  0  0  0  0
 13 39  1  0  0  0  0
 14 19  1  0  0  0  0
 14 15  1  0  0  0  0
 15 16  2  0  0  0  0
 15 40  1  0  0  0  0
 16 17  1  0  0  0  0
 16 41  1  0  0  0  0
 17 18  2  0  0  0  0
 17 42  1  0  0  0  0
 18 19  1  0  0  0  0
 18 43  1  0  0  0  0
 19 20  2  0  0  0  0
M  CHG  1   4   1
M  END
> <s_m_source_file>
AV-unprocessed.smi

> <i_m_source_file_index>
571

> <i_lp_mmshare_version>
43012

> <i_f3d_flags>
0

> <s_epik_input>
W0NIMl0xW0NIMl1bQ0gyXVtDSDJdW0NIMl1OMVtDSDJdW0NAQEhdKFtDSDNdKVtOSF1DKD1PKVtDSDJdbjJbY0hdW2NIXVtjSF1bY0hdYzI9Tw==

> <s_epik_cmdline>
J2VwaWtfcHl0aG9uJywgJy1waCcsICc3LjAnLCAnLXRuJywgJzgnLCAnLW1hJywgJzIwMCcsICctbWV0YWxfYmluZGluZycsICctaW1hZScsICc8aW5maWxlLm1hZT4nLCAnLW9tYWUnLCAnPG91dGZpbGUubWFlPic=

> <r_lp_tautomer_probability>
1

> <r_epik_Ionization_Penalty>
0.00237248

> <r_epik_Ionization_Penalty_Charging>
0.0023724

> <r_epik_Ionization_Penalty_Neutral>
8.2065e-08

> <r_epik_State_Penalty>
0.00163922

> <r_epik_Charging_Adjusted_Penalty>
0.00401161

> <i_epik_Tot_Q>
1

> <i_epik_Tot_abs_Q>
1

> <r_epik_Metal_State_Penalty>
-0

> <b_epik_Metal_Only>
0

> <s_lp_Force_Field>
OPLS_2005

> <r_lp_Energy>
32.5109

> <b_lp_Chiralities_Consistent>
1

> <s_lp_Variant>
AV-unprocessed.smi:571-1

> <Gold.Version>
5.8.1

> <Gold.Id.Protein>
6NUR|6NUR_protein|mol2

> <Gold.PLP.Fitness>
47.3405

> <Gold.PLP.PLP>
-34.0166

> <Gold.PLP.part.hbond>
-4.0000

> <Gold.PLP.part.metal>
0.0000

> <Gold.PLP.part.buried>
-4.5664

> <Gold.PLP.part.nonpolar>
-26.1466

> <Gold.PLP.part.repulsive>
0.0066

> <Gold.PLP.ligand.clash>
0.0000

> <Gold.PLP.ligand.torsion>
0.6455

> <Gold.PLP.Chemscore.Hbond>
4.8240

> <Gold.PLP.Chemscore.CHOScore>
0.0000

> <Gold.PLP.Chemscore.Metal>
0.0000

> <Gold.Chemscore.Hbonds>
donor molecule, donor type, donor heavy atom, donor atom, acceptor molecule, acceptor atom, score
      L1  H     4    44       P1  7948  2.00
      P1  H  6896  6908       L1    12  0.98
      P1  H  6931  6943       L1    20  0.78
      P1  H  6934  6947       L1    20  0.94

> <Gold.PLP.Chemscore.Internal.Correction>
0.1430

> <Gold.Rescore>
     Score         DG    S(hbond)    S(metal)    S(lipo)     H(rot)  DE(clash)    DE(int)     intcor
     18.50     -20.62       3.67        0.00      64.80       1.84       0.01       2.11       ----

> <Gold.Chemscore.Fitness>
18.4957

> <Gold.Chemscore.DG>
-20.6201

> <Gold.Chemscore.ZeroCoef>
-5.4800

> <Gold.Chemscore.Hbond>
3.6742

> <Gold.Chemscore.Metal>
0.0000

> <Gold.Chemscore.Lipo>
64.8046

> <Gold.Chemscore.Internal_Hbond>
0.0000

> <Gold.Chemscore.DEClash>
0.0149

> <Gold.Chemscore.DEInternal>
2.1096

> <Gold.Chemscore.Rot>
1.8413

> <Gold.Chemscore.Internal.Correction>
   9.000000E+99

> <Gold.Chemscore.Hbonds>
donor molecule, donor type, donor heavy atom, donor atom, acceptor molecule, acceptor atom, score
      L1  H     4    44       P1  7948  1.00
      P1  H  6896  6908       L1    12  0.72
      P1  H  6931  6943       L1    20  0.71
      P1  H  6934  6947       L1    20  0.92

> <Gold.Chemscore.Hbond.Weighted>
-12.2717

> <Gold.Chemscore.Metal.Weighted>
-0.0000

> <Gold.Chemscore.Lipo.Weighted>
-7.5821

> <Gold.Chemscore.Internal_Hbond.Weighted>
0.0000

> <Gold.Chemscore.DEClash.Weighted>
0.0149

> <Gold.Chemscore.DEInternal.Weighted>
2.1096

> <Gold.Chemscore.Rot.Weighted>
4.7137

> <Gold.Chemscore.Internal.Correction.Weighted>
   9.000000E+99

> <Gold.Protein.RotatedTorsions>
[ 6907 6896 6895 6894 ] final  137.23 input  -60.11 | X-H torsion
[ 7974 7965 7964 7962 ] final  -49.81 input  175.53 | X-H torsion
[ 8008 7997 7996 7995 ] final  115.19 input   59.86 | X-H torsion
[ 10167 10162 10161 10158 ] final  -93.06 input  -65.29 | X-H torsion
[ 10718 10713 10712 10709 ] final -138.81 input   66.30 | X-H torsion
[ 10763 10752 10751 10750 ] final -138.83 input  -60.55 | X-H torsion
[ 11005 11000 10999 10996 ] final  129.34 input  -57.11 | X-H torsion

> <Gold.Protein.ActiveResidues>
 VAL166  LYS551  ARG553  GLY616  TRP617  ASP618  TYR619  PRO620  LYS621  CYS622 
 ASP623  PHE694  ASN695  SER759  ASP760  ASP761  ALA762  ILE779  LEU786  VAL792 
 PHE793  MET794  SER795  GLU796  ALA797  LYS798  CYS799  TRP800  GLU811  SER814 

> <Gold.Protein.RotatedAtoms>
  152.2804  133.5465  159.5493 H   0  0  0  0  0  0  0  0  0  0  0  0  # atno 6907 bound_to 6896
  150.7193  134.0572  159.3828 H   0  0  0  0  0  0  0  0  0  0  0  0  # atno 6908 bound_to 6896
  151.8483  135.0566  160.0507 H   0  0  0  0  0  0  0  0  0  0  0  0  # atno 6909 bound_to 6896
  145.9366  140.7701  142.9573 H   0  0  0  0  0  0  0  0  0  0  0  0  # atno 7974 bound_to 7965
  156.2367  140.2943  156.0331 H   0  0  0  0  0  0  0  0  0  0  0  0  # atno 8008 bound_to 7997
  155.2072  140.0411  157.2944 H   0  0  0  0  0  0  0  0  0  0  0  0  # atno 8009 bound_to 7997
  154.6091  140.2447  155.7699 H   0  0  0  0  0  0  0  0  0  0  0  0  # atno 8010 bound_to 7997
  140.3285  143.3008  151.9968 H   0  0  0  0  0  0  0  0  0  0  0  0  # atno 10167 bound_to 10162
  156.3036  130.7442  151.1500 H   0  0  0  0  0  0  0  0  0  0  0  0  # atno 10718 bound_to 10713
  154.8626  135.3600  154.5448 H   0  0  0  0  0  0  0  0  0  0  0  0  # atno 10763 bound_to 10752
  153.6068  135.7011  153.5367 H   0  0  0  0  0  0  0  0  0  0  0  0  # atno 10764 bound_to 10752
  153.3243  135.4142  155.1404 H   0  0  0  0  0  0  0  0  0  0  0  0  # atno 10765 bound_to 10752
  139.9610  134.9602  156.9134 H   0  0  0  0  0  0  0  0  0  0  0  0  # atno 11005 bound_to 11000
  144.6772  140.2212  143.7366 LP  0  0  0  0  0  0  0  0  0  0  0  0  # atno 17320 bound_to 7965
  145.8356  139.2106  143.1857 LP  0  0  0  0  0  0  0  0  0  0  0  0  # atno 17321 bound_to 7965
  139.4861  144.6254  151.7175 LP  0  0  0  0  0  0  0  0  0  0  0  0  # atno 17342 bound_to 10162
  140.5418  144.0566  150.6091 LP  0  0  0  0  0  0  0  0  0  0  0  0  # atno 17343 bound_to 10162
  157.7374  131.0552  150.5357 LP  0  0  0  0  0  0  0  0  0  0  0  0  # atno 17370 bound_to 10713
  156.5488  130.4226  149.6118 LP  0  0  0  0  0  0  0  0  0  0  0  0  # atno 17371 bound_to 10713
  140.5500  134.0636  155.7366 LP  0  0  0  0  0  0  0  0  0  0  0  0  # atno 17394 bound_to 11000
  141.1287  133.9339  157.2581 LP  0  0  0  0  0  0  0  0  0  0  0  0  # atno 17395 bound_to 11000

$$$$
