AV-unprocessed.smi:1797|AV-procd|sdf|7256|dock6
  -GOLD-   22720 8503D 1   1.00000     0.00000
 Structure written by MMmdl.
 30 31  0  0  0  0  0  0  0  0  1 V2000
  148.1762  135.2651  159.8754 C   0  0  0  0  0  0  0  0  0  0  0  0
  147.7197  135.0188  158.4781 C   0  0  0  0  0  0  0  0  0  0  0  0
  146.6990  134.2047  158.1859 N   0  0  0  0  0  0  0  0  0  0  0  0
  146.4595  134.1308  156.8213 N   0  0  0  0  0  0  0  0  0  0  0  0
  147.3075  134.8956  156.1183 C   0  0  0  0  0  0  0  0  0  0  0  0
  147.3073  135.0144  154.6977 N   0  0  0  0  0  0  0  0  0  0  0  0
  146.5553  134.4226  153.7449 C   0  0  0  0  0  0  0  0  0  0  0  0
  145.6834  133.6084  154.0435 O   0  0  0  0  0  0  0  0  0  0  0  0
  146.8205  134.7659  152.4736 N   0  0  0  0  0  0  0  0  0  0  0  0
  146.1374  134.2454  151.2941 C   0  0  1  0  0  0  0  0  0  0  0  0
  146.2931  132.7207  151.2362 C   0  0  0  0  0  0  0  0  0  0  0  0
  145.6033  132.1422  149.9906 C   0  0  0  0  0  0  0  0  0  0  0  0
  144.1923  132.7029  149.7585 C   0  0  0  0  0  0  0  0  0  0  0  0
  143.4189  132.1037  149.0148 O   0  0  0  0  0  0  0  0  0  0  0  0
  143.8449  133.8602  150.3483 N   0  0  0  0  0  0  0  0  0  0  0  0
  144.6407  134.6163  151.3149 C   0  0  0  0  0  0  0  0  0  0  0  0
  148.4864  135.7688  157.0836 S   0  0  0  0  0  0  0  0  0  0  0  0
  147.3193  135.4330  160.5283 H   0  0  0  0  0  0  0  0  0  0  0  0
  148.8207  136.1435  159.9147 H   0  0  0  0  0  0  0  0  0  0  0  0
  148.7352  134.4040  160.2420 H   0  0  0  0  0  0  0  0  0  0  0  0
  147.9971  135.6581  154.3385 H   0  0  0  0  0  0  0  0  0  0  0  0
  147.5534  135.4425  152.3131 H   0  0  0  0  0  0  0  0  0  0  0  0
  146.5997  134.6685  150.3998 H   0  0  0  0  0  0  0  0  0  0  0  0
  147.3499  132.4513  151.2253 H   0  0  0  0  0  0  0  0  0  0  0  0
  145.8686  132.2676  152.1336 H   0  0  0  0  0  0  0  0  0  0  0  0
  146.1982  132.3723  149.1061 H   0  0  0  0  0  0  0  0  0  0  0  0
  145.5566  131.0549  150.0602 H   0  0  0  0  0  0  0  0  0  0  0  0
  142.9224  134.2200  150.1498 H   0  0  0  0  0  0  0  0  0  0  0  0
  144.2216  134.4212  152.3029 H   0  0  0  0  0  0  0  0  0  0  0  0
  144.5095  135.6819  151.1245 H   0  0  0  0  0  0  0  0  0  0  0  0
  1  2  1  0  0  0  0
  1 18  1  0  0  0  0
  1 19  1  0  0  0  0
  1 20  1  0  0  0  0
  2 17  1  0  0  0  0
  2  3  2  0  0  0  0
  3  4  1  0  0  0  0
  4  5  2  0  0  0  0
  5  6  1  0  0  0  0
  5 17  1  0  0  0  0
  6  7  1  0  0  0  0
  6 21  1  0  0  0  0
  7  8  2  0  0  0  0
  7  9  1  0  0  0  0
  9 10  1  0  0  0  0
  9 22  1  0  0  0  0
 10 16  1  0  0  0  0
 10 11  1  0  0  0  0
 10 23  1  0  0  0  0
 11 12  1  0  0  0  0
 11 24  1  0  0  0  0
 11 25  1  0  0  0  0
 12 13  1  0  0  0  0
 12 26  1  0  0  0  0
 12 27  1  0  0  0  0
 13 14  2  0  0  0  0
 13 15  1  0  0  0  0
 15 16  1  0  0  0  0
 15 28  1  0  0  0  0
 16 29  1  0  0  0  0
 16 30  1  0  0  0  0
M  END
> <s_m_source_file>
AV-unprocessed.smi

> <i_m_source_file_index>
1797

> <i_lp_mmshare_version>
43012

> <i_f3d_flags>
0

> <s_epik_input>
W0NIM11jMW5uYyhzMSlbTkhdQyg9TylbTkhdW0NAQEhdMltDSDJdW0NIMl1DKD1PKVtOSF1bQ0gyXTI=

> <s_epik_cmdline>
J2VwaWtfcHl0aG9uJywgJy1waCcsICc3LjAnLCAnLXRuJywgJzgnLCAnLW1hJywgJzIwMCcsICctbWV0YWxfYmluZGluZycsICctaW1hZScsICc8aW5maWxlLm1hZT4nLCAnLW9tYWUnLCAnPG91dGZpbGUubWFlPic=

> <r_lp_tautomer_probability>
1

> <r_epik_Ionization_Penalty>
0.00282347

> <r_epik_Ionization_Penalty_Charging>
0

> <r_epik_Ionization_Penalty_Neutral>
0.00282347

> <r_epik_State_Penalty>
-0

> <r_epik_Charging_Adjusted_Penalty>
0

> <i_epik_Tot_Q>
0

> <i_epik_Tot_abs_Q>
0

> <r_epik_Metal_State_Penalty>
0.357935

> <b_epik_Metal_Only>
0

> <s_lp_Force_Field>
OPLS_2005

> <r_lp_Energy>
10.7191

> <b_lp_Chiralities_Consistent>
1

> <s_lp_Variant>
AV-unprocessed.smi:1797-2

> <Gold.Version>
5.8.1

> <Gold.Id.Protein>
6NUR|6NUR_protein|mol2

> <Gold.PLP.Fitness>
29.6984

> <Gold.PLP.PLP>
-20.8747

> <Gold.PLP.part.hbond>
-3.0000

> <Gold.PLP.part.metal>
0.0000

> <Gold.PLP.part.buried>
-5.4528

> <Gold.PLP.part.nonpolar>
-14.0368

> <Gold.PLP.part.repulsive>
0.3980

> <Gold.PLP.ligand.clash>
0.0000

> <Gold.PLP.ligand.torsion>
0.0048

> <Gold.PLP.Chemscore.Hbond>
2.9440

> <Gold.PLP.Chemscore.CHOScore>
0.0000

> <Gold.PLP.Chemscore.Metal>
0.0000

> <Gold.Chemscore.Hbonds>
donor molecule, donor type, donor heavy atom, donor atom, acceptor molecule, acceptor atom, score
      L1  H     9    22       P1  7948  1.00
      L1  H    15    28       P1 10186  1.00
      P1  H 10785 10796       L1    14  0.94

> <Gold.PLP.Chemscore.Internal.Correction>
0.0012

> <Gold.Rescore>
     Score         DG    S(hbond)    S(metal)    S(lipo)     H(rot)  DE(clash)    DE(int)     intcor
     16.88     -19.56       3.63        0.00      38.54       1.00       0.38       2.29       ----

> <Gold.Chemscore.Fitness>
16.8839

> <Gold.Chemscore.DG>
-19.5570

> <Gold.Chemscore.ZeroCoef>
-5.4800

> <Gold.Chemscore.Hbond>
3.6310

> <Gold.Chemscore.Metal>
0.0000

> <Gold.Chemscore.Lipo>
38.5432

> <Gold.Chemscore.Internal_Hbond>
0.0000

> <Gold.Chemscore.DEClash>
0.3788

> <Gold.Chemscore.DEInternal>
2.2944

> <Gold.Chemscore.Rot>
1.0000

> <Gold.Chemscore.Internal.Correction>
   9.000000E+99

> <Gold.Chemscore.Hbonds>
donor molecule, donor type, donor heavy atom, donor atom, acceptor molecule, acceptor atom, score
      L1  H     9    22       P1  7948  1.00
      L1  H    15    28       P1 10186  0.90
      P1  H 10785 10796       L1    14  0.88

> <Gold.Chemscore.Hbond.Weighted>
-12.1275

> <Gold.Chemscore.Metal.Weighted>
-0.0000

> <Gold.Chemscore.Lipo.Weighted>
-4.5096

> <Gold.Chemscore.Internal_Hbond.Weighted>
0.0000

> <Gold.Chemscore.DEClash.Weighted>
0.3788

> <Gold.Chemscore.DEInternal.Weighted>
2.2944

> <Gold.Chemscore.Rot.Weighted>
2.5600

> <Gold.Chemscore.Internal.Correction.Weighted>
   9.000000E+99

> <Gold.Protein.RotatedTorsions>
[ 6907 6896 6895 6894 ] final  -50.42 input  -60.11 | X-H torsion
[ 7974 7965 7964 7962 ] final -160.50 input  175.53 | X-H torsion
[ 8008 7997 7996 7995 ] final -124.57 input   59.86 | X-H torsion
[ 10167 10162 10161 10158 ] final  136.20 input  -65.29 | X-H torsion
[ 10718 10713 10712 10709 ] final   16.02 input   66.30 | X-H torsion
[ 10763 10752 10751 10750 ] final -119.17 input  -60.55 | X-H torsion
[ 11005 11000 10999 10996 ] final   90.98 input  -57.11 | X-H torsion

> <Gold.Protein.ActiveResidues>
 VAL166  LYS551  ARG553  GLY616  TRP617  ASP618  TYR619  PRO620  LYS621  CYS622 
 ASP623  PHE694  ASN695  SER759  ASP760  ASP761  ALA762  ILE779  LEU786  VAL792 
 PHE793  MET794  SER795  GLU796  ALA797  LYS798  CYS799  TRP800  GLU811  SER814 

> <Gold.Protein.RotatedAtoms>
  150.8709  134.8082  159.7153 H   0  0  0  0  0  0  0  0  0  0  0  0  # atno 6907 bound_to 6896
  152.4714  134.4948  159.9716 H   0  0  0  0  0  0  0  0  0  0  0  0  # atno 6908 bound_to 6896
  151.5037  133.3460  159.2909 H   0  0  0  0  0  0  0  0  0  0  0  0  # atno 6909 bound_to 6896
  144.7425  140.3532  143.6111 H   0  0  0  0  0  0  0  0  0  0  0  0  # atno 7974 bound_to 7965
  155.1990  140.0415  157.2914 H   0  0  0  0  0  0  0  0  0  0  0  0  # atno 8008 bound_to 7997
  154.6087  140.2471  155.7669 H   0  0  0  0  0  0  0  0  0  0  0  0  # atno 8009 bound_to 7997
  156.2366  140.2919  156.0338 H   0  0  0  0  0  0  0  0  0  0  0  0  # atno 8010 bound_to 7997
  139.5189  144.6477  151.5392 H   0  0  0  0  0  0  0  0  0  0  0  0  # atno 10167 bound_to 10162
  157.0619  130.6312  149.5788 H   0  0  0  0  0  0  0  0  0  0  0  0  # atno 10718 bound_to 10713
  154.8609  135.4248  154.2255 H   0  0  0  0  0  0  0  0  0  0  0  0  # atno 10763 bound_to 10752
  153.3251  135.6984  153.7002 H   0  0  0  0  0  0  0  0  0  0  0  0  # atno 10764 bound_to 10752
  153.6041  135.3531  155.2929 H   0  0  0  0  0  0  0  0  0  0  0  0  # atno 10765 bound_to 10752
  139.8846  134.8647  156.3363 H   0  0  0  0  0  0  0  0  0  0  0  0  # atno 11005 bound_to 11000
  145.7254  139.1721  143.2460 LP  0  0  0  0  0  0  0  0  0  0  0  0  # atno 17320 bound_to 7965
  146.1246  140.7265  142.9441 LP  0  0  0  0  0  0  0  0  0  0  0  0  # atno 17321 bound_to 7965
  140.6269  143.9152  150.6572 LP  0  0  0  0  0  0  0  0  0  0  0  0  # atno 17342 bound_to 10162
  140.2443  143.3640  152.1460 LP  0  0  0  0  0  0  0  0  0  0  0  0  # atno 17343 bound_to 10162
  155.9976  130.5048  150.7539 LP  0  0  0  0  0  0  0  0  0  0  0  0  # atno 17370 bound_to 10713
  157.4947  131.0914  151.0385 LP  0  0  0  0  0  0  0  0  0  0  0  0  # atno 17371 bound_to 10713
  140.9689  133.7340  156.0506 LP  0  0  0  0  0  0  0  0  0  0  0  0  # atno 17394 bound_to 11000
  140.7896  134.3633  157.5468 LP  0  0  0  0  0  0  0  0  0  0  0  0  # atno 17395 bound_to 11000

$$$$
