AV-unprocessed.smi:928|AV-procd|sdf|4193|dock8
  -GOLD-   22720 2103D 1   1.00000     0.00000
 Structure written by MMmdl.
 43 44  0  0  0  0  0  0  0  0  1 V2000
  152.5843  143.7327  158.8520 C   0  0  0  0  0  0  0  0  0  0  0  0
  152.5825  142.2042  158.7399 C   0  0  0  0  0  0  0  0  0  0  0  0
  151.7598  141.7005  157.6003 C   0  0  0  0  0  0  0  0  0  0  0  0
  150.8968  142.4176  156.8091 C   0  0  0  0  0  0  0  0  0  0  0  0
  150.2810  141.6581  155.8119 N   0  0  0  0  0  0  0  0  0  0  0  0
  150.6511  140.3761  155.8460 C   0  0  0  0  0  0  0  0  0  0  0  0
  150.1749  139.3554  154.8684 C   0  0  0  0  0  0  0  0  0  0  0  0
  149.0259  139.8806  153.9932 C   0  0  0  0  0  0  0  0  0  0  0  0
  148.4300  138.8192  153.1907 N   0  0  0  0  0  0  0  0  0  0  0  0
  147.1163  138.5725  153.0985 C   0  0  0  0  0  0  0  0  0  0  0  0
  146.2496  139.2160  153.6907 O   0  0  0  0  0  0  0  0  0  0  0  0
  146.8621  137.5386  152.2849 N   0  0  0  0  0  0  0  0  0  0  0  0
  145.5336  137.0148  151.9735 C   0  0  2  0  0  0  0  0  0  0  0  0
  144.7857  136.5649  153.2462 C   0  0  0  0  0  0  0  0  0  0  0  0
  143.3907  136.0181  152.9027 C   0  0  0  0  0  0  0  0  0  0  0  0
  143.4707  134.8775  151.8749 C   0  0  0  0  0  0  0  0  0  0  0  0
  144.2289  135.3118  150.6068 C   0  0  0  0  0  0  0  0  0  0  0  0
  145.6254  135.8778  150.9304 C   0  0  2  0  0  0  0  0  0  0  0  0
  146.4501  134.8250  151.3962 O   0  0  0  0  0  0  0  0  0  0  0  0
  151.8217  140.0262  157.1119 S   0  0  0  0  0  0  0  0  0  0  0  0
  153.1893  144.0596  159.6978 H   0  0  0  0  0  0  0  0  0  0  0  0
  151.5741  144.1167  158.9969 H   0  0  0  0  0  0  0  0  0  0  0  0
  152.9927  144.1944  157.9525 H   0  0  0  0  0  0  0  0  0  0  0  0
  153.6076  141.8491  158.6291 H   0  0  0  0  0  0  0  0  0  0  0  0
  152.2144  141.7753  159.6723 H   0  0  0  0  0  0  0  0  0  0  0  0
  150.6663  143.4703  156.8810 H   0  0  0  0  0  0  0  0  0  0  0  0
  151.0170  139.0533  154.2445 H   0  0  0  0  0  0  0  0  0  0  0  0
  149.8596  138.4675  155.4182 H   0  0  0  0  0  0  0  0  0  0  0  0
  148.2622  140.3571  154.6103 H   0  0  0  0  0  0  0  0  0  0  0  0
  149.3983  140.6474  153.3134 H   0  0  0  0  0  0  0  0  0  0  0  0
  149.0635  138.2340  152.6661 H   0  0  0  0  0  0  0  0  0  0  0  0
  147.6454  137.0758  151.8486 H   0  0  0  0  0  0  0  0  0  0  0  0
  144.9563  137.8207  151.5153 H   0  0  0  0  0  0  0  0  0  0  0  0
  145.3611  135.8000  153.7693 H   0  0  0  0  0  0  0  0  0  0  0  0
  144.6846  137.4009  153.9393 H   0  0  0  0  0  0  0  0  0  0  0  0
  142.8961  135.6674  153.8089 H   0  0  0  0  0  0  0  0  0  0  0  0
  142.7721  136.8234  152.5049 H   0  0  0  0  0  0  0  0  0  0  0  0
  143.9667  134.0163  152.3239 H   0  0  0  0  0  0  0  0  0  0  0  0
  142.4661  134.5473  151.6096 H   0  0  0  0  0  0  0  0  0  0  0  0
  144.3109  134.4735  149.9139 H   0  0  0  0  0  0  0  0  0  0  0  0
  143.6462  136.0757  150.0904 H   0  0  0  0  0  0  0  0  0  0  0  0
  146.0742  136.2618  150.0134 H   0  0  0  0  0  0  0  0  0  0  0  0
  147.2703  135.1921  151.6870 H   0  0  0  0  0  0  0  0  0  0  0  0
  1  2  1  0  0  0  0
  1 21  1  0  0  0  0
  1 22  1  0  0  0  0
  1 23  1  0  0  0  0
  2  3  1  0  0  0  0
  2 24  1  0  0  0  0
  2 25  1  0  0  0  0
  3 20  1  0  0  0  0
  3  4  2  0  0  0  0
  4  5  1  0  0  0  0
  4 26  1  0  0  0  0
  5  6  2  0  0  0  0
  6  7  1  0  0  0  0
  6 20  1  0  0  0  0
  7  8  1  0  0  0  0
  7 27  1  0  0  0  0
  7 28  1  0  0  0  0
  8  9  1  0  0  0  0
  8 29  1  0  0  0  0
  8 30  1  0  0  0  0
  9 10  1  0  0  0  0
  9 31  1  0  0  0  0
 10 11  2  0  0  0  0
 10 12  1  0  0  0  0
 12 13  1  0  0  0  0
 12 32  1  0  0  0  0
 13 18  1  0  0  0  0
 13 14  1  0  0  0  0
 13 33  1  0  0  0  0
 14 15  1  0  0  0  0
 14 34  1  0  0  0  0
 14 35  1  0  0  0  0
 15 16  1  0  0  0  0
 15 36  1  0  0  0  0
 15 37  1  0  0  0  0
 16 17  1  0  0  0  0
 16 38  1  0  0  0  0
 16 39  1  0  0  0  0
 17 18  1  0  0  0  0
 17 40  1  0  0  0  0
 17 41  1  0  0  0  0
 18 19  1  0  0  0  0
 18 42  1  0  0  0  0
 19 43  1  0  0  0  0
M  END
> <s_m_source_file>
AV-unprocessed.smi

> <i_m_source_file_index>
928

> <i_lp_mmshare_version>
43012

> <i_f3d_flags>
0

> <s_epik_input>
W0NIM11bQ0gyXWMxW2NIXW5jKHMxKVtDSDJdW0NIMl1bTkhdQyg9TylbTkhdW0NAQEhdMltDSDJdW0NIMl1bQ0gyXVtDSDJdW0NASF0yW09IXQ==

> <s_epik_cmdline>
J2VwaWtfcHl0aG9uJywgJy1waCcsICc3LjAnLCAnLXRuJywgJzgnLCAnLW1hJywgJzIwMCcsICctbWV0YWxfYmluZGluZycsICctaW1hZScsICc8aW5maWxlLm1hZT4nLCAnLW9tYWUnLCAnPG91dGZpbGUubWFlPic=

> <r_epik_Ionization_Penalty>
0.000957396

> <r_epik_Ionization_Penalty_Charging>
0

> <r_epik_Ionization_Penalty_Neutral>
0.000957396

> <r_epik_State_Penalty>
0.000586538

> <r_epik_Charging_Adjusted_Penalty>
0.000586538

> <i_epik_Tot_Q>
0

> <i_epik_Tot_abs_Q>
0

> <r_epik_Metal_State_Penalty>
-0

> <b_epik_Metal_Only>
0

> <s_lp_Force_Field>
OPLS_2005

> <r_lp_Energy>
-0.721606

> <b_lp_Chiralities_Consistent>
1

> <s_lp_Variant>
AV-unprocessed.smi:928-3

> <Gold.Version>
5.8.1

> <Gold.Id.Protein>
6NUR|6NUR_protein|mol2

> <Gold.PLP.Fitness>
46.8418

> <Gold.PLP.PLP>
-36.7767

> <Gold.PLP.part.hbond>
-3.8821

> <Gold.PLP.part.metal>
0.0000

> <Gold.PLP.part.buried>
-3.7887

> <Gold.PLP.part.nonpolar>
-30.9843

> <Gold.PLP.part.repulsive>
0.4846

> <Gold.PLP.ligand.clash>
0.0000

> <Gold.PLP.ligand.torsion>
0.2565

> <Gold.PLP.Chemscore.Hbond>
2.5502

> <Gold.PLP.Chemscore.CHOScore>
0.9673

> <Gold.PLP.Chemscore.Metal>
0.0000

> <Gold.Chemscore.Hbonds>
donor molecule, donor type, donor heavy atom, donor atom, acceptor molecule, acceptor atom, score
      L1  H     9    31       P1  7948  0.55
      L1  H    12    32       P1  7948  1.00
      L1  H    19    43       P1  7948  1.00
      L1  C     4    26       P1  8028  0.97

> <Gold.PLP.Chemscore.Internal.Correction>
0.0258

> <Gold.Rescore>
     Score         DG    S(hbond)    S(metal)    S(lipo)     H(rot)  DE(clash)    DE(int)     intcor
     18.45     -18.89       2.48        0.00      92.24       2.21       0.14       0.30       ----

> <Gold.Chemscore.Fitness>
18.4513

> <Gold.Chemscore.DG>
-18.8886

> <Gold.Chemscore.ZeroCoef>
-5.4800

> <Gold.Chemscore.Hbond>
2.4759

> <Gold.Chemscore.Metal>
0.0000

> <Gold.Chemscore.Lipo>
92.2445

> <Gold.Chemscore.Internal_Hbond>
0.0000

> <Gold.Chemscore.DEClash>
0.1416

> <Gold.Chemscore.DEInternal>
0.2956

> <Gold.Chemscore.Rot>
2.2084

> <Gold.Chemscore.Internal.Correction>
   9.000000E+99

> <Gold.Chemscore.Hbonds>
donor molecule, donor type, donor heavy atom, donor atom, acceptor molecule, acceptor atom, score
      L1  H     9    31       P1  7948  0.54
      L1  H    12    32       P1  7948  0.92
      L1  H    19    43       P1  7948  0.94

> <Gold.Chemscore.Hbond.Weighted>
-8.2695

> <Gold.Chemscore.Metal.Weighted>
-0.0000

> <Gold.Chemscore.Lipo.Weighted>
-10.7926

> <Gold.Chemscore.Internal_Hbond.Weighted>
0.0000

> <Gold.Chemscore.DEClash.Weighted>
0.1416

> <Gold.Chemscore.DEInternal.Weighted>
0.2956

> <Gold.Chemscore.Rot.Weighted>
5.6535

> <Gold.Chemscore.Internal.Correction.Weighted>
   9.000000E+99

> <Gold.Protein.RotatedTorsions>
[ 6907 6896 6895 6894 ] final   56.36 input  -60.11 | X-H torsion
[ 7974 7965 7964 7962 ] final  125.74 input  175.53 | X-H torsion
[ 8008 7997 7996 7995 ] final   31.55 input   59.86 | X-H torsion
[ 10167 10162 10161 10158 ] final    6.38 input  -65.29 | X-H torsion
[ 10718 10713 10712 10709 ] final   94.91 input   66.30 | X-H torsion
[ 10763 10752 10751 10750 ] final   76.86 input  -60.55 | X-H torsion
[ 11005 11000 10999 10996 ] final   49.15 input  -57.11 | X-H torsion

> <Gold.Protein.ActiveResidues>
 VAL166  LYS551  ARG553  GLY616  TRP617  ASP618  TYR619  PRO620  LYS621  CYS622 
 ASP623  PHE694  ASN695  SER759  ASP760  ASP761  ALA762  ILE779  LEU786  VAL792 
 PHE793  MET794  SER795  GLU796  ALA797  LYS798  CYS799  TRP800  GLU811  SER814 

> <Gold.Protein.RotatedAtoms>
  152.3629  134.6846  160.0201 H   0  0  0  0  0  0  0  0  0  0  0  0  # atno 6907 bound_to 6896
  151.7164  133.3308  159.3312 H   0  0  0  0  0  0  0  0  0  0  0  0  # atno 6908 bound_to 6896
  150.7617  134.6421  159.6287 H   0  0  0  0  0  0  0  0  0  0  0  0  # atno 6909 bound_to 6896
  145.0696  139.3740  143.4964 H   0  0  0  0  0  0  0  0  0  0  0  0  # atno 7974 bound_to 7965
  155.1082  140.3236  155.4528 H   0  0  0  0  0  0  0  0  0  0  0  0  # atno 8008 bound_to 7997
  156.2698  140.2049  156.6154 H   0  0  0  0  0  0  0  0  0  0  0  0  # atno 8009 bound_to 7997
  154.6776  140.0529  157.0219 H   0  0  0  0  0  0  0  0  0  0  0  0  # atno 8010 bound_to 7997
  140.6431  143.7728  150.7457 H   0  0  0  0  0  0  0  0  0  0  0  0  # atno 10167 bound_to 10162
  157.6944  131.0528  150.4258 H   0  0  0  0  0  0  0  0  0  0  0  0  # atno 10718 bound_to 10713
  153.0756  135.4935  154.8397 H   0  0  0  0  0  0  0  0  0  0  0  0  # atno 10763 bound_to 10752
  154.7083  135.3015  154.9239 H   0  0  0  0  0  0  0  0  0  0  0  0  # atno 10764 bound_to 10752
  153.9941  135.6774  153.4808 H   0  0  0  0  0  0  0  0  0  0  0  0  # atno 10765 bound_to 10752
  140.1128  134.4932  155.8663 H   0  0  0  0  0  0  0  0  0  0  0  0  # atno 11005 bound_to 11000
  146.3528  140.0435  142.8641 LP  0  0  0  0  0  0  0  0  0  0  0  0  # atno 17320 bound_to 7965
  145.1308  140.9517  143.4545 LP  0  0  0  0  0  0  0  0  0  0  0  0  # atno 17321 bound_to 7965
  140.1363  143.4481  152.2222 LP  0  0  0  0  0  0  0  0  0  0  0  0  # atno 17342 bound_to 10162
  139.5640  144.7424  151.4074 LP  0  0  0  0  0  0  0  0  0  0  0  0  # atno 17343 bound_to 10162
  156.4629  130.4036  149.6565 LP  0  0  0  0  0  0  0  0  0  0  0  0  # atno 17370 bound_to 10713
  156.3673  130.7512  151.2491 LP  0  0  0  0  0  0  0  0  0  0  0  0  # atno 17371 bound_to 10713
  141.2134  133.6733  156.6738 LP  0  0  0  0  0  0  0  0  0  0  0  0  # atno 17394 bound_to 11000
  140.3068  134.8119  157.4143 LP  0  0  0  0  0  0  0  0  0  0  0  0  # atno 17395 bound_to 11000

$$$$
