AV-unprocessed.smi:610|AV-procd|sdf|3054|dock1
  -GOLD-   2262023573D 1   1.00000     0.00000
 Structure written by MMmdl.
 39 40  0  0  0  0  0  0  0  0  3 V2000
  147.7577  137.8775  154.3708 C   0  0  0  0  0  0  0  0  0  0  0  0
  146.6370  138.3509  153.4354 C   0  0  1  0  0  0  0  0  0  0  0  0
  146.9741  139.7243  152.8159 C   0  0  0  0  0  0  0  0  0  0  0  0
  146.9979  140.8104  153.8020 N   0  0  0  0  0  0  0  0  0  0  0  0
  145.9776  141.2026  154.6303 C   0  0  0  0  0  0  0  0  0  0  0  0
  146.4562  142.2534  155.3696 C   0  0  0  0  0  0  0  0  0  0  0  0
  147.7498  142.4529  154.9679 N   0  3  0  0  0  0  0  0  0  0  0  0
  148.0797  141.5698  154.0199 C   0  0  0  0  0  0  0  0  0  0  0  0
  146.4332  137.3404  152.3978 N   0  0  0  0  0  0  0  0  0  0  0  0
  145.3134  136.6231  152.1986 C   0  0  0  0  0  0  0  0  0  0  0  0
  144.3136  136.7532  152.9056 O   0  0  0  0  0  0  0  0  0  0  0  0
  145.2977  135.5898  151.0469 C   0  0  0  0  0  0  0  0  0  0  0  0
  145.5309  136.3304  149.7933 N   0  3  0  0  0  0  0  0  0  0  0  0
  146.3701  134.5049  151.2621 C   0  0  0  0  0  0  0  0  0  0  0  0
  145.7168  133.4492  152.1670 C   0  0  0  0  0  0  0  0  0  0  0  0
  144.1986  133.6278  152.0084 C   0  0  0  0  0  0  0  0  0  0  0  0
  144.0157  134.7355  150.9628 C   0  0  0  0  0  0  0  0  0  0  0  0
  147.9192  138.5892  155.1811 H   0  0  0  0  0  0  0  0  0  0  0  0
  148.7014  137.7647  153.8357 H   0  0  0  0  0  0  0  0  0  0  0  0
  147.5138  136.9158  154.8234 H   0  0  0  0  0  0  0  0  0  0  0  0
  145.7334  138.4471  154.0404 H   0  0  0  0  0  0  0  0  0  0  0  0
  147.9610  139.6968  152.3523 H   0  0  0  0  0  0  0  0  0  0  0  0
  146.2637  139.9803  152.0279 H   0  0  0  0  0  0  0  0  0  0  0  0
  145.0100  140.7216  154.6276 H   0  0  0  0  0  0  0  0  0  0  0  0
  145.9859  142.8569  156.1325 H   0  0  0  0  0  0  0  0  0  0  0  0
  149.0307  141.4916  153.5238 H   0  0  0  0  0  0  0  0  0  0  0  0
  147.2134  137.1715  151.7791 H   0  0  0  0  0  0  0  0  0  0  0  0
  146.4268  136.7947  149.8341 H   0  0  0  0  0  0  0  0  0  0  0  0
  144.7999  137.0172  149.6724 H   0  0  0  0  0  0  0  0  0  0  0  0
  146.6253  134.0435  150.3067 H   0  0  0  0  0  0  0  0  0  0  0  0
  147.3026  134.8805  151.6858 H   0  0  0  0  0  0  0  0  0  0  0  0
  146.0374  132.4437  151.8921 H   0  0  0  0  0  0  0  0  0  0  0  0
  146.0041  133.6077  153.2066 H   0  0  0  0  0  0  0  0  0  0  0  0
  143.7049  132.7043  151.7041 H   0  0  0  0  0  0  0  0  0  0  0  0
  143.7620  133.9320  152.9607 H   0  0  0  0  0  0  0  0  0  0  0  0
  143.0884  135.2931  151.1000 H   0  0  0  0  0  0  0  0  0  0  0  0
  143.9509  134.2750  149.9754 H   0  0  0  0  0  0  0  0  0  0  0  0
  145.5177  135.6882  149.0141 H   0  0  0  0  0  0  0  0  0  0  0  0
  148.3706  143.1618  155.3386 H   0  0  0  0  0  0  0  0  0  0  0  0
  1  2  1  0  0  0  0
  1 18  1  0  0  0  0
  1 19  1  0  0  0  0
  1 20  1  0  0  0  0
  2  3  1  0  0  0  0
  2  9  1  0  0  0  0
  2 21  1  0  0  0  0
  3  4  1  0  0  0  0
  3 22  1  0  0  0  0
  3 23  1  0  0  0  0
  4  8  1  0  0  0  0
  4  5  1  0  0  0  0
  5  6  2  0  0  0  0
  5 24  1  0  0  0  0
  6  7  1  0  0  0  0
  6 25  1  0  0  0  0
  7  8  2  0  0  0  0
  7 39  1  0  0  0  0
  8 26  1  0  0  0  0
  9 10  1  0  0  0  0
  9 27  1  0  0  0  0
 10 11  2  0  0  0  0
 10 12  1  0  0  0  0
 12 17  1  0  0  0  0
 12 13  1  0  0  0  0
 12 14  1  0  0  0  0
 13 28  1  0  0  0  0
 13 29  1  0  0  0  0
 13 38  1  0  0  0  0
 14 15  1  0  0  0  0
 14 30  1  0  0  0  0
 14 31  1  0  0  0  0
 15 16  1  0  0  0  0
 15 32  1  0  0  0  0
 15 33  1  0  0  0  0
 16 17  1  0  0  0  0
 16 34  1  0  0  0  0
 16 35  1  0  0  0  0
 17 36  1  0  0  0  0
 17 37  1  0  0  0  0
M  CHG  1   7   1
M  CHG  1  13   1
M  END
> <s_m_source_file>
AV-unprocessed.smi

> <i_m_source_file_index>
610

> <i_lp_mmshare_version>
43012

> <i_f3d_flags>
0

> <s_epik_input>
W2NIXTFuW2NIXVtjSF1uMVtDSDJdW0NAQEhdKFtDSDNdKVtOSF1DKD1PKUMyKFtOSDJdKVtDSDJdW0NIMl1bQ0gyXVtDSDJdMg==

> <s_epik_cmdline>
J2VwaWtfcHl0aG9uJywgJy1waCcsICc3LjAnLCAnLXRuJywgJzgnLCAnLW1hJywgJzIwMCcsICctbWV0YWxfYmluZGluZycsICctaW1hZScsICc8aW5maWxlLm1hZT4nLCAnLW9tYWUnLCAnPG91dGZpbGUubWFlPic=

> <r_lp_tautomer_probability>
1

> <r_epik_Ionization_Penalty>
0.349719

> <r_epik_Ionization_Penalty_Charging>
0.0753376

> <r_epik_Ionization_Penalty_Neutral>
0.274381

> <r_epik_State_Penalty>
0.326418

> <r_epik_Charging_Adjusted_Penalty>
0.401755

> <i_epik_Tot_Q>
2

> <i_epik_Tot_abs_Q>
2

> <r_epik_Metal_State_Penalty>
0.608513

> <b_epik_Metal_Only>
0

> <s_lp_Force_Field>
OPLS_2005

> <r_lp_Energy>
30.9651

> <b_lp_Chiralities_Consistent>
1

> <s_lp_Variant>
AV-unprocessed.smi:610-2

> <Gold.Version>
5.8.1

> <Gold.Id.Protein>
6NUR|6NUR_protein|mol2

> <Gold.PLP.Fitness>
47.7972

> <Gold.PLP.PLP>
-28.2032

> <Gold.PLP.part.hbond>
-4.0000

> <Gold.PLP.part.metal>
0.0000

> <Gold.PLP.part.buried>
0.5065

> <Gold.PLP.part.nonpolar>
-24.9032

> <Gold.PLP.part.repulsive>
0.5614

> <Gold.PLP.ligand.clash>
0.0000

> <Gold.PLP.ligand.torsion>
0.0606

> <Gold.PLP.Chemscore.Hbond>
4.8480

> <Gold.PLP.Chemscore.CHOScore>
1.7029

> <Gold.PLP.Chemscore.Metal>
0.0000

> <Gold.Chemscore.Hbonds>
donor molecule, donor type, donor heavy atom, donor atom, acceptor molecule, acceptor atom, score
      L1  H     7    39       P1  8028  2.00
      L1  H     9    27       P1  7948  0.77
      L1  H    13    29       P1 10171  1.00
      L1  H    13    38       P1  7921  1.00
      L1  C     5    24       P1 10175  0.82
      L1  C     8    26       P1  7957  0.25

> <Gold.PLP.Chemscore.Internal.Correction>
0.0626

> <Gold.Rescore>
     Score         DG    S(hbond)    S(metal)    S(lipo)     H(rot)  DE(clash)    DE(int)     intcor
     18.76     -18.90       3.87        0.00      49.40       2.06       0.03       0.11       ----

> <Gold.Chemscore.Fitness>
18.7627

> <Gold.Chemscore.DG>
-18.9021

> <Gold.Chemscore.ZeroCoef>
-5.4800

> <Gold.Chemscore.Hbond>
3.8704

> <Gold.Chemscore.Metal>
0.0000

> <Gold.Chemscore.Lipo>
49.3986

> <Gold.Chemscore.Internal_Hbond>
0.0000

> <Gold.Chemscore.DEClash>
0.0251

> <Gold.Chemscore.DEInternal>
0.1144

> <Gold.Chemscore.Rot>
2.0644

> <Gold.Chemscore.Internal.Correction>
   9.000000E+99

> <Gold.Chemscore.Hbonds>
donor molecule, donor type, donor heavy atom, donor atom, acceptor molecule, acceptor atom, score
      L1  H     7    39       P1  8028  0.96
      L1  H     9    27       P1  7948  0.77
      L1  H    13    29       P1 10171  1.00
      L1  H    13    38       P1  7921  0.99

> <Gold.Chemscore.Hbond.Weighted>
-12.9272

> <Gold.Chemscore.Metal.Weighted>
-0.0000

> <Gold.Chemscore.Lipo.Weighted>
-5.7796

> <Gold.Chemscore.Internal_Hbond.Weighted>
0.0000

> <Gold.Chemscore.DEClash.Weighted>
0.0251

> <Gold.Chemscore.DEInternal.Weighted>
0.1144

> <Gold.Chemscore.Rot.Weighted>
5.2848

> <Gold.Chemscore.Internal.Correction.Weighted>
   9.000000E+99

> <Gold.Protein.RotatedTorsions>
[ 6907 6896 6895 6894 ] final  124.07 input  -60.11 | X-H torsion
[ 7974 7965 7964 7962 ] final   92.04 input  175.53 | X-H torsion
[ 8008 7997 7996 7995 ] final -163.06 input   59.86 | X-H torsion
[ 10167 10162 10161 10158 ] final  -49.50 input  -65.29 | X-H torsion
[ 10718 10713 10712 10709 ] final   59.09 input   66.30 | X-H torsion
[ 10763 10752 10751 10750 ] final   65.33 input  -60.55 | X-H torsion
[ 11005 11000 10999 10996 ] final -136.34 input  -57.11 | X-H torsion

> <Gold.Protein.ActiveResidues>
 VAL166  LYS551  ARG553  GLY616  TRP617  ASP618  TYR619  PRO620  LYS621  CYS622 
 ASP623  PHE694  ASN695  SER759  ASP760  ASP761  ALA762  ILE779  LEU786  VAL792 
 PHE793  MET794  SER795  GLU796  ALA797  LYS798  CYS799  TRP800  GLU811  SER814 

> <Gold.Protein.RotatedAtoms>
  152.4109  133.6962  159.6396 H   0  0  0  0  0  0  0  0  0  0  0  0  # atno 6907 bound_to 6896
  150.7989  133.8625  159.3245 H   0  0  0  0  0  0  0  0  0  0  0  0  # atno 6908 bound_to 6896
  151.6368  135.1019  160.0184 H   0  0  0  0  0  0  0  0  0  0  0  0  # atno 6909 bound_to 6896
  145.4976  139.2276  143.2795 H   0  0  0  0  0  0  0  0  0  0  0  0  # atno 7974 bound_to 7965
  155.8159  140.0912  157.1877 H   0  0  0  0  0  0  0  0  0  0  0  0  # atno 8008 bound_to 7997
  154.3979  140.1446  156.3502 H   0  0  0  0  0  0  0  0  0  0  0  0  # atno 8009 bound_to 7997
  155.8317  140.3442  155.5579 H   0  0  0  0  0  0  0  0  0  0  0  0  # atno 8010 bound_to 7997
  140.6682  143.2695  151.4224 H   0  0  0  0  0  0  0  0  0  0  0  0  # atno 10167 bound_to 10162
  157.5648  130.8863  149.9169 H   0  0  0  0  0  0  0  0  0  0  0  0  # atno 10718 bound_to 10713
  153.0092  135.5361  154.6650 H   0  0  0  0  0  0  0  0  0  0  0  0  # atno 10763 bound_to 10752
  154.5849  135.2853  155.0697 H   0  0  0  0  0  0  0  0  0  0  0  0  # atno 10764 bound_to 10752
  154.1812  135.6516  153.5087 H   0  0  0  0  0  0  0  0  0  0  0  0  # atno 10765 bound_to 10752
  140.8814  134.1927  157.4588 H   0  0  0  0  0  0  0  0  0  0  0  0  # atno 11005 bound_to 11000
  146.2246  140.5774  142.9002 LP  0  0  0  0  0  0  0  0  0  0  0  0  # atno 17320 bound_to 7965
  144.7798  140.5817  143.6613 LP  0  0  0  0  0  0  0  0  0  0  0  0  # atno 17321 bound_to 7965
  139.5939  144.1439  152.2121 LP  0  0  0  0  0  0  0  0  0  0  0  0  # atno 17342 bound_to 10162
  140.0802  144.5707  150.7128 LP  0  0  0  0  0  0  0  0  0  0  0  0  # atno 17343 bound_to 10162
  156.0697  130.3687  150.0802 LP  0  0  0  0  0  0  0  0  0  0  0  0  # atno 17370 bound_to 10713
  156.8962  130.9605  151.3582 LP  0  0  0  0  0  0  0  0  0  0  0  0  # atno 17371 bound_to 10713
  139.8720  134.9819  156.5134 LP  0  0  0  0  0  0  0  0  0  0  0  0  # atno 17394 bound_to 11000
  140.8456  133.8171  155.9118 LP  0  0  0  0  0  0  0  0  0  0  0  0  # atno 17395 bound_to 11000

$$$$
