AV-unprocessed.smi:2651|AV-procd|sdf|10292|dock10
  -GOLD-   2272014303D 1   1.00000     0.00000
 Structure written by MMmdl.
 43 44  0  0  0  0  0  0  0  0  1 V2000
  150.2726  141.8207  156.0647 C   0  0  0  0  0  0  0  0  0  0  0  0
  150.0565  140.5539  155.3103 C   0  0  0  0  0  0  0  0  0  0  0  0
  148.9386  139.8235  155.0201 C   0  0  0  0  0  0  0  0  0  0  0  0
  149.4556  138.7304  154.2753 C   0  0  0  0  0  0  0  0  0  0  0  0
  148.5964  137.7165  153.7814 N   0  0  0  0  0  0  0  0  0  0  0  0
  147.2773  137.5814  153.9978 C   0  0  0  0  0  0  0  0  0  0  0  0
  146.5954  138.3348  154.6925 O   0  0  0  0  0  0  0  0  0  0  0  0
  146.7943  136.5105  153.3459 N   0  0  0  0  0  0  0  0  0  0  0  0
  145.4135  136.0067  153.2846 C   0  0  1  0  0  0  0  0  0  0  0  0
  145.0302  135.3571  154.6388 C   0  0  0  0  0  0  0  0  0  0  0  0
  144.4450  137.1961  153.0160 C   0  0  0  0  0  0  0  0  0  0  0  0
  144.9261  138.0633  152.0085 O   0  0  0  0  0  0  0  0  0  0  0  0
  145.3584  134.9427  152.1305 C   0  0  0  0  0  0  0  0  0  0  0  0
  143.9702  134.2616  151.9812 C   0  0  0  0  0  0  0  0  0  0  0  0
  143.9332  133.2589  150.8166 C   0  0  0  0  0  0  0  0  0  0  0  0
  145.0213  132.1892  150.9678 C   0  0  0  0  0  0  0  0  0  0  0  0
  146.4044  132.8400  151.0894 C   0  0  0  0  0  0  0  0  0  0  0  0
  146.4494  133.8435  152.2526 C   0  0  0  0  0  0  0  0  0  0  0  0
  150.7692  138.7911  154.1194 N   0  0  0  0  0  0  0  0  0  0  0  0
  151.1610  139.9600  154.7822 O   0  0  0  0  0  0  0  0  0  0  0  0
  149.3792  142.0980  156.6245 H   0  0  0  0  0  0  0  0  0  0  0  0
  150.5138  142.6380  155.3852 H   0  0  0  0  0  0  0  0  0  0  0  0
  151.0946  141.7144  156.7730 H   0  0  0  0  0  0  0  0  0  0  0  0
  147.9180  140.0371  155.3003 H   0  0  0  0  0  0  0  0  0  0  0  0
  149.0302  137.0281  153.1847 H   0  0  0  0  0  0  0  0  0  0  0  0
  147.4629  135.9741  152.8127 H   0  0  0  0  0  0  0  0  0  0  0  0
  144.0937  134.8042  154.5603 H   0  0  0  0  0  0  0  0  0  0  0  0
  144.8914  136.1018  155.4228 H   0  0  0  0  0  0  0  0  0  0  0  0
  145.7939  134.6669  154.9963 H   0  0  0  0  0  0  0  0  0  0  0  0
  143.4643  136.8414  152.6985 H   0  0  0  0  0  0  0  0  0  0  0  0
  144.2714  137.7785  153.9209 H   0  0  0  0  0  0  0  0  0  0  0  0
  144.3173  138.0503  151.2858 H   0  0  0  0  0  0  0  0  0  0  0  0
  145.5417  135.4674  151.1917 H   0  0  0  0  0  0  0  0  0  0  0  0
  143.6998  133.7446  152.9022 H   0  0  0  0  0  0  0  0  0  0  0  0
  143.1926  135.0036  151.8060 H   0  0  0  0  0  0  0  0  0  0  0  0
  142.9525  132.7851  150.7663 H   0  0  0  0  0  0  0  0  0  0  0  0
  144.0684  133.7888  149.8728 H   0  0  0  0  0  0  0  0  0  0  0  0
  144.8206  131.5825  151.8519 H   0  0  0  0  0  0  0  0  0  0  0  0
  145.0007  131.5116  150.1137 H   0  0  0  0  0  0  0  0  0  0  0  0
  147.1638  132.0711  151.2340 H   0  0  0  0  0  0  0  0  0  0  0  0
  146.6538  133.3486  150.1574 H   0  0  0  0  0  0  0  0  0  0  0  0
  147.4440  134.2866  152.2711 H   0  0  0  0  0  0  0  0  0  0  0  0
  146.3365  133.3022  153.1924 H   0  0  0  0  0  0  0  0  0  0  0  0
  1  2  1  0  0  0  0
  1 21  1  0  0  0  0
  1 22  1  0  0  0  0
  1 23  1  0  0  0  0
  2 20  1  0  0  0  0
  2  3  2  0  0  0  0
  3  4  1  0  0  0  0
  3 24  1  0  0  0  0
  4  5  1  0  0  0  0
  4 19  2  0  0  0  0
  5  6  1  0  0  0  0
  5 25  1  0  0  0  0
  6  7  2  0  0  0  0
  6  8  1  0  0  0  0
  8  9  1  0  0  0  0
  8 26  1  0  0  0  0
  9 10  1  0  0  0  0
  9 11  1  0  0  0  0
  9 13  1  0  0  0  0
 10 27  1  0  0  0  0
 10 28  1  0  0  0  0
 10 29  1  0  0  0  0
 11 12  1  0  0  0  0
 11 30  1  0  0  0  0
 11 31  1  0  0  0  0
 12 32  1  0  0  0  0
 13 18  1  0  0  0  0
 13 14  1  0  0  0  0
 13 33  1  0  0  0  0
 14 15  1  0  0  0  0
 14 34  1  0  0  0  0
 14 35  1  0  0  0  0
 15 16  1  0  0  0  0
 15 36  1  0  0  0  0
 15 37  1  0  0  0  0
 16 17  1  0  0  0  0
 16 38  1  0  0  0  0
 16 39  1  0  0  0  0
 17 18  1  0  0  0  0
 17 40  1  0  0  0  0
 17 41  1  0  0  0  0
 18 42  1  0  0  0  0
 18 43  1  0  0  0  0
 19 20  1  0  0  0  0
M  END
> <s_m_source_file>
AV-unprocessed.smi

> <i_m_source_file_index>
2651

> <i_lp_mmshare_version>
43012

> <i_f3d_flags>
0

> <s_epik_input>
W0NIM11jMVtjSF1jKG5vMSlbTkhdQyg9TylbTkhdW0NAQF0oW0NIM10pKFtDSDJdW09IXSlbQ0hdMltDSDJdW0NIMl1bQ0gyXVtDSDJdW0NIMl0y

> <s_epik_cmdline>
J2VwaWtfcHl0aG9uJywgJy1waCcsICc3LjAnLCAnLXRuJywgJzgnLCAnLW1hJywgJzIwMCcsICctbWV0YWxfYmluZGluZycsICctaW1hZScsICc8aW5maWxlLm1hZT4nLCAnLW9tYWUnLCAnPG91dGZpbGUubWFlPic=

> <r_lp_tautomer_probability>
1

> <r_epik_Ionization_Penalty>
2.26451e-05

> <r_epik_Ionization_Penalty_Charging>
0

> <r_epik_Ionization_Penalty_Neutral>
2.26451e-05

> <r_epik_State_Penalty>
-0

> <r_epik_Charging_Adjusted_Penalty>
0

> <i_epik_Tot_Q>
0

> <i_epik_Tot_abs_Q>
0

> <r_epik_Metal_State_Penalty>
-0

> <b_epik_Metal_Only>
0

> <s_lp_Force_Field>
OPLS_2005

> <r_lp_Energy>
17.1045

> <b_lp_Chiralities_Consistent>
1

> <s_lp_Variant>
AV-unprocessed.smi:2651-1

> <Gold.Version>
5.8.1

> <Gold.Id.Protein>
6NUR|6NUR_protein|mol2

> <Gold.PLP.Fitness>
39.5186

> <Gold.PLP.PLP>
-29.0771

> <Gold.PLP.part.hbond>
-4.6254

> <Gold.PLP.part.metal>
0.0000

> <Gold.PLP.part.buried>
-5.3282

> <Gold.PLP.part.nonpolar>
-20.4292

> <Gold.PLP.part.repulsive>
0.3501

> <Gold.PLP.ligand.clash>
0.0000

> <Gold.PLP.ligand.torsion>
0.4591

> <Gold.PLP.Chemscore.Hbond>
3.7760

> <Gold.PLP.Chemscore.CHOScore>
0.0000

> <Gold.PLP.Chemscore.Metal>
0.0000

> <Gold.Chemscore.Hbonds>
donor molecule, donor type, donor heavy atom, donor atom, acceptor molecule, acceptor atom, score
      L1  H     5    25       P1  7948  0.95
      L1  H     8    26       P1  7948  0.80
      L1  H    12    32       P1 10171  0.99
      P1  H  7989  7998       L1    20  1.00

> <Gold.PLP.Chemscore.Internal.Correction>
0.0318

> <Gold.Rescore>
     Score         DG    S(hbond)    S(metal)    S(lipo)     H(rot)  DE(clash)    DE(int)     intcor
     15.11     -16.67       2.95        0.00      57.31       2.09       0.00       1.56       ----

> <Gold.Chemscore.Fitness>
15.1115

> <Gold.Chemscore.DG>
-16.6702

> <Gold.Chemscore.ZeroCoef>
-5.4800

> <Gold.Chemscore.Hbond>
2.9475

> <Gold.Chemscore.Metal>
0.0000

> <Gold.Chemscore.Lipo>
57.3064

> <Gold.Chemscore.Internal_Hbond>
0.0000

> <Gold.Chemscore.DEClash>
0.0029

> <Gold.Chemscore.DEInternal>
1.5558

> <Gold.Chemscore.Rot>
2.0935

> <Gold.Chemscore.Internal.Correction>
   9.000000E+99

> <Gold.Chemscore.Hbonds>
donor molecule, donor type, donor heavy atom, donor atom, acceptor molecule, acceptor atom, score
      L1  H     5    25       P1  7948  0.85
      L1  H     8    26       P1  7948  0.80
      L1  H    12    32       P1 10171  0.94
      P1  H  7989  7998       L1    20  0.17

> <Gold.Chemscore.Hbond.Weighted>
-9.8447

> <Gold.Chemscore.Metal.Weighted>
-0.0000

> <Gold.Chemscore.Lipo.Weighted>
-6.7049

> <Gold.Chemscore.Internal_Hbond.Weighted>
0.0000

> <Gold.Chemscore.DEClash.Weighted>
0.0029

> <Gold.Chemscore.DEInternal.Weighted>
1.5558

> <Gold.Chemscore.Rot.Weighted>
5.3594

> <Gold.Chemscore.Internal.Correction.Weighted>
   9.000000E+99

> <Gold.Protein.RotatedTorsions>
[ 6907 6896 6895 6894 ] final -153.67 input  -60.11 | X-H torsion
[ 7974 7965 7964 7962 ] final  137.16 input  175.53 | X-H torsion
[ 8008 7997 7996 7995 ] final   53.03 input   59.86 | X-H torsion
[ 10167 10162 10161 10158 ] final   40.55 input  -65.29 | X-H torsion
[ 10718 10713 10712 10709 ] final  178.02 input   66.30 | X-H torsion
[ 10763 10752 10751 10750 ] final -177.36 input  -60.55 | X-H torsion
[ 11005 11000 10999 10996 ] final   27.08 input  -57.11 | X-H torsion

> <Gold.Protein.ActiveResidues>
 VAL166  LYS551  ARG553  GLY616  TRP617  ASP618  TYR619  PRO620  LYS621  CYS622 
 ASP623  PHE694  ASN695  SER759  ASP760  ASP761  ALA762  ILE779  LEU786  VAL792 
 PHE793  MET794  SER795  GLU796  ALA797  LYS798  CYS799  TRP800  GLU811  SER814 

> <Gold.Protein.RotatedAtoms>
  151.2461  133.4374  159.2609 H   0  0  0  0  0  0  0  0  0  0  0  0  # atno 6907 bound_to 6896
  151.0660  134.9768  159.8295 H   0  0  0  0  0  0  0  0  0  0  0  0  # atno 6908 bound_to 6896
  152.5405  134.2409  159.8914 H   0  0  0  0  0  0  0  0  0  0  0  0  # atno 6909 bound_to 6896
  144.9495  139.4836  143.5533 H   0  0  0  0  0  0  0  0  0  0  0  0  # atno 7974 bound_to 7965
  155.4615  140.3462  155.4313 H   0  0  0  0  0  0  0  0  0  0  0  0  # atno 8008 bound_to 7997
  156.1157  140.1473  156.9305 H   0  0  0  0  0  0  0  0  0  0  0  0  # atno 8009 bound_to 7997
  154.4788  140.0876  156.7305 H   0  0  0  0  0  0  0  0  0  0  0  0  # atno 8010 bound_to 7997
  140.3731  144.2079  150.6132 H   0  0  0  0  0  0  0  0  0  0  0  0  # atno 10167 bound_to 10162
  156.8967  130.9865  151.3041 H   0  0  0  0  0  0  0  0  0  0  0  0  # atno 10718 bound_to 10713
  154.5611  135.2820  155.0918 H   0  0  0  0  0  0  0  0  0  0  0  0  # atno 10763 bound_to 10752
  154.2327  135.6371  153.5184 H   0  0  0  0  0  0  0  0  0  0  0  0  # atno 10764 bound_to 10752
  153.0029  135.5541  154.6205 H   0  0  0  0  0  0  0  0  0  0  0  0  # atno 10765 bound_to 10752
  140.3302  134.2447  155.7703 H   0  0  0  0  0  0  0  0  0  0  0  0  # atno 11005 bound_to 11000
  146.3316  139.8570  142.8863 LP  0  0  0  0  0  0  0  0  0  0  0  0  # atno 17320 bound_to 7965
  145.2866  141.0155  143.3687 LP  0  0  0  0  0  0  0  0  0  0  0  0  # atno 17321 bound_to 7965
  140.5013  143.2317  151.8674 LP  0  0  0  0  0  0  0  0  0  0  0  0  # atno 17342 bound_to 10162
  139.4802  144.5056  151.9002 LP  0  0  0  0  0  0  0  0  0  0  0  0  # atno 17343 bound_to 10162
  157.6051  130.8541  149.8862 LP  0  0  0  0  0  0  0  0  0  0  0  0  # atno 17370 bound_to 10713
  156.0602  130.3701  150.0999 LP  0  0  0  0  0  0  0  0  0  0  0  0  # atno 17371 bound_to 10713
  141.2065  133.7831  157.0171 LP  0  0  0  0  0  0  0  0  0  0  0  0  # atno 17394 bound_to 11000
  140.0867  134.9616  157.1712 LP  0  0  0  0  0  0  0  0  0  0  0  0  # atno 17395 bound_to 11000

$$$$
