AV-unprocessed.smi:1345|AV-procd|sdf|5510|dock7
  -GOLD-   22720 5 93D 1   1.00000     0.00000
 Structure written by MMmdl.
 40 41  0  0  0  0  0  0  0  0  1 V2000
  151.7877  145.3269  160.1166 C   0  0  0  0  0  0  0  0  0  0  0  0
  152.3935  144.2590  159.1876 C   0  0  0  0  0  0  0  0  0  0  0  0
  151.8371  144.4460  157.7625 C   0  0  0  0  0  0  0  0  0  0  0  0
  152.1749  142.8170  159.7192 C   0  0  2  0  0  0  0  0  0  0  0  0
  152.9939  142.5041  160.9864 C   0  0  0  0  0  0  0  0  0  0  0  0
  152.5174  141.8413  158.6845 N   0  0  0  0  0  0  0  0  0  0  0  0
  151.6418  141.1478  157.9391 C   0  0  0  0  0  0  0  0  0  0  0  0
  150.4203  141.2621  158.0539 O   0  0  0  0  0  0  0  0  0  0  0  0
  152.2571  140.1882  156.9122 C   0  0  0  0  0  0  0  0  0  0  0  0
  151.2422  139.6859  155.9226 C   0  0  0  0  0  0  0  0  0  0  0  0
  151.2961  138.5157  155.2044 C   0  0  0  0  0  0  0  0  0  0  0  0
  149.9114  138.3221  154.1646 S   0  0  0  0  0  0  0  0  0  0  0  0
  149.3020  139.8712  154.7433 C   0  0  0  0  0  0  0  0  0  0  0  0
  148.0795  140.4515  154.2909 N   0  0  0  0  0  0  0  0  0  0  0  0
  147.7333  141.8305  154.6142 C   0  0  0  0  0  0  0  0  0  0  0  0
  146.3709  142.0301  153.9568 C   0  0  0  0  0  0  0  0  0  0  0  0
  146.1362  140.7430  153.3457 N   0  0  0  0  0  0  0  0  0  0  0  0
  147.1183  139.8619  153.5492 C   0  0  0  0  0  0  0  0  0  0  0  0
  147.1114  138.7107  153.1155 O   0  0  0  0  0  0  0  0  0  0  0  0
  150.1037  140.4498  155.6454 N   0  0  0  0  0  0  0  0  0  0  0  0
  150.7216  145.1588  160.2718 H   0  0  0  0  0  0  0  0  0  0  0  0
  151.9075  146.3260  159.6966 H   0  0  0  0  0  0  0  0  0  0  0  0
  152.2723  145.3376  161.0924 H   0  0  0  0  0  0  0  0  0  0  0  0
  153.4680  144.4424  159.1402 H   0  0  0  0  0  0  0  0  0  0  0  0
  150.7669  144.2394  157.7270 H   0  0  0  0  0  0  0  0  0  0  0  0
  152.3275  143.7901  157.0431 H   0  0  0  0  0  0  0  0  0  0  0  0
  151.9878  145.4677  157.4125 H   0  0  0  0  0  0  0  0  0  0  0  0
  151.1162  142.7105  159.9639 H   0  0  0  0  0  0  0  0  0  0  0  0
  152.6844  143.1202  161.8300 H   0  0  0  0  0  0  0  0  0  0  0  0
  154.0592  142.6696  160.8216 H   0  0  0  0  0  0  0  0  0  0  0  0
  152.8641  141.4661  161.2938 H   0  0  0  0  0  0  0  0  0  0  0  0
  153.5013  141.6865  158.5193 H   0  0  0  0  0  0  0  0  0  0  0  0
  153.0700  140.7068  156.4020 H   0  0  0  0  0  0  0  0  0  0  0  0
  152.7109  139.3471  157.4381 H   0  0  0  0  0  0  0  0  0  0  0  0
  152.0626  137.7553  155.2286 H   0  0  0  0  0  0  0  0  0  0  0  0
  147.6782  141.9724  155.6944 H   0  0  0  0  0  0  0  0  0  0  0  0
  148.4757  142.5190  154.2078 H   0  0  0  0  0  0  0  0  0  0  0  0
  145.5926  142.2555  154.6866 H   0  0  0  0  0  0  0  0  0  0  0  0
  146.3902  142.8167  153.2017 H   0  0  0  0  0  0  0  0  0  0  0  0
  145.3018  140.5401  152.8144 H   0  0  0  0  0  0  0  0  0  0  0  0
  1  2  1  0  0  0  0
  1 21  1  0  0  0  0
  1 22  1  0  0  0  0
  1 23  1  0  0  0  0
  2  3  1  0  0  0  0
  2  4  1  0  0  0  0
  2 24  1  0  0  0  0
  3 25  1  0  0  0  0
  3 26  1  0  0  0  0
  3 27  1  0  0  0  0
  4  5  1  0  0  0  0
  4  6  1  0  0  0  0
  4 28  1  0  0  0  0
  5 29  1  0  0  0  0
  5 30  1  0  0  0  0
  5 31  1  0  0  0  0
  6  7  1  0  0  0  0
  6 32  1  0  0  0  0
  7  8  2  0  0  0  0
  7  9  1  0  0  0  0
  9 10  1  0  0  0  0
  9 33  1  0  0  0  0
  9 34  1  0  0  0  0
 10 20  1  0  0  0  0
 10 11  2  0  0  0  0
 11 12  1  0  0  0  0
 11 35  1  0  0  0  0
 12 13  1  0  0  0  0
 13 14  1  0  0  0  0
 13 20  2  0  0  0  0
 14 18  1  0  0  0  0
 14 15  1  0  0  0  0
 15 16  1  0  0  0  0
 15 36  1  0  0  0  0
 15 37  1  0  0  0  0
 16 17  1  0  0  0  0
 16 38  1  0  0  0  0
 16 39  1  0  0  0  0
 17 18  1  0  0  0  0
 17 40  1  0  0  0  0
 18 19  2  0  0  0  0
M  END
> <s_m_source_file>
AV-unprocessed.smi

> <i_m_source_file_index>
1345

> <i_lp_mmshare_version>
43012

> <i_f3d_flags>
0

> <s_epik_input>
W0NIM11bQ0hdKFtDSDNdKVtDQEhdKFtDSDNdKVtOSF1DKD1PKVtDSDJdYzFbY0hdc2MobjEpTjJbQ0gyXVtDSDJdW05IXUMyPU8=

> <s_epik_cmdline>
J2VwaWtfcHl0aG9uJywgJy1waCcsICc3LjAnLCAnLXRuJywgJzgnLCAnLW1hJywgJzIwMCcsICctbWV0YWxfYmluZGluZycsICctaW1hZScsICc8aW5maWxlLm1hZT4nLCAnLW9tYWUnLCAnPG91dGZpbGUubWFlPic=

> <r_lp_tautomer_probability>
1

> <r_epik_Ionization_Penalty>
0.000122034

> <r_epik_Ionization_Penalty_Charging>
0

> <r_epik_Ionization_Penalty_Neutral>
0.000122034

> <r_epik_State_Penalty>
-0

> <r_epik_Charging_Adjusted_Penalty>
0

> <i_epik_Tot_Q>
0

> <i_epik_Tot_abs_Q>
0

> <r_epik_Metal_State_Penalty>
-0

> <b_epik_Metal_Only>
0

> <s_lp_Force_Field>
OPLS_2005

> <r_lp_Energy>
36.09

> <b_lp_Chiralities_Consistent>
1

> <s_lp_Variant>
AV-unprocessed.smi:1345-1

> <Gold.Version>
5.8.1

> <Gold.Id.Protein>
6NUR|6NUR_protein|mol2

> <Gold.PLP.Fitness>
46.7625

> <Gold.PLP.PLP>
-45.4632

> <Gold.PLP.part.hbond>
-1.0000

> <Gold.PLP.part.metal>
0.0000

> <Gold.PLP.part.buried>
-4.0598

> <Gold.PLP.part.nonpolar>
-41.5306

> <Gold.PLP.part.repulsive>
0.4548

> <Gold.PLP.ligand.clash>
0.0000

> <Gold.PLP.ligand.torsion>
0.8736

> <Gold.PLP.Chemscore.Hbond>
1.0000

> <Gold.PLP.Chemscore.CHOScore>
0.0000

> <Gold.PLP.Chemscore.Metal>
0.0000

> <Gold.Chemscore.Hbonds>
donor molecule, donor type, donor heavy atom, donor atom, acceptor molecule, acceptor atom, score
      L1  H    17    40       P1 10175  1.00

> <Gold.PLP.Chemscore.Internal.Correction>
0.0465

> <Gold.Rescore>
     Score         DG    S(hbond)    S(metal)    S(lipo)     H(rot)  DE(clash)    DE(int)     intcor
     12.30     -16.00       0.98        0.00     100.05       1.74       0.11       3.59       ----

> <Gold.Chemscore.Fitness>
12.3002

> <Gold.Chemscore.DG>
-16.0005

> <Gold.Chemscore.ZeroCoef>
-5.4800

> <Gold.Chemscore.Hbond>
0.9752

> <Gold.Chemscore.Metal>
0.0000

> <Gold.Chemscore.Lipo>
100.0486

> <Gold.Chemscore.Internal_Hbond>
0.0000

> <Gold.Chemscore.DEClash>
0.1055

> <Gold.Chemscore.DEInternal>
3.5948

> <Gold.Chemscore.Rot>
1.7353

> <Gold.Chemscore.Internal.Correction>
   9.000000E+99

> <Gold.Chemscore.Hbonds>
donor molecule, donor type, donor heavy atom, donor atom, acceptor molecule, acceptor atom, score
      L1  H    17    40       P1 10175  0.74

> <Gold.Chemscore.Hbond.Weighted>
-3.2571

> <Gold.Chemscore.Metal.Weighted>
-0.0000

> <Gold.Chemscore.Lipo.Weighted>
-11.7057

> <Gold.Chemscore.Internal_Hbond.Weighted>
0.0000

> <Gold.Chemscore.DEClash.Weighted>
0.1055

> <Gold.Chemscore.DEInternal.Weighted>
3.5948

> <Gold.Chemscore.Rot.Weighted>
4.4423

> <Gold.Chemscore.Internal.Correction.Weighted>
   9.000000E+99

> <Gold.Protein.RotatedTorsions>
[ 6907 6896 6895 6894 ] final -166.62 input  -60.11 | X-H torsion
[ 7974 7965 7964 7962 ] final  -52.38 input  175.53 | X-H torsion
[ 8008 7997 7996 7995 ] final  146.69 input   59.86 | X-H torsion
[ 10167 10162 10161 10158 ] final -152.11 input  -65.29 | X-H torsion
[ 10718 10713 10712 10709 ] final  -17.93 input   66.30 | X-H torsion
[ 10763 10752 10751 10750 ] final  -98.02 input  -60.55 | X-H torsion
[ 11005 11000 10999 10996 ] final -133.89 input  -57.11 | X-H torsion

> <Gold.Protein.ActiveResidues>
 VAL166  LYS551  ARG553  GLY616  TRP617  ASP618  TYR619  PRO620  LYS621  CYS622 
 ASP623  PHE694  ASN695  SER759  ASP760  ASP761  ALA762  ILE779  LEU786  VAL792 
 PHE793  MET794  SER795  GLU796  ALA797  LYS798  CYS799  TRP800  GLU811  SER814 

> <Gold.Protein.RotatedAtoms>
  151.4465  133.3629  159.2788 H   0  0  0  0  0  0  0  0  0  0  0  0  # atno 6907 bound_to 6896
  150.9121  134.8540  159.7443 H   0  0  0  0  0  0  0  0  0  0  0  0  # atno 6908 bound_to 6896
  152.4938  134.4395  159.9591 H   0  0  0  0  0  0  0  0  0  0  0  0  # atno 6909 bound_to 6896
  145.9086  140.7935  142.9707 H   0  0  0  0  0  0  0  0  0  0  0  0  # atno 7974 bound_to 7965
  156.2847  140.2175  156.5418 H   0  0  0  0  0  0  0  0  0  0  0  0  # atno 8008 bound_to 7997
  154.7363  140.0491  157.0794 H   0  0  0  0  0  0  0  0  0  0  0  0  # atno 8009 bound_to 7997
  155.0288  140.3132  155.4769 H   0  0  0  0  0  0  0  0  0  0  0  0  # atno 8010 bound_to 7997
  139.7209  143.8958  152.2503 H   0  0  0  0  0  0  0  0  0  0  0  0  # atno 10167 bound_to 10162
  156.5667  130.4739  149.6382 H   0  0  0  0  0  0  0  0  0  0  0  0  # atno 10718 bound_to 10713
  154.7378  135.5025  153.9071 H   0  0  0  0  0  0  0  0  0  0  0  0  # atno 10763 bound_to 10752
  153.1013  135.6686  153.9676 H   0  0  0  0  0  0  0  0  0  0  0  0  # atno 10764 bound_to 10752
  153.9462  135.3062  155.3420 H   0  0  0  0  0  0  0  0  0  0  0  0  # atno 10765 bound_to 10752
  140.9039  134.1654  157.4440 H   0  0  0  0  0  0  0  0  0  0  0  0  # atno 11005 bound_to 11000
  144.6741  140.1789  143.7407 LP  0  0  0  0  0  0  0  0  0  0  0  0  # atno 17320 bound_to 7965
  145.8701  139.2267  143.1666 LP  0  0  0  0  0  0  0  0  0  0  0  0  # atno 17321 bound_to 7965
  139.8854  144.6995  150.8830 LP  0  0  0  0  0  0  0  0  0  0  0  0  # atno 17342 bound_to 10162
  140.7753  143.3628  151.1796 LP  0  0  0  0  0  0  0  0  0  0  0  0  # atno 17343 bound_to 10162
  156.2751  130.7039  151.1847 LP  0  0  0  0  0  0  0  0  0  0  0  0  # atno 17370 bound_to 10713
  157.7357  131.0569  150.5455 LP  0  0  0  0  0  0  0  0  0  0  0  0  # atno 17371 bound_to 10713
  139.8746  134.9909  156.5525 LP  0  0  0  0  0  0  0  0  0  0  0  0  # atno 17394 bound_to 11000
  140.8195  133.8365  155.8882 LP  0  0  0  0  0  0  0  0  0  0  0  0  # atno 17395 bound_to 11000

$$$$
