AV-unprocessed.smi:570|AV-procd|sdf|2961|dock6
  -GOLD-   2262023463D 1   1.00000     0.00000
 Structure written by MMmdl.
 40 41  0  0  0  0  0  0  0  0  1 V2000
  151.2782  140.7505  155.9821 C   0  0  0  0  0  0  0  0  0  0  0  0
  150.9741  140.1852  154.7191 O   0  0  0  0  0  0  0  0  0  0  0  0
  150.5783  138.8274  154.8129 C   0  0  0  0  0  0  0  0  0  0  0  0
  151.8040  137.9783  155.1670 C   0  0  0  0  0  0  0  0  0  0  0  0
  151.7407  137.4187  156.5972 C   0  0  0  0  0  0  0  0  0  0  0  0
  152.3032  138.3573  157.5602 N   0  0  0  0  0  0  0  0  0  0  0  0
  152.5305  138.0898  158.8560 C   0  0  0  0  0  0  0  0  0  0  0  0
  152.2745  137.0068  159.3836 O   0  0  0  0  0  0  0  0  0  0  0  0
  153.0432  139.2389  159.6754 C   0  0  0  0  0  0  0  0  0  0  0  0
  152.5584  140.4618  159.3598 N   0  0  0  0  0  0  0  0  0  0  0  0
  152.9834  141.5213  160.0588 C   0  0  0  0  0  0  0  0  0  0  0  0
  152.4741  142.7776  159.7053 N   0  0  0  0  0  0  0  0  0  0  0  0
  151.9223  143.6983  160.7026 C   0  0  0  0  0  0  0  0  0  0  0  0
  152.1328  145.1610  160.2755 C   0  0  0  0  0  0  0  0  0  0  0  0
  151.5852  145.3693  158.9798 O   0  0  0  0  0  0  0  0  0  0  0  0
  152.2292  144.5581  158.0054 C   0  0  0  0  0  0  0  0  0  0  0  0
  152.0192  143.0726  158.3437 C   0  0  0  0  0  0  0  0  0  0  0  0
  153.8607  141.4668  161.0684 N   0  0  0  0  0  0  0  0  0  0  0  0
  154.3478  140.2570  161.4131 C   0  0  0  0  0  0  0  0  0  0  0  0
  153.9662  139.0794  160.7417 C   0  0  0  0  0  0  0  0  0  0  0  0
  154.5957  137.5521  161.2585 Cl  0  0  0  0  0  0  0  0  0  0  0  0
  151.5766  141.7912  155.8558 H   0  0  0  0  0  0  0  0  0  0  0  0
  152.1013  140.2205  156.4632 H   0  0  0  0  0  0  0  0  0  0  0  0
  150.4116  140.7273  156.6441 H   0  0  0  0  0  0  0  0  0  0  0  0
  149.8101  138.7139  155.5797 H   0  0  0  0  0  0  0  0  0  0  0  0
  150.1518  138.4959  153.8648 H   0  0  0  0  0  0  0  0  0  0  0  0
  151.8893  137.1549  154.4565 H   0  0  0  0  0  0  0  0  0  0  0  0
  152.7032  138.5843  155.0463 H   0  0  0  0  0  0  0  0  0  0  0  0
  150.7124  137.1722  156.8683 H   0  0  0  0  0  0  0  0  0  0  0  0
  152.3087  136.4901  156.6587 H   0  0  0  0  0  0  0  0  0  0  0  0
  152.5261  139.2826  157.2226 H   0  0  0  0  0  0  0  0  0  0  0  0
  150.8579  143.4908  160.8178 H   0  0  0  0  0  0  0  0  0  0  0  0
  152.3788  143.5624  161.6825 H   0  0  0  0  0  0  0  0  0  0  0  0
  151.6396  145.8309  160.9799 H   0  0  0  0  0  0  0  0  0  0  0  0
  153.1932  145.4190  160.2812 H   0  0  0  0  0  0  0  0  0  0  0  0
  151.8088  144.7819  157.0247 H   0  0  0  0  0  0  0  0  0  0  0  0
  153.2924  144.7998  157.9582 H   0  0  0  0  0  0  0  0  0  0  0  0
  152.5422  142.4768  157.5962 H   0  0  0  0  0  0  0  0  0  0  0  0
  150.9618  142.8173  158.2672 H   0  0  0  0  0  0  0  0  0  0  0  0
  155.0433  140.2286  162.2389 H   0  0  0  0  0  0  0  0  0  0  0  0
  1  2  1  0  0  0  0
  1 22  1  0  0  0  0
  1 23  1  0  0  0  0
  1 24  1  0  0  0  0
  2  3  1  0  0  0  0
  3  4  1  0  0  0  0
  3 25  1  0  0  0  0
  3 26  1  0  0  0  0
  4  5  1  0  0  0  0
  4 27  1  0  0  0  0
  4 28  1  0  0  0  0
  5  6  1  0  0  0  0
  5 29  1  0  0  0  0
  5 30  1  0  0  0  0
  6  7  1  0  0  0  0
  6 31  1  0  0  0  0
  7  8  2  0  0  0  0
  7  9  1  0  0  0  0
  9 20  1  0  0  0  0
  9 10  2  0  0  0  0
 10 11  1  0  0  0  0
 11 12  1  0  0  0  0
 11 18  2  0  0  0  0
 12 17  1  0  0  0  0
 12 13  1  0  0  0  0
 13 14  1  0  0  0  0
 13 32  1  0  0  0  0
 13 33  1  0  0  0  0
 14 15  1  0  0  0  0
 14 34  1  0  0  0  0
 14 35  1  0  0  0  0
 15 16  1  0  0  0  0
 16 17  1  0  0  0  0
 16 36  1  0  0  0  0
 16 37  1  0  0  0  0
 17 38  1  0  0  0  0
 17 39  1  0  0  0  0
 18 19  1  0  0  0  0
 19 20  2  0  0  0  0
 19 40  1  0  0  0  0
 20 21  1  0  0  0  0
M  END
> <s_m_source_file>
AV-unprocessed.smi

> <i_m_source_file_index>
570

> <i_lp_mmshare_version>
43012

> <i_f3d_flags>
0

> <s_epik_input>
W0NIM11PW0NIMl1bQ0gyXVtDSDJdW05IXUMoPU8pYzFuYyhuW2NIXWMxQ2wpTjJbQ0gyXVtDSDJdT1tDSDJdW0NIMl0y

> <s_epik_cmdline>
J2VwaWtfcHl0aG9uJywgJy1waCcsICc3LjAnLCAnLXRuJywgJzgnLCAnLW1hJywgJzIwMCcsICctbWV0YWxfYmluZGluZycsICctaW1hZScsICc8aW5maWxlLm1hZT4nLCAnLW9tYWUnLCAnPG91dGZpbGUubWFlPic=

> <r_lp_tautomer_probability>
1

> <r_epik_Ionization_Penalty>
2.32145e-05

> <r_epik_Ionization_Penalty_Charging>
0

> <r_epik_Ionization_Penalty_Neutral>
2.32145e-05

> <r_epik_State_Penalty>
-0

> <r_epik_Charging_Adjusted_Penalty>
0

> <i_epik_Tot_Q>
0

> <i_epik_Tot_abs_Q>
0

> <r_epik_Metal_State_Penalty>
0.0219249

> <b_epik_Metal_Only>
0

> <s_lp_Force_Field>
OPLS_2005

> <r_lp_Energy>
13.2289

> <b_lp_Chiralities_Consistent>
1

> <s_lp_Variant>
AV-unprocessed.smi:570-1

> <Gold.Version>
5.8.1

> <Gold.Id.Protein>
6NUR|6NUR_protein|mol2

> <Gold.PLP.Fitness>
46.7825

> <Gold.PLP.PLP>
-44.0488

> <Gold.PLP.part.hbond>
-2.3182

> <Gold.PLP.part.metal>
0.0000

> <Gold.PLP.part.buried>
-7.6596

> <Gold.PLP.part.nonpolar>
-34.5218

> <Gold.PLP.part.repulsive>
0.2737

> <Gold.PLP.ligand.clash>
0.0000

> <Gold.PLP.ligand.torsion>
1.7203

> <Gold.PLP.Chemscore.Hbond>
1.9913

> <Gold.PLP.Chemscore.CHOScore>
0.0000

> <Gold.PLP.Chemscore.Metal>
0.0000

> <Gold.Chemscore.Hbonds>
donor molecule, donor type, donor heavy atom, donor atom, acceptor molecule, acceptor atom, score
      P1  H  6896  6908       L1     8  1.00
      P1  H  7989  7998       L1     2  1.00

> <Gold.PLP.Chemscore.Internal.Correction>
0.2006

> <Gold.Rescore>
     Score         DG    S(hbond)    S(metal)    S(lipo)     H(rot)  DE(clash)    DE(int)     intcor
     17.16     -19.75       1.96        0.00     101.62       1.63       0.00       2.59       ----

> <Gold.Chemscore.Fitness>
17.1588

> <Gold.Chemscore.DG>
-19.7519

> <Gold.Chemscore.ZeroCoef>
-5.4800

> <Gold.Chemscore.Hbond>
1.9632

> <Gold.Chemscore.Metal>
0.0000

> <Gold.Chemscore.Lipo>
101.6211

> <Gold.Chemscore.Internal_Hbond>
0.0000

> <Gold.Chemscore.DEClash>
0.0029

> <Gold.Chemscore.DEInternal>
2.5902

> <Gold.Chemscore.Rot>
1.6308

> <Gold.Chemscore.Internal.Correction>
   9.000000E+99

> <Gold.Chemscore.Hbonds>
donor molecule, donor type, donor heavy atom, donor atom, acceptor molecule, acceptor atom, score
      P1  H  6896  6908       L1     8  0.93
      P1  H  7989  7998       L1     2  0.87

> <Gold.Chemscore.Hbond.Weighted>
-6.5572

> <Gold.Chemscore.Metal.Weighted>
-0.0000

> <Gold.Chemscore.Lipo.Weighted>
-11.8897

> <Gold.Chemscore.Internal_Hbond.Weighted>
0.0000

> <Gold.Chemscore.DEClash.Weighted>
0.0029

> <Gold.Chemscore.DEInternal.Weighted>
2.5902

> <Gold.Chemscore.Rot.Weighted>
4.1749

> <Gold.Chemscore.Internal.Correction.Weighted>
   9.000000E+99

> <Gold.Protein.RotatedTorsions>
[ 6907 6896 6895 6894 ] final -108.35 input  -60.11 | X-H torsion
[ 7974 7965 7964 7962 ] final  -33.28 input  175.53 | X-H torsion
[ 8008 7997 7996 7995 ] final   42.72 input   59.86 | X-H torsion
[ 10167 10162 10161 10158 ] final  124.49 input  -65.29 | X-H torsion
[ 10718 10713 10712 10709 ] final  -43.89 input   66.30 | X-H torsion
[ 10763 10752 10751 10750 ] final -162.64 input  -60.55 | X-H torsion
[ 11005 11000 10999 10996 ] final -102.20 input  -57.11 | X-H torsion

> <Gold.Protein.ActiveResidues>
 VAL166  LYS551  ARG553  GLY616  TRP617  ASP618  TYR619  PRO620  LYS621  CYS622 
 ASP623  PHE694  ASN695  SER759  ASP760  ASP761  ALA762  ILE779  LEU786  VAL792 
 PHE793  MET794  SER795  GLU796  ALA797  LYS798  CYS799  TRP800  GLU811  SER814 

> <Gold.Protein.RotatedAtoms>
  150.7497  133.9690  159.3539 H   0  0  0  0  0  0  0  0  0  0  0  0  # atno 6907 bound_to 6896
  151.7622  135.0805  160.0357 H   0  0  0  0  0  0  0  0  0  0  0  0  # atno 6908 bound_to 6896
  152.3395  133.6013  159.5902 H   0  0  0  0  0  0  0  0  0  0  0  0  # atno 6909 bound_to 6896
  146.0923  140.5897  142.8859 H   0  0  0  0  0  0  0  0  0  0  0  0  # atno 7974 bound_to 7965
  155.2908  140.3378  155.4252 H   0  0  0  0  0  0  0  0  0  0  0  0  # atno 8008 bound_to 7997
  156.2047  140.1746  156.7866 H   0  0  0  0  0  0  0  0  0  0  0  0  # atno 8009 bound_to 7997
  154.5604  140.0688  156.8795 H   0  0  0  0  0  0  0  0  0  0  0  0  # atno 8010 bound_to 7997
  139.5739  144.6953  151.3706 H   0  0  0  0  0  0  0  0  0  0  0  0  # atno 10167 bound_to 10162
  156.2443  130.4182  149.8724 H   0  0  0  0  0  0  0  0  0  0  0  0  # atno 10718 bound_to 10713
  154.7196  135.3023  154.9069 H   0  0  0  0  0  0  0  0  0  0  0  0  # atno 10763 bound_to 10752
  153.9945  135.6714  153.4760 H   0  0  0  0  0  0  0  0  0  0  0  0  # atno 10764 bound_to 10752
  153.0822  135.5003  154.8443 H   0  0  0  0  0  0  0  0  0  0  0  0  # atno 10765 bound_to 10752
  141.1199  133.8539  157.1330 H   0  0  0  0  0  0  0  0  0  0  0  0  # atno 11005 bound_to 11000
  144.7369  140.4834  143.6897 LP  0  0  0  0  0  0  0  0  0  0  0  0  # atno 17320 bound_to 7965
  145.6015  139.1504  143.3126 LP  0  0  0  0  0  0  0  0  0  0  0  0  # atno 17321 bound_to 7965
  140.7022  143.7603  150.7422 LP  0  0  0  0  0  0  0  0  0  0  0  0  # atno 17342 bound_to 10162
  140.1117  143.4693  152.2366 LP  0  0  0  0  0  0  0  0  0  0  0  0  # atno 17343 bound_to 10162
  156.6295  130.8659  151.3492 LP  0  0  0  0  0  0  0  0  0  0  0  0  # atno 17370 bound_to 10713
  157.7188  130.9532  150.1358 LP  0  0  0  0  0  0  0  0  0  0  0  0  # atno 17371 bound_to 10713
  140.0148  134.9972  157.0471 LP  0  0  0  0  0  0  0  0  0  0  0  0  # atno 17394 bound_to 11000
  140.4538  134.1555  155.7184 LP  0  0  0  0  0  0  0  0  0  0  0  0  # atno 17395 bound_to 11000

$$$$
