AV-unprocessed.smi:2027|AV-procd|sdf|8220|dock8
  -GOLD-   2272010493D 1   1.00000     0.00000
 Structure written by MMmdl.
 51 53  0  0  0  0  0  0  0  0  3 V2000
  152.3465  143.7610  160.3102 C   0  0  0  0  0  0  0  0  0  0  0  0
  152.0712  142.7622  159.1993 C   0  0  0  0  0  0  0  0  0  0  0  0
  151.1781  143.1296  158.1674 C   0  0  0  0  0  0  0  0  0  0  0  0
  150.9394  142.1911  157.1703 C   0  0  0  0  0  0  0  0  0  0  0  0
  150.1206  142.2460  156.0403 N   0  3  0  0  0  0  0  0  0  0  0  0
  150.2044  141.0691  155.3602 C   0  0  0  0  0  0  0  0  0  0  0  0
  151.0629  140.2615  156.0403 N   0  0  0  0  0  0  0  0  0  0  0  0
  151.4962  138.8896  155.7374 C   0  0  0  0  0  0  0  0  0  0  0  0
  150.6570  138.2104  154.6330 C   0  0  1  0  0  0  0  0  0  0  0  0
  151.4389  137.1540  154.1126 O   0  0  0  0  0  0  0  0  0  0  0  0
  149.3090  137.6496  155.1421 C   0  0  0  0  0  0  0  0  0  0  0  0
  148.2116  137.6763  154.1354 N   0  3  2  0  0  0  0  0  0  0  0  0
  148.0236  139.0096  153.5153 C   0  0  0  0  0  0  0  0  0  0  0  0
  146.9291  137.1405  154.6638 C   0  0  0  0  0  0  0  0  0  0  0  0
  145.9502  136.8212  153.5640 C   0  0  0  0  0  0  0  0  0  0  0  0
  144.7342  137.4964  153.2530 C   0  0  0  0  0  0  0  0  0  0  0  0
  144.0905  136.9534  152.2338 N   0  0  0  0  0  0  0  0  0  0  0  0
  144.8749  135.9255  151.8500 N   0  0  0  0  0  0  0  0  0  0  0  0
  144.4698  135.0962  150.7353 C   0  0  0  0  0  0  0  0  0  0  0  0
  146.0060  135.8243  152.6309 C   0  0  0  0  0  0  0  0  0  0  0  0
  151.5570  140.9251  157.1712 C   0  0  0  0  0  0  0  0  0  0  0  0
  152.4501  140.5531  158.1746 C   0  0  0  0  0  0  0  0  0  0  0  0
  152.7000  141.4903  159.2018 C   0  0  0  0  0  0  0  0  0  0  0  0
  153.6584  141.1039  160.3157 C   0  0  0  0  0  0  0  0  0  0  0  0
  151.7585  144.6706  160.1841 H   0  0  0  0  0  0  0  0  0  0  0  0
  153.3997  144.0423  160.3192 H   0  0  0  0  0  0  0  0  0  0  0  0
  152.0931  143.3345  161.2810 H   0  0  0  0  0  0  0  0  0  0  0  0
  150.6981  144.0975  158.1580 H   0  0  0  0  0  0  0  0  0  0  0  0
  149.6822  140.8211  154.4470 H   0  0  0  0  0  0  0  0  0  0  0  0
  152.5412  138.9441  155.4290 H   0  0  0  0  0  0  0  0  0  0  0  0
  151.4853  138.3043  156.6574 H   0  0  0  0  0  0  0  0  0  0  0  0
  150.4901  138.9381  153.8393 H   0  0  0  0  0  0  0  0  0  0  0  0
  151.0573  136.8591  153.3000 H   0  0  0  0  0  0  0  0  0  0  0  0
  149.4868  136.6245  155.4626 H   0  0  0  0  0  0  0  0  0  0  0  0
  148.9767  138.1952  156.0261 H   0  0  0  0  0  0  0  0  0  0  0  0
  147.7774  139.7599  154.2678 H   0  0  0  0  0  0  0  0  0  0  0  0
  147.2154  138.9863  152.7833 H   0  0  0  0  0  0  0  0  0  0  0  0
  148.9172  139.3348  152.9844 H   0  0  0  0  0  0  0  0  0  0  0  0
  147.1363  136.2600  155.2742 H   0  0  0  0  0  0  0  0  0  0  0  0
  146.4882  137.8741  155.3398 H   0  0  0  0  0  0  0  0  0  0  0  0
  144.2965  138.3530  153.7444 H   0  0  0  0  0  0  0  0  0  0  0  0
  145.1975  134.2995  150.5779 H   0  0  0  0  0  0  0  0  0  0  0  0
  144.4043  135.7002  149.8298 H   0  0  0  0  0  0  0  0  0  0  0  0
  143.4961  134.6502  150.9408 H   0  0  0  0  0  0  0  0  0  0  0  0
  146.7457  135.0549  152.4639 H   0  0  0  0  0  0  0  0  0  0  0  0
  152.9329  139.5873  158.1813 H   0  0  0  0  0  0  0  0  0  0  0  0
  154.0732  140.1077  160.1587 H   0  0  0  0  0  0  0  0  0  0  0  0
  153.1462  141.1018  161.2780 H   0  0  0  0  0  0  0  0  0  0  0  0
  154.4904  141.8065  160.3669 H   0  0  0  0  0  0  0  0  0  0  0  0
  148.4868  137.0502  153.3921 H   0  0  0  0  0  0  0  0  0  0  0  0
  149.5472  143.0286  155.7510 H   0  0  0  0  0  0  0  0  0  0  0  0
  1  2  1  0  0  0  0
  1 25  1  0  0  0  0
  1 26  1  0  0  0  0
  1 27  1  0  0  0  0
  2 23  1  0  0  0  0
  2  3  2  0  0  0  0
  3  4  1  0  0  0  0
  3 28  1  0  0  0  0
  4 21  2  0  0  0  0
  4  5  1  0  0  0  0
  5  6  2  0  0  0  0
  5 51  1  0  0  0  0
  6  7  1  0  0  0  0
  6 29  1  0  0  0  0
  7  8  1  0  0  0  0
  7 21  1  0  0  0  0
  8  9  1  0  0  0  0
  8 30  1  0  0  0  0
  8 31  1  0  0  0  0
  9 10  1  0  0  0  0
  9 11  1  0  0  0  0
  9 32  1  0  0  0  0
 10 33  1  0  0  0  0
 11 12  1  0  0  0  0
 11 34  1  0  0  0  0
 11 35  1  0  0  0  0
 12 13  1  0  0  0  0
 12 14  1  0  0  0  0
 12 50  1  0  0  0  0
 13 36  1  0  0  0  0
 13 37  1  0  0  0  0
 13 38  1  0  0  0  0
 14 15  1  0  0  0  0
 14 39  1  0  0  0  0
 14 40  1  0  0  0  0
 15 20  2  0  0  0  0
 15 16  1  0  0  0  0
 16 17  2  0  0  0  0
 16 41  1  0  0  0  0
 17 18  1  0  0  0  0
 18 19  1  0  0  0  0
 18 20  1  0  0  0  0
 19 42  1  0  0  0  0
 19 43  1  0  0  0  0
 19 44  1  0  0  0  0
 20 45  1  0  0  0  0
 21 22  1  0  0  0  0
 22 23  2  0  0  0  0
 22 46  1  0  0  0  0
 23 24  1  0  0  0  0
 24 47  1  0  0  0  0
 24 48  1  0  0  0  0
 24 49  1  0  0  0  0
M  CHG  1   5   1
M  CHG  1  12   1
M  END
> <s_m_source_file>
AV-unprocessed.smi

> <i_m_source_file_index>
2027

> <i_lp_mmshare_version>
43012

> <i_f3d_flags>
0

> <s_epik_input>
W0NIM11jKFtjSF0xKWMoW0NIM10pW2NIXWMoYzEyKW4oW2NIXW4yKVtDSDJdW0NASF0oW09IXSlbQ0gyXU4oW0NIM10pW0NIMl1jM1tjSF1ubihbQ0gzXSlbY0hdMw==

> <s_epik_cmdline>
J2VwaWtfcHl0aG9uJywgJy1waCcsICc3LjAnLCAnLXRuJywgJzgnLCAnLW1hJywgJzIwMCcsICctbWV0YWxfYmluZGluZycsICctaW1hZScsICc8aW5maWxlLm1hZT4nLCAnLW9tYWUnLCAnPG91dGZpbGUubWFlPic=

> <r_lp_tautomer_probability>
1

> <r_epik_Ionization_Penalty>
1.77469

> <r_epik_Ionization_Penalty_Charging>
1.77463

> <r_epik_Ionization_Penalty_Neutral>
6.41153e-05

> <r_epik_State_Penalty>
1.85225

> <r_epik_Charging_Adjusted_Penalty>
3.62688

> <i_epik_Tot_Q>
2

> <i_epik_Tot_abs_Q>
2

> <r_epik_Metal_State_Penalty>
1.92669

> <b_epik_Metal_Only>
0

> <s_lp_Force_Field>
OPLS_2005

> <r_lp_Energy>
22.5678

> <b_lp_Chiralities_Consistent>
1

> <s_lp_Variant>
AV-unprocessed.smi:2027-12

> <Gold.Version>
5.8.1

> <Gold.Id.Protein>
6NUR|6NUR_protein|mol2

> <Gold.PLP.Fitness>
63.6615

> <Gold.PLP.PLP>
-44.2563

> <Gold.PLP.part.hbond>
-3.6955

> <Gold.PLP.part.metal>
0.0000

> <Gold.PLP.part.buried>
-2.4710

> <Gold.PLP.part.nonpolar>
-37.6815

> <Gold.PLP.part.repulsive>
1.4168

> <Gold.PLP.ligand.clash>
0.0000

> <Gold.PLP.ligand.torsion>
0.9053

> <Gold.PLP.Chemscore.Hbond>
5.6792

> <Gold.PLP.Chemscore.CHOScore>
1.3430

> <Gold.PLP.Chemscore.Metal>
0.0000

> <Gold.Chemscore.Hbonds>
donor molecule, donor type, donor heavy atom, donor atom, acceptor molecule, acceptor atom, score
      L1  H     5    51       P1  8028  2.00
      L1  H    10    33       P1  7949  1.00
      L1  H    12    50       P1  7948  2.00
      P1  H 10752 10764       L1    10  0.66
      L1  C    16    41       P1 10175  0.84
      L1  C    20    45       P1  7948  0.54

> <Gold.PLP.Chemscore.Internal.Correction>
0.1488

> <Gold.Rescore>
     Score         DG    S(hbond)    S(metal)    S(lipo)     H(rot)  DE(clash)    DE(int)     intcor
     19.19     -20.51       2.46        0.00     114.88       2.58       0.56       0.76       ----

> <Gold.Chemscore.Fitness>
19.1947

> <Gold.Chemscore.DG>
-20.5099

> <Gold.Chemscore.ZeroCoef>
-5.4800

> <Gold.Chemscore.Hbond>
2.4561

> <Gold.Chemscore.Metal>
0.0000

> <Gold.Chemscore.Lipo>
114.8757

> <Gold.Chemscore.Internal_Hbond>
0.0000

> <Gold.Chemscore.DEClash>
0.5564

> <Gold.Chemscore.DEInternal>
0.7589

> <Gold.Chemscore.Rot>
2.5836

> <Gold.Chemscore.Internal.Correction>
   9.000000E+99

> <Gold.Chemscore.Hbonds>
donor molecule, donor type, donor heavy atom, donor atom, acceptor molecule, acceptor atom, score
      L1  H     5    51       P1  8028  1.00
      L1  H    10    33       P1  7949  0.32
      L1  H    12    50       P1  7948  1.00
      P1  H 10752 10764       L1    10  0.11

> <Gold.Chemscore.Hbond.Weighted>
-8.2034

> <Gold.Chemscore.Metal.Weighted>
-0.0000

> <Gold.Chemscore.Lipo.Weighted>
-13.4405

> <Gold.Chemscore.Internal_Hbond.Weighted>
0.0000

> <Gold.Chemscore.DEClash.Weighted>
0.5564

> <Gold.Chemscore.DEInternal.Weighted>
0.7589

> <Gold.Chemscore.Rot.Weighted>
6.6139

> <Gold.Chemscore.Internal.Correction.Weighted>
   9.000000E+99

> <Gold.Protein.RotatedTorsions>
[ 6907 6896 6895 6894 ] final  137.35 input  -60.11 | X-H torsion
[ 7974 7965 7964 7962 ] final  112.84 input  175.53 | X-H torsion
[ 8008 7997 7996 7995 ] final  -69.52 input   59.86 | X-H torsion
[ 10167 10162 10161 10158 ] final  -36.14 input  -65.29 | X-H torsion
[ 10718 10713 10712 10709 ] final -152.92 input   66.30 | X-H torsion
[ 10763 10752 10751 10750 ] final  -79.51 input  -60.55 | X-H torsion
[ 11005 11000 10999 10996 ] final -132.89 input  -57.11 | X-H torsion

> <Gold.Protein.ActiveResidues>
 VAL166  LYS551  ARG553  GLY616  TRP617  ASP618  TYR619  PRO620  LYS621  CYS622 
 ASP623  PHE694  ASN695  SER759  ASP760  ASP761  ALA762  ILE779  LEU786  VAL792 
 PHE793  MET794  SER795  GLU796  ALA797  LYS798  CYS799  TRP800  GLU811  SER814 

> <Gold.Protein.RotatedAtoms>
  152.2791  133.5453  159.5486 H   0  0  0  0  0  0  0  0  0  0  0  0  # atno 6907 bound_to 6896
  150.7189  134.0590  159.3833 H   0  0  0  0  0  0  0  0  0  0  0  0  # atno 6908 bound_to 6896
  151.8501  135.0561  160.0509 H   0  0  0  0  0  0  0  0  0  0  0  0  # atno 6909 bound_to 6896
  145.2245  139.2847  143.4200 H   0  0  0  0  0  0  0  0  0  0  0  0  # atno 7974 bound_to 7965
  154.4945  140.0852  156.7666 H   0  0  0  0  0  0  0  0  0  0  0  0  # atno 8008 bound_to 7997
  155.4151  140.3443  155.4248 H   0  0  0  0  0  0  0  0  0  0  0  0  # atno 8009 bound_to 7997
  156.1374  140.1519  156.8960 H   0  0  0  0  0  0  0  0  0  0  0  0  # atno 8010 bound_to 7997
  140.7149  143.3429  151.2319 H   0  0  0  0  0  0  0  0  0  0  0  0  # atno 10167 bound_to 10162
  156.4789  130.8294  151.2521 H   0  0  0  0  0  0  0  0  0  0  0  0  # atno 10718 bound_to 10713
  154.5395  135.5693  153.6827 H   0  0  0  0  0  0  0  0  0  0  0  0  # atno 10763 bound_to 10752
  152.9959  135.6224  154.2521 H   0  0  0  0  0  0  0  0  0  0  0  0  # atno 10764 bound_to 10752
  154.2452  135.2861  155.2818 H   0  0  0  0  0  0  0  0  0  0  0  0  # atno 10765 bound_to 10752
  140.9129  134.1544  157.4375 H   0  0  0  0  0  0  0  0  0  0  0  0  # atno 11005 bound_to 11000
  146.3368  140.2561  142.8600 LP  0  0  0  0  0  0  0  0  0  0  0  0  # atno 17320 bound_to 7965
  144.9734  140.8390  143.5441 LP  0  0  0  0  0  0  0  0  0  0  0  0  # atno 17321 bound_to 7965
  139.6941  143.9643  152.2874 LP  0  0  0  0  0  0  0  0  0  0  0  0  # atno 17342 bound_to 10162
  139.9314  144.6739  150.8359 LP  0  0  0  0  0  0  0  0  0  0  0  0  # atno 17343 bound_to 10162
  157.7485  131.0051  150.3102 LP  0  0  0  0  0  0  0  0  0  0  0  0  # atno 17370 bound_to 10713
  156.3541  130.3836  149.7304 LP  0  0  0  0  0  0  0  0  0  0  0  0  # atno 17371 bound_to 10713
  139.8761  134.9943  156.5685 LP  0  0  0  0  0  0  0  0  0  0  0  0  # atno 17394 bound_to 11000
  140.8086  133.8447  155.8790 LP  0  0  0  0  0  0  0  0  0  0  0  0  # atno 17395 bound_to 11000

$$$$
