AV-unprocessed.smi:315|AV-procd|sdf|2323|dock5
  -GOLD-   2262022223D 1   1.00000     0.00000
 Structure written by MMmdl.
 47 49  0  0  0  0  0  0  0  0  2 V2000
  152.3050  138.2462  154.2855 C   0  0  0  0  0  0  0  0  0  0  0  0
  151.1898  139.1653  154.7899 C   0  0  0  0  0  0  0  0  0  0  0  0
  150.0502  138.9935  153.9539 O   0  0  0  0  0  0  0  0  0  0  0  0
  149.1676  140.0470  153.8069 C   0  0  0  0  0  0  0  0  0  0  0  0
  149.5736  141.2891  154.1707 N   0  0  0  0  0  0  0  0  0  0  0  0
  148.7091  142.3146  154.0262 C   0  0  0  0  0  0  0  0  0  0  0  0
  147.4039  142.1577  153.5240 C   0  0  0  0  0  0  0  0  0  0  0  0
  146.9804  140.8699  153.1468 C   0  0  0  0  0  0  0  0  0  0  0  0
  147.8823  139.7869  153.2786 C   0  0  0  0  0  0  0  0  0  0  0  0
  147.5582  138.4443  152.9471 N   0  0  0  0  0  0  0  0  0  0  0  0
  146.3455  137.8668  152.8506 C   0  0  0  0  0  0  0  0  0  0  0  0
  145.2781  138.4343  153.0701 O   0  0  0  0  0  0  0  0  0  0  0  0
  146.3833  136.5798  152.4619 N   0  0  0  0  0  0  0  0  0  0  0  0
  145.2532  135.6710  152.2607 C   0  0  1  0  0  0  0  0  0  0  0  0
  145.6560  134.2726  151.7637 C   0  0  0  0  0  0  0  0  0  0  0  0
  144.7437  133.2884  152.5218 C   0  0  0  0  0  0  0  0  0  0  0  0
  143.7960  134.1092  153.3094 N   0  3  2  0  0  0  0  0  0  0  0  0
  142.4908  134.2787  152.6133 C   0  0  0  0  0  0  0  0  0  0  0  0
  141.5966  135.3137  153.3077 C   0  0  0  0  0  0  0  0  0  0  0  0
  142.3138  136.6639  153.3843 C   0  0  0  0  0  0  0  0  0  0  0  0
  143.6348  136.4988  154.1440 C   0  0  0  0  0  0  0  0  0  0  0  0
  144.5267  135.3720  153.5757 C   0  0  2  0  0  0  0  0  0  0  0  0
  153.1996  138.3459  154.9004 H   0  0  0  0  0  0  0  0  0  0  0  0
  152.5770  138.4881  153.2577 H   0  0  0  0  0  0  0  0  0  0  0  0
  151.9939  137.2017  154.3139 H   0  0  0  0  0  0  0  0  0  0  0  0
  150.9463  138.9141  155.8235 H   0  0  0  0  0  0  0  0  0  0  0  0
  151.5294  140.2019  154.7631 H   0  0  0  0  0  0  0  0  0  0  0  0
  149.0664  143.2890  154.3253 H   0  0  0  0  0  0  0  0  0  0  0  0
  146.7413  143.0057  153.4338 H   0  0  0  0  0  0  0  0  0  0  0  0
  145.9748  140.7366  152.7790 H   0  0  0  0  0  0  0  0  0  0  0  0
  148.3408  137.8747  152.6609 H   0  0  0  0  0  0  0  0  0  0  0  0
  147.2985  136.1939  152.2785 H   0  0  0  0  0  0  0  0  0  0  0  0
  144.5434  136.1122  151.5588 H   0  0  0  0  0  0  0  0  0  0  0  0
  145.5249  134.1926  150.6840 H   0  0  0  0  0  0  0  0  0  0  0  0
  146.7022  134.0534  151.9827 H   0  0  0  0  0  0  0  0  0  0  0  0
  144.2393  132.5876  151.8550 H   0  0  0  0  0  0  0  0  0  0  0  0
  145.3426  132.6980  153.2165 H   0  0  0  0  0  0  0  0  0  0  0  0
  142.6570  134.5824  151.5783 H   0  0  0  0  0  0  0  0  0  0  0  0
  141.9810  133.3154  152.5761 H   0  0  0  0  0  0  0  0  0  0  0  0
  140.6587  135.4210  152.7618 H   0  0  0  0  0  0  0  0  0  0  0  0
  141.3366  134.9705  154.3100 H   0  0  0  0  0  0  0  0  0  0  0  0
  142.4988  137.0482  152.3806 H   0  0  0  0  0  0  0  0  0  0  0  0
  141.6828  137.3976  153.8866 H   0  0  0  0  0  0  0  0  0  0  0  0
  144.1810  137.4425  154.1574 H   0  0  0  0  0  0  0  0  0  0  0  0
  143.4070  136.2702  155.1861 H   0  0  0  0  0  0  0  0  0  0  0  0
  145.2826  135.1400  154.3292 H   0  0  0  0  0  0  0  0  0  0  0  0
  143.6082  133.6518  154.1902 H   0  0  0  0  0  0  0  0  0  0  0  0
  1  2  1  0  0  0  0
  1 23  1  0  0  0  0
  1 24  1  0  0  0  0
  1 25  1  0  0  0  0
  2  3  1  0  0  0  0
  2 26  1  0  0  0  0
  2 27  1  0  0  0  0
  3  4  1  0  0  0  0
  4  9  1  0  0  0  0
  4  5  2  0  0  0  0
  5  6  1  0  0  0  0
  6  7  2  0  0  0  0
  6 28  1  0  0  0  0
  7  8  1  0  0  0  0
  7 29  1  0  0  0  0
  8  9  2  0  0  0  0
  8 30  1  0  0  0  0
  9 10  1  0  0  0  0
 10 11  1  0  0  0  0
 10 31  1  0  0  0  0
 11 12  2  0  0  0  0
 11 13  1  0  0  0  0
 13 14  1  0  0  0  0
 13 32  1  0  0  0  0
 14 22  1  0  0  0  0
 14 15  1  0  0  0  0
 14 33  1  0  0  0  0
 15 16  1  0  0  0  0
 15 34  1  0  0  0  0
 15 35  1  0  0  0  0
 16 17  1  0  0  0  0
 16 36  1  0  0  0  0
 16 37  1  0  0  0  0
 17 22  1  0  0  0  0
 17 18  1  0  0  0  0
 17 47  1  0  0  0  0
 18 19  1  0  0  0  0
 18 38  1  0  0  0  0
 18 39  1  0  0  0  0
 19 20  1  0  0  0  0
 19 40  1  0  0  0  0
 19 41  1  0  0  0  0
 20 21  1  0  0  0  0
 20 42  1  0  0  0  0
 20 43  1  0  0  0  0
 21 22  1  0  0  0  0
 21 44  1  0  0  0  0
 21 45  1  0  0  0  0
 22 46  1  0  0  0  0
M  CHG  1  17   1
M  END
> <s_m_source_file>
AV-unprocessed.smi

> <i_m_source_file_index>
315

> <i_lp_mmshare_version>
43012

> <i_f3d_flags>
0

> <s_epik_input>
W0NIM11bQ0gyXU9jMW5bY0hdW2NIXVtjSF1jMVtOSF1DKD1PKVtOSF1bQ0BIXShbQ0gyXVtDSDJdMilbQ0BASF0oTjIzKVtDSDJdW0NIMl1bQ0gyXVtDSDJdMw==

> <s_epik_cmdline>
J2VwaWtfcHl0aG9uJywgJy1waCcsICc3LjAnLCAnLXRuJywgJzgnLCAnLW1hJywgJzIwMCcsICctbWV0YWxfYmluZGluZycsICctaW1hZScsICc8aW5maWxlLm1hZT4nLCAnLW9tYWUnLCAnPG91dGZpbGUubWFlPic=

> <r_lp_tautomer_probability>
1

> <r_epik_Ionization_Penalty>
0.00106455

> <r_epik_Ionization_Penalty_Charging>
0.000974069

> <r_epik_Ionization_Penalty_Neutral>
9.04821e-05

> <r_epik_State_Penalty>
0.000633842

> <r_epik_Charging_Adjusted_Penalty>
0.00160791

> <i_epik_Tot_Q>
1

> <i_epik_Tot_abs_Q>
1

> <r_epik_Metal_State_Penalty>
-0

> <b_epik_Metal_Only>
0

> <s_lp_Force_Field>
OPLS_2005

> <r_lp_Energy>
51.0433

> <b_lp_Chiralities_Consistent>
1

> <s_lp_Variant>
AV-unprocessed.smi:315-8

> <Gold.Version>
5.8.1

> <Gold.Id.Protein>
6NUR|6NUR_protein|mol2

> <Gold.PLP.Fitness>
46.6979

> <Gold.PLP.PLP>
-32.7283

> <Gold.PLP.part.hbond>
-3.0000

> <Gold.PLP.part.metal>
0.0000

> <Gold.PLP.part.buried>
-1.3181

> <Gold.PLP.part.nonpolar>
-30.0610

> <Gold.PLP.part.repulsive>
1.1752

> <Gold.PLP.ligand.clash>
0.0000

> <Gold.PLP.ligand.torsion>
0.5127

> <Gold.PLP.Chemscore.Hbond>
3.9920

> <Gold.PLP.Chemscore.CHOScore>
1.0000

> <Gold.PLP.Chemscore.Metal>
0.0000

> <Gold.Chemscore.Hbonds>
donor molecule, donor type, donor heavy atom, donor atom, acceptor molecule, acceptor atom, score
      L1  H    10    31       P1  7948  0.98
      L1  H    13    32       P1  7948  1.00
      L1  H    17    47       P1 10957  0.85
      P1  H  7989  7998       L1     5  0.14
      L1  C     6    28       P1  8028  0.76

> <Gold.PLP.Chemscore.Internal.Correction>
0.0190

> <Gold.Rescore>
     Score         DG    S(hbond)    S(metal)    S(lipo)     H(rot)  DE(clash)    DE(int)     intcor
     17.69     -20.83       2.91        0.00      78.26       1.38       0.17       2.97       ----

> <Gold.Chemscore.Fitness>
17.6891

> <Gold.Chemscore.DG>
-20.8283

> <Gold.Chemscore.ZeroCoef>
-5.4800

> <Gold.Chemscore.Hbond>
2.9092

> <Gold.Chemscore.Metal>
0.0000

> <Gold.Chemscore.Lipo>
78.2625

> <Gold.Chemscore.Internal_Hbond>
0.0000

> <Gold.Chemscore.DEClash>
0.1709

> <Gold.Chemscore.DEInternal>
2.9683

> <Gold.Chemscore.Rot>
1.3770

> <Gold.Chemscore.Internal.Correction>
   9.000000E+99

> <Gold.Chemscore.Hbonds>
donor molecule, donor type, donor heavy atom, donor atom, acceptor molecule, acceptor atom, score
      L1  H    10    31       P1  7948  0.93
      L1  H    13    32       P1  7948  0.98
      L1  H    17    47       P1 10957  0.42
      P1  H  7989  7998       L1     5  0.01

> <Gold.Chemscore.Hbond.Weighted>
-9.7167

> <Gold.Chemscore.Metal.Weighted>
-0.0000

> <Gold.Chemscore.Lipo.Weighted>
-9.1567

> <Gold.Chemscore.Internal_Hbond.Weighted>
0.0000

> <Gold.Chemscore.DEClash.Weighted>
0.1709

> <Gold.Chemscore.DEInternal.Weighted>
2.9683

> <Gold.Chemscore.Rot.Weighted>
3.5252

> <Gold.Chemscore.Internal.Correction.Weighted>
   9.000000E+99

> <Gold.Protein.RotatedTorsions>
[ 6907 6896 6895 6894 ] final   29.56 input  -60.11 | X-H torsion
[ 7974 7965 7964 7962 ] final   62.99 input  175.53 | X-H torsion
[ 8008 7997 7996 7995 ] final    3.68 input   59.86 | X-H torsion
[ 10167 10162 10161 10158 ] final  -34.29 input  -65.29 | X-H torsion
[ 10718 10713 10712 10709 ] final -133.77 input   66.30 | X-H torsion
[ 10763 10752 10751 10750 ] final   76.67 input  -60.55 | X-H torsion
[ 11005 11000 10999 10996 ] final -130.36 input  -57.11 | X-H torsion

> <Gold.Protein.ActiveResidues>
 VAL166  LYS551  ARG553  GLY616  TRP617  ASP618  TYR619  PRO620  LYS621  CYS622 
 ASP623  PHE694  ASN695  SER759  ASP760  ASP761  ALA762  ILE779  LEU786  VAL792 
 PHE793  MET794  SER795  GLU796  ALA797  LYS798  CYS799  TRP800  GLU811  SER814 

> <Gold.Protein.RotatedAtoms>
  152.0333  134.9755  160.0572 H   0  0  0  0  0  0  0  0  0  0  0  0  # atno 6907 bound_to 6896
  152.1222  133.4355  159.4689 H   0  0  0  0  0  0  0  0  0  0  0  0  # atno 6908 bound_to 6896
  150.6850  134.2440  159.4527 H   0  0  0  0  0  0  0  0  0  0  0  0  # atno 6909 bound_to 6896
  145.8670  139.3353  143.0785 H   0  0  0  0  0  0  0  0  0  0  0  0  # atno 7974 bound_to 7965
  154.7067  140.2684  155.6668 H   0  0  0  0  0  0  0  0  0  0  0  0  # atno 8008 bound_to 7997
  156.2782  140.2761  156.1619 H   0  0  0  0  0  0  0  0  0  0  0  0  # atno 8009 bound_to 7997
  155.0691  140.0372  157.2592 H   0  0  0  0  0  0  0  0  0  0  0  0  # atno 8010 bound_to 7997
  140.7188  143.3558  151.2062 H   0  0  0  0  0  0  0  0  0  0  0  0  # atno 10167 bound_to 10162
  156.2484  130.7138  151.1028 H   0  0  0  0  0  0  0  0  0  0  0  0  # atno 10718 bound_to 10713
  153.0742  135.4943  154.8370 H   0  0  0  0  0  0  0  0  0  0  0  0  # atno 10763 bound_to 10752
  154.7065  135.3011  154.9265 H   0  0  0  0  0  0  0  0  0  0  0  0  # atno 10764 bound_to 10752
  153.9972  135.6771  153.4810 H   0  0  0  0  0  0  0  0  0  0  0  0  # atno 10765 bound_to 10752
  140.9352  134.1266  157.4199 H   0  0  0  0  0  0  0  0  0  0  0  0  # atno 11005 bound_to 11000
  145.9181  140.9134  143.0419 LP  0  0  0  0  0  0  0  0  0  0  0  0  # atno 17320 bound_to 7965
  144.6726  140.1251  143.7447 LP  0  0  0  0  0  0  0  0  0  0  0  0  # atno 17321 bound_to 7965
  139.7099  143.9393  152.2943 LP  0  0  0  0  0  0  0  0  0  0  0  0  # atno 17342 bound_to 10162
  139.9115  144.6854  150.8557 LP  0  0  0  0  0  0  0  0  0  0  0  0  # atno 17343 bound_to 10162
  157.7204  131.0684  150.6156 LP  0  0  0  0  0  0  0  0  0  0  0  0  # atno 17370 bound_to 10713
  156.6235  130.4412  149.5813 LP  0  0  0  0  0  0  0  0  0  0  0  0  # atno 17371 bound_to 10713
  139.8806  135.0018  156.6092 LP  0  0  0  0  0  0  0  0  0  0  0  0  # atno 17394 bound_to 11000
  140.7808  133.8661  155.8566 LP  0  0  0  0  0  0  0  0  0  0  0  0  # atno 17395 bound_to 11000

$$$$
