AV-unprocessed.smi:1111|AV-procd|sdf|4792|dock5
  -GOLD-   22720 3343D 1   1.00000     0.00000
 Structure written by MMmdl.
 32 33  0  0  0  0  0  0  0  0  1 V2000
  153.2079  138.3184  158.1265 C   0  0  0  0  0  0  0  0  0  0  0  0
  151.7098  138.2425  157.7651 C   0  0  1  0  0  0  0  0  0  0  0  0
  151.1758  139.5791  157.4775 N   0  0  0  0  0  0  0  0  0  0  0  0
  151.6020  140.4722  156.5675 C   0  0  0  0  0  0  0  0  0  0  0  0
  152.4849  140.2486  155.7406 O   0  0  0  0  0  0  0  0  0  0  0  0
  150.9424  141.8494  156.6244 C   0  0  0  0  0  0  0  0  0  0  0  0
  151.3941  142.5818  157.7929 N   0  0  0  0  0  0  0  0  0  0  0  0
  151.1847  143.9263  158.0748 C   0  0  0  0  0  0  0  0  0  0  0  0
  151.7727  144.1679  159.2957 C   0  0  0  0  0  0  0  0  0  0  0  0
  152.3472  142.9950  159.7799 N   0  0  0  0  0  0  0  0  0  0  0  0
  152.0812  142.0995  158.8380 C   0  0  0  0  0  0  0  0  0  0  0  0
  151.5112  137.3902  156.4886 C   0  0  0  0  0  0  0  0  0  0  0  0
  150.0317  137.0063  156.3455 C   0  0  0  0  0  0  0  0  0  0  0  0
  149.3842  136.8752  158.0527 S   0  0  0  0  0  0  0  0  0  0  0  0
  148.2731  137.8258  158.2115 O   0  0  0  0  0  0  0  0  0  0  0  0
  149.2294  135.4589  158.4176 O   0  0  0  0  0  0  0  0  0  0  0  0
  150.8818  137.5470  158.8699 C   0  0  0  0  0  0  0  0  0  0  0  0
  153.6343  137.3226  158.2513 H   0  0  0  0  0  0  0  0  0  0  0  0
  153.3769  138.8553  159.0598 H   0  0  0  0  0  0  0  0  0  0  0  0
  153.7781  138.8225  157.3453 H   0  0  0  0  0  0  0  0  0  0  0  0
  150.4365  139.8884  158.0920 H   0  0  0  0  0  0  0  0  0  0  0  0
  151.1846  142.4231  155.7286 H   0  0  0  0  0  0  0  0  0  0  0  0
  149.8570  141.7466  156.6620 H   0  0  0  0  0  0  0  0  0  0  0  0
  150.6450  144.5800  157.4057 H   0  0  0  0  0  0  0  0  0  0  0  0
  151.8238  145.0876  159.8594 H   0  0  0  0  0  0  0  0  0  0  0  0
  152.3893  141.0666  158.9117 H   0  0  0  0  0  0  0  0  0  0  0  0
  151.8795  137.8946  155.5942 H   0  0  0  0  0  0  0  0  0  0  0  0
  152.0905  136.4705  156.5827 H   0  0  0  0  0  0  0  0  0  0  0  0
  149.4717  137.7881  155.8320 H   0  0  0  0  0  0  0  0  0  0  0  0
  149.8863  136.0662  155.8134 H   0  0  0  0  0  0  0  0  0  0  0  0
  151.4310  136.6997  159.2818 H   0  0  0  0  0  0  0  0  0  0  0  0
  150.5969  138.1906  159.7019 H   0  0  0  0  0  0  0  0  0  0  0  0
  1  2  1  0  0  0  0
  1 18  1  0  0  0  0
  1 19  1  0  0  0  0
  1 20  1  0  0  0  0
  2 17  1  0  0  0  0
  2  3  1  0  0  0  0
  2 12  1  0  0  0  0
  3  4  1  0  0  0  0
  3 21  1  0  0  0  0
  4  5  2  0  0  0  0
  4  6  1  0  0  0  0
  6  7  1  0  0  0  0
  6 22  1  0  0  0  0
  6 23  1  0  0  0  0
  7 11  1  0  0  0  0
  7  8  1  0  0  0  0
  8  9  2  0  0  0  0
  8 24  1  0  0  0  0
  9 10  1  0  0  0  0
  9 25  1  0  0  0  0
 10 11  2  0  0  0  0
 11 26  1  0  0  0  0
 12 13  1  0  0  0  0
 12 27  1  0  0  0  0
 12 28  1  0  0  0  0
 13 14  1  0  0  0  0
 13 29  1  0  0  0  0
 13 30  1  0  0  0  0
 14 15  2  0  0  0  0
 14 16  2  0  0  0  0
 14 17  1  0  0  0  0
 17 31  1  0  0  0  0
 17 32  1  0  0  0  0
M  END
> <s_m_source_file>
AV-unprocessed.smi

> <i_m_source_file_index>
1111

> <i_lp_mmshare_version>
43012

> <i_f3d_flags>
0

> <s_epik_input>
Tz1TKD1PKShbQ0gyXTEpW0NIMl1bQ0gyXVtDQEBdMShbQ0gzXSlbTkhdQyg9TylbQ0gyXW4yW2NIXVtjSF1uW2NIXTI=

> <s_epik_cmdline>
J2VwaWtfcHl0aG9uJywgJy1waCcsICc3LjAnLCAnLXRuJywgJzgnLCAnLW1hJywgJzIwMCcsICctbWV0YWxfYmluZGluZycsICctaW1hZScsICc8aW5maWxlLm1hZT4nLCAnLW9tYWUnLCAnPG91dGZpbGUubWFlPic=

> <r_lp_tautomer_probability>
1

> <r_epik_Ionization_Penalty>
0.246342

> <r_epik_Ionization_Penalty_Charging>
0.246341

> <r_epik_Ionization_Penalty_Neutral>
5.91248e-07

> <r_epik_State_Penalty>
0.237514

> <r_epik_Charging_Adjusted_Penalty>
0.483856

> <i_epik_Tot_Q>
0

> <i_epik_Tot_abs_Q>
0

> <r_epik_Metal_State_Penalty>
0.166715

> <b_epik_Metal_Only>
0

> <s_lp_Force_Field>
OPLS_2005

> <r_lp_Energy>
5.37624

> <b_lp_Chiralities_Consistent>
1

> <s_lp_Variant>
AV-unprocessed.smi:1111-1

> <Gold.Version>
5.8.1

> <Gold.Id.Protein>
6NUR|6NUR_protein|mol2

> <Gold.PLP.Fitness>
35.9983

> <Gold.PLP.PLP>
-27.3067

> <Gold.PLP.part.hbond>
-3.6808

> <Gold.PLP.part.metal>
0.0000

> <Gold.PLP.part.buried>
-3.2539

> <Gold.PLP.part.nonpolar>
-19.8767

> <Gold.PLP.part.repulsive>
0.0496

> <Gold.PLP.ligand.clash>
0.0000

> <Gold.PLP.ligand.torsion>
0.2702

> <Gold.PLP.Chemscore.Hbond>
2.0703

> <Gold.PLP.Chemscore.CHOScore>
1.0000

> <Gold.PLP.Chemscore.Metal>
0.0000

> <Gold.Chemscore.Hbonds>
donor molecule, donor type, donor heavy atom, donor atom, acceptor molecule, acceptor atom, score
      P1  H  6896  6908       L1    16  0.96
      P1  H  7997  8008       L1     5  1.00
      L1  C     8    24       P1  8028  1.00

> <Gold.PLP.Chemscore.Internal.Correction>
0.0211

> <Gold.Rescore>
     Score         DG    S(hbond)    S(metal)    S(lipo)     H(rot)  DE(clash)    DE(int)     intcor
     13.51     -13.84       2.00        0.00      52.18       1.73       0.12       0.21       ----

> <Gold.Chemscore.Fitness>
13.5062

> <Gold.Chemscore.DG>
-13.8380

> <Gold.Chemscore.ZeroCoef>
-5.4800

> <Gold.Chemscore.Hbond>
2.0028

> <Gold.Chemscore.Metal>
0.0000

> <Gold.Chemscore.Lipo>
52.1779

> <Gold.Chemscore.Internal_Hbond>
0.0000

> <Gold.Chemscore.DEClash>
0.1203

> <Gold.Chemscore.DEInternal>
0.2114

> <Gold.Chemscore.Rot>
1.7328

> <Gold.Chemscore.Internal.Correction>
   9.000000E+99

> <Gold.Chemscore.Hbonds>
donor molecule, donor type, donor heavy atom, donor atom, acceptor molecule, acceptor atom, score
      P1  H  6896  6908       L1    16  0.91
      P1  H  7989  7998       L1     5  0.02
      P1  H  7997  8008       L1     5  0.98

> <Gold.Chemscore.Hbond.Weighted>
-6.6892

> <Gold.Chemscore.Metal.Weighted>
-0.0000

> <Gold.Chemscore.Lipo.Weighted>
-6.1048

> <Gold.Chemscore.Internal_Hbond.Weighted>
0.0000

> <Gold.Chemscore.DEClash.Weighted>
0.1203

> <Gold.Chemscore.DEInternal.Weighted>
0.2114

> <Gold.Chemscore.Rot.Weighted>
4.4360

> <Gold.Chemscore.Internal.Correction.Weighted>
   9.000000E+99

> <Gold.Protein.RotatedTorsions>
[ 6907 6896 6895 6894 ] final  158.93 input  -60.11 | X-H torsion
[ 7974 7965 7964 7962 ] final  -18.96 input  175.53 | X-H torsion
[ 8008 7997 7996 7995 ] final  -35.03 input   59.86 | X-H torsion
[ 10167 10162 10161 10158 ] final   90.46 input  -65.29 | X-H torsion
[ 10718 10713 10712 10709 ] final  -32.14 input   66.30 | X-H torsion
[ 10763 10752 10751 10750 ] final  120.69 input  -60.55 | X-H torsion
[ 11005 11000 10999 10996 ] final  115.42 input  -57.11 | X-H torsion

> <Gold.Protein.ActiveResidues>
 VAL166  LYS551  ARG553  GLY616  TRP617  ASP618  TYR619  PRO620  LYS621  CYS622 
 ASP623  PHE694  ASN695  SER759  ASP760  ASP761  ALA762  ILE779  LEU786  VAL792 
 PHE793  MET794  SER795  GLU796  ALA797  LYS798  CYS799  TRP800  GLU811  SER814 

> <Gold.Protein.RotatedAtoms>
  151.9932  133.3798  159.4152 H   0  0  0  0  0  0  0  0  0  0  0  0  # atno 6907 bound_to 6896
  150.6919  134.3914  159.5087 H   0  0  0  0  0  0  0  0  0  0  0  0  # atno 6908 bound_to 6896
  152.1651  134.8880  160.0589 H   0  0  0  0  0  0  0  0  0  0  0  0  # atno 6909 bound_to 6896
  146.1866  140.3995  142.8474 H   0  0  0  0  0  0  0  0  0  0  0  0  # atno 7974 bound_to 7965
  154.4105  140.1668  156.2146 H   0  0  0  0  0  0  0  0  0  0  0  0  # atno 8008 bound_to 7997
  155.9415  140.3407  155.6308 H   0  0  0  0  0  0  0  0  0  0  0  0  # atno 8009 bound_to 7997
  155.6983  140.0742  157.2411 H   0  0  0  0  0  0  0  0  0  0  0  0  # atno 8010 bound_to 7997
  139.8471  144.6612  150.9213 H   0  0  0  0  0  0  0  0  0  0  0  0  # atno 10167 bound_to 10162
  156.3786  130.4352  149.7487 H   0  0  0  0  0  0  0  0  0  0  0  0  # atno 10718 bound_to 10713
  153.6024  135.3445  155.2950 H   0  0  0  0  0  0  0  0  0  0  0  0  # atno 10763 bound_to 10752
  154.8634  135.4230  154.2398 H   0  0  0  0  0  0  0  0  0  0  0  0  # atno 10764 bound_to 10752
  153.3230  135.7039  153.7085 H   0  0  0  0  0  0  0  0  0  0  0  0  # atno 10765 bound_to 10752
  139.9009  134.9583  156.7042 H   0  0  0  0  0  0  0  0  0  0  0  0  # atno 11005 bound_to 11000
  144.8408  140.6854  143.6231 LP  0  0  0  0  0  0  0  0  0  0  0  0  # atno 17320 bound_to 7965
  145.3921  139.1614  143.4223 LP  0  0  0  0  0  0  0  0  0  0  0  0  # atno 17321 bound_to 7965
  140.7792  143.3860  151.1393 LP  0  0  0  0  0  0  0  0  0  0  0  0  # atno 17342 bound_to 10162
  139.7501  143.8791  152.3074 LP  0  0  0  0  0  0  0  0  0  0  0  0  # atno 17343 bound_to 10162
  156.4587  130.7941  151.2962 LP  0  0  0  0  0  0  0  0  0  0  0  0  # atno 17370 bound_to 10713
  157.7490  131.0072  150.3183 LP  0  0  0  0  0  0  0  0  0  0  0  0  # atno 17371 bound_to 10713
  140.7127  133.9209  155.8094 LP  0  0  0  0  0  0  0  0  0  0  0  0  # atno 17394 bound_to 11000
  141.0288  134.0785  157.4038 LP  0  0  0  0  0  0  0  0  0  0  0  0  # atno 17395 bound_to 11000

$$$$
