AV-unprocessed.smi:573|AV-procd|sdf|2967|dock3
  -GOLD-   2262023473D 1   1.00000     0.00000
 Structure written by MMmdl.
 45 47  0  0  0  0  0  0  0  0  2 V2000
  146.5390  140.2666  154.7500 C   0  0  0  0  0  0  0  0  0  0  0  0
  147.6546  140.8588  153.8762 C   0  0  2  0  0  0  0  0  0  0  0  0
  148.4041  139.7940  153.3317 O   0  0  0  0  0  0  0  0  0  0  0  0
  148.6183  141.7668  154.6621 C   0  0  0  0  0  0  0  0  0  0  0  0
  149.4395  141.0265  155.6094 N   0  0  0  0  0  0  0  0  0  0  0  0
  150.1877  141.7122  156.5736 C   0  0  0  0  0  0  0  0  0  0  0  0
  150.3888  143.0563  156.6264 N   0  3  0  0  0  0  0  0  0  0  0  0
  151.2016  143.3365  157.7285 C   0  0  0  0  0  0  0  0  0  0  0  0
  151.6908  144.5469  158.2100 C   0  0  0  0  0  0  0  0  0  0  0  0
  152.5060  144.4888  159.3594 C   0  0  0  0  0  0  0  0  0  0  0  0
  152.8087  143.2619  159.9849 C   0  0  0  0  0  0  0  0  0  0  0  0
  152.3065  142.0399  159.4916 C   0  0  0  0  0  0  0  0  0  0  0  0
  151.4978  142.1027  158.3568 C   0  0  0  0  0  0  0  0  0  0  0  0
  150.8388  141.1190  157.6068 N   0  0  0  0  0  0  0  0  0  0  0  0
  150.9349  139.7041  157.9954 C   0  0  0  0  0  0  0  0  0  0  0  0
  151.4365  138.8156  156.8450 C   0  0  2  0  0  0  0  0  0  0  0  0
  152.2445  139.6191  155.8083 C   0  0  0  0  0  0  0  0  0  0  0  0
  152.6746  138.7194  154.6441 C   0  0  0  0  0  0  0  0  0  0  0  0
  151.4514  137.9975  154.0691 C   0  0  0  0  0  0  0  0  0  0  0  0
  150.6799  137.2789  155.1873 C   0  0  0  0  0  0  0  0  0  0  0  0
  150.3165  138.2095  156.2020 O   0  0  0  0  0  0  0  0  0  0  0  0
  145.9057  141.0503  155.1670 H   0  0  0  0  0  0  0  0  0  0  0  0
  146.9483  139.6927  155.5821 H   0  0  0  0  0  0  0  0  0  0  0  0
  145.8966  139.6024  154.1709 H   0  0  0  0  0  0  0  0  0  0  0  0
  147.2132  141.4090  153.0445 H   0  0  0  0  0  0  0  0  0  0  0  0
  148.5467  139.9641  152.4128 H   0  0  0  0  0  0  0  0  0  0  0  0
  149.2797  142.2924  153.9728 H   0  0  0  0  0  0  0  0  0  0  0  0
  148.0613  142.5383  155.1955 H   0  0  0  0  0  0  0  0  0  0  0  0
  149.3256  140.0253  155.6783 H   0  0  0  0  0  0  0  0  0  0  0  0
  151.4641  145.4882  157.7311 H   0  0  0  0  0  0  0  0  0  0  0  0
  152.9096  145.4037  159.7681 H   0  0  0  0  0  0  0  0  0  0  0  0
  153.4405  143.2571  160.8615 H   0  0  0  0  0  0  0  0  0  0  0  0
  152.5506  141.1060  159.9760 H   0  0  0  0  0  0  0  0  0  0  0  0
  151.5773  139.6163  158.8717 H   0  0  0  0  0  0  0  0  0  0  0  0
  149.9419  139.3827  158.3114 H   0  0  0  0  0  0  0  0  0  0  0  0
  152.0677  138.0303  157.2655 H   0  0  0  0  0  0  0  0  0  0  0  0
  151.6385  140.4419  155.4266 H   0  0  0  0  0  0  0  0  0  0  0  0
  153.1218  140.0677  156.2756 H   0  0  0  0  0  0  0  0  0  0  0  0
  153.1687  139.3075  153.8701 H   0  0  0  0  0  0  0  0  0  0  0  0
  153.4025  137.9869  154.9954 H   0  0  0  0  0  0  0  0  0  0  0  0
  150.7957  138.7192  153.5801 H   0  0  0  0  0  0  0  0  0  0  0  0
  151.7592  137.2845  153.3037 H   0  0  0  0  0  0  0  0  0  0  0  0
  149.7736  136.8262  154.7851 H   0  0  0  0  0  0  0  0  0  0  0  0
  151.2754  136.4715  155.6160 H   0  0  0  0  0  0  0  0  0  0  0  0
  150.0081  143.7204  155.9648 H   0  0  0  0  0  0  0  0  0  0  0  0
  1  2  1  0  0  0  0
  1 22  1  0  0  0  0
  1 23  1  0  0  0  0
  1 24  1  0  0  0  0
  2  3  1  0  0  0  0
  2  4  1  0  0  0  0
  2 25  1  0  0  0  0
  3 26  1  0  0  0  0
  4  5  1  0  0  0  0
  4 27  1  0  0  0  0
  4 28  1  0  0  0  0
  5  6  1  0  0  0  0
  5 29  1  0  0  0  0
  6 14  1  0  0  0  0
  6  7  2  0  0  0  0
  7  8  1  0  0  0  0
  7 45  1  0  0  0  0
  8 13  2  0  0  0  0
  8  9  1  0  0  0  0
  9 10  2  0  0  0  0
  9 30  1  0  0  0  0
 10 11  1  0  0  0  0
 10 31  1  0  0  0  0
 11 12  2  0  0  0  0
 11 32  1  0  0  0  0
 12 13  1  0  0  0  0
 12 33  1  0  0  0  0
 13 14  1  0  0  0  0
 14 15  1  0  0  0  0
 15 16  1  0  0  0  0
 15 34  1  0  0  0  0
 15 35  1  0  0  0  0
 16 21  1  0  0  0  0
 16 17  1  0  0  0  0
 16 36  1  0  0  0  0
 17 18  1  0  0  0  0
 17 37  1  0  0  0  0
 17 38  1  0  0  0  0
 18 19  1  0  0  0  0
 18 39  1  0  0  0  0
 18 40  1  0  0  0  0
 19 20  1  0  0  0  0
 19 41  1  0  0  0  0
 19 42  1  0  0  0  0
 20 21  1  0  0  0  0
 20 43  1  0  0  0  0
 20 44  1  0  0  0  0
M  CHG  1   7   1
M  END
> <s_m_source_file>
AV-unprocessed.smi

> <i_m_source_file_index>
573

> <i_lp_mmshare_version>
43012

> <i_f3d_flags>
0

> <s_epik_input>
W0NIM11bQ0BIXShbT0hdKVtDSDJdW05IXWMobjEpbihjKGMxMilbY0hdW2NIXVtjSF1bY0hdMilbQ0gyXVtDQEBIXTNbQ0gyXVtDSDJdW0NIMl1bQ0gyXU8z

> <s_epik_cmdline>
J2VwaWtfcHl0aG9uJywgJy1waCcsICc3LjAnLCAnLXRuJywgJzgnLCAnLW1hJywgJzIwMCcsICctbWV0YWxfYmluZGluZycsICctaW1hZScsICc8aW5maWxlLm1hZT4nLCAnLW9tYWUnLCAnPG91dGZpbGUubWFlPic=

> <r_epik_Ionization_Penalty>
0.0692245

> <r_epik_Ionization_Penalty_Charging>
0.0692223

> <r_epik_Ionization_Penalty_Neutral>
2.1869e-06

> <r_epik_State_Penalty>
0.0606215

> <r_epik_Charging_Adjusted_Penalty>
0.129844

> <i_epik_Tot_Q>
1

> <i_epik_Tot_abs_Q>
1

> <r_epik_Metal_State_Penalty>
2.77811

> <b_epik_Metal_Only>
0

> <s_lp_Force_Field>
OPLS_2005

> <r_lp_Energy>
19.8097

> <b_lp_Chiralities_Consistent>
1

> <s_lp_Variant>
AV-unprocessed.smi:573-1

> <Gold.Version>
5.8.1

> <Gold.Id.Protein>
6NUR|6NUR_protein|mol2

> <Gold.PLP.Fitness>
52.8088

> <Gold.PLP.PLP>
-46.3579

> <Gold.PLP.part.hbond>
-1.4961

> <Gold.PLP.part.metal>
0.0000

> <Gold.PLP.part.buried>
-5.5908

> <Gold.PLP.part.nonpolar>
-40.1563

> <Gold.PLP.part.repulsive>
0.1665

> <Gold.PLP.ligand.clash>
0.6765

> <Gold.PLP.ligand.torsion>
0.6423

> <Gold.PLP.Chemscore.Hbond>
2.7920

> <Gold.PLP.Chemscore.CHOScore>
0.0000

> <Gold.PLP.Chemscore.Metal>
0.0000

> <Gold.Chemscore.Hbonds>
donor molecule, donor type, donor heavy atom, donor atom, acceptor molecule, acceptor atom, score
      L1  H     3    26       P1  7957  0.98
      L1  H     7    45       P1  8028  1.87

> <Gold.PLP.Chemscore.Internal.Correction>
0.0360

> <Gold.Rescore>
     Score         DG    S(hbond)    S(metal)    S(lipo)     H(rot)  DE(clash)    DE(int)     intcor
     20.45     -21.34       1.92        0.00     126.18       2.07       0.20       0.69       ----

> <Gold.Chemscore.Fitness>
20.4523

> <Gold.Chemscore.DG>
-21.3437

> <Gold.Chemscore.ZeroCoef>
-5.4800

> <Gold.Chemscore.Hbond>
1.9161

> <Gold.Chemscore.Metal>
0.0000

> <Gold.Chemscore.Lipo>
126.1789

> <Gold.Chemscore.Internal_Hbond>
0.0000

> <Gold.Chemscore.DEClash>
0.2035

> <Gold.Chemscore.DEInternal>
0.6879

> <Gold.Chemscore.Rot>
2.0699

> <Gold.Chemscore.Internal.Correction>
   9.000000E+99

> <Gold.Chemscore.Hbonds>
donor molecule, donor type, donor heavy atom, donor atom, acceptor molecule, acceptor atom, score
      L1  H     3    26       P1  7957  0.93
      L1  H     7    45       P1  8028  0.84

> <Gold.Chemscore.Hbond.Weighted>
-6.3998

> <Gold.Chemscore.Metal.Weighted>
-0.0000

> <Gold.Chemscore.Lipo.Weighted>
-14.7629

> <Gold.Chemscore.Internal_Hbond.Weighted>
0.0000

> <Gold.Chemscore.DEClash.Weighted>
0.2035

> <Gold.Chemscore.DEInternal.Weighted>
0.6879

> <Gold.Chemscore.Rot.Weighted>
5.2991

> <Gold.Chemscore.Internal.Correction.Weighted>
   9.000000E+99

> <Gold.Protein.RotatedTorsions>
[ 6907 6896 6895 6894 ] final -149.61 input  -60.11 | X-H torsion
[ 7974 7965 7964 7962 ] final   66.34 input  175.53 | X-H torsion
[ 8008 7997 7996 7995 ] final  138.87 input   59.86 | X-H torsion
[ 10167 10162 10161 10158 ] final -175.06 input  -65.29 | X-H torsion
[ 10718 10713 10712 10709 ] final -157.20 input   66.30 | X-H torsion
[ 10763 10752 10751 10750 ] final  -78.88 input  -60.55 | X-H torsion
[ 11005 11000 10999 10996 ] final   98.75 input  -57.11 | X-H torsion

> <Gold.Protein.ActiveResidues>
 VAL166  LYS551  ARG553  GLY616  TRP617  ASP618  TYR619  PRO620  LYS621  CYS622 
 ASP623  PHE694  ASN695  SER759  ASP760  ASP761  ALA762  ILE779  LEU786  VAL792 
 PHE793  MET794  SER795  GLU796  ALA797  LYS798  CYS799  TRP800  GLU811  SER814 

> <Gold.Protein.RotatedAtoms>
  151.1866  133.4692  159.2594 H   0  0  0  0  0  0  0  0  0  0  0  0  # atno 6907 bound_to 6896
  151.1205  135.0077  159.8546 H   0  0  0  0  0  0  0  0  0  0  0  0  # atno 6908 bound_to 6896
  152.5455  134.1778  159.8676 H   0  0  0  0  0  0  0  0  0  0  0  0  # atno 6909 bound_to 6896
  145.8277  139.3121  143.1006 H   0  0  0  0  0  0  0  0  0  0  0  0  # atno 7974 bound_to 7965
  156.2994  140.2382  156.4144 H   0  0  0  0  0  0  0  0  0  0  0  0  # atno 8008 bound_to 7997
  154.8412  140.0428  157.1563 H   0  0  0  0  0  0  0  0  0  0  0  0  # atno 8009 bound_to 7997
  154.9101  140.2989  155.5275 H   0  0  0  0  0  0  0  0  0  0  0  0  # atno 8010 bound_to 7997
  139.5601  144.1892  152.1224 H   0  0  0  0  0  0  0  0  0  0  0  0  # atno 10167 bound_to 10162
  156.5371  130.8546  151.2736 H   0  0  0  0  0  0  0  0  0  0  0  0  # atno 10718 bound_to 10713
  154.5316  135.5714  153.6763 H   0  0  0  0  0  0  0  0  0  0  0  0  # atno 10763 bound_to 10752
  152.9940  135.6206  154.2621 H   0  0  0  0  0  0  0  0  0  0  0  0  # atno 10764 bound_to 10752
  154.2548  135.2858  155.2781 H   0  0  0  0  0  0  0  0  0  0  0  0  # atno 10765 bound_to 10752
  139.8772  134.9063  156.4502 H   0  0  0  0  0  0  0  0  0  0  0  0  # atno 11005 bound_to 11000
  145.9605  140.8839  143.0213 LP  0  0  0  0  0  0  0  0  0  0  0  0  # atno 17320 bound_to 7965
  144.6742  140.1806  143.7406 LP  0  0  0  0  0  0  0  0  0  0  0  0  # atno 17321 bound_to 7965
  140.1404  144.5208  150.6748 LP  0  0  0  0  0  0  0  0  0  0  0  0  # atno 17342 bound_to 10162
  140.6879  143.2360  151.5210 LP  0  0  0  0  0  0  0  0  0  0  0  0  # atno 17343 bound_to 10162
  157.7412  130.9865  150.2428 LP  0  0  0  0  0  0  0  0  0  0  0  0  # atno 17370 bound_to 10713
  156.3006  130.3758  149.7754 LP  0  0  0  0  0  0  0  0  0  0  0  0  # atno 17371 bound_to 10713
  140.8937  133.7829  155.9601 LP  0  0  0  0  0  0  0  0  0  0  0  0  # atno 17394 bound_to 11000
  140.8726  134.2708  157.5183 LP  0  0  0  0  0  0  0  0  0  0  0  0  # atno 17395 bound_to 11000

$$$$
