AV-unprocessed.smi:72|AV-procd|sdf|756|dock7
  -GOLD-   2262017 93D 1   1.00000     0.00000
 Structure written by MMmdl.
 29 30  0  0  0  0  0  0  0  0  1 V2000
  153.5445  137.4024  156.0625 N   0  0  0  0  0  0  0  0  0  0  0  0
  152.6388  138.4202  155.8493 C   0  0  0  0  0  0  0  0  0  0  0  0
  151.8730  138.3375  154.6792 N   0  0  0  0  0  0  0  0  0  0  0  0
  151.0140  139.2863  154.4793 C   0  0  0  0  0  0  0  0  0  0  0  0
  150.8419  140.3678  155.4376 N   0  0  0  0  0  0  0  0  0  0  0  0
  149.8587  141.5100  155.2263 C   0  0  1  0  0  0  0  0  0  0  0  0
  149.2415  141.3844  153.9776 O   0  0  0  0  0  0  0  0  0  0  0  0
  147.9786  140.7427  154.1269 C   0  0  2  0  0  0  0  0  0  0  0  0
  147.0988  140.9432  152.8807 C   0  0  0  0  0  0  0  0  0  0  0  0
  147.2464  139.8447  152.0063 O   0  0  0  0  0  0  0  0  0  0  0  0
  147.4575  141.3722  155.4222 C   0  0  2  0  0  0  0  0  0  0  0  0
  146.8695  142.6375  155.1621 O   0  0  0  0  0  0  0  0  0  0  0  0
  148.7240  141.4711  156.2752 C   0  0  2  0  0  0  0  0  0  0  0  0
  148.7123  142.6006  157.1279 O   0  0  0  0  0  0  0  0  0  0  0  0
  151.6849  140.4066  156.5836 C   0  0  0  0  0  0  0  0  0  0  0  0
  151.6017  141.3404  157.3811 O   0  0  0  0  0  0  0  0  0  0  0  0
  152.5914  139.3540  156.7548 N   0  0  0  0  0  0  0  0  0  0  0  0
  150.4670  142.4161  155.2464 H   0  0  0  0  0  0  0  0  0  0  0  0
  148.1284  139.6765  154.3073 H   0  0  0  0  0  0  0  0  0  0  0  0
  146.7039  140.7432  155.8973 H   0  0  0  0  0  0  0  0  0  0  0  0
  148.8191  140.5684  156.8806 H   0  0  0  0  0  0  0  0  0  0  0  0
  154.1507  137.3582  156.8687 H   0  0  0  0  0  0  0  0  0  0  0  0
  153.6653  136.6243  155.4309 H   0  0  0  0  0  0  0  0  0  0  0  0
  150.3828  139.3257  153.5917 H   0  0  0  0  0  0  0  0  0  0  0  0
  146.0478  140.9935  153.1667 H   0  0  0  0  0  0  0  0  0  0  0  0
  147.3426  141.8725  152.3648 H   0  0  0  0  0  0  0  0  0  0  0  0
  148.0756  139.9251  151.5605 H   0  0  0  0  0  0  0  0  0  0  0  0
  147.5522  143.2909  155.1813 H   0  0  0  0  0  0  0  0  0  0  0  0
  148.8063  143.3754  156.5945 H   0  0  0  0  0  0  0  0  0  0  0  0
  1  2  1  0  0  0  0
  1 22  1  0  0  0  0
  1 23  1  0  0  0  0
  2 17  2  0  0  0  0
  2  3  1  0  0  0  0
  3  4  2  0  0  0  0
  4  5  1  0  0  0  0
  4 24  1  0  0  0  0
  5  6  1  0  0  0  0
  5 15  1  0  0  0  0
  6 18  1  0  0  0  0
  6 13  1  0  0  0  0
  6  7  1  0  0  0  0
  7  8  1  0  0  0  0
  8 19  1  0  0  0  0
  8  9  1  0  0  0  0
  8 11  1  0  0  0  0
  9 10  1  0  0  0  0
  9 25  1  0  0  0  0
  9 26  1  0  0  0  0
 10 27  1  0  0  0  0
 11 20  1  0  0  0  0
 11 12  1  0  0  0  0
 11 13  1  0  0  0  0
 12 28  1  0  0  0  0
 13 21  1  0  0  0  0
 13 14  1  0  0  0  0
 14 29  1  0  0  0  0
 15 16  2  0  0  0  0
 15 17  1  0  0  0  0
M  END
> <s_m_source_file>
AV-unprocessed.smi

> <i_m_source_file_index>
72

> <i_lp_mmshare_version>
43012

> <i_f3d_flags>
0

> <s_epik_input>
W05IMl1jMW5bY0hdbihjKD1PKW4xKVtDQEBIXTJPW0NASF0oW0NIMl1bT0hdKVtDQEBIXShbT0hdKVtDQEhdMltPSF0=

> <s_epik_cmdline>
J2VwaWtfcHl0aG9uJywgJy1waCcsICc3LjAnLCAnLXRuJywgJzgnLCAnLW1hJywgJzIwMCcsICctbWV0YWxfYmluZGluZycsICctaW1hZScsICc8aW5maWxlLm1hZT4nLCAnLW9tYWUnLCAnPG91dGZpbGUubWFlPic=

> <r_lp_tautomer_probability>
4.77166e-05

> <r_epik_Ionization_Penalty>
1.3546

> <r_epik_Ionization_Penalty_Charging>
1.46833e-10

> <r_epik_Ionization_Penalty_Neutral>
1.3546

> <r_epik_State_Penalty>
3.51908

> <r_epik_Charging_Adjusted_Penalty>
3.51908

> <i_epik_Tot_Q>
0

> <i_epik_Tot_abs_Q>
0

> <r_epik_Metal_State_Penalty>
3.44088

> <b_epik_Metal_Only>
1

> <s_epik_Chemistry_Notes>
This compound contains an acetal/aminal-like group ( X-CH(R)-Y where X, Y are N, S, or O) that may be acid/base labile, releasing an aldehyde.

> <s_lp_Force_Field>
OPLS_2005

> <r_lp_Energy>
31.1202

> <b_lp_Chiralities_Consistent>
1

> <s_lp_Variant>
AV-unprocessed.smi:72-94

> <Gold.Version>
5.8.1

> <Gold.Id.Protein>
6NUR|6NUR_protein|mol2

> <Gold.PLP.Fitness>
39.1364

> <Gold.PLP.PLP>
-23.6019

> <Gold.PLP.part.hbond>
-5.9692

> <Gold.PLP.part.metal>
0.0000

> <Gold.PLP.part.buried>
-1.3053

> <Gold.PLP.part.nonpolar>
-17.6612

> <Gold.PLP.part.repulsive>
2.6645

> <Gold.PLP.ligand.clash>
0.0000

> <Gold.PLP.ligand.torsion>
0.5152

> <Gold.PLP.Chemscore.Hbond>
4.7680

> <Gold.PLP.Chemscore.CHOScore>
0.7445

> <Gold.PLP.Chemscore.Metal>
0.0000

> <Gold.Chemscore.Hbonds>
donor molecule, donor type, donor heavy atom, donor atom, acceptor molecule, acceptor atom, score
      L1  H    10    27       P1  7957  1.00
      L1  H    12    28       P1  8028  1.00
      L1  H    14    29       P1  8028  1.00
      P1  H  7997  8008       L1    17  1.00
      P1  H  8011  8017       L1     7  0.75
      L1  C     4    24       P1  7957  0.73

> <Gold.PLP.Chemscore.Internal.Correction>
0.0275

> <Gold.Rescore>
     Score         DG    S(hbond)    S(metal)    S(lipo)     H(rot)  DE(clash)    DE(int)     intcor
      7.01      -9.44       3.44        0.00      24.38       4.06       1.85       0.58       ----

> <Gold.Chemscore.Fitness>
7.0082

> <Gold.Chemscore.DG>
-9.4427

> <Gold.Chemscore.ZeroCoef>
-5.4800

> <Gold.Chemscore.Hbond>
3.4444

> <Gold.Chemscore.Metal>
0.0000

> <Gold.Chemscore.Lipo>
24.3753

> <Gold.Chemscore.Internal_Hbond>
0.0000

> <Gold.Chemscore.DEClash>
1.8538

> <Gold.Chemscore.DEInternal>
0.5806

> <Gold.Chemscore.Rot>
4.0600

> <Gold.Chemscore.Internal.Correction>
   9.000000E+99

> <Gold.Chemscore.Hbonds>
donor molecule, donor type, donor heavy atom, donor atom, acceptor molecule, acceptor atom, score
      L1  H    10    27       P1  7957  0.95
      L1  H    12    28       P1  8028  0.25
      L1  H    14    29       P1  8028  0.85
      P1  H  7997  8008       L1    17  0.15
      P1  H  8011  8017       L1     7  0.69

> <Gold.Chemscore.Hbond.Weighted>
-11.5044

> <Gold.Chemscore.Metal.Weighted>
-0.0000

> <Gold.Chemscore.Lipo.Weighted>
-2.8519

> <Gold.Chemscore.Internal_Hbond.Weighted>
0.0000

> <Gold.Chemscore.DEClash.Weighted>
1.8538

> <Gold.Chemscore.DEInternal.Weighted>
0.5806

> <Gold.Chemscore.Rot.Weighted>
10.3936

> <Gold.Chemscore.Internal.Correction.Weighted>
   9.000000E+99

> <Gold.Protein.RotatedTorsions>
[ 6907 6896 6895 6894 ] final -113.36 input  -60.11 | X-H torsion
[ 7974 7965 7964 7962 ] final  -46.92 input  175.53 | X-H torsion
[ 8008 7997 7996 7995 ] final  -55.64 input   59.86 | X-H torsion
[ 10167 10162 10161 10158 ] final  163.13 input  -65.29 | X-H torsion
[ 10718 10713 10712 10709 ] final  -64.09 input   66.30 | X-H torsion
[ 10763 10752 10751 10750 ] final  167.26 input  -60.55 | X-H torsion
[ 11005 11000 10999 10996 ] final -119.78 input  -57.11 | X-H torsion

> <Gold.Protein.ActiveResidues>
 VAL166  LYS551  ARG553  GLY616  TRP617  ASP618  TYR619  PRO620  LYS621  CYS622 
 ASP623  PHE694  ASN695  SER759  ASP760  ASP761  ALA762  ILE779  LEU786  VAL792 
 PHE793  MET794  SER795  GLU796  ALA797  LYS798  CYS799  TRP800  GLU811  SER814 

> <Gold.Protein.RotatedAtoms>
  150.7823  133.8956  159.3325 H   0  0  0  0  0  0  0  0  0  0  0  0  # atno 6907 bound_to 6896
  151.6815  135.0959  160.0226 H   0  0  0  0  0  0  0  0  0  0  0  0  # atno 6908 bound_to 6896
  152.3878  133.6598  159.6248 H   0  0  0  0  0  0  0  0  0  0  0  0  # atno 6909 bound_to 6896
  145.9670  140.7422  142.9429 H   0  0  0  0  0  0  0  0  0  0  0  0  # atno 7974 bound_to 7965
  154.4202  140.1148  156.5509 H   0  0  0  0  0  0  0  0  0  0  0  0  # atno 8008 bound_to 7997
  155.6410  140.3496  155.4696 H   0  0  0  0  0  0  0  0  0  0  0  0  # atno 8009 bound_to 7997
  155.9870  140.1172  157.0663 H   0  0  0  0  0  0  0  0  0  0  0  0  # atno 8010 bound_to 7997
  139.4869  144.4368  151.9002 H   0  0  0  0  0  0  0  0  0  0  0  0  # atno 10167 bound_to 10162
  156.0750  130.4229  150.1371 H   0  0  0  0  0  0  0  0  0  0  0  0  # atno 10718 bound_to 10713
  154.3512  135.2753  155.2371 H   0  0  0  0  0  0  0  0  0  0  0  0  # atno 10763 bound_to 10752
  154.4599  135.5910  153.6252 H   0  0  0  0  0  0  0  0  0  0  0  0  # atno 10764 bound_to 10752
  152.9850  135.6062  154.3723 H   0  0  0  0  0  0  0  0  0  0  0  0  # atno 10765 bound_to 10752
  141.0191  134.0151  157.3308 H   0  0  0  0  0  0  0  0  0  0  0  0  # atno 11005 bound_to 11000
  144.6828  140.2685  143.7309 LP  0  0  0  0  0  0  0  0  0  0  0  0  # atno 17320 bound_to 7965
  145.7960  139.1945  143.2075 LP  0  0  0  0  0  0  0  0  0  0  0  0  # atno 17321 bound_to 7965
  140.3818  144.2727  150.5908 LP  0  0  0  0  0  0  0  0  0  0  0  0  # atno 17342 bound_to 10162
  140.5227  143.2262  151.8364 LP  0  0  0  0  0  0  0  0  0  0  0  0  # atno 17343 bound_to 10162
  156.9414  130.9745  151.3515 LP  0  0  0  0  0  0  0  0  0  0  0  0  # atno 17370 bound_to 10713
  157.5841  130.8397  149.8564 LP  0  0  0  0  0  0  0  0  0  0  0  0  # atno 17371 bound_to 10713
  139.9135  135.0194  156.7788 LP  0  0  0  0  0  0  0  0  0  0  0  0  # atno 17394 bound_to 11000
  140.6604  133.9651  155.7801 LP  0  0  0  0  0  0  0  0  0  0  0  0  # atno 17395 bound_to 11000

$$$$
