AV-unprocessed.smi:528|AV-procd|sdf|2838|dock7
  -GOLD-   2262023333D 1   1.00000     0.00000
 Structure written by MMmdl.
 45 47  0  0  0  0  0  0  0  0  1 V2000
  152.1211  138.2511  159.4460 C   0  0  0  0  0  0  0  0  0  0  0  0
  151.0254  138.1995  158.3674 C   0  0  1  0  0  0  0  0  0  0  0  0
  149.7282  137.9691  158.9988 N   0  0  0  0  0  0  0  0  0  0  0  0
  148.9524  136.8896  158.8180 C   0  0  0  0  0  0  0  0  0  0  0  0
  149.2725  135.9393  158.1022 O   0  0  0  0  0  0  0  0  0  0  0  0
  147.6201  136.8910  159.5813 C   0  0  0  0  0  0  0  0  0  0  0  0
  147.4702  135.7548  160.5059 N   0  0  0  0  0  0  0  0  0  0  0  0
  147.4060  134.4683  159.9356 C   0  0  0  0  0  0  0  0  0  0  0  0
  147.2838  133.3458  160.6697 C   0  0  0  0  0  0  0  0  0  0  0  0
  147.1599  131.9765  160.0198 C   0  0  0  0  0  0  0  0  0  0  0  0
  145.9865  131.4120  160.3060 F   0  0  0  0  0  0  0  0  0  0  0  0
  147.2717  132.0616  158.6938 F   0  0  0  0  0  0  0  0  0  0  0  0
  148.1260  131.1752  160.4663 F   0  0  0  0  0  0  0  0  0  0  0  0
  147.1861  133.5218  162.1056 C   0  0  0  0  0  0  0  0  0  0  0  0
  147.2339  134.7460  162.6666 C   0  0  0  0  0  0  0  0  0  0  0  0
  147.3859  135.9561  161.8554 C   0  0  0  0  0  0  0  0  0  0  0  0
  147.4336  137.0800  162.3566 O   0  0  0  0  0  0  0  0  0  0  0  0
  150.9740  139.4987  157.5294 C   0  0  1  0  0  0  0  0  0  0  0  0
  152.2536  139.7997  156.7167 C   0  0  0  0  0  0  0  0  0  0  0  0
  151.7081  140.0931  155.3065 C   0  0  1  0  0  0  0  0  0  0  0  0
  151.2655  138.7708  154.6541 C   0  0  0  0  0  0  0  0  0  0  0  0
  149.9789  138.4276  155.4267 C   0  0  0  0  0  0  0  0  0  0  0  0
  149.8712  139.5832  156.4431 C   0  0  2  0  0  0  0  0  0  0  0  0
  150.3699  140.7581  155.6076 C   0  0  0  0  0  0  0  0  0  0  0  0
  153.1068  138.3967  159.0043 H   0  0  0  0  0  0  0  0  0  0  0  0
  152.1568  137.3225  160.0164 H   0  0  0  0  0  0  0  0  0  0  0  0
  151.9489  139.0664  160.1495 H   0  0  0  0  0  0  0  0  0  0  0  0
  151.2533  137.3652  157.7027 H   0  0  0  0  0  0  0  0  0  0  0  0
  149.3863  138.6979  159.6086 H   0  0  0  0  0  0  0  0  0  0  0  0
  147.5390  137.8361  160.1203 H   0  0  0  0  0  0  0  0  0  0  0  0
  146.7959  136.9004  158.8655 H   0  0  0  0  0  0  0  0  0  0  0  0
  147.4537  134.4524  158.8563 H   0  0  0  0  0  0  0  0  0  0  0  0
  147.0761  132.6572  162.7436 H   0  0  0  0  0  0  0  0  0  0  0  0
  147.1597  134.8392  163.7402 H   0  0  0  0  0  0  0  0  0  0  0  0
  150.8095  140.3295  158.2182 H   0  0  0  0  0  0  0  0  0  0  0  0
  152.7702  140.6686  157.1263 H   0  0  0  0  0  0  0  0  0  0  0  0
  152.9609  138.9693  156.7085 H   0  0  0  0  0  0  0  0  0  0  0  0
  152.3877  140.6796  154.6878 H   0  0  0  0  0  0  0  0  0  0  0  0
  151.0496  138.9119  153.5943 H   0  0  0  0  0  0  0  0  0  0  0  0
  152.0236  137.9916  154.7405 H   0  0  0  0  0  0  0  0  0  0  0  0
  149.1217  138.4346  154.7521 H   0  0  0  0  0  0  0  0  0  0  0  0
  150.0135  137.4429  155.8912 H   0  0  0  0  0  0  0  0  0  0  0  0
  148.8672  139.7135  156.8481 H   0  0  0  0  0  0  0  0  0  0  0  0
  150.4652  141.6864  156.1737 H   0  0  0  0  0  0  0  0  0  0  0  0
  149.7681  140.9431  154.7160 H   0  0  0  0  0  0  0  0  0  0  0  0
  1  2  1  0  0  0  0
  1 25  1  0  0  0  0
  1 26  1  0  0  0  0
  1 27  1  0  0  0  0
  2  3  1  0  0  0  0
  2 18  1  0  0  0  0
  2 28  1  0  0  0  0
  3  4  1  0  0  0  0
  3 29  1  0  0  0  0
  4  5  2  0  0  0  0
  4  6  1  0  0  0  0
  6  7  1  0  0  0  0
  6 30  1  0  0  0  0
  6 31  1  0  0  0  0
  7 16  1  0  0  0  0
  7  8  1  0  0  0  0
  8  9  2  0  0  0  0
  8 32  1  0  0  0  0
  9 10  1  0  0  0  0
  9 14  1  0  0  0  0
 10 11  1  0  0  0  0
 10 12  1  0  0  0  0
 10 13  1  0  0  0  0
 14 15  2  0  0  0  0
 14 33  1  0  0  0  0
 15 16  1  0  0  0  0
 15 34  1  0  0  0  0
 16 17  2  0  0  0  0
 18 23  1  0  0  0  0
 18 19  1  0  0  0  0
 18 35  1  0  0  0  0
 19 20  1  0  0  0  0
 19 36  1  0  0  0  0
 19 37  1  0  0  0  0
 20 24  1  0  0  0  0
 20 21  1  0  0  0  0
 20 38  1  0  0  0  0
 21 22  1  0  0  0  0
 21 39  1  0  0  0  0
 21 40  1  0  0  0  0
 22 23  1  0  0  0  0
 22 41  1  0  0  0  0
 22 42  1  0  0  0  0
 23 24  1  0  0  0  0
 23 43  1  0  0  0  0
 24 44  1  0  0  0  0
 24 45  1  0  0  0  0
M  END
> <s_m_source_file>
AV-unprocessed.smi

> <i_m_source_file_index>
528

> <i_lp_mmshare_version>
43012

> <i_f3d_flags>
0

> <s_epik_input>
W0NIMl0xW0NIMl1bQ0BASF0oW0NIMl0yKVtDQEBIXShbQ0gyXVtDQEhdMTIpW0NASF0oW0NIM10pW05IXUMoPU8pW0NIMl1uM1tjSF1jKEMoRikoRilGKVtjSF1bY0hdYzM9Tw==

> <s_epik_cmdline>
J2VwaWtfcHl0aG9uJywgJy1waCcsICc3LjAnLCAnLXRuJywgJzgnLCAnLW1hJywgJzIwMCcsICctbWV0YWxfYmluZGluZycsICctaW1hZScsICc8aW5maWxlLm1hZT4nLCAnLW9tYWUnLCAnPG91dGZpbGUubWFlPic=

> <r_lp_tautomer_probability>
1

> <r_epik_Ionization_Penalty>
4.09479e-08

> <r_epik_Ionization_Penalty_Charging>
1.9321e-08

> <r_epik_Ionization_Penalty_Neutral>
2.16269e-08

> <r_epik_State_Penalty>
-0

> <r_epik_Charging_Adjusted_Penalty>
1.9321e-08

> <i_epik_Tot_Q>
0

> <i_epik_Tot_abs_Q>
0

> <r_epik_Metal_State_Penalty>
-0

> <b_epik_Metal_Only>
0

> <s_lp_Force_Field>
OPLS_2005

> <r_lp_Energy>
62.533

> <b_lp_Chiralities_Consistent>
1

> <s_lp_Variant>
AV-unprocessed.smi:528-8

> <Gold.Version>
5.8.1

> <Gold.Id.Protein>
6NUR|6NUR_protein|mol2

> <Gold.PLP.Fitness>
50.1457

> <Gold.PLP.PLP>
-44.4711

> <Gold.PLP.part.hbond>
-3.0000

> <Gold.PLP.part.metal>
0.0000

> <Gold.PLP.part.buried>
-2.9350

> <Gold.PLP.part.nonpolar>
-38.8843

> <Gold.PLP.part.repulsive>
0.1773

> <Gold.PLP.ligand.clash>
1.3895

> <Gold.PLP.ligand.torsion>
0.0625

> <Gold.PLP.Chemscore.Hbond>
2.3760

> <Gold.PLP.Chemscore.CHOScore>
0.0000

> <Gold.PLP.Chemscore.Metal>
0.0000

> <Gold.Chemscore.Hbonds>
donor molecule, donor type, donor heavy atom, donor atom, acceptor molecule, acceptor atom, score
      P1  H  6931  6943       L1    17  0.90
      P1  H  6934  6947       L1    17  0.04

> <Gold.PLP.Chemscore.Internal.Correction>
0.0611

> <Gold.Rescore>
     Score         DG    S(hbond)    S(metal)    S(lipo)     H(rot)  DE(clash)    DE(int)     intcor
     18.18     -19.38       2.41        0.00      87.45       1.71       0.50       0.70       ----

> <Gold.Chemscore.Fitness>
18.1801

> <Gold.Chemscore.DG>
-19.3816

> <Gold.Chemscore.ZeroCoef>
-5.4800

> <Gold.Chemscore.Hbond>
2.4115

> <Gold.Chemscore.Metal>
0.0000

> <Gold.Chemscore.Lipo>
87.4466

> <Gold.Chemscore.Internal_Hbond>
0.0000

> <Gold.Chemscore.DEClash>
0.4983

> <Gold.Chemscore.DEInternal>
0.7032

> <Gold.Chemscore.Rot>
1.7125

> <Gold.Chemscore.Internal.Correction>
   9.000000E+99

> <Gold.Chemscore.Hbonds>
donor molecule, donor type, donor heavy atom, donor atom, acceptor molecule, acceptor atom, score
      P1  H  6896  6907       L1     5  0.03
      P1  H  6931  6943       L1    17  0.81
      P1  H  6934  6947       L1    17  0.06

> <Gold.Chemscore.Hbond.Weighted>
-8.0543

> <Gold.Chemscore.Metal.Weighted>
-0.0000

> <Gold.Chemscore.Lipo.Weighted>
-10.2313

> <Gold.Chemscore.Internal_Hbond.Weighted>
0.0000

> <Gold.Chemscore.DEClash.Weighted>
0.4983

> <Gold.Chemscore.DEInternal.Weighted>
0.7032

> <Gold.Chemscore.Rot.Weighted>
4.3840

> <Gold.Chemscore.Internal.Correction.Weighted>
   9.000000E+99

> <Gold.Protein.RotatedTorsions>
[ 6907 6896 6895 6894 ] final  -74.88 input  -60.11 | X-H torsion
[ 7974 7965 7964 7962 ] final   73.49 input  175.53 | X-H torsion
[ 8008 7997 7996 7995 ] final -100.10 input   59.86 | X-H torsion
[ 10167 10162 10161 10158 ] final -156.83 input  -65.29 | X-H torsion
[ 10718 10713 10712 10709 ] final  -44.64 input   66.30 | X-H torsion
[ 10763 10752 10751 10750 ] final   56.88 input  -60.55 | X-H torsion
[ 11005 11000 10999 10996 ] final   11.51 input  -57.11 | X-H torsion

> <Gold.Protein.ActiveResidues>
 VAL166  LYS551  ARG553  GLY616  TRP617  ASP618  TYR619  PRO620  LYS621  CYS622 
 ASP623  PHE694  ASN695  SER759  ASP760  ASP761  ALA762  ILE779  LEU786  VAL792 
 PHE793  MET794  SER795  GLU796  ALA797  LYS798  CYS799  TRP800  GLU811  SER814 

> <Gold.Protein.RotatedAtoms>
  150.7078  134.4803  159.5467 H   0  0  0  0  0  0  0  0  0  0  0  0  # atno 6907 bound_to 6896
  152.2442  134.8195  160.0465 H   0  0  0  0  0  0  0  0  0  0  0  0  # atno 6908 bound_to 6896
  151.8966  133.3493  159.3853 H   0  0  0  0  0  0  0  0  0  0  0  0  # atno 6909 bound_to 6896
  145.7402  139.2718  143.1491 H   0  0  0  0  0  0  0  0  0  0  0  0  # atno 7974 bound_to 7965
  154.8239  140.0443  157.1430 H   0  0  0  0  0  0  0  0  0  0  0  0  # atno 8008 bound_to 7997
  154.9228  140.3029  155.5187 H   0  0  0  0  0  0  0  0  0  0  0  0  # atno 8009 bound_to 7997
  156.2982  140.2337  156.4280 H   0  0  0  0  0  0  0  0  0  0  0  0  # atno 8010 bound_to 7997
  139.6819  143.9567  152.2341 H   0  0  0  0  0  0  0  0  0  0  0  0  # atno 10167 bound_to 10162
  156.2364  130.4176  149.8812 H   0  0  0  0  0  0  0  0  0  0  0  0  # atno 10718 bound_to 10713
  152.9839  135.5661  154.5300 H   0  0  0  0  0  0  0  0  0  0  0  0  # atno 10763 bound_to 10752
  154.4773  135.2787  155.1599 H   0  0  0  0  0  0  0  0  0  0  0  0  # atno 10764 bound_to 10752
  154.3122  135.6286  153.5524 H   0  0  0  0  0  0  0  0  0  0  0  0  # atno 10765 bound_to 10752
  140.5024  134.0732  155.7797 H   0  0  0  0  0  0  0  0  0  0  0  0  # atno 11005 bound_to 11000
  146.0455  140.8122  142.9807 LP  0  0  0  0  0  0  0  0  0  0  0  0  # atno 17320 bound_to 7965
  144.6872  140.2974  143.7268 LP  0  0  0  0  0  0  0  0  0  0  0  0  # atno 17321 bound_to 7965
  139.9359  144.6712  150.8315 LP  0  0  0  0  0  0  0  0  0  0  0  0  # atno 17342 bound_to 10162
  140.7655  143.3277  151.2480 LP  0  0  0  0  0  0  0  0  0  0  0  0  # atno 17343 bound_to 10162
  156.6409  130.8704  151.3513 LP  0  0  0  0  0  0  0  0  0  0  0  0  # atno 17370 bound_to 10713
  157.7156  130.9493  150.1244 LP  0  0  0  0  0  0  0  0  0  0  0  0  # atno 17371 bound_to 10713
  141.1428  133.9107  157.2285 LP  0  0  0  0  0  0  0  0  0  0  0  0  # atno 17394 bound_to 11000
  139.9705  135.0129  156.9500 LP  0  0  0  0  0  0  0  0  0  0  0  0  # atno 17395 bound_to 11000

$$$$
