AV-unprocessed.smi:767|AV-procd|sdf|3660|dock2
  -GOLD-   22720 1 73D 1   1.00000     0.00000
 Structure written by MMmdl.
 47 49  0  0  0  0  0  0  0  0  1 V2000
  144.2565  132.4546  149.7181 C   0  0  0  0  0  0  0  0  0  0  0  0
  145.4466  132.3110  150.6434 C   0  0  0  0  0  0  0  0  0  0  0  0
  145.6554  131.1209  151.3714 C   0  0  0  0  0  0  0  0  0  0  0  0
  146.7760  131.0419  152.2201 C   0  0  0  0  0  0  0  0  0  0  0  0
  147.6404  132.1524  152.3106 C   0  0  0  0  0  0  0  0  0  0  0  0
  148.8437  132.1344  153.2373 C   0  0  0  0  0  0  0  0  0  0  0  0
  148.7201  133.1053  154.4276 C   0  0  0  0  0  0  0  0  0  0  0  0
  148.9940  134.4885  154.0448 N   0  0  0  0  0  0  0  0  0  0  0  0
  149.0321  135.5329  154.8847 C   0  0  0  0  0  0  0  0  0  0  0  0
  148.8076  135.4592  156.0930 O   0  0  0  0  0  0  0  0  0  0  0  0
  149.3597  136.6676  154.2536 N   0  0  0  0  0  0  0  0  0  0  0  0
  149.5322  137.9538  154.9202 C   0  0  1  0  0  0  0  0  0  0  0  0
  150.7660  138.7184  154.4167 C   0  0  2  0  0  0  0  0  0  0  0  0
  151.9224  138.9681  155.3458 C   0  0  0  0  0  0  0  0  0  0  0  0
  151.6247  140.3668  155.8937 C   0  0  0  0  0  0  0  0  0  0  0  0
  150.2239  140.5441  155.6944 O   0  0  0  0  0  0  0  0  0  0  0  0
  149.8916  139.9631  154.4356 C   0  0  2  0  0  0  0  0  0  0  0  0
  148.6200  139.0894  154.3905 C   0  0  0  0  0  0  0  0  0  0  0  0
  148.0197  138.9222  152.9871 C   0  0  0  0  0  0  0  0  0  0  0  0
  147.4766  139.5205  155.3103 C   0  0  0  0  0  0  0  0  0  0  0  0
  147.3439  133.2936  151.5358 C   0  0  0  0  0  0  0  0  0  0  0  0
  146.2737  133.3770  150.7166 N   0  0  0  0  0  0  0  0  0  0  0  0
  143.5032  131.6944  149.9270 H   0  0  0  0  0  0  0  0  0  0  0  0
  144.5716  132.3482  148.6799 H   0  0  0  0  0  0  0  0  0  0  0  0
  143.7902  133.4331  149.8387 H   0  0  0  0  0  0  0  0  0  0  0  0
  144.9727  130.2883  151.2859 H   0  0  0  0  0  0  0  0  0  0  0  0
  146.9593  130.1488  152.7990 H   0  0  0  0  0  0  0  0  0  0  0  0
  148.9937  131.1190  153.6066 H   0  0  0  0  0  0  0  0  0  0  0  0
  149.7338  132.3797  152.6568 H   0  0  0  0  0  0  0  0  0  0  0  0
  147.7084  133.0600  154.8308 H   0  0  0  0  0  0  0  0  0  0  0  0
  149.3820  132.7931  155.2373 H   0  0  0  0  0  0  0  0  0  0  0  0
  149.1950  134.6571  153.0701 H   0  0  0  0  0  0  0  0  0  0  0  0
  149.5277  136.6368  153.2588 H   0  0  0  0  0  0  0  0  0  0  0  0
  149.5173  137.8867  156.0108 H   0  0  0  0  0  0  0  0  0  0  0  0
  151.0483  138.4413  153.3992 H   0  0  0  0  0  0  0  0  0  0  0  0
  151.9422  138.2313  156.1496 H   0  0  0  0  0  0  0  0  0  0  0  0
  152.8854  138.9342  154.8356 H   0  0  0  0  0  0  0  0  0  0  0  0
  151.8968  140.4735  156.9439 H   0  0  0  0  0  0  0  0  0  0  0  0
  152.1619  141.1247  155.3217 H   0  0  0  0  0  0  0  0  0  0  0  0
  150.0490  140.6324  153.5883 H   0  0  0  0  0  0  0  0  0  0  0  0
  147.5889  139.8562  152.6255 H   0  0  0  0  0  0  0  0  0  0  0  0
  147.2285  138.1718  152.9731 H   0  0  0  0  0  0  0  0  0  0  0  0
  148.7711  138.6154  152.2590 H   0  0  0  0  0  0  0  0  0  0  0  0
  147.0562  140.4784  155.0037 H   0  0  0  0  0  0  0  0  0  0  0  0
  147.8096  139.6296  156.3425 H   0  0  0  0  0  0  0  0  0  0  0  0
  146.6684  138.7885  155.3127 H   0  0  0  0  0  0  0  0  0  0  0  0
  147.9770  134.1675  151.5814 H   0  0  0  0  0  0  0  0  0  0  0  0
  1  2  1  0  0  0  0
  1 23  1  0  0  0  0
  1 24  1  0  0  0  0
  1 25  1  0  0  0  0
  2 22  1  0  0  0  0
  2  3  2  0  0  0  0
  3  4  1  0  0  0  0
  3 26  1  0  0  0  0
  4  5  2  0  0  0  0
  4 27  1  0  0  0  0
  5  6  1  0  0  0  0
  5 21  1  0  0  0  0
  6  7  1  0  0  0  0
  6 28  1  0  0  0  0
  6 29  1  0  0  0  0
  7  8  1  0  0  0  0
  7 30  1  0  0  0  0
  7 31  1  0  0  0  0
  8  9  1  0  0  0  0
  8 32  1  0  0  0  0
  9 10  2  0  0  0  0
  9 11  1  0  0  0  0
 11 12  1  0  0  0  0
 11 33  1  0  0  0  0
 12 18  1  0  0  0  0
 12 13  1  0  0  0  0
 12 34  1  0  0  0  0
 13 17  1  0  0  0  0
 13 14  1  0  0  0  0
 13 35  1  0  0  0  0
 14 15  1  0  0  0  0
 14 36  1  0  0  0  0
 14 37  1  0  0  0  0
 15 16  1  0  0  0  0
 15 38  1  0  0  0  0
 15 39  1  0  0  0  0
 16 17  1  0  0  0  0
 17 18  1  0  0  0  0
 17 40  1  0  0  0  0
 18 19  1  0  0  0  0
 18 20  1  0  0  0  0
 19 41  1  0  0  0  0
 19 42  1  0  0  0  0
 19 43  1  0  0  0  0
 20 44  1  0  0  0  0
 20 45  1  0  0  0  0
 20 46  1  0  0  0  0
 21 22  2  0  0  0  0
 21 47  1  0  0  0  0
M  END
> <s_m_source_file>
AV-unprocessed.smi

> <i_m_source_file_index>
767

> <i_lp_mmshare_version>
43012

> <i_f3d_flags>
0

> <s_epik_input>
W0NIM11jMVtjSF1bY0hdYyhbY0hdbjEpW0NIMl1bQ0gyXVtOSF1DKD1PKVtOSF1bQ0BIXTJDKFtDSDNdKShbQ0gzXSlbQ0BIXShbQ0BASF0yMylPW0NIMl1bQ0gyXTM=

> <s_epik_cmdline>
J2VwaWtfcHl0aG9uJywgJy1waCcsICc3LjAnLCAnLXRuJywgJzgnLCAnLW1hJywgJzIwMCcsICctbWV0YWxfYmluZGluZycsICctaW1hZScsICc8aW5maWxlLm1hZT4nLCAnLW9tYWUnLCAnPG91dGZpbGUubWFlPic=

> <r_epik_Ionization_Penalty>
0.0567523

> <r_epik_Ionization_Penalty_Charging>
0

> <r_epik_Ionization_Penalty_Neutral>
0.0567523

> <r_epik_State_Penalty>
0.0489186

> <r_epik_Charging_Adjusted_Penalty>
0.0489186

> <i_epik_Tot_Q>
0

> <i_epik_Tot_abs_Q>
0

> <r_epik_Metal_State_Penalty>
0.044622

> <b_epik_Metal_Only>
0

> <s_lp_Force_Field>
OPLS_2005

> <r_lp_Energy>
33.1778

> <b_lp_Chiralities_Consistent>
1

> <s_lp_Variant>
AV-unprocessed.smi:767-4

> <Gold.Version>
5.8.1

> <Gold.Id.Protein>
6NUR|6NUR_protein|mol2

> <Gold.PLP.Fitness>
46.2809

> <Gold.PLP.PLP>
-37.7246

> <Gold.PLP.part.hbond>
-2.0000

> <Gold.PLP.part.metal>
0.0000

> <Gold.PLP.part.buried>
-2.7265

> <Gold.PLP.part.nonpolar>
-32.9270

> <Gold.PLP.part.repulsive>
0.2521

> <Gold.PLP.ligand.clash>
0.0000

> <Gold.PLP.ligand.torsion>
0.2578

> <Gold.PLP.Chemscore.Hbond>
1.9600

> <Gold.PLP.Chemscore.CHOScore>
1.0000

> <Gold.PLP.Chemscore.Metal>
0.0000

> <Gold.Chemscore.Hbonds>
donor molecule, donor type, donor heavy atom, donor atom, acceptor molecule, acceptor atom, score
      L1  H     8    32       P1  7948  0.28
      L1  H    11    33       P1  7948  0.96
      L1  C    21    47       P1  7948  0.41

> <Gold.PLP.Chemscore.Internal.Correction>
0.1919

> <Gold.Rescore>
     Score         DG    S(hbond)    S(metal)    S(lipo)     H(rot)  DE(clash)    DE(int)     intcor
     17.91     -18.26       1.38        0.00     101.53       1.45       0.06       0.28       ----

> <Gold.Chemscore.Fitness>
17.9097

> <Gold.Chemscore.DG>
-18.2581

> <Gold.Chemscore.ZeroCoef>
-5.4800

> <Gold.Chemscore.Hbond>
1.3803

> <Gold.Chemscore.Metal>
0.0000

> <Gold.Chemscore.Lipo>
101.5306

> <Gold.Chemscore.Internal_Hbond>
0.0000

> <Gold.Chemscore.DEClash>
0.0638

> <Gold.Chemscore.DEInternal>
0.2847

> <Gold.Chemscore.Rot>
1.4497

> <Gold.Chemscore.Internal.Correction>
   9.000000E+99

> <Gold.Chemscore.Hbonds>
donor molecule, donor type, donor heavy atom, donor atom, acceptor molecule, acceptor atom, score
      L1  H     8    32       P1  7948  0.01
      L1  H    11    33       P1  7948  0.56

> <Gold.Chemscore.Hbond.Weighted>
-4.6103

> <Gold.Chemscore.Metal.Weighted>
-0.0000

> <Gold.Chemscore.Lipo.Weighted>
-11.8791

> <Gold.Chemscore.Internal_Hbond.Weighted>
0.0000

> <Gold.Chemscore.DEClash.Weighted>
0.0638

> <Gold.Chemscore.DEInternal.Weighted>
0.2847

> <Gold.Chemscore.Rot.Weighted>
3.7112

> <Gold.Chemscore.Internal.Correction.Weighted>
   9.000000E+99

> <Gold.Protein.RotatedTorsions>
[ 6907 6896 6895 6894 ] final -175.43 input  -60.11 | X-H torsion
[ 7974 7965 7964 7962 ] final   28.54 input  175.53 | X-H torsion
[ 8008 7997 7996 7995 ] final  -80.83 input   59.86 | X-H torsion
[ 10167 10162 10161 10158 ] final   -9.05 input  -65.29 | X-H torsion
[ 10718 10713 10712 10709 ] final   41.19 input   66.30 | X-H torsion
[ 10763 10752 10751 10750 ] final  176.70 input  -60.55 | X-H torsion
[ 11005 11000 10999 10996 ] final  -51.46 input  -57.11 | X-H torsion

> <Gold.Protein.ActiveResidues>
 VAL166  LYS551  ARG553  GLY616  TRP617  ASP618  TYR619  PRO620  LYS621  CYS622 
 ASP623  PHE694  ASN695  SER759  ASP760  ASP761  ALA762  ILE779  LEU786  VAL792 
 PHE793  MET794  SER795  GLU796  ALA797  LYS798  CYS799  TRP800  GLU811  SER814 

> <Gold.Protein.RotatedAtoms>
  151.5885  133.3369  159.3022 H   0  0  0  0  0  0  0  0  0  0  0  0  # atno 6907 bound_to 6896
  150.8273  134.7514  159.6835 H   0  0  0  0  0  0  0  0  0  0  0  0  # atno 6908 bound_to 6896
  152.4361  134.5689  159.9967 H   0  0  0  0  0  0  0  0  0  0  0  0  # atno 6909 bound_to 6896
  146.1723  139.7043  142.8959 H   0  0  0  0  0  0  0  0  0  0  0  0  # atno 7974 bound_to 7965
  154.5922  140.0657  156.9255 H   0  0  0  0  0  0  0  0  0  0  0  0  # atno 8008 bound_to 7997
  155.2275  140.3335  155.4289 H   0  0  0  0  0  0  0  0  0  0  0  0  # atno 8009 bound_to 7997
  156.2264  140.1821  156.7337 H   0  0  0  0  0  0  0  0  0  0  0  0  # atno 8010 bound_to 7997
  140.7076  143.5901  150.8902 H   0  0  0  0  0  0  0  0  0  0  0  0  # atno 10167 bound_to 10162
  157.3907  130.7805  149.7267 H   0  0  0  0  0  0  0  0  0  0  0  0  # atno 10718 bound_to 10713
  154.4847  135.2776  155.1543 H   0  0  0  0  0  0  0  0  0  0  0  0  # atno 10763 bound_to 10752
  154.3239  135.6204  153.5524 H   0  0  0  0  0  0  0  0  0  0  0  0  # atno 10764 bound_to 10752
  152.9880  135.5749  154.5255 H   0  0  0  0  0  0  0  0  0  0  0  0  # atno 10765 bound_to 10752
  141.0872  133.6640  156.3881 H   0  0  0  0  0  0  0  0  0  0  0  0  # atno 11005 bound_to 11000
  145.4306  141.0415  143.2913 LP  0  0  0  0  0  0  0  0  0  0  0  0  # atno 17320 bound_to 7965
  144.8182  139.5838  143.6999 LP  0  0  0  0  0  0  0  0  0  0  0  0  # atno 17321 bound_to 7965
  139.9626  143.6146  152.2997 LP  0  0  0  0  0  0  0  0  0  0  0  0  # atno 17342 bound_to 10162
  139.6704  144.7661  151.1793 LP  0  0  0  0  0  0  0  0  0  0  0  0  # atno 17343 bound_to 10162
  155.9798  130.4036  150.3568 LP  0  0  0  0  0  0  0  0  0  0  0  0  # atno 17370 bound_to 10713
  157.1684  131.0362  151.2807 LP  0  0  0  0  0  0  0  0  0  0  0  0  # atno 17371 bound_to 10713
  140.5335  134.6189  157.5357 LP  0  0  0  0  0  0  0  0  0  0  0  0  # atno 17394 bound_to 11000
  139.9692  134.7321  156.0075 LP  0  0  0  0  0  0  0  0  0  0  0  0  # atno 17395 bound_to 11000

$$$$
