AV-unprocessed.smi:532|AV-procd|sdf|2849|dock4
  -GOLD-   2262023343D 1   1.00000     0.00000
 Structure written by MMmdl.
 49 51  0  0  0  0  0  0  0  0  1 V2000
  147.6874  141.3082  153.6850 C   0  0  0  0  0  0  0  0  0  0  0  0
  148.9950  141.6827  154.0804 O   0  0  0  0  0  0  0  0  0  0  0  0
  149.2328  141.4471  155.4573 C   0  0  0  0  0  0  0  0  0  0  0  0
  150.6187  141.9926  155.8189 C   0  0  0  0  0  0  0  0  0  0  0  0
  151.2630  141.1747  156.8390 N   0  0  0  0  0  0  0  0  0  0  0  0
  151.6345  141.5180  158.1038 C   0  0  0  0  0  0  0  0  0  0  0  0
  151.4005  142.7851  158.6473 N   0  0  0  0  0  0  0  0  0  0  0  0
  150.0803  143.4139  158.5830 C   0  0  0  0  0  0  0  0  0  0  0  0
  149.7360  144.2032  159.8590 C   0  0  2  0  0  0  0  0  0  0  0  0
  148.3264  144.8048  159.7800 C   0  0  0  0  0  0  0  0  0  0  0  0
  150.7966  145.2893  160.0968 C   0  0  0  0  0  0  0  0  0  0  0  0
  152.2115  144.6880  160.0956 C   0  0  1  0  0  0  0  0  0  0  0  0
  152.5385  143.9584  161.4090 C   0  0  0  0  0  0  0  0  0  0  0  0
  152.4252  143.8183  158.8343 C   0  0  0  0  0  0  0  0  0  0  0  0
  152.2734  140.5515  158.7711 N   0  0  0  0  0  0  0  0  0  0  0  0
  152.2970  139.5012  157.8678 C   0  0  0  0  0  0  0  0  0  0  0  0
  151.7061  139.8579  156.6999 C   0  0  0  0  0  0  0  0  0  0  0  0
  151.6294  138.9486  155.5477 C   0  0  0  0  0  0  0  0  0  0  0  0
  151.1174  139.2546  154.4733 O   0  0  0  0  0  0  0  0  0  0  0  0
  152.1906  137.7385  155.7870 N   0  0  0  0  0  0  0  0  0  0  0  0
  152.7942  137.3147  156.9391 C   0  0  0  0  0  0  0  0  0  0  0  0
  153.2672  136.1802  157.0044 O   0  0  0  0  0  0  0  0  0  0  0  0
  152.8482  138.1938  157.9904 N   0  0  0  0  0  0  0  0  0  0  0  0
  153.4845  137.7952  159.2472 C   0  0  0  0  0  0  0  0  0  0  0  0
  152.1651  137.0754  155.0263 H   0  0  0  0  0  0  0  0  0  0  0  0
  147.5530  141.5136  152.6231 H   0  0  0  0  0  0  0  0  0  0  0  0
  146.9321  141.8708  154.2353 H   0  0  0  0  0  0  0  0  0  0  0  0
  147.5175  140.2427  153.8455 H   0  0  0  0  0  0  0  0  0  0  0  0
  148.4650  141.9344  156.0602 H   0  0  0  0  0  0  0  0  0  0  0  0
  149.1854  140.3771  155.6669 H   0  0  0  0  0  0  0  0  0  0  0  0
  151.2430  142.0393  154.9346 H   0  0  0  0  0  0  0  0  0  0  0  0
  150.5494  143.0222  156.1664 H   0  0  0  0  0  0  0  0  0  0  0  0
  150.0386  144.0662  157.7094 H   0  0  0  0  0  0  0  0  0  0  0  0
  149.3259  142.6418  158.4271 H   0  0  0  0  0  0  0  0  0  0  0  0
  149.7473  143.5107  160.7015 H   0  0  0  0  0  0  0  0  0  0  0  0
  148.2399  145.5050  158.9486 H   0  0  0  0  0  0  0  0  0  0  0  0
  148.0772  145.3416  160.6956 H   0  0  0  0  0  0  0  0  0  0  0  0
  147.5754  144.0269  159.6396 H   0  0  0  0  0  0  0  0  0  0  0  0
  150.7282  146.0367  159.3049 H   0  0  0  0  0  0  0  0  0  0  0  0
  150.6054  145.8170  161.0319 H   0  0  0  0  0  0  0  0  0  0  0  0
  152.9133  145.5204  160.0332 H   0  0  0  0  0  0  0  0  0  0  0  0
  151.9051  143.0853  161.5575 H   0  0  0  0  0  0  0  0  0  0  0  0
  152.3963  144.6161  162.2667 H   0  0  0  0  0  0  0  0  0  0  0  0
  153.5765  143.6269  161.4265 H   0  0  0  0  0  0  0  0  0  0  0  0
  153.4224  143.3806  158.8336 H   0  0  0  0  0  0  0  0  0  0  0  0
  152.4011  144.4637  157.9552 H   0  0  0  0  0  0  0  0  0  0  0  0
  153.0586  136.8622  159.6187 H   0  0  0  0  0  0  0  0  0  0  0  0
  153.3607  138.5398  160.0333 H   0  0  0  0  0  0  0  0  0  0  0  0
  154.5549  137.6469  159.0997 H   0  0  0  0  0  0  0  0  0  0  0  0
  1  2  1  0  0  0  0
  1 26  1  0  0  0  0
  1 27  1  0  0  0  0
  1 28  1  0  0  0  0
  2  3  1  0  0  0  0
  3  4  1  0  0  0  0
  3 29  1  0  0  0  0
  3 30  1  0  0  0  0
  4  5  1  0  0  0  0
  4 31  1  0  0  0  0
  4 32  1  0  0  0  0
  5 17  1  0  0  0  0
  5  6  1  0  0  0  0
  6  7  1  0  0  0  0
  6 15  2  0  0  0  0
  7 14  1  0  0  0  0
  7  8  1  0  0  0  0
  8  9  1  0  0  0  0
  8 33  1  0  0  0  0
  8 34  1  0  0  0  0
  9 10  1  0  0  0  0
  9 11  1  0  0  0  0
  9 35  1  0  0  0  0
 10 36  1  0  0  0  0
 10 37  1  0  0  0  0
 10 38  1  0  0  0  0
 11 12  1  0  0  0  0
 11 39  1  0  0  0  0
 11 40  1  0  0  0  0
 12 13  1  0  0  0  0
 12 14  1  0  0  0  0
 12 41  1  0  0  0  0
 13 42  1  0  0  0  0
 13 43  1  0  0  0  0
 13 44  1  0  0  0  0
 14 45  1  0  0  0  0
 14 46  1  0  0  0  0
 15 16  1  0  0  0  0
 16 23  1  0  0  0  0
 16 17  2  0  0  0  0
 17 18  1  0  0  0  0
 18 19  2  0  0  0  0
 18 20  1  0  0  0  0
 20 25  1  0  0  0  0
 20 21  1  0  0  0  0
 21 22  2  0  0  0  0
 21 23  1  0  0  0  0
 23 24  1  0  0  0  0
 24 47  1  0  0  0  0
 24 48  1  0  0  0  0
 24 49  1  0  0  0  0
M  END
> <s_m_source_file>
AV-unprocessed.smi

> <i_m_source_file_index>
532

> <i_lp_mmshare_version>
43012

> <i_f3d_flags>
0

> <s_epik_input>
W0NIM11uMWMoPU8pW25IXWMoPU8pYyhjMTIpbihbQ0gyXVtDSDJdT1tDSDNdKWMobjIpTjNbQ0gyXVtDQEBIXShbQ0gzXSlbQ0gyXVtDQEBIXShbQ0gzXSlbQ0gyXTM=

> <s_epik_cmdline>
J2VwaWtfcHl0aG9uJywgJy1waCcsICc3LjAnLCAnLXRuJywgJzgnLCAnLW1hJywgJzIwMCcsICctbWV0YWxfYmluZGluZycsICctaW1hZScsICc8aW5maWxlLm1hZT4nLCAnLW9tYWUnLCAnPG91dGZpbGUubWFlPic=

> <r_lp_tautomer_probability>
1

> <r_epik_Ionization_Penalty>
0.000642525

> <r_epik_Ionization_Penalty_Charging>
0.000121571

> <r_epik_Ionization_Penalty_Neutral>
0.000520954

> <r_epik_State_Penalty>
-0

> <r_epik_Charging_Adjusted_Penalty>
0.000121571

> <i_epik_Tot_Q>
0

> <i_epik_Tot_abs_Q>
0

> <r_epik_Metal_State_Penalty>
0.0931709

> <b_epik_Metal_Only>
0

> <s_lp_Force_Field>
OPLS_2005

> <r_lp_Energy>
41.4845

> <b_lp_Chiralities_Consistent>
1

> <s_lp_Variant>
AV-unprocessed.smi:532-2

> <Gold.Version>
5.8.1

> <Gold.Id.Protein>
6NUR|6NUR_protein|mol2

> <Gold.PLP.Fitness>
47.4164

> <Gold.PLP.PLP>
-42.0567

> <Gold.PLP.part.hbond>
-3.4508

> <Gold.PLP.part.metal>
0.0000

> <Gold.PLP.part.buried>
-4.9506

> <Gold.PLP.part.nonpolar>
-33.7890

> <Gold.PLP.part.repulsive>
0.4597

> <Gold.PLP.ligand.clash>
0.0000

> <Gold.PLP.ligand.torsion>
1.3819

> <Gold.PLP.Chemscore.Hbond>
2.5760

> <Gold.PLP.Chemscore.CHOScore>
0.0000

> <Gold.PLP.Chemscore.Metal>
0.0000

> <Gold.Chemscore.Hbonds>
donor molecule, donor type, donor heavy atom, donor atom, acceptor molecule, acceptor atom, score
      P1  H  7989  7998       L1    19  1.00
      P1  H  8011  8017       L1     2  0.54
      P1  H 10752 10764       L1    22  1.00

> <Gold.PLP.Chemscore.Internal.Correction>
0.3956

> <Gold.Rescore>
     Score         DG    S(hbond)    S(metal)    S(lipo)     H(rot)  DE(clash)    DE(int)     intcor
     17.91     -20.03       2.07        0.00      96.56       1.43       0.70       1.42       ----

> <Gold.Chemscore.Fitness>
17.9126

> <Gold.Chemscore.DG>
-20.0290

> <Gold.Chemscore.ZeroCoef>
-5.4800

> <Gold.Chemscore.Hbond>
2.0712

> <Gold.Chemscore.Metal>
0.0000

> <Gold.Chemscore.Lipo>
96.5642

> <Gold.Chemscore.Internal_Hbond>
0.0000

> <Gold.Chemscore.DEClash>
0.6994

> <Gold.Chemscore.DEInternal>
1.4170

> <Gold.Chemscore.Rot>
1.4324

> <Gold.Chemscore.Internal.Correction>
   9.000000E+99

> <Gold.Chemscore.Hbonds>
donor molecule, donor type, donor heavy atom, donor atom, acceptor molecule, acceptor atom, score
      P1  H  7989  7998       L1    19  0.98
      P1  H  8011  8017       L1     2  0.21
      P1  H 10752 10764       L1    22  0.85

> <Gold.Chemscore.Hbond.Weighted>
-6.9178

> <Gold.Chemscore.Metal.Weighted>
-0.0000

> <Gold.Chemscore.Lipo.Weighted>
-11.2980

> <Gold.Chemscore.Internal_Hbond.Weighted>
0.0000

> <Gold.Chemscore.DEClash.Weighted>
0.6994

> <Gold.Chemscore.DEInternal.Weighted>
1.4170

> <Gold.Chemscore.Rot.Weighted>
3.6669

> <Gold.Chemscore.Internal.Correction.Weighted>
   9.000000E+99

> <Gold.Protein.RotatedTorsions>
[ 6907 6896 6895 6894 ] final -156.55 input  -60.11 | X-H torsion
[ 7974 7965 7964 7962 ] final -106.58 input  175.53 | X-H torsion
[ 8008 7997 7996 7995 ] final   91.18 input   59.86 | X-H torsion
[ 10167 10162 10161 10158 ] final -138.66 input  -65.29 | X-H torsion
[ 10718 10713 10712 10709 ] final -124.44 input   66.30 | X-H torsion
[ 10763 10752 10751 10750 ] final   -2.93 input  -60.55 | X-H torsion
[ 11005 11000 10999 10996 ] final   71.06 input  -57.11 | X-H torsion

> <Gold.Protein.ActiveResidues>
 VAL166  LYS551  ARG553  GLY616  TRP617  ASP618  TYR619  PRO620  LYS621  CYS622 
 ASP623  PHE694  ASN695  SER759  ASP760  ASP761  ALA762  ILE779  LEU786  VAL792 
 PHE793  MET794  SER795  GLU796  ALA797  LYS798  CYS799  TRP800  GLU811  SER814 

> <Gold.Protein.RotatedAtoms>
  151.2894  133.4172  159.2631 H   0  0  0  0  0  0  0  0  0  0  0  0  # atno 6907 bound_to 6896
  151.0291  134.9526  159.8111 H   0  0  0  0  0  0  0  0  0  0  0  0  # atno 6908 bound_to 6896
  152.5341  134.2855  159.9076 H   0  0  0  0  0  0  0  0  0  0  0  0  # atno 6909 bound_to 6896
  145.2160  140.9115  143.3287 H   0  0  0  0  0  0  0  0  0  0  0  0  # atno 7974 bound_to 7965
  156.0207  140.3340  155.7036 H   0  0  0  0  0  0  0  0  0  0  0  0  # atno 8008 bound_to 7997
  155.6026  140.0657  157.2746 H   0  0  0  0  0  0  0  0  0  0  0  0  # atno 8009 bound_to 7997
  154.4315  140.1807  156.1176 H   0  0  0  0  0  0  0  0  0  0  0  0  # atno 8010 bound_to 7997
  139.8456  143.7265  152.2661 H   0  0  0  0  0  0  0  0  0  0  0  0  # atno 10167 bound_to 10162
  156.1588  130.6587  151.0020 H   0  0  0  0  0  0  0  0  0  0  0  0  # atno 10718 bound_to 10713
  153.3646  135.6992  153.6685 H   0  0  0  0  0  0  0  0  0  0  0  0  # atno 10763 bound_to 10752
  153.5360  135.3582  155.2698 H   0  0  0  0  0  0  0  0  0  0  0  0  # atno 10764 bound_to 10752
  154.8673  135.4192  154.2910 H   0  0  0  0  0  0  0  0  0  0  0  0  # atno 10765 bound_to 10752
  139.9564  134.7137  156.0744 H   0  0  0  0  0  0  0  0  0  0  0  0  # atno 11005 bound_to 11000
  144.9810  139.3783  143.6262 LP  0  0  0  0  0  0  0  0  0  0  0  0  # atno 17320 bound_to 7965
  146.3387  139.8951  142.8803 LP  0  0  0  0  0  0  0  0  0  0  0  0  # atno 17321 bound_to 7965
  139.7516  144.7532  151.0498 LP  0  0  0  0  0  0  0  0  0  0  0  0  # atno 17342 bound_to 10162
  140.7793  143.4854  150.9963 LP  0  0  0  0  0  0  0  0  0  0  0  0  # atno 17343 bound_to 10162
  157.6716  131.0860  150.7598 LP  0  0  0  0  0  0  0  0  0  0  0  0  # atno 17370 bound_to 10713
  156.7662  130.4814  149.5427 LP  0  0  0  0  0  0  0  0  0  0  0  0  # atno 17371 bound_to 10713
  141.1236  133.6606  156.3277 LP  0  0  0  0  0  0  0  0  0  0  0  0  # atno 17394 bound_to 11000
  140.5600  134.5943  157.5431 LP  0  0  0  0  0  0  0  0  0  0  0  0  # atno 17395 bound_to 11000

$$$$
