AV-unprocessed.smi:274|AV-procd|sdf|2060|dock8
  -GOLD-   2262021303D 1   1.00000     0.00000
 Structure written by MMmdl.
 50 53  0  0  0  0  0  0  0  0  1 V2000
  151.7932  141.6495  157.5128 C   0  0  0  0  0  0  0  0  0  0  0  0
  150.3645  141.8149  156.9569 C   0  0  0  0  0  0  0  0  0  0  0  0
  149.4867  142.4932  158.0284 C   0  0  0  0  0  0  0  0  0  0  0  0
  149.7375  140.4789  156.4463 C   0  0  2  0  0  0  0  0  0  0  0  0
  150.0801  140.1866  154.9632 C   0  0  0  0  0  0  0  0  0  0  0  0
  151.1953  139.7658  154.6626 O   0  0  0  0  0  0  0  0  0  0  0  0
  149.1332  140.3676  154.0247 N   0  0  0  0  0  0  0  0  0  0  0  0
  147.7500  140.7815  154.2618 C   0  0  0  0  0  0  0  0  0  0  0  0
  147.4987  141.2798  155.6962 C   0  0  0  0  0  0  0  0  0  0  0  0
  148.2793  140.4994  156.6535 N   0  0  0  0  0  0  0  0  0  0  0  0
  147.6608  139.3760  157.1017 C   0  0  0  0  0  0  0  0  0  0  0  0
  146.4049  139.0698  156.6798 N   0  0  0  0  0  0  0  0  0  0  0  0
  145.7874  137.9770  157.1374 C   0  0  0  0  0  0  0  0  0  0  0  0
  146.2328  137.0705  158.0093 N   0  0  0  0  0  0  0  0  0  0  0  0
  147.4927  137.3717  158.4362 C   0  0  0  0  0  0  0  0  0  0  0  0
  148.2733  138.4909  158.0318 C   0  0  0  0  0  0  0  0  0  0  0  0
  149.5128  138.4561  158.6589 N   0  0  0  0  0  0  0  0  0  0  0  0
  149.4649  137.3809  159.3969 C   0  0  0  0  0  0  0  0  0  0  0  0
  148.2820  136.6784  159.3380 N   0  0  0  0  0  0  0  0  0  0  0  0
  147.9544  135.4550  160.0552 C   0  0  0  0  0  0  0  0  0  0  0  0
  147.5025  135.6786  161.5217 C   0  0  2  0  0  0  0  0  0  0  0  0
  148.3742  136.6027  162.1466 O   0  0  0  0  0  0  0  0  0  0  0  0
  147.4432  134.4002  162.3616 C   0  0  0  0  0  0  0  0  0  0  0  0
  145.9651  134.0394  162.3336 C   0  0  0  0  0  0  0  0  0  0  0  0
  145.3435  135.3075  162.4331 O   0  0  0  0  0  0  0  0  0  0  0  0
  146.0549  136.2074  161.5924 C   0  0  0  0  0  0  0  0  0  0  0  0
  151.8257  140.9000  158.3040 H   0  0  0  0  0  0  0  0  0  0  0  0
  152.1623  142.5864  157.9307 H   0  0  0  0  0  0  0  0  0  0  0  0
  152.5029  141.3558  156.7401 H   0  0  0  0  0  0  0  0  0  0  0  0
  150.4364  142.5082  156.1182 H   0  0  0  0  0  0  0  0  0  0  0  0
  149.3343  141.8372  158.8859 H   0  0  0  0  0  0  0  0  0  0  0  0
  148.5056  142.7682  157.6405 H   0  0  0  0  0  0  0  0  0  0  0  0
  149.9485  143.4115  158.3921 H   0  0  0  0  0  0  0  0  0  0  0  0
  150.1786  139.6788  157.0436 H   0  0  0  0  0  0  0  0  0  0  0  0
  149.3849  140.1653  153.0680 H   0  0  0  0  0  0  0  0  0  0  0  0
  147.4637  141.5428  153.5363 H   0  0  0  0  0  0  0  0  0  0  0  0
  147.1197  139.9128  154.0685 H   0  0  0  0  0  0  0  0  0  0  0  0
  147.7967  142.3248  155.7788 H   0  0  0  0  0  0  0  0  0  0  0  0
  146.4306  141.2627  155.9146 H   0  0  0  0  0  0  0  0  0  0  0  0
  144.7934  137.8059  156.7515 H   0  0  0  0  0  0  0  0  0  0  0  0
  150.2969  137.0714  160.0128 H   0  0  0  0  0  0  0  0  0  0  0  0
  147.1710  134.9379  159.4991 H   0  0  0  0  0  0  0  0  0  0  0  0
  148.8274  134.8016  160.0270 H   0  0  0  0  0  0  0  0  0  0  0  0
  149.0800  136.1219  162.5513 H   0  0  0  0  0  0  0  0  0  0  0  0
  148.0764  133.5910  162.0023 H   0  0  0  0  0  0  0  0  0  0  0  0
  147.7320  134.6019  163.3945 H   0  0  0  0  0  0  0  0  0  0  0  0
  145.6927  133.5641  161.3898 H   0  0  0  0  0  0  0  0  0  0  0  0
  145.6744  133.3812  163.1525 H   0  0  0  0  0  0  0  0  0  0  0  0
  145.9845  137.2238  161.9816 H   0  0  0  0  0  0  0  0  0  0  0  0
  145.5839  136.2031  160.6087 H   0  0  0  0  0  0  0  0  0  0  0  0
  1  2  1  0  0  0  0
  1 27  1  0  0  0  0
  1 28  1  0  0  0  0
  1 29  1  0  0  0  0
  2  3  1  0  0  0  0
  2  4  1  0  0  0  0
  2 30  1  0  0  0  0
  3 31  1  0  0  0  0
  3 32  1  0  0  0  0
  3 33  1  0  0  0  0
  4 10  1  0  0  0  0
  4  5  1  0  0  0  0
  4 34  1  0  0  0  0
  5  6  2  0  0  0  0
  5  7  1  0  0  0  0
  7  8  1  0  0  0  0
  7 35  1  0  0  0  0
  8  9  1  0  0  0  0
  8 36  1  0  0  0  0
  8 37  1  0  0  0  0
  9 10  1  0  0  0  0
  9 38  1  0  0  0  0
  9 39  1  0  0  0  0
 10 11  1  0  0  0  0
 11 16  1  0  0  0  0
 11 12  2  0  0  0  0
 12 13  1  0  0  0  0
 13 14  2  0  0  0  0
 13 40  1  0  0  0  0
 14 15  1  0  0  0  0
 15 19  1  0  0  0  0
 15 16  2  0  0  0  0
 16 17  1  0  0  0  0
 17 18  2  0  0  0  0
 18 19  1  0  0  0  0
 18 41  1  0  0  0  0
 19 20  1  0  0  0  0
 20 21  1  0  0  0  0
 20 42  1  0  0  0  0
 20 43  1  0  0  0  0
 21 26  1  0  0  0  0
 21 22  1  0  0  0  0
 21 23  1  0  0  0  0
 22 44  1  0  0  0  0
 23 24  1  0  0  0  0
 23 45  1  0  0  0  0
 23 46  1  0  0  0  0
 24 25  1  0  0  0  0
 24 47  1  0  0  0  0
 24 48  1  0  0  0  0
 25 26  1  0  0  0  0
 26 49  1  0  0  0  0
 26 50  1  0  0  0  0
M  END
> <s_m_source_file>
AV-unprocessed.smi

> <i_m_source_file_index>
274

> <i_lp_mmshare_version>
43012

> <i_f3d_flags>
0

> <s_epik_input>
W0NIM11bQ0hdKFtDSDNdKVtDQEBIXTFDKD1PKVtOSF1bQ0gyXVtDSDJdTjFjKG5bY0hdbjIpYyhjMjMpbltjSF1uM1tDSDJdW0NAQF00KFtPSF0pW0NIMl1bQ0gyXU9bQ0gyXTQ=

> <s_epik_cmdline>
J2VwaWtfcHl0aG9uJywgJy1waCcsICc3LjAnLCAnLXRuJywgJzgnLCAnLW1hJywgJzIwMCcsICctbWV0YWxfYmluZGluZycsICctaW1hZScsICc8aW5maWxlLm1hZT4nLCAnLW9tYWUnLCAnPG91dGZpbGUubWFlPic=

> <r_lp_tautomer_probability>
1

> <r_epik_Ionization_Penalty>
0.000690079

> <r_epik_Ionization_Penalty_Charging>
0

> <r_epik_Ionization_Penalty_Neutral>
0.000690079

> <r_epik_State_Penalty>
0.000321372

> <r_epik_Charging_Adjusted_Penalty>
0.000321372

> <i_epik_Tot_Q>
0

> <i_epik_Tot_abs_Q>
0

> <r_epik_Metal_State_Penalty>
-0

> <b_epik_Metal_Only>
0

> <s_lp_Force_Field>
OPLS_2005

> <r_lp_Energy>
42.4

> <b_lp_Chiralities_Consistent>
1

> <s_lp_Variant>
AV-unprocessed.smi:274-3

> <Gold.Version>
5.8.1

> <Gold.Id.Protein>
6NUR|6NUR_protein|mol2

> <Gold.PLP.Fitness>
39.4292

> <Gold.PLP.PLP>
-33.0574

> <Gold.PLP.part.hbond>
-3.0000

> <Gold.PLP.part.metal>
0.0000

> <Gold.PLP.part.buried>
-5.4162

> <Gold.PLP.part.nonpolar>
-24.4542

> <Gold.PLP.part.repulsive>
0.2578

> <Gold.PLP.ligand.clash>
0.0000

> <Gold.PLP.ligand.torsion>
1.6043

> <Gold.PLP.Chemscore.Hbond>
3.0000

> <Gold.PLP.Chemscore.CHOScore>
0.0000

> <Gold.PLP.Chemscore.Metal>
0.0000

> <Gold.Chemscore.Hbonds>
donor molecule, donor type, donor heavy atom, donor atom, acceptor molecule, acceptor atom, score
      L1  H     7    35       P1  7957  1.00
      P1  H  6931  6943       L1    22  1.00
      P1  H  7989  7998       L1     6  1.00

> <Gold.PLP.Chemscore.Internal.Correction>
0.5805

> <Gold.Rescore>
     Score         DG    S(hbond)    S(metal)    S(lipo)     H(rot)  DE(clash)    DE(int)     intcor
     12.21     -16.03       2.69        0.00      67.95       2.50       0.59       3.23       ----

> <Gold.Chemscore.Fitness>
12.2143

> <Gold.Chemscore.DG>
-16.0329

> <Gold.Chemscore.ZeroCoef>
-5.4800

> <Gold.Chemscore.Hbond>
2.6947

> <Gold.Chemscore.Metal>
0.0000

> <Gold.Chemscore.Lipo>
67.9464

> <Gold.Chemscore.Internal_Hbond>
0.0000

> <Gold.Chemscore.DEClash>
0.5867

> <Gold.Chemscore.DEInternal>
3.2319

> <Gold.Chemscore.Rot>
2.4988

> <Gold.Chemscore.Internal.Correction>
   9.000000E+99

> <Gold.Chemscore.Hbonds>
donor molecule, donor type, donor heavy atom, donor atom, acceptor molecule, acceptor atom, score
      L1  H     7    35       P1  7957  1.00
      P1  H  6931  6943       L1    22  0.45
      P1  H  7989  7998       L1     6  0.30

> <Gold.Chemscore.Hbond.Weighted>
-9.0002

> <Gold.Chemscore.Metal.Weighted>
-0.0000

> <Gold.Chemscore.Lipo.Weighted>
-7.9497

> <Gold.Chemscore.Internal_Hbond.Weighted>
0.0000

> <Gold.Chemscore.DEClash.Weighted>
0.5867

> <Gold.Chemscore.DEInternal.Weighted>
3.2319

> <Gold.Chemscore.Rot.Weighted>
6.3970

> <Gold.Chemscore.Internal.Correction.Weighted>
   9.000000E+99

> <Gold.Protein.RotatedTorsions>
[ 6907 6896 6895 6894 ] final -119.80 input  -60.11 | X-H torsion
[ 7974 7965 7964 7962 ] final  -69.78 input  175.53 | X-H torsion
[ 8008 7997 7996 7995 ] final  113.77 input   59.86 | X-H torsion
[ 10167 10162 10161 10158 ] final   -7.64 input  -65.29 | X-H torsion
[ 10718 10713 10712 10709 ] final  143.71 input   66.30 | X-H torsion
[ 10763 10752 10751 10750 ] final  -82.26 input  -60.55 | X-H torsion
[ 11005 11000 10999 10996 ] final  -51.98 input  -57.11 | X-H torsion

> <Gold.Protein.ActiveResidues>
 VAL166  LYS551  ARG553  GLY616  TRP617  ASP618  TYR619  PRO620  LYS621  CYS622 
 ASP623  PHE694  ASN695  SER759  ASP760  ASP761  ALA762  ILE779  LEU786  VAL792 
 PHE793  MET794  SER795  GLU796  ALA797  LYS798  CYS799  TRP800  GLU811  SER814 

> <Gold.Protein.RotatedAtoms>
  150.8337  133.8048  159.3087 H   0  0  0  0  0  0  0  0  0  0  0  0  # atno 6907 bound_to 6896
  151.5770  135.1058  160.0018 H   0  0  0  0  0  0  0  0  0  0  0  0  # atno 6908 bound_to 6896
  152.4413  133.7411  159.6698 H   0  0  0  0  0  0  0  0  0  0  0  0  # atno 6909 bound_to 6896
  145.6994  140.9122  143.0739 H   0  0  0  0  0  0  0  0  0  0  0  0  # atno 7974 bound_to 7965
  156.2279  140.2973  156.0114 H   0  0  0  0  0  0  0  0  0  0  0  0  # atno 8008 bound_to 7997
  155.2305  140.0419  157.2978 H   0  0  0  0  0  0  0  0  0  0  0  0  # atno 8009 bound_to 7997
  154.5946  140.2411  155.7881 H   0  0  0  0  0  0  0  0  0  0  0  0  # atno 8010 bound_to 7997
  140.7035  143.6059  150.8752 H   0  0  0  0  0  0  0  0  0  0  0  0  # atno 10167 bound_to 10162
  157.3657  131.0971  151.0874 H   0  0  0  0  0  0  0  0  0  0  0  0  # atno 10718 bound_to 10713
  154.5736  135.5597  153.7118 H   0  0  0  0  0  0  0  0  0  0  0  0  # atno 10763 bound_to 10752
  153.0057  135.6303  154.2080 H   0  0  0  0  0  0  0  0  0  0  0  0  # atno 10764 bound_to 10752
  154.2020  135.2877  155.2967 H   0  0  0  0  0  0  0  0  0  0  0  0  # atno 10765 bound_to 10752
  141.0900  133.6634  156.3957 H   0  0  0  0  0  0  0  0  0  0  0  0  # atno 11005 bound_to 11000
  144.6973  139.8928  143.7454 LP  0  0  0  0  0  0  0  0  0  0  0  0  # atno 17320 bound_to 7965
  146.0811  139.3799  143.0464 LP  0  0  0  0  0  0  0  0  0  0  0  0  # atno 17321 bound_to 7965
  139.9782  143.5980  152.2951 LP  0  0  0  0  0  0  0  0  0  0  0  0  # atno 17342 bound_to 10162
  139.6592  144.7662  151.1996 LP  0  0  0  0  0  0  0  0  0  0  0  0  # atno 17343 bound_to 10162
  157.1997  130.6389  149.5734 LP  0  0  0  0  0  0  0  0  0  0  0  0  # atno 17370 bound_to 10713
  155.9746  130.4695  150.6396 LP  0  0  0  0  0  0  0  0  0  0  0  0  # atno 17371 bound_to 10713
  140.5274  134.6245  157.5339 LP  0  0  0  0  0  0  0  0  0  0  0  0  # atno 17394 bound_to 11000
  139.9724  134.7271  156.0015 LP  0  0  0  0  0  0  0  0  0  0  0  0  # atno 17395 bound_to 11000

$$$$
