AV-unprocessed.smi:1252|AV-procd|sdf|5267|dock10
  -GOLD-   22720 4383D 1   1.00000     0.00000
 Structure written by MMmdl.
 44 45  0  0  0  0  0  0  0  0  2 V2000
  149.1316  140.5939  154.0766 C   0  0  0  0  0  0  0  0  0  0  0  0
  149.4404  139.6805  155.2801 C   0  0  1  0  0  0  0  0  0  0  0  0
  148.2239  138.8457  155.7082 C   0  0  0  0  0  0  0  0  0  0  0  0
  147.7852  138.9199  156.8565 O   0  0  0  0  0  0  0  0  0  0  0  0
  147.6888  138.0485  154.7692 N   0  0  0  0  0  0  0  0  0  0  0  0
  146.5255  137.1807  154.9493 C   0  0  0  0  0  0  0  0  0  0  0  0
  146.8149  135.6787  154.6470 C   0  0  0  0  0  0  0  0  0  0  0  0
  148.2367  135.3117  155.1417 C   0  0  0  0  0  0  0  0  0  0  0  0
  145.8396  134.7673  155.4337 C   0  0  0  0  0  0  0  0  0  0  0  0
  146.6924  135.3821  153.1737 N   0  3  0  0  0  0  0  0  0  0  0  0
  146.6832  133.9384  152.8014 C   0  0  0  0  0  0  0  0  0  0  0  0
  146.7488  133.7730  151.2743 C   0  0  0  0  0  0  0  0  0  0  0  0
  145.6552  134.4516  150.6734 O   0  0  0  0  0  0  0  0  0  0  0  0
  145.6936  135.8461  150.9403 C   0  0  0  0  0  0  0  0  0  0  0  0
  145.5930  136.0879  152.4559 C   0  0  0  0  0  0  0  0  0  0  0  0
  150.5848  138.8113  155.0363 N   0  0  0  0  0  0  0  0  0  0  0  0
  150.6429  137.4822  154.9264 C   0  0  0  0  0  0  0  0  0  0  0  0
  151.8535  137.0161  154.6540 N   0  0  0  0  0  0  0  0  0  0  0  0
  152.5428  138.1940  154.5929 C   0  0  0  0  0  0  0  0  0  0  0  0
  151.8287  139.2997  154.8028 N   0  0  0  0  0  0  0  0  0  0  0  0
  148.3156  141.2805  154.3048 H   0  0  0  0  0  0  0  0  0  0  0  0
  148.8458  140.0253  153.1907 H   0  0  0  0  0  0  0  0  0  0  0  0
  150.0012  141.1967  153.8138 H   0  0  0  0  0  0  0  0  0  0  0  0
  149.7066  140.3306  156.1156 H   0  0  0  0  0  0  0  0  0  0  0  0
  148.1133  138.0512  153.8530 H   0  0  0  0  0  0  0  0  0  0  0  0
  146.1289  137.3097  155.9567 H   0  0  0  0  0  0  0  0  0  0  0  0
  145.7563  137.5615  154.2785 H   0  0  0  0  0  0  0  0  0  0  0  0
  148.2999  135.3197  156.2304 H   0  0  0  0  0  0  0  0  0  0  0  0
  148.9922  136.0147  154.7911 H   0  0  0  0  0  0  0  0  0  0  0  0
  148.5274  134.3132  154.8132 H   0  0  0  0  0  0  0  0  0  0  0  0
  146.0412  134.7866  156.5051 H   0  0  0  0  0  0  0  0  0  0  0  0
  145.9217  133.7275  155.1148 H   0  0  0  0  0  0  0  0  0  0  0  0
  144.8003  135.0736  155.3167 H   0  0  0  0  0  0  0  0  0  0  0  0
  147.5307  133.4071  153.2298 H   0  0  0  0  0  0  0  0  0  0  0  0
  145.7790  133.4568  153.1738 H   0  0  0  0  0  0  0  0  0  0  0  0
  147.6928  134.1531  150.8802 H   0  0  0  0  0  0  0  0  0  0  0  0
  146.6958  132.7168  151.0089 H   0  0  0  0  0  0  0  0  0  0  0  0
  146.6080  136.2826  150.5354 H   0  0  0  0  0  0  0  0  0  0  0  0
  144.8590  136.3248  150.4275 H   0  0  0  0  0  0  0  0  0  0  0  0
  144.6235  135.7399  152.8132 H   0  0  0  0  0  0  0  0  0  0  0  0
  145.6304  137.1629  152.6206 H   0  0  0  0  0  0  0  0  0  0  0  0
  149.7808  136.8422  155.0453 H   0  0  0  0  0  0  0  0  0  0  0  0
  153.6012  138.2384  154.3821 H   0  0  0  0  0  0  0  0  0  0  0  0
  147.5433  135.7500  152.7724 H   0  0  0  0  0  0  0  0  0  0  0  0
  1  2  1  0  0  0  0
  1 21  1  0  0  0  0
  1 22  1  0  0  0  0
  1 23  1  0  0  0  0
  2  3  1  0  0  0  0
  2 16  1  0  0  0  0
  2 24  1  0  0  0  0
  3  4  2  0  0  0  0
  3  5  1  0  0  0  0
  5  6  1  0  0  0  0
  5 25  1  0  0  0  0
  6  7  1  0  0  0  0
  6 26  1  0  0  0  0
  6 27  1  0  0  0  0
  7  8  1  0  0  0  0
  7  9  1  0  0  0  0
  7 10  1  0  0  0  0
  8 28  1  0  0  0  0
  8 29  1  0  0  0  0
  8 30  1  0  0  0  0
  9 31  1  0  0  0  0
  9 32  1  0  0  0  0
  9 33  1  0  0  0  0
 10 15  1  0  0  0  0
 10 11  1  0  0  0  0
 10 44  1  0  0  0  0
 11 12  1  0  0  0  0
 11 34  1  0  0  0  0
 11 35  1  0  0  0  0
 12 13  1  0  0  0  0
 12 36  1  0  0  0  0
 12 37  1  0  0  0  0
 13 14  1  0  0  0  0
 14 15  1  0  0  0  0
 14 38  1  0  0  0  0
 14 39  1  0  0  0  0
 15 40  1  0  0  0  0
 15 41  1  0  0  0  0
 16 20  1  0  0  0  0
 16 17  1  0  0  0  0
 17 18  2  0  0  0  0
 17 42  1  0  0  0  0
 18 19  1  0  0  0  0
 19 20  2  0  0  0  0
 19 43  1  0  0  0  0
M  CHG  1  10   1
M  END
> <s_m_source_file>
AV-unprocessed.smi

> <i_m_source_file_index>
1252

> <i_lp_mmshare_version>
43012

> <i_f3d_flags>
0

> <s_epik_input>
bjFbY0hdbltjSF1uMVtDQEhdKFtDSDNdKUMoPU8pW05IXVtDSDJdQyhbQ0gzXSkoW0NIM10pTjJbQ0gyXVtDSDJdT1tDSDJdW0NIMl0y

> <s_epik_cmdline>
J2VwaWtfcHl0aG9uJywgJy1waCcsICc3LjAnLCAnLXRuJywgJzgnLCAnLW1hJywgJzIwMCcsICctbWV0YWxfYmluZGluZycsICctaW1hZScsICc8aW5maWxlLm1hZT4nLCAnLW9tYWUnLCAnPG91dGZpbGUubWFlPic=

> <r_lp_tautomer_probability>
1

> <r_epik_Ionization_Penalty>
0.71326

> <r_epik_Ionization_Penalty_Charging>
0.713252

> <r_epik_Ionization_Penalty_Neutral>
8.22342e-06

> <r_epik_State_Penalty>
0.737017

> <r_epik_Charging_Adjusted_Penalty>
1.45027

> <i_epik_Tot_Q>
1

> <i_epik_Tot_abs_Q>
1

> <r_epik_Metal_State_Penalty>
0.73702

> <b_epik_Metal_Only>
0

> <s_lp_Force_Field>
OPLS_2005

> <r_lp_Energy>
31.3962

> <b_lp_Chiralities_Consistent>
1

> <s_lp_Variant>
AV-unprocessed.smi:1252-4

> <Gold.Version>
5.8.1

> <Gold.Id.Protein>
6NUR|6NUR_protein|mol2

> <Gold.PLP.Fitness>
35.6575

> <Gold.PLP.PLP>
-25.4962

> <Gold.PLP.part.hbond>
-3.0000

> <Gold.PLP.part.metal>
0.0000

> <Gold.PLP.part.buried>
-4.6192

> <Gold.PLP.part.nonpolar>
-17.2544

> <Gold.PLP.part.repulsive>
0.3983

> <Gold.PLP.ligand.clash>
0.0000

> <Gold.PLP.ligand.torsion>
1.0243

> <Gold.PLP.Chemscore.Hbond>
4.0000

> <Gold.PLP.Chemscore.CHOScore>
0.0000

> <Gold.PLP.Chemscore.Metal>
0.0000

> <Gold.Chemscore.Hbonds>
donor molecule, donor type, donor heavy atom, donor atom, acceptor molecule, acceptor atom, score
      L1  H    10    44       P1  7948  2.00
      P1  H  7989  7998       L1    20  0.98
      P1  H 10752 10765       L1    18  1.00

> <Gold.PLP.Chemscore.Internal.Correction>
0.2099

> <Gold.Rescore>
     Score         DG    S(hbond)    S(metal)    S(lipo)     H(rot)  DE(clash)    DE(int)     intcor
     11.90     -12.95       2.87        0.00      38.39       2.59       0.06       0.99       ----

> <Gold.Chemscore.Fitness>
11.9008

> <Gold.Chemscore.DG>
-12.9469

> <Gold.Chemscore.ZeroCoef>
-5.4800

> <Gold.Chemscore.Hbond>
2.8733

> <Gold.Chemscore.Metal>
0.0000

> <Gold.Chemscore.Lipo>
38.3872

> <Gold.Chemscore.Internal_Hbond>
0.0000

> <Gold.Chemscore.DEClash>
0.0558

> <Gold.Chemscore.DEInternal>
0.9903

> <Gold.Chemscore.Rot>
2.5864

> <Gold.Chemscore.Internal.Correction>
   9.000000E+99

> <Gold.Chemscore.Hbonds>
donor molecule, donor type, donor heavy atom, donor atom, acceptor molecule, acceptor atom, score
      L1  H    10    44       P1  7948  1.00
      P1  H  7989  7998       L1    20  0.57
      P1  H 10752 10765       L1    18  0.68

> <Gold.Chemscore.Hbond.Weighted>
-9.5967

> <Gold.Chemscore.Metal.Weighted>
-0.0000

> <Gold.Chemscore.Lipo.Weighted>
-4.4913

> <Gold.Chemscore.Internal_Hbond.Weighted>
0.0000

> <Gold.Chemscore.DEClash.Weighted>
0.0558

> <Gold.Chemscore.DEInternal.Weighted>
0.9903

> <Gold.Chemscore.Rot.Weighted>
6.6211

> <Gold.Chemscore.Internal.Correction.Weighted>
   9.000000E+99

> <Gold.Protein.RotatedTorsions>
[ 6907 6896 6895 6894 ] final -146.47 input  -60.11 | X-H torsion
[ 7974 7965 7964 7962 ] final  -21.76 input  175.53 | X-H torsion
[ 8008 7997 7996 7995 ] final  109.24 input   59.86 | X-H torsion
[ 10167 10162 10161 10158 ] final  -85.88 input  -65.29 | X-H torsion
[ 10718 10713 10712 10709 ] final   53.65 input   66.30 | X-H torsion
[ 10763 10752 10751 10750 ] final  162.59 input  -60.55 | X-H torsion
[ 11005 11000 10999 10996 ] final  -52.13 input  -57.11 | X-H torsion

> <Gold.Protein.ActiveResidues>
 VAL166  LYS551  ARG553  GLY616  TRP617  ASP618  TYR619  PRO620  LYS621  CYS622 
 ASP623  PHE694  ASN695  SER759  ASP760  ASP761  ALA762  ILE779  LEU786  VAL792 
 PHE793  MET794  SER795  GLU796  ALA797  LYS798  CYS799  TRP800  GLU811  SER814 

> <Gold.Protein.RotatedAtoms>
  151.1421  133.4964  159.2596 H   0  0  0  0  0  0  0  0  0  0  0  0  # atno 6907 bound_to 6896
  151.1644  135.0288  159.8734 H   0  0  0  0  0  0  0  0  0  0  0  0  # atno 6908 bound_to 6896
  152.5462  134.1291  159.8485 H   0  0  0  0  0  0  0  0  0  0  0  0  # atno 6909 bound_to 6896
  146.1715  140.4385  142.8531 H   0  0  0  0  0  0  0  0  0  0  0  0  # atno 7974 bound_to 7965
  156.1964  140.3061  155.9436 H   0  0  0  0  0  0  0  0  0  0  0  0  # atno 8008 bound_to 7997
  155.3055  140.0448  157.3049 H   0  0  0  0  0  0  0  0  0  0  0  0  # atno 8009 bound_to 7997
  154.5515  140.2293  155.8486 H   0  0  0  0  0  0  0  0  0  0  0  0  # atno 8010 bound_to 7997
  140.3994  143.2669  151.9161 H   0  0  0  0  0  0  0  0  0  0  0  0  # atno 10167 bound_to 10162
  157.5186  130.8549  149.8528 H   0  0  0  0  0  0  0  0  0  0  0  0  # atno 10718 bound_to 10713
  154.2806  135.2763  155.2698 H   0  0  0  0  0  0  0  0  0  0  0  0  # atno 10763 bound_to 10752
  154.5221  135.5753  153.6693 H   0  0  0  0  0  0  0  0  0  0  0  0  # atno 10764 bound_to 10752
  152.9930  135.6207  154.2966 H   0  0  0  0  0  0  0  0  0  0  0  0  # atno 10765 bound_to 10752
  141.0908  133.6633  156.3979 H   0  0  0  0  0  0  0  0  0  0  0  0  # atno 11005 bound_to 11000
  144.8170  140.6484  143.6378 LP  0  0  0  0  0  0  0  0  0  0  0  0  # atno 17320 bound_to 7965
  145.4328  139.1546  143.4013 LP  0  0  0  0  0  0  0  0  0  0  0  0  # atno 17321 bound_to 7965
  139.4785  144.5648  151.8182 LP  0  0  0  0  0  0  0  0  0  0  0  0  # atno 17342 bound_to 10162
  140.4755  144.1525  150.5924 LP  0  0  0  0  0  0  0  0  0  0  0  0  # atno 17343 bound_to 10162
  156.0337  130.3757  150.1617 LP  0  0  0  0  0  0  0  0  0  0  0  0  # atno 17370 bound_to 10713
  156.9805  130.9862  151.3438 LP  0  0  0  0  0  0  0  0  0  0  0  0  # atno 17371 bound_to 10713
  140.5257  134.6261  157.5333 LP  0  0  0  0  0  0  0  0  0  0  0  0  # atno 17394 bound_to 11000
  139.9733  134.7256  155.9998 LP  0  0  0  0  0  0  0  0  0  0  0  0  # atno 17395 bound_to 11000

$$$$
