AV-unprocessed.smi:772|AV-procd|sdf|3686|dock5
  -GOLD-   22720 1103D 1   1.00000     0.00000
 Structure written by MMmdl.
 46 47  0  0  0  0  0  0  0  0  1 V2000
  152.1089  144.7974  160.5262 C   0  0  0  0  0  0  0  0  0  0  0  0
  152.4062  143.4025  160.0172 C   0  0  0  0  0  0  0  0  0  0  0  0
  151.9090  142.9652  158.7715 C   0  0  0  0  0  0  0  0  0  0  0  0
  152.2160  141.6577  158.3492 C   0  0  0  0  0  0  0  0  0  0  0  0
  153.0037  140.8399  159.1854 C   0  0  0  0  0  0  0  0  0  0  0  0
  153.3460  139.4143  158.7892 C   0  0  0  0  0  0  0  0  0  0  0  0
  152.6122  138.3501  159.6261 C   0  0  0  0  0  0  0  0  0  0  0  0
  153.4577  137.8077  160.6867 N   0  0  0  0  0  0  0  0  0  0  0  0
  154.0480  136.5992  160.6839 C   0  0  0  0  0  0  0  0  0  0  0  0
  153.8948  135.7954  159.7633 O   0  0  0  0  0  0  0  0  0  0  0  0
  154.8365  136.3505  161.7605 N   0  0  0  0  0  0  0  0  0  0  0  0
  154.9417  137.1847  162.9684 C   0  0  0  0  0  0  0  0  0  0  0  0
  154.0325  136.5984  164.0589 C   0  0  0  0  0  0  0  0  0  0  0  0
  154.5713  134.9234  164.5225 S   0  0  0  0  0  0  0  0  0  0  0  0
  154.7142  134.1568  162.8682 C   0  0  2  0  0  0  0  0  0  0  0  0
  155.2637  132.7094  162.9359 C   0  0  0  0  0  0  0  0  0  0  0  0
  155.3522  132.0610  161.5437 C   0  0  0  0  0  0  0  0  0  0  0  0
  154.5049  131.7976  163.9183 C   0  0  0  0  0  0  0  0  0  0  0  0
  155.5318  135.0682  161.9255 C   0  0  0  0  0  0  0  0  0  0  0  0
  153.4521  141.3746  160.4114 C   0  0  0  0  0  0  0  0  0  0  0  0
  153.1641  142.6276  160.8239 N   0  0  0  0  0  0  0  0  0  0  0  0
  151.4836  145.3501  159.8246 H   0  0  0  0  0  0  0  0  0  0  0  0
  153.0352  145.3549  160.6679 H   0  0  0  0  0  0  0  0  0  0  0  0
  151.5862  144.7488  161.4819 H   0  0  0  0  0  0  0  0  0  0  0  0
  151.3052  143.6130  158.1532 H   0  0  0  0  0  0  0  0  0  0  0  0
  151.8449  141.2888  157.4042 H   0  0  0  0  0  0  0  0  0  0  0  0
  153.1145  139.2732  157.7327 H   0  0  0  0  0  0  0  0  0  0  0  0
  154.4236  139.2751  158.8836 H   0  0  0  0  0  0  0  0  0  0  0  0
  151.7303  138.7938  160.0881 H   0  0  0  0  0  0  0  0  0  0  0  0
  152.2438  137.5536  158.9772 H   0  0  0  0  0  0  0  0  0  0  0  0
  153.6322  138.4103  161.4775 H   0  0  0  0  0  0  0  0  0  0  0  0
  155.9751  137.2051  163.3177 H   0  0  0  0  0  0  0  0  0  0  0  0
  154.6873  138.2299  162.7919 H   0  0  0  0  0  0  0  0  0  0  0  0
  154.0492  137.2288  164.9480 H   0  0  0  0  0  0  0  0  0  0  0  0
  152.9988  136.5583  163.7136 H   0  0  0  0  0  0  0  0  0  0  0  0
  153.7011  134.0999  162.4667 H   0  0  0  0  0  0  0  0  0  0  0  0
  156.2891  132.7797  163.3015 H   0  0  0  0  0  0  0  0  0  0  0  0
  154.3658  131.9101  161.1049 H   0  0  0  0  0  0  0  0  0  0  0  0
  155.8397  131.0872  161.5962 H   0  0  0  0  0  0  0  0  0  0  0  0
  155.9315  132.6787  160.8571 H   0  0  0  0  0  0  0  0  0  0  0  0
  153.4660  131.6563  163.6206 H   0  0  0  0  0  0  0  0  0  0  0  0
  154.5111  132.2000  164.9306 H   0  0  0  0  0  0  0  0  0  0  0  0
  154.9662  130.8109  163.9645 H   0  0  0  0  0  0  0  0  0  0  0  0
  155.6918  134.5725  160.9665 H   0  0  0  0  0  0  0  0  0  0  0  0
  156.5306  135.2429  162.3268 H   0  0  0  0  0  0  0  0  0  0  0  0
  154.0531  140.7790  161.0827 H   0  0  0  0  0  0  0  0  0  0  0  0
  1  2  1  0  0  0  0
  1 22  1  0  0  0  0
  1 23  1  0  0  0  0
  1 24  1  0  0  0  0
  2 21  1  0  0  0  0
  2  3  2  0  0  0  0
  3  4  1  0  0  0  0
  3 25  1  0  0  0  0
  4  5  2  0  0  0  0
  4 26  1  0  0  0  0
  5  6  1  0  0  0  0
  5 20  1  0  0  0  0
  6  7  1  0  0  0  0
  6 27  1  0  0  0  0
  6 28  1  0  0  0  0
  7  8  1  0  0  0  0
  7 29  1  0  0  0  0
  7 30  1  0  0  0  0
  8  9  1  0  0  0  0
  8 31  1  0  0  0  0
  9 10  2  0  0  0  0
  9 11  1  0  0  0  0
 11 19  1  0  0  0  0
 11 12  1  0  0  0  0
 12 13  1  0  0  0  0
 12 32  1  0  0  0  0
 12 33  1  0  0  0  0
 13 14  1  0  0  0  0
 13 34  1  0  0  0  0
 13 35  1  0  0  0  0
 14 15  1  0  0  0  0
 15 16  1  0  0  0  0
 15 19  1  0  0  0  0
 15 36  1  0  0  0  0
 16 17  1  0  0  0  0
 16 18  1  0  0  0  0
 16 37  1  0  0  0  0
 17 38  1  0  0  0  0
 17 39  1  0  0  0  0
 17 40  1  0  0  0  0
 18 41  1  0  0  0  0
 18 42  1  0  0  0  0
 18 43  1  0  0  0  0
 19 44  1  0  0  0  0
 19 45  1  0  0  0  0
 20 21  2  0  0  0  0
 20 46  1  0  0  0  0
M  END
> <s_m_source_file>
AV-unprocessed.smi

> <i_m_source_file_index>
772

> <i_lp_mmshare_version>
43012

> <i_f3d_flags>
0

> <s_epik_input>
W0NIM11jMVtjSF1bY0hdYyhbY0hdbjEpW0NIMl1bQ0gyXVtOSF1DKD1PKU4yW0NIMl1bQ0gyXVNbQ0BIXShbQ0gyXTIpW0NIXShbQ0gzXSlbQ0gzXQ==

> <s_epik_cmdline>
J2VwaWtfcHl0aG9uJywgJy1waCcsICc3LjAnLCAnLXRuJywgJzgnLCAnLW1hJywgJzIwMCcsICctbWV0YWxfYmluZGluZycsICctaW1hZScsICc8aW5maWxlLm1hZT4nLCAnLW9tYWUnLCAnPG91dGZpbGUubWFlPic=

> <r_epik_Ionization_Penalty>
0.0566916

> <r_epik_Ionization_Penalty_Charging>
0

> <r_epik_Ionization_Penalty_Neutral>
0.0566916

> <r_epik_State_Penalty>
0.0488669

> <r_epik_Charging_Adjusted_Penalty>
0.0488669

> <i_epik_Tot_Q>
0

> <i_epik_Tot_abs_Q>
0

> <r_epik_Metal_State_Penalty>
0.0445784

> <b_epik_Metal_Only>
0

> <s_lp_Force_Field>
OPLS_2005

> <r_lp_Energy>
25.5588

> <b_lp_Chiralities_Consistent>
1

> <s_lp_Variant>
AV-unprocessed.smi:772-2

> <Gold.Version>
5.8.1

> <Gold.Id.Protein>
6NUR|6NUR_protein|mol2

> <Gold.PLP.Fitness>
43.3583

> <Gold.PLP.PLP>
-41.3205

> <Gold.PLP.part.hbond>
-1.0000

> <Gold.PLP.part.metal>
0.0000

> <Gold.PLP.part.buried>
-3.9986

> <Gold.PLP.part.nonpolar>
-36.4478

> <Gold.PLP.part.repulsive>
0.0982

> <Gold.PLP.ligand.clash>
0.0000

> <Gold.PLP.ligand.torsion>
0.5249

> <Gold.PLP.Chemscore.Hbond>
1.0000

> <Gold.PLP.Chemscore.CHOScore>
0.0000

> <Gold.PLP.Chemscore.Metal>
0.0000

> <Gold.Chemscore.Hbonds>
donor molecule, donor type, donor heavy atom, donor atom, acceptor molecule, acceptor atom, score
      P1  H  6896  6909       L1    10  1.00

> <Gold.PLP.Chemscore.Internal.Correction>
0.0875

> <Gold.Rescore>
     Score         DG    S(hbond)    S(metal)    S(lipo)     H(rot)  DE(clash)    DE(int)     intcor
     19.10     -19.71       0.94        0.00     123.64       1.32       0.11       0.51       ----

> <Gold.Chemscore.Fitness>
19.0990

> <Gold.Chemscore.DG>
-19.7146

> <Gold.Chemscore.ZeroCoef>
-5.4800

> <Gold.Chemscore.Hbond>
0.9449

> <Gold.Chemscore.Metal>
0.0000

> <Gold.Chemscore.Lipo>
123.6427

> <Gold.Chemscore.Internal_Hbond>
0.0000

> <Gold.Chemscore.DEClash>
0.1063

> <Gold.Chemscore.DEInternal>
0.5092

> <Gold.Chemscore.Rot>
1.3233

> <Gold.Chemscore.Internal.Correction>
   9.000000E+99

> <Gold.Chemscore.Hbonds>
donor molecule, donor type, donor heavy atom, donor atom, acceptor molecule, acceptor atom, score
      P1  H  6896  6909       L1    10  0.92

> <Gold.Chemscore.Hbond.Weighted>
-3.1560

> <Gold.Chemscore.Metal.Weighted>
-0.0000

> <Gold.Chemscore.Lipo.Weighted>
-14.4662

> <Gold.Chemscore.Internal_Hbond.Weighted>
0.0000

> <Gold.Chemscore.DEClash.Weighted>
0.1063

> <Gold.Chemscore.DEInternal.Weighted>
0.5092

> <Gold.Chemscore.Rot.Weighted>
3.3876

> <Gold.Chemscore.Internal.Correction.Weighted>
   9.000000E+99

> <Gold.Protein.RotatedTorsions>
[ 6907 6896 6895 6894 ] final -172.10 input  -60.11 | X-H torsion
[ 7974 7965 7964 7962 ] final   18.52 input  175.53 | X-H torsion
[ 8008 7997 7996 7995 ] final  -75.29 input   59.86 | X-H torsion
[ 10167 10162 10161 10158 ] final  125.54 input  -65.29 | X-H torsion
[ 10718 10713 10712 10709 ] final -163.51 input   66.30 | X-H torsion
[ 10763 10752 10751 10750 ] final   17.25 input  -60.55 | X-H torsion
[ 11005 11000 10999 10996 ] final   93.77 input  -57.11 | X-H torsion

> <Gold.Protein.ActiveResidues>
 VAL166  LYS551  ARG553  GLY616  TRP617  ASP618  TYR619  PRO620  LYS621  CYS622 
 ASP623  PHE694  ASN695  SER759  ASP760  ASP761  ALA762  ILE779  LEU786  VAL792 
 PHE793  MET794  SER795  GLU796  ALA797  LYS798  CYS799  TRP800  GLU811  SER814 

> <Gold.Protein.RotatedAtoms>
  151.5345  133.3443  159.2923 H   0  0  0  0  0  0  0  0  0  0  0  0  # atno 6907 bound_to 6896
  150.8573  134.7918  159.7066 H   0  0  0  0  0  0  0  0  0  0  0  0  # atno 6908 bound_to 6896
  152.4603  134.5208  159.9833 H   0  0  0  0  0  0  0  0  0  0  0  0  # atno 6909 bound_to 6896
  146.2182  139.8446  142.8634 H   0  0  0  0  0  0  0  0  0  0  0  0  # atno 7974 bound_to 7965
  154.5404  140.0746  156.8499 H   0  0  0  0  0  0  0  0  0  0  0  0  # atno 8008 bound_to 7997
  155.3193  140.3395  155.4223 H   0  0  0  0  0  0  0  0  0  0  0  0  # atno 8009 bound_to 7997
  156.1868  140.1672  156.8155 H   0  0  0  0  0  0  0  0  0  0  0  0  # atno 8010 bound_to 7997
  139.5680  144.6922  151.3857 H   0  0  0  0  0  0  0  0  0  0  0  0  # atno 10167 bound_to 10162
  156.6258  130.8909  151.2967 H   0  0  0  0  0  0  0  0  0  0  0  0  # atno 10718 bound_to 10713
  153.1356  135.6749  153.9108 H   0  0  0  0  0  0  0  0  0  0  0  0  # atno 10763 bound_to 10752
  153.8581  135.3085  155.3437 H   0  0  0  0  0  0  0  0  0  0  0  0  # atno 10764 bound_to 10752
  154.7745  135.4922  153.9798 H   0  0  0  0  0  0  0  0  0  0  0  0  # atno 10765 bound_to 10752
  139.8806  134.8808  156.3767 H   0  0  0  0  0  0  0  0  0  0  0  0  # atno 11005 bound_to 11000
  145.2864  141.0154  143.3688 LP  0  0  0  0  0  0  0  0  0  0  0  0  # atno 17320 bound_to 7965
  144.9110  139.4528  143.6587 LP  0  0  0  0  0  0  0  0  0  0  0  0  # atno 17321 bound_to 7965
  140.6964  143.7739  150.7333 LP  0  0  0  0  0  0  0  0  0  0  0  0  # atno 17342 bound_to 10162
  140.1237  143.4589  152.2297 LP  0  0  0  0  0  0  0  0  0  0  0  0  # atno 17343 bound_to 10162
  157.7214  130.9564  150.1456 LP  0  0  0  0  0  0  0  0  0  0  0  0  # atno 17370 bound_to 10713
  156.2275  130.3679  149.8484 LP  0  0  0  0  0  0  0  0  0  0  0  0  # atno 17371 bound_to 10713
  140.9427  133.7504  156.0168 LP  0  0  0  0  0  0  0  0  0  0  0  0  # atno 17394 bound_to 11000
  140.8200  134.3300  157.5384 LP  0  0  0  0  0  0  0  0  0  0  0  0  # atno 17395 bound_to 11000

$$$$
