AV-unprocessed.smi:921|AV-procd|sdf|4169|dock2
  -GOLD-   22720 2 73D 1   1.00000     0.00000
 Structure written by MMmdl.
 39 41  0  0  0  0  0  0  0  0  1 V2000
  151.2258  137.8023  153.6930 N   0  0  0  0  0  0  0  0  0  0  0  0
  151.7683  137.8546  154.9127 C   0  0  0  0  0  0  0  0  0  0  0  0
  152.0480  136.8402  155.5479 O   0  0  0  0  0  0  0  0  0  0  0  0
  152.0266  139.2449  155.5064 C   0  0  0  0  0  0  0  0  0  0  0  0
  150.7351  140.0253  155.5462 C   0  0  0  0  0  0  0  0  0  0  0  0
  149.9936  140.2145  154.4496 N   0  0  0  0  0  0  0  0  0  0  0  0
  148.9290  140.9577  154.9162 C   0  0  0  0  0  0  0  0  0  0  0  0
  147.8079  141.4850  154.2362 C   0  0  0  0  0  0  0  0  0  0  0  0
  146.8314  142.2238  154.9361 C   0  0  0  0  0  0  0  0  0  0  0  0
  146.9615  142.4435  156.3227 C   0  0  0  0  0  0  0  0  0  0  0  0
  148.0700  141.9244  157.0188 C   0  0  0  0  0  0  0  0  0  0  0  0
  149.0424  141.1889  156.3147 C   0  0  0  0  0  0  0  0  0  0  0  0
  150.2215  140.5527  156.6913 N   0  0  0  0  0  0  0  0  0  0  0  0
  150.7376  140.4935  158.0541 C   0  0  0  0  0  0  0  0  0  0  0  0
  152.1321  141.1346  158.1962 C   0  0  2  0  0  0  0  0  0  0  0  0
  153.0931  140.1432  158.4996 O   0  0  0  0  0  0  0  0  0  0  0  0
  152.1164  142.2571  159.2244 C   0  0  0  0  0  0  0  0  0  0  0  0
  152.3878  141.9814  160.5834 C   0  0  0  0  0  0  0  0  0  0  0  0
  152.3643  143.0157  161.5389 C   0  0  0  0  0  0  0  0  0  0  0  0
  152.6271  142.7427  162.8388 F   0  0  0  0  0  0  0  0  0  0  0  0
  152.0656  144.3329  161.1431 C   0  0  0  0  0  0  0  0  0  0  0  0
  151.7873  144.6140  159.7921 C   0  0  0  0  0  0  0  0  0  0  0  0
  151.8094  143.5809  158.8347 C   0  0  0  0  0  0  0  0  0  0  0  0
  151.5295  143.8690  157.5406 F   0  0  0  0  0  0  0  0  0  0  0  0
  151.0522  136.9065  153.2611 H   0  0  0  0  0  0  0  0  0  0  0  0
  151.0036  138.6558  153.2015 H   0  0  0  0  0  0  0  0  0  0  0  0
  152.4267  139.1634  156.5176 H   0  0  0  0  0  0  0  0  0  0  0  0
  152.7840  139.7369  154.9006 H   0  0  0  0  0  0  0  0  0  0  0  0
  147.6993  141.3216  153.1742 H   0  0  0  0  0  0  0  0  0  0  0  0
  145.9787  142.6232  154.4069 H   0  0  0  0  0  0  0  0  0  0  0  0
  146.2092  143.0100  156.8518 H   0  0  0  0  0  0  0  0  0  0  0  0
  148.1721  142.0907  158.0809 H   0  0  0  0  0  0  0  0  0  0  0  0
  150.0326  141.0235  158.6958 H   0  0  0  0  0  0  0  0  0  0  0  0
  150.7322  139.4657  158.4143 H   0  0  0  0  0  0  0  0  0  0  0  0
  152.4243  141.5508  157.2315 H   0  0  0  0  0  0  0  0  0  0  0  0
  153.0611  139.9662  159.4273 H   0  0  0  0  0  0  0  0  0  0  0  0
  152.6119  140.9729  160.8991 H   0  0  0  0  0  0  0  0  0  0  0  0
  152.0468  145.1266  161.8753 H   0  0  0  0  0  0  0  0  0  0  0  0
  151.5543  145.6241  159.4898 H   0  0  0  0  0  0  0  0  0  0  0  0
  1  2  1  0  0  0  0
  1 25  1  0  0  0  0
  1 26  1  0  0  0  0
  2  3  2  0  0  0  0
  2  4  1  0  0  0  0
  4  5  1  0  0  0  0
  4 27  1  0  0  0  0
  4 28  1  0  0  0  0
  5 13  1  0  0  0  0
  5  6  2  0  0  0  0
  6  7  1  0  0  0  0
  7 12  2  0  0  0  0
  7  8  1  0  0  0  0
  8  9  2  0  0  0  0
  8 29  1  0  0  0  0
  9 10  1  0  0  0  0
  9 30  1  0  0  0  0
 10 11  2  0  0  0  0
 10 31  1  0  0  0  0
 11 12  1  0  0  0  0
 11 32  1  0  0  0  0
 12 13  1  0  0  0  0
 13 14  1  0  0  0  0
 14 15  1  0  0  0  0
 14 33  1  0  0  0  0
 14 34  1  0  0  0  0
 15 16  1  0  0  0  0
 15 17  1  0  0  0  0
 15 35  1  0  0  0  0
 16 36  1  0  0  0  0
 17 23  1  0  0  0  0
 17 18  2  0  0  0  0
 18 19  1  0  0  0  0
 18 37  1  0  0  0  0
 19 20  1  0  0  0  0
 19 21  2  0  0  0  0
 21 22  1  0  0  0  0
 21 38  1  0  0  0  0
 22 23  2  0  0  0  0
 22 39  1  0  0  0  0
 23 24  1  0  0  0  0
M  END
> <s_m_source_file>
AV-unprocessed.smi

> <i_m_source_file_index>
921

> <i_lp_mmshare_version>
43012

> <i_f3d_flags>
0

> <s_epik_input>
W2NIXTFbY0hdW2NIXVtjSF1jKGMxMiluKGMobjIpW0NIMl1DKD1PKVtOSDJdKVtDSDJdW0NASF0oW09IXSljM1tjSF1jKEYpW2NIXVtjSF1jM0Y=

> <s_epik_cmdline>
J2VwaWtfcHl0aG9uJywgJy1waCcsICc3LjAnLCAnLXRuJywgJzgnLCAnLW1hJywgJzIwMCcsICctbWV0YWxfYmluZGluZycsICctaW1hZScsICc8aW5maWxlLm1hZT4nLCAnLW9tYWUnLCAnPG91dGZpbGUubWFlPic=

> <r_epik_Ionization_Penalty>
0.0366909

> <r_epik_Ionization_Penalty_Charging>
0

> <r_epik_Ionization_Penalty_Neutral>
0.0366909

> <r_epik_State_Penalty>
0.0306642

> <r_epik_Charging_Adjusted_Penalty>
0.0306642

> <i_epik_Tot_Q>
0

> <i_epik_Tot_abs_Q>
0

> <r_epik_Metal_State_Penalty>
0.028853

> <b_epik_Metal_Only>
0

> <s_lp_Force_Field>
OPLS_2005

> <r_lp_Energy>
14.0365

> <b_lp_Chiralities_Consistent>
1

> <s_lp_Variant>
AV-unprocessed.smi:921-1

> <Gold.Version>
5.8.1

> <Gold.Id.Protein>
6NUR|6NUR_protein|mol2

> <Gold.PLP.Fitness>
62.5324

> <Gold.PLP.PLP>
-56.2752

> <Gold.PLP.part.hbond>
-4.5249

> <Gold.PLP.part.metal>
0.0000

> <Gold.PLP.part.buried>
-2.6009

> <Gold.PLP.part.nonpolar>
-48.9492

> <Gold.PLP.part.repulsive>
0.2833

> <Gold.PLP.ligand.clash>
0.0000

> <Gold.PLP.ligand.torsion>
1.4994

> <Gold.PLP.Chemscore.Hbond>
3.0720

> <Gold.PLP.Chemscore.CHOScore>
0.0000

> <Gold.PLP.Chemscore.Metal>
0.0000

> <Gold.Chemscore.Hbonds>
donor molecule, donor type, donor heavy atom, donor atom, acceptor molecule, acceptor atom, score
      L1  H     1    25       P1  7949  0.82
      P1  H  7989  7998       L1     6  0.49
      P1  H  7997  8010       L1    16  0.82
      P1  H 10752 10765       L1     3  0.94

> <Gold.PLP.Chemscore.Internal.Correction>
0.0399

> <Gold.Rescore>
     Score         DG    S(hbond)    S(metal)    S(lipo)     H(rot)  DE(clash)    DE(int)     intcor
     14.29     -17.47       1.94        0.00     115.28       3.11       0.28       2.89       ----

> <Gold.Chemscore.Fitness>
14.2918

> <Gold.Chemscore.DG>
-17.4666

> <Gold.Chemscore.ZeroCoef>
-5.4800

> <Gold.Chemscore.Hbond>
1.9359

> <Gold.Chemscore.Metal>
0.0000

> <Gold.Chemscore.Lipo>
115.2804

> <Gold.Chemscore.Internal_Hbond>
0.0000

> <Gold.Chemscore.DEClash>
0.2829

> <Gold.Chemscore.DEInternal>
2.8918

> <Gold.Chemscore.Rot>
3.1121

> <Gold.Chemscore.Internal.Correction>
   9.000000E+99

> <Gold.Chemscore.Hbonds>
donor molecule, donor type, donor heavy atom, donor atom, acceptor molecule, acceptor atom, score
      L1  H     1    25       P1  7949  0.27
      P1  H  7989  7998       L1     6  0.02
      P1  H  7997  8010       L1    16  0.64
      P1  H 10752 10765       L1     3  0.81

> <Gold.Chemscore.Hbond.Weighted>
-6.4658

> <Gold.Chemscore.Metal.Weighted>
-0.0000

> <Gold.Chemscore.Lipo.Weighted>
-13.4878

> <Gold.Chemscore.Internal_Hbond.Weighted>
0.0000

> <Gold.Chemscore.DEClash.Weighted>
0.2829

> <Gold.Chemscore.DEInternal.Weighted>
2.8918

> <Gold.Chemscore.Rot.Weighted>
7.9670

> <Gold.Chemscore.Internal.Correction.Weighted>
   9.000000E+99

> <Gold.Protein.RotatedTorsions>
[ 6907 6896 6895 6894 ] final -179.75 input  -60.11 | X-H torsion
[ 7974 7965 7964 7962 ] final -179.31 input  175.53 | X-H torsion
[ 8008 7997 7996 7995 ] final   31.49 input   59.86 | X-H torsion
[ 10167 10162 10161 10158 ] final -109.69 input  -65.29 | X-H torsion
[ 10718 10713 10712 10709 ] final   -6.78 input   66.30 | X-H torsion
[ 10763 10752 10751 10750 ] final  179.93 input  -60.55 | X-H torsion
[ 11005 11000 10999 10996 ] final   32.39 input  -57.11 | X-H torsion

> <Gold.Protein.ActiveResidues>
 VAL166  LYS551  ARG553  GLY616  TRP617  ASP618  TYR619  PRO620  LYS621  CYS622 
 ASP623  PHE694  ASN695  SER759  ASP760  ASP761  ALA762  ILE779  LEU786  VAL792 
 PHE793  MET794  SER795  GLU796  ALA797  LYS798  CYS799  TRP800  GLU811  SER814 

> <Gold.Protein.RotatedAtoms>
  151.6586  133.3318  159.3168 H   0  0  0  0  0  0  0  0  0  0  0  0  # atno 6907 bound_to 6896
  150.7925  134.6963  159.6534 H   0  0  0  0  0  0  0  0  0  0  0  0  # atno 6908 bound_to 6896
  152.4007  134.6295  160.0123 H   0  0  0  0  0  0  0  0  0  0  0  0  # atno 6909 bound_to 6896
  144.7136  140.0737  143.6428 H   0  0  0  0  0  0  0  0  0  0  0  0  # atno 7974 bound_to 7965
  155.1073  140.3235  155.4531 H   0  0  0  0  0  0  0  0  0  0  0  0  # atno 8008 bound_to 7997
  156.2700  140.2050  156.6146 H   0  0  0  0  0  0  0  0  0  0  0  0  # atno 8009 bound_to 7997
  154.6783  140.0529  157.0226 H   0  0  0  0  0  0  0  0  0  0  0  0  # atno 8010 bound_to 7997
  140.1526  143.4186  152.1484 H   0  0  0  0  0  0  0  0  0  0  0  0  # atno 10167 bound_to 10162
  156.7269  130.5168  149.5854 H   0  0  0  0  0  0  0  0  0  0  0  0  # atno 10718 bound_to 10713
  154.5270  135.2797  155.1213 H   0  0  0  0  0  0  0  0  0  0  0  0  # atno 10763 bound_to 10752
  154.2748  135.6296  153.5328 H   0  0  0  0  0  0  0  0  0  0  0  0  # atno 10764 bound_to 10752
  152.9948  135.5637  154.5774 H   0  0  0  0  0  0  0  0  0  0  0  0  # atno 10765 bound_to 10752
  140.2740  134.3050  155.7819 H   0  0  0  0  0  0  0  0  0  0  0  0  # atno 11005 bound_to 11000
  145.9762  139.2906  143.1069 LP  0  0  0  0  0  0  0  0  0  0  0  0  # atno 17320 bound_to 7965
  145.9062  140.9210  143.0477 LP  0  0  0  0  0  0  0  0  0  0  0  0  # atno 17321 bound_to 7965
  139.5418  144.7264  151.4708 LP  0  0  0  0  0  0  0  0  0  0  0  0  # atno 17342 bound_to 10162
  140.6693  143.8329  150.6979 LP  0  0  0  0  0  0  0  0  0  0  0  0  # atno 17343 bound_to 10162
  156.1555  130.6339  151.0652 LP  0  0  0  0  0  0  0  0  0  0  0  0  # atno 17370 bound_to 10713
  157.6875  131.0820  150.7202 LP  0  0  0  0  0  0  0  0  0  0  0  0  # atno 17371 bound_to 10713
  141.2173  133.7484  156.9378 LP  0  0  0  0  0  0  0  0  0  0  0  0  # atno 17394 bound_to 11000
  140.1346  134.9333  157.2384 LP  0  0  0  0  0  0  0  0  0  0  0  0  # atno 17395 bound_to 11000

$$$$
