AV-unprocessed.smi:109|AV-procd|sdf|1062|dock9
  -GOLD-   2262018143D 1   1.00000     0.00000
 Structure written by MMmdl.
 58 61  0  0  0  0  0  0  0  0  1 V2000
  150.3548  139.9542  153.9198 O   0  0  0  0  0  0  0  0  0  0  0  0
  149.4149  140.6656  154.6958 C   0  0  0  0  0  0  0  0  0  0  0  0
  150.1229  141.7846  155.4788 C   0  0  0  0  0  0  0  0  0  0  0  0
  150.6840  141.3450  156.8543 C   0  0  1  0  0  0  0  0  0  0  0  0
  151.3992  140.0751  156.7090 N   0  0  0  0  0  0  0  0  0  0  0  0
  151.3124  139.0851  157.6253 C   0  0  0  0  0  0  0  0  0  0  0  0
  152.4170  138.5748  158.2291 N   0  0  0  0  0  0  0  0  0  0  0  0
  152.2943  137.6032  159.1380 C   0  0  0  0  0  0  0  0  0  0  0  0
  151.1831  137.0114  159.5805 N   0  0  0  0  0  0  0  0  0  0  0  0
  150.0700  137.5174  158.9753 C   0  0  0  0  0  0  0  0  0  0  0  0
  150.0526  138.5474  157.9942 C   0  0  0  0  0  0  0  0  0  0  0  0
  148.7449  138.8041  157.6040 N   0  0  0  0  0  0  0  0  0  0  0  0
  148.0343  137.9692  158.3138 C   0  0  0  0  0  0  0  0  0  0  0  0
  148.7504  137.1636  159.1711 N   0  0  0  0  0  0  0  0  0  0  0  0
  148.2161  136.1209  160.0972 C   0  0  1  0  0  0  0  0  0  0  0  0
  148.4555  136.5434  161.4009 O   0  0  0  0  0  0  0  0  0  0  0  0
  147.4125  136.1058  162.2742 C   0  0  1  0  0  0  0  0  0  0  0  0
  146.8859  137.3250  163.0509 C   0  0  0  0  0  0  0  0  0  0  0  0
  147.9386  137.9386  163.7637 O   0  0  0  0  0  0  0  0  0  0  0  0
  146.3421  135.4740  161.3616 C   0  0  2  0  0  0  0  0  0  0  0  0
  146.4276  134.0624  161.4719 O   0  0  0  0  0  0  0  0  0  0  0  0
  146.7034  135.9749  159.9658 C   0  0  2  0  0  0  0  0  0  0  0  0
  146.3113  135.0679  158.9525 O   0  0  0  0  0  0  0  0  0  0  0  0
  151.6324  142.3946  157.5025 C   0  0  0  0  0  0  0  0  0  0  0  0
  152.0283  141.9754  158.9421 C   0  0  0  0  0  0  0  0  0  0  0  0
  152.9710  142.9872  159.6117 C   0  0  0  0  0  0  0  0  0  0  0  0
  152.3495  144.3884  159.6374 C   0  0  0  0  0  0  0  0  0  0  0  0
  151.9702  144.8353  158.2206 C   0  0  0  0  0  0  0  0  0  0  0  0
  151.0329  143.8229  157.5415 C   0  0  0  0  0  0  0  0  0  0  0  0
  148.7711  135.2062  159.8832 H   0  0  0  0  0  0  0  0  0  0  0  0
  147.8048  135.3663  162.9752 H   0  0  0  0  0  0  0  0  0  0  0  0
  145.3280  135.7662  161.6370 H   0  0  0  0  0  0  0  0  0  0  0  0
  146.2486  136.9512  159.7976 H   0  0  0  0  0  0  0  0  0  0  0  0
  149.9394  139.6886  153.1135 H   0  0  0  0  0  0  0  0  0  0  0  0
  148.6531  141.0812  154.0355 H   0  0  0  0  0  0  0  0  0  0  0  0
  148.9209  139.9633  155.3670 H   0  0  0  0  0  0  0  0  0  0  0  0
  150.9256  142.2068  154.8724 H   0  0  0  0  0  0  0  0  0  0  0  0
  149.3909  142.5785  155.6157 H   0  0  0  0  0  0  0  0  0  0  0  0
  149.8394  141.2320  157.5338 H   0  0  0  0  0  0  0  0  0  0  0  0
  151.9843  140.0018  155.8890 H   0  0  0  0  0  0  0  0  0  0  0  0
  153.2175  137.2513  159.5738 H   0  0  0  0  0  0  0  0  0  0  0  0
  146.9580  137.9211  158.2330 H   0  0  0  0  0  0  0  0  0  0  0  0
  146.4020  138.0453  162.3923 H   0  0  0  0  0  0  0  0  0  0  0  0
  146.1424  137.0122  163.7846 H   0  0  0  0  0  0  0  0  0  0  0  0
  148.4203  137.2686  164.2243 H   0  0  0  0  0  0  0  0  0  0  0  0
  146.3575  133.6878  160.6074 H   0  0  0  0  0  0  0  0  0  0  0  0
  145.6797  134.4671  159.3175 H   0  0  0  0  0  0  0  0  0  0  0  0
  152.5438  142.4380  156.9035 H   0  0  0  0  0  0  0  0  0  0  0  0
  151.1292  141.8623  159.5495 H   0  0  0  0  0  0  0  0  0  0  0  0
  152.5187  141.0017  158.9424 H   0  0  0  0  0  0  0  0  0  0  0  0
  153.2007  142.6646  160.6276 H   0  0  0  0  0  0  0  0  0  0  0  0
  153.9197  143.0157  159.0740 H   0  0  0  0  0  0  0  0  0  0  0  0
  151.4629  144.3868  160.2729 H   0  0  0  0  0  0  0  0  0  0  0  0
  153.0484  145.0994  160.0792 H   0  0  0  0  0  0  0  0  0  0  0  0
  151.4938  145.8154  158.2561 H   0  0  0  0  0  0  0  0  0  0  0  0
  152.8739  144.9532  157.6213 H   0  0  0  0  0  0  0  0  0  0  0  0
  150.8363  144.1894  156.5352 H   0  0  0  0  0  0  0  0  0  0  0  0
  150.0742  143.8059  158.0612 H   0  0  0  0  0  0  0  0  0  0  0  0
  1  2  1  0  0  0  0
  1 34  1  0  0  0  0
  2  3  1  0  0  0  0
  2 35  1  0  0  0  0
  2 36  1  0  0  0  0
  3  4  1  0  0  0  0
  3 37  1  0  0  0  0
  3 38  1  0  0  0  0
  4  5  1  0  0  0  0
  4 24  1  0  0  0  0
  4 39  1  0  0  0  0
  5  6  1  0  0  0  0
  5 40  1  0  0  0  0
  6 11  1  0  0  0  0
  6  7  2  0  0  0  0
  7  8  1  0  0  0  0
  8  9  2  0  0  0  0
  8 41  1  0  0  0  0
  9 10  1  0  0  0  0
 10 14  1  0  0  0  0
 10 11  2  0  0  0  0
 11 12  1  0  0  0  0
 12 13  2  0  0  0  0
 13 14  1  0  0  0  0
 13 42  1  0  0  0  0
 14 15  1  0  0  0  0
 15 30  1  0  0  0  0
 15 22  1  0  0  0  0
 15 16  1  0  0  0  0
 16 17  1  0  0  0  0
 17 31  1  0  0  0  0
 17 18  1  0  0  0  0
 17 20  1  0  0  0  0
 18 19  1  0  0  0  0
 18 43  1  0  0  0  0
 18 44  1  0  0  0  0
 19 45  1  0  0  0  0
 20 32  1  0  0  0  0
 20 21  1  0  0  0  0
 20 22  1  0  0  0  0
 21 46  1  0  0  0  0
 22 33  1  0  0  0  0
 22 23  1  0  0  0  0
 23 47  1  0  0  0  0
 24 29  1  0  0  0  0
 24 25  1  0  0  0  0
 24 48  1  0  0  0  0
 25 26  1  0  0  0  0
 25 49  1  0  0  0  0
 25 50  1  0  0  0  0
 26 27  1  0  0  0  0
 26 51  1  0  0  0  0
 26 52  1  0  0  0  0
 27 28  1  0  0  0  0
 27 53  1  0  0  0  0
 27 54  1  0  0  0  0
 28 29  1  0  0  0  0
 28 55  1  0  0  0  0
 28 56  1  0  0  0  0
 29 57  1  0  0  0  0
 29 58  1  0  0  0  0
M  END
> <s_m_source_file>
AV-unprocessed.smi

> <i_m_source_file_index>
109

> <i_lp_mmshare_version>
43012

> <i_f3d_flags>
0

> <s_epik_input>
W0NIMl0xW0NIMl1bQ0gyXVtDSDJdW0NIMl1bQ0hdMVtDQEhdKFtDSDJdW0NIMl1bT0hdKVtOSF1jKG5bY0hdbjIpYyhjMjMpbltjSF1uM1tDQEBIXTRPW0NASF0oW0NIMl1bT0hdKVtDQEBIXShbT0hdKVtDQEhdNFtPSF0=

> <s_epik_cmdline>
J2VwaWtfcHl0aG9uJywgJy1waCcsICc3LjAnLCAnLXRuJywgJzgnLCAnLW1hJywgJzIwMCcsICctbWV0YWxfYmluZGluZycsICctaW1hZScsICc8aW5maWxlLm1hZT4nLCAnLW9tYWUnLCAnPG91dGZpbGUubWFlPic=

> <r_lp_tautomer_probability>
1

> <r_epik_Ionization_Penalty>
0.000793976

> <r_epik_Ionization_Penalty_Charging>
0

> <r_epik_Ionization_Penalty_Neutral>
0.000793976

> <r_epik_State_Penalty>
-0

> <r_epik_Charging_Adjusted_Penalty>
0

> <i_epik_Tot_Q>
0

> <i_epik_Tot_abs_Q>
0

> <r_epik_Metal_State_Penalty>
-0

> <b_epik_Metal_Only>
0

> <s_epik_Chemistry_Notes>
This compound contains an acetal/aminal-like group ( X-CH(R)-Y where X, Y are N, S, or O) that may be acid/base labile, releasing an aldehyde.

> <s_lp_Force_Field>
OPLS_2005

> <r_lp_Energy>
55.705

> <b_lp_Chiralities_Consistent>
1

> <s_lp_Variant>
AV-unprocessed.smi:109-32

> <Gold.Version>
5.8.1

> <Gold.Id.Protein>
6NUR|6NUR_protein|mol2

> <Gold.PLP.Fitness>
59.0752

> <Gold.PLP.PLP>
-49.3214

> <Gold.PLP.part.hbond>
-5.0000

> <Gold.PLP.part.metal>
0.0000

> <Gold.PLP.part.buried>
-5.1368

> <Gold.PLP.part.nonpolar>
-38.8422

> <Gold.PLP.part.repulsive>
0.0978

> <Gold.PLP.ligand.clash>
0.0000

> <Gold.PLP.ligand.torsion>
1.1813

> <Gold.PLP.Chemscore.Hbond>
3.9920

> <Gold.PLP.Chemscore.CHOScore>
0.0000

> <Gold.PLP.Chemscore.Metal>
0.0000

> <Gold.Chemscore.Hbonds>
donor molecule, donor type, donor heavy atom, donor atom, acceptor molecule, acceptor atom, score
      L1  H     1    34       P1  7957  0.96
      P1  H  6896  6907       L1     9  1.00
      P1  H  6931  6943       L1    16  1.00
      P1  H  7989  7998       L1     1  0.99

> <Gold.PLP.Chemscore.Internal.Correction>
0.1404

> <Gold.Rescore>
     Score         DG    S(hbond)    S(metal)    S(lipo)     H(rot)  DE(clash)    DE(int)     intcor
     14.77     -16.46       3.25        0.00     120.80       5.47       0.27       1.42       ----

> <Gold.Chemscore.Fitness>
14.7699

> <Gold.Chemscore.DG>
-16.4591

> <Gold.Chemscore.ZeroCoef>
-5.4800

> <Gold.Chemscore.Hbond>
3.2452

> <Gold.Chemscore.Metal>
0.0000

> <Gold.Chemscore.Lipo>
120.7988

> <Gold.Chemscore.Internal_Hbond>
0.0000

> <Gold.Chemscore.DEClash>
0.2696

> <Gold.Chemscore.DEInternal>
1.4195

> <Gold.Chemscore.Rot>
5.4662

> <Gold.Chemscore.Internal.Correction>
   9.000000E+99

> <Gold.Chemscore.Hbonds>
donor molecule, donor type, donor heavy atom, donor atom, acceptor molecule, acceptor atom, score
      L1  H     1    34       P1  7957  0.88
      P1  H  6896  6907       L1     9  0.84
      P1  H  6931  6943       L1    16  0.74
      P1  H  7989  7998       L1     1  0.40

> <Gold.Chemscore.Hbond.Weighted>
-10.8391

> <Gold.Chemscore.Metal.Weighted>
-0.0000

> <Gold.Chemscore.Lipo.Weighted>
-14.1335

> <Gold.Chemscore.Internal_Hbond.Weighted>
0.0000

> <Gold.Chemscore.DEClash.Weighted>
0.2696

> <Gold.Chemscore.DEInternal.Weighted>
1.4195

> <Gold.Chemscore.Rot.Weighted>
13.9935

> <Gold.Chemscore.Internal.Correction.Weighted>
   9.000000E+99

> <Gold.Protein.RotatedTorsions>
[ 6907 6896 6895 6894 ] final  -27.83 input  -60.11 | X-H torsion
[ 7974 7965 7964 7962 ] final -148.42 input  175.53 | X-H torsion
[ 8008 7997 7996 7995 ] final  -67.03 input   59.86 | X-H torsion
[ 10167 10162 10161 10158 ] final    5.67 input  -65.29 | X-H torsion
[ 10718 10713 10712 10709 ] final   62.86 input   66.30 | X-H torsion
[ 10763 10752 10751 10750 ] final  166.13 input  -60.55 | X-H torsion
[ 11005 11000 10999 10996 ] final  101.19 input  -57.11 | X-H torsion

> <Gold.Protein.ActiveResidues>
 VAL166  LYS551  ARG553  GLY616  TRP617  ASP618  TYR619  PRO620  LYS621  CYS622 
 ASP623  PHE694  ASN695  SER759  ASP760  ASP761  ALA762  ILE779  LEU786  VAL792 
 PHE793  MET794  SER795  GLU796  ALA797  LYS798  CYS799  TRP800  GLU811  SER814 

> <Gold.Protein.RotatedAtoms>
  151.1415  135.0182  159.8627 H   0  0  0  0  0  0  0  0  0  0  0  0  # atno 6907 bound_to 6896
  152.5452  134.1494  159.8522 H   0  0  0  0  0  0  0  0  0  0  0  0  # atno 6908 bound_to 6896
  151.1570  133.4824  159.2627 H   0  0  0  0  0  0  0  0  0  0  0  0  # atno 6909 bound_to 6896
  144.8030  140.5199  143.5694 H   0  0  0  0  0  0  0  0  0  0  0  0  # atno 7974 bound_to 7965
  154.4773  140.0901  156.7292 H   0  0  0  0  0  0  0  0  0  0  0  0  # atno 8008 bound_to 7997
  155.4564  140.3459  155.4289 H   0  0  0  0  0  0  0  0  0  0  0  0  # atno 8009 bound_to 7997
  156.1136  140.1454  156.9292 H   0  0  0  0  0  0  0  0  0  0  0  0  # atno 8010 bound_to 7997
  140.6470  143.7639  150.7514 H   0  0  0  0  0  0  0  0  0  0  0  0  # atno 10167 bound_to 10162
  157.5931  130.9074  149.9642 H   0  0  0  0  0  0  0  0  0  0  0  0  # atno 10718 bound_to 10713
  154.3345  135.2754  155.2455 H   0  0  0  0  0  0  0  0  0  0  0  0  # atno 10763 bound_to 10752
  154.4752  135.5872  153.6353 H   0  0  0  0  0  0  0  0  0  0  0  0  # atno 10764 bound_to 10752
  152.9863  135.6098  154.3540 H   0  0  0  0  0  0  0  0  0  0  0  0  # atno 10765 bound_to 10752
  139.8772  134.9172  156.4869 H   0  0  0  0  0  0  0  0  0  0  0  0  # atno 11005 bound_to 11000
  145.5505  139.1476  143.3396 LP  0  0  0  0  0  0  0  0  0  0  0  0  # atno 17320 bound_to 7965
  146.2316  140.5643  142.8973 LP  0  0  0  0  0  0  0  0  0  0  0  0  # atno 17321 bound_to 7965
  140.1282  143.4550  152.2271 LP  0  0  0  0  0  0  0  0  0  0  0  0  # atno 17342 bound_to 10162
  139.5681  144.7447  151.3966 LP  0  0  0  0  0  0  0  0  0  0  0  0  # atno 17343 bound_to 10162
  156.0989  130.3657  150.0255 LP  0  0  0  0  0  0  0  0  0  0  0  0  # atno 17370 bound_to 10713
  156.8374  130.9413  151.3634 LP  0  0  0  0  0  0  0  0  0  0  0  0  # atno 17371 bound_to 10713
  140.8686  133.8005  155.9341 LP  0  0  0  0  0  0  0  0  0  0  0  0  # atno 17394 bound_to 11000
  140.8975  134.2419  157.5060 LP  0  0  0  0  0  0  0  0  0  0  0  0  # atno 17395 bound_to 11000

$$$$
