AV-unprocessed.smi:1236|AV-procd|sdf|5179|dock4
  -GOLD-   22720 4263D 1   1.00000     0.00000
 Structure written by MMmdl.
 39 40  0  0  0  0  0  0  0  0  1 V2000
  149.9820  140.3483  154.5578 C   0  0  0  0  0  0  0  0  0  0  0  0
  148.7660  141.0518  155.1751 C   0  0  2  0  0  0  0  0  0  0  0  0
  147.8023  141.5638  154.0829 C   0  0  0  0  0  0  0  0  0  0  0  0
  146.7450  142.4661  154.5420 N   0  0  0  0  0  0  0  0  0  0  0  0
  145.8421  141.8372  155.5036 C   0  0  0  0  0  0  0  0  0  0  0  0
  144.7363  142.8026  155.9634 C   0  0  0  0  0  0  0  0  0  0  0  0
  144.0179  143.2814  154.8309 O   0  0  0  0  0  0  0  0  0  0  0  0
  144.8564  143.9382  153.8861 C   0  0  0  0  0  0  0  0  0  0  0  0
  145.9623  142.9750  153.4215 C   0  0  0  0  0  0  0  0  0  0  0  0
  149.2277  142.1649  156.0037 N   0  0  0  0  0  0  0  0  0  0  0  0
  149.8096  142.0595  157.2080 C   0  0  0  0  0  0  0  0  0  0  0  0
  150.0570  140.9844  157.7552 O   0  0  0  0  0  0  0  0  0  0  0  0
  150.0734  143.2722  157.7255 N   0  0  0  0  0  0  0  0  0  0  0  0
  150.6702  143.5823  158.9766 C   0  0  0  0  0  0  0  0  0  0  0  0
  150.7187  144.9592  159.2915 C   0  0  0  0  0  0  0  0  0  0  0  0
  151.2909  145.3716  160.5105 C   0  0  0  0  0  0  0  0  0  0  0  0
  151.8017  144.3952  161.3841 C   0  0  0  0  0  0  0  0  0  0  0  0
  151.7148  143.0461  160.9941 C   0  0  0  0  0  0  0  0  0  0  0  0
  151.1665  142.6488  159.8267 N   0  0  0  0  0  0  0  0  0  0  0  0
  149.6741  139.4999  153.9462 H   0  0  0  0  0  0  0  0  0  0  0  0
  150.6511  139.9697  155.3313 H   0  0  0  0  0  0  0  0  0  0  0  0
  150.5548  141.0252  153.9231 H   0  0  0  0  0  0  0  0  0  0  0  0
  148.2547  140.3087  155.7880 H   0  0  0  0  0  0  0  0  0  0  0  0
  148.4002  142.0800  153.3304 H   0  0  0  0  0  0  0  0  0  0  0  0
  147.3535  140.7121  153.5696 H   0  0  0  0  0  0  0  0  0  0  0  0
  145.3868  140.9507  155.0599 H   0  0  0  0  0  0  0  0  0  0  0  0
  146.3926  141.4995  156.3802 H   0  0  0  0  0  0  0  0  0  0  0  0
  144.0452  142.2954  156.6366 H   0  0  0  0  0  0  0  0  0  0  0  0
  145.1632  143.6417  156.5147 H   0  0  0  0  0  0  0  0  0  0  0  0
  144.2533  144.2621  153.0379 H   0  0  0  0  0  0  0  0  0  0  0  0
  145.2885  144.8343  154.3340 H   0  0  0  0  0  0  0  0  0  0  0  0
  146.6155  143.4918  152.7175 H   0  0  0  0  0  0  0  0  0  0  0  0
  145.5113  142.1442  152.8767 H   0  0  0  0  0  0  0  0  0  0  0  0
  149.0652  143.0919  155.6395 H   0  0  0  0  0  0  0  0  0  0  0  0
  149.8091  144.0668  157.1624 H   0  0  0  0  0  0  0  0  0  0  0  0
  150.3217  145.6960  158.6085 H   0  0  0  0  0  0  0  0  0  0  0  0
  151.3368  146.4189  160.7697 H   0  0  0  0  0  0  0  0  0  0  0  0
  152.2486  144.6722  162.3275 H   0  0  0  0  0  0  0  0  0  0  0  0
  152.0959  142.2653  161.6355 H   0  0  0  0  0  0  0  0  0  0  0  0
  1  2  1  0  0  0  0
  1 20  1  0  0  0  0
  1 21  1  0  0  0  0
  1 22  1  0  0  0  0
  2  3  1  0  0  0  0
  2 10  1  0  0  0  0
  2 23  1  0  0  0  0
  3  4  1  0  0  0  0
  3 24  1  0  0  0  0
  3 25  1  0  0  0  0
  4  9  1  0  0  0  0
  4  5  1  0  0  0  0
  5  6  1  0  0  0  0
  5 26  1  0  0  0  0
  5 27  1  0  0  0  0
  6  7  1  0  0  0  0
  6 28  1  0  0  0  0
  6 29  1  0  0  0  0
  7  8  1  0  0  0  0
  8  9  1  0  0  0  0
  8 30  1  0  0  0  0
  8 31  1  0  0  0  0
  9 32  1  0  0  0  0
  9 33  1  0  0  0  0
 10 11  1  0  0  0  0
 10 34  1  0  0  0  0
 11 12  2  0  0  0  0
 11 13  1  0  0  0  0
 13 14  1  0  0  0  0
 13 35  1  0  0  0  0
 14 19  1  0  0  0  0
 14 15  2  0  0  0  0
 15 16  1  0  0  0  0
 15 36  1  0  0  0  0
 16 17  2  0  0  0  0
 16 37  1  0  0  0  0
 17 18  1  0  0  0  0
 17 38  1  0  0  0  0
 18 19  2  0  0  0  0
 18 39  1  0  0  0  0
M  END
> <s_m_source_file>
AV-unprocessed.smi

> <i_m_source_file_index>
1236

> <i_lp_mmshare_version>
43012

> <i_f3d_flags>
0

> <s_epik_input>
W0NIMl0xW0NIMl1PW0NIMl1bQ0gyXU4xW0NIMl1bQ0BASF0oW0NIM10pW05IXUMoPU8pW05IXWMyW2NIXVtjSF1bY0hdW2NIXW4y

> <s_epik_cmdline>
J2VwaWtfcHl0aG9uJywgJy1waCcsICc3LjAnLCAnLXRuJywgJzgnLCAnLW1hJywgJzIwMCcsICctbWV0YWxfYmluZGluZycsICctaW1hZScsICc8aW5maWxlLm1hZT4nLCAnLW9tYWUnLCAnPG91dGZpbGUubWFlPic=

> <r_epik_Ionization_Penalty>
0.26604

> <r_epik_Ionization_Penalty_Charging>
0

> <r_epik_Ionization_Penalty_Neutral>
0.26604

> <r_epik_State_Penalty>
0.257924

> <r_epik_Charging_Adjusted_Penalty>
0.257924

> <i_epik_Tot_Q>
0

> <i_epik_Tot_abs_Q>
0

> <r_epik_Metal_State_Penalty>
0.257923

> <b_epik_Metal_Only>
0

> <s_lp_Force_Field>
OPLS_2005

> <r_lp_Energy>
27.6221

> <b_lp_Chiralities_Consistent>
1

> <s_lp_Variant>
AV-unprocessed.smi:1236-1

> <Gold.Version>
5.8.1

> <Gold.Id.Protein>
6NUR|6NUR_protein|mol2

> <Gold.PLP.Fitness>
44.3776

> <Gold.PLP.PLP>
-39.0837

> <Gold.PLP.part.hbond>
-2.0000

> <Gold.PLP.part.metal>
0.0000

> <Gold.PLP.part.buried>
-6.6090

> <Gold.PLP.part.nonpolar>
-29.9424

> <Gold.PLP.part.repulsive>
0.5314

> <Gold.PLP.ligand.clash>
0.0000

> <Gold.PLP.ligand.torsion>
0.2742

> <Gold.PLP.Chemscore.Hbond>
1.9440

> <Gold.PLP.Chemscore.CHOScore>
0.0000

> <Gold.PLP.Chemscore.Metal>
0.0000

> <Gold.Chemscore.Hbonds>
donor molecule, donor type, donor heavy atom, donor atom, acceptor molecule, acceptor atom, score
      L1  H    10    34       P1  8028  1.00
      L1  H    13    35       P1  8028  0.99

> <Gold.PLP.Chemscore.Internal.Correction>
0.0103

> <Gold.Rescore>
     Score         DG    S(hbond)    S(metal)    S(lipo)     H(rot)  DE(clash)    DE(int)     intcor
     15.94     -17.66       1.91        0.00      82.53       1.51       0.03       1.69       ----

> <Gold.Chemscore.Fitness>
15.9378

> <Gold.Chemscore.DG>
-17.6565

> <Gold.Chemscore.ZeroCoef>
-5.4800

> <Gold.Chemscore.Hbond>
1.9124

> <Gold.Chemscore.Metal>
0.0000

> <Gold.Chemscore.Lipo>
82.5277

> <Gold.Chemscore.Internal_Hbond>
0.0000

> <Gold.Chemscore.DEClash>
0.0297

> <Gold.Chemscore.DEInternal>
1.6890

> <Gold.Chemscore.Rot>
1.5104

> <Gold.Chemscore.Internal.Correction>
   9.000000E+99

> <Gold.Chemscore.Hbonds>
donor molecule, donor type, donor heavy atom, donor atom, acceptor molecule, acceptor atom, score
      L1  H    10    34       P1  8028  0.99
      L1  H    13    35       P1  8028  0.65

> <Gold.Chemscore.Hbond.Weighted>
-6.3873

> <Gold.Chemscore.Metal.Weighted>
-0.0000

> <Gold.Chemscore.Lipo.Weighted>
-9.6557

> <Gold.Chemscore.Internal_Hbond.Weighted>
0.0000

> <Gold.Chemscore.DEClash.Weighted>
0.0297

> <Gold.Chemscore.DEInternal.Weighted>
1.6890

> <Gold.Chemscore.Rot.Weighted>
3.8665

> <Gold.Chemscore.Internal.Correction.Weighted>
   9.000000E+99

> <Gold.Protein.RotatedTorsions>
[ 6907 6896 6895 6894 ] final  163.72 input  -60.11 | X-H torsion
[ 7974 7965 7964 7962 ] final  175.56 input  175.53 | X-H torsion
[ 8008 7997 7996 7995 ] final  -97.59 input   59.86 | X-H torsion
[ 10167 10162 10161 10158 ] final   68.12 input  -65.29 | X-H torsion
[ 10718 10713 10712 10709 ] final   51.63 input   66.30 | X-H torsion
[ 10763 10752 10751 10750 ] final -169.43 input  -60.55 | X-H torsion
[ 11005 11000 10999 10996 ] final  167.44 input  -57.11 | X-H torsion

> <Gold.Protein.ActiveResidues>
 VAL166  LYS551  ARG553  GLY616  TRP617  ASP618  TYR619  PRO620  LYS621  CYS622 
 ASP623  PHE694  ASN695  SER759  ASP760  ASP761  ALA762  ILE779  LEU786  VAL792 
 PHE793  MET794  SER795  GLU796  ALA797  LYS798  CYS799  TRP800  GLU811  SER814 

> <Gold.Protein.RotatedAtoms>
  151.9209  133.3585  159.3896 H   0  0  0  0  0  0  0  0  0  0  0  0  # atno 6907 bound_to 6896
  150.7037  134.4636  159.5401 H   0  0  0  0  0  0  0  0  0  0  0  0  # atno 6908 bound_to 6896
  152.2259  134.8368  160.0531 H   0  0  0  0  0  0  0  0  0  0  0  0  # atno 6909 bound_to 6896
  144.7199  139.9966  143.6440 H   0  0  0  0  0  0  0  0  0  0  0  0  # atno 7974 bound_to 7965
  154.7897  140.0462  157.1192 H   0  0  0  0  0  0  0  0  0  0  0  0  # atno 8008 bound_to 7997
  154.9605  140.3077  155.5013 H   0  0  0  0  0  0  0  0  0  0  0  0  # atno 8009 bound_to 7997
  156.2948  140.2271  156.4690 H   0  0  0  0  0  0  0  0  0  0  0  0  # atno 8010 bound_to 7997
  140.0822  144.5061  150.7155 H   0  0  0  0  0  0  0  0  0  0  0  0  # atno 10167 bound_to 10162
  157.4999  130.8431  149.8304 H   0  0  0  0  0  0  0  0  0  0  0  0  # atno 10718 bound_to 10713
  154.6523  135.2913  154.9971 H   0  0  0  0  0  0  0  0  0  0  0  0  # atno 10763 bound_to 10752
  154.1060  135.6569  153.4880 H   0  0  0  0  0  0  0  0  0  0  0  0  # atno 10764 bound_to 10752
  153.0383  135.5254  154.7437 H   0  0  0  0  0  0  0  0  0  0  0  0  # atno 10765 bound_to 10752
  140.2768  134.7782  157.3724 H   0  0  0  0  0  0  0  0  0  0  0  0  # atno 11005 bound_to 11000
  146.0369  139.3386  143.0721 LP  0  0  0  0  0  0  0  0  0  0  0  0  # atno 17320 bound_to 7965
  145.8383  140.9594  143.0813 LP  0  0  0  0  0  0  0  0  0  0  0  0  # atno 17321 bound_to 7965
  140.7072  143.2477  151.4691 LP  0  0  0  0  0  0  0  0  0  0  0  0  # atno 17342 bound_to 10162
  139.5773  144.1789  152.1921 LP  0  0  0  0  0  0  0  0  0  0  0  0  # atno 17343 bound_to 10162
  156.0223  130.3791  150.1925 LP  0  0  0  0  0  0  0  0  0  0  0  0  # atno 17370 bound_to 10713
  157.0115  130.9952  151.3364 LP  0  0  0  0  0  0  0  0  0  0  0  0  # atno 17371 bound_to 10713
  140.1321  134.5082  155.8097 LP  0  0  0  0  0  0  0  0  0  0  0  0  # atno 17394 bound_to 11000
  141.2169  133.6793  156.7058 LP  0  0  0  0  0  0  0  0  0  0  0  0  # atno 17395 bound_to 11000

$$$$
