AV-unprocessed.smi:1809|AV-procd|sdf|7310|dock7
  -GOLD-   22720 8563D 1   1.00000     0.00000
 Structure written by MMmdl.
 40 42  0  0  0  0  0  0  0  0  2 V2000
  145.8777  129.5934  152.0638 C   0  0  0  0  0  0  0  0  0  0  0  0
  146.7877  130.6218  152.6435 C   0  0  0  0  0  0  0  0  0  0  0  0
  147.7577  130.3241  153.5169 N   0  0  0  0  0  0  0  0  0  0  0  0
  148.4720  131.4462  153.9125 N   0  0  0  0  0  0  0  0  0  0  0  0
  148.0169  132.5614  153.3247 C   0  0  0  0  0  0  0  0  0  0  0  0
  148.5666  133.8515  153.5481 N   0  0  0  0  0  0  0  0  0  0  0  0
  149.3648  134.2533  154.5525 C   0  0  0  0  0  0  0  0  0  0  0  0
  149.7503  133.5448  155.4823 O   0  0  0  0  0  0  0  0  0  0  0  0
  149.7016  135.5441  154.4190 N   0  0  0  0  0  0  0  0  0  0  0  0
  150.5752  136.2853  155.3227 C   0  0  0  0  0  0  0  0  0  0  0  0
  151.4917  137.2611  154.5527 C   0  0  1  0  0  0  0  0  0  0  0  0
  150.7088  138.3998  153.8532 C   0  0  0  0  0  0  0  0  0  0  0  0
  150.3017  139.3991  154.8582 N   0  3  2  0  0  0  0  0  0  0  0  0
  149.5352  140.5711  154.4008 C   0  0  0  0  0  0  0  0  0  0  0  0
  149.8000  141.6573  155.4621 C   0  0  0  0  0  0  0  0  0  0  0  0
  150.8670  141.0698  156.4029 C   0  0  0  0  0  0  0  0  0  0  0  0
  151.4580  139.9257  155.5851 C   0  0  1  0  0  0  0  0  0  0  0  0
  152.1310  138.7770  156.3421 C   0  0  0  0  0  0  0  0  0  0  0  0
  152.5352  137.7933  155.3846 O   0  0  0  0  0  0  0  0  0  0  0  0
  146.6646  132.3275  152.2302 S   0  0  0  0  0  0  0  0  0  0  0  0
  146.2117  128.5898  152.3293 H   0  0  0  0  0  0  0  0  0  0  0  0
  145.8624  129.6791  150.9771 H   0  0  0  0  0  0  0  0  0  0  0  0
  144.8654  129.7374  152.4415 H   0  0  0  0  0  0  0  0  0  0  0  0
  148.3299  134.5474  152.8566 H   0  0  0  0  0  0  0  0  0  0  0  0
  149.3357  136.0498  153.6254 H   0  0  0  0  0  0  0  0  0  0  0  0
  149.9308  136.8514  155.9958 H   0  0  0  0  0  0  0  0  0  0  0  0
  151.1485  135.6104  155.9593 H   0  0  0  0  0  0  0  0  0  0  0  0
  151.9878  136.6834  153.7718 H   0  0  0  0  0  0  0  0  0  0  0  0
  151.3384  138.8787  153.1016 H   0  0  0  0  0  0  0  0  0  0  0  0
  149.8323  138.0106  153.3339 H   0  0  0  0  0  0  0  0  0  0  0  0
  149.9026  140.9011  153.4276 H   0  0  0  0  0  0  0  0  0  0  0  0
  148.4761  140.3315  154.3015 H   0  0  0  0  0  0  0  0  0  0  0  0
  150.1632  142.5679  154.9843 H   0  0  0  0  0  0  0  0  0  0  0  0
  148.8941  141.9140  156.0121 H   0  0  0  0  0  0  0  0  0  0  0  0
  151.6154  141.8029  156.7057 H   0  0  0  0  0  0  0  0  0  0  0  0
  150.3920  140.6808  157.3048 H   0  0  0  0  0  0  0  0  0  0  0  0
  152.1654  140.3455  154.8662 H   0  0  0  0  0  0  0  0  0  0  0  0
  153.0114  139.1355  156.8755 H   0  0  0  0  0  0  0  0  0  0  0  0
  151.4589  138.3508  157.0862 H   0  0  0  0  0  0  0  0  0  0  0  0
  149.7261  138.9270  155.5411 H   0  0  0  0  0  0  0  0  0  0  0  0
  1  2  1  0  0  0  0
  1 21  1  0  0  0  0
  1 22  1  0  0  0  0
  1 23  1  0  0  0  0
  2 20  1  0  0  0  0
  2  3  2  0  0  0  0
  3  4  1  0  0  0  0
  4  5  2  0  0  0  0
  5  6  1  0  0  0  0
  5 20  1  0  0  0  0
  6  7  1  0  0  0  0
  6 24  1  0  0  0  0
  7  8  2  0  0  0  0
  7  9  1  0  0  0  0
  9 10  1  0  0  0  0
  9 25  1  0  0  0  0
 10 11  1  0  0  0  0
 10 26  1  0  0  0  0
 10 27  1  0  0  0  0
 11 19  1  0  0  0  0
 11 12  1  0  0  0  0
 11 28  1  0  0  0  0
 12 13  1  0  0  0  0
 12 29  1  0  0  0  0
 12 30  1  0  0  0  0
 13 17  1  0  0  0  0
 13 14  1  0  0  0  0
 13 40  1  0  0  0  0
 14 15  1  0  0  0  0
 14 31  1  0  0  0  0
 14 32  1  0  0  0  0
 15 16  1  0  0  0  0
 15 33  1  0  0  0  0
 15 34  1  0  0  0  0
 16 17  1  0  0  0  0
 16 35  1  0  0  0  0
 16 36  1  0  0  0  0
 17 18  1  0  0  0  0
 17 37  1  0  0  0  0
 18 19  1  0  0  0  0
 18 38  1  0  0  0  0
 18 39  1  0  0  0  0
M  CHG  1  13   1
M  END
> <s_m_source_file>
AV-unprocessed.smi

> <i_m_source_file_index>
1809

> <i_lp_mmshare_version>
43012

> <i_f3d_flags>
0

> <s_epik_input>
W0NIM11jMW5uYyhzMSlbTkhdQyg9TylbTkhdW0NIMl1bQ0BIXShbQ0gyXTIpT1tDSDJdW0NAQEhdKE4yMylbQ0gyXVtDSDJdW0NIMl0z

> <s_epik_cmdline>
J2VwaWtfcHl0aG9uJywgJy1waCcsICc3LjAnLCAnLXRuJywgJzgnLCAnLW1hJywgJzIwMCcsICctbWV0YWxfYmluZGluZycsICctaW1hZScsICc8aW5maWxlLm1hZT4nLCAnLW9tYWUnLCAnPG91dGZpbGUubWFlPic=

> <r_lp_tautomer_probability>
1

> <r_epik_Ionization_Penalty>
0.112474

> <r_epik_Ionization_Penalty_Charging>
0.108916

> <r_epik_Ionization_Penalty_Neutral>
0.00355844

> <r_epik_State_Penalty>
0.0565397

> <r_epik_Charging_Adjusted_Penalty>
0.165456

> <i_epik_Tot_Q>
1

> <i_epik_Tot_abs_Q>
1

> <r_epik_Metal_State_Penalty>
0.422831

> <b_epik_Metal_Only>
0

> <s_lp_Force_Field>
OPLS_2005

> <r_lp_Energy>
36.2916

> <b_lp_Chiralities_Consistent>
1

> <s_lp_Variant>
AV-unprocessed.smi:1809-2

> <Gold.Version>
5.8.1

> <Gold.Id.Protein>
6NUR|6NUR_protein|mol2

> <Gold.PLP.Fitness>
39.7380

> <Gold.PLP.PLP>
-34.5151

> <Gold.PLP.part.hbond>
-3.0876

> <Gold.PLP.part.metal>
0.0000

> <Gold.PLP.part.buried>
-0.6968

> <Gold.PLP.part.nonpolar>
-29.5486

> <Gold.PLP.part.repulsive>
0.3512

> <Gold.PLP.ligand.clash>
0.0000

> <Gold.PLP.ligand.torsion>
0.2617

> <Gold.PLP.Chemscore.Hbond>
1.9120

> <Gold.PLP.Chemscore.CHOScore>
0.0000

> <Gold.PLP.Chemscore.Metal>
0.0000

> <Gold.Chemscore.Hbonds>
donor molecule, donor type, donor heavy atom, donor atom, acceptor molecule, acceptor atom, score
      L1  H     6    24       P1  7948  0.91
      L1  H     9    25       P1  7948  1.00

> <Gold.PLP.Chemscore.Internal.Correction>
0.0103

> <Gold.Rescore>
     Score         DG    S(hbond)    S(metal)    S(lipo)     H(rot)  DE(clash)    DE(int)     intcor
     14.39     -15.88       1.42        0.00      77.66       1.34       0.02       1.46       ----

> <Gold.Chemscore.Fitness>
14.3908

> <Gold.Chemscore.DG>
-15.8802

> <Gold.Chemscore.ZeroCoef>
-5.4800

> <Gold.Chemscore.Hbond>
1.4199

> <Gold.Chemscore.Metal>
0.0000

> <Gold.Chemscore.Lipo>
77.6560

> <Gold.Chemscore.Internal_Hbond>
0.0000

> <Gold.Chemscore.DEClash>
0.0248

> <Gold.Chemscore.DEInternal>
1.4646

> <Gold.Chemscore.Rot>
1.3391

> <Gold.Chemscore.Internal.Correction>
   9.000000E+99

> <Gold.Chemscore.Hbonds>
donor molecule, donor type, donor heavy atom, donor atom, acceptor molecule, acceptor atom, score
      L1  H     6    24       P1  7948  0.33
      L1  H     9    25       P1  7948  0.67

> <Gold.Chemscore.Hbond.Weighted>
-4.7425

> <Gold.Chemscore.Metal.Weighted>
-0.0000

> <Gold.Chemscore.Lipo.Weighted>
-9.0858

> <Gold.Chemscore.Internal_Hbond.Weighted>
0.0000

> <Gold.Chemscore.DEClash.Weighted>
0.0248

> <Gold.Chemscore.DEInternal.Weighted>
1.4646

> <Gold.Chemscore.Rot.Weighted>
3.4281

> <Gold.Chemscore.Internal.Correction.Weighted>
   9.000000E+99

> <Gold.Protein.RotatedTorsions>
[ 6907 6896 6895 6894 ] final  -46.24 input  -60.11 | X-H torsion
[ 7974 7965 7964 7962 ] final -150.25 input  175.53 | X-H torsion
[ 8008 7997 7996 7995 ] final   44.42 input   59.86 | X-H torsion
[ 10167 10162 10161 10158 ] final  125.96 input  -65.29 | X-H torsion
[ 10718 10713 10712 10709 ] final   -7.15 input   66.30 | X-H torsion
[ 10763 10752 10751 10750 ] final  172.91 input  -60.55 | X-H torsion
[ 11005 11000 10999 10996 ] final  106.83 input  -57.11 | X-H torsion

> <Gold.Protein.ActiveResidues>
 VAL166  LYS551  ARG553  GLY616  TRP617  ASP618  TYR619  PRO620  LYS621  CYS622 
 ASP623  PHE694  ASN695  SER759  ASP760  ASP761  ALA762  ILE779  LEU786  VAL792 
 PHE793  MET794  SER795  GLU796  ALA797  LYS798  CYS799  TRP800  GLU811  SER814 

> <Gold.Protein.RotatedAtoms>
  150.9133  134.8551  159.7439 H   0  0  0  0  0  0  0  0  0  0  0  0  # atno 6907 bound_to 6896
  152.4956  134.4326  159.9527 H   0  0  0  0  0  0  0  0  0  0  0  0  # atno 6908 bound_to 6896
  151.4366  133.3615  159.2811 H   0  0  0  0  0  0  0  0  0  0  0  0  # atno 6909 bound_to 6896
  144.7919  140.4957  143.5767 H   0  0  0  0  0  0  0  0  0  0  0  0  # atno 7974 bound_to 7965
  155.3190  140.3395  155.4241 H   0  0  0  0  0  0  0  0  0  0  0  0  # atno 8008 bound_to 7997
  156.1918  140.1700  156.8114 H   0  0  0  0  0  0  0  0  0  0  0  0  # atno 8009 bound_to 7997
  154.5451  140.0717  156.8559 H   0  0  0  0  0  0  0  0  0  0  0  0  # atno 8010 bound_to 7997
  139.5657  144.6909  151.3917 H   0  0  0  0  0  0  0  0  0  0  0  0  # atno 10167 bound_to 10162
  156.7214  130.5152  149.5867 H   0  0  0  0  0  0  0  0  0  0  0  0  # atno 10718 bound_to 10713
  154.4327  135.2760  155.1901 H   0  0  0  0  0  0  0  0  0  0  0  0  # atno 10763 bound_to 10752
  154.3801  135.6089  153.5789 H   0  0  0  0  0  0  0  0  0  0  0  0  # atno 10764 bound_to 10752
  152.9837  135.5878  154.4641 H   0  0  0  0  0  0  0  0  0  0  0  0  # atno 10765 bound_to 10752
  139.8819  134.9382  156.5727 H   0  0  0  0  0  0  0  0  0  0  0  0  # atno 11005 bound_to 11000
  145.5773  139.1487  143.3255 LP  0  0  0  0  0  0  0  0  0  0  0  0  # atno 17320 bound_to 7965
  146.2174  140.5904  142.9032 LP  0  0  0  0  0  0  0  0  0  0  0  0  # atno 17321 bound_to 7965
  140.6940  143.7793  150.7298 LP  0  0  0  0  0  0  0  0  0  0  0  0  # atno 17342 bound_to 10162
  140.1284  143.4548  152.2270 LP  0  0  0  0  0  0  0  0  0  0  0  0  # atno 17343 bound_to 10162
  156.1592  130.6362  151.0696 LP  0  0  0  0  0  0  0  0  0  0  0  0  # atno 17370 bound_to 10713
  157.6896  131.0814  150.7145 LP  0  0  0  0  0  0  0  0  0  0  0  0  # atno 17371 bound_to 10713
  140.8086  133.8447  155.8790 LP  0  0  0  0  0  0  0  0  0  0  0  0  # atno 17394 bound_to 11000
  140.9527  134.1758  157.4715 LP  0  0  0  0  0  0  0  0  0  0  0  0  # atno 17395 bound_to 11000

$$$$
