AV-unprocessed.smi:134|AV-procd|sdf|1167|dock7
  -GOLD-   2262018313D 1   1.00000     0.00000
 Structure written by MMmdl.
 51 54  0  0  0  0  0  0  0  0  1 V2000
  151.6013  136.7770  156.1065 O   0  0  0  0  0  0  0  0  0  0  0  0
  150.7598  136.9128  155.2171 C   0  0  0  0  0  0  0  0  0  0  0  0
  150.7918  138.1390  154.2910 C   0  0  0  0  0  0  0  0  0  0  0  0
  150.4208  139.3995  154.9713 N   0  0  0  0  0  0  0  0  0  0  0  0
  149.1496  139.9634  154.6996 C   0  0  0  0  0  0  0  0  0  0  0  0
  148.3753  139.4375  153.8990 O   0  0  0  0  0  0  0  0  0  0  0  0
  148.8318  141.1821  155.4334 C   0  0  0  0  0  0  0  0  0  0  0  0
  147.6411  141.7780  155.2512 F   0  0  0  0  0  0  0  0  0  0  0  0
  149.7148  141.7212  156.2986 C   0  0  0  0  0  0  0  0  0  0  0  0
  150.9605  141.1754  156.5400 N   0  0  0  0  0  0  0  0  0  0  0  0
  151.8584  141.8308  157.5672 C   0  0  2  0  0  0  0  0  0  0  0  0
  151.9722  141.0458  158.8826 C   0  0  0  0  0  0  0  0  0  0  0  0
  152.0859  142.1723  159.8865 C   0  0  0  0  0  0  0  0  0  0  0  0
  151.1827  143.2363  159.2717 C   0  0  0  0  0  0  0  0  0  0  0  0
  151.3640  143.1047  157.8640 O   0  0  0  0  0  0  0  0  0  0  0  0
  151.3293  139.9713  155.8947 C   0  0  0  0  0  0  0  0  0  0  0  0
  152.4070  139.4247  156.1330 O   0  0  0  0  0  0  0  0  0  0  0  0
  149.7631  136.0420  154.9807 N   0  0  0  0  0  0  0  0  0  0  0  0
  149.4630  134.8504  155.6952 C   0  0  0  0  0  0  0  0  0  0  0  0
  150.4698  134.0941  156.3426 C   0  0  0  0  0  0  0  0  0  0  0  0
  150.1426  132.9065  157.0243 C   0  0  0  0  0  0  0  0  0  0  0  0
  148.8100  132.4567  157.0582 C   0  0  0  0  0  0  0  0  0  0  0  0
  147.8046  133.1919  156.4037 C   0  0  0  0  0  0  0  0  0  0  0  0
  148.1265  134.3814  155.7197 C   0  0  0  0  0  0  0  0  0  0  0  0
  146.8282  135.2760  154.9179 S   0  0  0  0  0  0  0  0  0  0  0  0
  146.5253  134.2158  153.5431 C   0  0  0  0  0  0  0  0  0  0  0  0
  145.6497  134.6253  152.5181 C   0  0  0  0  0  0  0  0  0  0  0  0
  145.4190  133.7812  151.4143 C   0  0  0  0  0  0  0  0  0  0  0  0
  146.0617  132.5295  151.3368 C   0  0  0  0  0  0  0  0  0  0  0  0
  145.7812  131.4974  149.9831 Cl  0  0  0  0  0  0  0  0  0  0  0  0
  146.9334  132.1201  152.3651 C   0  0  0  0  0  0  0  0  0  0  0  0
  147.1642  132.9624  153.4698 C   0  0  0  0  0  0  0  0  0  0  0  0
  151.7866  138.2042  153.8480 H   0  0  0  0  0  0  0  0  0  0  0  0
  150.1364  137.9570  153.4374 H   0  0  0  0  0  0  0  0  0  0  0  0
  149.4265  142.6224  156.8197 H   0  0  0  0  0  0  0  0  0  0  0  0
  152.8294  141.9521  157.0854 H   0  0  0  0  0  0  0  0  0  0  0  0
  151.0814  140.4499  159.0751 H   0  0  0  0  0  0  0  0  0  0  0  0
  152.8386  140.3843  158.8689 H   0  0  0  0  0  0  0  0  0  0  0  0
  151.7819  141.8832  160.8928 H   0  0  0  0  0  0  0  0  0  0  0  0
  153.1143  142.5335  159.9289 H   0  0  0  0  0  0  0  0  0  0  0  0
  150.1392  143.0444  159.5229 H   0  0  0  0  0  0  0  0  0  0  0  0
  151.4298  144.2420  159.6120 H   0  0  0  0  0  0  0  0  0  0  0  0
  149.0789  136.3224  154.2930 H   0  0  0  0  0  0  0  0  0  0  0  0
  151.5030  134.4065  156.3156 H   0  0  0  0  0  0  0  0  0  0  0  0
  150.9170  132.3378  157.5175 H   0  0  0  0  0  0  0  0  0  0  0  0
  148.5598  131.5453  157.5811 H   0  0  0  0  0  0  0  0  0  0  0  0
  146.7832  132.8412  156.4287 H   0  0  0  0  0  0  0  0  0  0  0  0
  145.1592  135.5862  152.5731 H   0  0  0  0  0  0  0  0  0  0  0  0
  144.7501  134.0961  150.6269 H   0  0  0  0  0  0  0  0  0  0  0  0
  147.4259  131.1607  152.3078 H   0  0  0  0  0  0  0  0  0  0  0  0
  147.8322  132.6452  154.2564 H   0  0  0  0  0  0  0  0  0  0  0  0
  1  2  2  0  0  0  0
  2  3  1  0  0  0  0
  2 18  1  0  0  0  0
  3  4  1  0  0  0  0
  3 33  1  0  0  0  0
  3 34  1  0  0  0  0
  4 16  1  0  0  0  0
  4  5  1  0  0  0  0
  5  6  2  0  0  0  0
  5  7  1  0  0  0  0
  7  8  1  0  0  0  0
  7  9  2  0  0  0  0
  9 10  1  0  0  0  0
  9 35  1  0  0  0  0
 10 11  1  0  0  0  0
 10 16  1  0  0  0  0
 11 15  1  0  0  0  0
 11 12  1  0  0  0  0
 11 36  1  0  0  0  0
 12 13  1  0  0  0  0
 12 37  1  0  0  0  0
 12 38  1  0  0  0  0
 13 14  1  0  0  0  0
 13 39  1  0  0  0  0
 13 40  1  0  0  0  0
 14 15  1  0  0  0  0
 14 41  1  0  0  0  0
 14 42  1  0  0  0  0
 16 17  2  0  0  0  0
 18 19  1  0  0  0  0
 18 43  1  0  0  0  0
 19 24  1  0  0  0  0
 19 20  2  0  0  0  0
 20 21  1  0  0  0  0
 20 44  1  0  0  0  0
 21 22  2  0  0  0  0
 21 45  1  0  0  0  0
 22 23  1  0  0  0  0
 22 46  1  0  0  0  0
 23 24  2  0  0  0  0
 23 47  1  0  0  0  0
 24 25  1  0  0  0  0
 25 26  1  0  0  0  0
 26 32  1  0  0  0  0
 26 27  2  0  0  0  0
 27 28  1  0  0  0  0
 27 48  1  0  0  0  0
 28 29  2  0  0  0  0
 28 49  1  0  0  0  0
 29 30  1  0  0  0  0
 29 31  1  0  0  0  0
 31 32  2  0  0  0  0
 31 50  1  0  0  0  0
 32 51  1  0  0  0  0
M  END
> <s_m_source_file>
AV-unprocessed.smi

> <i_m_source_file_index>
134

> <i_lp_mmshare_version>
43012

> <i_f3d_flags>
0

> <s_epik_input>
TzFbQ0gyXVtDSDJdW0NIMl1bQ0BIXTFuKGMyPU8pW2NIXWMoRiljKD1PKW4yW0NIMl1DKD1PKVtOSF1jM1tjSF1bY0hdW2NIXVtjSF1jM1NjNFtjSF1bY0hdYyhDbClbY0hdW2NIXTQ=

> <s_epik_cmdline>
J2VwaWtfcHl0aG9uJywgJy1waCcsICc3LjAnLCAnLXRuJywgJzgnLCAnLW1hJywgJzIwMCcsICctbWV0YWxfYmluZGluZycsICctaW1hZScsICc8aW5maWxlLm1hZT4nLCAnLW9tYWUnLCAnPG91dGZpbGUubWFlPic=

> <r_lp_tautomer_probability>
1

> <r_epik_Ionization_Penalty>
2.01717e-06

> <r_epik_Ionization_Penalty_Charging>
3.88729e-08

> <r_epik_Ionization_Penalty_Neutral>
1.9783e-06

> <r_epik_State_Penalty>
-0

> <r_epik_Charging_Adjusted_Penalty>
3.88729e-08

> <i_epik_Tot_Q>
0

> <i_epik_Tot_abs_Q>
0

> <r_epik_Metal_State_Penalty>
-0

> <b_epik_Metal_Only>
0

> <s_epik_Chemistry_Notes>
This compound contains an acetal/aminal-like group ( X-CH(R)-Y where X, Y are N, S, or O) that may be acid/base labile, releasing an aldehyde.

> <s_lp_Force_Field>
OPLS_2005

> <r_lp_Energy>
29.8469

> <b_lp_Chiralities_Consistent>
1

> <s_lp_Variant>
AV-unprocessed.smi:134-1

> <Gold.Version>
5.8.1

> <Gold.Id.Protein>
6NUR|6NUR_protein|mol2

> <Gold.PLP.Fitness>
58.5168

> <Gold.PLP.PLP>
-50.2574

> <Gold.PLP.part.hbond>
-3.3499

> <Gold.PLP.part.metal>
0.0000

> <Gold.PLP.part.buried>
-2.7551

> <Gold.PLP.part.nonpolar>
-44.1990

> <Gold.PLP.part.repulsive>
1.3235

> <Gold.PLP.ligand.clash>
0.0000

> <Gold.PLP.ligand.torsion>
0.8742

> <Gold.PLP.Chemscore.Hbond>
2.6080

> <Gold.PLP.Chemscore.CHOScore>
0.7182

> <Gold.PLP.Chemscore.Metal>
0.0000

> <Gold.Chemscore.Hbonds>
donor molecule, donor type, donor heavy atom, donor atom, acceptor molecule, acceptor atom, score
      L1  H    18    43       P1  7948  0.02
      P1  H  7997  8008       L1    17  0.93
      P1  H 10752 10764       L1     1  0.25
      L1  C     9    35       P1  8028  0.87

> <Gold.PLP.Chemscore.Internal.Correction>
0.0292

> <Gold.Rescore>
     Score         DG    S(hbond)    S(metal)    S(lipo)     H(rot)  DE(clash)    DE(int)     intcor
     15.89     -21.33       2.23        0.00     114.68       1.95       0.47       4.98       ----

> <Gold.Chemscore.Fitness>
15.8870

> <Gold.Chemscore.DG>
-21.3342

> <Gold.Chemscore.ZeroCoef>
-5.4800

> <Gold.Chemscore.Hbond>
2.2279

> <Gold.Chemscore.Metal>
0.0000

> <Gold.Chemscore.Lipo>
114.6795

> <Gold.Chemscore.Internal_Hbond>
0.0000

> <Gold.Chemscore.DEClash>
0.4683

> <Gold.Chemscore.DEInternal>
4.9790

> <Gold.Chemscore.Rot>
1.9549

> <Gold.Chemscore.Internal.Correction>
   9.000000E+99

> <Gold.Chemscore.Hbonds>
donor molecule, donor type, donor heavy atom, donor atom, acceptor molecule, acceptor atom, score
      L1  H    18    43       P1  7948  0.06
      P1  H  7997  8008       L1    17  0.89
      P1  H 10752 10764       L1     1  0.02

> <Gold.Chemscore.Hbond.Weighted>
-7.4413

> <Gold.Chemscore.Metal.Weighted>
-0.0000

> <Gold.Chemscore.Lipo.Weighted>
-13.4175

> <Gold.Chemscore.Internal_Hbond.Weighted>
0.0000

> <Gold.Chemscore.DEClash.Weighted>
0.4683

> <Gold.Chemscore.DEInternal.Weighted>
4.9790

> <Gold.Chemscore.Rot.Weighted>
5.0046

> <Gold.Chemscore.Internal.Correction.Weighted>
   9.000000E+99

> <Gold.Protein.RotatedTorsions>
[ 6907 6896 6895 6894 ] final  166.31 input  -60.11 | X-H torsion
[ 7974 7965 7964 7962 ] final -173.85 input  175.53 | X-H torsion
[ 8008 7997 7996 7995 ] final  -43.67 input   59.86 | X-H torsion
[ 10167 10162 10161 10158 ] final   56.02 input  -65.29 | X-H torsion
[ 10718 10713 10712 10709 ] final  -14.58 input   66.30 | X-H torsion
[ 10763 10752 10751 10750 ] final  -48.96 input  -60.55 | X-H torsion
[ 11005 11000 10999 10996 ] final  -40.62 input  -57.11 | X-H torsion

> <Gold.Protein.ActiveResidues>
 VAL166  LYS551  ARG553  GLY616  TRP617  ASP618  TYR619  PRO620  LYS621  CYS622 
 ASP623  PHE694  ASN695  SER759  ASP760  ASP761  ALA762  ILE779  LEU786  VAL792 
 PHE793  MET794  SER795  GLU796  ALA797  LYS798  CYS799  TRP800  GLU811  SER814 

> <Gold.Protein.RotatedAtoms>
  151.8808  133.3495  159.3765 H   0  0  0  0  0  0  0  0  0  0  0  0  # atno 6907 bound_to 6896
  150.7128  134.5020  159.5575 H   0  0  0  0  0  0  0  0  0  0  0  0  # atno 6908 bound_to 6896
  152.2571  134.8073  160.0487 H   0  0  0  0  0  0  0  0  0  0  0  0  # atno 6909 bound_to 6896
  144.7135  140.1560  143.6380 H   0  0  0  0  0  0  0  0  0  0  0  0  # atno 7974 bound_to 7965
  154.3997  140.1442  156.3557 H   0  0  0  0  0  0  0  0  0  0  0  0  # atno 8008 bound_to 7997
  155.8228  140.3469  155.5503 H   0  0  0  0  0  0  0  0  0  0  0  0  # atno 8009 bound_to 7997
  155.8270  140.0906  157.1806 H   0  0  0  0  0  0  0  0  0  0  0  0  # atno 8010 bound_to 7997
  140.2132  144.3867  150.6480 H   0  0  0  0  0  0  0  0  0  0  0  0  # atno 10167 bound_to 10162
  156.6139  130.4857  149.6190 H   0  0  0  0  0  0  0  0  0  0  0  0  # atno 10718 bound_to 10713
  154.0863  135.6584  153.4845 H   0  0  0  0  0  0  0  0  0  0  0  0  # atno 10763 bound_to 10752
  153.0337  135.5192  154.7424 H   0  0  0  0  0  0  0  0  0  0  0  0  # atno 10764 bound_to 10752
  154.6534  135.3004  154.9926 H   0  0  0  0  0  0  0  0  0  0  0  0  # atno 10765 bound_to 10752
  141.0187  133.6873  156.2346 H   0  0  0  0  0  0  0  0  0  0  0  0  # atno 11005 bound_to 11000
  145.9073  139.2466  143.1458 LP  0  0  0  0  0  0  0  0  0  0  0  0  # atno 17320 bound_to 7965
  145.9751  140.8729  143.0143 LP  0  0  0  0  0  0  0  0  0  0  0  0  # atno 17321 bound_to 7965
  140.6308  143.2187  151.6499 LP  0  0  0  0  0  0  0  0  0  0  0  0  # atno 17342 bound_to 10162
  139.5172  144.3323  152.0815 LP  0  0  0  0  0  0  0  0  0  0  0  0  # atno 17343 bound_to 10162
  156.2367  130.6826  151.1516 LP  0  0  0  0  0  0  0  0  0  0  0  0  # atno 17370 bound_to 10713
  157.7246  131.0658  150.5987 LP  0  0  0  0  0  0  0  0  0  0  0  0  # atno 17371 bound_to 10713
  140.6610  134.4968  157.5583 LP  0  0  0  0  0  0  0  0  0  0  0  0  # atno 17394 bound_to 11000
  139.9133  134.8299  156.1453 LP  0  0  0  0  0  0  0  0  0  0  0  0  # atno 17395 bound_to 11000

$$$$
