AV-unprocessed.smi:3170|AV-procd|sdf|12107|dock7
  -GOLD-   2272017543D 1   1.00000     0.00000
 Structure written by MMmdl.
 36 37  0  0  0  0  0  0  0  0  2 V2000
  146.1265  138.7118  154.4688 O   0  0  0  0  0  0  0  0  0  0  0  0
  147.0037  138.1731  153.7932 C   0  0  0  0  0  0  0  0  0  0  0  0
  146.7626  137.2796  152.8235 N   0  0  0  0  0  0  0  0  0  0  0  0
  145.4435  136.7853  152.4386 C   0  0  0  0  0  0  0  0  0  0  0  0
  145.4944  135.8808  151.1928 C   0  0  0  0  0  0  0  0  0  0  0  0
  144.8252  134.5923  151.3969 N   0  0  0  0  0  0  0  0  0  0  0  0
  144.7102  133.5660  150.4947 C   0  0  0  0  0  0  0  0  0  0  0  0
  144.0155  132.5669  151.1259 C   0  0  0  0  0  0  0  0  0  0  0  0
  143.7315  133.0268  152.3838 N   0  3  0  0  0  0  0  0  0  0  0  0
  144.2214  134.2602  152.5457 C   0  0  0  0  0  0  0  0  0  0  0  0
  148.3143  138.4133  153.9342 N   0  0  0  0  0  0  0  0  0  0  0  0
  148.8970  139.3312  154.9071 C   0  0  0  0  0  0  0  0  0  0  0  0
  150.4333  139.3875  154.8038 C   0  0  2  0  0  0  0  0  0  0  0  0
  151.0970  138.0268  154.7640 C   0  0  0  0  0  0  0  0  0  0  0  0
  152.5359  138.3749  155.1299 C   0  0  0  0  0  0  0  0  0  0  0  0
  152.4451  139.4655  156.0417 O   0  0  0  0  0  0  0  0  0  0  0  0
  151.1365  140.0291  156.0028 C   0  0  0  0  0  0  0  0  0  0  0  0
  147.5533  136.8936  152.3278 H   0  0  0  0  0  0  0  0  0  0  0  0
  145.0588  136.2091  153.2802 H   0  0  0  0  0  0  0  0  0  0  0  0
  144.7435  137.6100  152.2933 H   0  0  0  0  0  0  0  0  0  0  0  0
  145.0515  136.3784  150.3285 H   0  0  0  0  0  0  0  0  0  0  0  0
  146.5319  135.6645  150.9348 H   0  0  0  0  0  0  0  0  0  0  0  0
  145.1261  133.6192  149.4990 H   0  0  0  0  0  0  0  0  0  0  0  0
  143.7108  131.5887  150.7833 H   0  0  0  0  0  0  0  0  0  0  0  0
  144.1518  134.8635  153.4332 H   0  0  0  0  0  0  0  0  0  0  0  0
  148.9579  137.9216  153.3310 H   0  0  0  0  0  0  0  0  0  0  0  0
  148.4730  140.3203  154.7313 H   0  0  0  0  0  0  0  0  0  0  0  0
  148.5967  139.0430  155.9159 H   0  0  0  0  0  0  0  0  0  0  0  0
  150.7199  139.9302  153.9012 H   0  0  0  0  0  0  0  0  0  0  0  0
  150.6680  137.3680  155.5206 H   0  0  0  0  0  0  0  0  0  0  0  0
  151.0124  137.5358  153.7939 H   0  0  0  0  0  0  0  0  0  0  0  0
  153.0732  137.5325  155.5658 H   0  0  0  0  0  0  0  0  0  0  0  0
  153.0826  138.7053  154.2457 H   0  0  0  0  0  0  0  0  0  0  0  0
  151.1755  141.1161  155.9272 H   0  0  0  0  0  0  0  0  0  0  0  0
  150.6277  139.7748  156.9336 H   0  0  0  0  0  0  0  0  0  0  0  0
  143.2258  132.5090  153.0915 H   0  0  0  0  0  0  0  0  0  0  0  0
  1  2  2  0  0  0  0
  2  3  1  0  0  0  0
  2 11  1  0  0  0  0
  3  4  1  0  0  0  0
  3 18  1  0  0  0  0
  4  5  1  0  0  0  0
  4 19  1  0  0  0  0
  4 20  1  0  0  0  0
  5  6  1  0  0  0  0
  5 21  1  0  0  0  0
  5 22  1  0  0  0  0
  6 10  1  0  0  0  0
  6  7  1  0  0  0  0
  7  8  2  0  0  0  0
  7 23  1  0  0  0  0
  8  9  1  0  0  0  0
  8 24  1  0  0  0  0
  9 10  2  0  0  0  0
  9 36  1  0  0  0  0
 10 25  1  0  0  0  0
 11 12  1  0  0  0  0
 11 26  1  0  0  0  0
 12 13  1  0  0  0  0
 12 27  1  0  0  0  0
 12 28  1  0  0  0  0
 13 17  1  0  0  0  0
 13 14  1  0  0  0  0
 13 29  1  0  0  0  0
 14 15  1  0  0  0  0
 14 30  1  0  0  0  0
 14 31  1  0  0  0  0
 15 16  1  0  0  0  0
 15 32  1  0  0  0  0
 15 33  1  0  0  0  0
 16 17  1  0  0  0  0
 17 34  1  0  0  0  0
 17 35  1  0  0  0  0
M  CHG  1   9   1
M  END
> <s_m_source_file>
AV-unprocessed.smi

> <i_m_source_file_index>
3170

> <i_lp_mmshare_version>
43012

> <i_f3d_flags>
0

> <s_epik_input>
W0NIMl0xT1tDSDJdW0NIMl1bQ0BIXTFbQ0gyXVtOSF1DKD1PKVtOSF1bQ0gyXVtDSDJdbjJbY0hdW2NIXW5bY0hdMg==

> <s_epik_cmdline>
J2VwaWtfcHl0aG9uJywgJy1waCcsICc3LjAnLCAnLXRuJywgJzgnLCAnLW1hJywgJzIwMCcsICctbWV0YWxfYmluZGluZycsICctaW1hZScsICc8aW5maWxlLm1hZT4nLCAnLW9tYWUnLCAnPG91dGZpbGUubWFlPic=

> <r_lp_tautomer_probability>
1

> <r_epik_Ionization_Penalty>
0.255699

> <r_epik_Ionization_Penalty_Charging>
0

> <r_epik_Ionization_Penalty_Neutral>
0.255699

> <r_epik_State_Penalty>
0.247169

> <r_epik_Charging_Adjusted_Penalty>
0.247169

> <i_epik_Tot_Q>
1

> <i_epik_Tot_abs_Q>
1

> <r_epik_Metal_State_Penalty>
0.536793

> <b_epik_Metal_Only>
0

> <s_lp_Force_Field>
OPLS_2005

> <r_lp_Energy>
19.7141

> <b_lp_Chiralities_Consistent>
1

> <s_lp_Variant>
AV-unprocessed.smi:3170-1

> <Gold.Version>
5.8.1

> <Gold.Id.Protein>
6NUR|6NUR_protein|mol2

> <Gold.PLP.Fitness>
50.9312

> <Gold.PLP.PLP>
-34.5034

> <Gold.PLP.part.hbond>
-4.8957

> <Gold.PLP.part.metal>
0.0000

> <Gold.PLP.part.buried>
-2.8397

> <Gold.PLP.part.nonpolar>
-28.1070

> <Gold.PLP.part.repulsive>
0.2412

> <Gold.PLP.ligand.clash>
0.0000

> <Gold.PLP.ligand.torsion>
0.4663

> <Gold.PLP.Chemscore.Hbond>
4.7823

> <Gold.PLP.Chemscore.CHOScore>
1.0000

> <Gold.PLP.Chemscore.Metal>
0.0000

> <Gold.Chemscore.Hbonds>
donor molecule, donor type, donor heavy atom, donor atom, acceptor molecule, acceptor atom, score
      L1  H     3    18       P1  7948  1.00
      L1  H     9    36       P1 10957  1.60
      L1  H    11    26       P1  7948  0.44
      P1  H  7997  8010       L1    16  0.96
      L1  C     7    23       P1  7921  1.00

> <Gold.PLP.Chemscore.Internal.Correction>
0.0134

> <Gold.Rescore>
     Score         DG    S(hbond)    S(metal)    S(lipo)     H(rot)  DE(clash)    DE(int)     intcor
     18.40     -19.42       3.77        0.00      62.62       2.33       0.52       0.49       ----

> <Gold.Chemscore.Fitness>
18.4044

> <Gold.Chemscore.DG>
-19.4211

> <Gold.Chemscore.ZeroCoef>
-5.4800

> <Gold.Chemscore.Hbond>
3.7652

> <Gold.Chemscore.Metal>
0.0000

> <Gold.Chemscore.Lipo>
62.6234

> <Gold.Chemscore.Internal_Hbond>
0.0000

> <Gold.Chemscore.DEClash>
0.5238

> <Gold.Chemscore.DEInternal>
0.4929

> <Gold.Chemscore.Rot>
2.3288

> <Gold.Chemscore.Internal.Correction>
   9.000000E+99

> <Gold.Chemscore.Hbonds>
donor molecule, donor type, donor heavy atom, donor atom, acceptor molecule, acceptor atom, score
      L1  H     3    18       P1  7948  0.99
      L1  H     9    36       P1 10957  0.12
      L1  H    11    26       P1  7948  0.43
      P1  H  7997  8010       L1    16  0.36

> <Gold.Chemscore.Hbond.Weighted>
-12.5759

> <Gold.Chemscore.Metal.Weighted>
-0.0000

> <Gold.Chemscore.Lipo.Weighted>
-7.3269

> <Gold.Chemscore.Internal_Hbond.Weighted>
0.0000

> <Gold.Chemscore.DEClash.Weighted>
0.5238

> <Gold.Chemscore.DEInternal.Weighted>
0.4929

> <Gold.Chemscore.Rot.Weighted>
5.9617

> <Gold.Chemscore.Internal.Correction.Weighted>
   9.000000E+99

> <Gold.Protein.RotatedTorsions>
[ 6907 6896 6895 6894 ] final  -91.77 input  -60.11 | X-H torsion
[ 7974 7965 7964 7962 ] final  145.22 input  175.53 | X-H torsion
[ 8008 7997 7996 7995 ] final   92.46 input   59.86 | X-H torsion
[ 10167 10162 10161 10158 ] final   98.55 input  -65.29 | X-H torsion
[ 10718 10713 10712 10709 ] final  138.05 input   66.30 | X-H torsion
[ 10763 10752 10751 10750 ] final   64.58 input  -60.55 | X-H torsion
[ 11005 11000 10999 10996 ] final  117.97 input  -57.11 | X-H torsion

> <Gold.Protein.ActiveResidues>
 VAL166  LYS551  ARG553  GLY616  TRP617  ASP618  TYR619  PRO620  LYS621  CYS622 
 ASP623  PHE694  ASN695  SER759  ASP760  ASP761  ALA762  ILE779  LEU786  VAL792 
 PHE793  MET794  SER795  GLU796  ALA797  LYS798  CYS799  TRP800  GLU811  SER814 

> <Gold.Protein.RotatedAtoms>
  150.6897  134.2226  159.4402 H   0  0  0  0  0  0  0  0  0  0  0  0  # atno 6907 bound_to 6896
  152.0181  134.9836  160.0579 H   0  0  0  0  0  0  0  0  0  0  0  0  # atno 6908 bound_to 6896
  152.1423  133.4437  159.4810 H   0  0  0  0  0  0  0  0  0  0  0  0  # atno 6909 bound_to 6896
  144.8770  139.5757  143.5860 H   0  0  0  0  0  0  0  0  0  0  0  0  # atno 7974 bound_to 7965
  156.0356  140.3325  155.7187 H   0  0  0  0  0  0  0  0  0  0  0  0  # atno 8008 bound_to 7997
  155.5820  140.0638  157.2798 H   0  0  0  0  0  0  0  0  0  0  0  0  # atno 8009 bound_to 7997
  154.4371  140.1842  156.0975 H   0  0  0  0  0  0  0  0  0  0  0  0  # atno 8010 bound_to 7997
  139.7699  144.6926  151.0171 H   0  0  0  0  0  0  0  0  0  0  0  0  # atno 10167 bound_to 10162
  157.4295  131.1047  151.0265 H   0  0  0  0  0  0  0  0  0  0  0  0  # atno 10718 bound_to 10713
  153.0061  135.5388  154.6532 H   0  0  0  0  0  0  0  0  0  0  0  0  # atno 10763 bound_to 10752
  154.5759  135.2845  155.0783 H   0  0  0  0  0  0  0  0  0  0  0  0  # atno 10764 bound_to 10752
  154.1931  135.6497  153.5118 H   0  0  0  0  0  0  0  0  0  0  0  0  # atno 10765 bound_to 10752
  139.9093  134.9616  156.7433 H   0  0  0  0  0  0  0  0  0  0  0  0  # atno 11005 bound_to 11000
  146.2969  139.7306  142.9120 LP  0  0  0  0  0  0  0  0  0  0  0  0  # atno 17320 bound_to 7965
  145.4024  141.0387  143.3063 LP  0  0  0  0  0  0  0  0  0  0  0  0  # atno 17321 bound_to 7965
  140.7813  143.4601  151.0290 LP  0  0  0  0  0  0  0  0  0  0  0  0  # atno 17342 bound_to 10162
  139.8285  143.7723  152.3179 LP  0  0  0  0  0  0  0  0  0  0  0  0  # atno 17343 bound_to 10162
  157.1167  130.6044  149.5495 LP  0  0  0  0  0  0  0  0  0  0  0  0  # atno 17370 bound_to 10713
  155.9908  130.4961  150.7273 LP  0  0  0  0  0  0  0  0  0  0  0  0  # atno 17371 bound_to 10713
  140.6832  133.9456  155.7922 LP  0  0  0  0  0  0  0  0  0  0  0  0  # atno 17394 bound_to 11000
  141.0495  134.0505  157.3802 LP  0  0  0  0  0  0  0  0  0  0  0  0  # atno 17395 bound_to 11000

$$$$
