AV-unprocessed.smi:1428|AV-procd|sdf|5815|dock6
  -GOLD-   22720 5473D 1   1.00000     0.00000
 Structure written by MMmdl.
 44 45  0  0  0  0  0  0  0  0  2 V2000
  152.0069  145.3104  158.7971 C   0  0  0  0  0  0  0  0  0  0  0  0
  151.3878  144.2745  158.0422 O   0  0  0  0  0  0  0  0  0  0  0  0
  151.7748  142.9681  158.2737 C   0  0  0  0  0  0  0  0  0  0  0  0
  152.7434  142.7350  159.1947 N   0  0  0  0  0  0  0  0  0  0  0  0
  153.1185  141.4598  159.4241 C   0  0  0  0  0  0  0  0  0  0  0  0
  152.5488  140.3580  158.7604 C   0  0  0  0  0  0  0  0  0  0  0  0
  151.5444  140.5970  157.8045 C   0  0  0  0  0  0  0  0  0  0  0  0
  151.1516  141.9316  157.5402 C   0  0  0  0  0  0  0  0  0  0  0  0
  150.1391  142.2861  156.6071 N   0  0  0  0  0  0  0  0  0  0  0  0
  149.4928  141.4963  155.7335 C   0  0  0  0  0  0  0  0  0  0  0  0
  149.6538  140.2823  155.6135 O   0  0  0  0  0  0  0  0  0  0  0  0
  148.6483  142.2083  154.9736 N   0  0  0  0  0  0  0  0  0  0  0  0
  147.8082  141.6662  153.9062 C   0  0  2  0  0  0  0  0  0  0  0  0
  146.6980  142.6534  153.4928 C   0  0  0  0  0  0  0  0  0  0  0  0
  145.6250  142.8011  154.5854 C   0  0  0  0  0  0  0  0  0  0  0  0
  145.0409  141.4809  154.9432 N   0  3  2  0  0  0  0  0  0  0  0  0
  143.9036  141.5854  155.8934 C   0  0  0  0  0  0  0  0  0  0  0  0
  143.1390  140.2681  156.0591 C   0  0  0  0  0  0  0  0  0  0  0  0
  142.6279  139.7246  154.9521 N   0  0  0  0  0  0  0  0  0  0  0  0
  142.9962  139.7554  157.1677 O   0  0  0  0  0  0  0  0  0  0  0  0
  146.0831  140.5306  155.4091 C   0  0  0  0  0  0  0  0  0  0  0  0
  147.1770  140.3328  154.3432 C   0  0  0  0  0  0  0  0  0  0  0  0
  151.5855  146.2715  158.5029 H   0  0  0  0  0  0  0  0  0  0  0  0
  153.0813  145.3503  158.6129 H   0  0  0  0  0  0  0  0  0  0  0  0
  151.8304  145.1857  159.8664 H   0  0  0  0  0  0  0  0  0  0  0  0
  153.8914  141.3131  160.1641 H   0  0  0  0  0  0  0  0  0  0  0  0
  152.8717  139.3519  158.9829 H   0  0  0  0  0  0  0  0  0  0  0  0
  151.0888  139.7552  157.3065 H   0  0  0  0  0  0  0  0  0  0  0  0
  149.9516  143.2755  156.5348 H   0  0  0  0  0  0  0  0  0  0  0  0
  148.5803  143.2002  155.1489 H   0  0  0  0  0  0  0  0  0  0  0  0
  148.4474  141.4720  153.0428 H   0  0  0  0  0  0  0  0  0  0  0  0
  147.1195  143.6290  153.2487 H   0  0  0  0  0  0  0  0  0  0  0  0
  146.2253  142.2951  152.5773 H   0  0  0  0  0  0  0  0  0  0  0  0
  146.0524  143.2663  155.4749 H   0  0  0  0  0  0  0  0  0  0  0  0
  144.8448  143.4727  154.2267 H   0  0  0  0  0  0  0  0  0  0  0  0
  144.2760  141.8542  156.8830 H   0  0  0  0  0  0  0  0  0  0  0  0
  143.2291  142.3860  155.5841 H   0  0  0  0  0  0  0  0  0  0  0  0
  142.1170  138.8547  155.0018 H   0  0  0  0  0  0  0  0  0  0  0  0
  142.7568  140.1852  154.0623 H   0  0  0  0  0  0  0  0  0  0  0  0
  146.5193  140.8951  156.3405 H   0  0  0  0  0  0  0  0  0  0  0  0
  145.6269  139.5653  155.6317 H   0  0  0  0  0  0  0  0  0  0  0  0
  146.7386  139.8437  153.4721 H   0  0  0  0  0  0  0  0  0  0  0  0
  147.9454  139.6539  154.7153 H   0  0  0  0  0  0  0  0  0  0  0  0
  144.6587  141.0889  154.0939 H   0  0  0  0  0  0  0  0  0  0  0  0
  1  2  1  0  0  0  0
  1 23  1  0  0  0  0
  1 24  1  0  0  0  0
  1 25  1  0  0  0  0
  2  3  1  0  0  0  0
  3  8  1  0  0  0  0
  3  4  2  0  0  0  0
  4  5  1  0  0  0  0
  5  6  2  0  0  0  0
  5 26  1  0  0  0  0
  6  7  1  0  0  0  0
  6 27  1  0  0  0  0
  7  8  2  0  0  0  0
  7 28  1  0  0  0  0
  8  9  1  0  0  0  0
  9 10  1  0  0  0  0
  9 29  1  0  0  0  0
 10 11  2  0  0  0  0
 10 12  1  0  0  0  0
 12 13  1  0  0  0  0
 12 30  1  0  0  0  0
 13 22  1  0  0  0  0
 13 14  1  0  0  0  0
 13 31  1  0  0  0  0
 14 15  1  0  0  0  0
 14 32  1  0  0  0  0
 14 33  1  0  0  0  0
 15 16  1  0  0  0  0
 15 34  1  0  0  0  0
 15 35  1  0  0  0  0
 16 17  1  0  0  0  0
 16 21  1  0  0  0  0
 16 44  1  0  0  0  0
 17 18  1  0  0  0  0
 17 36  1  0  0  0  0
 17 37  1  0  0  0  0
 18 19  1  0  0  0  0
 18 20  2  0  0  0  0
 19 38  1  0  0  0  0
 19 39  1  0  0  0  0
 21 22  1  0  0  0  0
 21 40  1  0  0  0  0
 21 41  1  0  0  0  0
 22 42  1  0  0  0  0
 22 43  1  0  0  0  0
M  CHG  1  16   1
M  END
> <s_m_source_file>
AV-unprocessed.smi

> <i_m_source_file_index>
1428

> <i_lp_mmshare_version>
43012

> <i_f3d_flags>
0

> <s_epik_input>
W0NIM11PYzFuW2NIXVtjSF1bY0hdYzFbTkhdQyg9TylbTkhdW0NIXTJbQ0gyXVtDSDJdTihbQ0gyXVtDSDJdMilbQ0gyXUMoPU8pW05IMl0=

> <s_epik_cmdline>
J2VwaWtfcHl0aG9uJywgJy1waCcsICc3LjAnLCAnLXRuJywgJzgnLCAnLW1hJywgJzIwMCcsICctbWV0YWxfYmluZGluZycsICctaW1hZScsICc8aW5maWxlLm1hZT4nLCAnLW9tYWUnLCAnPG91dGZpbGUubWFlPic=

> <r_lp_tautomer_probability>
1

> <r_epik_Ionization_Penalty>
0.838963

> <r_epik_Ionization_Penalty_Charging>
0.838844

> <r_epik_Ionization_Penalty_Neutral>
0.000119189

> <r_epik_State_Penalty>
0.8734

> <r_epik_Charging_Adjusted_Penalty>
1.71224

> <i_epik_Tot_Q>
1

> <i_epik_Tot_abs_Q>
1

> <r_epik_Metal_State_Penalty>
0.890706

> <b_epik_Metal_Only>
0

> <s_lp_Force_Field>
OPLS_2005

> <r_lp_Energy>
14.3057

> <b_lp_Chiralities_Consistent>
1

> <s_lp_Variant>
AV-unprocessed.smi:1428-3

> <Gold.Version>
5.8.1

> <Gold.Id.Protein>
6NUR|6NUR_protein|mol2

> <Gold.PLP.Fitness>
49.7872

> <Gold.PLP.PLP>
-35.4547

> <Gold.PLP.part.hbond>
-4.0000

> <Gold.PLP.part.metal>
0.0000

> <Gold.PLP.part.buried>
-8.3469

> <Gold.PLP.part.nonpolar>
-24.1451

> <Gold.PLP.part.repulsive>
0.4442

> <Gold.PLP.ligand.clash>
0.0000

> <Gold.PLP.ligand.torsion>
0.2678

> <Gold.PLP.Chemscore.Hbond>
4.9440

> <Gold.PLP.Chemscore.CHOScore>
0.0000

> <Gold.PLP.Chemscore.Metal>
0.0000

> <Gold.Chemscore.Hbonds>
donor molecule, donor type, donor heavy atom, donor atom, acceptor molecule, acceptor atom, score
      L1  H     9    29       P1  8028  0.96
      L1  H    12    30       P1  8028  1.00
      L1  H    16    44       P1 10175  2.00
      L1  H    19    39       P1 10175  1.00

> <Gold.PLP.Chemscore.Internal.Correction>
0.0361

> <Gold.Rescore>
     Score         DG    S(hbond)    S(metal)    S(lipo)     H(rot)  DE(clash)    DE(int)     intcor
     17.25     -20.90       3.90        0.00      71.47       2.33       0.73       2.91       ----

> <Gold.Chemscore.Fitness>
17.2546

> <Gold.Chemscore.DG>
-20.8993

> <Gold.Chemscore.ZeroCoef>
-5.4800

> <Gold.Chemscore.Hbond>
3.8965

> <Gold.Chemscore.Metal>
0.0000

> <Gold.Chemscore.Lipo>
71.4719

> <Gold.Chemscore.Internal_Hbond>
0.0000

> <Gold.Chemscore.DEClash>
0.7305

> <Gold.Chemscore.DEInternal>
2.9142

> <Gold.Chemscore.Rot>
2.3271

> <Gold.Chemscore.Internal.Correction>
   9.000000E+99

> <Gold.Chemscore.Hbonds>
donor molecule, donor type, donor heavy atom, donor atom, acceptor molecule, acceptor atom, score
      L1  H     9    29       P1  8028  0.89
      L1  H    12    30       P1  8028  0.99
      L1  H    16    44       P1 10175  0.81
      L1  H    19    39       P1 10175  0.96

> <Gold.Chemscore.Hbond.Weighted>
-13.0144

> <Gold.Chemscore.Metal.Weighted>
-0.0000

> <Gold.Chemscore.Lipo.Weighted>
-8.3622

> <Gold.Chemscore.Internal_Hbond.Weighted>
0.0000

> <Gold.Chemscore.DEClash.Weighted>
0.7305

> <Gold.Chemscore.DEInternal.Weighted>
2.9142

> <Gold.Chemscore.Rot.Weighted>
5.9573

> <Gold.Chemscore.Internal.Correction.Weighted>
   9.000000E+99

> <Gold.Protein.RotatedTorsions>
[ 6907 6896 6895 6894 ] final -133.34 input  -60.11 | X-H torsion
[ 7974 7965 7964 7962 ] final    9.10 input  175.53 | X-H torsion
[ 8008 7997 7996 7995 ] final  -36.57 input   59.86 | X-H torsion
[ 10167 10162 10161 10158 ] final   10.24 input  -65.29 | X-H torsion
[ 10718 10713 10712 10709 ] final  -56.69 input   66.30 | X-H torsion
[ 10763 10752 10751 10750 ] final  -70.20 input  -60.55 | X-H torsion
[ 11005 11000 10999 10996 ] final  -99.33 input  -57.11 | X-H torsion

> <Gold.Protein.ActiveResidues>
 VAL166  LYS551  ARG553  GLY616  TRP617  ASP618  TYR619  PRO620  LYS621  CYS622 
 ASP623  PHE694  ASN695  SER759  ASP760  ASP761  ALA762  ILE779  LEU786  VAL792 
 PHE793  MET794  SER795  GLU796  ALA797  LYS798  CYS799  TRP800  GLU811  SER814 

> <Gold.Protein.RotatedAtoms>
  150.9729  133.6325  159.2734 H   0  0  0  0  0  0  0  0  0  0  0  0  # atno 6907 bound_to 6896
  151.3608  135.0902  159.9443 H   0  0  0  0  0  0  0  0  0  0  0  0  # atno 6908 bound_to 6896
  152.5189  133.9303  159.7632 H   0  0  0  0  0  0  0  0  0  0  0  0  # atno 6909 bound_to 6896
  146.2408  139.9834  142.8433 H   0  0  0  0  0  0  0  0  0  0  0  0  # atno 7974 bound_to 7965
  154.4070  140.1627  156.2395 H   0  0  0  0  0  0  0  0  0  0  0  0  # atno 8008 bound_to 7997
  155.9213  140.3421  155.6152 H   0  0  0  0  0  0  0  0  0  0  0  0  # atno 8009 bound_to 7997
  155.7218  140.0769  157.2318 H   0  0  0  0  0  0  0  0  0  0  0  0  # atno 8010 bound_to 7997
  140.6206  143.8212  150.7171 H   0  0  0  0  0  0  0  0  0  0  0  0  # atno 10167 bound_to 10162
  156.1269  130.4162  150.0339 H   0  0  0  0  0  0  0  0  0  0  0  0  # atno 10718 bound_to 10713
  154.4143  135.6001  153.5971 H   0  0  0  0  0  0  0  0  0  0  0  0  # atno 10763 bound_to 10752
  152.9791  135.5937  154.4032 H   0  0  0  0  0  0  0  0  0  0  0  0  # atno 10764 bound_to 10752
  154.3848  135.2841  155.2168 H   0  0  0  0  0  0  0  0  0  0  0  0  # atno 10765 bound_to 10752
  141.1312  133.8313  157.0958 H   0  0  0  0  0  0  0  0  0  0  0  0  # atno 11005 bound_to 11000
  145.1571  140.9653  143.4399 LP  0  0  0  0  0  0  0  0  0  0  0  0  # atno 17320 bound_to 7965
  145.0151  139.3475  143.6100 LP  0  0  0  0  0  0  0  0  0  0  0  0  # atno 17321 bound_to 7965
  140.1801  143.4122  152.1939 LP  0  0  0  0  0  0  0  0  0  0  0  0  # atno 17342 bound_to 10162
  139.5436  144.7278  151.4656 LP  0  0  0  0  0  0  0  0  0  0  0  0  # atno 17343 bound_to 10162
  156.8262  130.9376  151.3639 LP  0  0  0  0  0  0  0  0  0  0  0  0  # atno 17370 bound_to 10713
  157.6450  130.8836  149.9520 LP  0  0  0  0  0  0  0  0  0  0  0  0  # atno 17371 bound_to 10713
  140.0364  134.9876  157.0879 LP  0  0  0  0  0  0  0  0  0  0  0  0  # atno 17394 bound_to 11000
  140.4204  134.1887  155.7164 LP  0  0  0  0  0  0  0  0  0  0  0  0  # atno 17395 bound_to 11000

$$$$
