AV-unprocessed.smi:276|AV-procd|sdf|2073|dock1
  -GOLD-   2262021333D 1   1.00000     0.00000
 Structure written by MMmdl.
 57 61  0  0  0  0  0  0  0  0  1 V2000
  153.7349  142.3771  159.7781 C   0  0  0  0  0  0  0  0  0  0  0  0
  152.5498  141.6011  159.7633 O   0  0  0  0  0  0  0  0  0  0  0  0
  151.8921  141.6339  158.5065 C   0  0  1  0  0  0  0  0  0  0  0  0
  150.5248  140.9396  158.4846 C   0  0  0  0  0  0  0  0  0  0  0  0
  149.9938  142.1041  157.6254 C   0  0  2  0  0  0  0  0  0  0  0  0
  150.0947  141.8058  156.1891 N   0  0  0  0  0  0  0  0  0  0  0  0
  150.9448  140.6767  155.8255 C   0  0  0  0  0  0  0  0  0  0  0  0
  148.9207  141.7206  155.5254 C   0  0  0  0  0  0  0  0  0  0  0  0
  148.9839  141.5448  154.1823 N   0  0  0  0  0  0  0  0  0  0  0  0
  147.8594  141.4832  153.4630 C   0  0  0  0  0  0  0  0  0  0  0  0
  146.5950  141.5750  153.8806 N   0  0  0  0  0  0  0  0  0  0  0  0
  146.5292  141.7347  155.2338 C   0  0  0  0  0  0  0  0  0  0  0  0
  147.6331  141.8041  156.1289 C   0  0  0  0  0  0  0  0  0  0  0  0
  147.1759  141.9547  157.4327 N   0  0  0  0  0  0  0  0  0  0  0  0
  145.8773  141.9934  157.3132 C   0  0  0  0  0  0  0  0  0  0  0  0
  145.4049  141.8965  156.0239 N   0  0  0  0  0  0  0  0  0  0  0  0
  144.0155  141.9329  155.6047 C   0  0  0  0  0  0  0  0  0  0  0  0
  143.2631  140.6016  155.8361 C   0  0  2  0  0  0  0  0  0  0  0  0
  143.8022  139.6955  154.8950 O   0  0  0  0  0  0  0  0  0  0  0  0
  141.7339  140.6470  155.6031 C   0  0  2  0  0  0  0  0  0  0  0  0
  141.0785  139.3428  155.1315 C   0  0  0  0  0  0  0  0  0  0  0  0
  139.8817  139.7916  154.3071 C   0  0  0  0  0  0  0  0  0  0  0  0
  140.0929  141.2949  154.1411 C   0  0  0  0  0  0  0  0  0  0  0  0
  141.4500  141.4982  154.5013 O   0  0  0  0  0  0  0  0  0  0  0  0
  151.1500  142.9525  158.2249 C   0  0  0  0  0  0  0  0  0  0  0  0
  150.8493  143.9253  159.3802 C   0  0  0  0  0  0  0  0  0  0  0  0
  152.0451  144.7612  158.9166 C   0  0  0  0  0  0  0  0  0  0  0  0
  151.8624  144.1320  157.5338 C   0  0  0  0  0  0  0  0  0  0  0  0
  154.1946  142.3238  160.7648 H   0  0  0  0  0  0  0  0  0  0  0  0
  153.5214  143.4247  159.5623 H   0  0  0  0  0  0  0  0  0  0  0  0
  154.4591  142.0105  159.0499 H   0  0  0  0  0  0  0  0  0  0  0  0
  152.5311  141.3420  157.6704 H   0  0  0  0  0  0  0  0  0  0  0  0
  150.5340  139.9528  158.0228 H   0  0  0  0  0  0  0  0  0  0  0  0
  150.0570  140.9056  159.4701 H   0  0  0  0  0  0  0  0  0  0  0  0
  149.0029  142.4282  157.9441 H   0  0  0  0  0  0  0  0  0  0  0  0
  150.8206  140.3946  154.7787 H   0  0  0  0  0  0  0  0  0  0  0  0
  150.7118  139.8070  156.4406 H   0  0  0  0  0  0  0  0  0  0  0  0
  151.9964  140.9230  155.9679 H   0  0  0  0  0  0  0  0  0  0  0  0
  147.9924  141.3490  152.3996 H   0  0  0  0  0  0  0  0  0  0  0  0
  145.2252  142.1112  158.1664 H   0  0  0  0  0  0  0  0  0  0  0  0
  143.5069  142.7499  156.1180 H   0  0  0  0  0  0  0  0  0  0  0  0
  144.0097  142.1848  154.5432 H   0  0  0  0  0  0  0  0  0  0  0  0
  143.4780  140.2220  156.8356 H   0  0  0  0  0  0  0  0  0  0  0  0
  143.5586  139.9830  154.0284 H   0  0  0  0  0  0  0  0  0  0  0  0
  141.2176  141.0168  156.4917 H   0  0  0  0  0  0  0  0  0  0  0  0
  141.7600  138.7813  154.4916 H   0  0  0  0  0  0  0  0  0  0  0  0
  140.7849  138.7007  155.9612 H   0  0  0  0  0  0  0  0  0  0  0  0
  139.8723  139.2852  153.3416 H   0  0  0  0  0  0  0  0  0  0  0  0
  138.9368  139.5803  154.8087 H   0  0  0  0  0  0  0  0  0  0  0  0
  139.8938  141.6392  153.1261 H   0  0  0  0  0  0  0  0  0  0  0  0
  139.4506  141.8526  154.8244 H   0  0  0  0  0  0  0  0  0  0  0  0
  149.8999  144.4482  159.2509 H   0  0  0  0  0  0  0  0  0  0  0  0
  150.9407  143.5101  160.3841 H   0  0  0  0  0  0  0  0  0  0  0  0
  151.8922  145.8396  158.9544 H   0  0  0  0  0  0  0  0  0  0  0  0
  152.9800  144.4662  159.3958 H   0  0  0  0  0  0  0  0  0  0  0  0
  152.7895  143.8742  157.0216 H   0  0  0  0  0  0  0  0  0  0  0  0
  151.2128  144.7433  156.9086 H   0  0  0  0  0  0  0  0  0  0  0  0
  1  2  1  0  0  0  0
  1 29  1  0  0  0  0
  1 30  1  0  0  0  0
  1 31  1  0  0  0  0
  2  3  1  0  0  0  0
  3 25  1  0  0  0  0
  3  4  1  0  0  0  0
  3 32  1  0  0  0  0
  4  5  1  0  0  0  0
  4 33  1  0  0  0  0
  4 34  1  0  0  0  0
  5  6  1  0  0  0  0
  5 25  1  0  0  0  0
  5 35  1  0  0  0  0
  6  7  1  0  0  0  0
  6  8  1  0  0  0  0
  7 36  1  0  0  0  0
  7 37  1  0  0  0  0
  7 38  1  0  0  0  0
  8 13  1  0  0  0  0
  8  9  2  0  0  0  0
  9 10  1  0  0  0  0
 10 11  2  0  0  0  0
 10 39  1  0  0  0  0
 11 12  1  0  0  0  0
 12 16  1  0  0  0  0
 12 13  2  0  0  0  0
 13 14  1  0  0  0  0
 14 15  2  0  0  0  0
 15 16  1  0  0  0  0
 15 40  1  0  0  0  0
 16 17  1  0  0  0  0
 17 18  1  0  0  0  0
 17 41  1  0  0  0  0
 17 42  1  0  0  0  0
 18 19  1  0  0  0  0
 18 20  1  0  0  0  0
 18 43  1  0  0  0  0
 19 44  1  0  0  0  0
 20 24  1  0  0  0  0
 20 21  1  0  0  0  0
 20 45  1  0  0  0  0
 21 22  1  0  0  0  0
 21 46  1  0  0  0  0
 21 47  1  0  0  0  0
 22 23  1  0  0  0  0
 22 48  1  0  0  0  0
 22 49  1  0  0  0  0
 23 24  1  0  0  0  0
 23 50  1  0  0  0  0
 23 51  1  0  0  0  0
 25 28  1  0  0  0  0
 25 26  1  0  0  0  0
 26 27  1  0  0  0  0
 26 52  1  0  0  0  0
 26 53  1  0  0  0  0
 27 28  1  0  0  0  0
 27 54  1  0  0  0  0
 27 55  1  0  0  0  0
 28 56  1  0  0  0  0
 28 57  1  0  0  0  0
M  END
> <s_m_source_file>
AV-unprocessed.smi

> <i_m_source_file_index>
276

> <i_lp_mmshare_version>
43012

> <i_f3d_flags>
0

> <s_epik_input>
W0NIMl0xW0NIMl1bQ0gyXUMxMltDQEhdKE9bQ0gzXSlbQ0gyXVtDQEhdMk4oW0NIM10pYyhuW2NIXW4zKWMoYzM0KW5bY0hdbjRbQ0gyXVtDQEhdKFtPSF0pW0NAQEhdNVtDSDJdW0NIMl1bQ0gyXU81

> <s_epik_cmdline>
J2VwaWtfcHl0aG9uJywgJy1waCcsICc3LjAnLCAnLXRuJywgJzgnLCAnLW1hJywgJzIwMCcsICctbWV0YWxfYmluZGluZycsICctaW1hZScsICc8aW5maWxlLm1hZT4nLCAnLW9tYWUnLCAnPG91dGZpbGUubWFlPic=

> <r_lp_tautomer_probability>
1

> <r_epik_Ionization_Penalty>
0.00204117

> <r_epik_Ionization_Penalty_Charging>
0

> <r_epik_Ionization_Penalty_Neutral>
0.00204117

> <r_epik_State_Penalty>
0.00127401

> <r_epik_Charging_Adjusted_Penalty>
0.00127401

> <i_epik_Tot_Q>
0

> <i_epik_Tot_abs_Q>
0

> <r_epik_Metal_State_Penalty>
-0

> <b_epik_Metal_Only>
0

> <s_lp_Force_Field>
OPLS_2005

> <r_lp_Energy>
57.8978

> <b_lp_Chiralities_Consistent>
1

> <s_lp_Variant>
AV-unprocessed.smi:276-4

> <Gold.Version>
5.8.1

> <Gold.Id.Protein>
6NUR|6NUR_protein|mol2

> <Gold.PLP.Fitness>
41.0095

> <Gold.PLP.PLP>
-39.6819

> <Gold.PLP.part.hbond>
-2.0000

> <Gold.PLP.part.metal>
0.0000

> <Gold.PLP.part.buried>
-6.9590

> <Gold.PLP.part.nonpolar>
-33.0377

> <Gold.PLP.part.repulsive>
1.9352

> <Gold.PLP.ligand.clash>
1.6285

> <Gold.PLP.ligand.torsion>
2.0533

> <Gold.PLP.Chemscore.Hbond>
1.0702

> <Gold.PLP.Chemscore.CHOScore>
1.0000

> <Gold.PLP.Chemscore.Metal>
0.0000

> <Gold.Chemscore.Hbonds>
donor molecule, donor type, donor heavy atom, donor atom, acceptor molecule, acceptor atom, score
      L1  H    19    44       P1 10175  1.00
      P1  H  8011  8017       L1     9  0.05
      L1  C    10    39       P1  7957  1.00

> <Gold.PLP.Chemscore.Internal.Correction>
0.8520

> <Gold.Rescore>
     Score         DG    S(hbond)    S(metal)    S(lipo)     H(rot)  DE(clash)    DE(int)     intcor
      8.81     -13.51       1.00        0.00      99.65       2.72       0.14       4.55       ----

> <Gold.Chemscore.Fitness>
8.8118

> <Gold.Chemscore.DG>
-13.5066

> <Gold.Chemscore.ZeroCoef>
-5.4800

> <Gold.Chemscore.Hbond>
0.9950

> <Gold.Chemscore.Metal>
0.0000

> <Gold.Chemscore.Lipo>
99.6512

> <Gold.Chemscore.Internal_Hbond>
0.0000

> <Gold.Chemscore.DEClash>
0.1445

> <Gold.Chemscore.DEInternal>
4.5503

> <Gold.Chemscore.Rot>
2.7172

> <Gold.Chemscore.Internal.Correction>
   9.000000E+99

> <Gold.Chemscore.Hbonds>
donor molecule, donor type, donor heavy atom, donor atom, acceptor molecule, acceptor atom, score
      L1  H    19    44       P1 10175  0.98

> <Gold.Chemscore.Hbond.Weighted>
-3.3234

> <Gold.Chemscore.Metal.Weighted>
-0.0000

> <Gold.Chemscore.Lipo.Weighted>
-11.6592

> <Gold.Chemscore.Internal_Hbond.Weighted>
0.0000

> <Gold.Chemscore.DEClash.Weighted>
0.1445

> <Gold.Chemscore.DEInternal.Weighted>
4.5503

> <Gold.Chemscore.Rot.Weighted>
6.9560

> <Gold.Chemscore.Internal.Correction.Weighted>
   9.000000E+99

> <Gold.Protein.RotatedTorsions>
[ 6907 6896 6895 6894 ] final   79.48 input  -60.11 | X-H torsion
[ 7974 7965 7964 7962 ] final  -11.36 input  175.53 | X-H torsion
[ 8008 7997 7996 7995 ] final   98.86 input   59.86 | X-H torsion
[ 10167 10162 10161 10158 ] final  -21.80 input  -65.29 | X-H torsion
[ 10718 10713 10712 10709 ] final -177.42 input   66.30 | X-H torsion
[ 10763 10752 10751 10750 ] final  106.61 input  -60.55 | X-H torsion
[ 11005 11000 10999 10996 ] final   54.50 input  -57.11 | X-H torsion

> <Gold.Protein.ActiveResidues>
 VAL166  LYS551  ARG553  GLY616  TRP617  ASP618  TYR619  PRO620  LYS621  CYS622 
 ASP623  PHE694  ASN695  SER759  ASP760  ASP761  ALA762  ILE779  LEU786  VAL792 
 PHE793  MET794  SER795  GLU796  ALA797  LYS798  CYS799  TRP800  GLU811  SER814 

> <Gold.Protein.RotatedAtoms>
  152.5200  134.3505  159.9248 H   0  0  0  0  0  0  0  0  0  0  0  0  # atno 6907 bound_to 6896
  151.3455  133.3939  159.2683 H   0  0  0  0  0  0  0  0  0  0  0  0  # atno 6908 bound_to 6896
  150.9769  134.9150  159.7879 H   0  0  0  0  0  0  0  0  0  0  0  0  # atno 6909 bound_to 6896
  146.2190  140.2900  142.8368 H   0  0  0  0  0  0  0  0  0  0  0  0  # atno 7974 bound_to 7965
  156.1047  140.3237  155.7990 H   0  0  0  0  0  0  0  0  0  0  0  0  # atno 8008 bound_to 7997
  155.4776  140.0551  157.2988 H   0  0  0  0  0  0  0  0  0  0  0  0  # atno 8009 bound_to 7997
  154.4720  140.2015  155.9987 H   0  0  0  0  0  0  0  0  0  0  0  0  # atno 8010 bound_to 7997
  140.7283  143.4594  151.0402 H   0  0  0  0  0  0  0  0  0  0  0  0  # atno 10167 bound_to 10162
  156.8293  130.9647  151.3107 H   0  0  0  0  0  0  0  0  0  0  0  0  # atno 10718 bound_to 10713
  153.3953  135.3871  155.1951 H   0  0  0  0  0  0  0  0  0  0  0  0  # atno 10763 bound_to 10752
  154.8724  135.3758  154.4686 H   0  0  0  0  0  0  0  0  0  0  0  0  # atno 10764 bound_to 10752
  153.5177  135.7087  153.5809 H   0  0  0  0  0  0  0  0  0  0  0  0  # atno 10765 bound_to 10752
  140.0682  134.5507  155.9076 H   0  0  0  0  0  0  0  0  0  0  0  0  # atno 11005 bound_to 11000
  144.9134  140.7783  143.5793 LP  0  0  0  0  0  0  0  0  0  0  0  0  # atno 17320 bound_to 7965
  145.2832  139.1910  143.4780 LP  0  0  0  0  0  0  0  0  0  0  0  0  # atno 17321 bound_to 7965
  139.8277  143.7734  152.3179 LP  0  0  0  0  0  0  0  0  0  0  0  0  # atno 17342 bound_to 10162
  139.7838  144.7435  151.0050 LP  0  0  0  0  0  0  0  0  0  0  0  0  # atno 17343 bound_to 10162
  157.6415  130.8810  149.9458 LP  0  0  0  0  0  0  0  0  0  0  0  0  # atno 17370 bound_to 10713
  156.0943  130.3660  150.0335 LP  0  0  0  0  0  0  0  0  0  0  0  0  # atno 17371 bound_to 10713
  141.2001  133.6610  156.5879 LP  0  0  0  0  0  0  0  0  0  0  0  0  # atno 17394 bound_to 11000
  140.3667  134.7641  157.4571 LP  0  0  0  0  0  0  0  0  0  0  0  0  # atno 17395 bound_to 11000

$$$$
