AV-unprocessed.smi:922|AV-procd|sdf|4174|dock10
  -GOLD-   22720 2 83D 1   1.00000     0.00000
 Structure written by MMmdl.
 32 33  0  0  0  0  0  0  0  0  2 V2000
  151.9249  143.9026  157.9525 C   0  0  0  0  0  0  0  0  0  0  0  0
  151.1441  142.6920  157.4314 C   0  0  1  0  0  0  0  0  0  0  0  0
  151.6389  141.3762  158.0602 C   0  0  0  0  0  0  0  0  0  0  0  0
  150.8013  140.2634  157.6331 N   0  0  0  0  0  0  0  0  0  0  0  0
  151.2675  139.0777  157.0631 C   0  0  0  0  0  0  0  0  0  0  0  0
  152.2044  139.1427  155.9140 C   0  0  0  0  0  0  0  0  0  0  0  0
  152.6699  138.1041  155.3425 N   0  0  0  0  0  0  0  0  0  0  0  0
  152.2974  136.7817  155.7890 N   0  5  0  0  0  0  0  0  0  0  0  0
  151.4473  136.6297  156.8486 C   0  0  0  0  0  0  0  0  0  0  0  0
  151.1164  135.5197  157.2626 O   0  0  0  0  0  0  0  0  0  0  0  0
  150.9199  137.8349  157.5027 C   0  0  0  0  0  0  0  0  0  0  0  0
  149.8929  137.6001  158.8802 Cl  0  0  0  0  0  0  0  0  0  0  0  0
  149.4067  140.4936  157.9907 C   0  0  0  0  0  0  0  0  0  0  0  0
  148.8871  141.8146  157.3788 C   0  0  0  0  0  0  0  0  0  0  0  0
  148.7433  141.7245  155.8442 C   0  0  0  0  0  0  0  0  0  0  0  0
  147.5249  142.1694  157.9945 C   0  0  0  0  0  0  0  0  0  0  0  0
  149.7656  142.8826  157.7536 O   0  0  0  0  0  0  0  0  0  0  0  0
  152.9858  143.8150  157.7170 H   0  0  0  0  0  0  0  0  0  0  0  0
  151.8279  143.9995  159.0342 H   0  0  0  0  0  0  0  0  0  0  0  0
  151.5592  144.8251  157.5008 H   0  0  0  0  0  0  0  0  0  0  0  0
  151.2634  142.6592  156.3492 H   0  0  0  0  0  0  0  0  0  0  0  0
  152.6834  141.1939  157.8077 H   0  0  0  0  0  0  0  0  0  0  0  0
  151.5956  141.4434  159.1480 H   0  0  0  0  0  0  0  0  0  0  0  0
  152.4752  140.1463  155.5760 H   0  0  0  0  0  0  0  0  0  0  0  0
  148.7816  139.6646  157.6567 H   0  0  0  0  0  0  0  0  0  0  0  0
  149.3321  140.5232  159.0786 H   0  0  0  0  0  0  0  0  0  0  0  0
  147.9911  140.9856  155.5666 H   0  0  0  0  0  0  0  0  0  0  0  0
  149.6703  141.4285  155.3542 H   0  0  0  0  0  0  0  0  0  0  0  0
  148.4373  142.6816  155.4214 H   0  0  0  0  0  0  0  0  0  0  0  0
  146.7808  141.4013  157.7803 H   0  0  0  0  0  0  0  0  0  0  0  0
  147.1485  143.1147  157.6027 H   0  0  0  0  0  0  0  0  0  0  0  0
  147.5953  142.2687  159.0781 H   0  0  0  0  0  0  0  0  0  0  0  0
  1  2  1  0  0  0  0
  1 18  1  0  0  0  0
  1 19  1  0  0  0  0
  1 20  1  0  0  0  0
  2 17  1  0  0  0  0
  2  3  1  0  0  0  0
  2 21  1  0  0  0  0
  3  4  1  0  0  0  0
  3 22  1  0  0  0  0
  3 23  1  0  0  0  0
  4  5  1  0  0  0  0
  4 13  1  0  0  0  0
  5 11  2  0  0  0  0
  5  6  1  0  0  0  0
  6  7  2  0  0  0  0
  6 24  1  0  0  0  0
  7  8  1  0  0  0  0
  8  9  1  0  0  0  0
  9 10  2  0  0  0  0
  9 11  1  0  0  0  0
 11 12  1  0  0  0  0
 13 14  1  0  0  0  0
 13 25  1  0  0  0  0
 13 26  1  0  0  0  0
 14 15  1  0  0  0  0
 14 16  1  0  0  0  0
 14 17  1  0  0  0  0
 15 27  1  0  0  0  0
 15 28  1  0  0  0  0
 15 29  1  0  0  0  0
 16 30  1  0  0  0  0
 16 31  1  0  0  0  0
 16 32  1  0  0  0  0
M  CHG  1   8  -1
M  END
> <s_m_source_file>
AV-unprocessed.smi

> <i_m_source_file_index>
922

> <i_lp_mmshare_version>
43012

> <i_f3d_flags>
0

> <s_epik_input>
W0NIM11bQ0BASF0oTzEpW0NIMl1OKFtDSDJdQzEoW0NIM10pW0NIM10pYzJbY0hdbltuSF1jKD1PKWMyQ2w=

> <s_epik_cmdline>
J2VwaWtfcHl0aG9uJywgJy1waCcsICc3LjAnLCAnLXRuJywgJzgnLCAnLW1hJywgJzIwMCcsICctbWV0YWxfYmluZGluZycsICctaW1hZScsICc8aW5maWxlLm1hZT4nLCAnLW9tYWUnLCAnPG91dGZpbGUubWFlPic=

> <r_lp_tautomer_probability>
1

> <r_epik_Ionization_Penalty>
2.48086

> <r_epik_Ionization_Penalty_Charging>
0.00187014

> <r_epik_Ionization_Penalty_Neutral>
2.47899

> <r_epik_State_Penalty>
0.0455822

> <r_epik_Charging_Adjusted_Penalty>
0.0474524

> <i_epik_Tot_Q>
-1

> <i_epik_Tot_abs_Q>
1

> <r_epik_Metal_State_Penalty>
0.000768086

> <b_epik_Metal_Only>
0

> <s_lp_Force_Field>
OPLS_2005

> <r_lp_Energy>
41.3096

> <b_lp_Chiralities_Consistent>
1

> <s_lp_Variant>
AV-unprocessed.smi:922-2

> <Gold.Version>
5.8.1

> <Gold.Id.Protein>
6NUR|6NUR_protein|mol2

> <Gold.PLP.Fitness>
28.0217

> <Gold.PLP.PLP>
-23.0480

> <Gold.PLP.part.hbond>
-2.2753

> <Gold.PLP.part.metal>
0.0000

> <Gold.PLP.part.buried>
-3.7584

> <Gold.PLP.part.nonpolar>
-18.5131

> <Gold.PLP.part.repulsive>
1.4686

> <Gold.PLP.ligand.clash>
0.0000

> <Gold.PLP.ligand.torsion>
0.8255

> <Gold.PLP.Chemscore.Hbond>
1.8880

> <Gold.PLP.Chemscore.CHOScore>
0.0000

> <Gold.PLP.Chemscore.Metal>
0.0000

> <Gold.Chemscore.Hbonds>
donor molecule, donor type, donor heavy atom, donor atom, acceptor molecule, acceptor atom, score
      P1  H 10752 10765       L1     8  1.98

> <Gold.PLP.Chemscore.Internal.Correction>
0.9607

> <Gold.Rescore>
     Score         DG    S(hbond)    S(metal)    S(lipo)     H(rot)  DE(clash)    DE(int)     intcor
     14.63     -15.56       0.87        0.00      61.16       0.00       0.02       0.90       ----

> <Gold.Chemscore.Fitness>
14.6343

> <Gold.Chemscore.DG>
-15.5573

> <Gold.Chemscore.ZeroCoef>
-5.4800

> <Gold.Chemscore.Hbond>
0.8746

> <Gold.Chemscore.Metal>
0.0000

> <Gold.Chemscore.Lipo>
61.1639

> <Gold.Chemscore.Internal_Hbond>
0.0000

> <Gold.Chemscore.DEClash>
0.0204

> <Gold.Chemscore.DEInternal>
0.9027

> <Gold.Chemscore.Rot>
0.0000

> <Gold.Chemscore.Internal.Correction>
   9.000000E+99

> <Gold.Chemscore.Hbonds>
donor molecule, donor type, donor heavy atom, donor atom, acceptor molecule, acceptor atom, score
      P1  H 10752 10765       L1     8  0.83

> <Gold.Chemscore.Hbond.Weighted>
-2.9211

> <Gold.Chemscore.Metal.Weighted>
-0.0000

> <Gold.Chemscore.Lipo.Weighted>
-7.1562

> <Gold.Chemscore.Internal_Hbond.Weighted>
0.0000

> <Gold.Chemscore.DEClash.Weighted>
0.0204

> <Gold.Chemscore.DEInternal.Weighted>
0.9027

> <Gold.Chemscore.Rot.Weighted>
0.0000

> <Gold.Chemscore.Internal.Correction.Weighted>
   9.000000E+99

> <Gold.Protein.RotatedTorsions>
[ 6907 6896 6895 6894 ] final  131.76 input  -60.11 | X-H torsion
[ 7974 7965 7964 7962 ] final  143.96 input  175.53 | X-H torsion
[ 8008 7997 7996 7995 ] final -138.70 input   59.86 | X-H torsion
[ 10167 10162 10161 10158 ] final  -38.89 input  -65.29 | X-H torsion
[ 10718 10713 10712 10709 ] final -141.31 input   66.30 | X-H torsion
[ 10763 10752 10751 10750 ] final -153.85 input  -60.55 | X-H torsion
[ 11005 11000 10999 10996 ] final  115.72 input  -57.11 | X-H torsion

> <Gold.Protein.ActiveResidues>
 VAL166  LYS551  ARG553  GLY616  TRP617  ASP618  TYR619  PRO620  LYS621  CYS622 
 ASP623  PHE694  ASN695  SER759  ASP760  ASP761  ALA762  ILE779  LEU786  VAL792 
 PHE793  MET794  SER795  GLU796  ALA797  LYS798  CYS799  TRP800  GLU811  SER814 

> <Gold.Protein.RotatedAtoms>
  152.3393  133.6048  159.5864 H   0  0  0  0  0  0  0  0  0  0  0  0  # atno 6907 bound_to 6896
  150.7469  133.9746  159.3565 H   0  0  0  0  0  0  0  0  0  0  0  0  # atno 6908 bound_to 6896
  151.7612  135.0810  160.0397 H   0  0  0  0  0  0  0  0  0  0  0  0  # atno 6909 bound_to 6896
  144.8876  139.5605  143.5813 H   0  0  0  0  0  0  0  0  0  0  0  0  # atno 7974 bound_to 7965
  155.4327  140.0526  157.3017 H   0  0  0  0  0  0  0  0  0  0  0  0  # atno 8008 bound_to 7997
  154.4852  140.2098  155.9628 H   0  0  0  0  0  0  0  0  0  0  0  0  # atno 8009 bound_to 7997
  156.1265  140.3179  155.8290 H   0  0  0  0  0  0  0  0  0  0  0  0  # atno 8010 bound_to 7997
  140.7079  143.3248  151.2705 H   0  0  0  0  0  0  0  0  0  0  0  0  # atno 10167 bound_to 10162
  156.3325  130.7594  151.1715 H   0  0  0  0  0  0  0  0  0  0  0  0  # atno 10718 bound_to 10713
  154.7899  135.3203  154.7800 H   0  0  0  0  0  0  0  0  0  0  0  0  # atno 10763 bound_to 10752
  153.8492  135.6864  153.4798 H   0  0  0  0  0  0  0  0  0  0  0  0  # atno 10764 bound_to 10752
  153.1565  135.4678  154.9652 H   0  0  0  0  0  0  0  0  0  0  0  0  # atno 10765 bound_to 10752
  139.9019  134.9588  156.7088 H   0  0  0  0  0  0  0  0  0  0  0  0  # atno 11005 bound_to 11000
  146.3034  139.7501  142.9074 LP  0  0  0  0  0  0  0  0  0  0  0  0  # atno 17320 bound_to 7965
  145.3840  141.0362  143.3161 LP  0  0  0  0  0  0  0  0  0  0  0  0  # atno 17321 bound_to 7965
  139.6713  144.0014  152.2755 LP  0  0  0  0  0  0  0  0  0  0  0  0  # atno 17342 bound_to 10162
  139.9614  144.6555  150.8076 LP  0  0  0  0  0  0  0  0  0  0  0  0  # atno 17343 bound_to 10162
  157.7433  131.0477  150.4958 LP  0  0  0  0  0  0  0  0  0  0  0  0  # atno 17370 bound_to 10713
  156.5126  130.4143  149.6293 LP  0  0  0  0  0  0  0  0  0  0  0  0  # atno 17371 bound_to 10713
  140.7092  133.9238  155.8073 LP  0  0  0  0  0  0  0  0  0  0  0  0  # atno 17394 bound_to 11000
  141.0313  134.0752  157.4010 LP  0  0  0  0  0  0  0  0  0  0  0  0  # atno 17395 bound_to 11000

$$$$
