AV-unprocessed.smi:47|AV-procd|sdf|444|dock1
  -GOLD-   2262016313D 1   1.00000     0.00000
 Structure written by MMmdl.
 30 32  0  0  0  0  0  0  0  0  2 V2000
  145.9411  140.8433  154.5232 O   0  0  0  0  0  0  0  0  0  0  0  0
  147.2475  140.8724  153.9888 C   0  0  2  0  0  0  0  0  0  0  0  0
  147.8298  139.4751  153.7958 C   0  0  0  0  0  0  0  0  0  0  0  0
  149.2801  139.6499  153.7848 N   0  0  0  0  0  0  0  0  0  0  0  0
  149.5913  140.9379  154.4178 C   0  0  2  0  0  0  0  0  0  0  0  0
  150.6395  140.8471  155.5113 C   0  0  0  0  0  0  0  0  0  0  0  0
  151.6534  139.9583  155.5437 N   0  0  0  0  0  0  0  0  0  0  0  0
  152.3079  140.1878  156.6664 N   0  5  0  0  0  0  0  0  0  0  0  0
  151.6858  141.1921  157.3025 C   0  0  0  0  0  0  0  0  0  0  0  0
  152.1513  141.7084  158.6063 C   0  0  0  0  0  0  0  0  0  0  0  0
  153.0059  140.9298  159.4211 C   0  0  0  0  0  0  0  0  0  0  0  0
  153.4583  141.4088  160.6661 C   0  0  0  0  0  0  0  0  0  0  0  0
  153.0604  142.6799  161.1180 C   0  0  0  0  0  0  0  0  0  0  0  0
  152.2100  143.4679  160.3215 C   0  0  0  0  0  0  0  0  0  0  0  0
  151.7608  142.9845  159.0771 C   0  0  0  0  0  0  0  0  0  0  0  0
  150.6387  141.6179  156.6102 N   0  0  0  0  0  0  0  0  0  0  0  0
  148.2620  141.5098  154.9266 C   0  0  0  0  0  0  0  0  0  0  0  0
  147.2368  141.4051  153.0368 H   0  0  0  0  0  0  0  0  0  0  0  0
  149.9764  141.6082  153.6485 H   0  0  0  0  0  0  0  0  0  0  0  0
  145.3287  140.7388  153.8112 H   0  0  0  0  0  0  0  0  0  0  0  0
  147.5525  138.8423  154.6399 H   0  0  0  0  0  0  0  0  0  0  0  0
  147.4699  138.9906  152.8881 H   0  0  0  0  0  0  0  0  0  0  0  0
  149.5955  139.6854  152.8213 H   0  0  0  0  0  0  0  0  0  0  0  0
  153.3225  139.9512  159.0912 H   0  0  0  0  0  0  0  0  0  0  0  0
  154.1112  140.7994  161.2732 H   0  0  0  0  0  0  0  0  0  0  0  0
  153.4061  143.0490  162.0723 H   0  0  0  0  0  0  0  0  0  0  0  0
  151.9010  144.4445  160.6640 H   0  0  0  0  0  0  0  0  0  0  0  0
  151.1080  143.6067  158.4827 H   0  0  0  0  0  0  0  0  0  0  0  0
  148.2375  142.5999  154.9252 H   0  0  0  0  0  0  0  0  0  0  0  0
  148.0770  141.1713  155.9481 H   0  0  0  0  0  0  0  0  0  0  0  0
  1  2  1  0  0  0  0
  1 20  1  0  0  0  0
  2 18  1  0  0  0  0
  2 17  1  0  0  0  0
  2  3  1  0  0  0  0
  3  4  1  0  0  0  0
  3 21  1  0  0  0  0
  3 22  1  0  0  0  0
  4  5  1  0  0  0  0
  4 23  1  0  0  0  0
  5 19  1  0  0  0  0
  5  6  1  0  0  0  0
  5 17  1  0  0  0  0
  6 16  1  0  0  0  0
  6  7  2  0  0  0  0
  7  8  1  0  0  0  0
  8  9  1  0  0  0  0
  9 10  1  0  0  0  0
  9 16  2  0  0  0  0
 10 15  1  0  0  0  0
 10 11  2  0  0  0  0
 11 12  1  0  0  0  0
 11 24  1  0  0  0  0
 12 13  2  0  0  0  0
 12 25  1  0  0  0  0
 13 14  1  0  0  0  0
 13 26  1  0  0  0  0
 14 15  2  0  0  0  0
 14 27  1  0  0  0  0
 15 28  1  0  0  0  0
 17 29  1  0  0  0  0
 17 30  1  0  0  0  0
M  CHG  1   8  -1
M  END
> <s_m_source_file>
AV-unprocessed.smi

> <i_m_source_file_index>
47

> <i_lp_mmshare_version>
43012

> <i_f3d_flags>
0

> <s_epik_input>
W09IXVtDQEhdMVtDSDJdW05IXVtDQEBIXShbQ0gyXTEpYzJuW25IXWMobjIpLWMzW2NIXVtjSF1bY0hdW2NIXVtjSF0z

> <s_epik_cmdline>
J2VwaWtfcHl0aG9uJywgJy1waCcsICc3LjAnLCAnLXRuJywgJzgnLCAnLW1hJywgJzIwMCcsICctbWV0YWxfYmluZGluZycsICctaW1hZScsICc8aW5maWxlLm1hZT4nLCAnLW9tYWUnLCAnPG91dGZpbGUubWFlPic=

> <r_epik_Ionization_Penalty>
16.1968

> <r_epik_Ionization_Penalty_Charging>
13.1522

> <r_epik_Ionization_Penalty_Neutral>
3.04463

> <r_epik_State_Penalty>
6.32428

> <r_epik_Charging_Adjusted_Penalty>
19.4764

> <i_epik_Tot_Q>
-1

> <i_epik_Tot_abs_Q>
1

> <r_epik_Metal_State_Penalty>
2.82187

> <b_epik_Metal_Only>
1

> <s_lp_Force_Field>
OPLS_2005

> <r_lp_Energy>
30.45

> <b_lp_Chiralities_Consistent>
1

> <s_lp_Variant>
AV-unprocessed.smi:47-22

> <Gold.Version>
5.8.1

> <Gold.Id.Protein>
6NUR|6NUR_protein|mol2

> <Gold.PLP.Fitness>
44.3681

> <Gold.PLP.PLP>
-34.8918

> <Gold.PLP.part.hbond>
-3.5466

> <Gold.PLP.part.metal>
0.0000

> <Gold.PLP.part.buried>
-1.7297

> <Gold.PLP.part.nonpolar>
-28.7350

> <Gold.PLP.part.repulsive>
0.0746

> <Gold.PLP.ligand.clash>
0.0000

> <Gold.PLP.ligand.torsion>
0.8866

> <Gold.PLP.Chemscore.Hbond>
3.7463

> <Gold.PLP.Chemscore.CHOScore>
0.0000

> <Gold.PLP.Chemscore.Metal>
0.0000

> <Gold.Chemscore.Hbonds>
donor molecule, donor type, donor heavy atom, donor atom, acceptor molecule, acceptor atom, score
      L1  H     1    20       P1 10175  0.75
      L1  H     4    23       P1  7957  1.00
      P1  H  7997  8008       L1     8  1.95

> <Gold.PLP.Chemscore.Internal.Correction>
0.0108

> <Gold.Rescore>
     Score         DG    S(hbond)    S(metal)    S(lipo)     H(rot)  DE(clash)    DE(int)     intcor
     19.66     -21.12       2.74        0.00      87.47       1.46       0.69       0.77       ----

> <Gold.Chemscore.Fitness>
19.6608

> <Gold.Chemscore.DG>
-21.1175

> <Gold.Chemscore.ZeroCoef>
-5.4800

> <Gold.Chemscore.Hbond>
2.7383

> <Gold.Chemscore.Metal>
0.0000

> <Gold.Chemscore.Lipo>
87.4742

> <Gold.Chemscore.Internal_Hbond>
0.0000

> <Gold.Chemscore.DEClash>
0.6916

> <Gold.Chemscore.DEInternal>
0.7651

> <Gold.Chemscore.Rot>
1.4621

> <Gold.Chemscore.Internal.Correction>
   9.000000E+99

> <Gold.Chemscore.Hbonds>
donor molecule, donor type, donor heavy atom, donor atom, acceptor molecule, acceptor atom, score
      L1  H     1    20       P1 10175  0.72
      L1  H     4    23       P1  7957  1.00
      P1  H  7997  8008       L1     8  0.76

> <Gold.Chemscore.Hbond.Weighted>
-9.1459

> <Gold.Chemscore.Metal.Weighted>
-0.0000

> <Gold.Chemscore.Lipo.Weighted>
-10.2345

> <Gold.Chemscore.Internal_Hbond.Weighted>
0.0000

> <Gold.Chemscore.DEClash.Weighted>
0.6916

> <Gold.Chemscore.DEInternal.Weighted>
0.7651

> <Gold.Chemscore.Rot.Weighted>
3.7429

> <Gold.Chemscore.Internal.Correction.Weighted>
   9.000000E+99

> <Gold.Protein.RotatedTorsions>
[ 6907 6896 6895 6894 ] final -176.60 input  -60.11 | X-H torsion
[ 7974 7965 7964 7962 ] final   66.22 input  175.53 | X-H torsion
[ 8008 7997 7996 7995 ] final  -48.15 input   59.86 | X-H torsion
[ 10167 10162 10161 10158 ] final  -84.71 input  -65.29 | X-H torsion
[ 10718 10713 10712 10709 ] final -121.99 input   66.30 | X-H torsion
[ 10763 10752 10751 10750 ] final  -15.30 input  -60.55 | X-H torsion
[ 11005 11000 10999 10996 ] final  138.42 input  -57.11 | X-H torsion

> <Gold.Protein.ActiveResidues>
 VAL166  LYS551  ARG553  GLY616  TRP617  ASP618  TYR619  PRO620  LYS621  CYS622 
 ASP623  PHE694  ASN695  SER759  ASP760  ASP761  ALA762  ILE779  LEU786  VAL792 
 PHE793  MET794  SER795  GLU796  ALA797  LYS798  CYS799  TRP800  GLU811  SER814 

> <Gold.Protein.RotatedAtoms>
  151.6075  133.3350  159.3060 H   0  0  0  0  0  0  0  0  0  0  0  0  # atno 6907 bound_to 6896
  150.8174  134.7367  159.6754 H   0  0  0  0  0  0  0  0  0  0  0  0  # atno 6908 bound_to 6896
  152.4270  134.5856  160.0011 H   0  0  0  0  0  0  0  0  0  0  0  0  # atno 6909 bound_to 6896
  145.8292  139.3129  143.0997 H   0  0  0  0  0  0  0  0  0  0  0  0  # atno 7974 bound_to 7965
  154.4025  140.1328  156.4293 H   0  0  0  0  0  0  0  0  0  0  0  0  # atno 8008 bound_to 7997
  155.7567  140.3487  155.5157 H   0  0  0  0  0  0  0  0  0  0  0  0  # atno 8009 bound_to 7997
  155.8898  140.1001  157.1417 H   0  0  0  0  0  0  0  0  0  0  0  0  # atno 8010 bound_to 7997
  140.4107  143.2624  151.9021 H   0  0  0  0  0  0  0  0  0  0  0  0  # atno 10167 bound_to 10162
  156.1382  130.6446  150.9730 H   0  0  0  0  0  0  0  0  0  0  0  0  # atno 10718 bound_to 10713
  153.5413  135.7013  153.5635 H   0  0  0  0  0  0  0  0  0  0  0  0  # atno 10763 bound_to 10752
  153.3600  135.3972  155.1711 H   0  0  0  0  0  0  0  0  0  0  0  0  # atno 10764 bound_to 10752
  154.8673  135.3786  154.4917 H   0  0  0  0  0  0  0  0  0  0  0  0  # atno 10765 bound_to 10752
  140.0182  134.9409  157.0420 H   0  0  0  0  0  0  0  0  0  0  0  0  # atno 11005 bound_to 11000
  145.9590  140.8850  143.0220 LP  0  0  0  0  0  0  0  0  0  0  0  0  # atno 17320 bound_to 7965
  144.6741  140.1786  143.7408 LP  0  0  0  0  0  0  0  0  0  0  0  0  # atno 17321 bound_to 7965
  139.4782  144.5540  151.8342 LP  0  0  0  0  0  0  0  0  0  0  0  0  # atno 17342 bound_to 10162
  140.4641  144.1680  150.5909 LP  0  0  0  0  0  0  0  0  0  0  0  0  # atno 17343 bound_to 10162
  157.6552  131.0890  150.7964 LP  0  0  0  0  0  0  0  0  0  0  0  0  # atno 17370 bound_to 10713
  156.8042  130.4931  149.5365 LP  0  0  0  0  0  0  0  0  0  0  0  0  # atno 17371 bound_to 10713
  140.4433  134.1658  155.7175 LP  0  0  0  0  0  0  0  0  0  0  0  0  # atno 17394 bound_to 11000
  141.1757  133.8519  157.1430 LP  0  0  0  0  0  0  0  0  0  0  0  0  # atno 17395 bound_to 11000

$$$$
