AV-unprocessed.smi:2169|AV-procd|sdf|8822|dock4
  -GOLD-   2272012 13D 1   1.00000     0.00000
 Structure written by MMmdl.
 44 45  0  0  0  0  0  0  0  0  1 V2000
  151.6798  141.0994  157.4323 C   0  0  0  0  0  0  0  0  0  0  0  0
  150.7307  140.0736  156.2359 S   0  0  0  0  0  0  0  0  0  0  0  0
  151.5266  139.9500  155.0051 O   0  0  0  0  0  0  0  0  0  0  0  0
  150.2737  138.8616  156.9330 O   0  0  0  0  0  0  0  0  0  0  0  0
  149.3281  141.0363  155.8685 N   0  0  0  0  0  0  0  0  0  0  0  0
  149.1225  141.5482  154.4987 C   0  0  0  0  0  0  0  0  0  0  0  0
  148.0889  140.7092  153.7264 C   0  0  0  0  0  0  0  0  0  0  0  0
  146.7664  140.5947  154.5035 C   0  0  0  0  0  0  0  0  0  0  0  0
  145.8183  139.7352  153.8005 N   0  0  0  0  0  0  0  0  0  0  0  0
  145.8983  138.3995  153.7217 C   0  0  0  0  0  0  0  0  0  0  0  0
  146.7810  137.7276  154.2555 O   0  0  0  0  0  0  0  0  0  0  0  0
  144.9037  137.8845  152.9856 N   0  0  0  0  0  0  0  0  0  0  0  0
  144.7229  136.4661  152.7006 C   0  0  0  0  0  0  0  0  0  0  0  0
  144.9558  136.1534  151.2132 C   0  0  0  0  0  0  0  0  0  0  0  0
  145.2721  134.6894  150.9788 C   0  0  0  0  0  0  0  0  0  0  0  0
  144.4006  133.8692  150.2329 C   0  0  0  0  0  0  0  0  0  0  0  0
  144.7394  132.5155  150.0434 C   0  0  0  0  0  0  0  0  0  0  0  0
  145.9381  132.0387  150.6108 C   0  0  0  0  0  0  0  0  0  0  0  0
  146.7793  132.8145  151.3278 N   0  0  0  0  0  0  0  0  0  0  0  0
  146.4475  134.1118  151.5038 C   0  0  0  0  0  0  0  0  0  0  0  0
  147.0474  140.0233  155.9008 C   0  0  0  0  0  0  0  0  0  0  0  0
  148.0896  140.8676  156.6549 C   0  0  0  0  0  0  0  0  0  0  0  0
  152.5884  140.5676  157.7132 H   0  0  0  0  0  0  0  0  0  0  0  0
  151.0833  141.2746  158.3259 H   0  0  0  0  0  0  0  0  0  0  0  0
  151.9537  142.0477  156.9737 H   0  0  0  0  0  0  0  0  0  0  0  0
  148.7756  142.5800  154.5664 H   0  0  0  0  0  0  0  0  0  0  0  0
  150.0679  141.5774  153.9577 H   0  0  0  0  0  0  0  0  0  0  0  0
  147.9129  141.1648  152.7515 H   0  0  0  0  0  0  0  0  0  0  0  0
  148.4898  139.7156  153.5282 H   0  0  0  0  0  0  0  0  0  0  0  0
  146.3307  141.5893  154.6190 H   0  0  0  0  0  0  0  0  0  0  0  0
  145.0534  140.1937  153.3278 H   0  0  0  0  0  0  0  0  0  0  0  0
  144.2260  138.5186  152.5884 H   0  0  0  0  0  0  0  0  0  0  0  0
  145.3894  135.8714  153.3278 H   0  0  0  0  0  0  0  0  0  0  0  0
  143.7053  136.1936  152.9819 H   0  0  0  0  0  0  0  0  0  0  0  0
  144.0748  136.4261  150.6306 H   0  0  0  0  0  0  0  0  0  0  0  0
  145.7790  136.7541  150.8239 H   0  0  0  0  0  0  0  0  0  0  0  0
  143.4885  134.2677  149.8134 H   0  0  0  0  0  0  0  0  0  0  0  0
  144.0967  131.8582  149.4766 H   0  0  0  0  0  0  0  0  0  0  0  0
  146.2285  131.0061  150.4853 H   0  0  0  0  0  0  0  0  0  0  0  0
  147.1398  134.7056  152.0828 H   0  0  0  0  0  0  0  0  0  0  0  0
  146.1239  139.9874  156.4800 H   0  0  0  0  0  0  0  0  0  0  0  0
  147.3941  138.9935  155.8186 H   0  0  0  0  0  0  0  0  0  0  0  0
  148.3113  140.4196  157.6231 H   0  0  0  0  0  0  0  0  0  0  0  0
  147.6771  141.8558  156.8613 H   0  0  0  0  0  0  0  0  0  0  0  0
  1  2  1  0  0  0  0
  1 23  1  0  0  0  0
  1 24  1  0  0  0  0
  1 25  1  0  0  0  0
  2  3  2  0  0  0  0
  2  4  2  0  0  0  0
  2  5  1  0  0  0  0
  5 22  1  0  0  0  0
  5  6  1  0  0  0  0
  6  7  1  0  0  0  0
  6 26  1  0  0  0  0
  6 27  1  0  0  0  0
  7  8  1  0  0  0  0
  7 28  1  0  0  0  0
  7 29  1  0  0  0  0
  8  9  1  0  0  0  0
  8 21  1  0  0  0  0
  8 30  1  0  0  0  0
  9 10  1  0  0  0  0
  9 31  1  0  0  0  0
 10 11  2  0  0  0  0
 10 12  1  0  0  0  0
 12 13  1  0  0  0  0
 12 32  1  0  0  0  0
 13 14  1  0  0  0  0
 13 33  1  0  0  0  0
 13 34  1  0  0  0  0
 14 15  1  0  0  0  0
 14 35  1  0  0  0  0
 14 36  1  0  0  0  0
 15 20  1  0  0  0  0
 15 16  2  0  0  0  0
 16 17  1  0  0  0  0
 16 37  1  0  0  0  0
 17 18  2  0  0  0  0
 17 38  1  0  0  0  0
 18 19  1  0  0  0  0
 18 39  1  0  0  0  0
 19 20  2  0  0  0  0
 20 40  1  0  0  0  0
 21 22  1  0  0  0  0
 21 41  1  0  0  0  0
 21 42  1  0  0  0  0
 22 43  1  0  0  0  0
 22 44  1  0  0  0  0
M  END
> <s_m_source_file>
AV-unprocessed.smi

> <i_m_source_file_index>
2169

> <i_lp_mmshare_version>
43012

> <i_f3d_flags>
0

> <s_epik_input>
W0NIM11TKD1PKSg9TylOMVtDSDJdW0NIMl1bQ0hdKFtDSDJdW0NIMl0xKVtOSF1DKD1PKVtOSF1bQ0gyXVtDSDJdYzJbY0hdW2NIXVtjSF1uW2NIXTI=

> <s_epik_cmdline>
J2VwaWtfcHl0aG9uJywgJy1waCcsICc3LjAnLCAnLXRuJywgJzgnLCAnLW1hJywgJzIwMCcsICctbWV0YWxfYmluZGluZycsICctaW1hZScsICc8aW5maWxlLm1hZT4nLCAnLW9tYWUnLCAnPG91dGZpbGUubWFlPic=

> <r_epik_Ionization_Penalty>
0.0144137

> <r_epik_Ionization_Penalty_Charging>
0

> <r_epik_Ionization_Penalty_Neutral>
0.0144137

> <r_epik_State_Penalty>
0.0112268

> <r_epik_Charging_Adjusted_Penalty>
0.0112268

> <i_epik_Tot_Q>
0

> <i_epik_Tot_abs_Q>
0

> <r_epik_Metal_State_Penalty>
0.0109605

> <b_epik_Metal_Only>
0

> <s_lp_Force_Field>
OPLS_2005

> <r_lp_Energy>
-3.92684

> <b_lp_Chiralities_Consistent>
1

> <s_lp_Variant>
AV-unprocessed.smi:2169-1

> <Gold.Version>
5.8.1

> <Gold.Id.Protein>
6NUR|6NUR_protein|mol2

> <Gold.PLP.Fitness>
44.7406

> <Gold.PLP.PLP>
-32.6453

> <Gold.PLP.part.hbond>
-3.0000

> <Gold.PLP.part.metal>
0.0000

> <Gold.PLP.part.buried>
-1.9590

> <Gold.PLP.part.nonpolar>
-27.2163

> <Gold.PLP.part.repulsive>
0.4780

> <Gold.PLP.ligand.clash>
0.0000

> <Gold.PLP.ligand.torsion>
1.3409

> <Gold.PLP.Chemscore.Hbond>
2.9120

> <Gold.PLP.Chemscore.CHOScore>
1.3143

> <Gold.PLP.Chemscore.Metal>
0.0000

> <Gold.Chemscore.Hbonds>
donor molecule, donor type, donor heavy atom, donor atom, acceptor molecule, acceptor atom, score
      L1  H     9    31       P1 10175  1.00
      L1  H    12    32       P1 10175  0.91
      P1  H  7989  7998       L1     3  1.00
      L1  C    18    39       P1 10747  0.27
      L1  C    20    40       P1  7948  1.00

> <Gold.PLP.Chemscore.Internal.Correction>
2.0980

> <Gold.Rescore>
     Score         DG    S(hbond)    S(metal)    S(lipo)     H(rot)  DE(clash)    DE(int)     intcor
     16.97     -19.69       2.81        0.00      77.31       1.64       0.12       2.61       ----

> <Gold.Chemscore.Fitness>
16.9668

> <Gold.Chemscore.DG>
-19.6914

> <Gold.Chemscore.ZeroCoef>
-5.4800

> <Gold.Chemscore.Hbond>
2.8056

> <Gold.Chemscore.Metal>
0.0000

> <Gold.Chemscore.Lipo>
77.3103

> <Gold.Chemscore.Internal_Hbond>
0.0000

> <Gold.Chemscore.DEClash>
0.1160

> <Gold.Chemscore.DEInternal>
2.6086

> <Gold.Chemscore.Rot>
1.6425

> <Gold.Chemscore.Internal.Correction>
   9.000000E+99

> <Gold.Chemscore.Hbonds>
donor molecule, donor type, donor heavy atom, donor atom, acceptor molecule, acceptor atom, score
      L1  H     9    31       P1 10175  0.99
      L1  H    12    32       P1 10175  0.84
      P1  H  7989  7998       L1     3  0.99

> <Gold.Chemscore.Hbond.Weighted>
-9.3708

> <Gold.Chemscore.Metal.Weighted>
-0.0000

> <Gold.Chemscore.Lipo.Weighted>
-9.0453

> <Gold.Chemscore.Internal_Hbond.Weighted>
0.0000

> <Gold.Chemscore.DEClash.Weighted>
0.1160

> <Gold.Chemscore.DEInternal.Weighted>
2.6086

> <Gold.Chemscore.Rot.Weighted>
4.2047

> <Gold.Chemscore.Internal.Correction.Weighted>
   9.000000E+99

> <Gold.Protein.RotatedTorsions>
[ 6907 6896 6895 6894 ] final -115.65 input  -60.11 | X-H torsion
[ 7974 7965 7964 7962 ] final  -12.44 input  175.53 | X-H torsion
[ 8008 7997 7996 7995 ] final -116.21 input   59.86 | X-H torsion
[ 10167 10162 10161 10158 ] final -115.83 input  -65.29 | X-H torsion
[ 10718 10713 10712 10709 ] final   84.99 input   66.30 | X-H torsion
[ 10763 10752 10751 10750 ] final  129.09 input  -60.55 | X-H torsion
[ 11005 11000 10999 10996 ] final -161.57 input  -57.11 | X-H torsion

> <Gold.Protein.ActiveResidues>
 VAL166  LYS551  ARG553  GLY616  TRP617  ASP618  TYR619  PRO620  LYS621  CYS622 
 ASP623  PHE694  ASN695  SER759  ASP760  ASP761  ALA762  ILE779  LEU786  VAL792 
 PHE793  MET794  SER795  GLU796  ALA797  LYS798  CYS799  TRP800  GLU811  SER814 

> <Gold.Protein.RotatedAtoms>
  150.7994  133.8629  159.3236 H   0  0  0  0  0  0  0  0  0  0  0  0  # atno 6907 bound_to 6896
  151.6445  135.1007  160.0157 H   0  0  0  0  0  0  0  0  0  0  0  0  # atno 6908 bound_to 6896
  152.4080  133.6879  159.6408 H   0  0  0  0  0  0  0  0  0  0  0  0  # atno 6909 bound_to 6896
  146.2152  140.3058  142.8378 H   0  0  0  0  0  0  0  0  0  0  0  0  # atno 7974 bound_to 7965
  155.0642  140.0393  157.2587 H   0  0  0  0  0  0  0  0  0  0  0  0  # atno 8008 bound_to 7997
  154.7035  140.2678  155.6673 H   0  0  0  0  0  0  0  0  0  0  0  0  # atno 8009 bound_to 7997
  156.2767  140.2736  156.1653 H   0  0  0  0  0  0  0  0  0  0  0  0  # atno 8010 bound_to 7997
  140.0858  143.4745  152.1899 H   0  0  0  0  0  0  0  0  0  0  0  0  # atno 10167 bound_to 10162
  157.6907  131.0156  150.2756 H   0  0  0  0  0  0  0  0  0  0  0  0  # atno 10718 bound_to 10713
  153.7361  135.3231  155.3295 H   0  0  0  0  0  0  0  0  0  0  0  0  # atno 10763 bound_to 10752
  154.8310  135.4533  154.1073 H   0  0  0  0  0  0  0  0  0  0  0  0  # atno 10764 bound_to 10752
  153.2234  135.6951  153.8054 H   0  0  0  0  0  0  0  0  0  0  0  0  # atno 10765 bound_to 10752
  140.6189  134.4771  157.5222 H   0  0  0  0  0  0  0  0  0  0  0  0  # atno 11005 bound_to 11000
  144.9024  140.7659  143.5858 LP  0  0  0  0  0  0  0  0  0  0  0  0  # atno 17320 bound_to 7965
  145.2984  139.1859  143.4702 LP  0  0  0  0  0  0  0  0  0  0  0  0  # atno 17321 bound_to 7965
  139.5753  144.7484  151.3781 LP  0  0  0  0  0  0  0  0  0  0  0  0  # atno 17342 bound_to 10162
  140.7054  143.7526  150.7473 LP  0  0  0  0  0  0  0  0  0  0  0  0  # atno 17343 bound_to 10162
  156.3311  130.3800  149.7490 LP  0  0  0  0  0  0  0  0  0  0  0  0  # atno 17370 bound_to 10713
  156.5029  130.8137  151.3139 LP  0  0  0  0  0  0  0  0  0  0  0  0  # atno 17371 bound_to 10713
  139.9161  134.8243  156.1361 LP  0  0  0  0  0  0  0  0  0  0  0  0  # atno 17394 bound_to 11000
  141.0756  133.6777  156.2229 LP  0  0  0  0  0  0  0  0  0  0  0  0  # atno 17395 bound_to 11000

$$$$
