AV-unprocessed.smi:2061|AV-procd|sdf|8383|dock9
  -GOLD-   2272011 63D 1   1.00000     0.00000
 Structure written by MMmdl.
 45 46  0  0  0  0  0  0  0  0  3 V2000
  151.1831  140.7557  156.5765 C   0  0  0  0  0  0  0  0  0  0  0  0
  151.4956  139.3273  156.2892 C   0  0  0  0  0  0  0  0  0  0  0  0
  150.7217  138.2042  156.2106 C   0  0  0  0  0  0  0  0  0  0  0  0
  151.6622  137.1825  155.9058 C   0  0  0  0  0  0  0  0  0  0  0  0
  151.3824  135.8840  155.7140 N   0  5  0  0  0  0  0  0  0  0  0  0
  150.1821  135.5124  155.2145 C   0  0  0  0  0  0  0  0  0  0  0  0
  149.2287  136.2548  154.9678 O   0  0  0  0  0  0  0  0  0  0  0  0
  150.0808  134.1965  154.9792 N   0  0  0  0  0  0  0  0  0  0  0  0
  148.9116  133.5210  154.4250 C   0  0  0  0  0  0  0  0  0  0  0  0
  149.2829  132.3412  153.4899 C   0  0  1  0  0  0  0  0  0  0  0  0
  149.9472  131.2036  154.3027 C   0  0  0  0  0  0  0  0  0  0  0  0
  148.0738  131.9084  152.7171 N   0  3  1  0  0  0  0  0  0  0  0  0
  147.2375  130.9407  153.4768 C   0  0  0  0  0  0  0  0  0  0  0  0
  146.0732  130.4020  152.6250 C   0  0  2  0  0  0  0  0  0  0  0  0
  146.5143  129.4087  151.5349 C   0  0  0  0  0  0  0  0  0  0  0  0
  145.3105  131.4862  152.1004 O   0  0  0  0  0  0  0  0  0  0  0  0
  146.0617  132.4227  151.3356 C   0  0  1  0  0  0  0  0  0  0  0  0
  145.0994  133.5163  150.8582 C   0  0  0  0  0  0  0  0  0  0  0  0
  147.2094  132.9968  152.1874 C   0  0  0  0  0  0  0  0  0  0  0  0
  152.8953  137.6473  155.7935 N   0  0  0  0  0  0  0  0  0  0  0  0
  152.7977  139.0214  156.0434 O   0  0  0  0  0  0  0  0  0  0  0  0
  151.0754  141.3203  155.6502 H   0  0  0  0  0  0  0  0  0  0  0  0
  151.9768  141.2171  157.1648 H   0  0  0  0  0  0  0  0  0  0  0  0
  150.2525  140.8440  157.1376 H   0  0  0  0  0  0  0  0  0  0  0  0
  149.6543  138.1245  156.3513 H   0  0  0  0  0  0  0  0  0  0  0  0
  150.8825  133.6234  155.1984 H   0  0  0  0  0  0  0  0  0  0  0  0
  148.3141  133.1533  155.2598 H   0  0  0  0  0  0  0  0  0  0  0  0
  148.2943  134.2646  153.9218 H   0  0  0  0  0  0  0  0  0  0  0  0
  150.0279  132.6813  152.7686 H   0  0  0  0  0  0  0  0  0  0  0  0
  150.8113  131.5621  154.8619 H   0  0  0  0  0  0  0  0  0  0  0  0
  150.3226  130.4072  153.6602 H   0  0  0  0  0  0  0  0  0  0  0  0
  149.2530  130.7677  155.0218 H   0  0  0  0  0  0  0  0  0  0  0  0
  147.8289  130.1028  153.8428 H   0  0  0  0  0  0  0  0  0  0  0  0
  146.8359  131.4405  154.3600 H   0  0  0  0  0  0  0  0  0  0  0  0
  145.4014  129.8586  153.2903 H   0  0  0  0  0  0  0  0  0  0  0  0
  146.9769  128.5277  151.9806 H   0  0  0  0  0  0  0  0  0  0  0  0
  147.2414  129.8412  150.8483 H   0  0  0  0  0  0  0  0  0  0  0  0
  145.6595  129.0701  150.9491 H   0  0  0  0  0  0  0  0  0  0  0  0
  146.4730  131.9303  150.4543 H   0  0  0  0  0  0  0  0  0  0  0  0
  145.6181  134.2615  150.2547 H   0  0  0  0  0  0  0  0  0  0  0  0
  144.6366  134.0308  151.7009 H   0  0  0  0  0  0  0  0  0  0  0  0
  144.3013  133.0929  150.2480 H   0  0  0  0  0  0  0  0  0  0  0  0
  146.8140  133.5858  153.0168 H   0  0  0  0  0  0  0  0  0  0  0  0
  147.7808  133.6699  151.5491 H   0  0  0  0  0  0  0  0  0  0  0  0
  148.4258  131.4204  151.9059 H   0  0  0  0  0  0  0  0  0  0  0  0
  1  2  1  0  0  0  0
  1 22  1  0  0  0  0
  1 23  1  0  0  0  0
  1 24  1  0  0  0  0
  2 21  1  0  0  0  0
  2  3  2  0  0  0  0
  3  4  1  0  0  0  0
  3 25  1  0  0  0  0
  4  5  1  0  0  0  0
  4 20  2  0  0  0  0
  5  6  1  0  0  0  0
  6  7  2  0  0  0  0
  6  8  1  0  0  0  0
  8  9  1  0  0  0  0
  8 26  1  0  0  0  0
  9 10  1  0  0  0  0
  9 27  1  0  0  0  0
  9 28  1  0  0  0  0
 10 11  1  0  0  0  0
 10 12  1  0  0  0  0
 10 29  1  0  0  0  0
 11 30  1  0  0  0  0
 11 31  1  0  0  0  0
 11 32  1  0  0  0  0
 12 19  1  0  0  0  0
 12 13  1  0  0  0  0
 12 45  1  0  0  0  0
 13 14  1  0  0  0  0
 13 33  1  0  0  0  0
 13 34  1  0  0  0  0
 14 15  1  0  0  0  0
 14 16  1  0  0  0  0
 14 35  1  0  0  0  0
 15 36  1  0  0  0  0
 15 37  1  0  0  0  0
 15 38  1  0  0  0  0
 16 17  1  0  0  0  0
 17 18  1  0  0  0  0
 17 19  1  0  0  0  0
 17 39  1  0  0  0  0
 18 40  1  0  0  0  0
 18 41  1  0  0  0  0
 18 42  1  0  0  0  0
 19 43  1  0  0  0  0
 19 44  1  0  0  0  0
 20 21  1  0  0  0  0
M  CHG  1   5  -1
M  CHG  1  12   1
M  END
> <s_m_source_file>
AV-unprocessed.smi

> <i_m_source_file_index>
2061

> <i_lp_mmshare_version>
43012

> <i_f3d_flags>
0

> <s_epik_input>
W0NIM11jMVtjSF1jKG5vMSlbTkhdQyg9TylbTkhdW0NIMl1bQ0BIXShbQ0gzXSlOMltDSDJdW0NAQEhdKFtDSDNdKU9bQ0BASF0oW0NIM10pW0NIMl0y

> <s_epik_cmdline>
J2VwaWtfcHl0aG9uJywgJy1waCcsICc3LjAnLCAnLXRuJywgJzgnLCAnLW1hJywgJzIwMCcsICctbWV0YWxfYmluZGluZycsICctaW1hZScsICc8aW5maWxlLm1hZT4nLCAnLW9tYWUnLCAnPG91dGZpbGUubWFlPic=

> <r_epik_Ionization_Penalty>
6.73511

> <r_epik_Ionization_Penalty_Charging>
6.73502

> <r_epik_Ionization_Penalty_Neutral>
9.50841e-05

> <r_epik_State_Penalty>
6.93549

> <r_epik_Charging_Adjusted_Penalty>
13.6705

> <i_epik_Tot_Q>
0

> <i_epik_Tot_abs_Q>
2

> <r_epik_Metal_State_Penalty>
2.87211

> <b_epik_Metal_Only>
1

> <s_lp_Force_Field>
OPLS_2005

> <r_lp_Energy>
11.2328

> <b_lp_Chiralities_Consistent>
1

> <s_lp_Variant>
AV-unprocessed.smi:2061-24

> <Gold.Version>
5.8.1

> <Gold.Id.Protein>
6NUR|6NUR_protein|mol2

> <Gold.PLP.Fitness>
44.8656

> <Gold.PLP.PLP>
-34.3771

> <Gold.PLP.part.hbond>
-3.8016

> <Gold.PLP.part.metal>
0.0000

> <Gold.PLP.part.buried>
-6.9380

> <Gold.PLP.part.nonpolar>
-25.3985

> <Gold.PLP.part.repulsive>
2.2676

> <Gold.PLP.ligand.clash>
0.0000

> <Gold.PLP.ligand.torsion>
0.7988

> <Gold.PLP.Chemscore.Hbond>
4.0000

> <Gold.PLP.Chemscore.CHOScore>
0.0000

> <Gold.PLP.Chemscore.Metal>
0.0000

> <Gold.Chemscore.Hbonds>
donor molecule, donor type, donor heavy atom, donor atom, acceptor molecule, acceptor atom, score
      L1  H    12    45       P1 10747  1.00
      P1  H  7997  8010       L1    21  1.00
      P1  H 10752 10765       L1     5  1.40

> <Gold.PLP.Chemscore.Internal.Correction>
0.0860

> <Gold.Rescore>
     Score         DG    S(hbond)    S(metal)    S(lipo)     H(rot)  DE(clash)    DE(int)     intcor
     14.59     -17.09       2.09        0.00      73.50       1.56       0.21       2.29       ----

> <Gold.Chemscore.Fitness>
14.5889

> <Gold.Chemscore.DG>
-17.0923

> <Gold.Chemscore.ZeroCoef>
-5.4800

> <Gold.Chemscore.Hbond>
2.0938

> <Gold.Chemscore.Metal>
0.0000

> <Gold.Chemscore.Lipo>
73.5023

> <Gold.Chemscore.Internal_Hbond>
0.0000

> <Gold.Chemscore.DEClash>
0.2104

> <Gold.Chemscore.DEInternal>
2.2931

> <Gold.Chemscore.Rot>
1.5550

> <Gold.Chemscore.Internal.Correction>
   9.000000E+99

> <Gold.Chemscore.Hbonds>
donor molecule, donor type, donor heavy atom, donor atom, acceptor molecule, acceptor atom, score
      L1  H    12    45       P1 10747  1.00
      P1  H  7997  8010       L1    21  0.97
      P1  H 10752 10765       L1     5  0.07

> <Gold.Chemscore.Hbond.Weighted>
-6.9934

> <Gold.Chemscore.Metal.Weighted>
-0.0000

> <Gold.Chemscore.Lipo.Weighted>
-8.5998

> <Gold.Chemscore.Internal_Hbond.Weighted>
0.0000

> <Gold.Chemscore.DEClash.Weighted>
0.2104

> <Gold.Chemscore.DEInternal.Weighted>
2.2931

> <Gold.Chemscore.Rot.Weighted>
3.9809

> <Gold.Chemscore.Internal.Correction.Weighted>
   9.000000E+99

> <Gold.Protein.RotatedTorsions>
[ 6907 6896 6895 6894 ] final  154.80 input  -60.11 | X-H torsion
[ 7974 7965 7964 7962 ] final  102.71 input  175.53 | X-H torsion
[ 8008 7997 7996 7995 ] final   91.02 input   59.86 | X-H torsion
[ 10167 10162 10161 10158 ] final   39.18 input  -65.29 | X-H torsion
[ 10718 10713 10712 10709 ] final  169.55 input   66.30 | X-H torsion
[ 10763 10752 10751 10750 ] final -160.05 input  -60.55 | X-H torsion
[ 11005 11000 10999 10996 ] final -178.28 input  -57.11 | X-H torsion

> <Gold.Protein.ActiveResidues>
 VAL166  LYS551  ARG553  GLY616  TRP617  ASP618  TYR619  PRO620  LYS621  CYS622 
 ASP623  PHE694  ASN695  SER759  ASP760  ASP761  ALA762  ILE779  LEU786  VAL792 
 PHE793  MET794  SER795  GLU796  ALA797  LYS798  CYS799  TRP800  GLU811  SER814 

> <Gold.Protein.RotatedAtoms>
  152.0533  133.4029  159.4386 H   0  0  0  0  0  0  0  0  0  0  0  0  # atno 6907 bound_to 6896
  150.6869  134.3283  159.4825 H   0  0  0  0  0  0  0  0  0  0  0  0  # atno 6908 bound_to 6896
  152.1095  134.9284  160.0618 H   0  0  0  0  0  0  0  0  0  0  0  0  # atno 6909 bound_to 6896
  145.3555  139.2429  143.3535 H   0  0  0  0  0  0  0  0  0  0  0  0  # atno 7974 bound_to 7965
  156.0188  140.3342  155.7017 H   0  0  0  0  0  0  0  0  0  0  0  0  # atno 8008 bound_to 7997
  155.6052  140.0659  157.2739 H   0  0  0  0  0  0  0  0  0  0  0  0  # atno 8009 bound_to 7997
  154.4308  140.1803  156.1203 H   0  0  0  0  0  0  0  0  0  0  0  0  # atno 8010 bound_to 7997
  140.3864  144.1911  150.6130 H   0  0  0  0  0  0  0  0  0  0  0  0  # atno 10167 bound_to 10162
  157.0210  131.0232  151.2774 H   0  0  0  0  0  0  0  0  0  0  0  0  # atno 10718 bound_to 10713
  154.7423  135.3071  154.8707 H   0  0  0  0  0  0  0  0  0  0  0  0  # atno 10763 bound_to 10752
  153.9518  135.6763  153.4748 H   0  0  0  0  0  0  0  0  0  0  0  0  # atno 10764 bound_to 10752
  153.1021  135.4907  154.8810 H   0  0  0  0  0  0  0  0  0  0  0  0  # atno 10765 bound_to 10752
  140.4316  134.6514  157.4714 H   0  0  0  0  0  0  0  0  0  0  0  0  # atno 11005 bound_to 11000
  146.2950  140.4179  142.8725 LP  0  0  0  0  0  0  0  0  0  0  0  0  # atno 17320 bound_to 7965
  144.8686  140.7240  143.6061 LP  0  0  0  0  0  0  0  0  0  0  0  0  # atno 17321 bound_to 7965
  140.4884  143.2355  151.8854 LP  0  0  0  0  0  0  0  0  0  0  0  0  # atno 17342 bound_to 10162
  139.4792  144.5193  151.8824 LP  0  0  0  0  0  0  0  0  0  0  0  0  # atno 17343 bound_to 10162
  157.5249  130.8021  149.7851 LP  0  0  0  0  0  0  0  0  0  0  0  0  # atno 17370 bound_to 10713
  156.0102  130.3837  150.2291 LP  0  0  0  0  0  0  0  0  0  0  0  0  # atno 17371 bound_to 10713
  140.0131  134.6661  155.9351 LP  0  0  0  0  0  0  0  0  0  0  0  0  # atno 17394 bound_to 11000
  141.1743  133.6539  156.4769 LP  0  0  0  0  0  0  0  0  0  0  0  0  # atno 17395 bound_to 11000

$$$$
