AV-unprocessed.smi:1669|AV-procd|sdf|6686|dock4
  -GOLD-   22720 7413D 1   1.00000     0.00000
 Structure written by MMmdl.
 48 50  0  0  0  0  0  0  0  0  2 V2000
  147.1024  139.0185  152.8343 C   0  0  0  0  0  0  0  0  0  0  0  0
  146.0747  139.7669  153.5956 N   0  3  2  0  0  0  0  0  0  0  0  0
  146.5122  141.1418  153.9498 C   0  0  0  0  0  0  0  0  0  0  0  0
  147.6979  141.1315  154.8975 C   0  0  0  0  0  0  0  0  0  0  0  0
  148.9835  140.8127  154.4111 C   0  0  0  0  0  0  0  0  0  0  0  0
  150.0880  140.8016  155.2849 C   0  0  0  0  0  0  0  0  0  0  0  0
  149.9114  141.1104  156.6477 C   0  0  0  0  0  0  0  0  0  0  0  0
  148.6300  141.4310  157.1365 C   0  0  0  0  0  0  0  0  0  0  0  0
  147.5251  141.4427  156.2633 C   0  0  0  0  0  0  0  0  0  0  0  0
  145.5752  138.9971  154.7632 C   0  0  0  0  0  0  0  0  0  0  0  0
  145.1020  137.5837  154.3701 C   0  0  1  0  0  0  0  0  0  0  0  0
  144.4285  137.0099  155.4736 O   0  0  0  0  0  0  0  0  0  0  0  0
  144.1595  137.6162  153.1514 C   0  0  0  0  0  0  0  0  0  0  0  0
  143.6027  136.3056  152.8416 N   0  0  0  0  0  0  0  0  0  0  0  0
  142.4077  135.7809  153.2163 C   0  0  0  0  0  0  0  0  0  0  0  0
  141.4273  136.5375  154.0595 C   0  0  0  0  0  0  0  0  0  0  0  0
  140.2479  135.8044  154.3114 O   0  0  0  0  0  0  0  0  0  0  0  0
  142.1577  134.5444  152.7850 N   0  0  0  0  0  0  0  0  0  0  0  0
  143.2916  134.2389  152.0580 C   0  0  0  0  0  0  0  0  0  0  0  0
  143.6401  133.0689  151.3462 C   0  0  0  0  0  0  0  0  0  0  0  0
  144.8747  132.9864  150.6694 C   0  0  0  0  0  0  0  0  0  0  0  0
  145.7762  134.0703  150.6935 C   0  0  0  0  0  0  0  0  0  0  0  0
  145.4485  135.2455  151.3965 C   0  0  0  0  0  0  0  0  0  0  0  0
  144.2155  135.3218  152.0718 C   0  0  0  0  0  0  0  0  0  0  0  0
  147.9918  138.8480  153.4424 H   0  0  0  0  0  0  0  0  0  0  0  0
  147.4008  139.5567  151.9348 H   0  0  0  0  0  0  0  0  0  0  0  0
  146.7163  138.0499  152.5150 H   0  0  0  0  0  0  0  0  0  0  0  0
  146.8123  141.6930  153.0587 H   0  0  0  0  0  0  0  0  0  0  0  0
  145.6806  141.6999  154.3832 H   0  0  0  0  0  0  0  0  0  0  0  0
  149.1259  140.5745  153.3668 H   0  0  0  0  0  0  0  0  0  0  0  0
  151.0711  140.5565  154.9105 H   0  0  0  0  0  0  0  0  0  0  0  0
  150.7588  141.1025  157.3176 H   0  0  0  0  0  0  0  0  0  0  0  0
  148.4954  141.6686  158.1817 H   0  0  0  0  0  0  0  0  0  0  0  0
  146.5454  141.6891  156.6463 H   0  0  0  0  0  0  0  0  0  0  0  0
  146.3622  138.9002  155.5133 H   0  0  0  0  0  0  0  0  0  0  0  0
  144.7693  139.5553  155.2423 H   0  0  0  0  0  0  0  0  0  0  0  0
  145.9557  136.9494  154.1338 H   0  0  0  0  0  0  0  0  0  0  0  0
  144.2530  136.1010  155.2795 H   0  0  0  0  0  0  0  0  0  0  0  0
  143.3537  138.3330  153.3080 H   0  0  0  0  0  0  0  0  0  0  0  0
  144.7037  137.9641  152.2725 H   0  0  0  0  0  0  0  0  0  0  0  0
  141.8911  136.7860  155.0150 H   0  0  0  0  0  0  0  0  0  0  0  0
  141.1752  137.4833  153.5803 H   0  0  0  0  0  0  0  0  0  0  0  0
  140.4093  135.2115  155.0289 H   0  0  0  0  0  0  0  0  0  0  0  0
  142.9561  132.2335  151.3206 H   0  0  0  0  0  0  0  0  0  0  0  0
  145.1307  132.0872  150.1282 H   0  0  0  0  0  0  0  0  0  0  0  0
  146.7188  133.9985  150.1709 H   0  0  0  0  0  0  0  0  0  0  0  0
  146.1368  136.0771  151.4155 H   0  0  0  0  0  0  0  0  0  0  0  0
  145.2822  139.8644  152.9761 H   0  0  0  0  0  0  0  0  0  0  0  0
  1  2  1  0  0  0  0
  1 25  1  0  0  0  0
  1 26  1  0  0  0  0
  1 27  1  0  0  0  0
  2  3  1  0  0  0  0
  2 10  1  0  0  0  0
  2 48  1  0  0  0  0
  3  4  1  0  0  0  0
  3 28  1  0  0  0  0
  3 29  1  0  0  0  0
  4  9  1  0  0  0  0
  4  5  2  0  0  0  0
  5  6  1  0  0  0  0
  5 30  1  0  0  0  0
  6  7  2  0  0  0  0
  6 31  1  0  0  0  0
  7  8  1  0  0  0  0
  7 32  1  0  0  0  0
  8  9  2  0  0  0  0
  8 33  1  0  0  0  0
  9 34  1  0  0  0  0
 10 11  1  0  0  0  0
 10 35  1  0  0  0  0
 10 36  1  0  0  0  0
 11 12  1  0  0  0  0
 11 13  1  0  0  0  0
 11 37  1  0  0  0  0
 12 38  1  0  0  0  0
 13 14  1  0  0  0  0
 13 39  1  0  0  0  0
 13 40  1  0  0  0  0
 14 24  1  0  0  0  0
 14 15  1  0  0  0  0
 15 16  1  0  0  0  0
 15 18  2  0  0  0  0
 16 17  1  0  0  0  0
 16 41  1  0  0  0  0
 16 42  1  0  0  0  0
 17 43  1  0  0  0  0
 18 19  1  0  0  0  0
 19 24  2  0  0  0  0
 19 20  1  0  0  0  0
 20 21  2  0  0  0  0
 20 44  1  0  0  0  0
 21 22  1  0  0  0  0
 21 45  1  0  0  0  0
 22 23  2  0  0  0  0
 22 46  1  0  0  0  0
 23 24  1  0  0  0  0
 23 47  1  0  0  0  0
M  CHG  1   2   1
M  END
> <s_m_source_file>
AV-unprocessed.smi

> <i_m_source_file_index>
1669

> <i_lp_mmshare_version>
43012

> <i_f3d_flags>
0

> <s_epik_input>
W2NIXTFbY0hdW2NIXVtjSF1bY0hdYzFbQ0gyXU4oW0NIM10pW0NIMl1bQ0BIXShbT0hdKVtDSDJdbihjKG4yKVtDSDJdW09IXSljKGMyMylbY0hdW2NIXVtjSF1bY0hdMw==

> <s_epik_cmdline>
J2VwaWtfcHl0aG9uJywgJy1waCcsICc3LjAnLCAnLXRuJywgJzgnLCAnLW1hJywgJzIwMCcsICctbWV0YWxfYmluZGluZycsICctaW1hZScsICc8aW5maWxlLm1hZT4nLCAnLW9tYWUnLCAnPG91dGZpbGUubWFlPic=

> <r_epik_Ionization_Penalty>
0.0949884

> <r_epik_Ionization_Penalty_Charging>
0.0475377

> <r_epik_Ionization_Penalty_Neutral>
0.0474507

> <r_epik_State_Penalty>
0.078247

> <r_epik_Charging_Adjusted_Penalty>
0.125785

> <i_epik_Tot_Q>
1

> <i_epik_Tot_abs_Q>
1

> <r_epik_Metal_State_Penalty>
0.0403451

> <b_epik_Metal_Only>
0

> <s_lp_Force_Field>
OPLS_2005

> <r_lp_Energy>
16.6823

> <b_lp_Chiralities_Consistent>
1

> <s_lp_Variant>
AV-unprocessed.smi:1669-4

> <Gold.Version>
5.8.1

> <Gold.Id.Protein>
6NUR|6NUR_protein|mol2

> <Gold.PLP.Fitness>
46.4084

> <Gold.PLP.PLP>
-38.3100

> <Gold.PLP.part.hbond>
-2.0000

> <Gold.PLP.part.metal>
0.0000

> <Gold.PLP.part.buried>
-4.2574

> <Gold.PLP.part.nonpolar>
-31.9673

> <Gold.PLP.part.repulsive>
0.2341

> <Gold.PLP.ligand.clash>
0.0000

> <Gold.PLP.ligand.torsion>
0.6285

> <Gold.PLP.Chemscore.Hbond>
3.0000

> <Gold.PLP.Chemscore.CHOScore>
0.0000

> <Gold.PLP.Chemscore.Metal>
0.0000

> <Gold.Chemscore.Hbonds>
donor molecule, donor type, donor heavy atom, donor atom, acceptor molecule, acceptor atom, score
      L1  H     2    48       P1 10175  2.00
      L1  H    17    43       P1 11000  1.00

> <Gold.PLP.Chemscore.Internal.Correction>
0.3554

> <Gold.Rescore>
     Score         DG    S(hbond)    S(metal)    S(lipo)     H(rot)  DE(clash)    DE(int)     intcor
     13.97     -14.85       1.96        0.00      93.68       3.17       0.13       0.75       ----

> <Gold.Chemscore.Fitness>
13.9685

> <Gold.Chemscore.DG>
-14.8481

> <Gold.Chemscore.ZeroCoef>
-5.4800

> <Gold.Chemscore.Hbond>
1.9554

> <Gold.Chemscore.Metal>
0.0000

> <Gold.Chemscore.Lipo>
93.6776

> <Gold.Chemscore.Internal_Hbond>
0.0000

> <Gold.Chemscore.DEClash>
0.1290

> <Gold.Chemscore.DEInternal>
0.7506

> <Gold.Chemscore.Rot>
3.1731

> <Gold.Chemscore.Internal.Correction>
   9.000000E+99

> <Gold.Chemscore.Hbonds>
donor molecule, donor type, donor heavy atom, donor atom, acceptor molecule, acceptor atom, score
      L1  H     2    48       P1 10175  0.99
      L1  H    17    43       P1 11000  0.96

> <Gold.Chemscore.Hbond.Weighted>
-6.5309

> <Gold.Chemscore.Metal.Weighted>
-0.0000

> <Gold.Chemscore.Lipo.Weighted>
-10.9603

> <Gold.Chemscore.Internal_Hbond.Weighted>
0.0000

> <Gold.Chemscore.DEClash.Weighted>
0.1290

> <Gold.Chemscore.DEInternal.Weighted>
0.7506

> <Gold.Chemscore.Rot.Weighted>
8.1230

> <Gold.Chemscore.Internal.Correction.Weighted>
   9.000000E+99

> <Gold.Protein.RotatedTorsions>
[ 6907 6896 6895 6894 ] final  -87.16 input  -60.11 | X-H torsion
[ 7974 7965 7964 7962 ] final -171.09 input  175.53 | X-H torsion
[ 8008 7997 7996 7995 ] final  -18.00 input   59.86 | X-H torsion
[ 10167 10162 10161 10158 ] final  148.92 input  -65.29 | X-H torsion
[ 10718 10713 10712 10709 ] final   39.05 input   66.30 | X-H torsion
[ 10763 10752 10751 10750 ] final  -48.55 input  -60.55 | X-H torsion
[ 11005 11000 10999 10996 ] final -102.09 input  -57.11 | X-H torsion

> <Gold.Protein.ActiveResidues>
 VAL166  LYS551  ARG553  GLY616  TRP617  ASP618  TYR619  PRO620  LYS621  CYS622 
 ASP623  PHE694  ASN695  SER759  ASP760  ASP761  ALA762  ILE779  LEU786  VAL792 
 PHE793  MET794  SER795  GLU796  ALA797  LYS798  CYS799  TRP800  GLU811  SER814 

> <Gold.Protein.RotatedAtoms>
  150.6866  134.2939  159.4677 H   0  0  0  0  0  0  0  0  0  0  0  0  # atno 6907 bound_to 6896
  152.0841  134.9449  160.0582 H   0  0  0  0  0  0  0  0  0  0  0  0  # atno 6908 bound_to 6896
  152.0790  133.4109  159.4529 H   0  0  0  0  0  0  0  0  0  0  0  0  # atno 6909 bound_to 6896
  144.7161  140.1975  143.6342 H   0  0  0  0  0  0  0  0  0  0  0  0  # atno 7974 bound_to 7965
  154.4937  140.2127  155.9493 H   0  0  0  0  0  0  0  0  0  0  0  0  # atno 8008 bound_to 7997
  156.1341  140.3191  155.8362 H   0  0  0  0  0  0  0  0  0  0  0  0  # atno 8009 bound_to 7997
  155.4242  140.0499  157.3014 H   0  0  0  0  0  0  0  0  0  0  0  0  # atno 8010 bound_to 7997
  139.4868  144.5642  151.7176 H   0  0  0  0  0  0  0  0  0  0  0  0  # atno 10167 bound_to 10162
  157.3661  130.7675  149.7083 H   0  0  0  0  0  0  0  0  0  0  0  0  # atno 10718 bound_to 10713
  154.0796  135.6593  153.4836 H   0  0  0  0  0  0  0  0  0  0  0  0  # atno 10763 bound_to 10752
  153.0361  135.5176  154.7487 H   0  0  0  0  0  0  0  0  0  0  0  0  # atno 10764 bound_to 10752
  154.6578  135.3010  154.9873 H   0  0  0  0  0  0  0  0  0  0  0  0  # atno 10765 bound_to 10752
  141.1204  133.8530  157.1315 H   0  0  0  0  0  0  0  0  0  0  0  0  # atno 11005 bound_to 11000
  145.8711  139.2272  143.1660 LP  0  0  0  0  0  0  0  0  0  0  0  0  # atno 17320 bound_to 7965
  146.0084  140.8458  142.9983 LP  0  0  0  0  0  0  0  0  0  0  0  0  # atno 17321 bound_to 7965
  140.5217  144.0869  150.6024 LP  0  0  0  0  0  0  0  0  0  0  0  0  # atno 17342 bound_to 10162
  140.3829  143.2793  152.0150 LP  0  0  0  0  0  0  0  0  0  0  0  0  # atno 17343 bound_to 10162
  155.9746  130.4100  150.3909 LP  0  0  0  0  0  0  0  0  0  0  0  0  # atno 17370 bound_to 10713
  157.1993  131.0434  151.2659 LP  0  0  0  0  0  0  0  0  0  0  0  0  # atno 17371 bound_to 10713
  140.0156  134.9969  157.0487 LP  0  0  0  0  0  0  0  0  0  0  0  0  # atno 17394 bound_to 11000
  140.4525  134.1568  155.7183 LP  0  0  0  0  0  0  0  0  0  0  0  0  # atno 17395 bound_to 11000

$$$$
