AV-unprocessed.smi:1815|AV-procd|sdf|7360|dock5
  -GOLD-   22720 9 23D 1   1.00000     0.00000
 Structure written by MMmdl.
 39 40  0  0  0  0  0  0  0  0  3 V2000
  151.6024  138.3213  154.6547 C   0  0  0  0  0  0  0  0  0  0  0  0
  150.3199  139.1259  154.8939 C   0  0  2  0  0  0  0  0  0  0  0  0
  149.2411  138.8189  153.8402 C   0  0  0  0  0  0  0  0  0  0  0  0
  148.0510  139.6738  154.0544 N   0  3  2  0  0  0  0  0  0  0  0  0
  146.9378  139.3399  153.1322 C   0  0  0  0  0  0  0  0  0  0  0  0
  146.2159  138.0460  153.5380 C   0  0  0  0  0  0  0  0  0  0  0  0
  146.4930  136.9881  152.5772 N   0  0  0  0  0  0  0  0  0  0  0  0
  145.5636  136.2592  151.9463 C   0  0  0  0  0  0  0  0  0  0  0  0
  144.3678  136.4720  152.1599 O   0  0  0  0  0  0  0  0  0  0  0  0
  146.0784  135.3310  151.1092 N   0  5  0  0  0  0  0  0  0  0  0  0
  145.3760  134.2235  150.8197 C   0  0  0  0  0  0  0  0  0  0  0  0
  144.0483  134.1435  150.9639 N   0  0  0  0  0  0  0  0  0  0  0  0
  143.5258  132.8977  150.6124 C   0  0  0  0  0  0  0  0  0  0  0  0
  144.4792  132.0054  150.1994 C   0  0  0  0  0  0  0  0  0  0  0  0
  146.0710  132.7081  150.2379 S   0  0  0  0  0  0  0  0  0  0  0  0
  148.4360  141.1063  154.0261 C   0  0  0  0  0  0  0  0  0  0  0  0
  149.5561  141.4009  155.0432 C   0  0  1  0  0  0  0  0  0  0  0  0
  149.0727  141.4112  156.5045 C   0  0  0  0  0  0  0  0  0  0  0  0
  150.6540  140.5105  154.8418 O   0  0  0  0  0  0  0  0  0  0  0  0
  151.4073  137.2494  154.6974 H   0  0  0  0  0  0  0  0  0  0  0  0
  152.3535  138.5520  155.4105 H   0  0  0  0  0  0  0  0  0  0  0  0
  152.0335  138.5447  153.6785 H   0  0  0  0  0  0  0  0  0  0  0  0
  149.9453  138.8743  155.8864 H   0  0  0  0  0  0  0  0  0  0  0  0
  149.6322  138.9838  152.8345 H   0  0  0  0  0  0  0  0  0  0  0  0
  148.9573  137.7676  153.9057 H   0  0  0  0  0  0  0  0  0  0  0  0
  146.2380  140.1752  153.0756 H   0  0  0  0  0  0  0  0  0  0  0  0
  147.3372  139.2027  152.1260 H   0  0  0  0  0  0  0  0  0  0  0  0
  146.5436  137.7300  154.5298 H   0  0  0  0  0  0  0  0  0  0  0  0
  145.1372  138.1958  153.5843 H   0  0  0  0  0  0  0  0  0  0  0  0
  147.4611  136.7853  152.3745 H   0  0  0  0  0  0  0  0  0  0  0  0
  142.4615  132.7330  150.6896 H   0  0  0  0  0  0  0  0  0  0  0  0
  144.3445  130.9838  149.8780 H   0  0  0  0  0  0  0  0  0  0  0  0
  148.7796  141.3613  153.0225 H   0  0  0  0  0  0  0  0  0  0  0  0
  147.5783  141.7447  154.2344 H   0  0  0  0  0  0  0  0  0  0  0  0
  149.9379  142.4004  154.8331 H   0  0  0  0  0  0  0  0  0  0  0  0
  148.3224  142.1875  156.6565 H   0  0  0  0  0  0  0  0  0  0  0  0
  149.8988  141.6153  157.1860 H   0  0  0  0  0  0  0  0  0  0  0  0
  148.6211  140.4645  156.7997 H   0  0  0  0  0  0  0  0  0  0  0  0
  147.7195  139.4720  154.9872 H   0  0  0  0  0  0  0  0  0  0  0  0
  1  2  1  0  0  0  0
  1 20  1  0  0  0  0
  1 21  1  0  0  0  0
  1 22  1  0  0  0  0
  2 19  1  0  0  0  0
  2  3  1  0  0  0  0
  2 23  1  0  0  0  0
  3  4  1  0  0  0  0
  3 24  1  0  0  0  0
  3 25  1  0  0  0  0
  4  5  1  0  0  0  0
  4 16  1  0  0  0  0
  4 39  1  0  0  0  0
  5  6  1  0  0  0  0
  5 26  1  0  0  0  0
  5 27  1  0  0  0  0
  6  7  1  0  0  0  0
  6 28  1  0  0  0  0
  6 29  1  0  0  0  0
  7  8  1  0  0  0  0
  7 30  1  0  0  0  0
  8  9  2  0  0  0  0
  8 10  1  0  0  0  0
 10 11  1  0  0  0  0
 11 15  1  0  0  0  0
 11 12  2  0  0  0  0
 12 13  1  0  0  0  0
 13 14  2  0  0  0  0
 13 31  1  0  0  0  0
 14 15  1  0  0  0  0
 14 32  1  0  0  0  0
 16 17  1  0  0  0  0
 16 33  1  0  0  0  0
 16 34  1  0  0  0  0
 17 18  1  0  0  0  0
 17 19  1  0  0  0  0
 17 35  1  0  0  0  0
 18 36  1  0  0  0  0
 18 37  1  0  0  0  0
 18 38  1  0  0  0  0
M  CHG  1   4   1
M  CHG  1  10  -1
M  END
> <s_m_source_file>
AV-unprocessed.smi

> <i_m_source_file_index>
1815

> <i_lp_mmshare_version>
43012

> <i_f3d_flags>
0

> <s_epik_input>
W0NIM11bQ0BASF0xW0NIMl1OKFtDSDJdW0NASF0oTzEpW0NIM10pW0NIMl1bQ0gyXVtOSF1DKD1PKVtOSF1jMm5bY0hdW2NIXXMy

> <s_epik_cmdline>
J2VwaWtfcHl0aG9uJywgJy1waCcsICc3LjAnLCAnLXRuJywgJzgnLCAnLW1hJywgJzIwMCcsICctbWV0YWxfYmluZGluZycsICctaW1hZScsICc8aW5maWxlLm1hZT4nLCAnLW9tYWUnLCAnPG91dGZpbGUubWFlPic=

> <r_lp_tautomer_probability>
0.999

> <r_epik_Ionization_Penalty>
6.71699

> <r_epik_Ionization_Penalty_Charging>
5.88592

> <r_epik_Ionization_Penalty_Neutral>
0.831074

> <r_epik_State_Penalty>
6.08365

> <r_epik_Charging_Adjusted_Penalty>
11.9696

> <i_epik_Tot_Q>
0

> <i_epik_Tot_abs_Q>
2

> <r_epik_Metal_State_Penalty>
2.0947

> <b_epik_Metal_Only>
1

> <s_lp_Force_Field>
OPLS_2005

> <r_lp_Energy>
8.1919

> <b_lp_Chiralities_Consistent>
1

> <s_lp_Variant>
AV-unprocessed.smi:1815-11

> <Gold.Version>
5.8.1

> <Gold.Id.Protein>
6NUR|6NUR_protein|mol2

> <Gold.PLP.Fitness>
40.0212

> <Gold.PLP.PLP>
-33.2859

> <Gold.PLP.part.hbond>
-2.0559

> <Gold.PLP.part.metal>
0.0000

> <Gold.PLP.part.buried>
-3.1060

> <Gold.PLP.part.nonpolar>
-29.6460

> <Gold.PLP.part.repulsive>
1.4603

> <Gold.PLP.ligand.clash>
0.0000

> <Gold.PLP.ligand.torsion>
0.7858

> <Gold.PLP.Chemscore.Hbond>
2.0000

> <Gold.PLP.Chemscore.CHOScore>
0.7636

> <Gold.PLP.Chemscore.Metal>
0.0000

> <Gold.Chemscore.Hbonds>
donor molecule, donor type, donor heavy atom, donor atom, acceptor molecule, acceptor atom, score
      L1  H     7    30       P1  7948  1.00
      P1  H  7989  7998       L1    19  1.00
      L1  C    13    31       P1 10186  0.73

> <Gold.PLP.Chemscore.Internal.Correction>
0.0160

> <Gold.Rescore>
     Score         DG    S(hbond)    S(metal)    S(lipo)     H(rot)  DE(clash)    DE(int)     intcor
     13.92     -16.46       1.69        0.00      80.82       1.61       0.14       2.40       ----

> <Gold.Chemscore.Fitness>
13.9175

> <Gold.Chemscore.DG>
-16.4582

> <Gold.Chemscore.ZeroCoef>
-5.4800

> <Gold.Chemscore.Hbond>
1.6867

> <Gold.Chemscore.Metal>
0.0000

> <Gold.Chemscore.Lipo>
80.8190

> <Gold.Chemscore.Internal_Hbond>
0.0000

> <Gold.Chemscore.DEClash>
0.1438

> <Gold.Chemscore.DEInternal>
2.3968

> <Gold.Chemscore.Rot>
1.6060

> <Gold.Chemscore.Internal.Correction>
   9.000000E+99

> <Gold.Chemscore.Hbonds>
donor molecule, donor type, donor heavy atom, donor atom, acceptor molecule, acceptor atom, score
      L1  H     7    30       P1  7948  1.00
      P1  H  7989  7998       L1    19  0.70

> <Gold.Chemscore.Hbond.Weighted>
-5.6336

> <Gold.Chemscore.Metal.Weighted>
-0.0000

> <Gold.Chemscore.Lipo.Weighted>
-9.4558

> <Gold.Chemscore.Internal_Hbond.Weighted>
0.0000

> <Gold.Chemscore.DEClash.Weighted>
0.1438

> <Gold.Chemscore.DEInternal.Weighted>
2.3968

> <Gold.Chemscore.Rot.Weighted>
4.1112

> <Gold.Chemscore.Internal.Correction.Weighted>
   9.000000E+99

> <Gold.Protein.RotatedTorsions>
[ 6907 6896 6895 6894 ] final   78.25 input  -60.11 | X-H torsion
[ 7974 7965 7964 7962 ] final    5.24 input  175.53 | X-H torsion
[ 8008 7997 7996 7995 ] final  135.24 input   59.86 | X-H torsion
[ 10167 10162 10161 10158 ] final  -14.57 input  -65.29 | X-H torsion
[ 10718 10713 10712 10709 ] final   49.48 input   66.30 | X-H torsion
[ 10763 10752 10751 10750 ] final -111.78 input  -60.55 | X-H torsion
[ 11005 11000 10999 10996 ] final  111.53 input  -57.11 | X-H torsion

> <Gold.Protein.ActiveResidues>
 VAL166  LYS551  ARG553  GLY616  TRP617  ASP618  TYR619  PRO620  LYS621  CYS622 
 ASP623  PHE694  ASN695  SER759  ASP760  ASP761  ALA762  ILE779  LEU786  VAL792 
 PHE793  MET794  SER795  GLU796  ALA797  LYS798  CYS799  TRP800  GLU811  SER814 

> <Gold.Protein.RotatedAtoms>
  152.5151  134.3693  159.9312 H   0  0  0  0  0  0  0  0  0  0  0  0  # atno 6907 bound_to 6896
  151.3647  133.3870  159.2701 H   0  0  0  0  0  0  0  0  0  0  0  0  # atno 6908 bound_to 6896
  150.9624  134.9029  159.7797 H   0  0  0  0  0  0  0  0  0  0  0  0  # atno 6909 bound_to 6896
  146.2441  140.0413  142.8382 H   0  0  0  0  0  0  0  0  0  0  0  0  # atno 7974 bound_to 7965
  156.3002  140.2476  156.3549 H   0  0  0  0  0  0  0  0  0  0  0  0  # atno 8008 bound_to 7997
  154.8931  140.0408  157.1869 H   0  0  0  0  0  0  0  0  0  0  0  0  # atno 8009 bound_to 7997
  154.8577  140.2916  155.5562 H   0  0  0  0  0  0  0  0  0  0  0  0  # atno 8010 bound_to 7997
  140.7203  143.5307  150.9523 H   0  0  0  0  0  0  0  0  0  0  0  0  # atno 10167 bound_to 10162
  157.4791  130.8304  149.8073 H   0  0  0  0  0  0  0  0  0  0  0  0  # atno 10718 bound_to 10713
  154.8317  135.4515  154.1092 H   0  0  0  0  0  0  0  0  0  0  0  0  # atno 10763 bound_to 10752
  153.2359  135.6911  153.7843 H   0  0  0  0  0  0  0  0  0  0  0  0  # atno 10764 bound_to 10752
  153.7209  135.3342  155.3242 H   0  0  0  0  0  0  0  0  0  0  0  0  # atno 10765 bound_to 10752
  139.8906  134.9510  156.6446 H   0  0  0  0  0  0  0  0  0  0  0  0  # atno 11005 bound_to 11000
  145.1067  140.9379  143.4681 LP  0  0  0  0  0  0  0  0  0  0  0  0  # atno 17320 bound_to 7965
  145.0618  139.3100  143.5876 LP  0  0  0  0  0  0  0  0  0  0  0  0  # atno 17321 bound_to 7965
  139.9027  143.6816  152.3128 LP  0  0  0  0  0  0  0  0  0  0  0  0  # atno 17342 bound_to 10162
  139.7171  144.7610  151.1016 LP  0  0  0  0  0  0  0  0  0  0  0  0  # atno 17343 bound_to 10162
  156.0112  130.3832  150.2258 LP  0  0  0  0  0  0  0  0  0  0  0  0  # atno 17370 bound_to 10713
  157.0444  131.0044  151.3273 LP  0  0  0  0  0  0  0  0  0  0  0  0  # atno 17371 bound_to 10713
  140.7567  133.8851  155.8387 LP  0  0  0  0  0  0  0  0  0  0  0  0  # atno 17394 bound_to 11000
  140.9956  134.1220  157.4367 LP  0  0  0  0  0  0  0  0  0  0  0  0  # atno 17395 bound_to 11000

$$$$
