AV-unprocessed.smi:1447|AV-procd|sdf|5891|dock8
  -GOLD-   22720 5573D 1   1.00000     0.00000
 Structure written by MMmdl.
 48 50  0  0  0  0  0  0  0  0  2 V2000
  154.1018  136.5851  163.1628 C   0  0  0  0  0  0  0  0  0  0  0  0
  154.3178  137.7248  162.3500 O   0  0  0  0  0  0  0  0  0  0  0  0
  154.1556  137.4485  160.9687 C   0  0  0  0  0  0  0  0  0  0  0  0
  152.7481  137.8673  160.5129 C   0  0  0  0  0  0  0  0  0  0  0  0
  152.5623  137.6789  159.0695 N   0  0  0  0  0  0  0  0  0  0  0  0
  151.5670  136.7715  158.7462 N   0  0  0  0  0  0  0  0  0  0  0  0
  151.2930  136.5200  157.5070 C   0  0  0  0  0  0  0  0  0  0  0  0
  150.2311  135.5504  157.1198 C   0  0  0  0  0  0  0  0  0  0  0  0
  149.7144  134.7883  157.9386 O   0  0  0  0  0  0  0  0  0  0  0  0
  149.8787  135.5704  155.8213 N   0  0  0  0  0  0  0  0  0  0  0  0
  148.8694  134.7133  155.2080 C   0  0  2  0  0  0  0  0  0  0  0  0
  149.5077  133.8787  154.0855 C   0  0  0  0  0  0  0  0  0  0  0  0
  148.4534  133.0302  153.3547 C   0  0  0  0  0  0  0  0  0  0  0  0
  147.3607  133.8802  152.8203 N   0  3  1  0  0  0  0  0  0  0  0  0
  146.3930  133.1018  152.0169 C   0  0  0  0  0  0  0  0  0  0  0  0
  146.6558  133.1575  150.5299 C   0  0  0  0  0  0  0  0  0  0  0  0
  145.5156  133.9517  151.1276 C   0  0  0  0  0  0  0  0  0  0  0  0
  146.6977  134.6618  153.8933 C   0  0  0  0  0  0  0  0  0  0  0  0
  147.7100  135.5504  154.6349 C   0  0  0  0  0  0  0  0  0  0  0  0
  152.0188  137.1800  156.4355 C   0  0  0  0  0  0  0  0  0  0  0  0
  152.9865  138.0630  156.7659 C   0  0  0  0  0  0  0  0  0  0  0  0
  153.3168  138.3662  158.1593 C   0  0  0  0  0  0  0  0  0  0  0  0
  154.1935  139.1670  158.4821 O   0  0  0  0  0  0  0  0  0  0  0  0
  154.2447  136.8500  164.2103 H   0  0  0  0  0  0  0  0  0  0  0  0
  154.8041  135.7870  162.9190 H   0  0  0  0  0  0  0  0  0  0  0  0
  153.0856  136.2061  163.0468 H   0  0  0  0  0  0  0  0  0  0  0  0
  154.9003  138.0083  160.4005 H   0  0  0  0  0  0  0  0  0  0  0  0
  154.3237  136.3892  160.7663 H   0  0  0  0  0  0  0  0  0  0  0  0
  151.9897  137.3347  161.0888 H   0  0  0  0  0  0  0  0  0  0  0  0
  152.5984  138.9215  160.7528 H   0  0  0  0  0  0  0  0  0  0  0  0
  150.3526  136.2264  155.2168 H   0  0  0  0  0  0  0  0  0  0  0  0
  148.4779  134.0295  155.9637 H   0  0  0  0  0  0  0  0  0  0  0  0
  150.0027  134.5356  153.3684 H   0  0  0  0  0  0  0  0  0  0  0  0
  150.2820  133.2295  154.4962 H   0  0  0  0  0  0  0  0  0  0  0  0
  148.9275  132.4872  152.5363 H   0  0  0  0  0  0  0  0  0  0  0  0
  148.0369  132.2821  154.0314 H   0  0  0  0  0  0  0  0  0  0  0  0
  146.0014  132.1953  152.4754 H   0  0  0  0  0  0  0  0  0  0  0  0
  147.5235  133.7133  150.1790 H   0  0  0  0  0  0  0  0  0  0  0  0
  146.3975  132.2793  149.9414 H   0  0  0  0  0  0  0  0  0  0  0  0
  144.5056  133.5969  150.9328 H   0  0  0  0  0  0  0  0  0  0  0  0
  145.6279  135.0336  151.1713 H   0  0  0  0  0  0  0  0  0  0  0  0
  145.9144  135.2860  153.4615 H   0  0  0  0  0  0  0  0  0  0  0  0
  146.2103  133.9818  154.5940 H   0  0  0  0  0  0  0  0  0  0  0  0
  147.2020  136.0918  155.4339 H   0  0  0  0  0  0  0  0  0  0  0  0
  148.0992  136.3054  153.9502 H   0  0  0  0  0  0  0  0  0  0  0  0
  151.7973  136.9751  155.3982 H   0  0  0  0  0  0  0  0  0  0  0  0
  153.5341  138.5612  155.9793 H   0  0  0  0  0  0  0  0  0  0  0  0
  147.7876  134.5474  152.1936 H   0  0  0  0  0  0  0  0  0  0  0  0
  1  2  1  0  0  0  0
  1 24  1  0  0  0  0
  1 25  1  0  0  0  0
  1 26  1  0  0  0  0
  2  3  1  0  0  0  0
  3  4  1  0  0  0  0
  3 27  1  0  0  0  0
  3 28  1  0  0  0  0
  4  5  1  0  0  0  0
  4 29  1  0  0  0  0
  4 30  1  0  0  0  0
  5 22  1  0  0  0  0
  5  6  1  0  0  0  0
  6  7  2  0  0  0  0
  7  8  1  0  0  0  0
  7 20  1  0  0  0  0
  8  9  2  0  0  0  0
  8 10  1  0  0  0  0
 10 11  1  0  0  0  0
 10 31  1  0  0  0  0
 11 19  1  0  0  0  0
 11 12  1  0  0  0  0
 11 32  1  0  0  0  0
 12 13  1  0  0  0  0
 12 33  1  0  0  0  0
 12 34  1  0  0  0  0
 13 14  1  0  0  0  0
 13 35  1  0  0  0  0
 13 36  1  0  0  0  0
 14 15  1  0  0  0  0
 14 18  1  0  0  0  0
 14 48  1  0  0  0  0
 15 17  1  0  0  0  0
 15 16  1  0  0  0  0
 15 37  1  0  0  0  0
 16 17  1  0  0  0  0
 16 38  1  0  0  0  0
 16 39  1  0  0  0  0
 17 40  1  0  0  0  0
 17 41  1  0  0  0  0
 18 19  1  0  0  0  0
 18 42  1  0  0  0  0
 18 43  1  0  0  0  0
 19 44  1  0  0  0  0
 19 45  1  0  0  0  0
 20 21  2  0  0  0  0
 20 46  1  0  0  0  0
 21 22  1  0  0  0  0
 21 47  1  0  0  0  0
 22 23  2  0  0  0  0
M  CHG  1  14   1
M  END
> <s_m_source_file>
AV-unprocessed.smi

> <i_m_source_file_index>
1447

> <i_lp_mmshare_version>
43012

> <i_f3d_flags>
0

> <s_epik_input>
W0NIM11PW0NIMl1bQ0gyXW4xbmMoW2NIXVtjSF1jMT1PKUMoPU8pW05IXVtDSF0yW0NIMl1bQ0gyXU4oW0NIMl1bQ0gyXTIpW0NIXTNbQ0gyXVtDSDJdMw==

> <s_epik_cmdline>
J2VwaWtfcHl0aG9uJywgJy1waCcsICc3LjAnLCAnLXRuJywgJzgnLCAnLW1hJywgJzIwMCcsICctbWV0YWxfYmluZGluZycsICctaW1hZScsICc8aW5maWxlLm1hZT4nLCAnLW9tYWUnLCAnPG91dGZpbGUubWFlPic=

> <r_lp_tautomer_probability>
1

> <r_epik_Ionization_Penalty>
0.168623

> <r_epik_Ionization_Penalty_Charging>
0.16862

> <r_epik_Ionization_Penalty_Neutral>
2.93027e-06

> <r_epik_State_Penalty>
0.157986

> <r_epik_Charging_Adjusted_Penalty>
0.326605

> <i_epik_Tot_Q>
1

> <i_epik_Tot_abs_Q>
1

> <r_epik_Metal_State_Penalty>
0.157986

> <b_epik_Metal_Only>
0

> <s_lp_Force_Field>
OPLS_2005

> <r_lp_Energy>
46.6346

> <b_lp_Chiralities_Consistent>
1

> <s_lp_Variant>
AV-unprocessed.smi:1447-1

> <Gold.Version>
5.8.1

> <Gold.Id.Protein>
6NUR|6NUR_protein|mol2

> <Gold.PLP.Fitness>
42.8951

> <Gold.PLP.PLP>
-30.1120

> <Gold.PLP.part.hbond>
-4.0000

> <Gold.PLP.part.metal>
0.0000

> <Gold.PLP.part.buried>
-3.5384

> <Gold.PLP.part.nonpolar>
-22.5519

> <Gold.PLP.part.repulsive>
0.0558

> <Gold.PLP.ligand.clash>
0.0940

> <Gold.PLP.ligand.torsion>
0.9946

> <Gold.PLP.Chemscore.Hbond>
4.5200

> <Gold.PLP.Chemscore.CHOScore>
0.0000

> <Gold.PLP.Chemscore.Metal>
0.0000

> <Gold.Chemscore.Hbonds>
donor molecule, donor type, donor heavy atom, donor atom, acceptor molecule, acceptor atom, score
      L1  H    14    48       P1  7948  2.00
      P1  H  6896  6907       L1     9  0.70
      P1  H  6896  6908       L1     6  0.80
      P1  H  7997  8010       L1    23  1.00

> <Gold.PLP.Chemscore.Internal.Correction>
1.3064

> <Gold.Rescore>
     Score         DG    S(hbond)    S(metal)    S(lipo)     H(rot)  DE(clash)    DE(int)     intcor
     17.76     -18.84       2.94        0.00      68.79       1.76       0.00       1.07       ----

> <Gold.Chemscore.Fitness>
17.7607

> <Gold.Chemscore.DG>
-18.8364

> <Gold.Chemscore.ZeroCoef>
-5.4800

> <Gold.Chemscore.Hbond>
2.9388

> <Gold.Chemscore.Metal>
0.0000

> <Gold.Chemscore.Lipo>
68.7904

> <Gold.Chemscore.Internal_Hbond>
0.0000

> <Gold.Chemscore.DEClash>
0.0021

> <Gold.Chemscore.DEInternal>
1.0736

> <Gold.Chemscore.Rot>
1.7608

> <Gold.Chemscore.Internal.Correction>
   9.000000E+99

> <Gold.Chemscore.Hbonds>
donor molecule, donor type, donor heavy atom, donor atom, acceptor molecule, acceptor atom, score
      L1  H    14    48       P1  7948  0.45
      P1  H  6896  6907       L1     9  0.68
      P1  H  6896  6908       L1     6  0.56
      P1  H  7997  8010       L1    23  0.70

> <Gold.Chemscore.Hbond.Weighted>
-9.8156

> <Gold.Chemscore.Metal.Weighted>
-0.0000

> <Gold.Chemscore.Lipo.Weighted>
-8.0485

> <Gold.Chemscore.Internal_Hbond.Weighted>
0.0000

> <Gold.Chemscore.DEClash.Weighted>
0.0021

> <Gold.Chemscore.DEInternal.Weighted>
1.0736

> <Gold.Chemscore.Rot.Weighted>
4.5077

> <Gold.Chemscore.Internal.Correction.Weighted>
   9.000000E+99

> <Gold.Protein.RotatedTorsions>
[ 6907 6896 6895 6894 ] final -118.04 input  -60.11 | X-H torsion
[ 7974 7965 7964 7962 ] final -163.43 input  175.53 | X-H torsion
[ 8008 7997 7996 7995 ] final   28.89 input   59.86 | X-H torsion
[ 10167 10162 10161 10158 ] final  104.45 input  -65.29 | X-H torsion
[ 10718 10713 10712 10709 ] final  101.44 input   66.30 | X-H torsion
[ 10763 10752 10751 10750 ] final   88.37 input  -60.55 | X-H torsion
[ 11005 11000 10999 10996 ] final  -99.42 input  -57.11 | X-H torsion

> <Gold.Protein.ActiveResidues>
 VAL166  LYS551  ARG553  GLY616  TRP617  ASP618  TYR619  PRO620  LYS621  CYS622 
 ASP623  PHE694  ASN695  SER759  ASP760  ASP761  ALA762  ILE779  LEU786  VAL792 
 PHE793  MET794  SER795  GLU796  ALA797  LYS798  CYS799  TRP800  GLU811  SER814 

> <Gold.Protein.RotatedAtoms>
  150.8187  133.8292  159.3148 H   0  0  0  0  0  0  0  0  0  0  0  0  # atno 6907 bound_to 6896
  151.6056  135.1042  160.0079 H   0  0  0  0  0  0  0  0  0  0  0  0  # atno 6908 bound_to 6896
  152.4277  133.7182  159.6575 H   0  0  0  0  0  0  0  0  0  0  0  0  # atno 6909 bound_to 6896
  144.7326  140.3108  143.6188 H   0  0  0  0  0  0  0  0  0  0  0  0  # atno 7974 bound_to 7965
  155.0659  140.3195  155.4646 H   0  0  0  0  0  0  0  0  0  0  0  0  # atno 8008 bound_to 7997
  156.2802  140.2120  156.5731 H   0  0  0  0  0  0  0  0  0  0  0  0  # atno 8009 bound_to 7997
  154.7094  140.0499  157.0523 H   0  0  0  0  0  0  0  0  0  0  0  0  # atno 8010 bound_to 7997
  139.7176  144.7065  151.0925 H   0  0  0  0  0  0  0  0  0  0  0  0  # atno 10167 bound_to 10162
  157.6829  131.0726  150.5253 H   0  0  0  0  0  0  0  0  0  0  0  0  # atno 10718 bound_to 10713
  153.1761  135.4509  154.9967 H   0  0  0  0  0  0  0  0  0  0  0  0  # atno 10763 bound_to 10752
  154.7999  135.3252  154.7578 H   0  0  0  0  0  0  0  0  0  0  0  0  # atno 10764 bound_to 10752
  153.8048  135.6959  153.4905 H   0  0  0  0  0  0  0  0  0  0  0  0  # atno 10765 bound_to 10752
  141.1309  133.8320  157.0970 H   0  0  0  0  0  0  0  0  0  0  0  0  # atno 11005 bound_to 11000
  145.7667  139.1843  143.2236 LP  0  0  0  0  0  0  0  0  0  0  0  0  # atno 17320 bound_to 7965
  146.0943  140.7619  142.9580 LP  0  0  0  0  0  0  0  0  0  0  0  0  # atno 17321 bound_to 7965
  140.7747  143.5209  150.9538 LP  0  0  0  0  0  0  0  0  0  0  0  0  # atno 17342 bound_to 10162
  139.8895  143.6971  152.3147 LP  0  0  0  0  0  0  0  0  0  0  0  0  # atno 17343 bound_to 10162
  156.5564  130.4244  149.6083 LP  0  0  0  0  0  0  0  0  0  0  0  0  # atno 17370 bound_to 10713
  156.2858  130.7096  151.1932 LP  0  0  0  0  0  0  0  0  0  0  0  0  # atno 17371 bound_to 10713
  140.0357  134.9879  157.0866 LP  0  0  0  0  0  0  0  0  0  0  0  0  # atno 17394 bound_to 11000
  140.4214  134.1876  155.7164 LP  0  0  0  0  0  0  0  0  0  0  0  0  # atno 17395 bound_to 11000

$$$$
