AV-unprocessed.smi:295|AV-procd|sdf|2256|dock9
  -GOLD-   2262022143D 1   1.00000     0.00000
 Structure written by MMmdl.
 35 36  0  0  0  0  0  0  0  0  1 V2000
  150.6127  141.1656  157.1667 C   0  0  0  0  0  0  0  0  0  0  0  0
  149.3958  141.6424  156.3538 C   0  0  2  0  0  0  0  0  0  0  0  0
  148.0739  141.1994  157.0153 C   0  0  0  0  0  0  0  0  0  0  0  0
  146.8519  141.7164  156.2402 C   0  0  0  0  0  0  0  0  0  0  0  0
  146.8958  141.2769  154.7694 C   0  0  0  0  0  0  0  0  0  0  0  0
  148.2093  141.7133  154.0967 C   0  0  0  0  0  0  0  0  0  0  0  0
  149.4519  141.2172  154.8631 C   0  0  2  0  0  0  0  0  0  0  0  0
  149.5698  139.7657  154.7328 N   0  0  0  0  0  0  0  0  0  0  0  0
  150.7079  139.0544  154.7135 C   0  0  0  0  0  0  0  0  0  0  0  0
  151.8315  139.5557  154.7020 O   0  0  0  0  0  0  0  0  0  0  0  0
  150.5463  137.5348  154.7496 C   0  0  0  0  0  0  0  0  0  0  0  0
  150.3970  137.0739  156.1186 N   0  0  0  0  0  0  0  0  0  0  0  0
  151.1331  136.2130  156.8292 C   0  0  0  0  0  0  0  0  0  0  0  0
  150.7274  136.0642  158.0843 N   0  0  0  0  0  0  0  0  0  0  0  0
  149.6667  136.9229  158.0674 C   0  0  0  0  0  0  0  0  0  0  0  0
  148.8560  137.1522  159.2509 C   0  0  0  0  0  0  0  0  0  0  0  0
  148.2100  137.3342  160.1934 N   0  0  0  0  0  0  0  0  0  0  0  0
  149.4142  137.5518  156.9217 N   0  0  0  0  0  0  0  0  0  0  0  0
  150.6299  140.0804  157.2722 H   0  0  0  0  0  0  0  0  0  0  0  0
  150.6000  141.5902  158.1708 H   0  0  0  0  0  0  0  0  0  0  0  0
  151.5458  141.4696  156.6923 H   0  0  0  0  0  0  0  0  0  0  0  0
  149.4157  142.7330  156.3724 H   0  0  0  0  0  0  0  0  0  0  0  0
  148.0334  140.1109  157.0773 H   0  0  0  0  0  0  0  0  0  0  0  0
  148.0322  141.5644  158.0420 H   0  0  0  0  0  0  0  0  0  0  0  0
  145.9358  141.3560  156.7085 H   0  0  0  0  0  0  0  0  0  0  0  0
  146.8195  142.8053  156.2951 H   0  0  0  0  0  0  0  0  0  0  0  0
  146.7893  140.1931  154.7082 H   0  0  0  0  0  0  0  0  0  0  0  0
  146.0466  141.6988  154.2311 H   0  0  0  0  0  0  0  0  0  0  0  0
  148.2363  141.3594  153.0652 H   0  0  0  0  0  0  0  0  0  0  0  0
  148.2356  142.8022  154.0428 H   0  0  0  0  0  0  0  0  0  0  0  0
  150.3235  141.6911  154.4082 H   0  0  0  0  0  0  0  0  0  0  0  0
  148.7022  139.2486  154.7339 H   0  0  0  0  0  0  0  0  0  0  0  0
  149.6751  137.2357  154.1648 H   0  0  0  0  0  0  0  0  0  0  0  0
  151.4183  137.0512  154.3072 H   0  0  0  0  0  0  0  0  0  0  0  0
  151.9913  135.6973  156.4237 H   0  0  0  0  0  0  0  0  0  0  0  0
  1  2  1  0  0  0  0
  1 19  1  0  0  0  0
  1 20  1  0  0  0  0
  1 21  1  0  0  0  0
  2  7  1  0  0  0  0
  2  3  1  0  0  0  0
  2 22  1  0  0  0  0
  3  4  1  0  0  0  0
  3 23  1  0  0  0  0
  3 24  1  0  0  0  0
  4  5  1  0  0  0  0
  4 25  1  0  0  0  0
  4 26  1  0  0  0  0
  5  6  1  0  0  0  0
  5 27  1  0  0  0  0
  5 28  1  0  0  0  0
  6  7  1  0  0  0  0
  6 29  1  0  0  0  0
  6 30  1  0  0  0  0
  7  8  1  0  0  0  0
  7 31  1  0  0  0  0
  8  9  1  0  0  0  0
  8 32  1  0  0  0  0
  9 10  2  0  0  0  0
  9 11  1  0  0  0  0
 11 12  1  0  0  0  0
 11 33  1  0  0  0  0
 11 34  1  0  0  0  0
 12 18  1  0  0  0  0
 12 13  1  0  0  0  0
 13 14  2  0  0  0  0
 13 35  1  0  0  0  0
 14 15  1  0  0  0  0
 15 16  1  0  0  0  0
 15 18  2  0  0  0  0
 16 17  3  0  0  0  0
M  END
> <s_m_source_file>
AV-unprocessed.smi

> <i_m_source_file_index>
295

> <i_lp_mmshare_version>
43012

> <i_f3d_flags>
0

> <s_epik_input>
W0NIM11bQ0BASF0xW0NIMl1bQ0gyXVtDSDJdW0NIMl1bQ0BIXTFbTkhdQyg9TylbQ0gyXW4yW2NIXW5jKG4yKUMjTg==

> <s_epik_cmdline>
J2VwaWtfcHl0aG9uJywgJy1waCcsICc3LjAnLCAnLXRuJywgJzgnLCAnLW1hJywgJzIwMCcsICctbWV0YWxfYmluZGluZycsICctaW1hZScsICc8aW5maWxlLm1hZT4nLCAnLW9tYWUnLCAnPG91dGZpbGUubWFlPic=

> <r_lp_tautomer_probability>
1

> <r_epik_Ionization_Penalty>
5.31112e-08

> <r_epik_Ionization_Penalty_Charging>
0

> <r_epik_Ionization_Penalty_Neutral>
5.31112e-08

> <r_epik_State_Penalty>
-0

> <r_epik_Charging_Adjusted_Penalty>
0

> <i_epik_Tot_Q>
0

> <i_epik_Tot_abs_Q>
0

> <r_epik_Metal_State_Penalty>
-0

> <b_epik_Metal_Only>
0

> <s_lp_Force_Field>
OPLS_2005

> <r_lp_Energy>
12.1326

> <b_lp_Chiralities_Consistent>
1

> <s_lp_Variant>
AV-unprocessed.smi:295-3

> <Gold.Version>
5.8.1

> <Gold.Id.Protein>
6NUR|6NUR_protein|mol2

> <Gold.PLP.Fitness>
34.0618

> <Gold.PLP.PLP>
-27.0801

> <Gold.PLP.part.hbond>
-4.0000

> <Gold.PLP.part.metal>
0.0000

> <Gold.PLP.part.buried>
-3.3565

> <Gold.PLP.part.nonpolar>
-19.8843

> <Gold.PLP.part.repulsive>
0.1586

> <Gold.PLP.ligand.clash>
0.0000

> <Gold.PLP.ligand.torsion>
0.7293

> <Gold.PLP.Chemscore.Hbond>
2.8090

> <Gold.PLP.Chemscore.CHOScore>
0.0000

> <Gold.PLP.Chemscore.Metal>
0.0000

> <Gold.Chemscore.Hbonds>
donor molecule, donor type, donor heavy atom, donor atom, acceptor molecule, acceptor atom, score
      P1  H  6896  6908       L1    14  0.64
      P1  H  6931  6943       L1    17  0.49
      P1  H  6934  6947       L1    17  0.50
      P1  H  7989  7998       L1    10  1.00

> <Gold.PLP.Chemscore.Internal.Correction>
0.0134

> <Gold.Rescore>
     Score         DG    S(hbond)    S(metal)    S(lipo)     H(rot)  DE(clash)    DE(int)     intcor
     13.81     -14.53       2.73        0.00      42.03       1.95       0.00       0.72       ----

> <Gold.Chemscore.Fitness>
13.8132

> <Gold.Chemscore.DG>
-14.5310

> <Gold.Chemscore.ZeroCoef>
-5.4800

> <Gold.Chemscore.Hbond>
2.7302

> <Gold.Chemscore.Metal>
0.0000

> <Gold.Chemscore.Lipo>
42.0295

> <Gold.Chemscore.Internal_Hbond>
0.0000

> <Gold.Chemscore.DEClash>
0.0025

> <Gold.Chemscore.DEInternal>
0.7153

> <Gold.Chemscore.Rot>
1.9474

> <Gold.Chemscore.Internal.Correction>
   9.000000E+99

> <Gold.Chemscore.Hbonds>
donor molecule, donor type, donor heavy atom, donor atom, acceptor molecule, acceptor atom, score
      P1  H  6896  6908       L1    14  0.58
      P1  H  6931  6943       L1    17  0.48
      P1  H  6934  6947       L1    17  0.51
      P1  H  7989  7998       L1    10  0.38

> <Gold.Chemscore.Hbond.Weighted>
-9.1188

> <Gold.Chemscore.Metal.Weighted>
-0.0000

> <Gold.Chemscore.Lipo.Weighted>
-4.9175

> <Gold.Chemscore.Internal_Hbond.Weighted>
0.0000

> <Gold.Chemscore.DEClash.Weighted>
0.0025

> <Gold.Chemscore.DEInternal.Weighted>
0.7153

> <Gold.Chemscore.Rot.Weighted>
4.9852

> <Gold.Chemscore.Internal.Correction.Weighted>
   9.000000E+99

> <Gold.Protein.RotatedTorsions>
[ 6907 6896 6895 6894 ] final -168.06 input  -60.11 | X-H torsion
[ 7974 7965 7964 7962 ] final  -90.60 input  175.53 | X-H torsion
[ 8008 7997 7996 7995 ] final  113.50 input   59.86 | X-H torsion
[ 10167 10162 10161 10158 ] final -141.41 input  -65.29 | X-H torsion
[ 10718 10713 10712 10709 ] final   95.43 input   66.30 | X-H torsion
[ 10763 10752 10751 10750 ] final   47.02 input  -60.55 | X-H torsion
[ 11005 11000 10999 10996 ] final   74.48 input  -57.11 | X-H torsion

> <Gold.Protein.ActiveResidues>
 VAL166  LYS551  ARG553  GLY616  TRP617  ASP618  TYR619  PRO620  LYS621  CYS622 
 ASP623  PHE694  ASN695  SER759  ASP760  ASP761  ALA762  ILE779  LEU786  VAL792 
 PHE793  MET794  SER795  GLU796  ALA797  LYS798  CYS799  TRP800  GLU811  SER814 

> <Gold.Protein.RotatedAtoms>
  151.4695  133.3572  159.2821 H   0  0  0  0  0  0  0  0  0  0  0  0  # atno 6907 bound_to 6896
  150.8970  134.8381  159.7344 H   0  0  0  0  0  0  0  0  0  0  0  0  # atno 6908 bound_to 6896
  152.4857  134.4611  159.9657 H   0  0  0  0  0  0  0  0  0  0  0  0  # atno 6909 bound_to 6896
  145.4243  140.9553  143.2163 H   0  0  0  0  0  0  0  0  0  0  0  0  # atno 7974 bound_to 7965
  156.2262  140.2978  156.0072 H   0  0  0  0  0  0  0  0  0  0  0  0  # atno 8008 bound_to 7997
  155.2351  140.0420  157.2984 H   0  0  0  0  0  0  0  0  0  0  0  0  # atno 8009 bound_to 7997
  154.5919  140.2403  155.7917 H   0  0  0  0  0  0  0  0  0  0  0  0  # atno 8010 bound_to 7997
  139.8187  143.7603  152.2665 H   0  0  0  0  0  0  0  0  0  0  0  0  # atno 10167 bound_to 10162
  157.6938  131.0545  150.4338 H   0  0  0  0  0  0  0  0  0  0  0  0  # atno 10718 bound_to 10713
  152.9804  135.5989  154.3695 H   0  0  0  0  0  0  0  0  0  0  0  0  # atno 10763 bound_to 10752
  154.3369  135.2768  155.2444 H   0  0  0  0  0  0  0  0  0  0  0  0  # atno 10764 bound_to 10752
  154.4543  135.5982  153.6268 H   0  0  0  0  0  0  0  0  0  0  0  0  # atno 10765 bound_to 10752
  139.9389  134.7436  156.1153 H   0  0  0  0  0  0  0  0  0  0  0  0  # atno 11005 bound_to 11000
  144.8224  139.5768  143.6981 LP  0  0  0  0  0  0  0  0  0  0  0  0  # atno 17320 bound_to 7965
  146.2640  139.6476  142.9342 LP  0  0  0  0  0  0  0  0  0  0  0  0  # atno 17321 bound_to 7965
  139.7775  144.7456  151.0136 LP  0  0  0  0  0  0  0  0  0  0  0  0  # atno 17342 bound_to 10162
  140.7814  143.4578  151.0321 LP  0  0  0  0  0  0  0  0  0  0  0  0  # atno 17343 bound_to 10162
  156.4703  130.4051  149.6522 LP  0  0  0  0  0  0  0  0  0  0  0  0  # atno 17370 bound_to 10713
  156.3605  130.7479  151.2450 LP  0  0  0  0  0  0  0  0  0  0  0  0  # atno 17371 bound_to 10713
  141.1015  133.6675  156.2765 LP  0  0  0  0  0  0  0  0  0  0  0  0  # atno 17394 bound_to 11000
  140.6003  134.5561  157.5516 LP  0  0  0  0  0  0  0  0  0  0  0  0  # atno 17395 bound_to 11000

$$$$
