AV-unprocessed.smi:527|AV-procd|sdf|2827|dock7
  -GOLD-   2262023313D 1   1.00000     0.00000
 Structure written by MMmdl.
 43 44  0  0  0  0  0  0  0  0  2 V2000
  149.4296  141.1945  156.0621 C   0  0  0  0  0  0  0  0  0  0  0  0
  149.1946  141.0940  154.5408 C   0  0  2  0  0  0  0  0  0  0  0  0
  147.9463  141.8879  154.1042 C   0  0  0  0  0  0  0  0  0  0  0  0
  146.6403  141.1959  154.5247 C   0  0  0  0  0  0  0  0  0  0  0  0
  146.5788  139.7562  153.9958 C   0  0  0  0  0  0  0  0  0  0  0  0
  147.8114  138.9326  154.4236 C   0  0  1  0  0  0  0  0  0  0  0  0
  147.7382  137.5973  153.8330 N   0  0  0  0  0  0  0  0  0  0  0  0
  146.7585  136.7062  154.0452 C   0  0  0  0  0  0  0  0  0  0  0  0
  145.8499  136.8786  154.8605 O   0  0  0  0  0  0  0  0  0  0  0  0
  146.9114  135.6246  153.2569 N   0  0  0  0  0  0  0  0  0  0  0  0
  146.1219  134.5330  153.1968 C   0  0  0  0  0  0  0  0  0  0  0  0
  145.1066  134.3566  153.8755 O   0  0  0  0  0  0  0  0  0  0  0  0
  146.5766  133.4662  152.1925 C   0  0  0  0  0  0  0  0  0  0  0  0
  145.5804  133.1956  151.1481 N   0  0  0  0  0  0  0  0  0  0  0  0
  145.6893  132.3133  150.1032 C   0  0  0  0  0  0  0  0  0  0  0  0
  144.5224  132.4073  149.3893 C   0  0  0  0  0  0  0  0  0  0  0  0
  143.7519  133.3428  150.0266 N   0  3  0  0  0  0  0  0  0  0  0  0
  144.3968  133.8214  151.0955 C   0  0  0  0  0  0  0  0  0  0  0  0
  149.1263  139.6394  154.0032 C   0  0  2  0  0  0  0  0  0  0  0  0
  150.3875  138.8241  154.3519 C   0  0  0  0  0  0  0  0  0  0  0  0
  148.6504  140.6923  156.6344 H   0  0  0  0  0  0  0  0  0  0  0  0
  149.4509  142.2361  156.3831 H   0  0  0  0  0  0  0  0  0  0  0  0
  150.3850  140.7561  156.3495 H   0  0  0  0  0  0  0  0  0  0  0  0
  150.0523  141.5752  154.0689 H   0  0  0  0  0  0  0  0  0  0  0  0
  147.9790  142.8995  154.5103 H   0  0  0  0  0  0  0  0  0  0  0  0
  147.9545  141.9995  153.0191 H   0  0  0  0  0  0  0  0  0  0  0  0
  146.5505  141.1928  155.6113 H   0  0  0  0  0  0  0  0  0  0  0  0
  145.7871  141.7619  154.1503 H   0  0  0  0  0  0  0  0  0  0  0  0
  145.6643  139.2790  154.3501 H   0  0  0  0  0  0  0  0  0  0  0  0
  146.5112  139.7776  152.9071 H   0  0  0  0  0  0  0  0  0  0  0  0
  147.8073  138.8331  155.5104 H   0  0  0  0  0  0  0  0  0  0  0  0
  148.4991  137.3329  153.2247 H   0  0  0  0  0  0  0  0  0  0  0  0
  147.7108  135.6320  152.6408 H   0  0  0  0  0  0  0  0  0  0  0  0
  147.4971  133.7878  151.7030 H   0  0  0  0  0  0  0  0  0  0  0  0
  146.7912  132.5329  152.7148 H   0  0  0  0  0  0  0  0  0  0  0  0
  146.5666  131.7020  149.9479 H   0  0  0  0  0  0  0  0  0  0  0  0
  144.1922  131.8931  148.4985 H   0  0  0  0  0  0  0  0  0  0  0  0
  144.0345  134.5695  151.7782 H   0  0  0  0  0  0  0  0  0  0  0  0
  149.1109  139.7175  152.9147 H   0  0  0  0  0  0  0  0  0  0  0  0
  150.4273  138.5790  155.4133 H   0  0  0  0  0  0  0  0  0  0  0  0
  151.2936  139.3761  154.1007 H   0  0  0  0  0  0  0  0  0  0  0  0
  150.4220  137.8849  153.7994 H   0  0  0  0  0  0  0  0  0  0  0  0
  142.8284  133.6348  149.7315 H   0  0  0  0  0  0  0  0  0  0  0  0
  1  2  1  0  0  0  0
  1 21  1  0  0  0  0
  1 22  1  0  0  0  0
  1 23  1  0  0  0  0
  2 19  1  0  0  0  0
  2  3  1  0  0  0  0
  2 24  1  0  0  0  0
  3  4  1  0  0  0  0
  3 25  1  0  0  0  0
  3 26  1  0  0  0  0
  4  5  1  0  0  0  0
  4 27  1  0  0  0  0
  4 28  1  0  0  0  0
  5  6  1  0  0  0  0
  5 29  1  0  0  0  0
  5 30  1  0  0  0  0
  6  7  1  0  0  0  0
  6 19  1  0  0  0  0
  6 31  1  0  0  0  0
  7  8  1  0  0  0  0
  7 32  1  0  0  0  0
  8  9  2  0  0  0  0
  8 10  1  0  0  0  0
 10 11  1  0  0  0  0
 10 33  1  0  0  0  0
 11 12  2  0  0  0  0
 11 13  1  0  0  0  0
 13 14  1  0  0  0  0
 13 34  1  0  0  0  0
 13 35  1  0  0  0  0
 14 18  1  0  0  0  0
 14 15  1  0  0  0  0
 15 16  2  0  0  0  0
 15 36  1  0  0  0  0
 16 17  1  0  0  0  0
 16 37  1  0  0  0  0
 17 18  2  0  0  0  0
 17 43  1  0  0  0  0
 18 38  1  0  0  0  0
 19 20  1  0  0  0  0
 19 39  1  0  0  0  0
 20 40  1  0  0  0  0
 20 41  1  0  0  0  0
 20 42  1  0  0  0  0
M  CHG  1  17   1
M  END
> <s_m_source_file>
AV-unprocessed.smi

> <i_m_source_file_index>
527

> <i_lp_mmshare_version>
43012

> <i_f3d_flags>
0

> <s_epik_input>
W0NIM11bQ0BASF0xW0NIMl1bQ0gyXVtDSDJdW0NASF0oW0NASF0xW0NIM10pW05IXUMoPU8pW05IXUMoPU8pW0NIMl1uMltjSF1bY0hdbltjSF0y

> <s_epik_cmdline>
J2VwaWtfcHl0aG9uJywgJy1waCcsICc3LjAnLCAnLXRuJywgJzgnLCAnLW1hJywgJzIwMCcsICctbWV0YWxfYmluZGluZycsICctaW1hZScsICc8aW5maWxlLm1hZT4nLCAnLW9tYWUnLCAnPG91dGZpbGUubWFlPic=

> <r_lp_tautomer_probability>
1

> <r_epik_Ionization_Penalty>
0.816441

> <r_epik_Ionization_Penalty_Charging>
0

> <r_epik_Ionization_Penalty_Neutral>
0.816441

> <r_epik_State_Penalty>
0.849034

> <r_epik_Charging_Adjusted_Penalty>
0.849034

> <i_epik_Tot_Q>
1

> <i_epik_Tot_abs_Q>
1

> <r_epik_Metal_State_Penalty>
0.984327

> <b_epik_Metal_Only>
0

> <s_lp_Force_Field>
OPLS_2005

> <r_lp_Energy>
18.5197

> <b_lp_Chiralities_Consistent>
1

> <s_lp_Variant>
AV-unprocessed.smi:527-13

> <Gold.Version>
5.8.1

> <Gold.Id.Protein>
6NUR|6NUR_protein|mol2

> <Gold.PLP.Fitness>
48.1853

> <Gold.PLP.PLP>
-33.5668

> <Gold.PLP.part.hbond>
-2.9568

> <Gold.PLP.part.metal>
0.0000

> <Gold.PLP.part.buried>
-2.7711

> <Gold.PLP.part.nonpolar>
-28.2987

> <Gold.PLP.part.repulsive>
0.1750

> <Gold.PLP.ligand.clash>
0.0000

> <Gold.PLP.ligand.torsion>
0.0136

> <Gold.PLP.Chemscore.Hbond>
3.8800

> <Gold.PLP.Chemscore.CHOScore>
1.0000

> <Gold.PLP.Chemscore.Metal>
0.0000

> <Gold.Chemscore.Hbonds>
donor molecule, donor type, donor heavy atom, donor atom, acceptor molecule, acceptor atom, score
      L1  H     7    32       P1  7948  0.88
      L1  H    10    33       P1  7948  1.00
      L1  H    17    43       P1 10186  2.00
      L1  C    15    36       P1 10747  0.92

> <Gold.PLP.Chemscore.Internal.Correction>
0.0057

> <Gold.Rescore>
     Score         DG    S(hbond)    S(metal)    S(lipo)     H(rot)  DE(clash)    DE(int)     intcor
     17.06     -19.66       2.90        0.00      75.68       1.71       0.09       2.51       ----

> <Gold.Chemscore.Fitness>
17.0625

> <Gold.Chemscore.DG>
-19.6636

> <Gold.Chemscore.ZeroCoef>
-5.4800

> <Gold.Chemscore.Hbond>
2.9025

> <Gold.Chemscore.Metal>
0.0000

> <Gold.Chemscore.Lipo>
75.6791

> <Gold.Chemscore.Internal_Hbond>
0.0000

> <Gold.Chemscore.DEClash>
0.0941

> <Gold.Chemscore.DEInternal>
2.5069

> <Gold.Chemscore.Rot>
1.7052

> <Gold.Chemscore.Internal.Correction>
   9.000000E+99

> <Gold.Chemscore.Hbonds>
donor molecule, donor type, donor heavy atom, donor atom, acceptor molecule, acceptor atom, score
      L1  H     7    32       P1  7948  0.87
      L1  H    10    33       P1  7948  0.96
      L1  H    17    43       P1 10186  0.97

> <Gold.Chemscore.Hbond.Weighted>
-9.6944

> <Gold.Chemscore.Metal.Weighted>
-0.0000

> <Gold.Chemscore.Lipo.Weighted>
-8.8544

> <Gold.Chemscore.Internal_Hbond.Weighted>
0.0000

> <Gold.Chemscore.DEClash.Weighted>
0.0941

> <Gold.Chemscore.DEInternal.Weighted>
2.5069

> <Gold.Chemscore.Rot.Weighted>
4.3653

> <Gold.Chemscore.Internal.Correction.Weighted>
   9.000000E+99

> <Gold.Protein.RotatedTorsions>
[ 6907 6896 6895 6894 ] final   37.64 input  -60.11 | X-H torsion
[ 7974 7965 7964 7962 ] final   51.72 input  175.53 | X-H torsion
[ 8008 7997 7996 7995 ] final  177.53 input   59.86 | X-H torsion
[ 10167 10162 10161 10158 ] final  -15.22 input  -65.29 | X-H torsion
[ 10718 10713 10712 10709 ] final   -8.51 input   66.30 | X-H torsion
[ 10763 10752 10751 10750 ] final -105.34 input  -60.55 | X-H torsion
[ 11005 11000 10999 10996 ] final  -73.16 input  -57.11 | X-H torsion

> <Gold.Protein.ActiveResidues>
 VAL166  LYS551  ARG553  GLY616  TRP617  ASP618  TYR619  PRO620  LYS621  CYS622 
 ASP623  PHE694  ASN695  SER759  ASP760  ASP761  ALA762  ILE779  LEU786  VAL792 
 PHE793  MET794  SER795  GLU796  ALA797  LYS798  CYS799  TRP800  GLU811  SER814 

> <Gold.Protein.RotatedAtoms>
  152.1458  134.9027  160.0550 H   0  0  0  0  0  0  0  0  0  0  0  0  # atno 6907 bound_to 6896
  152.0077  133.3844  159.4215 H   0  0  0  0  0  0  0  0  0  0  0  0  # atno 6908 bound_to 6896
  150.6870  134.3686  159.5026 H   0  0  0  0  0  0  0  0  0  0  0  0  # atno 6909 bound_to 6896
  145.9885  139.4314  143.0088 H   0  0  0  0  0  0  0  0  0  0  0  0  # atno 7974 bound_to 7965
  156.0646  140.1356  156.9901 H   0  0  0  0  0  0  0  0  0  0  0  0  # atno 8008 bound_to 7997
  154.4499  140.0984  156.6639 H   0  0  0  0  0  0  0  0  0  0  0  0  # atno 8009 bound_to 7997
  155.5324  140.3459  155.4431 H   0  0  0  0  0  0  0  0  0  0  0  0  # atno 8010 bound_to 7997
  140.7215  143.5240  150.9599 H   0  0  0  0  0  0  0  0  0  0  0  0  # atno 10167 bound_to 10162
  156.7015  130.5095  149.5916 H   0  0  0  0  0  0  0  0  0  0  0  0  # atno 10718 bound_to 10713
  154.7940  135.4753  154.0117 H   0  0  0  0  0  0  0  0  0  0  0  0  # atno 10763 bound_to 10752
  153.1674  135.6819  153.8663 H   0  0  0  0  0  0  0  0  0  0  0  0  # atno 10764 bound_to 10752
  153.8257  135.3198  155.3392 H   0  0  0  0  0  0  0  0  0  0  0  0  # atno 10765 bound_to 10752
  141.1619  133.6869  156.7169 H   0  0  0  0  0  0  0  0  0  0  0  0  # atno 11005 bound_to 11000
  145.7665  140.9914  143.1172 LP  0  0  0  0  0  0  0  0  0  0  0  0  # atno 17320 bound_to 7965
  144.6882  139.9394  143.7474 LP  0  0  0  0  0  0  0  0  0  0  0  0  # atno 17321 bound_to 7965
  139.8958  143.6896  152.3138 LP  0  0  0  0  0  0  0  0  0  0  0  0  # atno 17342 bound_to 10162
  139.7228  144.7599  151.0927 LP  0  0  0  0  0  0  0  0  0  0  0  0  # atno 17343 bound_to 10162
  156.1725  130.6446  151.0855 LP  0  0  0  0  0  0  0  0  0  0  0  0  # atno 17370 bound_to 10713
  157.6971  131.0790  150.6935 LP  0  0  0  0  0  0  0  0  0  0  0  0  # atno 17371 bound_to 10713
  140.2845  134.8290  157.3962 LP  0  0  0  0  0  0  0  0  0  0  0  0  # atno 17394 bound_to 11000
  140.1403  134.4980  155.8037 LP  0  0  0  0  0  0  0  0  0  0  0  0  # atno 17395 bound_to 11000

$$$$
