AV-unprocessed.smi:3255|AV-procd|sdf|12463|dock2
  -GOLD-   2272018363D 1   1.00000     0.00000
 Structure written by MMmdl.
 38 39  0  0  0  0  0  0  0  0  1 V2000
  148.5963  137.9702  156.3845 C   0  0  0  0  0  0  0  0  0  0  0  0
  148.6236  138.5308  154.9551 C   0  0  2  0  0  0  0  0  0  0  0  0
  147.9709  137.5757  154.0605 N   0  0  0  0  0  0  0  0  0  0  0  0
  146.6828  137.2083  154.1166 C   0  0  0  0  0  0  0  0  0  0  0  0
  145.8828  137.6158  154.9588 O   0  0  0  0  0  0  0  0  0  0  0  0
  146.3635  136.3632  153.1262 N   0  0  0  0  0  0  0  0  0  0  0  0
  145.0245  135.8403  152.8690 C   0  0  0  0  0  0  0  0  0  0  0  0
  144.7272  135.7306  151.3615 C   0  0  0  0  0  0  0  0  0  0  0  0
  145.1396  134.4580  150.7979 N   0  0  0  0  0  0  0  0  0  0  0  0
  146.4129  133.9037  150.8232 C   0  0  0  0  0  0  0  0  0  0  0  0
  146.3310  132.6994  150.1615 C   0  0  0  0  0  0  0  0  0  0  0  0
  145.0229  132.4885  149.7323 N   0  0  0  0  0  0  0  0  0  0  0  0
  144.3753  133.5696  150.1475 C   0  0  0  0  0  0  0  0  0  0  0  0
  150.0625  138.8228  154.4792 C   0  0  1  0  0  0  0  0  0  0  0  0
  150.8501  139.8038  155.3530 C   0  0  0  0  0  0  0  0  0  0  0  0
  152.2766  139.3914  155.0778 C   0  0  0  0  0  0  0  0  0  0  0  0
  152.1416  137.8750  155.0056 C   0  0  0  0  0  0  0  0  0  0  0  0
  150.8412  137.6267  154.4783 O   0  0  0  0  0  0  0  0  0  0  0  0
  149.0425  138.6706  157.0911 H   0  0  0  0  0  0  0  0  0  0  0  0
  149.1469  137.0315  156.4549 H   0  0  0  0  0  0  0  0  0  0  0  0
  147.5734  137.7829  156.7125 H   0  0  0  0  0  0  0  0  0  0  0  0
  148.0678  139.4702  154.9610 H   0  0  0  0  0  0  0  0  0  0  0  0
  148.5427  137.1834  153.3267 H   0  0  0  0  0  0  0  0  0  0  0  0
  147.0919  136.0851  152.4850 H   0  0  0  0  0  0  0  0  0  0  0  0
  144.9684  134.8489  153.3183 H   0  0  0  0  0  0  0  0  0  0  0  0
  144.2630  136.4410  153.3698 H   0  0  0  0  0  0  0  0  0  0  0  0
  143.6626  135.8731  151.1712 H   0  0  0  0  0  0  0  0  0  0  0  0
  145.2496  136.5223  150.8232 H   0  0  0  0  0  0  0  0  0  0  0  0
  147.2508  134.4015  151.2886 H   0  0  0  0  0  0  0  0  0  0  0  0
  147.1070  131.9749  149.9631 H   0  0  0  0  0  0  0  0  0  0  0  0
  143.3213  133.7231  149.9679 H   0  0  0  0  0  0  0  0  0  0  0  0
  150.0473  139.2027  153.4563 H   0  0  0  0  0  0  0  0  0  0  0  0
  150.6524  140.8464  155.1040 H   0  0  0  0  0  0  0  0  0  0  0  0
  150.6198  139.6540  156.4091 H   0  0  0  0  0  0  0  0  0  0  0  0
  152.6042  139.7892  154.1164 H   0  0  0  0  0  0  0  0  0  0  0  0
  152.9765  139.7231  155.8451 H   0  0  0  0  0  0  0  0  0  0  0  0
  152.9170  137.4148  154.3927 H   0  0  0  0  0  0  0  0  0  0  0  0
  152.1972  137.4415  156.0048 H   0  0  0  0  0  0  0  0  0  0  0  0
  1  2  1  0  0  0  0
  1 19  1  0  0  0  0
  1 20  1  0  0  0  0
  1 21  1  0  0  0  0
  2  3  1  0  0  0  0
  2 14  1  0  0  0  0
  2 22  1  0  0  0  0
  3  4  1  0  0  0  0
  3 23  1  0  0  0  0
  4  5  2  0  0  0  0
  4  6  1  0  0  0  0
  6  7  1  0  0  0  0
  6 24  1  0  0  0  0
  7  8  1  0  0  0  0
  7 25  1  0  0  0  0
  7 26  1  0  0  0  0
  8  9  1  0  0  0  0
  8 27  1  0  0  0  0
  8 28  1  0  0  0  0
  9 13  1  0  0  0  0
  9 10  1  0  0  0  0
 10 11  2  0  0  0  0
 10 29  1  0  0  0  0
 11 12  1  0  0  0  0
 11 30  1  0  0  0  0
 12 13  2  0  0  0  0
 13 31  1  0  0  0  0
 14 18  1  0  0  0  0
 14 15  1  0  0  0  0
 14 32  1  0  0  0  0
 15 16  1  0  0  0  0
 15 33  1  0  0  0  0
 15 34  1  0  0  0  0
 16 17  1  0  0  0  0
 16 35  1  0  0  0  0
 16 36  1  0  0  0  0
 17 18  1  0  0  0  0
 17 37  1  0  0  0  0
 17 38  1  0  0  0  0
M  END
> <s_m_source_file>
AV-unprocessed.smi

> <i_m_source_file_index>
3255

> <i_lp_mmshare_version>
43012

> <i_f3d_flags>
0

> <s_epik_input>
TzFbQ0gyXVtDSDJdW0NIMl1bQ0BIXTFbQ0BIXShbQ0gzXSlbTkhdQyg9TylbTkhdW0NIMl1bQ0gyXW4yW2NIXVtjSF1uW2NIXTI=

> <s_epik_cmdline>
J2VwaWtfcHl0aG9uJywgJy1waCcsICc3LjAnLCAnLXRuJywgJzgnLCAnLW1hJywgJzIwMCcsICctbWV0YWxfYmluZGluZycsICctaW1hZScsICc8aW5maWxlLm1hZT4nLCAnLW9tYWUnLCAnPG91dGZpbGUubWFlPic=

> <r_lp_tautomer_probability>
1

> <r_epik_Ionization_Penalty>
0.620274

> <r_epik_Ionization_Penalty_Charging>
0.620225

> <r_epik_Ionization_Penalty_Neutral>
4.91362e-05

> <r_epik_State_Penalty>
0.636186

> <r_epik_Charging_Adjusted_Penalty>
1.25641

> <i_epik_Tot_Q>
0

> <i_epik_Tot_abs_Q>
0

> <r_epik_Metal_State_Penalty>
0.306491

> <b_epik_Metal_Only>
0

> <s_lp_Force_Field>
OPLS_2005

> <r_lp_Energy>
16.3443

> <b_lp_Chiralities_Consistent>
1

> <s_lp_Variant>
AV-unprocessed.smi:3255-7

> <Gold.Version>
5.8.1

> <Gold.Id.Protein>
6NUR|6NUR_protein|mol2

> <Gold.PLP.Fitness>
41.8624

> <Gold.PLP.PLP>
-27.5380

> <Gold.PLP.part.hbond>
-2.0000

> <Gold.PLP.part.metal>
0.0000

> <Gold.PLP.part.buried>
-2.4759

> <Gold.PLP.part.nonpolar>
-23.4215

> <Gold.PLP.part.repulsive>
0.4220

> <Gold.PLP.ligand.clash>
0.0000

> <Gold.PLP.ligand.torsion>
0.3656

> <Gold.PLP.Chemscore.Hbond>
2.0000

> <Gold.PLP.Chemscore.CHOScore>
2.9894

> <Gold.PLP.Chemscore.Metal>
0.0000

> <Gold.Chemscore.Hbonds>
donor molecule, donor type, donor heavy atom, donor atom, acceptor molecule, acceptor atom, score
      L1  H     3    23       P1  7948  1.00
      L1  H     6    24       P1  7948  1.00
      L1  C    10    29       P1  7948  0.97
      L1  C    11    30       P1 10747  1.00
      L1  C    13    31       P1 10186  1.00

> <Gold.PLP.Chemscore.Internal.Correction>
0.0874

> <Gold.Rescore>
     Score         DG    S(hbond)    S(metal)    S(lipo)     H(rot)  DE(clash)    DE(int)     intcor
     12.90     -13.36       1.93        0.00      60.02       2.18       0.11       0.34       ----

> <Gold.Chemscore.Fitness>
12.9040

> <Gold.Chemscore.DG>
-13.3590

> <Gold.Chemscore.ZeroCoef>
-5.4800

> <Gold.Chemscore.Hbond>
1.9297

> <Gold.Chemscore.Metal>
0.0000

> <Gold.Chemscore.Lipo>
60.0171

> <Gold.Chemscore.Internal_Hbond>
0.0000

> <Gold.Chemscore.DEClash>
0.1118

> <Gold.Chemscore.DEInternal>
0.3431

> <Gold.Chemscore.Rot>
2.1828

> <Gold.Chemscore.Internal.Correction>
   9.000000E+99

> <Gold.Chemscore.Hbonds>
donor molecule, donor type, donor heavy atom, donor atom, acceptor molecule, acceptor atom, score
      L1  H     3    23       P1  7948  0.99
      L1  H     6    24       P1  7948  0.94

> <Gold.Chemscore.Hbond.Weighted>
-6.4451

> <Gold.Chemscore.Metal.Weighted>
-0.0000

> <Gold.Chemscore.Lipo.Weighted>
-7.0220

> <Gold.Chemscore.Internal_Hbond.Weighted>
0.0000

> <Gold.Chemscore.DEClash.Weighted>
0.1118

> <Gold.Chemscore.DEInternal.Weighted>
0.3431

> <Gold.Chemscore.Rot.Weighted>
5.5881

> <Gold.Chemscore.Internal.Correction.Weighted>
   9.000000E+99

> <Gold.Protein.RotatedTorsions>
[ 6907 6896 6895 6894 ] final   65.66 input  -60.11 | X-H torsion
[ 7974 7965 7964 7962 ] final  -66.58 input  175.53 | X-H torsion
[ 8008 7997 7996 7995 ] final  -64.40 input   59.86 | X-H torsion
[ 10167 10162 10161 10158 ] final  161.56 input  -65.29 | X-H torsion
[ 10718 10713 10712 10709 ] final  -40.41 input   66.30 | X-H torsion
[ 10763 10752 10751 10750 ] final   50.30 input  -60.55 | X-H torsion
[ 11005 11000 10999 10996 ] final  170.52 input  -57.11 | X-H torsion

> <Gold.Protein.ActiveResidues>
 VAL166  LYS551  ARG553  GLY616  TRP617  ASP618  TYR619  PRO620  LYS621  CYS622 
 ASP623  PHE694  ASN695  SER759  ASP760  ASP761  ALA762  ILE779  LEU786  VAL792 
 PHE793  MET794  SER795  GLU796  ALA797  LYS798  CYS799  TRP800  GLU811  SER814 

> <Gold.Protein.RotatedAtoms>
  152.4424  134.5564  159.9881 H   0  0  0  0  0  0  0  0  0  0  0  0  # atno 6907 bound_to 6896
  151.5658  133.3391  159.2988 H   0  0  0  0  0  0  0  0  0  0  0  0  # atno 6908 bound_to 6896
  150.8333  134.7628  159.6935 H   0  0  0  0  0  0  0  0  0  0  0  0  # atno 6909 bound_to 6896
  145.7400  140.8958  143.0535 H   0  0  0  0  0  0  0  0  0  0  0  0  # atno 7974 bound_to 7965
  154.4610  140.0954  156.6892 H   0  0  0  0  0  0  0  0  0  0  0  0  # atno 8008 bound_to 7997
  155.4995  140.3473  155.4350 H   0  0  0  0  0  0  0  0  0  0  0  0  # atno 8009 bound_to 7997
  156.0869  140.1387  156.9630 H   0  0  0  0  0  0  0  0  0  0  0  0  # atno 8010 bound_to 7997
  139.4850  144.4524  151.8812 H   0  0  0  0  0  0  0  0  0  0  0  0  # atno 10167 bound_to 10162
  156.2817  130.4218  149.8330 H   0  0  0  0  0  0  0  0  0  0  0  0  # atno 10718 bound_to 10713
  152.9785  135.5883  154.4230 H   0  0  0  0  0  0  0  0  0  0  0  0  # atno 10763 bound_to 10752
  154.3852  135.2767  155.2189 H   0  0  0  0  0  0  0  0  0  0  0  0  # atno 10764 bound_to 10752
  154.4086  135.6087  153.5993 H   0  0  0  0  0  0  0  0  0  0  0  0  # atno 10765 bound_to 10752
  140.3092  134.7531  157.3978 H   0  0  0  0  0  0  0  0  0  0  0  0  # atno 11005 bound_to 11000
  144.6873  139.9447  143.7476 LP  0  0  0  0  0  0  0  0  0  0  0  0  # atno 17320 bound_to 7965
  146.0457  139.3463  143.0670 LP  0  0  0  0  0  0  0  0  0  0  0  0  # atno 17321 bound_to 7965
  140.3982  144.2527  150.5895 LP  0  0  0  0  0  0  0  0  0  0  0  0  # atno 17342 bound_to 10162
  140.5082  143.2298  151.8576 LP  0  0  0  0  0  0  0  0  0  0  0  0  # atno 17343 bound_to 10162
  156.5775  130.8451  151.3374 LP  0  0  0  0  0  0  0  0  0  0  0  0  # atno 17370 bound_to 10713
  157.7316  130.9703  150.1889 LP  0  0  0  0  0  0  0  0  0  0  0  0  # atno 17371 bound_to 10713
  140.1040  134.5434  155.8326 LP  0  0  0  0  0  0  0  0  0  0  0  0  # atno 17394 bound_to 11000
  141.2112  133.6703  156.6563 LP  0  0  0  0  0  0  0  0  0  0  0  0  # atno 17395 bound_to 11000

$$$$
