AV-unprocessed.smi:3329|AV-procd|sdf|12795|dock9
  -GOLD-   2272019153D 1   1.00000     0.00000
 Structure written by MMmdl.
 42 43  0  0  0  0  0  0  0  0  2 V2000
  149.8913  141.7593  158.1796 C   0  0  0  0  0  0  0  0  0  0  0  0
  149.8855  141.1197  156.8210 C   0  0  0  0  0  0  0  0  0  0  0  0
  150.9822  140.5324  156.1288 C   0  0  0  0  0  0  0  0  0  0  0  0
  150.6439  140.0533  154.9426 N   0  0  0  0  0  0  0  0  0  0  0  0
  149.3242  140.3146  154.8364 N   0  0  0  0  0  0  0  0  0  0  0  0
  148.6049  139.9250  153.6365 C   0  0  0  0  0  0  0  0  0  0  0  0
  147.1183  140.3169  153.6875 C   0  0  0  0  0  0  0  0  0  0  0  0
  146.5122  140.3050  152.3414 N   0  3  0  0  0  0  0  0  0  0  0  0
  146.7704  139.0732  151.5686 C   0  0  0  0  0  0  0  0  0  0  0  0
  145.9004  137.9046  152.0354 C   0  0  0  0  0  0  0  0  0  0  0  0
  146.4101  136.8273  152.3438 O   0  0  0  0  0  0  0  0  0  0  0  0
  144.5782  138.1361  152.0778 N   0  0  0  0  0  0  0  0  0  0  0  0
  143.5376  137.1863  152.4759 C   0  0  1  0  0  0  0  0  0  0  0  0
  143.9114  136.6949  153.8840 C   0  0  0  0  0  0  0  0  0  0  0  0
  142.2292  137.8667  152.5641 C   0  0  0  0  0  0  0  0  0  0  0  0
  141.2039  138.3983  152.6357 N   0  0  0  0  0  0  0  0  0  0  0  0
  143.4507  135.9755  151.5431 C   0  0  0  0  0  0  0  0  0  0  0  0
  142.6461  134.7331  151.8636 C   0  0  0  0  0  0  0  0  0  0  0  0
  144.1554  134.6741  151.8595 C   0  0  0  0  0  0  0  0  0  0  0  0
  148.8419  140.9644  155.9530 C   0  0  0  0  0  0  0  0  0  0  0  0
  150.3908  142.7281  158.1644 H   0  0  0  0  0  0  0  0  0  0  0  0
  150.4091  141.1413  158.9133 H   0  0  0  0  0  0  0  0  0  0  0  0
  148.8814  141.9242  158.5562 H   0  0  0  0  0  0  0  0  0  0  0  0
  152.0086  140.4404  156.4521 H   0  0  0  0  0  0  0  0  0  0  0  0
  149.0886  140.3834  152.7727 H   0  0  0  0  0  0  0  0  0  0  0  0
  148.7038  138.8456  153.5147 H   0  0  0  0  0  0  0  0  0  0  0  0
  146.5772  139.6190  154.3274 H   0  0  0  0  0  0  0  0  0  0  0  0
  147.0028  141.3074  154.1300 H   0  0  0  0  0  0  0  0  0  0  0  0
  145.5124  140.4104  152.4420 H   0  0  0  0  0  0  0  0  0  0  0  0
  146.5807  139.2618  150.5109 H   0  0  0  0  0  0  0  0  0  0  0  0
  147.8204  138.7950  151.6706 H   0  0  0  0  0  0  0  0  0  0  0  0
  144.2571  139.0528  151.8017 H   0  0  0  0  0  0  0  0  0  0  0  0
  143.1680  135.9953  154.2684 H   0  0  0  0  0  0  0  0  0  0  0  0
  143.9729  137.5236  154.5906 H   0  0  0  0  0  0  0  0  0  0  0  0
  144.8753  136.1842  153.8873 H   0  0  0  0  0  0  0  0  0  0  0  0
  143.4678  136.2557  150.4912 H   0  0  0  0  0  0  0  0  0  0  0  0
  142.1464  134.6704  152.8280 H   0  0  0  0  0  0  0  0  0  0  0  0
  142.1227  134.2512  151.0405 H   0  0  0  0  0  0  0  0  0  0  0  0
  144.6351  134.1512  151.0348 H   0  0  0  0  0  0  0  0  0  0  0  0
  144.6553  134.5807  152.8214 H   0  0  0  0  0  0  0  0  0  0  0  0
  147.8061  141.2577  156.0397 H   0  0  0  0  0  0  0  0  0  0  0  0
  146.8654  141.0925  151.8168 H   0  0  0  0  0  0  0  0  0  0  0  0
  1  2  1  0  0  0  0
  1 21  1  0  0  0  0
  1 22  1  0  0  0  0
  1 23  1  0  0  0  0
  2 20  2  0  0  0  0
  2  3  1  0  0  0  0
  3  4  2  0  0  0  0
  3 24  1  0  0  0  0
  4  5  1  0  0  0  0
  5  6  1  0  0  0  0
  5 20  1  0  0  0  0
  6  7  1  0  0  0  0
  6 25  1  0  0  0  0
  6 26  1  0  0  0  0
  7  8  1  0  0  0  0
  7 27  1  0  0  0  0
  7 28  1  0  0  0  0
  8  9  1  0  0  0  0
  8 29  1  0  0  0  0
  8 42  1  0  0  0  0
  9 10  1  0  0  0  0
  9 30  1  0  0  0  0
  9 31  1  0  0  0  0
 10 11  2  0  0  0  0
 10 12  1  0  0  0  0
 12 13  1  0  0  0  0
 12 32  1  0  0  0  0
 13 14  1  0  0  0  0
 13 15  1  0  0  0  0
 13 17  1  0  0  0  0
 14 33  1  0  0  0  0
 14 34  1  0  0  0  0
 14 35  1  0  0  0  0
 15 16  3  0  0  0  0
 17 19  1  0  0  0  0
 17 18  1  0  0  0  0
 17 36  1  0  0  0  0
 18 19  1  0  0  0  0
 18 37  1  0  0  0  0
 18 38  1  0  0  0  0
 19 39  1  0  0  0  0
 19 40  1  0  0  0  0
 20 41  1  0  0  0  0
M  CHG  1   8   1
M  END
> <s_m_source_file>
AV-unprocessed.smi

> <i_m_source_file_index>
3329

> <i_lp_mmshare_version>
43012

> <i_f3d_flags>
0

> <s_epik_input>
W0NIM11jMVtjSF1ubihbY0hdMSlbQ0gyXVtDSDJdW05IXVtDSDJdQyg9TylbTkhdW0NAQF0oW0NIM10pKEMjTilbQ0hdMltDSDJdW0NIMl0y

> <s_epik_cmdline>
J2VwaWtfcHl0aG9uJywgJy1waCcsICc3LjAnLCAnLXRuJywgJzgnLCAnLW1hJywgJzIwMCcsICctbWV0YWxfYmluZGluZycsICctaW1hZScsICc8aW5maWxlLm1hZT4nLCAnLW9tYWUnLCAnPG91dGZpbGUubWFlPic=

> <r_lp_tautomer_probability>
1

> <r_epik_Ionization_Penalty>
0.350291

> <r_epik_Ionization_Penalty_Charging>
0.350239

> <r_epik_Ionization_Penalty_Neutral>
5.12768e-05

> <r_epik_State_Penalty>
0.347656

> <r_epik_Charging_Adjusted_Penalty>
0.697895

> <i_epik_Tot_Q>
1

> <i_epik_Tot_abs_Q>
1

> <r_epik_Metal_State_Penalty>
0.371739

> <b_epik_Metal_Only>
0

> <s_lp_Force_Field>
OPLS_2005

> <r_lp_Energy>
10.54

> <b_lp_Chiralities_Consistent>
1

> <s_lp_Variant>
AV-unprocessed.smi:3329-1

> <Gold.Version>
5.8.1

> <Gold.Id.Protein>
6NUR|6NUR_protein|mol2

> <Gold.PLP.Fitness>
45.5647

> <Gold.PLP.PLP>
-34.4519

> <Gold.PLP.part.hbond>
-4.0721

> <Gold.PLP.part.metal>
0.0000

> <Gold.PLP.part.buried>
-1.3138

> <Gold.PLP.part.nonpolar>
-31.1452

> <Gold.PLP.part.repulsive>
1.6191

> <Gold.PLP.ligand.clash>
0.0000

> <Gold.PLP.ligand.torsion>
1.1164

> <Gold.PLP.Chemscore.Hbond>
3.9120

> <Gold.PLP.Chemscore.CHOScore>
0.0000

> <Gold.PLP.Chemscore.Metal>
0.0000

> <Gold.Chemscore.Hbonds>
donor molecule, donor type, donor heavy atom, donor atom, acceptor molecule, acceptor atom, score
      L1  H     8    29       P1 10175  2.00
      L1  H    12    32       P1 10175  0.83
      P1  H  7989  7998       L1     4  1.00

> <Gold.PLP.Chemscore.Internal.Correction>
1.6094

> <Gold.Rescore>
     Score         DG    S(hbond)    S(metal)    S(lipo)     H(rot)  DE(clash)    DE(int)     intcor
     12.65     -15.38       2.81        0.00      56.90       2.40       0.47       2.27       ----

> <Gold.Chemscore.Fitness>
12.6469

> <Gold.Chemscore.DG>
-15.3810

> <Gold.Chemscore.ZeroCoef>
-5.4800

> <Gold.Chemscore.Hbond>
2.8085

> <Gold.Chemscore.Metal>
0.0000

> <Gold.Chemscore.Lipo>
56.9025

> <Gold.Chemscore.Internal_Hbond>
0.0000

> <Gold.Chemscore.DEClash>
0.4673

> <Gold.Chemscore.DEInternal>
2.2668

> <Gold.Chemscore.Rot>
2.3972

> <Gold.Chemscore.Internal.Correction>
   9.000000E+99

> <Gold.Chemscore.Hbonds>
donor molecule, donor type, donor heavy atom, donor atom, acceptor molecule, acceptor atom, score
      L1  H     8    29       P1 10175  0.55
      L1  H    12    32       P1 10175  0.82
      P1  H  7989  7998       L1     4  0.66

> <Gold.Chemscore.Hbond.Weighted>
-9.3803

> <Gold.Chemscore.Metal.Weighted>
-0.0000

> <Gold.Chemscore.Lipo.Weighted>
-6.6576

> <Gold.Chemscore.Internal_Hbond.Weighted>
0.0000

> <Gold.Chemscore.DEClash.Weighted>
0.4673

> <Gold.Chemscore.DEInternal.Weighted>
2.2668

> <Gold.Chemscore.Rot.Weighted>
6.1369

> <Gold.Chemscore.Internal.Correction.Weighted>
   9.000000E+99

> <Gold.Protein.RotatedTorsions>
[ 6907 6896 6895 6894 ] final -140.67 input  -60.11 | X-H torsion
[ 7974 7965 7964 7962 ] final  -81.61 input  175.53 | X-H torsion
[ 8008 7997 7996 7995 ] final -163.92 input   59.86 | X-H torsion
[ 10167 10162 10161 10158 ] final  -50.07 input  -65.29 | X-H torsion
[ 10718 10713 10712 10709 ] final  108.94 input   66.30 | X-H torsion
[ 10763 10752 10751 10750 ] final -158.36 input  -60.55 | X-H torsion
[ 11005 11000 10999 10996 ] final  -69.23 input  -57.11 | X-H torsion

> <Gold.Protein.ActiveResidues>
 VAL166  LYS551  ARG553  GLY616  TRP617  ASP618  TYR619  PRO620  LYS621  CYS622 
 ASP623  PHE694  ASN695  SER759  ASP760  ASP761  ALA762  ILE779  LEU786  VAL792 
 PHE793  MET794  SER795  GLU796  ALA797  LYS798  CYS799  TRP800  GLU811  SER814 

> <Gold.Protein.RotatedAtoms>
  151.0638  133.5522  159.2632 H   0  0  0  0  0  0  0  0  0  0  0  0  # atno 6907 bound_to 6896
  151.2487  135.0614  159.9063 H   0  0  0  0  0  0  0  0  0  0  0  0  # atno 6908 bound_to 6896
  152.5401  134.0402  159.8118 H   0  0  0  0  0  0  0  0  0  0  0  0  # atno 6909 bound_to 6896
  145.5444  140.9505  143.1533 H   0  0  0  0  0  0  0  0  0  0  0  0  # atno 7974 bound_to 7965
  155.8282  140.0930  157.1809 H   0  0  0  0  0  0  0  0  0  0  0  0  # atno 8008 bound_to 7997
  154.3979  140.1424  156.3642 H   0  0  0  0  0  0  0  0  0  0  0  0  # atno 8009 bound_to 7997
  155.8194  140.3447  155.5508 H   0  0  0  0  0  0  0  0  0  0  0  0  # atno 8010 bound_to 7997
  140.6655  143.2672  151.4306 H   0  0  0  0  0  0  0  0  0  0  0  0  # atno 10167 bound_to 10162
  157.6564  131.0904  150.6379 H   0  0  0  0  0  0  0  0  0  0  0  0  # atno 10718 bound_to 10713
  154.7562  135.3105  154.8465 H   0  0  0  0  0  0  0  0  0  0  0  0  # atno 10763 bound_to 10752
  153.9238  135.6793  153.4751 H   0  0  0  0  0  0  0  0  0  0  0  0  # atno 10764 bound_to 10752
  153.1160  135.4844  154.9046 H   0  0  0  0  0  0  0  0  0  0  0  0  # atno 10765 bound_to 10752
  141.1549  133.6759  156.6568 H   0  0  0  0  0  0  0  0  0  0  0  0  # atno 11005 bound_to 11000
  144.7561  139.7072  143.7253 LP  0  0  0  0  0  0  0  0  0  0  0  0  # atno 17320 bound_to 7965
  146.1959  139.5226  142.9774 LP  0  0  0  0  0  0  0  0  0  0  0  0  # atno 17321 bound_to 7965
  139.5903  144.1514  152.2080 LP  0  0  0  0  0  0  0  0  0  0  0  0  # atno 17342 bound_to 10162
  140.0866  144.5656  150.7084 LP  0  0  0  0  0  0  0  0  0  0  0  0  # atno 17343 bound_to 10162
  156.6686  130.4533  149.5664 LP  0  0  0  0  0  0  0  0  0  0  0  0  # atno 17370 bound_to 10713
  156.2014  130.6622  151.1172 LP  0  0  0  0  0  0  0  0  0  0  0  0  # atno 17371 bound_to 10713
  140.3278  134.7954  157.4303 LP  0  0  0  0  0  0  0  0  0  0  0  0  # atno 17394 bound_to 11000
  140.1042  134.5432  155.8325 LP  0  0  0  0  0  0  0  0  0  0  0  0  # atno 17395 bound_to 11000

$$$$
