AV-unprocessed.smi:822|AV-procd|sdf|3842|dock8
  -GOLD-   22720 1293D 1   1.00000     0.00000
 Structure written by MMmdl.
 39 40  0  0  0  0  0  0  0  0  2 V2000
  152.4578  139.8397  156.2407 O   0  0  0  0  0  0  0  0  0  0  0  0
  151.4619  139.9719  156.9522 C   0  0  0  0  0  0  0  0  0  0  0  0
  151.6016  140.4839  158.3898 C   0  0  0  0  0  0  0  0  0  0  0  0
  152.1668  141.9190  158.4891 C   0  0  0  0  0  0  0  0  0  0  0  0
  152.2643  142.3621  159.9638 C   0  0  0  0  0  0  0  0  0  0  0  0
  152.8259  143.7866  160.0988 C   0  0  0  0  0  0  0  0  0  0  0  0
  151.9913  144.7919  159.2918 C   0  0  0  0  0  0  0  0  0  0  0  0
  151.8956  144.3691  157.8188 C   0  0  0  0  0  0  0  0  0  0  0  0
  151.3358  142.9438  157.6815 C   0  0  0  0  0  0  0  0  0  0  0  0
  150.2189  139.6812  156.5389 N   0  0  0  0  0  0  0  0  0  0  0  0
  149.8755  139.1868  155.2114 C   0  0  0  0  0  0  0  0  0  0  0  0
  149.7213  140.3391  154.2052 C   0  0  0  0  0  0  0  0  0  0  0  0
  148.3445  140.8322  154.1532 N   0  0  0  0  0  0  0  0  0  0  0  0
  147.7888  141.8321  154.9095 C   0  0  0  0  0  0  0  0  0  0  0  0
  146.4826  141.9446  154.5081 C   0  0  0  0  0  0  0  0  0  0  0  0
  146.2967  141.0092  153.5255 N   0  3  0  0  0  0  0  0  0  0  0  0
  147.4308  140.3343  153.3103 C   0  0  0  0  0  0  0  0  0  0  0  0
  150.6380  140.4305  158.8989 H   0  0  0  0  0  0  0  0  0  0  0  0
  152.2615  139.7934  158.9161 H   0  0  0  0  0  0  0  0  0  0  0  0
  153.1804  141.9153  158.0843 H   0  0  0  0  0  0  0  0  0  0  0  0
  151.2782  142.3168  160.4281 H   0  0  0  0  0  0  0  0  0  0  0  0
  152.8976  141.6700  160.5198 H   0  0  0  0  0  0  0  0  0  0  0  0
  152.8472  144.0798  161.1487 H   0  0  0  0  0  0  0  0  0  0  0  0
  153.8594  143.8066  159.7507 H   0  0  0  0  0  0  0  0  0  0  0  0
  150.9899  144.8631  159.7180 H   0  0  0  0  0  0  0  0  0  0  0  0
  152.4315  145.7867  159.3663 H   0  0  0  0  0  0  0  0  0  0  0  0
  151.2640  145.0699  157.2721 H   0  0  0  0  0  0  0  0  0  0  0  0
  152.8834  144.4197  157.3591 H   0  0  0  0  0  0  0  0  0  0  0  0
  151.3146  142.6737  156.6255 H   0  0  0  0  0  0  0  0  0  0  0  0
  150.3001  142.9272  158.0230 H   0  0  0  0  0  0  0  0  0  0  0  0
  149.4577  139.8207  157.1879 H   0  0  0  0  0  0  0  0  0  0  0  0
  150.6662  138.5104  154.8854 H   0  0  0  0  0  0  0  0  0  0  0  0
  148.9606  138.5933  155.2601 H   0  0  0  0  0  0  0  0  0  0  0  0
  150.3707  141.1770  154.4637 H   0  0  0  0  0  0  0  0  0  0  0  0
  150.0000  140.0147  153.2016 H   0  0  0  0  0  0  0  0  0  0  0  0
  148.3492  142.3751  155.6569 H   0  0  0  0  0  0  0  0  0  0  0  0
  145.6921  142.6026  154.8392 H   0  0  0  0  0  0  0  0  0  0  0  0
  147.5796  139.5439  152.5961 H   0  0  0  0  0  0  0  0  0  0  0  0
  145.4277  140.8490  153.0314 H   0  0  0  0  0  0  0  0  0  0  0  0
  1  2  2  0  0  0  0
  2  3  1  0  0  0  0
  2 10  1  0  0  0  0
  3  4  1  0  0  0  0
  3 18  1  0  0  0  0
  3 19  1  0  0  0  0
  4  9  1  0  0  0  0
  4  5  1  0  0  0  0
  4 20  1  0  0  0  0
  5  6  1  0  0  0  0
  5 21  1  0  0  0  0
  5 22  1  0  0  0  0
  6  7  1  0  0  0  0
  6 23  1  0  0  0  0
  6 24  1  0  0  0  0
  7  8  1  0  0  0  0
  7 25  1  0  0  0  0
  7 26  1  0  0  0  0
  8  9  1  0  0  0  0
  8 27  1  0  0  0  0
  8 28  1  0  0  0  0
  9 29  1  0  0  0  0
  9 30  1  0  0  0  0
 10 11  1  0  0  0  0
 10 31  1  0  0  0  0
 11 12  1  0  0  0  0
 11 32  1  0  0  0  0
 11 33  1  0  0  0  0
 12 13  1  0  0  0  0
 12 34  1  0  0  0  0
 12 35  1  0  0  0  0
 13 17  1  0  0  0  0
 13 14  1  0  0  0  0
 14 15  2  0  0  0  0
 14 36  1  0  0  0  0
 15 16  1  0  0  0  0
 15 37  1  0  0  0  0
 16 17  2  0  0  0  0
 16 39  1  0  0  0  0
 17 38  1  0  0  0  0
M  CHG  1  16   1
M  END
> <s_m_source_file>
AV-unprocessed.smi

> <i_m_source_file_index>
822

> <i_lp_mmshare_version>
43012

> <i_f3d_flags>
0

> <s_epik_input>
W0NIMl0xW0NIMl1bQ0gyXVtDSDJdW0NIMl1bQ0hdMVtDSDJdQyg9TylbTkhdW0NIMl1bQ0gyXW4yW2NIXVtjSF1uW2NIXTI=

> <s_epik_cmdline>
J2VwaWtfcHl0aG9uJywgJy1waCcsICc3LjAnLCAnLXRuJywgJzgnLCAnLW1hJywgJzIwMCcsICctbWV0YWxfYmluZGluZycsICctaW1hZScsICc8aW5maWxlLm1hZT4nLCAnLW9tYWUnLCAnPG91dGZpbGUubWFlPic=

> <r_lp_tautomer_probability>
1

> <r_epik_Ionization_Penalty>
0.267085

> <r_epik_Ionization_Penalty_Charging>
0

> <r_epik_Ionization_Penalty_Neutral>
0.267085

> <r_epik_State_Penalty>
0.259064

> <r_epik_Charging_Adjusted_Penalty>
0.259064

> <i_epik_Tot_Q>
1

> <i_epik_Tot_abs_Q>
1

> <r_epik_Metal_State_Penalty>
0.544959

> <b_epik_Metal_Only>
0

> <s_lp_Force_Field>
OPLS_2005

> <r_lp_Energy>
11.7187

> <b_lp_Chiralities_Consistent>
1

> <s_lp_Variant>
AV-unprocessed.smi:822-1

> <Gold.Version>
5.8.1

> <Gold.Id.Protein>
6NUR|6NUR_protein|mol2

> <Gold.PLP.Fitness>
50.7214

> <Gold.PLP.PLP>
-38.5445

> <Gold.PLP.part.hbond>
-2.0000

> <Gold.PLP.part.metal>
0.0000

> <Gold.PLP.part.buried>
0.4133

> <Gold.PLP.part.nonpolar>
-36.1388

> <Gold.PLP.part.repulsive>
0.0387

> <Gold.PLP.ligand.clash>
0.0000

> <Gold.PLP.ligand.torsion>
0.7479

> <Gold.PLP.Chemscore.Hbond>
3.0000

> <Gold.PLP.Chemscore.CHOScore>
1.5496

> <Gold.PLP.Chemscore.Metal>
0.0000

> <Gold.Chemscore.Hbonds>
donor molecule, donor type, donor heavy atom, donor atom, acceptor molecule, acceptor atom, score
      L1  H    16    39       P1 10175  2.00
      P1  H  7997  8008       L1     1  1.00
      L1  C    14    36       P1  8028  0.93
      L1  C    17    38       P1  7957  0.61

> <Gold.PLP.Chemscore.Internal.Correction>
0.0239

> <Gold.Rescore>
     Score         DG    S(hbond)    S(metal)    S(lipo)     H(rot)  DE(clash)    DE(int)     intcor
     17.66     -18.40       1.99        0.00      98.51       2.05       0.02       0.72       ----

> <Gold.Chemscore.Fitness>
17.6619

> <Gold.Chemscore.DG>
-18.3980

> <Gold.Chemscore.ZeroCoef>
-5.4800

> <Gold.Chemscore.Hbond>
1.9918

> <Gold.Chemscore.Metal>
0.0000

> <Gold.Chemscore.Lipo>
98.5058

> <Gold.Chemscore.Internal_Hbond>
0.0000

> <Gold.Chemscore.DEClash>
0.0167

> <Gold.Chemscore.DEInternal>
0.7194

> <Gold.Chemscore.Rot>
2.0546

> <Gold.Chemscore.Internal.Correction>
   9.000000E+99

> <Gold.Chemscore.Hbonds>
donor molecule, donor type, donor heavy atom, donor atom, acceptor molecule, acceptor atom, score
      L1  H    16    39       P1 10175  0.50
      P1  H  7997  8008       L1     1  1.00

> <Gold.Chemscore.Hbond.Weighted>
-6.6526

> <Gold.Chemscore.Metal.Weighted>
-0.0000

> <Gold.Chemscore.Lipo.Weighted>
-11.5252

> <Gold.Chemscore.Internal_Hbond.Weighted>
0.0000

> <Gold.Chemscore.DEClash.Weighted>
0.0167

> <Gold.Chemscore.DEInternal.Weighted>
0.7194

> <Gold.Chemscore.Rot.Weighted>
5.2598

> <Gold.Chemscore.Internal.Correction.Weighted>
   9.000000E+99

> <Gold.Protein.RotatedTorsions>
[ 6907 6896 6895 6894 ] final  173.35 input  -60.11 | X-H torsion
[ 7974 7965 7964 7962 ] final  115.09 input  175.53 | X-H torsion
[ 8008 7997 7996 7995 ] final  -43.66 input   59.86 | X-H torsion
[ 10167 10162 10161 10158 ] final -148.64 input  -65.29 | X-H torsion
[ 10718 10713 10712 10709 ] final  125.42 input   66.30 | X-H torsion
[ 10763 10752 10751 10750 ] final -173.98 input  -60.55 | X-H torsion
[ 11005 11000 10999 10996 ] final  133.99 input  -57.11 | X-H torsion

> <Gold.Protein.ActiveResidues>
 VAL166  LYS551  ARG553  GLY616  TRP617  ASP618  TYR619  PRO620  LYS621  CYS622 
 ASP623  PHE694  ASN695  SER759  ASP760  ASP761  ALA762  ILE779  LEU786  VAL792 
 PHE793  MET794  SER795  GLU796  ALA797  LYS798  CYS799  TRP800  GLU811  SER814 

> <Gold.Protein.RotatedAtoms>
  151.7697  133.3340  159.3440 H   0  0  0  0  0  0  0  0  0  0  0  0  # atno 6907 bound_to 6896
  150.7466  134.6030  159.6056 H   0  0  0  0  0  0  0  0  0  0  0  0  # atno 6908 bound_to 6896
  152.3349  134.7212  160.0331 H   0  0  0  0  0  0  0  0  0  0  0  0  # atno 6909 bound_to 6896
  145.1963  139.2974  143.4342 H   0  0  0  0  0  0  0  0  0  0  0  0  # atno 7974 bound_to 7965
  154.3997  140.1442  156.3556 H   0  0  0  0  0  0  0  0  0  0  0  0  # atno 8008 bound_to 7997
  155.8229  140.3469  155.5504 H   0  0  0  0  0  0  0  0  0  0  0  0  # atno 8009 bound_to 7997
  155.8269  140.0906  157.1806 H   0  0  0  0  0  0  0  0  0  0  0  0  # atno 8010 bound_to 7997
  139.7513  143.8513  152.2587 H   0  0  0  0  0  0  0  0  0  0  0  0  # atno 10167 bound_to 10162
  157.5504  131.1094  150.8711 H   0  0  0  0  0  0  0  0  0  0  0  0  # atno 10718 bound_to 10713
  154.6016  135.2855  155.0529 H   0  0  0  0  0  0  0  0  0  0  0  0  # atno 10763 bound_to 10752
  154.1792  135.6459  153.5033 H   0  0  0  0  0  0  0  0  0  0  0  0  # atno 10764 bound_to 10752
  153.0159  135.5419  154.6737 H   0  0  0  0  0  0  0  0  0  0  0  0  # atno 10765 bound_to 10752
  139.9887  134.9523  156.9804 H   0  0  0  0  0  0  0  0  0  0  0  0  # atno 11005 bound_to 11000
  146.3426  140.2193  142.8591 LP  0  0  0  0  0  0  0  0  0  0  0  0  # atno 17320 bound_to 7965
  144.9991  140.8616  143.5292 LP  0  0  0  0  0  0  0  0  0  0  0  0  # atno 17321 bound_to 7965
  139.8493  144.7172  150.9234 LP  0  0  0  0  0  0  0  0  0  0  0  0  # atno 17342 bound_to 10162
  140.7798  143.3914  151.1304 LP  0  0  0  0  0  0  0  0  0  0  0  0  # atno 17343 bound_to 10162
  156.9237  130.5324  149.5279 LP  0  0  0  0  0  0  0  0  0  0  0  0  # atno 17370 bound_to 10713
  156.0572  130.5631  150.9116 LP  0  0  0  0  0  0  0  0  0  0  0  0  # atno 17371 bound_to 10713
  140.4952  134.1153  155.7240 LP  0  0  0  0  0  0  0  0  0  0  0  0  # atno 17394 bound_to 11000
  141.1547  133.8905  157.2008 LP  0  0  0  0  0  0  0  0  0  0  0  0  # atno 17395 bound_to 11000

$$$$
