AV-unprocessed.smi:100|AV-procd|sdf|902|dock2
  -GOLD-   2262017403D 1   1.00000     0.00000
 Structure written by MMmdl.
 31 33  0  0  0  0  0  0  0  0  1 V2000
  150.9563  130.6359  157.2326 N   0  0  0  0  0  0  0  0  0  0  0  0
  150.1963  131.6596  156.8197 C   0  0  0  0  0  0  0  0  0  0  0  0
  150.1086  132.7546  157.6101 N   0  0  0  0  0  0  0  0  0  0  0  0
  149.3546  133.7873  157.2209 C   0  0  0  0  0  0  0  0  0  0  0  0
  148.6292  133.9188  156.1076 N   0  0  0  0  0  0  0  0  0  0  0  0
  148.7207  132.8156  155.3073 C   0  0  0  0  0  0  0  0  0  0  0  0
  149.4807  131.6474  155.5956 C   0  0  0  0  0  0  0  0  0  0  0  0
  149.3397  130.7236  154.5695 N   0  0  0  0  0  0  0  0  0  0  0  0
  148.5406  131.3160  153.7238 C   0  0  0  0  0  0  0  0  0  0  0  0
  148.1225  132.5792  154.0834 N   0  0  0  0  0  0  0  0  0  0  0  0
  147.2162  133.4872  153.3049 C   0  0  1  0  0  0  0  0  0  0  0  0
  147.3813  133.2283  151.9422 O   0  0  0  0  0  0  0  0  0  0  0  0
  146.1042  133.1419  151.3187 C   0  0  1  0  0  0  0  0  0  0  0  0
  146.1853  132.3323  150.0151 C   0  0  0  0  0  0  0  0  0  0  0  0
  145.0560  132.5914  149.2085 O   0  0  0  0  0  0  0  0  0  0  0  0
  145.2033  132.5551  152.4090 C   0  0  1  0  0  0  0  0  0  0  0  0
  145.3989  131.2379  152.5032 F   0  0  0  0  0  0  0  0  0  0  0  0
  145.7246  133.2745  153.6419 C   0  0  1  0  0  0  0  0  0  0  0  0
  145.4516  132.5655  154.8378 O   0  0  0  0  0  0  0  0  0  0  0  0
  151.0370  129.8076  156.6607 H   0  0  0  0  0  0  0  0  0  0  0  0
  151.4477  130.6958  158.1125 H   0  0  0  0  0  0  0  0  0  0  0  0
  149.3281  134.6289  157.8972 H   0  0  0  0  0  0  0  0  0  0  0  0
  148.2351  130.8453  152.8008 H   0  0  0  0  0  0  0  0  0  0  0  0
  147.5667  134.4912  153.5483 H   0  0  0  0  0  0  0  0  0  0  0  0
  145.7830  134.1615  151.0972 H   0  0  0  0  0  0  0  0  0  0  0  0
  147.0777  132.6145  149.4561 H   0  0  0  0  0  0  0  0  0  0  0  0
  146.2592  131.2628  150.2140 H   0  0  0  0  0  0  0  0  0  0  0  0
  145.2838  133.2596  148.5803 H   0  0  0  0  0  0  0  0  0  0  0  0
  144.1409  132.7201  152.2280 H   0  0  0  0  0  0  0  0  0  0  0  0
  145.2601  134.2595  153.7032 H   0  0  0  0  0  0  0  0  0  0  0  0
  144.5172  132.4457  154.9105 H   0  0  0  0  0  0  0  0  0  0  0  0
  1  2  1  0  0  0  0
  1 20  1  0  0  0  0
  1 21  1  0  0  0  0
  2  7  1  0  0  0  0
  2  3  2  0  0  0  0
  3  4  1  0  0  0  0
  4  5  2  0  0  0  0
  4 22  1  0  0  0  0
  5  6  1  0  0  0  0
  6 10  1  0  0  0  0
  6  7  2  0  0  0  0
  7  8  1  0  0  0  0
  8  9  2  0  0  0  0
  9 10  1  0  0  0  0
  9 23  1  0  0  0  0
 10 11  1  0  0  0  0
 11 18  1  0  0  0  0
 11 12  1  0  0  0  0
 11 24  1  0  0  0  0
 12 13  1  0  0  0  0
 13 14  1  0  0  0  0
 13 16  1  0  0  0  0
 13 25  1  0  0  0  0
 14 15  1  0  0  0  0
 14 26  1  0  0  0  0
 14 27  1  0  0  0  0
 15 28  1  0  0  0  0
 16 17  1  0  0  0  0
 16 18  1  0  0  0  0
 16 29  1  0  0  0  0
 18 19  1  0  0  0  0
 18 30  1  0  0  0  0
 19 31  1  0  0  0  0
M  END
> <s_m_source_file>
AV-unprocessed.smi

> <i_m_source_file_index>
100

> <i_lp_mmshare_version>
43012

> <i_f3d_flags>
0

> <s_epik_input>
bjFbY0hdbmMoW05IMl0pYyhjMTIpbltjSF1uMltDQEBIXTNPW0NAQEhdKFtDSDJdW09IXSlbQ0BIXShGKVtDQEhdM1tPSF0=

> <s_epik_cmdline>
J2VwaWtfcHl0aG9uJywgJy1waCcsICc3LjAnLCAnLXRuJywgJzgnLCAnLW1hJywgJzIwMCcsICctbWV0YWxfYmluZGluZycsICctaW1hZScsICc8aW5maWxlLm1hZT4nLCAnLW9tYWUnLCAnPG91dGZpbGUubWFlPic=

> <r_lp_tautomer_probability>
1

> <r_epik_Ionization_Penalty>
0.000750324

> <r_epik_Ionization_Penalty_Charging>
0

> <r_epik_Ionization_Penalty_Neutral>
0.000750324

> <r_epik_State_Penalty>
-0

> <r_epik_Charging_Adjusted_Penalty>
0

> <i_epik_Tot_Q>
0

> <i_epik_Tot_abs_Q>
0

> <r_epik_Metal_State_Penalty>
-0

> <b_epik_Metal_Only>
0

> <s_epik_Chemistry_Notes>
This compound contains an acetal/aminal-like group ( X-CH(R)-Y where X, Y are N, S, or O) that may be acid/base labile, releasing an aldehyde.

> <s_lp_Force_Field>
OPLS_2005

> <r_lp_Energy>
37.3061

> <b_lp_Chiralities_Consistent>
1

> <s_lp_Variant>
AV-unprocessed.smi:100-6

> <Gold.Version>
5.8.1

> <Gold.Id.Protein>
6NUR|6NUR_protein|mol2

> <Gold.PLP.Fitness>
34.4904

> <Gold.PLP.PLP>
-24.3343

> <Gold.PLP.part.hbond>
-3.0000

> <Gold.PLP.part.metal>
0.0000

> <Gold.PLP.part.buried>
-2.9248

> <Gold.PLP.part.nonpolar>
-18.8755

> <Gold.PLP.part.repulsive>
0.3363

> <Gold.PLP.ligand.clash>
0.0000

> <Gold.PLP.ligand.torsion>
0.9232

> <Gold.PLP.Chemscore.Hbond>
3.0000

> <Gold.PLP.Chemscore.CHOScore>
1.0000

> <Gold.PLP.Chemscore.Metal>
0.0000

> <Gold.Chemscore.Hbonds>
donor molecule, donor type, donor heavy atom, donor atom, acceptor molecule, acceptor atom, score
      L1  H    15    28       P1  7921  1.00
      L1  H    19    31       P1 10957  1.00
      P1  H  6896  6908       L1     3  0.85
      L1  C     9    23       P1 10747  0.80

> <Gold.PLP.Chemscore.Internal.Correction>
0.0026

> <Gold.Rescore>
     Score         DG    S(hbond)    S(metal)    S(lipo)     H(rot)  DE(clash)    DE(int)     intcor
      8.68      -9.68       2.73        0.00      27.90       3.19       0.00       1.00       ----

> <Gold.Chemscore.Fitness>
8.6812

> <Gold.Chemscore.DG>
-9.6791

> <Gold.Chemscore.ZeroCoef>
-5.4800

> <Gold.Chemscore.Hbond>
2.7250

> <Gold.Chemscore.Metal>
0.0000

> <Gold.Chemscore.Lipo>
27.8994

> <Gold.Chemscore.Internal_Hbond>
0.0000

> <Gold.Chemscore.DEClash>
0.0008

> <Gold.Chemscore.DEInternal>
0.9971

> <Gold.Chemscore.Rot>
3.1901

> <Gold.Chemscore.Internal.Correction>
   9.000000E+99

> <Gold.Chemscore.Hbonds>
donor molecule, donor type, donor heavy atom, donor atom, acceptor molecule, acceptor atom, score
      L1  H    15    28       P1  7921  0.25
      L1  H    19    31       P1 10957  0.89
      P1  H  6896  6908       L1     3  0.14

> <Gold.Chemscore.Hbond.Weighted>
-9.1015

> <Gold.Chemscore.Metal.Weighted>
-0.0000

> <Gold.Chemscore.Lipo.Weighted>
-3.2642

> <Gold.Chemscore.Internal_Hbond.Weighted>
0.0000

> <Gold.Chemscore.DEClash.Weighted>
0.0008

> <Gold.Chemscore.DEInternal.Weighted>
0.9971

> <Gold.Chemscore.Rot.Weighted>
8.1667

> <Gold.Chemscore.Internal.Correction.Weighted>
   9.000000E+99

> <Gold.Protein.RotatedTorsions>
[ 6907 6896 6895 6894 ] final  108.01 input  -60.11 | X-H torsion
[ 7974 7965 7964 7962 ] final  -28.07 input  175.53 | X-H torsion
[ 8008 7997 7996 7995 ] final  -29.38 input   59.86 | X-H torsion
[ 10167 10162 10161 10158 ] final   49.82 input  -65.29 | X-H torsion
[ 10718 10713 10712 10709 ] final -114.81 input   66.30 | X-H torsion
[ 10763 10752 10751 10750 ] final  -80.24 input  -60.55 | X-H torsion
[ 11005 11000 10999 10996 ] final  106.07 input  -57.11 | X-H torsion

> <Gold.Protein.ActiveResidues>
 VAL166  LYS551  ARG553  GLY616  TRP617  ASP618  TYR619  PRO620  LYS621  CYS622 
 ASP623  PHE694  ASN695  SER759  ASP760  ASP761  ALA762  ILE779  LEU786  VAL792 
 PHE793  MET794  SER795  GLU796  ALA797  LYS798  CYS799  TRP800  GLU811  SER814 

> <Gold.Protein.RotatedAtoms>
  152.5130  133.9152  159.7506 H   0  0  0  0  0  0  0  0  0  0  0  0  # atno 6907 bound_to 6896
  150.9536  133.6514  159.2774 H   0  0  0  0  0  0  0  0  0  0  0  0  # atno 6908 bound_to 6896
  151.3783  135.0940  159.9540 H   0  0  0  0  0  0  0  0  0  0  0  0  # atno 6909 bound_to 6896
  146.1314  140.5234  142.8692 H   0  0  0  0  0  0  0  0  0  0  0  0  # atno 7974 bound_to 7965
  154.4292  140.1820  156.1239 H   0  0  0  0  0  0  0  0  0  0  0  0  # atno 8008 bound_to 7997
  156.0121  140.3349  155.6926 H   0  0  0  0  0  0  0  0  0  0  0  0  # atno 8009 bound_to 7997
  155.6096  140.0648  157.2701 H   0  0  0  0  0  0  0  0  0  0  0  0  # atno 8010 bound_to 7997
  140.2789  144.3179  150.6269 H   0  0  0  0  0  0  0  0  0  0  0  0  # atno 10167 bound_to 10162
  156.0854  130.6047  150.8824 H   0  0  0  0  0  0  0  0  0  0  0  0  # atno 10718 bound_to 10713
  154.5487  135.5668  153.6903 H   0  0  0  0  0  0  0  0  0  0  0  0  # atno 10763 bound_to 10752
  152.9983  135.6245  154.2403 H   0  0  0  0  0  0  0  0  0  0  0  0  # atno 10764 bound_to 10752
  154.2337  135.2865  155.2860 H   0  0  0  0  0  0  0  0  0  0  0  0  # atno 10765 bound_to 10752
  139.8809  134.9357  156.5611 H   0  0  0  0  0  0  0  0  0  0  0  0  # atno 11005 bound_to 11000
  144.7694  140.5604  143.6680 LP  0  0  0  0  0  0  0  0  0  0  0  0  # atno 17320 bound_to 7965
  145.5252  139.1476  143.3530 LP  0  0  0  0  0  0  0  0  0  0  0  0  # atno 17321 bound_to 7965
  140.5828  143.2171  151.7397 LP  0  0  0  0  0  0  0  0  0  0  0  0  # atno 17342 bound_to 10162
  139.4968  144.4055  152.0136 LP  0  0  0  0  0  0  0  0  0  0  0  0  # atno 17343 bound_to 10162
  157.5987  131.0942  150.8997 LP  0  0  0  0  0  0  0  0  0  0  0  0  # atno 17370 bound_to 10713
  156.9159  130.5297  149.5279 LP  0  0  0  0  0  0  0  0  0  0  0  0  # atno 17371 bound_to 10713
  140.8169  133.8385  155.8860 LP  0  0  0  0  0  0  0  0  0  0  0  0  # atno 17394 bound_to 11000
  140.9455  134.1846  157.4767 LP  0  0  0  0  0  0  0  0  0  0  0  0  # atno 17395 bound_to 11000

$$$$
