AV-unprocessed.smi:2778|AV-procd|sdf|10710|dock5
  -GOLD-   2272015143D 1   1.00000     0.00000
 Structure written by MMmdl.
 37 38  0  0  0  0  0  0  0  0  1 V2000
  151.8683  145.5501  159.8224 C   0  0  0  0  0  0  0  0  0  0  0  0
  151.4815  144.3968  159.0900 O   0  0  0  0  0  0  0  0  0  0  0  0
  152.0719  143.1899  159.4111 C   0  0  0  0  0  0  0  0  0  0  0  0
  153.0071  143.0289  160.4650 C   0  0  0  0  0  0  0  0  0  0  0  0
  153.5546  141.7586  160.7148 C   0  0  0  0  0  0  0  0  0  0  0  0
  153.1481  140.6877  159.8991 C   0  0  0  0  0  0  0  0  0  0  0  0
  153.6962  139.2920  160.1106 C   0  0  0  0  0  0  0  0  0  0  0  0
  152.2597  140.8281  158.8949 N   0  0  0  0  0  0  0  0  0  0  0  0
  151.7238  142.0483  158.6439 C   0  0  0  0  0  0  0  0  0  0  0  0
  150.7799  142.2786  157.6066 N   0  0  0  0  0  0  0  0  0  0  0  0
  150.5827  141.5779  156.4724 C   0  0  0  0  0  0  0  0  0  0  0  0
  151.2346  140.5917  156.1339 O   0  0  0  0  0  0  0  0  0  0  0  0
  149.5951  142.0600  155.6956 N   0  0  0  0  0  0  0  0  0  0  0  0
  149.1249  141.5423  154.4078 C   0  0  0  0  0  0  0  0  0  0  0  0
  147.6840  142.0086  154.1266 C   0  0  0  0  0  0  0  0  0  0  0  0
  146.9262  140.7710  153.6445 C   0  0  0  0  0  0  0  0  0  0  0  0
  147.6060  139.6119  154.3654 C   0  0  0  0  0  0  0  0  0  0  0  0
  149.0851  139.9996  154.3881 C   0  0  0  0  0  0  0  0  0  0  0  0
  151.3202  146.4143  159.4473 H   0  0  0  0  0  0  0  0  0  0  0  0
  152.9325  145.7590  159.7054 H   0  0  0  0  0  0  0  0  0  0  0  0
  151.6339  145.4463  160.8827 H   0  0  0  0  0  0  0  0  0  0  0  0
  153.3160  143.8542  161.0882 H   0  0  0  0  0  0  0  0  0  0  0  0
  154.2674  141.6146  161.5134 H   0  0  0  0  0  0  0  0  0  0  0  0
  154.4604  139.2802  160.8883 H   0  0  0  0  0  0  0  0  0  0  0  0
  154.1430  138.9155  159.1899 H   0  0  0  0  0  0  0  0  0  0  0  0
  152.8967  138.6129  160.4077 H   0  0  0  0  0  0  0  0  0  0  0  0
  150.1792  143.0781  157.7446 H   0  0  0  0  0  0  0  0  0  0  0  0
  149.1397  142.9004  156.0211 H   0  0  0  0  0  0  0  0  0  0  0  0
  149.7726  141.9008  153.6054 H   0  0  0  0  0  0  0  0  0  0  0  0
  147.2137  142.3754  155.0405 H   0  0  0  0  0  0  0  0  0  0  0  0
  147.6478  142.8195  153.3986 H   0  0  0  0  0  0  0  0  0  0  0  0
  145.8572  140.8265  153.8510 H   0  0  0  0  0  0  0  0  0  0  0  0
  147.0530  140.6576  152.5670 H   0  0  0  0  0  0  0  0  0  0  0  0
  147.2286  139.5434  155.3865 H   0  0  0  0  0  0  0  0  0  0  0  0
  147.4303  138.6519  153.8789 H   0  0  0  0  0  0  0  0  0  0  0  0
  149.5664  139.6415  153.4769 H   0  0  0  0  0  0  0  0  0  0  0  0
  149.6094  139.5390  155.2265 H   0  0  0  0  0  0  0  0  0  0  0  0
  1  2  1  0  0  0  0
  1 19  1  0  0  0  0
  1 20  1  0  0  0  0
  1 21  1  0  0  0  0
  2  3  1  0  0  0  0
  3  9  1  0  0  0  0
  3  4  2  0  0  0  0
  4  5  1  0  0  0  0
  4 22  1  0  0  0  0
  5  6  2  0  0  0  0
  5 23  1  0  0  0  0
  6  7  1  0  0  0  0
  6  8  1  0  0  0  0
  7 24  1  0  0  0  0
  7 25  1  0  0  0  0
  7 26  1  0  0  0  0
  8  9  2  0  0  0  0
  9 10  1  0  0  0  0
 10 11  1  0  0  0  0
 10 27  1  0  0  0  0
 11 12  2  0  0  0  0
 11 13  1  0  0  0  0
 13 14  1  0  0  0  0
 13 28  1  0  0  0  0
 14 18  1  0  0  0  0
 14 15  1  0  0  0  0
 14 29  1  0  0  0  0
 15 16  1  0  0  0  0
 15 30  1  0  0  0  0
 15 31  1  0  0  0  0
 16 17  1  0  0  0  0
 16 32  1  0  0  0  0
 16 33  1  0  0  0  0
 17 18  1  0  0  0  0
 17 34  1  0  0  0  0
 17 35  1  0  0  0  0
 18 36  1  0  0  0  0
 18 37  1  0  0  0  0
M  END
> <s_m_source_file>
AV-unprocessed.smi

> <i_m_source_file_index>
2778

> <i_lp_mmshare_version>
43012

> <i_f3d_flags>
0

> <s_epik_input>
W0NIM11PYzFbY0hdW2NIXWMoW0NIM10pbmMxW05IXUMoPU8pW05IXVtDSF0yW0NIMl1bQ0gyXVtDSDJdW0NIMl0y

> <s_epik_cmdline>
J2VwaWtfcHl0aG9uJywgJy1waCcsICc3LjAnLCAnLXRuJywgJzgnLCAnLW1hJywgJzIwMCcsICctbWV0YWxfYmluZGluZycsICctaW1hZScsICc8aW5maWxlLm1hZT4nLCAnLW9tYWUnLCAnPG91dGZpbGUubWFlPic=

> <r_lp_tautomer_probability>
1

> <r_epik_Ionization_Penalty>
6.53997e-05

> <r_epik_Ionization_Penalty_Charging>
0

> <r_epik_Ionization_Penalty_Neutral>
6.53997e-05

> <r_epik_State_Penalty>
-0

> <r_epik_Charging_Adjusted_Penalty>
0

> <i_epik_Tot_Q>
0

> <i_epik_Tot_abs_Q>
0

> <r_epik_Metal_State_Penalty>
-0

> <b_epik_Metal_Only>
0

> <s_lp_Force_Field>
OPLS_2005

> <r_lp_Energy>
34.0049

> <b_lp_Chiralities_Consistent>
1

> <s_lp_Variant>
AV-unprocessed.smi:2778-1

> <Gold.Version>
5.8.1

> <Gold.Id.Protein>
6NUR|6NUR_protein|mol2

> <Gold.PLP.Fitness>
42.4346

> <Gold.PLP.PLP>
-40.4682

> <Gold.PLP.part.hbond>
-1.0000

> <Gold.PLP.part.metal>
0.0000

> <Gold.PLP.part.buried>
-5.4623

> <Gold.PLP.part.nonpolar>
-33.9927

> <Gold.PLP.part.repulsive>
0.2526

> <Gold.PLP.ligand.clash>
0.0000

> <Gold.PLP.ligand.torsion>
0.4343

> <Gold.PLP.Chemscore.Hbond>
0.9440

> <Gold.PLP.Chemscore.CHOScore>
0.0000

> <Gold.PLP.Chemscore.Metal>
0.0000

> <Gold.Chemscore.Hbonds>
donor molecule, donor type, donor heavy atom, donor atom, acceptor molecule, acceptor atom, score
      L1  H    13    28       P1  8028  0.88

> <Gold.PLP.Chemscore.Internal.Correction>
0.0030

> <Gold.Rescore>
     Score         DG    S(hbond)    S(metal)    S(lipo)     H(rot)  DE(clash)    DE(int)     intcor
     14.19     -16.89       0.97        0.00      96.42       1.21       0.06       2.64       ----

> <Gold.Chemscore.Fitness>
14.1905

> <Gold.Chemscore.DG>
-16.8927

> <Gold.Chemscore.ZeroCoef>
-5.4800

> <Gold.Chemscore.Hbond>
0.9669

> <Gold.Chemscore.Metal>
0.0000

> <Gold.Chemscore.Lipo>
96.4249

> <Gold.Chemscore.Internal_Hbond>
0.0000

> <Gold.Chemscore.DEClash>
0.0627

> <Gold.Chemscore.DEInternal>
2.6395

> <Gold.Chemscore.Rot>
1.2103

> <Gold.Chemscore.Internal.Correction>
   9.000000E+99

> <Gold.Chemscore.Hbonds>
donor molecule, donor type, donor heavy atom, donor atom, acceptor molecule, acceptor atom, score
      L1  H    13    28       P1  8028  0.86

> <Gold.Chemscore.Hbond.Weighted>
-3.2294

> <Gold.Chemscore.Metal.Weighted>
-0.0000

> <Gold.Chemscore.Lipo.Weighted>
-11.2817

> <Gold.Chemscore.Internal_Hbond.Weighted>
0.0000

> <Gold.Chemscore.DEClash.Weighted>
0.0627

> <Gold.Chemscore.DEInternal.Weighted>
2.6395

> <Gold.Chemscore.Rot.Weighted>
3.0984

> <Gold.Chemscore.Internal.Correction.Weighted>
   9.000000E+99

> <Gold.Protein.RotatedTorsions>
[ 6907 6896 6895 6894 ] final  142.99 input  -60.11 | X-H torsion
[ 7974 7965 7964 7962 ] final  143.61 input  175.53 | X-H torsion
[ 8008 7997 7996 7995 ] final -139.42 input   59.86 | X-H torsion
[ 10167 10162 10161 10158 ] final  112.30 input  -65.29 | X-H torsion
[ 10718 10713 10712 10709 ] final -134.23 input   66.30 | X-H torsion
[ 10763 10752 10751 10750 ] final  163.91 input  -60.55 | X-H torsion
[ 11005 11000 10999 10996 ] final  130.87 input  -57.11 | X-H torsion

> <Gold.Protein.ActiveResidues>
 VAL166  LYS551  ARG553  GLY616  TRP617  ASP618  TYR619  PRO620  LYS621  CYS622 
 ASP623  PHE694  ASN695  SER759  ASP760  ASP761  ALA762  ILE779  LEU786  VAL792 
 PHE793  MET794  SER795  GLU796  ALA797  LYS798  CYS799  TRP800  GLU811  SER814 

> <Gold.Protein.RotatedAtoms>
  152.2118  133.4917  159.5114 H   0  0  0  0  0  0  0  0  0  0  0  0  # atno 6907 bound_to 6896
  150.6992  134.1456  159.4130 H   0  0  0  0  0  0  0  0  0  0  0  0  # atno 6908 bound_to 6896
  151.9376  135.0228  160.0584 H   0  0  0  0  0  0  0  0  0  0  0  0  # atno 6909 bound_to 6896
  144.8906  139.5564  143.5800 H   0  0  0  0  0  0  0  0  0  0  0  0  # atno 7974 bound_to 7965
  155.4445  140.0534  157.3007 H   0  0  0  0  0  0  0  0  0  0  0  0  # atno 8008 bound_to 7997
  154.4804  140.2079  155.9735 H   0  0  0  0  0  0  0  0  0  0  0  0  # atno 8009 bound_to 7997
  156.1196  140.3190  155.8194 H   0  0  0  0  0  0  0  0  0  0  0  0  # atno 8010 bound_to 7997
  139.6546  144.7129  151.1982 H   0  0  0  0  0  0  0  0  0  0  0  0  # atno 10167 bound_to 10162
  156.2533  130.7166  151.1073 H   0  0  0  0  0  0  0  0  0  0  0  0  # atno 10718 bound_to 10713
  154.3008  135.2759  155.2612 H   0  0  0  0  0  0  0  0  0  0  0  0  # atno 10763 bound_to 10752
  154.5049  135.5798  153.6563 H   0  0  0  0  0  0  0  0  0  0  0  0  # atno 10764 bound_to 10752
  152.9901  135.6167  154.3179 H   0  0  0  0  0  0  0  0  0  0  0  0  # atno 10765 bound_to 10752
  139.9697  134.9581  156.9356 H   0  0  0  0  0  0  0  0  0  0  0  0  # atno 11005 bound_to 11000
  146.3051  139.7553  142.9062 LP  0  0  0  0  0  0  0  0  0  0  0  0  # atno 17320 bound_to 7965
  145.3791  141.0355  143.3188 LP  0  0  0  0  0  0  0  0  0  0  0  0  # atno 17321 bound_to 7965
  140.7553  143.6093  150.8621 LP  0  0  0  0  0  0  0  0  0  0  0  0  # atno 17342 bound_to 10162
  139.9745  143.6020  152.2963 LP  0  0  0  0  0  0  0  0  0  0  0  0  # atno 17343 bound_to 10162
  157.7223  131.0673  150.6084 LP  0  0  0  0  0  0  0  0  0  0  0  0  # atno 17370 bound_to 10713
  156.6166  130.4394  149.5838 LP  0  0  0  0  0  0  0  0  0  0  0  0  # atno 17371 bound_to 10713
  140.5320  134.0804  155.7318 LP  0  0  0  0  0  0  0  0  0  0  0  0  # atno 17394 bound_to 11000
  141.1377  133.9193  157.2398 LP  0  0  0  0  0  0  0  0  0  0  0  0  # atno 17395 bound_to 11000

$$$$
