AV-unprocessed.smi:1006|AV-procd|sdf|4393|dock3
  -GOLD-   22720 2323D 1   1.00000     0.00000
 Structure written by MMmdl.
 46 48  0  0  0  0  0  0  0  0  2 V2000
  144.4009  132.2867  149.4488 C   0  0  0  0  0  0  0  0  0  0  0  0
  144.2586  133.4035  150.4610 C   0  0  0  0  0  0  0  0  0  0  0  0
  143.3977  133.2948  151.5727 C   0  0  0  0  0  0  0  0  0  0  0  0
  143.3461  134.3963  152.4446 C   0  0  0  0  0  0  0  0  0  0  0  0
  142.5297  134.3832  153.5725 N   0  0  0  0  0  0  0  0  0  0  0  0
  144.0825  135.5016  152.2236 N   0  0  0  0  0  0  0  0  0  0  0  0
  144.8796  135.5420  151.1473 C   0  0  0  0  0  0  0  0  0  0  0  0
  145.8679  136.9975  150.8381 S   0  0  0  0  0  0  0  0  0  0  0  0
  145.9064  137.7807  152.4791 C   0  0  0  0  0  0  0  0  0  0  0  0
  147.2400  138.4879  152.7831 C   0  0  1  0  0  0  0  0  0  0  0  0
  147.3020  139.7003  152.0602 O   0  0  0  0  0  0  0  0  0  0  0  0
  147.4297  138.8195  154.2782 C   0  0  0  0  0  0  0  0  0  0  0  0
  148.7486  139.3509  154.5747 N   0  0  0  0  0  0  0  0  0  0  0  0
  149.9166  138.9720  154.0217 C   0  0  0  0  0  0  0  0  0  0  0  0
  151.0192  139.5786  154.4521 N   0  0  0  0  0  0  0  0  0  0  0  0
  150.5071  140.4545  155.3938 C   0  0  0  0  0  0  0  0  0  0  0  0
  151.1596  141.3849  156.2321 C   0  0  0  0  0  0  0  0  0  0  0  0
  150.4270  142.1795  157.1426 C   0  0  0  0  0  0  0  0  0  0  0  0
  151.1708  143.1622  158.0296 C   0  0  0  0  0  0  0  0  0  0  0  0
  149.0169  142.0526  157.2216 C   0  0  0  0  0  0  0  0  0  0  0  0
  148.2086  142.8904  158.1961 C   0  0  0  0  0  0  0  0  0  0  0  0
  148.3485  141.1343  156.3855 C   0  0  0  0  0  0  0  0  0  0  0  0
  149.0893  140.3434  155.4890 C   0  0  0  0  0  0  0  0  0  0  0  0
  144.9859  134.5334  150.2706 N   0  3  0  0  0  0  0  0  0  0  0  0
  144.2217  131.3175  149.9151 H   0  0  0  0  0  0  0  0  0  0  0  0
  145.4028  132.2743  149.0179 H   0  0  0  0  0  0  0  0  0  0  0  0
  143.6806  132.4174  148.6408 H   0  0  0  0  0  0  0  0  0  0  0  0
  142.8075  132.4062  151.7456 H   0  0  0  0  0  0  0  0  0  0  0  0
  141.9512  133.5873  153.8005 H   0  0  0  0  0  0  0  0  0  0  0  0
  142.5181  135.1572  154.2217 H   0  0  0  0  0  0  0  0  0  0  0  0
  145.0814  138.4900  152.5556 H   0  0  0  0  0  0  0  0  0  0  0  0
  145.7311  136.9945  153.2127 H   0  0  0  0  0  0  0  0  0  0  0  0
  148.0647  137.8562  152.4506 H   0  0  0  0  0  0  0  0  0  0  0  0
  148.2101  139.9103  151.9031 H   0  0  0  0  0  0  0  0  0  0  0  0
  146.6850  139.5486  154.6007 H   0  0  0  0  0  0  0  0  0  0  0  0
  147.2748  137.9285  154.8883 H   0  0  0  0  0  0  0  0  0  0  0  0
  149.9603  138.2022  153.2649 H   0  0  0  0  0  0  0  0  0  0  0  0
  152.2340  141.4797  156.1731 H   0  0  0  0  0  0  0  0  0  0  0  0
  150.7967  144.1749  157.8776 H   0  0  0  0  0  0  0  0  0  0  0  0
  152.2394  143.1659  157.8119 H   0  0  0  0  0  0  0  0  0  0  0  0
  151.0440  142.8991  159.0800 H   0  0  0  0  0  0  0  0  0  0  0  0
  147.1514  142.6245  158.1677 H   0  0  0  0  0  0  0  0  0  0  0  0
  148.2955  143.9491  157.9509 H   0  0  0  0  0  0  0  0  0  0  0  0
  148.5625  142.7408  159.2164 H   0  0  0  0  0  0  0  0  0  0  0  0
  147.2750  141.0276  156.4359 H   0  0  0  0  0  0  0  0  0  0  0  0
  145.6071  134.6078  149.4647 H   0  0  0  0  0  0  0  0  0  0  0  0
  1  2  1  0  0  0  0
  1 25  1  0  0  0  0
  1 26  1  0  0  0  0
  1 27  1  0  0  0  0
  2 24  1  0  0  0  0
  2  3  2  0  0  0  0
  3  4  1  0  0  0  0
  3 28  1  0  0  0  0
  4  5  1  0  0  0  0
  4  6  2  0  0  0  0
  5 29  1  0  0  0  0
  5 30  1  0  0  0  0
  6  7  1  0  0  0  0
  7  8  1  0  0  0  0
  7 24  2  0  0  0  0
  8  9  1  0  0  0  0
  9 10  1  0  0  0  0
  9 31  1  0  0  0  0
  9 32  1  0  0  0  0
 10 11  1  0  0  0  0
 10 12  1  0  0  0  0
 10 33  1  0  0  0  0
 11 34  1  0  0  0  0
 12 13  1  0  0  0  0
 12 35  1  0  0  0  0
 12 36  1  0  0  0  0
 13 23  1  0  0  0  0
 13 14  1  0  0  0  0
 14 15  2  0  0  0  0
 14 37  1  0  0  0  0
 15 16  1  0  0  0  0
 16 23  2  0  0  0  0
 16 17  1  0  0  0  0
 17 18  2  0  0  0  0
 17 38  1  0  0  0  0
 18 19  1  0  0  0  0
 18 20  1  0  0  0  0
 19 39  1  0  0  0  0
 19 40  1  0  0  0  0
 19 41  1  0  0  0  0
 20 21  1  0  0  0  0
 20 22  2  0  0  0  0
 21 42  1  0  0  0  0
 21 43  1  0  0  0  0
 21 44  1  0  0  0  0
 22 23  1  0  0  0  0
 22 45  1  0  0  0  0
 24 46  1  0  0  0  0
M  CHG  1  24   1
M  END
> <s_m_source_file>
AV-unprocessed.smi

> <i_m_source_file_index>
1006

> <i_lp_mmshare_version>
43012

> <i_f3d_flags>
0

> <s_epik_input>
W0NIM11jMVtjSF1jKFtOSDJdKW5jKG4xKVNbQ0gyXVtDQEhdKFtPSF0pW0NIMl1uKFtjSF1uMiljKGMyMylbY0hdYyhbQ0gzXSljKFtjSF0zKVtDSDNd

> <s_epik_cmdline>
J2VwaWtfcHl0aG9uJywgJy1waCcsICc3LjAnLCAnLXRuJywgJzgnLCAnLW1hJywgJzIwMCcsICctbWV0YWxfYmluZGluZycsICctaW1hZScsICc8aW5maWxlLm1hZT4nLCAnLW9tYWUnLCAnPG91dGZpbGUubWFlPic=

> <r_lp_tautomer_probability>
0.999762

> <r_epik_Ionization_Penalty>
0.549885

> <r_epik_Ionization_Penalty_Charging>
0.440405

> <r_epik_Ionization_Penalty_Neutral>
0.10948

> <r_epik_State_Penalty>
0.546419

> <r_epik_Charging_Adjusted_Penalty>
0.986823

> <i_epik_Tot_Q>
1

> <i_epik_Tot_abs_Q>
1

> <r_epik_Metal_State_Penalty>
0.699827

> <b_epik_Metal_Only>
0

> <s_lp_Force_Field>
OPLS_2005

> <r_lp_Energy>
7.78967

> <b_lp_Chiralities_Consistent>
1

> <s_lp_Variant>
AV-unprocessed.smi:1006-4

> <Gold.Version>
5.8.1

> <Gold.Id.Protein>
6NUR|6NUR_protein|mol2

> <Gold.PLP.Fitness>
53.5913

> <Gold.PLP.PLP>
-41.5799

> <Gold.PLP.part.hbond>
-4.0000

> <Gold.PLP.part.metal>
0.0000

> <Gold.PLP.part.buried>
-0.1142

> <Gold.PLP.part.nonpolar>
-37.6843

> <Gold.PLP.part.repulsive>
0.3197

> <Gold.PLP.ligand.clash>
0.0000

> <Gold.PLP.ligand.torsion>
0.9725

> <Gold.PLP.Chemscore.Hbond>
3.6400

> <Gold.PLP.Chemscore.CHOScore>
0.9958

> <Gold.PLP.Chemscore.Metal>
0.0000

> <Gold.Chemscore.Hbonds>
donor molecule, donor type, donor heavy atom, donor atom, acceptor molecule, acceptor atom, score
      L1  H     5    29       P1 10957  0.34
      L1  H    11    34       P1  7957  1.00
      L1  H    24    46       P1  7921  1.00
      P1  H  7989  7998       L1    15  0.65
      L1  C    14    37       P1  7948  0.89
      L1  C    14    37       P1  7957  0.09

> <Gold.PLP.Chemscore.Internal.Correction>
0.0488

> <Gold.Rescore>
     Score         DG    S(hbond)    S(metal)    S(lipo)     H(rot)  DE(clash)    DE(int)     intcor
     16.65     -19.56       2.89        0.00     101.20       2.89       2.05       0.85       ----

> <Gold.Chemscore.Fitness>
16.6532

> <Gold.Chemscore.DG>
-19.5588

> <Gold.Chemscore.ZeroCoef>
-5.4800

> <Gold.Chemscore.Hbond>
2.8852

> <Gold.Chemscore.Metal>
0.0000

> <Gold.Chemscore.Lipo>
101.2029

> <Gold.Chemscore.Internal_Hbond>
0.0000

> <Gold.Chemscore.DEClash>
2.0513

> <Gold.Chemscore.DEInternal>
0.8542

> <Gold.Chemscore.Rot>
2.8901

> <Gold.Chemscore.Internal.Correction>
   9.000000E+99

> <Gold.Chemscore.Hbonds>
donor molecule, donor type, donor heavy atom, donor atom, acceptor molecule, acceptor atom, score
      L1  H     5    29       P1 10957  0.34
      L1  H    11    34       P1  7957  0.96
      L1  H    24    46       P1  7921  0.93
      P1  H  7989  7998       L1    15  0.05

> <Gold.Chemscore.Hbond.Weighted>
-9.6366

> <Gold.Chemscore.Metal.Weighted>
-0.0000

> <Gold.Chemscore.Lipo.Weighted>
-11.8407

> <Gold.Chemscore.Internal_Hbond.Weighted>
0.0000

> <Gold.Chemscore.DEClash.Weighted>
2.0513

> <Gold.Chemscore.DEInternal.Weighted>
0.8542

> <Gold.Chemscore.Rot.Weighted>
7.3986

> <Gold.Chemscore.Internal.Correction.Weighted>
   9.000000E+99

> <Gold.Protein.RotatedTorsions>
[ 6907 6896 6895 6894 ] final -106.26 input  -60.11 | X-H torsion
[ 7974 7965 7964 7962 ] final  116.92 input  175.53 | X-H torsion
[ 8008 7997 7996 7995 ] final  146.87 input   59.86 | X-H torsion
[ 10167 10162 10161 10158 ] final  -34.39 input  -65.29 | X-H torsion
[ 10718 10713 10712 10709 ] final  -81.34 input   66.30 | X-H torsion
[ 10763 10752 10751 10750 ] final  -34.17 input  -60.55 | X-H torsion
[ 11005 11000 10999 10996 ] final   46.05 input  -57.11 | X-H torsion

> <Gold.Protein.ActiveResidues>
 VAL166  LYS551  ARG553  GLY616  TRP617  ASP618  TYR619  PRO620  LYS621  CYS622 
 ASP623  PHE694  ASN695  SER759  ASP760  ASP761  ALA762  ILE779  LEU786  VAL792 
 PHE793  MET794  SER795  GLU796  ALA797  LYS798  CYS799  TRP800  GLU811  SER814 

> <Gold.Protein.RotatedAtoms>
  150.7379  134.0003  159.3635 H   0  0  0  0  0  0  0  0  0  0  0  0  # atno 6907 bound_to 6896
  151.7957  135.0721  160.0403 H   0  0  0  0  0  0  0  0  0  0  0  0  # atno 6908 bound_to 6896
  152.3176  133.5783  159.5759 H   0  0  0  0  0  0  0  0  0  0  0  0  # atno 6909 bound_to 6896
  145.1737  139.3087  143.4454 H   0  0  0  0  0  0  0  0  0  0  0  0  # atno 7974 bound_to 7965
  156.2842  140.2171  156.5447 H   0  0  0  0  0  0  0  0  0  0  0  0  # atno 8008 bound_to 7997
  154.7341  140.0493  157.0775 H   0  0  0  0  0  0  0  0  0  0  0  0  # atno 8009 bound_to 7997
  155.0316  140.3135  155.4759 H   0  0  0  0  0  0  0  0  0  0  0  0  # atno 8010 bound_to 7997
  140.7186  143.3551  151.2075 H   0  0  0  0  0  0  0  0  0  0  0  0  # atno 10167 bound_to 10162
  156.0052  130.4601  150.3937 H   0  0  0  0  0  0  0  0  0  0  0  0  # atno 10718 bound_to 10713
  153.8424  135.6856  153.4801 H   0  0  0  0  0  0  0  0  0  0  0  0  # atno 10763 bound_to 10752
  153.1446  135.4643  154.9545 H   0  0  0  0  0  0  0  0  0  0  0  0  # atno 10764 bound_to 10752
  154.7839  135.3278  154.7876 H   0  0  0  0  0  0  0  0  0  0  0  0  # atno 10765 bound_to 10752
  140.1404  134.4591  155.8454 H   0  0  0  0  0  0  0  0  0  0  0  0  # atno 11005 bound_to 11000
  146.3464  140.1892  142.8589 LP  0  0  0  0  0  0  0  0  0  0  0  0  # atno 17320 bound_to 7965
  145.0206  140.8790  143.5169 LP  0  0  0  0  0  0  0  0  0  0  0  0  # atno 17321 bound_to 7965
  139.7091  143.9406  152.2940 LP  0  0  0  0  0  0  0  0  0  0  0  0  # atno 17342 bound_to 10162
  139.9125  144.6848  150.8547 LP  0  0  0  0  0  0  0  0  0  0  0  0  # atno 17343 bound_to 10162
  157.2010  131.0438  151.2650 LP  0  0  0  0  0  0  0  0  0  0  0  0  # atno 17370 bound_to 10713
  157.3975  130.7315  149.6742 LP  0  0  0  0  0  0  0  0  0  0  0  0  # atno 17371 bound_to 10713
  141.2185  133.6831  156.7235 LP  0  0  0  0  0  0  0  0  0  0  0  0  # atno 17394 bound_to 11000
  140.2730  134.8377  157.3864 LP  0  0  0  0  0  0  0  0  0  0  0  0  # atno 17395 bound_to 11000

$$$$
