AV-unprocessed.smi:227|AV-procd|sdf|1731|dock6
  -GOLD-   2262020223D 1   1.00000     0.00000
 Structure written by MMmdl.
 54 58  0  0  0  0  0  0  0  0  1 V2000
  151.1761  139.9409  154.6345 O   0  0  0  0  0  0  0  0  0  0  0  0
  151.8850  139.1456  155.5636 C   0  0  0  0  0  0  0  0  0  0  0  0
  151.4892  139.4717  157.0280 C   0  0  2  0  0  0  0  0  0  0  0  0
  149.9539  139.4234  157.2529 C   0  0  0  0  0  0  0  0  0  0  0  0
  149.5244  138.3497  158.1300 N   0  0  0  0  0  0  0  0  0  0  0  0
  150.3361  137.4844  158.8248 C   0  0  0  0  0  0  0  0  0  0  0  0
  149.7093  136.5835  159.5300 N   0  0  0  0  0  0  0  0  0  0  0  0
  148.3622  136.8421  159.3020 C   0  0  0  0  0  0  0  0  0  0  0  0
  147.1429  136.2348  159.7225 C   0  0  0  0  0  0  0  0  0  0  0  0
  147.0790  135.1277  160.5113 N   0  0  0  0  0  0  0  0  0  0  0  0
  147.9544  134.9750  161.6636 C   0  0  2  0  0  0  0  0  0  0  0  0
  147.6874  133.5196  162.0841 C   0  0  0  0  0  0  0  0  0  0  0  0
  146.1923  133.3807  161.7524 C   0  0  0  0  0  0  0  0  0  0  0  0
  145.8626  134.7945  161.2396 C   0  0  1  0  0  0  0  0  0  0  0  0
  145.8370  135.7608  162.4515 C   0  0  2  0  0  0  0  0  0  0  0  0
  145.0927  137.0854  162.1911 C   0  0  0  0  0  0  0  0  0  0  0  0
  143.7156  136.8408  161.9998 O   0  0  0  0  0  0  0  0  0  0  0  0
  147.3475  135.9262  162.7163 C   0  0  0  0  0  0  0  0  0  0  0  0
  145.9849  136.8122  159.3046 N   0  0  0  0  0  0  0  0  0  0  0  0
  146.0088  137.8806  158.5036 C   0  0  0  0  0  0  0  0  0  0  0  0
  147.0647  138.5272  158.0085 N   0  0  0  0  0  0  0  0  0  0  0  0
  148.2311  137.9696  158.4415 C   0  0  0  0  0  0  0  0  0  0  0  0
  152.0505  140.8495  157.4689 C   0  0  2  0  0  0  0  0  0  0  0  0
  152.0097  141.1156  158.9655 C   0  0  0  0  0  0  0  0  0  0  0  0
  152.1503  142.6323  159.0350 C   0  0  0  0  0  0  0  0  0  0  0  0
  151.5428  143.1322  157.8499 O   0  0  0  0  0  0  0  0  0  0  0  0
  151.2551  142.0585  156.9611 C   0  0  0  0  0  0  0  0  0  0  0  0
  150.2569  139.7295  154.6967 H   0  0  0  0  0  0  0  0  0  0  0  0
  151.6579  138.1120  155.3092 H   0  0  0  0  0  0  0  0  0  0  0  0
  152.9577  139.2736  155.4145 H   0  0  0  0  0  0  0  0  0  0  0  0
  151.9466  138.7186  157.6720 H   0  0  0  0  0  0  0  0  0  0  0  0
  149.5986  140.3571  157.6886 H   0  0  0  0  0  0  0  0  0  0  0  0
  149.4394  139.3167  156.2974 H   0  0  0  0  0  0  0  0  0  0  0  0
  151.4143  137.5362  158.7818 H   0  0  0  0  0  0  0  0  0  0  0  0
  149.0104  135.1641  161.4674 H   0  0  0  0  0  0  0  0  0  0  0  0
  148.2792  132.8246  161.4872 H   0  0  0  0  0  0  0  0  0  0  0  0
  147.9082  133.3389  163.1368 H   0  0  0  0  0  0  0  0  0  0  0  0
  146.0435  132.6397  160.9658 H   0  0  0  0  0  0  0  0  0  0  0  0
  145.5903  133.0841  162.6119 H   0  0  0  0  0  0  0  0  0  0  0  0
  144.9420  134.8034  160.6591 H   0  0  0  0  0  0  0  0  0  0  0  0
  145.3553  135.2672  163.2975 H   0  0  0  0  0  0  0  0  0  0  0  0
  145.2094  137.7871  163.0162 H   0  0  0  0  0  0  0  0  0  0  0  0
  145.4854  137.5716  161.2977 H   0  0  0  0  0  0  0  0  0  0  0  0
  143.5157  136.9482  161.0824 H   0  0  0  0  0  0  0  0  0  0  0  0
  147.6283  135.6599  163.7359 H   0  0  0  0  0  0  0  0  0  0  0  0
  147.6718  136.9531  162.5416 H   0  0  0  0  0  0  0  0  0  0  0  0
  145.0439  138.2689  158.2134 H   0  0  0  0  0  0  0  0  0  0  0  0
  153.0828  140.9462  157.1279 H   0  0  0  0  0  0  0  0  0  0  0  0
  151.0481  140.8107  159.3811 H   0  0  0  0  0  0  0  0  0  0  0  0
  152.7984  140.6091  159.5218 H   0  0  0  0  0  0  0  0  0  0  0  0
  151.6883  143.0520  159.9286 H   0  0  0  0  0  0  0  0  0  0  0  0
  153.2030  142.9173  159.0310 H   0  0  0  0  0  0  0  0  0  0  0  0
  151.5093  142.3268  155.9354 H   0  0  0  0  0  0  0  0  0  0  0  0
  150.1829  141.8610  157.0020 H   0  0  0  0  0  0  0  0  0  0  0  0
  1  2  1  0  0  0  0
  1 28  1  0  0  0  0
  2  3  1  0  0  0  0
  2 29  1  0  0  0  0
  2 30  1  0  0  0  0
  3  4  1  0  0  0  0
  3 23  1  0  0  0  0
  3 31  1  0  0  0  0
  4  5  1  0  0  0  0
  4 32  1  0  0  0  0
  4 33  1  0  0  0  0
  5 22  1  0  0  0  0
  5  6  1  0  0  0  0
  6  7  2  0  0  0  0
  6 34  1  0  0  0  0
  7  8  1  0  0  0  0
  8 22  2  0  0  0  0
  8  9  1  0  0  0  0
  9 10  1  0  0  0  0
  9 19  2  0  0  0  0
 10 14  1  0  0  0  0
 10 11  1  0  0  0  0
 11 18  1  0  0  0  0
 11 12  1  0  0  0  0
 11 35  1  0  0  0  0
 12 13  1  0  0  0  0
 12 36  1  0  0  0  0
 12 37  1  0  0  0  0
 13 14  1  0  0  0  0
 13 38  1  0  0  0  0
 13 39  1  0  0  0  0
 14 15  1  0  0  0  0
 14 40  1  0  0  0  0
 15 16  1  0  0  0  0
 15 18  1  0  0  0  0
 15 41  1  0  0  0  0
 16 17  1  0  0  0  0
 16 42  1  0  0  0  0
 16 43  1  0  0  0  0
 17 44  1  0  0  0  0
 18 45  1  0  0  0  0
 18 46  1  0  0  0  0
 19 20  1  0  0  0  0
 20 21  2  0  0  0  0
 20 47  1  0  0  0  0
 21 22  1  0  0  0  0
 23 27  1  0  0  0  0
 23 24  1  0  0  0  0
 23 48  1  0  0  0  0
 24 25  1  0  0  0  0
 24 49  1  0  0  0  0
 24 50  1  0  0  0  0
 25 26  1  0  0  0  0
 25 51  1  0  0  0  0
 25 52  1  0  0  0  0
 26 27  1  0  0  0  0
 27 53  1  0  0  0  0
 27 54  1  0  0  0  0
M  END
> <s_m_source_file>
AV-unprocessed.smi

> <i_m_source_file_index>
227

> <i_lp_mmshare_version>
43012

> <i_f3d_flags>
0

> <s_epik_input>
W0NIMl0xT1tDSDJdW0NIMl1bQ0BIXTFbQ0BIXShbQ0gyXVtPSF0pW0NIMl1uKFtjSF1uMiljKGMyMyluW2NIXW5jM04oW0NASF00NSlbQ0BASF0oW0NIMl1bQ0gyXTQpW0NASF0oW0NIMl01KVtDSDJdW09IXQ==

> <s_epik_cmdline>
J2VwaWtfcHl0aG9uJywgJy1waCcsICc3LjAnLCAnLXRuJywgJzgnLCAnLW1hJywgJzIwMCcsICctbWV0YWxfYmluZGluZycsICctaW1hZScsICc8aW5maWxlLm1hZT4nLCAnLW9tYWUnLCAnPG91dGZpbGUubWFlPic=

> <r_lp_tautomer_probability>
1

> <r_epik_Ionization_Penalty>
0.0055791

> <r_epik_Ionization_Penalty_Charging>
0

> <r_epik_Ionization_Penalty_Neutral>
0.0055791

> <r_epik_State_Penalty>
0.00401299

> <r_epik_Charging_Adjusted_Penalty>
0.00401299

> <i_epik_Tot_Q>
0

> <i_epik_Tot_abs_Q>
0

> <r_epik_Metal_State_Penalty>
-0

> <b_epik_Metal_Only>
0

> <s_lp_Force_Field>
OPLS_2005

> <r_lp_Energy>
88.0051

> <b_lp_Chiralities_Consistent>
1

> <s_lp_Variant>
AV-unprocessed.smi:227-5

> <Gold.Version>
5.8.1

> <Gold.Id.Protein>
6NUR|6NUR_protein|mol2

> <Gold.PLP.Fitness>
43.8769

> <Gold.PLP.PLP>
-40.6812

> <Gold.PLP.part.hbond>
-2.6438

> <Gold.PLP.part.metal>
0.0000

> <Gold.PLP.part.buried>
-7.5565

> <Gold.PLP.part.nonpolar>
-30.6378

> <Gold.PLP.part.repulsive>
0.0561

> <Gold.PLP.ligand.clash>
0.0000

> <Gold.PLP.ligand.torsion>
1.5224

> <Gold.PLP.Chemscore.Hbond>
2.0000

> <Gold.PLP.Chemscore.CHOScore>
0.0000

> <Gold.PLP.Chemscore.Metal>
0.0000

> <Gold.Chemscore.Hbonds>
donor molecule, donor type, donor heavy atom, donor atom, acceptor molecule, acceptor atom, score
      P1  H  6896  6909       L1     7  0.86
      P1  H  7989  7998       L1     1  1.00

> <Gold.PLP.Chemscore.Internal.Correction>
0.2405

> <Gold.Rescore>
     Score         DG    S(hbond)    S(metal)    S(lipo)     H(rot)  DE(clash)    DE(int)     intcor
     11.79     -14.00       1.85        0.00      99.01       3.61       0.01       2.20       ----

> <Gold.Chemscore.Fitness>
11.7926

> <Gold.Chemscore.DG>
-13.9986

> <Gold.Chemscore.ZeroCoef>
-5.4800

> <Gold.Chemscore.Hbond>
1.8471

> <Gold.Chemscore.Metal>
0.0000

> <Gold.Chemscore.Lipo>
99.0052

> <Gold.Chemscore.Internal_Hbond>
0.0000

> <Gold.Chemscore.DEClash>
0.0067

> <Gold.Chemscore.DEInternal>
2.1993

> <Gold.Chemscore.Rot>
3.6071

> <Gold.Chemscore.Internal.Correction>
   9.000000E+99

> <Gold.Chemscore.Hbonds>
donor molecule, donor type, donor heavy atom, donor atom, acceptor molecule, acceptor atom, score
      P1  H  6896  6909       L1     7  0.69
      P1  H  7989  7998       L1     1  0.91

> <Gold.Chemscore.Hbond.Weighted>
-6.1692

> <Gold.Chemscore.Metal.Weighted>
-0.0000

> <Gold.Chemscore.Lipo.Weighted>
-11.5836

> <Gold.Chemscore.Internal_Hbond.Weighted>
0.0000

> <Gold.Chemscore.DEClash.Weighted>
0.0067

> <Gold.Chemscore.DEInternal.Weighted>
2.1993

> <Gold.Chemscore.Rot.Weighted>
9.2342

> <Gold.Chemscore.Internal.Correction.Weighted>
   9.000000E+99

> <Gold.Protein.RotatedTorsions>
[ 6907 6896 6895 6894 ] final   64.48 input  -60.11 | X-H torsion
[ 7974 7965 7964 7962 ] final  -80.70 input  175.53 | X-H torsion
[ 8008 7997 7996 7995 ] final  127.32 input   59.86 | X-H torsion
[ 10167 10162 10161 10158 ] final -174.79 input  -65.29 | X-H torsion
[ 10718 10713 10712 10709 ] final  168.96 input   66.30 | X-H torsion
[ 10763 10752 10751 10750 ] final  -42.39 input  -60.55 | X-H torsion
[ 11005 11000 10999 10996 ] final -175.27 input  -57.11 | X-H torsion

> <Gold.Protein.ActiveResidues>
 VAL166  LYS551  ARG553  GLY616  TRP617  ASP618  TYR619  PRO620  LYS621  CYS622 
 ASP623  PHE694  ASN695  SER759  ASP760  ASP761  ALA762  ILE779  LEU786  VAL792 
 PHE793  MET794  SER795  GLU796  ALA797  LYS798  CYS799  TRP800  GLU811  SER814 

> <Gold.Protein.RotatedAtoms>
  152.4334  134.5733  159.9927 H   0  0  0  0  0  0  0  0  0  0  0  0  # atno 6907 bound_to 6896
  151.5850  133.3367  159.3024 H   0  0  0  0  0  0  0  0  0  0  0  0  # atno 6908 bound_to 6896
  150.8230  134.7482  159.6853 H   0  0  0  0  0  0  0  0  0  0  0  0  # atno 6909 bound_to 6896
  145.5564  140.9489  143.1471 H   0  0  0  0  0  0  0  0  0  0  0  0  # atno 7974 bound_to 7965
  156.2887  140.2672  156.2254 H   0  0  0  0  0  0  0  0  0  0  0  0  # atno 8008 bound_to 7997
  155.0126  140.0387  157.2423 H   0  0  0  0  0  0  0  0  0  0  0  0  # atno 8009 bound_to 7997
  154.7505  140.2742  155.6302 H   0  0  0  0  0  0  0  0  0  0  0  0  # atno 8010 bound_to 7997
  139.5615  144.1858  152.1246 H   0  0  0  0  0  0  0  0  0  0  0  0  # atno 10167 bound_to 10162
  157.0295  131.0255  151.2749 H   0  0  0  0  0  0  0  0  0  0  0  0  # atno 10718 bound_to 10713
  153.9783  135.6720  153.4749 H   0  0  0  0  0  0  0  0  0  0  0  0  # atno 10763 bound_to 10752
  153.0760  135.4948  154.8402 H   0  0  0  0  0  0  0  0  0  0  0  0  # atno 10764 bound_to 10752
  154.7179  135.3111  154.9055 H   0  0  0  0  0  0  0  0  0  0  0  0  # atno 10765 bound_to 10752
  140.4651  134.6218  157.4859 H   0  0  0  0  0  0  0  0  0  0  0  0  # atno 11005 bound_to 11000
  144.7504  139.7209  143.7275 LP  0  0  0  0  0  0  0  0  0  0  0  0  # atno 17320 bound_to 7965
  146.1881  139.5107  142.9823 LP  0  0  0  0  0  0  0  0  0  0  0  0  # atno 17321 bound_to 7965
  140.1372  144.5234  150.6766 LP  0  0  0  0  0  0  0  0  0  0  0  0  # atno 17342 bound_to 10162
  140.6895  143.2368  151.5169 LP  0  0  0  0  0  0  0  0  0  0  0  0  # atno 17343 bound_to 10162
  157.5188  130.7985  149.7786 LP  0  0  0  0  0  0  0  0  0  0  0  0  # atno 17370 bound_to 10713
  156.0074  130.3849  150.2382 LP  0  0  0  0  0  0  0  0  0  0  0  0  # atno 17371 bound_to 10713
  139.9920  134.6970  155.9673 LP  0  0  0  0  0  0  0  0  0  0  0  0  # atno 17394 bound_to 11000
  141.1603  133.6539  156.4296 LP  0  0  0  0  0  0  0  0  0  0  0  0  # atno 17395 bound_to 11000

$$$$
