AV-unprocessed.smi:157|AV-procd|sdf|1304|dock7
  -GOLD-   2262018593D 1   1.00000     0.00000
 Structure written by MMmdl.
 35 37  0  0  0  0  0  0  0  0  1 V2000
  148.7589  137.9406  154.2494 O   0  0  0  0  0  0  0  0  0  0  0  0
  149.3706  137.2080  155.2897 C   0  0  0  0  0  0  0  0  0  0  0  0
  150.6320  137.9302  155.7894 C   0  0  2  0  0  0  0  0  0  0  0  0
  150.2509  139.1136  156.4941 O   0  0  0  0  0  0  0  0  0  0  0  0
  150.9222  140.2167  155.9686 C   0  0  1  0  0  0  0  0  0  0  0  0
  151.3207  141.1216  157.0916 N   0  0  0  0  0  0  0  0  0  0  0  0
  150.7643  142.3027  157.3904 C   0  0  0  0  0  0  0  0  0  0  0  0
  151.2927  142.9089  158.4397 N   0  0  0  0  0  0  0  0  0  0  0  0
  152.2850  142.0305  158.8708 C   0  0  0  0  0  0  0  0  0  0  0  0
  152.3147  140.9107  158.0516 C   0  0  0  0  0  0  0  0  0  0  0  0
  153.0544  139.7454  157.9840 N   0  0  0  0  0  0  0  0  0  0  0  0
  153.7249  139.3859  159.0329 C   0  0  0  0  0  0  0  0  0  0  0  0
  153.9109  140.0356  160.2448 N   0  0  0  0  0  0  0  0  0  0  0  0
  154.2877  141.4345  160.3533 C   0  0  0  0  0  0  0  0  0  0  0  0
  153.1377  142.4022  160.0495 C   0  0  2  0  0  0  0  0  0  0  0  0
  152.2817  142.4775  161.1713 O   0  0  0  0  0  0  0  0  0  0  0  0
  152.1528  139.6724  155.2583 C   0  0  0  0  0  0  0  0  0  0  0  0
  151.5822  138.3989  154.6746 C   0  0  1  0  0  0  0  0  0  0  0  0
  152.6096  137.4668  154.4079 O   0  0  0  0  0  0  0  0  0  0  0  0
  151.1668  137.3050  156.5067 H   0  0  0  0  0  0  0  0  0  0  0  0
  150.2545  140.7881  155.3228 H   0  0  0  0  0  0  0  0  0  0  0  0
  153.5555  143.3988  159.9045 H   0  0  0  0  0  0  0  0  0  0  0  0
  151.0322  138.6252  153.7600 H   0  0  0  0  0  0  0  0  0  0  0  0
  148.8024  137.4293  153.4560 H   0  0  0  0  0  0  0  0  0  0  0  0
  148.6585  137.0543  156.1011 H   0  0  0  0  0  0  0  0  0  0  0  0
  149.6337  136.2236  154.9016 H   0  0  0  0  0  0  0  0  0  0  0  0
  149.9502  142.7294  156.8228 H   0  0  0  0  0  0  0  0  0  0  0  0
  154.2511  138.4305  159.0076 H   0  0  0  0  0  0  0  0  0  0  0  0
  154.2590  139.5018  161.0282 H   0  0  0  0  0  0  0  0  0  0  0  0
  154.7084  141.6297  161.3402 H   0  0  0  0  0  0  0  0  0  0  0  0
  155.0932  141.6094  159.6383 H   0  0  0  0  0  0  0  0  0  0  0  0
  151.5164  142.9748  160.9256 H   0  0  0  0  0  0  0  0  0  0  0  0
  152.5305  140.3763  154.5161 H   0  0  0  0  0  0  0  0  0  0  0  0
  152.9339  139.4579  155.9903 H   0  0  0  0  0  0  0  0  0  0  0  0
  153.4398  137.9167  154.4428 H   0  0  0  0  0  0  0  0  0  0  0  0
  1  2  1  0  0  0  0
  1 24  1  0  0  0  0
  2  3  1  0  0  0  0
  2 25  1  0  0  0  0
  2 26  1  0  0  0  0
  3 20  1  0  0  0  0
  3 18  1  0  0  0  0
  3  4  1  0  0  0  0
  4  5  1  0  0  0  0
  5 21  1  0  0  0  0
  5  6  1  0  0  0  0
  5 17  1  0  0  0  0
  6 10  1  0  0  0  0
  6  7  1  0  0  0  0
  7  8  2  0  0  0  0
  7 27  1  0  0  0  0
  8  9  1  0  0  0  0
  9 15  1  0  0  0  0
  9 10  2  0  0  0  0
 10 11  1  0  0  0  0
 11 12  2  0  0  0  0
 12 13  1  0  0  0  0
 12 28  1  0  0  0  0
 13 14  1  0  0  0  0
 13 29  1  0  0  0  0
 14 15  1  0  0  0  0
 14 30  1  0  0  0  0
 14 31  1  0  0  0  0
 15 22  1  0  0  0  0
 15 16  1  0  0  0  0
 16 32  1  0  0  0  0
 17 18  1  0  0  0  0
 17 33  1  0  0  0  0
 17 34  1  0  0  0  0
 18 23  1  0  0  0  0
 18 19  1  0  0  0  0
 19 35  1  0  0  0  0
M  END
> <s_m_source_file>
AV-unprocessed.smi

> <i_m_source_file_index>
157

> <i_lp_mmshare_version>
43012

> <i_f3d_flags>
0

> <s_epik_input>
W09IXVtDSDJdW0NASF0xT1tDQEhdKFtDSDJdW0NAQEhdMVtPSF0pbihbY0hdbjIpYyhjMjMpTj1bQ0hdW05IXVtDSDJdW0NASF0zW09IXQ==

> <s_epik_cmdline>
J2VwaWtfcHl0aG9uJywgJy1waCcsICc3LjAnLCAnLXRuJywgJzgnLCAnLW1hJywgJzIwMCcsICctbWV0YWxfYmluZGluZycsICctaW1hZScsICc8aW5maWxlLm1hZT4nLCAnLW9tYWUnLCAnPG91dGZpbGUubWFlPic=

> <r_lp_tautomer_probability>
1

> <r_epik_Ionization_Penalty>
0.0357149

> <r_epik_Ionization_Penalty_Charging>
0.0355056

> <r_epik_Ionization_Penalty_Neutral>
0.000209255

> <r_epik_State_Penalty>
0.0296046

> <r_epik_Charging_Adjusted_Penalty>
0.0651102

> <i_epik_Tot_Q>
0

> <i_epik_Tot_abs_Q>
0

> <r_epik_Metal_State_Penalty>
3.03559e-05

> <b_epik_Metal_Only>
0

> <s_epik_Chemistry_Notes>
This compound has an imine and may undergo hydrolysis. This compound contains an acetal/aminal-like group ( X-CH(R)-Y where X, Y are N, S, or O) that may be acid/base labile, releasing an aldehyde.

> <s_lp_Force_Field>
OPLS_2005

> <r_lp_Energy>
43.9106

> <b_lp_Chiralities_Consistent>
1

> <s_lp_Variant>
AV-unprocessed.smi:157-14

> <Gold.Version>
5.8.1

> <Gold.Id.Protein>
6NUR|6NUR_protein|mol2

> <Gold.PLP.Fitness>
43.0611

> <Gold.PLP.PLP>
-33.0709

> <Gold.PLP.part.hbond>
-3.3912

> <Gold.PLP.part.metal>
0.0000

> <Gold.PLP.part.buried>
-5.0877

> <Gold.PLP.part.nonpolar>
-25.1842

> <Gold.PLP.part.repulsive>
0.1215

> <Gold.PLP.ligand.clash>
0.0000

> <Gold.PLP.ligand.torsion>
0.4003

> <Gold.PLP.Chemscore.Hbond>
2.5920

> <Gold.PLP.Chemscore.CHOScore>
1.0000

> <Gold.PLP.Chemscore.Metal>
0.0000

> <Gold.Chemscore.Hbonds>
donor molecule, donor type, donor heavy atom, donor atom, acceptor molecule, acceptor atom, score
      L1  H     1    24       P1  7948  1.00
      P1  H  7997  8009       L1    11  0.95
      P1  H 10752 10764       L1    19  0.56
      L1  C     7    27       P1  8028  0.98

> <Gold.PLP.Chemscore.Internal.Correction>
0.0148

> <Gold.Rescore>
     Score         DG    S(hbond)    S(metal)    S(lipo)     H(rot)  DE(clash)    DE(int)     intcor
      6.42      -8.13       1.66        0.00      54.81       3.64       0.01       1.70       ----

> <Gold.Chemscore.Fitness>
6.4181

> <Gold.Chemscore.DG>
-8.1322

> <Gold.Chemscore.ZeroCoef>
-5.4800

> <Gold.Chemscore.Hbond>
1.6611

> <Gold.Chemscore.Metal>
0.0000

> <Gold.Chemscore.Lipo>
54.8120

> <Gold.Chemscore.Internal_Hbond>
0.0000

> <Gold.Chemscore.DEClash>
0.0106

> <Gold.Chemscore.DEInternal>
1.7035

> <Gold.Chemscore.Rot>
3.6362

> <Gold.Chemscore.Internal.Correction>
   9.000000E+99

> <Gold.Chemscore.Hbonds>
donor molecule, donor type, donor heavy atom, donor atom, acceptor molecule, acceptor atom, score
      L1  H     1    24       P1  7948  0.97
      P1  H  7997  8009       L1    11  0.13
      P1  H 10752 10764       L1    19  0.34

> <Gold.Chemscore.Hbond.Weighted>
-5.5480

> <Gold.Chemscore.Metal.Weighted>
-0.0000

> <Gold.Chemscore.Lipo.Weighted>
-6.4130

> <Gold.Chemscore.Internal_Hbond.Weighted>
0.0000

> <Gold.Chemscore.DEClash.Weighted>
0.0106

> <Gold.Chemscore.DEInternal.Weighted>
1.7035

> <Gold.Chemscore.Rot.Weighted>
9.3087

> <Gold.Chemscore.Internal.Correction.Weighted>
   9.000000E+99

> <Gold.Protein.RotatedTorsions>
[ 6907 6896 6895 6894 ] final  -44.63 input  -60.11 | X-H torsion
[ 7974 7965 7964 7962 ] final   70.42 input  175.53 | X-H torsion
[ 8008 7997 7996 7995 ] final  168.07 input   59.86 | X-H torsion
[ 10167 10162 10161 10158 ] final   -0.97 input  -65.29 | X-H torsion
[ 10718 10713 10712 10709 ] final  -23.95 input   66.30 | X-H torsion
[ 10763 10752 10751 10750 ] final  -76.54 input  -60.55 | X-H torsion
[ 11005 11000 10999 10996 ] final -171.01 input  -57.11 | X-H torsion

> <Gold.Protein.ActiveResidues>
 VAL166  LYS551  ARG553  GLY616  TRP617  ASP618  TYR619  PRO620  LYS621  CYS622 
 ASP623  PHE694  ASN695  SER759  ASP760  ASP761  ALA762  ILE779  LEU786  VAL792 
 PHE793  MET794  SER795  GLU796  ALA797  LYS798  CYS799  TRP800  GLU811  SER814 

> <Gold.Protein.RotatedAtoms>
  150.9307  134.8722  159.7549 H   0  0  0  0  0  0  0  0  0  0  0  0  # atno 6907 bound_to 6896
  152.5036  134.4083  159.9450 H   0  0  0  0  0  0  0  0  0  0  0  0  # atno 6908 bound_to 6896
  151.4110  133.3687  159.2779 H   0  0  0  0  0  0  0  0  0  0  0  0  # atno 6909 bound_to 6896
  145.7783  139.2875  143.1280 H   0  0  0  0  0  0  0  0  0  0  0  0  # atno 7974 bound_to 7965
  156.1579  140.1600  156.8662 H   0  0  0  0  0  0  0  0  0  0  0  0  # atno 8008 bound_to 7997
  154.5132  140.0796  156.8067 H   0  0  0  0  0  0  0  0  0  0  0  0  # atno 8009 bound_to 7997
  155.3766  140.3403  155.4247 H   0  0  0  0  0  0  0  0  0  0  0  0  # atno 8010 bound_to 7997
  140.6790  143.6831  150.8089 H   0  0  0  0  0  0  0  0  0  0  0  0  # atno 10167 bound_to 10162
  156.4841  130.4552  149.6794 H   0  0  0  0  0  0  0  0  0  0  0  0  # atno 10718 bound_to 10713
  154.5012  135.5794  153.6532 H   0  0  0  0  0  0  0  0  0  0  0  0  # atno 10763 bound_to 10752
  152.9879  135.6136  154.3000 H   0  0  0  0  0  0  0  0  0  0  0  0  # atno 10764 bound_to 10752
  154.2908  135.2849  155.2635 H   0  0  0  0  0  0  0  0  0  0  0  0  # atno 10765 bound_to 10752
  140.5130  134.5783  157.5025 H   0  0  0  0  0  0  0  0  0  0  0  0  # atno 11005 bound_to 11000
  146.0100  140.8444  142.9976 LP  0  0  0  0  0  0  0  0  0  0  0  0  # atno 17320 bound_to 7965
  144.6800  140.2476  143.7336 LP  0  0  0  0  0  0  0  0  0  0  0  0  # atno 17321 bound_to 7965
  140.0528  143.5232  152.2665 LP  0  0  0  0  0  0  0  0  0  0  0  0  # atno 17342 bound_to 10162
  139.6100  144.7606  151.2973 LP  0  0  0  0  0  0  0  0  0  0  0  0  # atno 17343 bound_to 10162
  156.3492  130.7423  151.2380 LP  0  0  0  0  0  0  0  0  0  0  0  0  # atno 17370 bound_to 10713
  157.7480  131.0382  150.4491 LP  0  0  0  0  0  0  0  0  0  0  0  0  # atno 17371 bound_to 10713
  139.9648  134.7391  156.0161 LP  0  0  0  0  0  0  0  0  0  0  0  0  # atno 17394 bound_to 11000
  141.1375  133.6572  156.3635 LP  0  0  0  0  0  0  0  0  0  0  0  0  # atno 17395 bound_to 11000

$$$$
