AV-unprocessed.smi:90|AV-procd|sdf|830|dock6
  -GOLD-   2262017253D 1   1.00000     0.00000
 Structure written by MMmdl.
 64 67  0  0  0  0  0  0  0  0  2 V2000
  147.4916  136.9321  154.9664 C   0  0  0  0  0  0  0  0  0  0  0  0
  147.3656  137.9040  153.8837 N   0  0  0  0  0  0  0  0  0  0  0  0
  146.2756  137.7040  152.9306 C   0  0  0  0  0  0  0  0  0  0  0  0
  145.9177  136.2166  152.7437 C   0  0  0  0  0  0  0  0  0  0  0  0
  144.8974  135.9589  151.6037 C   0  0  1  0  0  0  0  0  0  0  0  0
  145.3151  134.8179  150.6474 C   0  0  0  0  0  0  0  0  0  0  0  0
  145.2035  133.4379  151.3144 C   0  0  0  0  0  0  0  0  0  0  0  0
  143.7865  133.2320  151.8667 C   0  0  0  0  0  0  0  0  0  0  0  0
  143.3700  134.3889  152.7906 C   0  0  0  0  0  0  0  0  0  0  0  0
  143.5130  135.6959  152.0991 N   0  3  1  0  0  0  0  0  0  0  0  0
  142.8994  136.8170  152.8474 C   0  0  0  0  0  0  0  0  0  0  0  0
  147.7405  139.1880  154.1344 C   0  0  0  0  0  0  0  0  0  0  0  0
  146.9522  140.2069  153.6969 N   0  0  0  0  0  0  0  0  0  0  0  0
  147.3067  141.4777  153.9045 C   0  0  0  0  0  0  0  0  0  0  0  0
  148.3890  141.9495  154.5231 N   0  0  0  0  0  0  0  0  0  0  0  0
  149.1788  140.9380  154.9821 C   0  0  0  0  0  0  0  0  0  0  0  0
  148.9353  139.5425  154.8279 C   0  0  0  0  0  0  0  0  0  0  0  0
  149.9621  138.8216  155.4270 N   0  0  0  0  0  0  0  0  0  0  0  0
  150.7671  139.7342  155.8962 C   0  0  0  0  0  0  0  0  0  0  0  0
  150.3656  141.0344  155.6894 N   0  0  0  0  0  0  0  0  0  0  0  0
  151.0698  142.2397  156.1070 C   0  0  0  0  0  0  0  0  0  0  0  0
  151.0579  142.5114  157.6417 C   0  0  0  0  0  0  0  0  0  0  0  0
  149.6403  142.2641  158.2320 C   0  0  0  0  0  0  0  0  0  0  0  0
  148.7220  143.2719  157.8594 O   0  0  0  0  0  0  0  0  0  0  0  0
  152.0813  141.5882  158.3519 C   0  0  0  0  0  0  0  0  0  0  0  0
  152.3731  142.0100  159.8045 C   0  0  0  0  0  0  0  0  0  0  0  0
  152.8030  143.3640  159.8470 O   0  0  0  0  0  0  0  0  0  0  0  0
  151.8197  144.2687  159.3624 C   0  0  0  0  0  0  0  0  0  0  0  0
  151.5232  143.9701  157.8826 C   0  0  0  0  0  0  0  0  0  0  0  0
  148.4840  136.9791  155.4168 H   0  0  0  0  0  0  0  0  0  0  0  0
  147.3466  135.9193  154.5898 H   0  0  0  0  0  0  0  0  0  0  0  0
  146.7483  137.1139  155.7436 H   0  0  0  0  0  0  0  0  0  0  0  0
  145.3920  138.2672  153.2231 H   0  0  0  0  0  0  0  0  0  0  0  0
  146.5900  138.1316  151.9791 H   0  0  0  0  0  0  0  0  0  0  0  0
  146.8301  135.6438  152.5821 H   0  0  0  0  0  0  0  0  0  0  0  0
  145.5037  135.8574  153.6848 H   0  0  0  0  0  0  0  0  0  0  0  0
  144.8451  136.8712  151.0077 H   0  0  0  0  0  0  0  0  0  0  0  0
  144.6657  134.8366  149.7711 H   0  0  0  0  0  0  0  0  0  0  0  0
  146.3235  134.9704  150.2645 H   0  0  0  0  0  0  0  0  0  0  0  0
  145.4402  132.6545  150.5939 H   0  0  0  0  0  0  0  0  0  0  0  0
  145.9344  133.3468  152.1181 H   0  0  0  0  0  0  0  0  0  0  0  0
  143.0818  133.1602  151.0372 H   0  0  0  0  0  0  0  0  0  0  0  0
  143.7282  132.2846  152.4032 H   0  0  0  0  0  0  0  0  0  0  0  0
  142.3305  134.2498  153.0898 H   0  0  0  0  0  0  0  0  0  0  0  0
  143.9597  134.3795  153.7078 H   0  0  0  0  0  0  0  0  0  0  0  0
  143.3319  136.9251  153.8423 H   0  0  0  0  0  0  0  0  0  0  0  0
  141.8295  136.6458  152.9688 H   0  0  0  0  0  0  0  0  0  0  0  0
  143.0236  137.7577  152.3103 H   0  0  0  0  0  0  0  0  0  0  0  0
  146.6267  142.2230  153.5188 H   0  0  0  0  0  0  0  0  0  0  0  0
  151.6791  139.4814  156.4174 H   0  0  0  0  0  0  0  0  0  0  0  0
  152.0976  142.1553  155.7513 H   0  0  0  0  0  0  0  0  0  0  0  0
  150.6450  143.0869  155.5673 H   0  0  0  0  0  0  0  0  0  0  0  0
  149.2474  141.3002  157.9082 H   0  0  0  0  0  0  0  0  0  0  0  0
  149.6566  142.2279  159.3199 H   0  0  0  0  0  0  0  0  0  0  0  0
  148.8272  143.4487  156.9372 H   0  0  0  0  0  0  0  0  0  0  0  0
  151.7379  140.5534  158.3426 H   0  0  0  0  0  0  0  0  0  0  0  0
  153.0229  141.6018  157.8012 H   0  0  0  0  0  0  0  0  0  0  0  0
  151.5033  141.8714  160.4472 H   0  0  0  0  0  0  0  0  0  0  0  0
  153.1640  141.3838  160.2176 H   0  0  0  0  0  0  0  0  0  0  0  0
  150.9179  144.2139  159.9730 H   0  0  0  0  0  0  0  0  0  0  0  0
  152.2033  145.2839  159.4647 H   0  0  0  0  0  0  0  0  0  0  0  0
  152.4362  144.1570  157.3155 H   0  0  0  0  0  0  0  0  0  0  0  0
  150.7898  144.6806  157.5006 H   0  0  0  0  0  0  0  0  0  0  0  0
  142.9548  135.6111  151.2615 H   0  0  0  0  0  0  0  0  0  0  0  0
  1  2  1  0  0  0  0
  1 30  1  0  0  0  0
  1 31  1  0  0  0  0
  1 32  1  0  0  0  0
  2  3  1  0  0  0  0
  2 12  1  0  0  0  0
  3  4  1  0  0  0  0
  3 33  1  0  0  0  0
  3 34  1  0  0  0  0
  4  5  1  0  0  0  0
  4 35  1  0  0  0  0
  4 36  1  0  0  0  0
  5 10  1  0  0  0  0
  5  6  1  0  0  0  0
  5 37  1  0  0  0  0
  6  7  1  0  0  0  0
  6 38  1  0  0  0  0
  6 39  1  0  0  0  0
  7  8  1  0  0  0  0
  7 40  1  0  0  0  0
  7 41  1  0  0  0  0
  8  9  1  0  0  0  0
  8 42  1  0  0  0  0
  8 43  1  0  0  0  0
  9 10  1  0  0  0  0
  9 44  1  0  0  0  0
  9 45  1  0  0  0  0
 10 11  1  0  0  0  0
 10 64  1  0  0  0  0
 11 46  1  0  0  0  0
 11 47  1  0  0  0  0
 11 48  1  0  0  0  0
 12 17  1  0  0  0  0
 12 13  2  0  0  0  0
 13 14  1  0  0  0  0
 14 15  2  0  0  0  0
 14 49  1  0  0  0  0
 15 16  1  0  0  0  0
 16 20  1  0  0  0  0
 16 17  2  0  0  0  0
 17 18  1  0  0  0  0
 18 19  2  0  0  0  0
 19 20  1  0  0  0  0
 19 50  1  0  0  0  0
 20 21  1  0  0  0  0
 21 22  1  0  0  0  0
 21 51  1  0  0  0  0
 21 52  1  0  0  0  0
 22 29  1  0  0  0  0
 22 23  1  0  0  0  0
 22 25  1  0  0  0  0
 23 24  1  0  0  0  0
 23 53  1  0  0  0  0
 23 54  1  0  0  0  0
 24 55  1  0  0  0  0
 25 26  1  0  0  0  0
 25 56  1  0  0  0  0
 25 57  1  0  0  0  0
 26 27  1  0  0  0  0
 26 58  1  0  0  0  0
 26 59  1  0  0  0  0
 27 28  1  0  0  0  0
 28 29  1  0  0  0  0
 28 60  1  0  0  0  0
 28 61  1  0  0  0  0
 29 62  1  0  0  0  0
 29 63  1  0  0  0  0
M  CHG  1  10   1
M  END
> <s_m_source_file>
AV-unprocessed.smi

> <i_m_source_file_index>
90

> <i_lp_mmshare_version>
43012

> <i_f3d_flags>
0

> <s_epik_input>
W0NIM11OMVtDSDJdW0NIMl1bQ0gyXVtDSDJdW0NASF0xW0NIMl1bQ0gyXU4oW0NIM10pYyhuW2NIXW4yKWMoYzIzKW5bY0hdbjNbQ0gyXUM0KFtDSDJdW09IXSlbQ0gyXVtDSDJdT1tDSDJdW0NIMl00

> <s_epik_cmdline>
J2VwaWtfcHl0aG9uJywgJy1waCcsICc3LjAnLCAnLXRuJywgJzgnLCAnLW1hJywgJzIwMCcsICctbWV0YWxfYmluZGluZycsICctaW1hZScsICc8aW5maWxlLm1hZT4nLCAnLW9tYWUnLCAnPG91dGZpbGUubWFlPic=

> <r_lp_tautomer_probability>
1

> <r_epik_Ionization_Penalty>
0.00234895

> <r_epik_Ionization_Penalty_Charging>
0.00106647

> <r_epik_Ionization_Penalty_Neutral>
0.00128248

> <r_epik_State_Penalty>
-0

> <r_epik_Charging_Adjusted_Penalty>
0.00106647

> <i_epik_Tot_Q>
1

> <i_epik_Tot_abs_Q>
1

> <r_epik_Metal_State_Penalty>
-0

> <b_epik_Metal_Only>
0

> <s_lp_Force_Field>
OPLS_2005

> <r_lp_Energy>
42.9862

> <b_lp_Chiralities_Consistent>
1

> <s_lp_Variant>
AV-unprocessed.smi:90-2

> <Gold.Version>
5.8.1

> <Gold.Id.Protein>
6NUR|6NUR_protein|mol2

> <Gold.PLP.Fitness>
48.1344

> <Gold.PLP.PLP>
-47.6622

> <Gold.PLP.part.hbond>
-2.1303

> <Gold.PLP.part.metal>
0.0000

> <Gold.PLP.part.buried>
-4.6594

> <Gold.PLP.part.nonpolar>
-41.8022

> <Gold.PLP.part.repulsive>
1.8254

> <Gold.PLP.ligand.clash>
0.0000

> <Gold.PLP.ligand.torsion>
1.6423

> <Gold.PLP.Chemscore.Hbond>
1.0000

> <Gold.PLP.Chemscore.CHOScore>
0.0000

> <Gold.PLP.Chemscore.Metal>
0.0000

> <Gold.Chemscore.Hbonds>
donor molecule, donor type, donor heavy atom, donor atom, acceptor molecule, acceptor atom, score
      L1  H    24    55       P1  8028  0.90

> <Gold.PLP.Chemscore.Internal.Correction>
0.7567

> <Gold.Rescore>
     Score         DG    S(hbond)    S(metal)    S(lipo)     H(rot)  DE(clash)    DE(int)     intcor
     10.41     -13.73       0.66        0.00     111.40       2.73       1.98       1.34       ----

> <Gold.Chemscore.Fitness>
10.4124

> <Gold.Chemscore.DG>
-13.7256

> <Gold.Chemscore.ZeroCoef>
-5.4800

> <Gold.Chemscore.Hbond>
0.6626

> <Gold.Chemscore.Metal>
0.0000

> <Gold.Chemscore.Lipo>
111.3967

> <Gold.Chemscore.Internal_Hbond>
0.0000

> <Gold.Chemscore.DEClash>
1.9758

> <Gold.Chemscore.DEInternal>
1.3374

> <Gold.Chemscore.Rot>
2.7347

> <Gold.Chemscore.Internal.Correction>
   9.000000E+99

> <Gold.Chemscore.Hbonds>
donor molecule, donor type, donor heavy atom, donor atom, acceptor molecule, acceptor atom, score
      L1  H    24    55       P1  8028  0.49

> <Gold.Chemscore.Hbond.Weighted>
-2.2131

> <Gold.Chemscore.Metal.Weighted>
-0.0000

> <Gold.Chemscore.Lipo.Weighted>
-13.0334

> <Gold.Chemscore.Internal_Hbond.Weighted>
0.0000

> <Gold.Chemscore.DEClash.Weighted>
1.9758

> <Gold.Chemscore.DEInternal.Weighted>
1.3374

> <Gold.Chemscore.Rot.Weighted>
7.0009

> <Gold.Chemscore.Internal.Correction.Weighted>
   9.000000E+99

> <Gold.Protein.RotatedTorsions>
[ 6907 6896 6895 6894 ] final   -6.16 input  -60.11 | X-H torsion
[ 7974 7965 7964 7962 ] final    1.65 input  175.53 | X-H torsion
[ 8008 7997 7996 7995 ] final  156.17 input   59.86 | X-H torsion
[ 10167 10162 10161 10158 ] final  104.18 input  -65.29 | X-H torsion
[ 10718 10713 10712 10709 ] final -163.09 input   66.30 | X-H torsion
[ 10763 10752 10751 10750 ] final   32.32 input  -60.55 | X-H torsion
[ 11005 11000 10999 10996 ] final   90.39 input  -57.11 | X-H torsion

> <Gold.Protein.ActiveResidues>
 VAL166  LYS551  ARG553  GLY616  TRP617  ASP618  TYR619  PRO620  LYS621  CYS622 
 ASP623  PHE694  ASN695  SER759  ASP760  ASP761  ALA762  ILE779  LEU786  VAL792 
 PHE793  MET794  SER795  GLU796  ALA797  LYS798  CYS799  TRP800  GLU811  SER814 

> <Gold.Protein.RotatedAtoms>
  151.4701  135.1045  159.9748 H   0  0  0  0  0  0  0  0  0  0  0  0  # atno 6907 bound_to 6896
  152.4820  133.8274  159.7095 H   0  0  0  0  0  0  0  0  0  0  0  0  # atno 6908 bound_to 6896
  150.8899  133.7197  159.2934 H   0  0  0  0  0  0  0  0  0  0  0  0  # atno 6909 bound_to 6896
  146.2441  140.0955  142.8350 H   0  0  0  0  0  0  0  0  0  0  0  0  # atno 7974 bound_to 7965
  156.2437  140.1919  156.6915 H   0  0  0  0  0  0  0  0  0  0  0  0  # atno 8008 bound_to 7997
  154.6248  140.0603  156.9686 H   0  0  0  0  0  0  0  0  0  0  0  0  # atno 8009 bound_to 7997
  155.1804  140.3276  155.4379 H   0  0  0  0  0  0  0  0  0  0  0  0  # atno 8010 bound_to 7997
  139.7199  144.7060  151.0890 H   0  0  0  0  0  0  0  0  0  0  0  0  # atno 10167 bound_to 10162
  156.6197  130.8885  151.2955 H   0  0  0  0  0  0  0  0  0  0  0  0  # atno 10718 bound_to 10713
  153.0269  135.6416  154.1336 H   0  0  0  0  0  0  0  0  0  0  0  0  # atno 10763 bound_to 10752
  154.1064  135.2856  155.3242 H   0  0  0  0  0  0  0  0  0  0  0  0  # atno 10764 bound_to 10752
  154.6362  135.5475  153.7800 H   0  0  0  0  0  0  0  0  0  0  0  0  # atno 10765 bound_to 10752
  139.8857  134.8610  156.3278 H   0  0  0  0  0  0  0  0  0  0  0  0  # atno 11005 bound_to 11000
  145.0613  140.9090  143.4937 LP  0  0  0  0  0  0  0  0  0  0  0  0  # atno 17320 bound_to 7965
  145.1071  139.2782  143.5656 LP  0  0  0  0  0  0  0  0  0  0  0  0  # atno 17321 bound_to 7965
  140.7751  143.5180  150.9571 LP  0  0  0  0  0  0  0  0  0  0  0  0  # atno 17342 bound_to 10162
  139.8867  143.7004  152.3150 LP  0  0  0  0  0  0  0  0  0  0  0  0  # atno 17343 bound_to 10162
  157.7231  130.9585  150.1520 LP  0  0  0  0  0  0  0  0  0  0  0  0  # atno 17370 bound_to 10713
  156.2321  130.3683  149.8433 LP  0  0  0  0  0  0  0  0  0  0  0  0  # atno 17371 bound_to 10713
  140.9744  133.7307  156.0580 LP  0  0  0  0  0  0  0  0  0  0  0  0  # atno 17394 bound_to 11000
  140.7830  134.3704  157.5483 LP  0  0  0  0  0  0  0  0  0  0  0  0  # atno 17395 bound_to 11000

$$$$
