AV-unprocessed.smi:268|AV-procd|sdf|2040|dock9
  -GOLD-   2262021253D 1   1.00000     0.00000
 Structure written by MMmdl.
 50 53  0  0  0  0  0  0  0  0  1 V2000
  153.5074  142.8088  159.3105 C   0  0  0  0  0  0  0  0  0  0  0  0
  152.4572  143.9194  159.2348 C   0  0  0  0  0  0  0  0  0  0  0  0
  151.1693  143.3300  159.1705 O   0  0  0  0  0  0  0  0  0  0  0  0
  150.9188  142.6957  157.9272 C   0  0  2  0  0  0  0  0  0  0  0  0
  149.4435  142.3525  157.6814 C   0  0  0  0  0  0  0  0  0  0  0  0
  149.8742  140.9411  157.2399 C   0  0  1  0  0  0  0  0  0  0  0  0
  150.0145  140.8186  155.7830 N   0  0  0  0  0  0  0  0  0  0  0  0
  148.8267  141.0731  154.9718 C   0  0  0  0  0  0  0  0  0  0  0  0
  150.7636  139.7964  155.2936 C   0  0  0  0  0  0  0  0  0  0  0  0
  151.8800  140.0559  154.5608 N   0  0  0  0  0  0  0  0  0  0  0  0
  152.6239  139.0525  154.0863 C   0  0  0  0  0  0  0  0  0  0  0  0
  152.4387  137.7384  154.2251 N   0  0  0  0  0  0  0  0  0  0  0  0
  151.3232  137.4716  154.9630 C   0  0  0  0  0  0  0  0  0  0  0  0
  150.4402  138.4313  155.5329 C   0  0  0  0  0  0  0  0  0  0  0  0
  149.4153  137.7858  156.2138 N   0  0  0  0  0  0  0  0  0  0  0  0
  149.6779  136.5171  156.0564 C   0  0  0  0  0  0  0  0  0  0  0  0
  150.7997  136.2374  155.3087 N   0  0  0  0  0  0  0  0  0  0  0  0
  151.3193  134.9205  154.9729 C   0  0  0  0  0  0  0  0  0  0  0  0
  150.4603  133.7586  155.5061 C   0  0  0  0  0  0  0  0  0  0  0  0
  150.4908  133.7900  157.0481 C   0  0  0  0  0  0  0  0  0  0  0  0
  151.8068  133.7648  157.5641 O   0  0  0  0  0  0  0  0  0  0  0  0
  149.0754  133.6283  154.8558 C   0  0  0  0  0  0  0  0  0  0  0  0
  149.3003  132.2428  154.5133 O   0  0  0  0  0  0  0  0  0  0  0  0
  150.6963  132.3877  154.8558 C   0  0  0  0  0  0  0  0  0  0  0  0
  151.2085  141.1924  157.9738 C   0  0  0  0  0  0  0  0  0  0  0  0
  154.5131  143.2265  159.3588 H   0  0  0  0  0  0  0  0  0  0  0  0
  153.4556  142.1610  158.4351 H   0  0  0  0  0  0  0  0  0  0  0  0
  153.3587  142.1900  160.1956 H   0  0  0  0  0  0  0  0  0  0  0  0
  152.5362  144.5649  160.1106 H   0  0  0  0  0  0  0  0  0  0  0  0
  152.6317  144.5366  158.3524 H   0  0  0  0  0  0  0  0  0  0  0  0
  151.3972  143.1763  157.0716 H   0  0  0  0  0  0  0  0  0  0  0  0
  148.8572  142.3357  158.6016 H   0  0  0  0  0  0  0  0  0  0  0  0
  148.9646  142.9691  156.9203 H   0  0  0  0  0  0  0  0  0  0  0  0
  149.2734  140.1512  157.6928 H   0  0  0  0  0  0  0  0  0  0  0  0
  148.9993  141.9292  154.3190 H   0  0  0  0  0  0  0  0  0  0  0  0
  147.9627  141.2965  155.5981 H   0  0  0  0  0  0  0  0  0  0  0  0
  148.5613  140.2172  154.3483 H   0  0  0  0  0  0  0  0  0  0  0  0
  153.4913  139.3451  153.5133 H   0  0  0  0  0  0  0  0  0  0  0  0
  149.0526  135.7469  156.4834 H   0  0  0  0  0  0  0  0  0  0  0  0
  151.4210  134.8543  153.8890 H   0  0  0  0  0  0  0  0  0  0  0  0
  152.3346  134.8575  155.3667 H   0  0  0  0  0  0  0  0  0  0  0  0
  150.0138  134.6911  157.4336 H   0  0  0  0  0  0  0  0  0  0  0  0
  149.9479  132.9410  157.4645 H   0  0  0  0  0  0  0  0  0  0  0  0
  152.3667  133.3291  156.9397 H   0  0  0  0  0  0  0  0  0  0  0  0
  148.2391  133.7614  155.5429 H   0  0  0  0  0  0  0  0  0  0  0  0
  148.9432  134.2464  153.9665 H   0  0  0  0  0  0  0  0  0  0  0  0
  151.3239  132.4179  153.9645 H   0  0  0  0  0  0  0  0  0  0  0  0
  151.0417  131.6180  155.5469 H   0  0  0  0  0  0  0  0  0  0  0  0
  152.1160  140.9001  157.4448 H   0  0  0  0  0  0  0  0  0  0  0  0
  151.2009  140.7941  158.9897 H   0  0  0  0  0  0  0  0  0  0  0  0
  1  2  1  0  0  0  0
  1 26  1  0  0  0  0
  1 27  1  0  0  0  0
  1 28  1  0  0  0  0
  2  3  1  0  0  0  0
  2 29  1  0  0  0  0
  2 30  1  0  0  0  0
  3  4  1  0  0  0  0
  4 25  1  0  0  0  0
  4  5  1  0  0  0  0
  4 31  1  0  0  0  0
  5  6  1  0  0  0  0
  5 32  1  0  0  0  0
  5 33  1  0  0  0  0
  6  7  1  0  0  0  0
  6 25  1  0  0  0  0
  6 34  1  0  0  0  0
  7  8  1  0  0  0  0
  7  9  1  0  0  0  0
  8 35  1  0  0  0  0
  8 36  1  0  0  0  0
  8 37  1  0  0  0  0
  9 14  1  0  0  0  0
  9 10  2  0  0  0  0
 10 11  1  0  0  0  0
 11 12  2  0  0  0  0
 11 38  1  0  0  0  0
 12 13  1  0  0  0  0
 13 17  1  0  0  0  0
 13 14  2  0  0  0  0
 14 15  1  0  0  0  0
 15 16  2  0  0  0  0
 16 17  1  0  0  0  0
 16 39  1  0  0  0  0
 17 18  1  0  0  0  0
 18 19  1  0  0  0  0
 18 40  1  0  0  0  0
 18 41  1  0  0  0  0
 19 24  1  0  0  0  0
 19 20  1  0  0  0  0
 19 22  1  0  0  0  0
 20 21  1  0  0  0  0
 20 42  1  0  0  0  0
 20 43  1  0  0  0  0
 21 44  1  0  0  0  0
 22 23  1  0  0  0  0
 22 45  1  0  0  0  0
 22 46  1  0  0  0  0
 23 24  1  0  0  0  0
 24 47  1  0  0  0  0
 24 48  1  0  0  0  0
 25 49  1  0  0  0  0
 25 50  1  0  0  0  0
M  END
> <s_m_source_file>
AV-unprocessed.smi

> <i_m_source_file_index>
268

> <i_lp_mmshare_version>
43012

> <i_f3d_flags>
0

> <s_epik_input>
W0NIM11bQ0gyXU9bQ0BASF0xW0NIMl1bQ0BIXShbQ0gyXTEpTihbQ0gzXSljKG5bY0hdbjIpYyhjMjMpbltjSF1uM1tDSDJdQzQoW0NIMl1bT0hdKVtDSDJdT1tDSDJdNA==

> <s_epik_cmdline>
J2VwaWtfcHl0aG9uJywgJy1waCcsICc3LjAnLCAnLXRuJywgJzgnLCAnLW1hJywgJzIwMCcsICctbWV0YWxfYmluZGluZycsICctaW1hZScsICc8aW5maWxlLm1hZT4nLCAnLW9tYWUnLCAnPG91dGZpbGUubWFlPic=

> <r_lp_tautomer_probability>
1

> <r_epik_Ionization_Penalty>
0.00205824

> <r_epik_Ionization_Penalty_Charging>
0

> <r_epik_Ionization_Penalty_Neutral>
0.00205824

> <r_epik_State_Penalty>
0.00125218

> <r_epik_Charging_Adjusted_Penalty>
0.00125218

> <i_epik_Tot_Q>
0

> <i_epik_Tot_abs_Q>
0

> <r_epik_Metal_State_Penalty>
-0

> <b_epik_Metal_Only>
0

> <s_lp_Force_Field>
OPLS_2005

> <r_lp_Energy>
42.2334

> <b_lp_Chiralities_Consistent>
1

> <s_lp_Variant>
AV-unprocessed.smi:268-1

> <Gold.Version>
5.8.1

> <Gold.Id.Protein>
6NUR|6NUR_protein|mol2

> <Gold.PLP.Fitness>
49.1627

> <Gold.PLP.PLP>
-41.5674

> <Gold.PLP.part.hbond>
-3.4487

> <Gold.PLP.part.metal>
0.0000

> <Gold.PLP.part.buried>
-8.0361

> <Gold.PLP.part.nonpolar>
-31.2366

> <Gold.PLP.part.repulsive>
0.3717

> <Gold.PLP.ligand.clash>
0.0000

> <Gold.PLP.ligand.torsion>
1.0067

> <Gold.PLP.Chemscore.Hbond>
2.7600

> <Gold.PLP.Chemscore.CHOScore>
0.0000

> <Gold.PLP.Chemscore.Metal>
0.0000

> <Gold.Chemscore.Hbonds>
donor molecule, donor type, donor heavy atom, donor atom, acceptor molecule, acceptor atom, score
      P1  H  6896  6907       L1    21  0.06
      P1  H  7989  7998       L1    10  0.50
      P1  H 10752 10765       L1    12  0.31

> <Gold.PLP.Chemscore.Internal.Correction>
1.3288

> <Gold.Rescore>
     Score         DG    S(hbond)    S(metal)    S(lipo)     H(rot)  DE(clash)    DE(int)     intcor
     13.07     -14.40       2.30        0.00      79.67       3.15       0.03       1.31       ----

> <Gold.Chemscore.Fitness>
13.0673

> <Gold.Chemscore.DG>
-14.4046

> <Gold.Chemscore.ZeroCoef>
-5.4800

> <Gold.Chemscore.Hbond>
2.2990

> <Gold.Chemscore.Metal>
0.0000

> <Gold.Chemscore.Lipo>
79.6656

> <Gold.Chemscore.Internal_Hbond>
0.0000

> <Gold.Chemscore.DEClash>
0.0323

> <Gold.Chemscore.DEInternal>
1.3050

> <Gold.Chemscore.Rot>
3.1542

> <Gold.Chemscore.Internal.Correction>
   9.000000E+99

> <Gold.Chemscore.Hbonds>
donor molecule, donor type, donor heavy atom, donor atom, acceptor molecule, acceptor atom, score
      P1  H  7989  7998       L1    10  0.21
      P1  H 10752 10765       L1    12  0.02

> <Gold.Chemscore.Hbond.Weighted>
-7.6786

> <Gold.Chemscore.Metal.Weighted>
-0.0000

> <Gold.Chemscore.Lipo.Weighted>
-9.3209

> <Gold.Chemscore.Internal_Hbond.Weighted>
0.0000

> <Gold.Chemscore.DEClash.Weighted>
0.0323

> <Gold.Chemscore.DEInternal.Weighted>
1.3050

> <Gold.Chemscore.Rot.Weighted>
8.0748

> <Gold.Chemscore.Internal.Correction.Weighted>
   9.000000E+99

> <Gold.Protein.RotatedTorsions>
[ 6907 6896 6895 6894 ] final -135.04 input  -60.11 | X-H torsion
[ 7974 7965 7964 7962 ] final  100.99 input  175.53 | X-H torsion
[ 8008 7997 7996 7995 ] final  -17.23 input   59.86 | X-H torsion
[ 10167 10162 10161 10158 ] final  -13.82 input  -65.29 | X-H torsion
[ 10718 10713 10712 10709 ] final  169.16 input   66.30 | X-H torsion
[ 10763 10752 10751 10750 ] final  157.68 input  -60.55 | X-H torsion
[ 11005 11000 10999 10996 ] final  -39.97 input  -57.11 | X-H torsion

> <Gold.Protein.ActiveResidues>
 VAL166  LYS551  ARG553  GLY616  TRP617  ASP618  TYR619  PRO620  LYS621  CYS622 
 ASP623  PHE694  ASN695  SER759  ASP760  ASP761  ALA762  ILE779  LEU786  VAL792 
 PHE793  MET794  SER795  GLU796  ALA797  LYS798  CYS799  TRP800  GLU811  SER814 

> <Gold.Protein.RotatedAtoms>
  150.9931  133.6130  159.2705 H   0  0  0  0  0  0  0  0  0  0  0  0  # atno 6907 bound_to 6896
  151.3343  135.0848  159.9359 H   0  0  0  0  0  0  0  0  0  0  0  0  # atno 6908 bound_to 6896
  152.5252  133.9555  159.7746 H   0  0  0  0  0  0  0  0  0  0  0  0  # atno 6909 bound_to 6896
  145.3782  139.2385  143.3418 H   0  0  0  0  0  0  0  0  0  0  0  0  # atno 7974 bound_to 7965
  154.4994  140.2148  155.9379 H   0  0  0  0  0  0  0  0  0  0  0  0  # atno 8008 bound_to 7997
  156.1413  140.3179  155.8468 H   0  0  0  0  0  0  0  0  0  0  0  0  # atno 8009 bound_to 7997
  155.4114  140.0491  157.3022 H   0  0  0  0  0  0  0  0  0  0  0  0  # atno 8010 bound_to 7997
  140.7189  143.5386  150.9435 H   0  0  0  0  0  0  0  0  0  0  0  0  # atno 10167 bound_to 10162
  157.0266  131.0247  151.2758 H   0  0  0  0  0  0  0  0  0  0  0  0  # atno 10718 bound_to 10713
  154.2041  135.2789  155.2981 H   0  0  0  0  0  0  0  0  0  0  0  0  # atno 10763 bound_to 10752
  154.5831  135.5583  153.7208 H   0  0  0  0  0  0  0  0  0  0  0  0  # atno 10764 bound_to 10752
  153.0080  135.6349  154.2179 H   0  0  0  0  0  0  0  0  0  0  0  0  # atno 10765 bound_to 10752
  141.0141  133.6894  156.2258 H   0  0  0  0  0  0  0  0  0  0  0  0  # atno 11005 bound_to 11000
  146.2854  140.4445  142.8760 LP  0  0  0  0  0  0  0  0  0  0  0  0  # atno 17320 bound_to 7965
  144.8527  140.7025  143.6158 LP  0  0  0  0  0  0  0  0  0  0  0  0  # atno 17321 bound_to 7965
  139.9108  143.6722  152.3115 LP  0  0  0  0  0  0  0  0  0  0  0  0  # atno 17342 bound_to 10162
  139.7105  144.7621  151.1121 LP  0  0  0  0  0  0  0  0  0  0  0  0  # atno 17343 bound_to 10162
  157.5209  130.7997  149.7808 LP  0  0  0  0  0  0  0  0  0  0  0  0  # atno 17370 bound_to 10713
  156.0084  130.3845  150.2351 LP  0  0  0  0  0  0  0  0  0  0  0  0  # atno 17371 bound_to 10713
  140.6685  134.4893  157.5586 LP  0  0  0  0  0  0  0  0  0  0  0  0  # atno 17394 bound_to 11000
  139.9106  134.8352  156.1541 LP  0  0  0  0  0  0  0  0  0  0  0  0  # atno 17395 bound_to 11000

$$$$
