AV-unprocessed.smi:1410|AV-procd|sdf|5735|dock1
  -GOLD-   22720 5363D 1   1.00000     0.00000
 Structure written by MMmdl.
 39 40  0  0  0  0  0  0  0  0  3 V2000
  144.7337  137.8991  152.1047 N   0  5  0  0  0  0  0  0  0  0  0  0
  145.9886  137.7335  152.5642 C   0  0  0  0  0  0  0  0  0  0  0  0
  146.3628  137.0347  153.5039 O   0  0  0  0  0  0  0  0  0  0  0  0
  147.0121  138.5688  151.7874 C   0  0  0  0  0  0  0  0  0  0  0  0
  147.6445  139.5679  152.6842 N   0  3  2  0  0  0  0  0  0  0  0  0
  148.3013  138.9567  153.8710 C   0  0  0  0  0  0  0  0  0  0  0  0
  149.0579  140.0146  154.6903 C   0  0  0  0  0  0  0  0  0  0  0  0
  148.1215  141.1531  155.1235 C   0  0  1  0  0  0  0  0  0  0  0  0
  148.8837  142.1775  155.8310 N   0  0  0  0  0  0  0  0  0  0  0  0
  149.6504  141.9625  156.9097 C   0  0  0  0  0  0  0  0  0  0  0  0
  149.7744  140.8605  157.4439 O   0  0  0  0  0  0  0  0  0  0  0  0
  150.2329  143.1006  157.3252 N   0  0  0  0  0  0  0  0  0  0  0  0
  151.1442  143.2910  158.3993 C   0  0  0  0  0  0  0  0  0  0  0  0
  151.8284  142.1591  158.8886 C   0  0  0  0  0  0  0  0  0  0  0  0
  152.7233  142.3195  159.9651 C   0  0  0  0  0  0  0  0  0  0  0  0
  152.9562  143.5054  160.5659 N   0  0  0  0  0  0  0  0  0  0  0  0
  152.2890  144.5851  160.1059 C   0  0  0  0  0  0  0  0  0  0  0  0
  151.3737  144.5346  159.0354 C   0  0  0  0  0  0  0  0  0  0  0  0
  147.4214  141.7436  153.8859 C   0  0  0  0  0  0  0  0  0  0  0  0
  146.7050  140.6489  153.0771 C   0  0  0  0  0  0  0  0  0  0  0  0
  144.3239  138.8409  152.1183 H   0  0  0  0  0  0  0  0  0  0  0  0
  147.7656  137.8747  151.4129 H   0  0  0  0  0  0  0  0  0  0  0  0
  146.5813  139.0600  150.9120 H   0  0  0  0  0  0  0  0  0  0  0  0
  147.5497  138.4669  154.4922 H   0  0  0  0  0  0  0  0  0  0  0  0
  149.0035  138.1830  153.5596 H   0  0  0  0  0  0  0  0  0  0  0  0
  149.5099  139.5472  155.5659 H   0  0  0  0  0  0  0  0  0  0  0  0
  149.8798  140.4132  154.0934 H   0  0  0  0  0  0  0  0  0  0  0  0
  147.3676  140.7379  155.7955 H   0  0  0  0  0  0  0  0  0  0  0  0
  148.8339  143.1168  155.4639 H   0  0  0  0  0  0  0  0  0  0  0  0
  149.9616  143.9419  156.8378 H   0  0  0  0  0  0  0  0  0  0  0  0
  151.6780  141.1845  158.4478 H   0  0  0  0  0  0  0  0  0  0  0  0
  153.2645  141.4703  160.3555 H   0  0  0  0  0  0  0  0  0  0  0  0
  152.4847  145.5192  160.6112 H   0  0  0  0  0  0  0  0  0  0  0  0
  150.8638  145.4376  158.7376 H   0  0  0  0  0  0  0  0  0  0  0  0
  146.7017  142.5058  154.1871 H   0  0  0  0  0  0  0  0  0  0  0  0
  148.1525  142.2436  153.2486 H   0  0  0  0  0  0  0  0  0  0  0  0
  146.2632  141.0962  152.1860 H   0  0  0  0  0  0  0  0  0  0  0  0
  145.8850  140.2253  153.6595 H   0  0  0  0  0  0  0  0  0  0  0  0
  148.3719  140.0056  152.1369 H   0  0  0  0  0  0  0  0  0  0  0  0
  1  2  1  0  0  0  0
  1 21  1  0  0  0  0
  2  3  2  0  0  0  0
  2  4  1  0  0  0  0
  4  5  1  0  0  0  0
  4 22  1  0  0  0  0
  4 23  1  0  0  0  0
  5 20  1  0  0  0  0
  5  6  1  0  0  0  0
  5 39  1  0  0  0  0
  6  7  1  0  0  0  0
  6 24  1  0  0  0  0
  6 25  1  0  0  0  0
  7  8  1  0  0  0  0
  7 26  1  0  0  0  0
  7 27  1  0  0  0  0
  8  9  1  0  0  0  0
  8 19  1  0  0  0  0
  8 28  1  0  0  0  0
  9 10  1  0  0  0  0
  9 29  1  0  0  0  0
 10 11  2  0  0  0  0
 10 12  1  0  0  0  0
 12 13  1  0  0  0  0
 12 30  1  0  0  0  0
 13 18  1  0  0  0  0
 13 14  2  0  0  0  0
 14 15  1  0  0  0  0
 14 31  1  0  0  0  0
 15 16  2  0  0  0  0
 15 32  1  0  0  0  0
 16 17  1  0  0  0  0
 17 18  2  0  0  0  0
 17 33  1  0  0  0  0
 18 34  1  0  0  0  0
 19 20  1  0  0  0  0
 19 35  1  0  0  0  0
 19 36  1  0  0  0  0
 20 37  1  0  0  0  0
 20 38  1  0  0  0  0
M  CHG  1   1  -1
M  CHG  1   5   1
M  END
> <s_m_source_file>
AV-unprocessed.smi

> <i_m_source_file_index>
1410

> <i_lp_mmshare_version>
43012

> <i_f3d_flags>
0

> <s_epik_input>
W05IMl1DKD1PKVtDSDJdTjFbQ0gyXVtDSDJdW0NIXShbQ0gyXVtDSDJdMSlbTkhdQyg9TylbTkhdYzJbY0hdW2NIXW5bY0hdW2NIXTI=

> <s_epik_cmdline>
J2VwaWtfcHl0aG9uJywgJy1waCcsICc3LjAnLCAnLXRuJywgJzgnLCAnLW1hJywgJzIwMCcsICctbWV0YWxfYmluZGluZycsICctaW1hZScsICc8aW5maWxlLm1hZT4nLCAnLW9tYWUnLCAnPG91dGZpbGUubWFlPic=

> <r_epik_Ionization_Penalty>
5.8279

> <r_epik_Ionization_Penalty_Charging>
5.7288

> <r_epik_Ionization_Penalty_Neutral>
0.0990993

> <r_epik_State_Penalty>
6.63321

> <r_epik_Charging_Adjusted_Penalty>
12.362

> <i_epik_Tot_Q>
0

> <i_epik_Tot_abs_Q>
2

> <r_epik_Metal_State_Penalty>
2.69435

> <b_epik_Metal_Only>
1

> <s_lp_Force_Field>
OPLS_2005

> <r_lp_Energy>
12.3591

> <b_lp_Chiralities_Consistent>
1

> <s_lp_Variant>
AV-unprocessed.smi:1410-7

> <Gold.Version>
5.8.1

> <Gold.Id.Protein>
6NUR|6NUR_protein|mol2

> <Gold.PLP.Fitness>
48.3247

> <Gold.PLP.PLP>
-36.7647

> <Gold.PLP.part.hbond>
-4.3371

> <Gold.PLP.part.metal>
0.0000

> <Gold.PLP.part.buried>
-1.1367

> <Gold.PLP.part.nonpolar>
-31.4420

> <Gold.PLP.part.repulsive>
0.4191

> <Gold.PLP.ligand.clash>
0.0000

> <Gold.PLP.ligand.torsion>
0.1406

> <Gold.PLP.Chemscore.Hbond>
3.9360

> <Gold.PLP.Chemscore.CHOScore>
0.0000

> <Gold.PLP.Chemscore.Metal>
0.0000

> <Gold.Chemscore.Hbonds>
donor molecule, donor type, donor heavy atom, donor atom, acceptor molecule, acceptor atom, score
      L1  H     1    21       P1 10175  1.00
      L1  H     5    39       P1  7957  1.00
      L1  H     9    29       P1  8028  1.00
      L1  H    12    30       P1  8028  0.99

> <Gold.PLP.Chemscore.Internal.Correction>
0.0333

> <Gold.Rescore>
     Score         DG    S(hbond)    S(metal)    S(lipo)     H(rot)  DE(clash)    DE(int)     intcor
     19.17     -23.65       3.81        0.00      88.88       1.94       0.29       4.19       ----

> <Gold.Chemscore.Fitness>
19.1662

> <Gold.Chemscore.DG>
-23.6485

> <Gold.Chemscore.ZeroCoef>
-5.4800

> <Gold.Chemscore.Hbond>
3.8102

> <Gold.Chemscore.Metal>
0.0000

> <Gold.Chemscore.Lipo>
88.8790

> <Gold.Chemscore.Internal_Hbond>
0.0000

> <Gold.Chemscore.DEClash>
0.2874

> <Gold.Chemscore.DEInternal>
4.1949

> <Gold.Chemscore.Rot>
1.9361

> <Gold.Chemscore.Internal.Correction>
   9.000000E+99

> <Gold.Chemscore.Hbonds>
donor molecule, donor type, donor heavy atom, donor atom, acceptor molecule, acceptor atom, score
      L1  H     1    21       P1 10175  1.00
      L1  H     5    39       P1  7957  0.94
      L1  H     9    29       P1  8028  0.95
      L1  H    12    30       P1  8028  0.91

> <Gold.Chemscore.Hbond.Weighted>
-12.7260

> <Gold.Chemscore.Metal.Weighted>
-0.0000

> <Gold.Chemscore.Lipo.Weighted>
-10.3988

> <Gold.Chemscore.Internal_Hbond.Weighted>
0.0000

> <Gold.Chemscore.DEClash.Weighted>
0.2874

> <Gold.Chemscore.DEInternal.Weighted>
4.1949

> <Gold.Chemscore.Rot.Weighted>
4.9563

> <Gold.Chemscore.Internal.Correction.Weighted>
   9.000000E+99

> <Gold.Protein.RotatedTorsions>
[ 6907 6896 6895 6894 ] final  -85.48 input  -60.11 | X-H torsion
[ 7974 7965 7964 7962 ] final   60.34 input  175.53 | X-H torsion
[ 8008 7997 7996 7995 ] final  138.80 input   59.86 | X-H torsion
[ 10167 10162 10161 10158 ] final    5.54 input  -65.29 | X-H torsion
[ 10718 10713 10712 10709 ] final -138.00 input   66.30 | X-H torsion
[ 10763 10752 10751 10750 ] final   20.68 input  -60.55 | X-H torsion
[ 11005 11000 10999 10996 ] final -138.74 input  -57.11 | X-H torsion

> <Gold.Protein.ActiveResidues>
 VAL166  LYS551  ARG553  GLY616  TRP617  ASP618  TYR619  PRO620  LYS621  CYS622 
 ASP623  PHE694  ASN695  SER759  ASP760  ASP761  ALA762  ILE779  LEU786  VAL792 
 PHE793  MET794  SER795  GLU796  ALA797  LYS798  CYS799  TRP800  GLU811  SER814 

> <Gold.Protein.RotatedAtoms>
  150.6870  134.3198  159.4781 H   0  0  0  0  0  0  0  0  0  0  0  0  # atno 6907 bound_to 6896
  152.1075  134.9296  160.0577 H   0  0  0  0  0  0  0  0  0  0  0  0  # atno 6908 bound_to 6896
  152.0551  133.4002  159.4430 H   0  0  0  0  0  0  0  0  0  0  0  0  # atno 6909 bound_to 6896
  145.8971  139.3553  143.0615 H   0  0  0  0  0  0  0  0  0  0  0  0  # atno 7974 bound_to 7965
  156.2995  140.2384  156.4132 H   0  0  0  0  0  0  0  0  0  0  0  0  # atno 8008 bound_to 7997
  154.8422  140.0428  157.1569 H   0  0  0  0  0  0  0  0  0  0  0  0  # atno 8009 bound_to 7997
  154.9090  140.2987  155.5280 H   0  0  0  0  0  0  0  0  0  0  0  0  # atno 8010 bound_to 7997
  140.6476  143.7623  150.7524 H   0  0  0  0  0  0  0  0  0  0  0  0  # atno 10167 bound_to 10162
  156.2944  130.7393  151.1428 H   0  0  0  0  0  0  0  0  0  0  0  0  # atno 10718 bound_to 10713
  153.1058  135.6684  153.9590 H   0  0  0  0  0  0  0  0  0  0  0  0  # atno 10763 bound_to 10752
  153.9147  135.3021  155.3449 H   0  0  0  0  0  0  0  0  0  0  0  0  # atno 10764 bound_to 10752
  154.7479  135.5049  153.9312 H   0  0  0  0  0  0  0  0  0  0  0  0  # atno 10765 bound_to 10752
  140.8587  134.2196  157.4720 H   0  0  0  0  0  0  0  0  0  0  0  0  # atno 11005 bound_to 11000
  145.8837  140.9347  143.0588 LP  0  0  0  0  0  0  0  0  0  0  0  0  # atno 17320 bound_to 7965
  144.6733  140.0814  143.7469 LP  0  0  0  0  0  0  0  0  0  0  0  0  # atno 17321 bound_to 7965
  140.1267  143.4563  152.2280 LP  0  0  0  0  0  0  0  0  0  0  0  0  # atno 17342 bound_to 10162
  139.5688  144.7451  151.3947 LP  0  0  0  0  0  0  0  0  0  0  0  0  # atno 17343 bound_to 10162
  157.7351  131.0575  150.5487 LP  0  0  0  0  0  0  0  0  0  0  0  0  # atno 17370 bound_to 10713
  156.5607  130.4255  149.6064 LP  0  0  0  0  0  0  0  0  0  0  0  0  # atno 17371 bound_to 10713
  139.8706  134.9719  156.4753 LP  0  0  0  0  0  0  0  0  0  0  0  0  # atno 17394 bound_to 11000
  140.8708  133.7990  155.9362 LP  0  0  0  0  0  0  0  0  0  0  0  0  # atno 17395 bound_to 11000

$$$$
