AV-unprocessed.smi:726|AV-procd|sdf|3512|dock1
  -GOLD-   22720 0513D 1   1.00000     0.00000
 Structure written by MMmdl.
 23 23  0  0  0  0  0  0  0  0  3 V2000
  151.4296  145.2674  160.4117 C   0  0  0  0  0  0  0  0  0  0  0  0
  152.2135  144.0659  160.9286 C   0  0  0  0  0  0  0  0  0  0  0  0
  152.5013  143.9839  162.2471 C   0  0  0  0  0  0  0  0  0  0  0  0
  153.2449  142.9387  162.7728 C   0  0  0  0  0  0  0  0  0  0  0  0
  153.5039  142.8551  163.9939 O   0  5  0  0  0  0  0  0  0  0  0  0
  153.6896  141.9978  161.8571 C   0  0  0  0  0  0  0  0  0  0  0  0
  153.4331  142.0398  160.4225 C   0  0  0  0  0  0  0  0  0  0  0  0
  153.9071  141.1893  159.6690 O   0  0  0  0  0  0  0  0  0  0  0  0
  152.6477  143.0760  159.9951 N   0  0  0  0  0  0  0  0  0  0  0  0
  152.1946  143.1292  158.5704 C   0  0  2  0  0  0  0  0  0  0  0  0
  152.6631  144.4001  157.8177 C   0  0  0  0  0  0  0  0  0  0  0  0
  150.6968  142.8079  158.4125 C   0  0  0  0  0  0  0  0  0  0  0  0
  149.8694  143.6509  158.8250 O   0  0  0  0  0  0  0  0  0  0  0  0
  150.4009  141.7204  157.8697 O   0  5  0  0  0  0  0  0  0  0  0  0
  151.3462  146.0374  161.1793 H   0  0  0  0  0  0  0  0  0  0  0  0
  150.4164  144.9770  160.1330 H   0  0  0  0  0  0  0  0  0  0  0  0
  151.9224  145.7331  159.5586 H   0  0  0  0  0  0  0  0  0  0  0  0
  152.1435  144.7581  162.9107 H   0  0  0  0  0  0  0  0  0  0  0  0
  154.2774  141.1673  162.2211 H   0  0  0  0  0  0  0  0  0  0  0  0
  152.6810  142.3558  157.9850 H   0  0  0  0  0  0  0  0  0  0  0  0
  152.4715  144.3026  156.7487 H   0  0  0  0  0  0  0  0  0  0  0  0
  153.7359  144.5508  157.9407 H   0  0  0  0  0  0  0  0  0  0  0  0
  152.1591  145.3099  158.1406 H   0  0  0  0  0  0  0  0  0  0  0  0
  1  2  1  0  0  0  0
  1 15  1  0  0  0  0
  1 16  1  0  0  0  0
  1 17  1  0  0  0  0
  2  9  1  0  0  0  0
  2  3  2  0  0  0  0
  3  4  1  0  0  0  0
  3 18  1  0  0  0  0
  4  5  1  0  0  0  0
  4  6  2  0  0  0  0
  6  7  1  0  0  0  0
  6 19  1  0  0  0  0
  7  8  2  0  0  0  0
  7  9  1  0  0  0  0
  9 10  1  0  0  0  0
 10 11  1  0  0  0  0
 10 12  1  0  0  0  0
 10 20  1  0  0  0  0
 11 21  1  0  0  0  0
 11 22  1  0  0  0  0
 11 23  1  0  0  0  0
 12 13  2  0  0  0  0
 12 14  1  0  0  0  0
M  CHG  1   5  -1
M  CHG  1  14  -1
M  END
> <s_m_source_file>
AV-unprocessed.smi

> <i_m_source_file_index>
726

> <i_lp_mmshare_version>
43012

> <i_f3d_flags>
0

> <s_epik_input>
W0NIM11jMVtjSF1jKFtPSF0pW2NIXWMoPU8pbjFbQ0BIXShbQ0gzXSlDKD1PKVtPSF0=

> <s_epik_cmdline>
J2VwaWtfcHl0aG9uJywgJy1waCcsICc3LjAnLCAnLXRuJywgJzgnLCAnLW1hJywgJzIwMCcsICctbWV0YWxfYmluZGluZycsICctaW1hZScsICc8aW5maWxlLm1hZT4nLCAnLW9tYWUnLCAnPG91dGZpbGUubWFlPic=

> <r_lp_tautomer_probability>
1

> <r_epik_Ionization_Penalty>
0.657059

> <r_epik_Ionization_Penalty_Charging>
0.657059

> <r_epik_Ionization_Penalty_Neutral>
1.59975e-13

> <r_epik_State_Penalty>
0.584419

> <r_epik_Charging_Adjusted_Penalty>
1.24148

> <i_epik_Tot_Q>
-2

> <i_epik_Tot_abs_Q>
2

> <r_epik_Metal_State_Penalty>
0.584419

> <b_epik_Metal_Only>
0

> <s_lp_Force_Field>
OPLS_2005

> <r_lp_Energy>
32.5185

> <b_lp_Chiralities_Consistent>
1

> <s_lp_Variant>
AV-unprocessed.smi:726-3

> <Gold.Version>
5.8.1

> <Gold.Id.Protein>
6NUR|6NUR_protein|mol2

> <Gold.PLP.Fitness>
37.9107

> <Gold.PLP.PLP>
-38.0513

> <Gold.PLP.part.hbond>
-0.8094

> <Gold.PLP.part.metal>
0.0000

> <Gold.PLP.part.buried>
-4.8984

> <Gold.PLP.part.nonpolar>
-32.2115

> <Gold.PLP.part.repulsive>
0.3121

> <Gold.PLP.ligand.clash>
0.0000

> <Gold.PLP.ligand.torsion>
0.2195

> <Gold.PLP.Chemscore.Hbond>
0.0000

> <Gold.PLP.Chemscore.CHOScore>
0.0000

> <Gold.PLP.Chemscore.Metal>
0.0000

> <Gold.PLP.Chemscore.Internal.Correction>
0.2983

> <Gold.Rescore>
     Score         DG    S(hbond)    S(metal)    S(lipo)     H(rot)  DE(clash)    DE(int)     intcor
      8.70     -11.56       0.08        0.00      81.58       1.45       0.09       2.77       ----

> <Gold.Chemscore.Fitness>
8.6983

> <Gold.Chemscore.DG>
-11.5645

> <Gold.Chemscore.ZeroCoef>
-5.4800

> <Gold.Chemscore.Hbond>
0.0788

> <Gold.Chemscore.Metal>
0.0000

> <Gold.Chemscore.Lipo>
81.5845

> <Gold.Chemscore.Internal_Hbond>
0.0000

> <Gold.Chemscore.DEClash>
0.0923

> <Gold.Chemscore.DEInternal>
2.7739

> <Gold.Chemscore.Rot>
1.4548

> <Gold.Chemscore.Internal.Correction>
   9.000000E+99

> <Gold.Chemscore.Hbond.Weighted>
-0.2633

> <Gold.Chemscore.Metal.Weighted>
-0.0000

> <Gold.Chemscore.Lipo.Weighted>
-9.5454

> <Gold.Chemscore.Internal_Hbond.Weighted>
0.0000

> <Gold.Chemscore.DEClash.Weighted>
0.0923

> <Gold.Chemscore.DEInternal.Weighted>
2.7739

> <Gold.Chemscore.Rot.Weighted>
3.7242

> <Gold.Chemscore.Internal.Correction.Weighted>
   9.000000E+99

> <Gold.Protein.RotatedTorsions>
[ 6907 6896 6895 6894 ] final   34.27 input  -60.11 | X-H torsion
[ 7974 7965 7964 7962 ] final  -75.30 input  175.53 | X-H torsion
[ 8008 7997 7996 7995 ] final -108.04 input   59.86 | X-H torsion
[ 10167 10162 10161 10158 ] final  -63.78 input  -65.29 | X-H torsion
[ 10718 10713 10712 10709 ] final -148.18 input   66.30 | X-H torsion
[ 10763 10752 10751 10750 ] final  165.36 input  -60.55 | X-H torsion
[ 11005 11000 10999 10996 ] final   67.88 input  -57.11 | X-H torsion

> <Gold.Protein.ActiveResidues>
 VAL166  LYS551  ARG553  GLY616  TRP617  ASP618  TYR619  PRO620  LYS621  CYS622 
 ASP623  PHE694  ASN695  SER759  ASP760  ASP761  ALA762  ILE779  LEU786  VAL792 
 PHE793  MET794  SER795  GLU796  ALA797  LYS798  CYS799  TRP800  GLU811  SER814 

> <Gold.Protein.RotatedAtoms>
  152.1000  134.9348  160.0569 H   0  0  0  0  0  0  0  0  0  0  0  0  # atno 6907 bound_to 6896
  152.0566  133.4038  159.4408 H   0  0  0  0  0  0  0  0  0  0  0  0  # atno 6908 bound_to 6896
  150.6839  134.3168  159.4813 H   0  0  0  0  0  0  0  0  0  0  0  0  # atno 6909 bound_to 6896
  145.6278  140.9346  143.1103 H   0  0  0  0  0  0  0  0  0  0  0  0  # atno 7974 bound_to 7965
  154.9383  140.0403  157.2084 H   0  0  0  0  0  0  0  0  0  0  0  0  # atno 8008 bound_to 7997
  154.8093  140.2865  155.5843 H   0  0  0  0  0  0  0  0  0  0  0  0  # atno 8009 bound_to 7997
  156.2970  140.2540  156.2978 H   0  0  0  0  0  0  0  0  0  0  0  0  # atno 8010 bound_to 7997
  140.5847  143.2332  151.6268 H   0  0  0  0  0  0  0  0  0  0  0  0  # atno 10167 bound_to 10162
  156.4169  130.8009  151.2230 H   0  0  0  0  0  0  0  0  0  0  0  0  # atno 10718 bound_to 10713
  154.3228  135.2755  155.2511 H   0  0  0  0  0  0  0  0  0  0  0  0  # atno 10763 bound_to 10752
  154.4857  135.5847  153.6425 H   0  0  0  0  0  0  0  0  0  0  0  0  # atno 10764 bound_to 10752
  152.9875  135.6122  154.3414 H   0  0  0  0  0  0  0  0  0  0  0  0  # atno 10765 bound_to 10752
  139.9744  134.6846  156.0382 H   0  0  0  0  0  0  0  0  0  0  0  0  # atno 11005 bound_to 11000
  144.7205  139.8046  143.7383 LP  0  0  0  0  0  0  0  0  0  0  0  0  # atno 17320 bound_to 7965
  146.1380  139.4430  143.0126 LP  0  0  0  0  0  0  0  0  0  0  0  0  # atno 17321 bound_to 7965
  139.5190  144.3266  152.0864 LP  0  0  0  0  0  0  0  0  0  0  0  0  # atno 17342 bound_to 10162
  140.2421  144.4258  150.6256 LP  0  0  0  0  0  0  0  0  0  0  0  0  # atno 17343 bound_to 10162
  157.7508  131.0240  150.3858 LP  0  0  0  0  0  0  0  0  0  0  0  0  # atno 17370 bound_to 10713
  156.4168  130.3945  149.6853 LP  0  0  0  0  0  0  0  0  0  0  0  0  # atno 17371 bound_to 10713
  141.1422  133.6562  156.3763 LP  0  0  0  0  0  0  0  0  0  0  0  0  # atno 17394 bound_to 11000
  140.5225  134.6290  157.5323 LP  0  0  0  0  0  0  0  0  0  0  0  0  # atno 17395 bound_to 11000

$$$$
