AV-unprocessed.smi:1103|AV-procd|sdf|4772|dock4
  -GOLD-   22720 3313D 1   1.00000     0.00000
 Structure written by MMmdl.
 44 45  0  0  0  0  0  0  0  0  2 V2000
  150.5167  138.0316  154.9203 C   0  0  0  0  0  0  0  0  0  0  0  0
  150.3014  139.5421  154.7516 C   0  0  0  0  0  0  0  0  0  0  0  0
  148.9602  139.8732  154.2059 N   0  3  2  0  0  0  0  0  0  0  0  0
  148.6025  141.2966  154.4405 C   0  0  0  0  0  0  0  0  0  0  0  0
  147.2670  141.6601  153.7720 C   0  0  0  0  0  0  0  0  0  0  0  0
  146.1448  140.7164  154.2283 C   0  0  0  0  0  0  0  0  0  0  0  0
  146.5326  139.2420  154.0091 C   0  0  1  0  0  0  0  0  0  0  0  0
  146.4754  138.8463  152.5144 C   0  0  0  0  0  0  0  0  0  0  0  0
  145.3030  138.0407  152.1871 N   0  0  0  0  0  0  0  0  0  0  0  0
  144.7972  137.0582  152.9487 C   0  0  0  0  0  0  0  0  0  0  0  0
  145.2561  136.7487  154.0481 O   0  0  0  0  0  0  0  0  0  0  0  0
  143.5896  136.3077  152.3859 C   0  0  0  0  0  0  0  0  0  0  0  0
  143.9839  135.0150  151.8572 N   0  0  0  0  0  0  0  0  0  0  0  0
  143.8082  133.7689  152.4216 C   0  0  0  0  0  0  0  0  0  0  0  0
  144.3506  132.8504  151.5681 C   0  0  0  0  0  0  0  0  0  0  0  0
  144.4205  131.3580  151.7176 C   0  0  0  0  0  0  0  0  0  0  0  0
  144.8395  133.6466  150.4931 C   0  0  0  0  0  0  0  0  0  0  0  0
  144.6205  134.9398  150.6687 N   0  0  0  0  0  0  0  0  0  0  0  0
  147.8920  138.9568  154.6902 C   0  0  0  0  0  0  0  0  0  0  0  0
  151.5269  137.8268  155.2751 H   0  0  0  0  0  0  0  0  0  0  0  0
  150.3918  137.5093  153.9716 H   0  0  0  0  0  0  0  0  0  0  0  0
  149.8268  137.5935  155.6411 H   0  0  0  0  0  0  0  0  0  0  0  0
  150.4590  140.0617  155.6978 H   0  0  0  0  0  0  0  0  0  0  0  0
  151.0695  139.9083  154.0690 H   0  0  0  0  0  0  0  0  0  0  0  0
  148.5473  141.4847  155.5141 H   0  0  0  0  0  0  0  0  0  0  0  0
  149.3857  141.9448  154.0455 H   0  0  0  0  0  0  0  0  0  0  0  0
  147.0024  142.6905  154.0116 H   0  0  0  0  0  0  0  0  0  0  0  0
  147.3742  141.6204  152.6877 H   0  0  0  0  0  0  0  0  0  0  0  0
  145.9486  140.8832  155.2884 H   0  0  0  0  0  0  0  0  0  0  0  0
  145.2161  140.9517  153.7073 H   0  0  0  0  0  0  0  0  0  0  0  0
  145.7822  138.6355  154.5187 H   0  0  0  0  0  0  0  0  0  0  0  0
  146.4217  139.7482  151.9038 H   0  0  0  0  0  0  0  0  0  0  0  0
  147.3896  138.3359  152.2086 H   0  0  0  0  0  0  0  0  0  0  0  0
  144.8616  138.2202  151.2962 H   0  0  0  0  0  0  0  0  0  0  0  0
  142.8541  136.1547  153.1767 H   0  0  0  0  0  0  0  0  0  0  0  0
  143.1007  136.8881  151.6011 H   0  0  0  0  0  0  0  0  0  0  0  0
  143.3194  133.6411  153.3764 H   0  0  0  0  0  0  0  0  0  0  0  0
  145.2059  130.9251  151.0977 H   0  0  0  0  0  0  0  0  0  0  0  0
  143.4835  130.8817  151.4292 H   0  0  0  0  0  0  0  0  0  0  0  0
  144.6272  131.0647  152.7472 H   0  0  0  0  0  0  0  0  0  0  0  0
  145.3465  133.3240  149.5956 H   0  0  0  0  0  0  0  0  0  0  0  0
  148.1762  137.9171  154.5384 H   0  0  0  0  0  0  0  0  0  0  0  0
  147.7886  139.0811  155.7694 H   0  0  0  0  0  0  0  0  0  0  0  0
  149.0206  139.7549  153.2043 H   0  0  0  0  0  0  0  0  0  0  0  0
  1  2  1  0  0  0  0
  1 20  1  0  0  0  0
  1 21  1  0  0  0  0
  1 22  1  0  0  0  0
  2  3  1  0  0  0  0
  2 23  1  0  0  0  0
  2 24  1  0  0  0  0
  3 19  1  0  0  0  0
  3  4  1  0  0  0  0
  3 44  1  0  0  0  0
  4  5  1  0  0  0  0
  4 25  1  0  0  0  0
  4 26  1  0  0  0  0
  5  6  1  0  0  0  0
  5 27  1  0  0  0  0
  5 28  1  0  0  0  0
  6  7  1  0  0  0  0
  6 29  1  0  0  0  0
  6 30  1  0  0  0  0
  7  8  1  0  0  0  0
  7 19  1  0  0  0  0
  7 31  1  0  0  0  0
  8  9  1  0  0  0  0
  8 32  1  0  0  0  0
  8 33  1  0  0  0  0
  9 10  1  0  0  0  0
  9 34  1  0  0  0  0
 10 11  2  0  0  0  0
 10 12  1  0  0  0  0
 12 13  1  0  0  0  0
 12 35  1  0  0  0  0
 12 36  1  0  0  0  0
 13 18  1  0  0  0  0
 13 14  1  0  0  0  0
 14 15  2  0  0  0  0
 14 37  1  0  0  0  0
 15 16  1  0  0  0  0
 15 17  1  0  0  0  0
 16 38  1  0  0  0  0
 16 39  1  0  0  0  0
 16 40  1  0  0  0  0
 17 18  2  0  0  0  0
 17 41  1  0  0  0  0
 19 42  1  0  0  0  0
 19 43  1  0  0  0  0
M  CHG  1   3   1
M  END
> <s_m_source_file>
AV-unprocessed.smi

> <i_m_source_file_index>
1103

> <i_lp_mmshare_version>
43012

> <i_f3d_flags>
0

> <s_epik_input>
W0NIM11bQ0gyXU4xW0NIMl1bQ0gyXVtDSDJdW0NASF0oW0NIMl0xKVtDSDJdW05IXUMoPU8pW0NIMl1uMltjSF1jKFtDSDNdKVtjSF1uMg==

> <s_epik_cmdline>
J2VwaWtfcHl0aG9uJywgJy1waCcsICc3LjAnLCAnLXRuJywgJzgnLCAnLW1hJywgJzIwMCcsICctbWV0YWxfYmluZGluZycsICctaW1hZScsICc8aW5maWxlLm1hZT4nLCAnLW9tYWUnLCAnPG91dGZpbGUubWFlPic=

> <r_lp_tautomer_probability>
1

> <r_epik_Ionization_Penalty>
0.000672456

> <r_epik_Ionization_Penalty_Charging>
0.000647327

> <r_epik_Ionization_Penalty_Neutral>
2.51297e-05

> <r_epik_State_Penalty>
0.000409793

> <r_epik_Charging_Adjusted_Penalty>
0.00105712

> <i_epik_Tot_Q>
1

> <i_epik_Tot_abs_Q>
1

> <r_epik_Metal_State_Penalty>
-0

> <b_epik_Metal_Only>
0

> <s_lp_Force_Field>
OPLS_2005

> <r_lp_Energy>
19.6745

> <b_lp_Chiralities_Consistent>
1

> <s_lp_Variant>
AV-unprocessed.smi:1103-2

> <Gold.Version>
5.8.1

> <Gold.Id.Protein>
6NUR|6NUR_protein|mol2

> <Gold.PLP.Fitness>
44.2853

> <Gold.PLP.PLP>
-35.4923

> <Gold.PLP.part.hbond>
-2.7907

> <Gold.PLP.part.metal>
0.0000

> <Gold.PLP.part.buried>
-5.1649

> <Gold.PLP.part.nonpolar>
-30.0269

> <Gold.PLP.part.repulsive>
0.4651

> <Gold.PLP.ligand.clash>
0.0000

> <Gold.PLP.ligand.torsion>
1.4546

> <Gold.PLP.Chemscore.Hbond>
2.0000

> <Gold.PLP.Chemscore.CHOScore>
1.8755

> <Gold.PLP.Chemscore.Metal>
0.0000

> <Gold.Chemscore.Hbonds>
donor molecule, donor type, donor heavy atom, donor atom, acceptor molecule, acceptor atom, score
      L1  H     3    44       P1  7957  0.71
      L1  H     9    34       P1 10171  1.00
      L1  C    14    37       P1 10957  1.00
      L1  C    17    41       P1  7921  0.84

> <Gold.PLP.Chemscore.Internal.Correction>
0.0756

> <Gold.Rescore>
     Score         DG    S(hbond)    S(metal)    S(lipo)     H(rot)  DE(clash)    DE(int)     intcor
     15.14     -17.99       2.00        0.00      86.75       1.68       0.17       2.69       ----

> <Gold.Chemscore.Fitness>
15.1361

> <Gold.Chemscore.DG>
-17.9917

> <Gold.Chemscore.ZeroCoef>
-5.4800

> <Gold.Chemscore.Hbond>
1.9966

> <Gold.Chemscore.Metal>
0.0000

> <Gold.Chemscore.Lipo>
86.7482

> <Gold.Chemscore.Internal_Hbond>
0.0000

> <Gold.Chemscore.DEClash>
0.1653

> <Gold.Chemscore.DEInternal>
2.6903

> <Gold.Chemscore.Rot>
1.6823

> <Gold.Chemscore.Internal.Correction>
   9.000000E+99

> <Gold.Chemscore.Hbonds>
donor molecule, donor type, donor heavy atom, donor atom, acceptor molecule, acceptor atom, score
      L1  H     3    44       P1  7957  0.71
      L1  H     9    34       P1 10171  1.00

> <Gold.Chemscore.Hbond.Weighted>
-6.6687

> <Gold.Chemscore.Metal.Weighted>
-0.0000

> <Gold.Chemscore.Lipo.Weighted>
-10.1495

> <Gold.Chemscore.Internal_Hbond.Weighted>
0.0000

> <Gold.Chemscore.DEClash.Weighted>
0.1653

> <Gold.Chemscore.DEInternal.Weighted>
2.6903

> <Gold.Chemscore.Rot.Weighted>
4.3066

> <Gold.Chemscore.Internal.Correction.Weighted>
   9.000000E+99

> <Gold.Protein.RotatedTorsions>
[ 6907 6896 6895 6894 ] final    0.71 input  -60.11 | X-H torsion
[ 7974 7965 7964 7962 ] final -118.90 input  175.53 | X-H torsion
[ 8008 7997 7996 7995 ] final   61.09 input   59.86 | X-H torsion
[ 10167 10162 10161 10158 ] final  -44.07 input  -65.29 | X-H torsion
[ 10718 10713 10712 10709 ] final   45.31 input   66.30 | X-H torsion
[ 10763 10752 10751 10750 ] final   29.52 input  -60.55 | X-H torsion
[ 11005 11000 10999 10996 ] final  149.97 input  -57.11 | X-H torsion

> <Gold.Protein.ActiveResidues>
 VAL166  LYS551  ARG553  GLY616  TRP617  ASP618  TYR619  PRO620  LYS621  CYS622 
 ASP623  PHE694  ASN695  SER759  ASP760  ASP761  ALA762  ILE779  LEU786  VAL792 
 PHE793  MET794  SER795  GLU796  ALA797  LYS798  CYS799  TRP800  GLU811  SER814 

> <Gold.Protein.RotatedAtoms>
  151.5809  135.1058  160.0016 H   0  0  0  0  0  0  0  0  0  0  0  0  # atno 6907 bound_to 6896
  152.4354  133.7348  159.6618 H   0  0  0  0  0  0  0  0  0  0  0  0  # atno 6908 bound_to 6896
  150.8251  133.8115  159.3145 H   0  0  0  0  0  0  0  0  0  0  0  0  # atno 6909 bound_to 6896
  145.0686  140.8343  143.4109 H   0  0  0  0  0  0  0  0  0  0  0  0  # atno 7974 bound_to 7965
  155.5928  140.3493  155.4571 H   0  0  0  0  0  0  0  0  0  0  0  0  # atno 8008 bound_to 7997
  156.0288  140.1270  157.0305 H   0  0  0  0  0  0  0  0  0  0  0  0  # atno 8009 bound_to 7997
  154.4344  140.1047  156.6056 H   0  0  0  0  0  0  0  0  0  0  0  0  # atno 8010 bound_to 7997
  140.6910  143.2949  151.3443 H   0  0  0  0  0  0  0  0  0  0  0  0  # atno 10167 bound_to 10162
  157.4362  130.8054  149.7650 H   0  0  0  0  0  0  0  0  0  0  0  0  # atno 10718 bound_to 10713
  153.0425  135.6487  154.0904 H   0  0  0  0  0  0  0  0  0  0  0  0  # atno 10763 bound_to 10752
  154.0607  135.2888  155.3327 H   0  0  0  0  0  0  0  0  0  0  0  0  # atno 10764 bound_to 10752
  154.6659  135.5374  153.8142 H   0  0  0  0  0  0  0  0  0  0  0  0  # atno 10765 bound_to 10752
  140.1090  134.8936  157.1909 H   0  0  0  0  0  0  0  0  0  0  0  0  # atno 11005 bound_to 11000
  145.1320  139.2626  143.5534 LP  0  0  0  0  0  0  0  0  0  0  0  0  # atno 17320 bound_to 7965
  146.3528  140.0973  142.8609 LP  0  0  0  0  0  0  0  0  0  0  0  0  # atno 17321 bound_to 7965
  139.6314  144.0714  152.2479 LP  0  0  0  0  0  0  0  0  0  0  0  0  # atno 17342 bound_to 10162
  140.0190  144.6167  150.7583 LP  0  0  0  0  0  0  0  0  0  0  0  0  # atno 17343 bound_to 10162
  155.9931  130.3926  150.2913 LP  0  0  0  0  0  0  0  0  0  0  0  0  # atno 17370 bound_to 10713
  157.1074  131.0212  151.3061 LP  0  0  0  0  0  0  0  0  0  0  0  0  # atno 17371 bound_to 10713
  140.3116  134.3017  155.7265 LP  0  0  0  0  0  0  0  0  0  0  0  0  # atno 17394 bound_to 11000
  141.2125  133.7654  156.9785 LP  0  0  0  0  0  0  0  0  0  0  0  0  # atno 17395 bound_to 11000

$$$$
