AV-unprocessed.smi:1419|AV-procd|sdf|5779|dock6
  -GOLD-   22720 5423D 1   1.00000     0.00000
 Structure written by MMmdl.
 42 43  0  0  0  0  0  0  0  0  2 V2000
  150.8454  140.7199  155.2307 C   0  0  0  0  0  0  0  0  0  0  0  0
  149.9282  141.7914  155.8420 C   0  0  1  0  0  0  0  0  0  0  0  0
  148.6673  141.1989  156.5101 C   0  0  0  0  0  0  0  0  0  0  0  0
  147.4431  141.4477  155.7443 N   0  0  0  0  0  0  0  0  0  0  0  0
  146.5110  142.4311  155.9562 C   0  0  0  0  0  0  0  0  0  0  0  0
  145.5484  142.2705  154.9928 C   0  0  0  0  0  0  0  0  0  0  0  0
  145.9352  141.1992  154.2328 N   0  3  0  0  0  0  0  0  0  0  0  0
  147.0892  140.7020  154.6898 C   0  0  0  0  0  0  0  0  0  0  0  0
  150.6906  142.5769  156.8076 N   0  0  0  0  0  0  0  0  0  0  0  0
  151.5448  142.0810  157.7193 C   0  0  0  0  0  0  0  0  0  0  0  0
  151.7647  140.8729  157.8200 O   0  0  0  0  0  0  0  0  0  0  0  0
  152.1421  143.0127  158.5027 N   0  0  0  0  0  0  0  0  0  0  0  0
  153.0570  142.7714  159.6262 C   0  0  0  0  0  0  0  0  0  0  0  0
  152.3300  143.1529  160.9301 C   0  0  1  0  0  0  0  0  0  0  0  0
  153.2337  143.0021  162.1587 C   0  0  0  0  0  0  0  0  0  0  0  0
  151.9072  144.5172  160.8589 O   0  0  0  0  0  0  0  0  0  0  0  0
  151.0978  144.8600  159.7289 C   0  0  2  0  0  0  0  0  0  0  0  0
  149.6711  144.2983  159.8695 C   0  0  0  0  0  0  0  0  0  0  0  0
  151.8121  144.4378  158.4274 C   0  0  0  0  0  0  0  0  0  0  0  0
  150.3438  140.1695  154.4345 H   0  0  0  0  0  0  0  0  0  0  0  0
  151.1682  139.9989  155.9825 H   0  0  0  0  0  0  0  0  0  0  0  0
  151.7388  141.1704  154.7967 H   0  0  0  0  0  0  0  0  0  0  0  0
  149.6174  142.4549  155.0327 H   0  0  0  0  0  0  0  0  0  0  0  0
  148.7704  140.1199  156.6330 H   0  0  0  0  0  0  0  0  0  0  0  0
  148.5202  141.6165  157.5074 H   0  0  0  0  0  0  0  0  0  0  0  0
  146.5983  143.1509  156.7570 H   0  0  0  0  0  0  0  0  0  0  0  0
  144.6415  142.8240  154.7967 H   0  0  0  0  0  0  0  0  0  0  0  0
  147.6282  139.8621  154.2881 H   0  0  0  0  0  0  0  0  0  0  0  0
  150.5603  143.5779  156.7844 H   0  0  0  0  0  0  0  0  0  0  0  0
  153.4197  141.7455  159.6883 H   0  0  0  0  0  0  0  0  0  0  0  0
  153.9487  143.3874  159.4993 H   0  0  0  0  0  0  0  0  0  0  0  0
  151.4612  142.5078  161.0660 H   0  0  0  0  0  0  0  0  0  0  0  0
  153.5794  141.9740  162.2686 H   0  0  0  0  0  0  0  0  0  0  0  0
  152.7000  143.2723  163.0701 H   0  0  0  0  0  0  0  0  0  0  0  0
  154.1116  143.6445  162.0839 H   0  0  0  0  0  0  0  0  0  0  0  0
  151.0155  145.9473  159.7284 H   0  0  0  0  0  0  0  0  0  0  0  0
  149.0399  144.6399  159.0490 H   0  0  0  0  0  0  0  0  0  0  0  0
  149.2125  144.6340  160.7998 H   0  0  0  0  0  0  0  0  0  0  0  0
  149.6489  143.2089  159.8632 H   0  0  0  0  0  0  0  0  0  0  0  0
  152.7333  145.0099  158.3074 H   0  0  0  0  0  0  0  0  0  0  0  0
  151.1958  144.6885  157.5631 H   0  0  0  0  0  0  0  0  0  0  0  0
  145.4241  140.8343  153.4386 H   0  0  0  0  0  0  0  0  0  0  0  0
  1  2  1  0  0  0  0
  1 20  1  0  0  0  0
  1 21  1  0  0  0  0
  1 22  1  0  0  0  0
  2  3  1  0  0  0  0
  2  9  1  0  0  0  0
  2 23  1  0  0  0  0
  3  4  1  0  0  0  0
  3 24  1  0  0  0  0
  3 25  1  0  0  0  0
  4  8  1  0  0  0  0
  4  5  1  0  0  0  0
  5  6  2  0  0  0  0
  5 26  1  0  0  0  0
  6  7  1  0  0  0  0
  6 27  1  0  0  0  0
  7  8  2  0  0  0  0
  7 42  1  0  0  0  0
  8 28  1  0  0  0  0
  9 10  1  0  0  0  0
  9 29  1  0  0  0  0
 10 11  2  0  0  0  0
 10 12  1  0  0  0  0
 12 19  1  0  0  0  0
 12 13  1  0  0  0  0
 13 14  1  0  0  0  0
 13 30  1  0  0  0  0
 13 31  1  0  0  0  0
 14 15  1  0  0  0  0
 14 16  1  0  0  0  0
 14 32  1  0  0  0  0
 15 33  1  0  0  0  0
 15 34  1  0  0  0  0
 15 35  1  0  0  0  0
 16 17  1  0  0  0  0
 17 18  1  0  0  0  0
 17 19  1  0  0  0  0
 17 36  1  0  0  0  0
 18 37  1  0  0  0  0
 18 38  1  0  0  0  0
 18 39  1  0  0  0  0
 19 40  1  0  0  0  0
 19 41  1  0  0  0  0
M  CHG  1   7   1
M  END
> <s_m_source_file>
AV-unprocessed.smi

> <i_m_source_file_index>
1419

> <i_lp_mmshare_version>
43012

> <i_f3d_flags>
0

> <s_epik_input>
W2NIXTFuW2NIXVtjSF1uMVtDSDJdW0NAQEhdKFtDSDNdKVtOSF1DKD1PKU4yW0NIMl1bQ0BASF0oW0NIM10pT1tDQEBIXShbQ0gzXSlbQ0gyXTI=

> <s_epik_cmdline>
J2VwaWtfcHl0aG9uJywgJy1waCcsICc3LjAnLCAnLXRuJywgJzgnLCAnLW1hJywgJzIwMCcsICctbWV0YWxfYmluZGluZycsICctaW1hZScsICc8aW5maWxlLm1hZT4nLCAnLW9tYWUnLCAnPG91dGZpbGUubWFlPic=

> <r_lp_tautomer_probability>
1

> <r_epik_Ionization_Penalty>
0.253607

> <r_epik_Ionization_Penalty_Charging>
0

> <r_epik_Ionization_Penalty_Neutral>
0.253607

> <r_epik_State_Penalty>
0.245018

> <r_epik_Charging_Adjusted_Penalty>
0.245018

> <i_epik_Tot_Q>
1

> <i_epik_Tot_abs_Q>
1

> <r_epik_Metal_State_Penalty>
0.535379

> <b_epik_Metal_Only>
0

> <s_lp_Force_Field>
OPLS_2005

> <r_lp_Energy>
32.7532

> <b_lp_Chiralities_Consistent>
1

> <s_lp_Variant>
AV-unprocessed.smi:1419-6

> <Gold.Version>
5.8.1

> <Gold.Id.Protein>
6NUR|6NUR_protein|mol2

> <Gold.PLP.Fitness>
43.3881

> <Gold.PLP.PLP>
-40.9566

> <Gold.PLP.part.hbond>
-1.8898

> <Gold.PLP.part.metal>
0.0000

> <Gold.PLP.part.buried>
-4.7450

> <Gold.PLP.part.nonpolar>
-33.8303

> <Gold.PLP.part.repulsive>
0.1969

> <Gold.PLP.ligand.clash>
1.4414

> <Gold.PLP.ligand.torsion>
1.2533

> <Gold.PLP.Chemscore.Hbond>
2.1149

> <Gold.PLP.Chemscore.CHOScore>
0.0000

> <Gold.PLP.Chemscore.Metal>
0.0000

> <Gold.Chemscore.Hbonds>
donor molecule, donor type, donor heavy atom, donor atom, acceptor molecule, acceptor atom, score
      L1  H     7    42       P1 10175  2.00
      L1  H     9    29       P1  8028  0.17

> <Gold.PLP.Chemscore.Internal.Correction>
0.0347

> <Gold.Rescore>
     Score         DG    S(hbond)    S(metal)    S(lipo)     H(rot)  DE(clash)    DE(int)     intcor
     13.99     -16.75       1.61        0.00      85.90       1.63       0.11       2.65       ----

> <Gold.Chemscore.Fitness>
13.9915

> <Gold.Chemscore.DG>
-16.7517

> <Gold.Chemscore.ZeroCoef>
-5.4800

> <Gold.Chemscore.Hbond>
1.6128

> <Gold.Chemscore.Metal>
0.0000

> <Gold.Chemscore.Lipo>
85.9027

> <Gold.Chemscore.Internal_Hbond>
0.0000

> <Gold.Chemscore.DEClash>
0.1102

> <Gold.Chemscore.DEInternal>
2.6501

> <Gold.Chemscore.Rot>
1.6273

> <Gold.Chemscore.Internal.Correction>
   9.000000E+99

> <Gold.Chemscore.Hbonds>
donor molecule, donor type, donor heavy atom, donor atom, acceptor molecule, acceptor atom, score
      L1  H     7    42       P1 10175  0.71
      L1  H     9    29       P1  8028  0.17

> <Gold.Chemscore.Hbond.Weighted>
-5.3869

> <Gold.Chemscore.Metal.Weighted>
-0.0000

> <Gold.Chemscore.Lipo.Weighted>
-10.0506

> <Gold.Chemscore.Internal_Hbond.Weighted>
0.0000

> <Gold.Chemscore.DEClash.Weighted>
0.1102

> <Gold.Chemscore.DEInternal.Weighted>
2.6501

> <Gold.Chemscore.Rot.Weighted>
4.1658

> <Gold.Chemscore.Internal.Correction.Weighted>
   9.000000E+99

> <Gold.Protein.RotatedTorsions>
[ 6907 6896 6895 6894 ] final  -18.99 input  -60.11 | X-H torsion
[ 7974 7965 7964 7962 ] final   52.03 input  175.53 | X-H torsion
[ 8008 7997 7996 7995 ] final  120.39 input   59.86 | X-H torsion
[ 10167 10162 10161 10158 ] final -125.23 input  -65.29 | X-H torsion
[ 10718 10713 10712 10709 ] final  -61.08 input   66.30 | X-H torsion
[ 10763 10752 10751 10750 ] final  -17.72 input  -60.55 | X-H torsion
[ 11005 11000 10999 10996 ] final -156.72 input  -57.11 | X-H torsion

> <Gold.Protein.ActiveResidues>
 VAL166  LYS551  ARG553  GLY616  TRP617  ASP618  TYR619  PRO620  LYS621  CYS622 
 ASP623  PHE694  ASN695  SER759  ASP760  ASP761  ALA762  ILE779  LEU786  VAL792 
 PHE793  MET794  SER795  GLU796  ALA797  LYS798  CYS799  TRP800  GLU811  SER814 

> <Gold.Protein.RotatedAtoms>
  151.2698  135.0681  159.9129 H   0  0  0  0  0  0  0  0  0  0  0  0  # atno 6907 bound_to 6896
  152.5352  134.0142  159.7963 H   0  0  0  0  0  0  0  0  0  0  0  0  # atno 6908 bound_to 6896
  151.0379  133.5682  159.2685 H   0  0  0  0  0  0  0  0  0  0  0  0  # atno 6909 bound_to 6896
  145.9854  139.4285  143.0106 H   0  0  0  0  0  0  0  0  0  0  0  0  # atno 7974 bound_to 7965
  156.2640  140.2832  156.1141 H   0  0  0  0  0  0  0  0  0  0  0  0  # atno 8008 bound_to 7997
  155.1225  140.0392  157.2771 H   0  0  0  0  0  0  0  0  0  0  0  0  # atno 8009 bound_to 7997
  154.6660  140.2577  155.7064 H   0  0  0  0  0  0  0  0  0  0  0  0  # atno 8010 bound_to 7997
  139.9843  143.5708  152.2366 H   0  0  0  0  0  0  0  0  0  0  0  0  # atno 10167 bound_to 10162
  156.0946  130.4195  150.0944 H   0  0  0  0  0  0  0  0  0  0  0  0  # atno 10718 bound_to 10713
  153.5782  135.7006  153.5475 H   0  0  0  0  0  0  0  0  0  0  0  0  # atno 10763 bound_to 10752
  153.3284  135.4054  155.1475 H   0  0  0  0  0  0  0  0  0  0  0  0  # atno 10764 bound_to 10752
  154.8622  135.3713  154.5308 H   0  0  0  0  0  0  0  0  0  0  0  0  # atno 10765 bound_to 10752
  140.6725  134.4232  157.5231 H   0  0  0  0  0  0  0  0  0  0  0  0  # atno 11005 bound_to 11000
  145.7708  140.9897  143.1150 LP  0  0  0  0  0  0  0  0  0  0  0  0  # atno 17320 bound_to 7965
  144.6873  139.9444  143.7476 LP  0  0  0  0  0  0  0  0  0  0  0  0  # atno 17321 bound_to 7965
  139.6386  144.7652  151.2385 LP  0  0  0  0  0  0  0  0  0  0  0  0  # atno 17342 bound_to 10162
  140.7478  143.6355  150.8383 LP  0  0  0  0  0  0  0  0  0  0  0  0  # atno 17343 bound_to 10162
  156.8946  130.9600  151.3584 LP  0  0  0  0  0  0  0  0  0  0  0  0  # atno 17370 bound_to 10713
  157.6104  130.8578  149.8942 LP  0  0  0  0  0  0  0  0  0  0  0  0  # atno 17371 bound_to 10713
  139.8977  134.8630  156.2033 LP  0  0  0  0  0  0  0  0  0  0  0  0  # atno 17394 bound_to 11000
  141.0381  133.6952  156.1548 LP  0  0  0  0  0  0  0  0  0  0  0  0  # atno 17395 bound_to 11000

$$$$
