AV-unprocessed.smi:2925|AV-procd|sdf|11225|dock2
  -GOLD-   2272016113D 1   1.00000     0.00000
 Structure written by MMmdl.
 44 45  0  0  0  0  0  0  0  0  1 V2000
  150.5751  132.7580  156.8890 C   0  0  0  0  0  0  0  0  0  0  0  0
  150.5649  133.9778  155.9556 C   0  0  0  0  0  0  0  0  0  0  0  0
  149.2906  134.0902  155.0925 C   0  0  1  0  0  0  0  0  0  0  0  0
  149.2751  135.3869  154.4159 N   0  0  0  0  0  0  0  0  0  0  0  0
  149.3745  136.5817  155.0156 C   0  0  0  0  0  0  0  0  0  0  0  0
  149.5082  136.7330  156.2308 O   0  0  0  0  0  0  0  0  0  0  0  0
  149.2778  137.5843  154.1248 N   0  0  0  0  0  0  0  0  0  0  0  0
  149.2798  138.9551  154.4245 C   0  0  0  0  0  0  0  0  0  0  0  0
  148.3631  139.7617  153.8278 C   0  0  0  0  0  0  0  0  0  0  0  0
  147.3118  139.2119  152.8769 C   0  0  0  0  0  0  0  0  0  0  0  0
  148.3724  141.1787  154.1266 C   0  0  0  0  0  0  0  0  0  0  0  0
  149.2852  141.6669  154.9772 C   0  0  0  0  0  0  0  0  0  0  0  0
  150.2478  140.8426  155.5778 N   0  0  0  0  0  0  0  0  0  0  0  0
  151.2146  141.4750  156.4794 C   0  0  0  0  0  0  0  0  0  0  0  0
  150.3244  139.5048  155.3219 C   0  0  0  0  0  0  0  0  0  0  0  0
  151.2284  138.8198  155.8058 O   0  0  0  0  0  0  0  0  0  0  0  0
  149.1907  132.9625  154.0422 C   0  0  1  0  0  0  0  0  0  0  0  0
  149.0122  131.5583  154.6259 C   0  0  0  0  0  0  0  0  0  0  0  0
  148.3074  130.8377  153.5002 C   0  0  0  0  0  0  0  0  0  0  0  0
  147.3683  131.9227  152.9883 C   0  0  0  0  0  0  0  0  0  0  0  0
  148.0519  133.1536  153.2013 O   0  0  0  0  0  0  0  0  0  0  0  0
  151.5166  132.6980  157.4352 H   0  0  0  0  0  0  0  0  0  0  0  0
  150.4590  131.8321  156.3253 H   0  0  0  0  0  0  0  0  0  0  0  0
  149.7719  132.8060  157.6246 H   0  0  0  0  0  0  0  0  0  0  0  0
  150.6919  134.8853  156.5470 H   0  0  0  0  0  0  0  0  0  0  0  0
  151.4400  133.9142  155.3085 H   0  0  0  0  0  0  0  0  0  0  0  0
  148.4306  134.0139  155.7607 H   0  0  0  0  0  0  0  0  0  0  0  0
  149.1621  135.3701  153.4132 H   0  0  0  0  0  0  0  0  0  0  0  0
  149.0491  137.3403  153.1726 H   0  0  0  0  0  0  0  0  0  0  0  0
  146.6496  140.0014  152.5206 H   0  0  0  0  0  0  0  0  0  0  0  0
  146.6991  138.4611  153.3772 H   0  0  0  0  0  0  0  0  0  0  0  0
  147.7841  138.7519  152.0084 H   0  0  0  0  0  0  0  0  0  0  0  0
  147.6470  141.8408  153.6768 H   0  0  0  0  0  0  0  0  0  0  0  0
  149.3393  142.7130  155.2408 H   0  0  0  0  0  0  0  0  0  0  0  0
  151.2406  140.9616  157.4417 H   0  0  0  0  0  0  0  0  0  0  0  0
  150.9800  142.5208  156.6811 H   0  0  0  0  0  0  0  0  0  0  0  0
  152.2159  141.4393  156.0481 H   0  0  0  0  0  0  0  0  0  0  0  0
  150.0727  132.9689  153.3994 H   0  0  0  0  0  0  0  0  0  0  0  0
  149.9567  131.0897  154.9040 H   0  0  0  0  0  0  0  0  0  0  0  0
  148.3705  131.5853  155.5080 H   0  0  0  0  0  0  0  0  0  0  0  0
  149.0231  130.5607  152.7251 H   0  0  0  0  0  0  0  0  0  0  0  0
  147.7843  129.9376  153.8241 H   0  0  0  0  0  0  0  0  0  0  0  0
  147.1055  131.7880  151.9388 H   0  0  0  0  0  0  0  0  0  0  0  0
  146.4460  131.9343  153.5707 H   0  0  0  0  0  0  0  0  0  0  0  0
  1  2  1  0  0  0  0
  1 22  1  0  0  0  0
  1 23  1  0  0  0  0
  1 24  1  0  0  0  0
  2  3  1  0  0  0  0
  2 25  1  0  0  0  0
  2 26  1  0  0  0  0
  3  4  1  0  0  0  0
  3 17  1  0  0  0  0
  3 27  1  0  0  0  0
  4  5  1  0  0  0  0
  4 28  1  0  0  0  0
  5  6  2  0  0  0  0
  5  7  1  0  0  0  0
  7  8  1  0  0  0  0
  7 29  1  0  0  0  0
  8 15  1  0  0  0  0
  8  9  2  0  0  0  0
  9 10  1  0  0  0  0
  9 11  1  0  0  0  0
 10 30  1  0  0  0  0
 10 31  1  0  0  0  0
 10 32  1  0  0  0  0
 11 12  2  0  0  0  0
 11 33  1  0  0  0  0
 12 13  1  0  0  0  0
 12 34  1  0  0  0  0
 13 14  1  0  0  0  0
 13 15  1  0  0  0  0
 14 35  1  0  0  0  0
 14 36  1  0  0  0  0
 14 37  1  0  0  0  0
 15 16  2  0  0  0  0
 17 21  1  0  0  0  0
 17 18  1  0  0  0  0
 17 38  1  0  0  0  0
 18 19  1  0  0  0  0
 18 39  1  0  0  0  0
 18 40  1  0  0  0  0
 19 20  1  0  0  0  0
 19 41  1  0  0  0  0
 19 42  1  0  0  0  0
 20 21  1  0  0  0  0
 20 43  1  0  0  0  0
 20 44  1  0  0  0  0
M  END
> <s_m_source_file>
AV-unprocessed.smi

> <i_m_source_file_index>
2925

> <i_lp_mmshare_version>
43012

> <i_f3d_flags>
0

> <s_epik_input>
TzFbQ0gyXVtDSDJdW0NIMl1bQ0BIXTFbQ0BIXShbQ0gyXVtDSDNdKVtOSF1DKD1PKVtOSF1jMmMoW0NIM10pW2NIXVtjSF1uKFtDSDNdKWMyPU8=

> <s_epik_cmdline>
J2VwaWtfcHl0aG9uJywgJy1waCcsICc3LjAnLCAnLXRuJywgJzgnLCAnLW1hJywgJzIwMCcsICctbWV0YWxfYmluZGluZycsICctaW1hZScsICc8aW5maWxlLm1hZT4nLCAnLW9tYWUnLCAnPG91dGZpbGUubWFlPic=

> <r_lp_tautomer_probability>
1

> <r_epik_Ionization_Penalty>
2.58789e-05

> <r_epik_Ionization_Penalty_Charging>
6.72534e-06

> <r_epik_Ionization_Penalty_Neutral>
1.91535e-05

> <r_epik_State_Penalty>
-0

> <r_epik_Charging_Adjusted_Penalty>
6.72534e-06

> <i_epik_Tot_Q>
0

> <i_epik_Tot_abs_Q>
0

> <r_epik_Metal_State_Penalty>
-0

> <b_epik_Metal_Only>
0

> <s_lp_Force_Field>
OPLS_2005

> <r_lp_Energy>
35.3317

> <b_lp_Chiralities_Consistent>
1

> <s_lp_Variant>
AV-unprocessed.smi:2925-4

> <Gold.Version>
5.8.1

> <Gold.Id.Protein>
6NUR|6NUR_protein|mol2

> <Gold.PLP.Fitness>
44.0278

> <Gold.PLP.PLP>
-35.3715

> <Gold.PLP.part.hbond>
-2.0000

> <Gold.PLP.part.metal>
0.0000

> <Gold.PLP.part.buried>
-0.1086

> <Gold.PLP.part.nonpolar>
-32.2061

> <Gold.PLP.part.repulsive>
0.2344

> <Gold.PLP.ligand.clash>
0.0000

> <Gold.PLP.ligand.torsion>
0.4889

> <Gold.PLP.Chemscore.Hbond>
2.0000

> <Gold.PLP.Chemscore.CHOScore>
1.0000

> <Gold.PLP.Chemscore.Metal>
0.0000

> <Gold.Chemscore.Hbonds>
donor molecule, donor type, donor heavy atom, donor atom, acceptor molecule, acceptor atom, score
      L1  H     4    28       P1  7948  1.00
      L1  H     7    29       P1  7948  1.00
      L1  C    12    34       P1  8028  1.00

> <Gold.PLP.Chemscore.Internal.Correction>
0.6342

> <Gold.Rescore>
     Score         DG    S(hbond)    S(metal)    S(lipo)     H(rot)  DE(clash)    DE(int)     intcor
     11.70     -15.87       1.56        0.00      73.91       1.36       0.07       4.10       ----

> <Gold.Chemscore.Fitness>
11.7000

> <Gold.Chemscore.DG>
-15.8730

> <Gold.Chemscore.ZeroCoef>
-5.4800

> <Gold.Chemscore.Hbond>
1.5635

> <Gold.Chemscore.Metal>
0.0000

> <Gold.Chemscore.Lipo>
73.9082

> <Gold.Chemscore.Internal_Hbond>
0.0000

> <Gold.Chemscore.DEClash>
0.0745

> <Gold.Chemscore.DEInternal>
4.0985

> <Gold.Chemscore.Rot>
1.3579

> <Gold.Chemscore.Internal.Correction>
   9.000000E+99

> <Gold.Chemscore.Hbonds>
donor molecule, donor type, donor heavy atom, donor atom, acceptor molecule, acceptor atom, score
      L1  H     4    28       P1  7948  0.38
      L1  H     7    29       P1  7948  0.97

> <Gold.Chemscore.Hbond.Weighted>
-5.2221

> <Gold.Chemscore.Metal.Weighted>
-0.0000

> <Gold.Chemscore.Lipo.Weighted>
-8.6473

> <Gold.Chemscore.Internal_Hbond.Weighted>
0.0000

> <Gold.Chemscore.DEClash.Weighted>
0.0745

> <Gold.Chemscore.DEInternal.Weighted>
4.0985

> <Gold.Chemscore.Rot.Weighted>
3.4763

> <Gold.Chemscore.Internal.Correction.Weighted>
   9.000000E+99

> <Gold.Protein.RotatedTorsions>
[ 6907 6896 6895 6894 ] final   75.65 input  -60.11 | X-H torsion
[ 7974 7965 7964 7962 ] final  146.27 input  175.53 | X-H torsion
[ 8008 7997 7996 7995 ] final  -75.98 input   59.86 | X-H torsion
[ 10167 10162 10161 10158 ] final  161.81 input  -65.29 | X-H torsion
[ 10718 10713 10712 10709 ] final  155.91 input   66.30 | X-H torsion
[ 10763 10752 10751 10750 ] final   46.27 input  -60.55 | X-H torsion
[ 11005 11000 10999 10996 ] final -139.37 input  -57.11 | X-H torsion

> <Gold.Protein.ActiveResidues>
 VAL166  LYS551  ARG553  GLY616  TRP617  ASP618  TYR619  PRO620  LYS621  CYS622 
 ASP623  PHE694  ASN695  SER759  ASP760  ASP761  ALA762  ILE779  LEU786  VAL792 
 PHE793  MET794  SER795  GLU796  ALA797  LYS798  CYS799  TRP800  GLU811  SER814 

> <Gold.Protein.RotatedAtoms>
  152.5036  134.4088  159.9441 H   0  0  0  0  0  0  0  0  0  0  0  0  # atno 6907 bound_to 6896
  151.4055  133.3738  159.2745 H   0  0  0  0  0  0  0  0  0  0  0  0  # atno 6908 bound_to 6896
  150.9330  134.8765  159.7623 H   0  0  0  0  0  0  0  0  0  0  0  0  # atno 6909 bound_to 6896
  144.8685  139.5884  143.5898 H   0  0  0  0  0  0  0  0  0  0  0  0  # atno 7974 bound_to 7965
  154.5465  140.0735  156.8597 H   0  0  0  0  0  0  0  0  0  0  0  0  # atno 8008 bound_to 7997
  155.3078  140.3388  155.4227 H   0  0  0  0  0  0  0  0  0  0  0  0  # atno 8009 bound_to 7997
  156.1922  140.1690  156.8055 H   0  0  0  0  0  0  0  0  0  0  0  0  # atno 8010 bound_to 7997
  139.4853  144.4500  151.8842 H   0  0  0  0  0  0  0  0  0  0  0  0  # atno 10167 bound_to 10162
  157.2121  131.0700  151.1963 H   0  0  0  0  0  0  0  0  0  0  0  0  # atno 10718 bound_to 10713
  152.9813  135.6013  154.3571 H   0  0  0  0  0  0  0  0  0  0  0  0  # atno 10763 bound_to 10752
  154.3256  135.2769  155.2499 H   0  0  0  0  0  0  0  0  0  0  0  0  # atno 10764 bound_to 10752
  154.4646  135.5957  153.6335 H   0  0  0  0  0  0  0  0  0  0  0  0  # atno 10765 bound_to 10752
  140.8526  134.2266  157.4752 H   0  0  0  0  0  0  0  0  0  0  0  0  # atno 11005 bound_to 11000
  146.2913  139.7148  142.9159 LP  0  0  0  0  0  0  0  0  0  0  0  0  # atno 17320 bound_to 7965
  145.4176  141.0403  143.2982 LP  0  0  0  0  0  0  0  0  0  0  0  0  # atno 17321 bound_to 7965
  140.3956  144.2559  150.5896 LP  0  0  0  0  0  0  0  0  0  0  0  0  # atno 17342 bound_to 10162
  140.5105  143.2292  151.8542 LP  0  0  0  0  0  0  0  0  0  0  0  0  # atno 17343 bound_to 10162
  157.3662  130.7157  149.6534 LP  0  0  0  0  0  0  0  0  0  0  0  0  # atno 17370 bound_to 10713
  155.9690  130.4211  150.4456 LP  0  0  0  0  0  0  0  0  0  0  0  0  # atno 17371 bound_to 10713
  139.8704  134.9691  156.4654 LP  0  0  0  0  0  0  0  0  0  0  0  0  # atno 17394 bound_to 11000
  140.8772  133.7944  155.9428 LP  0  0  0  0  0  0  0  0  0  0  0  0  # atno 17395 bound_to 11000

$$$$
