AV-unprocessed.smi:3082|AV-procd|sdf|11743|dock4
  -GOLD-   2272017133D 1   1.00000     0.00000
 Structure written by MMmdl.
 28 29  0  0  0  0  0  0  0  0  2 V2000
  153.1786  142.2761  161.8458 C   0  0  0  0  0  0  0  0  0  0  0  0
  153.0443  141.6707  160.4783 C   0  0  0  0  0  0  0  0  0  0  0  0
  153.7673  140.5725  159.9328 C   0  0  0  0  0  0  0  0  0  0  0  0
  153.4049  140.2844  158.6937 N   0  0  0  0  0  0  0  0  0  0  0  0
  152.4413  141.1860  158.4018 N   0  0  0  0  0  0  0  0  0  0  0  0
  151.7949  141.1744  157.0979 C   0  0  1  0  0  0  0  0  0  0  0  0
  151.1666  139.8007  156.7877 C   0  0  0  0  0  0  0  0  0  0  0  0
  150.4745  139.8287  155.4163 C   0  0  0  0  0  0  0  0  0  0  0  0
  149.4505  140.9737  155.3413 C   0  0  0  0  0  0  0  0  0  0  0  0
  150.0912  142.2708  155.6504 N   0  3  0  0  0  0  0  0  0  0  0  0
  150.7371  142.2930  156.9812 C   0  0  0  0  0  0  0  0  0  0  0  0
  152.2065  142.0356  159.4627 C   0  0  0  0  0  0  0  0  0  0  0  0
  153.9521  141.7821  162.4344 H   0  0  0  0  0  0  0  0  0  0  0  0
  152.2493  142.2017  162.4110 H   0  0  0  0  0  0  0  0  0  0  0  0
  153.4413  143.3328  161.7936 H   0  0  0  0  0  0  0  0  0  0  0  0
  154.5396  139.9784  160.3988 H   0  0  0  0  0  0  0  0  0  0  0  0
  152.5713  141.3655  156.3548 H   0  0  0  0  0  0  0  0  0  0  0  0
  151.9308  139.0228  156.8041 H   0  0  0  0  0  0  0  0  0  0  0  0
  150.4361  139.5358  157.5535 H   0  0  0  0  0  0  0  0  0  0  0  0
  151.2215  139.9518  154.6311 H   0  0  0  0  0  0  0  0  0  0  0  0
  149.9818  138.8744  155.2279 H   0  0  0  0  0  0  0  0  0  0  0  0
  149.0099  141.0230  154.3452 H   0  0  0  0  0  0  0  0  0  0  0  0
  148.6341  140.8000  156.0437 H   0  0  0  0  0  0  0  0  0  0  0  0
  150.7936  142.4577  154.9493 H   0  0  0  0  0  0  0  0  0  0  0  0
  149.9665  142.1827  157.7457 H   0  0  0  0  0  0  0  0  0  0  0  0
  151.1982  143.2694  157.1327 H   0  0  0  0  0  0  0  0  0  0  0  0
  151.4686  142.8227  159.4102 H   0  0  0  0  0  0  0  0  0  0  0  0
  149.3921  142.9989  155.6140 H   0  0  0  0  0  0  0  0  0  0  0  0
  1  2  1  0  0  0  0
  1 13  1  0  0  0  0
  1 14  1  0  0  0  0
  1 15  1  0  0  0  0
  2 12  2  0  0  0  0
  2  3  1  0  0  0  0
  3  4  2  0  0  0  0
  3 16  1  0  0  0  0
  4  5  1  0  0  0  0
  5  6  1  0  0  0  0
  5 12  1  0  0  0  0
  6 11  1  0  0  0  0
  6  7  1  0  0  0  0
  6 17  1  0  0  0  0
  7  8  1  0  0  0  0
  7 18  1  0  0  0  0
  7 19  1  0  0  0  0
  8  9  1  0  0  0  0
  8 20  1  0  0  0  0
  8 21  1  0  0  0  0
  9 10  1  0  0  0  0
  9 22  1  0  0  0  0
  9 23  1  0  0  0  0
 10 11  1  0  0  0  0
 10 24  1  0  0  0  0
 10 28  1  0  0  0  0
 11 25  1  0  0  0  0
 11 26  1  0  0  0  0
 12 27  1  0  0  0  0
M  CHG  1  10   1
M  END
> <s_m_source_file>
AV-unprocessed.smi

> <i_m_source_file_index>
3082

> <i_lp_mmshare_version>
43012

> <i_f3d_flags>
0

> <s_epik_input>
W0NIM11jMVtjSF1ubihbY0hdMSlbQ0BASF0yW0NIMl1bQ0gyXVtDSDJdW05IXVtDSDJdMg==

> <s_epik_cmdline>
J2VwaWtfcHl0aG9uJywgJy1waCcsICc3LjAnLCAnLXRuJywgJzgnLCAnLW1hJywgJzIwMCcsICctbWV0YWxfYmluZGluZycsICctaW1hZScsICc8aW5maWxlLm1hZT4nLCAnLW9tYWUnLCAnPG91dGZpbGUubWFlPic=

> <r_lp_tautomer_probability>
1

> <r_epik_Ionization_Penalty>
0.000667973

> <r_epik_Ionization_Penalty_Charging>
0.000651447

> <r_epik_Ionization_Penalty_Neutral>
1.65255e-05

> <r_epik_State_Penalty>
-0

> <r_epik_Charging_Adjusted_Penalty>
0.000651447

> <i_epik_Tot_Q>
1

> <i_epik_Tot_abs_Q>
1

> <r_epik_Metal_State_Penalty>
-0

> <b_epik_Metal_Only>
0

> <s_lp_Force_Field>
OPLS_2005

> <r_lp_Energy>
15.6496

> <b_lp_Chiralities_Consistent>
1

> <s_lp_Variant>
AV-unprocessed.smi:3082-2

> <Gold.Version>
5.8.1

> <Gold.Id.Protein>
6NUR|6NUR_protein|mol2

> <Gold.PLP.Fitness>
34.4817

> <Gold.PLP.PLP>
-25.7806

> <Gold.PLP.part.hbond>
-2.0000

> <Gold.PLP.part.metal>
0.0000

> <Gold.PLP.part.buried>
-1.9646

> <Gold.PLP.part.nonpolar>
-21.0095

> <Gold.PLP.part.repulsive>
0.1715

> <Gold.PLP.ligand.clash>
0.0000

> <Gold.PLP.ligand.torsion>
0.0144

> <Gold.PLP.Chemscore.Hbond>
2.9040

> <Gold.PLP.Chemscore.CHOScore>
0.0000

> <Gold.PLP.Chemscore.Metal>
0.0000

> <Gold.Chemscore.Hbonds>
donor molecule, donor type, donor heavy atom, donor atom, acceptor molecule, acceptor atom, score
      L1  H    10    28       P1  8028  2.00
      P1  H  7997  8008       L1     4  0.89

> <Gold.PLP.Chemscore.Internal.Correction>
0.0179

> <Gold.Rescore>
     Score         DG    S(hbond)    S(metal)    S(lipo)     H(rot)  DE(clash)    DE(int)     intcor
     16.85     -17.14       1.78        0.00      70.74       1.00       0.27       0.02       ----

> <Gold.Chemscore.Fitness>
16.8527

> <Gold.Chemscore.DG>
-17.1432

> <Gold.Chemscore.ZeroCoef>
-5.4800

> <Gold.Chemscore.Hbond>
1.7803

> <Gold.Chemscore.Metal>
0.0000

> <Gold.Chemscore.Lipo>
70.7421

> <Gold.Chemscore.Internal_Hbond>
0.0000

> <Gold.Chemscore.DEClash>
0.2696

> <Gold.Chemscore.DEInternal>
0.0209

> <Gold.Chemscore.Rot>
1.0000

> <Gold.Chemscore.Internal.Correction>
   9.000000E+99

> <Gold.Chemscore.Hbonds>
donor molecule, donor type, donor heavy atom, donor atom, acceptor molecule, acceptor atom, score
      L1  H    10    28       P1  8028  0.97
      P1  H  7997  8008       L1     4  0.64

> <Gold.Chemscore.Hbond.Weighted>
-5.9463

> <Gold.Chemscore.Metal.Weighted>
-0.0000

> <Gold.Chemscore.Lipo.Weighted>
-8.2768

> <Gold.Chemscore.Internal_Hbond.Weighted>
0.0000

> <Gold.Chemscore.DEClash.Weighted>
0.2696

> <Gold.Chemscore.DEInternal.Weighted>
0.0209

> <Gold.Chemscore.Rot.Weighted>
2.5600

> <Gold.Chemscore.Internal.Correction.Weighted>
   9.000000E+99

> <Gold.Protein.RotatedTorsions>
[ 6907 6896 6895 6894 ] final  116.71 input  -60.11 | X-H torsion
[ 7974 7965 7964 7962 ] final  -38.24 input  175.53 | X-H torsion
[ 8008 7997 7996 7995 ] final  -94.77 input   59.86 | X-H torsion
[ 10167 10162 10161 10158 ] final   59.24 input  -65.29 | X-H torsion
[ 10718 10713 10712 10709 ] final  -48.26 input   66.30 | X-H torsion
[ 10763 10752 10751 10750 ] final  132.63 input  -60.55 | X-H torsion
[ 11005 11000 10999 10996 ] final  154.88 input  -57.11 | X-H torsion

> <Gold.Protein.ActiveResidues>
 VAL166  LYS551  ARG553  GLY616  TRP617  ASP618  TYR619  PRO620  LYS621  CYS622 
 ASP623  PHE694  ASN695  SER759  ASP760  ASP761  ALA762  ILE779  LEU786  VAL792 
 PHE793  MET794  SER795  GLU796  ALA797  LYS798  CYS799  TRP800  GLU811  SER814 

> <Gold.Protein.RotatedAtoms>
  152.4660  133.7924  159.6908 H   0  0  0  0  0  0  0  0  0  0  0  0  # atno 6907 bound_to 6896
  150.8625  133.7613  159.2994 H   0  0  0  0  0  0  0  0  0  0  0  0  # atno 6908 bound_to 6896
  151.5174  135.1069  159.9921 H   0  0  0  0  0  0  0  0  0  0  0  0  # atno 6909 bound_to 6896
  146.0504  140.6488  142.9044 H   0  0  0  0  0  0  0  0  0  0  0  0  # atno 7974 bound_to 7965
  154.7527  140.0486  157.0907 H   0  0  0  0  0  0  0  0  0  0  0  0  # atno 8008 bound_to 7997
  155.0036  140.3127  155.4838 H   0  0  0  0  0  0  0  0  0  0  0  0  # atno 8009 bound_to 7997
  156.2888  140.2197  156.5147 H   0  0  0  0  0  0  0  0  0  0  0  0  # atno 8010 bound_to 7997
  140.1785  144.4206  150.6626 H   0  0  0  0  0  0  0  0  0  0  0  0  # atno 10167 bound_to 10162
  156.2005  130.4156  149.9247 H   0  0  0  0  0  0  0  0  0  0  0  0  # atno 10718 bound_to 10713
  153.7938  135.3151  155.3382 H   0  0  0  0  0  0  0  0  0  0  0  0  # atno 10763 bound_to 10752
  154.8115  135.4664  154.0532 H   0  0  0  0  0  0  0  0  0  0  0  0  # atno 10764 bound_to 10752
  153.1859  135.6901  153.8503 H   0  0  0  0  0  0  0  0  0  0  0  0  # atno 10765 bound_to 10752
  140.1530  134.8662  157.2478 H   0  0  0  0  0  0  0  0  0  0  0  0  # atno 11005 bound_to 11000
  144.7120  140.4072  143.7073 LP  0  0  0  0  0  0  0  0  0  0  0  0  # atno 17320 bound_to 7965
  145.6734  139.1603  143.2742 LP  0  0  0  0  0  0  0  0  0  0  0  0  # atno 17321 bound_to 7965
  140.6535  143.2231  151.6022 LP  0  0  0  0  0  0  0  0  0  0  0  0  # atno 17342 bound_to 10162
  139.5306  144.2926  152.1139 LP  0  0  0  0  0  0  0  0  0  0  0  0  # atno 17343 bound_to 10162
  156.6958  130.8914  151.3594 LP  0  0  0  0  0  0  0  0  0  0  0  0  # atno 17370 bound_to 10713
  157.6983  130.9305  150.0709 LP  0  0  0  0  0  0  0  0  0  0  0  0  # atno 17371 bound_to 10713
  140.2582  134.3602  155.7416 LP  0  0  0  0  0  0  0  0  0  0  0  0  # atno 17394 bound_to 11000
  141.2201  133.7354  156.9039 LP  0  0  0  0  0  0  0  0  0  0  0  0  # atno 17395 bound_to 11000

$$$$
