AV-unprocessed.smi:2069|AV-procd|sdf|8435|dock10
  -GOLD-   2272011133D 1   1.00000     0.00000
 Structure written by MMmdl.
 37 38  0  0  0  0  0  0  0  0  2 V2000
  149.2080  140.8500  154.3106 C   0  0  0  0  0  0  0  0  0  0  0  0
  149.9548  139.5697  154.4657 C   0  0  0  0  0  0  0  0  0  0  0  0
  151.2884  139.5084  154.4735 N   0  0  0  0  0  0  0  0  0  0  0  0
  151.7513  138.2095  154.6269 N   0  0  0  0  0  0  0  0  0  0  0  0
  150.7646  137.3074  154.7223 C   0  0  0  0  0  0  0  0  0  0  0  0
  151.0024  135.9945  154.8788 N   0  5  0  0  0  0  0  0  0  0  0  0
  149.9743  135.1408  155.0867 C   0  0  0  0  0  0  0  0  0  0  0  0
  148.8926  135.4138  155.6127 O   0  0  0  0  0  0  0  0  0  0  0  0
  150.2162  133.8918  154.6635 N   0  0  0  0  0  0  0  0  0  0  0  0
  149.3008  132.7579  154.7717 C   0  0  0  0  0  0  0  0  0  0  0  0
  148.3544  132.6043  153.5448 C   0  0  2  0  0  0  0  0  0  0  0  0
  147.3951  133.8209  153.4973 C   0  0  0  0  0  0  0  0  0  0  0  0
  147.6354  131.3086  153.5147 N   0  0  0  0  0  0  0  0  0  0  0  0
  148.5427  130.1553  153.5077 C   0  0  0  0  0  0  0  0  0  0  0  0
  147.7992  128.8101  153.4386 C   0  0  0  0  0  0  0  0  0  0  0  0
  146.9642  128.7802  152.2894 O   0  0  0  0  0  0  0  0  0  0  0  0
  146.0150  129.8373  152.2945 C   0  0  0  0  0  0  0  0  0  0  0  0
  146.7455  131.1899  152.3538 C   0  0  0  0  0  0  0  0  0  0  0  0
  149.1525  138.0190  154.6486 S   0  0  0  0  0  0  0  0  0  0  0  0
  149.2027  141.1527  153.2633 H   0  0  0  0  0  0  0  0  0  0  0  0
  149.6787  141.6361  154.9017 H   0  0  0  0  0  0  0  0  0  0  0  0
  148.1778  140.7311  154.6467 H   0  0  0  0  0  0  0  0  0  0  0  0
  151.1137  133.7135  154.2373 H   0  0  0  0  0  0  0  0  0  0  0  0
  149.9177  131.8739  154.9273 H   0  0  0  0  0  0  0  0  0  0  0  0
  148.7118  132.8858  155.6802 H   0  0  0  0  0  0  0  0  0  0  0  0
  148.9779  132.6584  152.6510 H   0  0  0  0  0  0  0  0  0  0  0  0
  147.9235  134.7708  153.5693 H   0  0  0  0  0  0  0  0  0  0  0  0
  146.6737  133.7853  154.3143 H   0  0  0  0  0  0  0  0  0  0  0  0
  146.8424  133.8765  152.5609 H   0  0  0  0  0  0  0  0  0  0  0  0
  149.2338  130.2323  152.6668 H   0  0  0  0  0  0  0  0  0  0  0  0
  149.1451  130.1334  154.4133 H   0  0  0  0  0  0  0  0  0  0  0  0
  148.5117  127.9871  153.3822 H   0  0  0  0  0  0  0  0  0  0  0  0
  147.2006  128.6533  154.3373 H   0  0  0  0  0  0  0  0  0  0  0  0
  145.4086  129.7742  151.3910 H   0  0  0  0  0  0  0  0  0  0  0  0
  145.3379  129.7260  153.1430 H   0  0  0  0  0  0  0  0  0  0  0  0
  145.9805  131.9639  152.3752 H   0  0  0  0  0  0  0  0  0  0  0  0
  147.3159  131.3327  151.4348 H   0  0  0  0  0  0  0  0  0  0  0  0
  1  2  1  0  0  0  0
  1 20  1  0  0  0  0
  1 21  1  0  0  0  0
  1 22  1  0  0  0  0
  2 19  1  0  0  0  0
  2  3  2  0  0  0  0
  3  4  1  0  0  0  0
  4  5  2  0  0  0  0
  5  6  1  0  0  0  0
  5 19  1  0  0  0  0
  6  7  1  0  0  0  0
  7  8  2  0  0  0  0
  7  9  1  0  0  0  0
  9 10  1  0  0  0  0
  9 23  1  0  0  0  0
 10 11  1  0  0  0  0
 10 24  1  0  0  0  0
 10 25  1  0  0  0  0
 11 12  1  0  0  0  0
 11 13  1  0  0  0  0
 11 26  1  0  0  0  0
 12 27  1  0  0  0  0
 12 28  1  0  0  0  0
 12 29  1  0  0  0  0
 13 18  1  0  0  0  0
 13 14  1  0  0  0  0
 14 15  1  0  0  0  0
 14 30  1  0  0  0  0
 14 31  1  0  0  0  0
 15 16  1  0  0  0  0
 15 32  1  0  0  0  0
 15 33  1  0  0  0  0
 16 17  1  0  0  0  0
 17 18  1  0  0  0  0
 17 34  1  0  0  0  0
 17 35  1  0  0  0  0
 18 36  1  0  0  0  0
 18 37  1  0  0  0  0
M  CHG  1   6  -1
M  END
> <s_m_source_file>
AV-unprocessed.smi

> <i_m_source_file_index>
2069

> <i_lp_mmshare_version>
43012

> <i_f3d_flags>
0

> <s_epik_input>
W0NIM11jMW5uYyhzMSlbTkhdQyg9TylbTkhdW0NIMl1bQ0BIXShbQ0gzXSlOMltDSDJdW0NIMl1PW0NIMl1bQ0gyXTI=

> <s_epik_cmdline>
J2VwaWtfcHl0aG9uJywgJy1waCcsICc3LjAnLCAnLXRuJywgJzgnLCAnLW1hJywgJzIwMCcsICctbWV0YWxfYmluZGluZycsICctaW1hZScsICc8aW5maWxlLm1hZT4nLCAnLW9tYWUnLCAnPG91dGZpbGUubWFlPic=

> <r_lp_tautomer_probability>
1

> <r_epik_Ionization_Penalty>
3.82002

> <r_epik_Ionization_Penalty_Charging>
3.36369

> <r_epik_Ionization_Penalty_Neutral>
0.456339

> <r_epik_State_Penalty>
3.571

> <r_epik_Charging_Adjusted_Penalty>
6.93469

> <i_epik_Tot_Q>
-1

> <i_epik_Tot_abs_Q>
1

> <r_epik_Metal_State_Penalty>
0.710436

> <b_epik_Metal_Only>
1

> <s_lp_Force_Field>
OPLS_2005

> <r_lp_Energy>
26.0796

> <b_lp_Chiralities_Consistent>
1

> <s_lp_Variant>
AV-unprocessed.smi:2069-5

> <Gold.Version>
5.8.1

> <Gold.Id.Protein>
6NUR|6NUR_protein|mol2

> <Gold.PLP.Fitness>
36.0250

> <Gold.PLP.PLP>
-27.7584

> <Gold.PLP.part.hbond>
-2.0000

> <Gold.PLP.part.metal>
0.0000

> <Gold.PLP.part.buried>
-3.0226

> <Gold.PLP.part.nonpolar>
-23.5184

> <Gold.PLP.part.repulsive>
0.7191

> <Gold.PLP.ligand.clash>
0.0000

> <Gold.PLP.ligand.torsion>
0.4061

> <Gold.PLP.Chemscore.Hbond>
3.0000

> <Gold.PLP.Chemscore.CHOScore>
0.0000

> <Gold.PLP.Chemscore.Metal>
0.0000

> <Gold.Chemscore.Hbonds>
donor molecule, donor type, donor heavy atom, donor atom, acceptor molecule, acceptor atom, score
      P1  H  7989  7998       L1     3  1.00
      P1  H 10752 10765       L1     6  2.00

> <Gold.PLP.Chemscore.Internal.Correction>
0.0788

> <Gold.Rescore>
     Score         DG    S(hbond)    S(metal)    S(lipo)     H(rot)  DE(clash)    DE(int)     intcor
     12.10     -14.17       1.83        0.00      56.37       1.57       0.30       1.77       ----

> <Gold.Chemscore.Fitness>
12.1011

> <Gold.Chemscore.DG>
-14.1722

> <Gold.Chemscore.ZeroCoef>
-5.4800

> <Gold.Chemscore.Hbond>
1.8337

> <Gold.Chemscore.Metal>
0.0000

> <Gold.Chemscore.Lipo>
56.3677

> <Gold.Chemscore.Internal_Hbond>
0.0000

> <Gold.Chemscore.DEClash>
0.2975

> <Gold.Chemscore.DEInternal>
1.7736

> <Gold.Chemscore.Rot>
1.5732

> <Gold.Chemscore.Internal.Correction>
   9.000000E+99

> <Gold.Chemscore.Hbonds>
donor molecule, donor type, donor heavy atom, donor atom, acceptor molecule, acceptor atom, score
      P1  H  7989  7998       L1     3  0.26
      P1  H 10752 10765       L1     6  0.76

> <Gold.Chemscore.Hbond.Weighted>
-6.1246

> <Gold.Chemscore.Metal.Weighted>
-0.0000

> <Gold.Chemscore.Lipo.Weighted>
-6.5950

> <Gold.Chemscore.Internal_Hbond.Weighted>
0.0000

> <Gold.Chemscore.DEClash.Weighted>
0.2975

> <Gold.Chemscore.DEInternal.Weighted>
1.7736

> <Gold.Chemscore.Rot.Weighted>
4.0274

> <Gold.Chemscore.Internal.Correction.Weighted>
   9.000000E+99

> <Gold.Protein.RotatedTorsions>
[ 6907 6896 6895 6894 ] final  178.66 input  -60.11 | X-H torsion
[ 7974 7965 7964 7962 ] final   23.50 input  175.53 | X-H torsion
[ 8008 7997 7996 7995 ] final  104.14 input   59.86 | X-H torsion
[ 10167 10162 10161 10158 ] final   86.67 input  -65.29 | X-H torsion
[ 10718 10713 10712 10709 ] final   45.33 input   66.30 | X-H torsion
[ 10763 10752 10751 10750 ] final  179.32 input  -60.55 | X-H torsion
[ 11005 11000 10999 10996 ] final   82.21 input  -57.11 | X-H torsion

> <Gold.Protein.ActiveResidues>
 VAL166  LYS551  ARG553  GLY616  TRP617  ASP618  TYR619  PRO620  LYS621  CYS622 
 ASP623  PHE694  ASN695  SER759  ASP760  ASP761  ALA762  ILE779  LEU786  VAL792 
 PHE793  MET794  SER795  GLU796  ALA797  LYS798  CYS799  TRP800  GLU811  SER814 

> <Gold.Protein.RotatedAtoms>
  151.6842  133.3311  159.3226 H   0  0  0  0  0  0  0  0  0  0  0  0  # atno 6907 bound_to 6896
  150.7808  134.6754  159.6424 H   0  0  0  0  0  0  0  0  0  0  0  0  # atno 6908 bound_to 6896
  152.3865  134.6512  160.0175 H   0  0  0  0  0  0  0  0  0  0  0  0  # atno 6909 bound_to 6896
  146.1981  139.7736  142.8782 H   0  0  0  0  0  0  0  0  0  0  0  0  # atno 7974 bound_to 7965
  156.1547  140.3153  155.8706 H   0  0  0  0  0  0  0  0  0  0  0  0  # atno 8008 bound_to 7997
  155.3902  140.0493  157.3058 H   0  0  0  0  0  0  0  0  0  0  0  0  # atno 8009 bound_to 7997
  154.5090  140.2157  155.9205 H   0  0  0  0  0  0  0  0  0  0  0  0  # atno 8010 bound_to 7997
  139.8852  144.6417  150.8799 H   0  0  0  0  0  0  0  0  0  0  0  0  # atno 10167 bound_to 10162
  157.4364  130.8055  149.7652 H   0  0  0  0  0  0  0  0  0  0  0  0  # atno 10718 bound_to 10713
  154.5192  135.2793  155.1277 H   0  0  0  0  0  0  0  0  0  0  0  0  # atno 10763 bound_to 10752
  154.2842  135.6279  153.5362 H   0  0  0  0  0  0  0  0  0  0  0  0  # atno 10764 bound_to 10752
  152.9933  135.5658  154.5676 H   0  0  0  0  0  0  0  0  0  0  0  0  # atno 10765 bound_to 10752
  139.9071  134.8054  156.2144 H   0  0  0  0  0  0  0  0  0  0  0  0  # atno 11005 bound_to 11000
  145.3575  141.0319  143.3303 LP  0  0  0  0  0  0  0  0  0  0  0  0  # atno 17320 bound_to 7965
  144.8624  139.5157  143.6806 LP  0  0  0  0  0  0  0  0  0  0  0  0  # atno 17321 bound_to 7965
  140.7737  143.3554  151.1932 LP  0  0  0  0  0  0  0  0  0  0  0  0  # atno 17342 bound_to 10162
  139.7159  143.9300  152.2966 LP  0  0  0  0  0  0  0  0  0  0  0  0  # atno 17343 bound_to 10162
  155.9932  130.3926  150.2909 LP  0  0  0  0  0  0  0  0  0  0  0  0  # atno 17370 bound_to 10713
  157.1070  131.0211  151.3063 LP  0  0  0  0  0  0  0  0  0  0  0  0  # atno 17371 bound_to 10713
  141.0445  133.6920  156.1658 LP  0  0  0  0  0  0  0  0  0  0  0  0  # atno 17394 bound_to 11000
  140.6905  134.4671  157.5588 LP  0  0  0  0  0  0  0  0  0  0  0  0  # atno 17395 bound_to 11000

$$$$
