AV-unprocessed.smi:1300|AV-procd|sdf|5420|dock3
  -GOLD-   22720 4573D 1   1.00000     0.00000
 Structure written by MMmdl.
 35 36  0  0  0  0  0  0  0  0  1 V2000
  147.0352  141.1583  154.8337 C   0  0  0  0  0  0  0  0  0  0  0  0
  148.4356  140.6828  155.1224 C   0  0  0  0  0  0  0  0  0  0  0  0
  149.1610  141.4950  155.8183 N   0  0  0  0  0  0  0  0  0  0  0  0
  150.4647  141.1928  156.1544 N   0  0  0  0  0  0  0  0  0  0  0  0
  151.1289  142.2307  156.9529 C   0  0  0  0  0  0  0  0  0  0  0  0
  150.5700  142.3204  158.3896 C   0  0  1  0  0  0  0  0  0  0  0  0
  149.4878  141.4168  158.5145 O   0  0  0  0  0  0  0  0  0  0  0  0
  151.6647  142.0372  159.4109 C   0  0  0  0  0  0  0  0  0  0  0  0
  152.4456  140.8622  159.3211 C   0  0  0  0  0  0  0  0  0  0  0  0
  153.4655  140.6110  160.2588 C   0  0  0  0  0  0  0  0  0  0  0  0
  153.7168  141.5346  161.2905 C   0  0  0  0  0  0  0  0  0  0  0  0
  152.9489  142.7108  161.3820 C   0  0  0  0  0  0  0  0  0  0  0  0
  151.9278  142.9643  160.4452 C   0  0  0  0  0  0  0  0  0  0  0  0
  151.2062  144.1067  160.5427 F   0  0  0  0  0  0  0  0  0  0  0  0
  151.1107  140.0451  155.8027 C   0  0  0  0  0  0  0  0  0  0  0  0
  152.2779  139.8167  156.1241 O   0  0  0  0  0  0  0  0  0  0  0  0
  150.2862  139.1259  155.0154 C   0  0  0  0  0  0  0  0  0  0  0  0
  150.9281  137.9118  154.6250 C   0  0  0  0  0  0  0  0  0  0  0  0
  151.4561  136.9255  154.3275 N   0  0  0  0  0  0  0  0  0  0  0  0
  149.0018  139.4084  154.6809 C   0  0  0  0  0  0  0  0  0  0  0  0
  148.1135  138.4765  153.8676 C   0  0  0  0  0  0  0  0  0  0  0  0
  146.4718  140.4690  154.2075 H   0  0  0  0  0  0  0  0  0  0  0  0
  147.0546  142.1196  154.3189 H   0  0  0  0  0  0  0  0  0  0  0  0
  146.4755  141.2889  155.7604 H   0  0  0  0  0  0  0  0  0  0  0  0
  152.2105  142.0804  156.9746 H   0  0  0  0  0  0  0  0  0  0  0  0
  150.9894  143.1885  156.4476 H   0  0  0  0  0  0  0  0  0  0  0  0
  150.1730  143.3180  158.5789 H   0  0  0  0  0  0  0  0  0  0  0  0
  149.7387  140.7314  159.1148 H   0  0  0  0  0  0  0  0  0  0  0  0
  152.2691  140.1485  158.5295 H   0  0  0  0  0  0  0  0  0  0  0  0
  154.0572  139.7103  160.1847 H   0  0  0  0  0  0  0  0  0  0  0  0
  154.5000  141.3431  162.0089 H   0  0  0  0  0  0  0  0  0  0  0  0
  153.1450  143.4220  162.1708 H   0  0  0  0  0  0  0  0  0  0  0  0
  148.6138  137.5422  153.6157 H   0  0  0  0  0  0  0  0  0  0  0  0
  147.8173  138.9514  152.9318 H   0  0  0  0  0  0  0  0  0  0  0  0
  147.2136  138.2203  154.4281 H   0  0  0  0  0  0  0  0  0  0  0  0
  1  2  1  0  0  0  0
  1 22  1  0  0  0  0
  1 23  1  0  0  0  0
  1 24  1  0  0  0  0
  2 20  1  0  0  0  0
  2  3  2  0  0  0  0
  3  4  1  0  0  0  0
  4  5  1  0  0  0  0
  4 15  1  0  0  0  0
  5  6  1  0  0  0  0
  5 25  1  0  0  0  0
  5 26  1  0  0  0  0
  6  7  1  0  0  0  0
  6  8  1  0  0  0  0
  6 27  1  0  0  0  0
  7 28  1  0  0  0  0
  8 13  1  0  0  0  0
  8  9  2  0  0  0  0
  9 10  1  0  0  0  0
  9 29  1  0  0  0  0
 10 11  2  0  0  0  0
 10 30  1  0  0  0  0
 11 12  1  0  0  0  0
 11 31  1  0  0  0  0
 12 13  2  0  0  0  0
 12 32  1  0  0  0  0
 13 14  1  0  0  0  0
 15 16  2  0  0  0  0
 15 17  1  0  0  0  0
 17 18  1  0  0  0  0
 17 20  2  0  0  0  0
 18 19  3  0  0  0  0
 20 21  1  0  0  0  0
 21 33  1  0  0  0  0
 21 34  1  0  0  0  0
 21 35  1  0  0  0  0
M  END
> <s_m_source_file>
AV-unprocessed.smi

> <i_m_source_file_index>
1300

> <i_lp_mmshare_version>
43012

> <i_f3d_flags>
0

> <s_epik_input>
TiNDYyhjMVtDSDNdKWMoPU8pbihuYzFbQ0gzXSlbQ0gyXVtDQEhdKFtPSF0pYzJbY0hdW2NIXVtjSF1bY0hdYzJG

> <s_epik_cmdline>
J2VwaWtfcHl0aG9uJywgJy1waCcsICc3LjAnLCAnLXRuJywgJzgnLCAnLW1hJywgJzIwMCcsICctbWV0YWxfYmluZGluZycsICctaW1hZScsICc8aW5maWxlLm1hZT4nLCAnLW9tYWUnLCAnPG91dGZpbGUubWFlPic=

> <r_lp_tautomer_probability>
1

> <r_epik_Ionization_Penalty>
7.1854e-08

> <r_epik_Ionization_Penalty_Charging>
1.40848e-10

> <r_epik_Ionization_Penalty_Neutral>
7.17131e-08

> <r_epik_State_Penalty>
-0

> <r_epik_Charging_Adjusted_Penalty>
1.40848e-10

> <i_epik_Tot_Q>
0

> <i_epik_Tot_abs_Q>
0

> <r_epik_Metal_State_Penalty>
-0

> <b_epik_Metal_Only>
0

> <s_lp_Force_Field>
OPLS_2005

> <r_lp_Energy>
29.2167

> <b_lp_Chiralities_Consistent>
1

> <s_lp_Variant>
AV-unprocessed.smi:1300-2

> <Gold.Version>
5.8.1

> <Gold.Id.Protein>
6NUR|6NUR_protein|mol2

> <Gold.PLP.Fitness>
50.0069

> <Gold.PLP.PLP>
-45.8990

> <Gold.PLP.part.hbond>
-2.0000

> <Gold.PLP.part.metal>
0.0000

> <Gold.PLP.part.buried>
-3.4329

> <Gold.PLP.part.nonpolar>
-39.9526

> <Gold.PLP.part.repulsive>
1.5116

> <Gold.PLP.ligand.clash>
0.0000

> <Gold.PLP.ligand.torsion>
0.9502

> <Gold.PLP.Chemscore.Hbond>
2.0000

> <Gold.PLP.Chemscore.CHOScore>
0.0000

> <Gold.PLP.Chemscore.Metal>
0.0000

> <Gold.Chemscore.Hbonds>
donor molecule, donor type, donor heavy atom, donor atom, acceptor molecule, acceptor atom, score
      P1  H  7997  8009       L1    16  0.71
      P1  H 10752 10763       L1    19  1.00

> <Gold.PLP.Chemscore.Internal.Correction>
0.0084

> <Gold.Rescore>
     Score         DG    S(hbond)    S(metal)    S(lipo)     H(rot)  DE(clash)    DE(int)     intcor
     17.47     -20.21       1.95        0.00     113.86       2.00       1.71       1.03       ----

> <Gold.Chemscore.Fitness>
17.4681

> <Gold.Chemscore.DG>
-20.2134

> <Gold.Chemscore.ZeroCoef>
-5.4800

> <Gold.Chemscore.Hbond>
1.9525

> <Gold.Chemscore.Metal>
0.0000

> <Gold.Chemscore.Lipo>
113.8615

> <Gold.Chemscore.Internal_Hbond>
0.0000

> <Gold.Chemscore.DEClash>
1.7112

> <Gold.Chemscore.DEInternal>
1.0342

> <Gold.Chemscore.Rot>
1.9960

> <Gold.Chemscore.Internal.Correction>
   9.000000E+99

> <Gold.Chemscore.Hbonds>
donor molecule, donor type, donor heavy atom, donor atom, acceptor molecule, acceptor atom, score
      P1  H  7997  8009       L1    16  0.69
      P1  H 10752 10763       L1    19  0.98

> <Gold.Chemscore.Hbond.Weighted>
-6.5213

> <Gold.Chemscore.Metal.Weighted>
-0.0000

> <Gold.Chemscore.Lipo.Weighted>
-13.3218

> <Gold.Chemscore.Internal_Hbond.Weighted>
0.0000

> <Gold.Chemscore.DEClash.Weighted>
1.7112

> <Gold.Chemscore.DEInternal.Weighted>
1.0342

> <Gold.Chemscore.Rot.Weighted>
5.1097

> <Gold.Chemscore.Internal.Correction.Weighted>
   9.000000E+99

> <Gold.Protein.RotatedTorsions>
[ 6907 6896 6895 6894 ] final -170.67 input  -60.11 | X-H torsion
[ 7974 7965 7964 7962 ] final   78.00 input  175.53 | X-H torsion
[ 8008 7997 7996 7995 ] final -177.44 input   59.86 | X-H torsion
[ 10167 10162 10161 10158 ] final   75.32 input  -65.29 | X-H torsion
[ 10718 10713 10712 10709 ] final -121.17 input   66.30 | X-H torsion
[ 10763 10752 10751 10750 ] final   36.74 input  -60.55 | X-H torsion
[ 11005 11000 10999 10996 ] final  -52.50 input  -57.11 | X-H torsion

> <Gold.Protein.ActiveResidues>
 VAL166  LYS551  ARG553  GLY616  TRP617  ASP618  TYR619  PRO620  LYS621  CYS622 
 ASP623  PHE694  ASN695  SER759  ASP760  ASP761  ALA762  ILE779  LEU786  VAL792 
 PHE793  MET794  SER795  GLU796  ALA797  LYS798  CYS799  TRP800  GLU811  SER814 

> <Gold.Protein.RotatedAtoms>
  151.5114  133.3484  159.2885 H   0  0  0  0  0  0  0  0  0  0  0  0  # atno 6907 bound_to 6896
  150.8710  134.8085  159.7165 H   0  0  0  0  0  0  0  0  0  0  0  0  # atno 6908 bound_to 6896
  152.4698  134.4998  159.9773 H   0  0  0  0  0  0  0  0  0  0  0  0  # atno 6909 bound_to 6896
  145.6828  139.2529  143.1804 H   0  0  0  0  0  0  0  0  0  0  0  0  # atno 7974 bound_to 7965
  156.0069  140.1232  157.0492 H   0  0  0  0  0  0  0  0  0  0  0  0  # atno 8008 bound_to 7997
  154.4262  140.1095  156.5844 H   0  0  0  0  0  0  0  0  0  0  0  0  # atno 8009 bound_to 7997
  155.6134  140.3471  155.4631 H   0  0  0  0  0  0  0  0  0  0  0  0  # atno 8010 bound_to 7997
  140.0042  144.5663  150.7712 H   0  0  0  0  0  0  0  0  0  0  0  0  # atno 10167 bound_to 10162
  156.1315  130.6399  150.9629 H   0  0  0  0  0  0  0  0  0  0  0  0  # atno 10718 bound_to 10713
  153.0065  135.6297  154.2034 H   0  0  0  0  0  0  0  0  0  0  0  0  # atno 10763 bound_to 10752
  154.1777  135.2815  155.3063 H   0  0  0  0  0  0  0  0  0  0  0  0  # atno 10764 bound_to 10752
  154.5859  135.5633  153.7290 H   0  0  0  0  0  0  0  0  0  0  0  0  # atno 10765 bound_to 10752
  141.0928  133.6630  156.4034 H   0  0  0  0  0  0  0  0  0  0  0  0  # atno 11005 bound_to 11000
  146.0950  140.7611  142.9577 LP  0  0  0  0  0  0  0  0  0  0  0  0  # atno 17320 bound_to 7965
  144.7021  140.3697  143.7148 LP  0  0  0  0  0  0  0  0  0  0  0  0  # atno 17321 bound_to 7965
  140.7407  143.2808  151.3605 LP  0  0  0  0  0  0  0  0  0  0  0  0  # atno 17342 bound_to 10162
  139.6250  144.0832  152.2426 LP  0  0  0  0  0  0  0  0  0  0  0  0  # atno 17343 bound_to 10162
  157.6493  131.0899  150.8086 LP  0  0  0  0  0  0  0  0  0  0  0  0  # atno 17370 bound_to 10713
  156.8170  130.4971  149.5348 LP  0  0  0  0  0  0  0  0  0  0  0  0  # atno 17371 bound_to 10713
  140.5212  134.6302  157.5319 LP  0  0  0  0  0  0  0  0  0  0  0  0  # atno 17394 bound_to 11000
  139.9757  134.7219  155.9954 LP  0  0  0  0  0  0  0  0  0  0  0  0  # atno 17395 bound_to 11000

$$$$
