AV-unprocessed.smi:2008|AV-procd|sdf|8144|dock9
  -GOLD-   2272010383D 1   1.00000     0.00000
 Structure written by MMmdl.
 46 47  0  0  0  0  0  0  0  0  2 V2000
  150.6734  142.0636  157.7764 C   0  0  0  0  0  0  0  0  0  0  0  0
  151.0225  141.6839  156.4499 O   0  0  0  0  0  0  0  0  0  0  0  0
  150.5883  140.4600  155.9834 C   0  0  0  0  0  0  0  0  0  0  0  0
  150.1205  139.5114  156.9141 C   0  0  0  0  0  0  0  0  0  0  0  0
  149.6748  138.2602  156.4468 C   0  0  0  0  0  0  0  0  0  0  0  0
  149.7036  137.9990  155.0558 C   0  0  0  0  0  0  0  0  0  0  0  0
  149.2979  136.7745  154.4584 N   0  0  0  0  0  0  0  0  0  0  0  0
  148.8962  135.6405  155.0575 C   0  0  0  0  0  0  0  0  0  0  0  0
  148.7916  135.4721  156.2722 O   0  0  0  0  0  0  0  0  0  0  0  0
  148.6011  134.6921  154.1567 N   0  0  0  0  0  0  0  0  0  0  0  0
  148.1184  133.3547  154.4833 C   0  0  0  0  0  0  0  0  0  0  0  0
  148.8863  132.2687  153.7018 C   0  0  0  0  0  0  0  0  0  0  0  0
  148.0114  131.5054  152.7662 N   0  3  1  0  0  0  0  0  0  0  0  0
  147.6430  130.1757  153.3349 C   0  0  0  0  0  0  0  0  0  0  0  0
  146.8493  129.3189  152.3395 C   0  0  0  0  0  0  0  0  0  0  0  0
  145.5851  130.0532  151.8961 C   0  0  0  0  0  0  0  0  0  0  0  0
  145.9730  131.4106  151.3062 C   0  0  0  0  0  0  0  0  0  0  0  0
  146.8049  132.2622  152.2919 C   0  0  2  0  0  0  0  0  0  0  0  0
  147.1554  133.5965  151.5979 C   0  0  0  0  0  0  0  0  0  0  0  0
  150.2033  139.0108  154.2098 C   0  0  0  0  0  0  0  0  0  0  0  0
  150.6314  140.2121  154.6511 N   0  0  0  0  0  0  0  0  0  0  0  0
  151.0868  143.0491  157.9901 H   0  0  0  0  0  0  0  0  0  0  0  0
  151.0813  141.3676  158.5109 H   0  0  0  0  0  0  0  0  0  0  0  0
  149.5916  142.1245  157.9024 H   0  0  0  0  0  0  0  0  0  0  0  0
  150.1079  139.7379  157.9701 H   0  0  0  0  0  0  0  0  0  0  0  0
  149.3358  137.5291  157.1639 H   0  0  0  0  0  0  0  0  0  0  0  0
  149.2579  136.7814  153.4495 H   0  0  0  0  0  0  0  0  0  0  0  0
  148.7084  134.9142  153.1774 H   0  0  0  0  0  0  0  0  0  0  0  0
  148.2010  133.1829  155.5580 H   0  0  0  0  0  0  0  0  0  0  0  0
  147.0558  133.3360  154.2465 H   0  0  0  0  0  0  0  0  0  0  0  0
  149.7213  132.7056  153.1519 H   0  0  0  0  0  0  0  0  0  0  0  0
  149.3301  131.6083  154.4410 H   0  0  0  0  0  0  0  0  0  0  0  0
  148.5337  129.6189  153.6208 H   0  0  0  0  0  0  0  0  0  0  0  0
  147.0597  130.3194  154.2460 H   0  0  0  0  0  0  0  0  0  0  0  0
  147.4693  129.0881  151.4720 H   0  0  0  0  0  0  0  0  0  0  0  0
  146.5845  128.3643  152.7957 H   0  0  0  0  0  0  0  0  0  0  0  0
  145.0419  129.4615  151.1585 H   0  0  0  0  0  0  0  0  0  0  0  0
  144.9145  130.1924  152.7452 H   0  0  0  0  0  0  0  0  0  0  0  0
  146.5388  131.2550  150.3862 H   0  0  0  0  0  0  0  0  0  0  0  0
  145.0675  131.9471  151.0201 H   0  0  0  0  0  0  0  0  0  0  0  0
  146.1831  132.4825  153.1614 H   0  0  0  0  0  0  0  0  0  0  0  0
  146.2817  134.0174  151.0993 H   0  0  0  0  0  0  0  0  0  0  0  0
  147.9290  133.4618  150.8411 H   0  0  0  0  0  0  0  0  0  0  0  0
  147.4904  134.3601  152.2986 H   0  0  0  0  0  0  0  0  0  0  0  0
  150.2585  138.8550  153.1422 H   0  0  0  0  0  0  0  0  0  0  0  0
  148.5659  131.3272  151.9409 H   0  0  0  0  0  0  0  0  0  0  0  0
  1  2  1  0  0  0  0
  1 22  1  0  0  0  0
  1 23  1  0  0  0  0
  1 24  1  0  0  0  0
  2  3  1  0  0  0  0
  3 21  1  0  0  0  0
  3  4  2  0  0  0  0
  4  5  1  0  0  0  0
  4 25  1  0  0  0  0
  5  6  2  0  0  0  0
  5 26  1  0  0  0  0
  6  7  1  0  0  0  0
  6 20  1  0  0  0  0
  7  8  1  0  0  0  0
  7 27  1  0  0  0  0
  8  9  2  0  0  0  0
  8 10  1  0  0  0  0
 10 11  1  0  0  0  0
 10 28  1  0  0  0  0
 11 12  1  0  0  0  0
 11 29  1  0  0  0  0
 11 30  1  0  0  0  0
 12 13  1  0  0  0  0
 12 31  1  0  0  0  0
 12 32  1  0  0  0  0
 13 18  1  0  0  0  0
 13 14  1  0  0  0  0
 13 46  1  0  0  0  0
 14 15  1  0  0  0  0
 14 33  1  0  0  0  0
 14 34  1  0  0  0  0
 15 16  1  0  0  0  0
 15 35  1  0  0  0  0
 15 36  1  0  0  0  0
 16 17  1  0  0  0  0
 16 37  1  0  0  0  0
 16 38  1  0  0  0  0
 17 18  1  0  0  0  0
 17 39  1  0  0  0  0
 17 40  1  0  0  0  0
 18 19  1  0  0  0  0
 18 41  1  0  0  0  0
 19 42  1  0  0  0  0
 19 43  1  0  0  0  0
 19 44  1  0  0  0  0
 20 21  2  0  0  0  0
 20 45  1  0  0  0  0
M  CHG  1  13   1
M  END
> <s_m_source_file>
AV-unprocessed.smi

> <i_m_source_file_index>
2008

> <i_lp_mmshare_version>
43012

> <i_f3d_flags>
0

> <s_epik_input>
W0NIM11PYzFbY0hdW2NIXWMoW2NIXW4xKVtOSF1DKD1PKVtOSF1bQ0gyXVtDSDJdTjJbQ0gyXVtDSDJdW0NIMl1bQ0gyXVtDQEhdMltDSDNd

> <s_epik_cmdline>
J2VwaWtfcHl0aG9uJywgJy1waCcsICc3LjAnLCAnLXRuJywgJzgnLCAnLW1hJywgJzIwMCcsICctbWV0YWxfYmluZGluZycsICctaW1hZScsICc8aW5maWxlLm1hZT4nLCAnLW9tYWUnLCAnPG91dGZpbGUubWFlPic=

> <r_lp_tautomer_probability>
1

> <r_epik_Ionization_Penalty>
0.00219526

> <r_epik_Ionization_Penalty_Charging>
0.00211816

> <r_epik_Ionization_Penalty_Neutral>
7.71003e-05

> <r_epik_State_Penalty>
0.00145254

> <r_epik_Charging_Adjusted_Penalty>
0.0035707

> <i_epik_Tot_Q>
1

> <i_epik_Tot_abs_Q>
1

> <r_epik_Metal_State_Penalty>
-0

> <b_epik_Metal_Only>
0

> <s_lp_Force_Field>
OPLS_2005

> <r_lp_Energy>
23.0726

> <b_lp_Chiralities_Consistent>
1

> <s_lp_Variant>
AV-unprocessed.smi:2008-4

> <Gold.Version>
5.8.1

> <Gold.Id.Protein>
6NUR|6NUR_protein|mol2

> <Gold.PLP.Fitness>
46.2297

> <Gold.PLP.PLP>
-33.5575

> <Gold.PLP.part.hbond>
-4.0000

> <Gold.PLP.part.metal>
0.0000

> <Gold.PLP.part.buried>
-2.9665

> <Gold.PLP.part.nonpolar>
-25.3386

> <Gold.PLP.part.repulsive>
0.1848

> <Gold.PLP.ligand.clash>
0.0000

> <Gold.PLP.ligand.torsion>
1.1644

> <Gold.PLP.Chemscore.Hbond>
3.9920

> <Gold.PLP.Chemscore.CHOScore>
1.0000

> <Gold.PLP.Chemscore.Metal>
0.0000

> <Gold.Chemscore.Hbonds>
donor molecule, donor type, donor heavy atom, donor atom, acceptor molecule, acceptor atom, score
      L1  H     7    27       P1  7948  1.00
      L1  H    10    28       P1  7948  0.99
      L1  H    13    46       P1 10747  1.00
      P1  H  7989  7998       L1    21  1.00
      L1  C    20    45       P1  7957  1.00

> <Gold.PLP.Chemscore.Internal.Correction>
0.0250

> <Gold.Rescore>
     Score         DG    S(hbond)    S(metal)    S(lipo)     H(rot)  DE(clash)    DE(int)     intcor
     19.76     -21.90       3.51        0.00      77.53       1.71       0.02       2.12       ----

> <Gold.Chemscore.Fitness>
19.7622

> <Gold.Chemscore.DG>
-21.8987

> <Gold.Chemscore.ZeroCoef>
-5.4800

> <Gold.Chemscore.Hbond>
3.5113

> <Gold.Chemscore.Metal>
0.0000

> <Gold.Chemscore.Lipo>
77.5256

> <Gold.Chemscore.Internal_Hbond>
0.0000

> <Gold.Chemscore.DEClash>
0.0154

> <Gold.Chemscore.DEInternal>
2.1210

> <Gold.Chemscore.Rot>
1.7107

> <Gold.Chemscore.Internal.Correction>
   9.000000E+99

> <Gold.Chemscore.Hbonds>
donor molecule, donor type, donor heavy atom, donor atom, acceptor molecule, acceptor atom, score
      L1  H     7    27       P1  7948  0.96
      L1  H    10    28       P1  7948  0.42
      L1  H    13    46       P1 10747  0.98
      P1  H  7989  7998       L1    21  0.70

> <Gold.Chemscore.Hbond.Weighted>
-11.7276

> <Gold.Chemscore.Metal.Weighted>
-0.0000

> <Gold.Chemscore.Lipo.Weighted>
-9.0705

> <Gold.Chemscore.Internal_Hbond.Weighted>
0.0000

> <Gold.Chemscore.DEClash.Weighted>
0.0154

> <Gold.Chemscore.DEInternal.Weighted>
2.1210

> <Gold.Chemscore.Rot.Weighted>
4.3794

> <Gold.Chemscore.Internal.Correction.Weighted>
   9.000000E+99

> <Gold.Protein.RotatedTorsions>
[ 6907 6896 6895 6894 ] final  -47.89 input  -60.11 | X-H torsion
[ 7974 7965 7964 7962 ] final  103.68 input  175.53 | X-H torsion
[ 8008 7997 7996 7995 ] final   66.52 input   59.86 | X-H torsion
[ 10167 10162 10161 10158 ] final -140.59 input  -65.29 | X-H torsion
[ 10718 10713 10712 10709 ] final  -11.24 input   66.30 | X-H torsion
[ 10763 10752 10751 10750 ] final  -43.99 input  -60.55 | X-H torsion
[ 11005 11000 10999 10996 ] final  -98.22 input  -57.11 | X-H torsion

> <Gold.Protein.ActiveResidues>
 VAL166  LYS551  ARG553  GLY616  TRP617  ASP618  TYR619  PRO620  LYS621  CYS622 
 ASP623  PHE694  ASN695  SER759  ASP760  ASP761  ALA762  ILE779  LEU786  VAL792 
 PHE793  MET794  SER795  GLU796  ALA797  LYS798  CYS799  TRP800  GLU811  SER814 

> <Gold.Protein.RotatedAtoms>
  150.8962  134.8370  159.7327 H   0  0  0  0  0  0  0  0  0  0  0  0  # atno 6907 bound_to 6896
  152.4866  134.4573  159.9603 H   0  0  0  0  0  0  0  0  0  0  0  0  # atno 6908 bound_to 6896
  151.4630  133.3549  159.2847 H   0  0  0  0  0  0  0  0  0  0  0  0  # atno 6909 bound_to 6896
  145.3427  139.2458  143.3600 H   0  0  0  0  0  0  0  0  0  0  0  0  # atno 7974 bound_to 7965
  155.6786  140.3496  155.4846 H   0  0  0  0  0  0  0  0  0  0  0  0  # atno 8008 bound_to 7997
  155.9626  140.1140  157.0905 H   0  0  0  0  0  0  0  0  0  0  0  0  # atno 8009 bound_to 7997
  154.4147  140.1172  156.5186 H   0  0  0  0  0  0  0  0  0  0  0  0  # atno 8010 bound_to 7997
  139.8267  143.7501  152.2666 H   0  0  0  0  0  0  0  0  0  0  0  0  # atno 10167 bound_to 10162
  156.6619  130.4984  149.6028 H   0  0  0  0  0  0  0  0  0  0  0  0  # atno 10718 bound_to 10713
  154.0046  135.6689  153.4761 H   0  0  0  0  0  0  0  0  0  0  0  0  # atno 10763 bound_to 10752
  153.0647  135.5007  154.8169 H   0  0  0  0  0  0  0  0  0  0  0  0  # atno 10764 bound_to 10752
  154.7032  135.3083  154.9273 H   0  0  0  0  0  0  0  0  0  0  0  0  # atno 10765 bound_to 10752
  141.1352  133.8229  157.0810 H   0  0  0  0  0  0  0  0  0  0  0  0  # atno 11005 bound_to 11000
  146.3000  140.4028  142.8707 LP  0  0  0  0  0  0  0  0  0  0  0  0  # atno 17320 bound_to 7965
  144.8778  140.7359  143.6006 LP  0  0  0  0  0  0  0  0  0  0  0  0  # atno 17321 bound_to 7965
  139.7696  144.7481  151.0244 LP  0  0  0  0  0  0  0  0  0  0  0  0  # atno 17342 bound_to 10162
  140.7809  143.4660  151.0212 LP  0  0  0  0  0  0  0  0  0  0  0  0  # atno 17343 bound_to 10162
  156.2004  130.6616  151.1161 LP  0  0  0  0  0  0  0  0  0  0  0  0  # atno 17370 bound_to 10713
  157.7107  131.0735  150.6512 LP  0  0  0  0  0  0  0  0  0  0  0  0  # atno 17371 bound_to 10713
  140.0451  134.9834  157.1034 LP  0  0  0  0  0  0  0  0  0  0  0  0  # atno 17394 bound_to 11000
  140.4075  134.2017  155.7163 LP  0  0  0  0  0  0  0  0  0  0  0  0  # atno 17395 bound_to 11000

$$$$
