AV-unprocessed.smi:972|AV-procd|sdf|4297|dock3
  -GOLD-   22720 2203D 1   1.00000     0.00000
 Structure written by MMmdl.
 51 53  0  0  0  0  0  0  0  0  2 V2000
  151.1895  142.9479  156.7345 C   0  0  0  0  0  0  0  0  0  0  0  0
  150.3871  141.8462  157.4662 C   0  0  0  0  0  0  0  0  0  0  0  0
  151.3763  141.1802  158.4519 C   0  0  0  0  0  0  0  0  0  0  0  0
  149.2298  142.4869  158.2542 C   0  0  0  0  0  0  0  0  0  0  0  0
  149.8218  140.8194  156.4692 C   0  0  0  0  0  0  0  0  0  0  0  0
  150.6924  140.2396  155.6329 N   0  0  0  0  0  0  0  0  0  0  0  0
  150.2006  139.4339  154.6676 C   0  0  0  0  0  0  0  0  0  0  0  0
  148.8085  139.2260  154.5112 C   0  0  0  0  0  0  0  0  0  0  0  0
  148.1951  138.4052  153.5253 N   0  0  0  0  0  0  0  0  0  0  0  0
  146.8902  138.1607  153.3164 C   0  0  0  0  0  0  0  0  0  0  0  0
  145.9590  138.6316  153.9678 O   0  0  0  0  0  0  0  0  0  0  0  0
  146.7156  137.3217  152.2852 N   0  0  0  0  0  0  0  0  0  0  0  0
  145.4232  136.8541  151.7922 C   0  0  2  0  0  0  0  0  0  0  0  0
  144.6755  136.0597  152.8801 C   0  0  0  0  0  0  0  0  0  0  0  0
  143.3596  135.4721  152.3364 C   0  0  0  0  0  0  0  0  0  0  0  0
  143.5758  134.6419  151.1235 N   0  3  2  0  0  0  0  0  0  0  0  0
  144.1764  133.3193  151.4168 C   0  0  0  0  0  0  0  0  0  0  0  0
  144.8852  132.6997  150.2350 C   0  0  0  0  0  0  0  0  0  0  0  0
  143.5309  132.1802  150.6628 C   0  0  0  0  0  0  0  0  0  0  0  0
  144.2890  135.3881  150.0550 C   0  0  0  0  0  0  0  0  0  0  0  0
  145.6265  135.9723  150.5490 C   0  0  0  0  0  0  0  0  0  0  0  0
  147.9836  139.9205  155.4188 C   0  0  0  0  0  0  0  0  0  0  0  0
  148.4892  140.7229  156.3785 N   0  0  0  0  0  0  0  0  0  0  0  0
  151.6317  143.6520  157.4400 H   0  0  0  0  0  0  0  0  0  0  0  0
  150.5618  143.5319  156.0606 H   0  0  0  0  0  0  0  0  0  0  0  0
  152.0018  142.5219  156.1441 H   0  0  0  0  0  0  0  0  0  0  0  0
  152.1958  140.6920  157.9232 H   0  0  0  0  0  0  0  0  0  0  0  0
  150.8895  140.4286  159.0745 H   0  0  0  0  0  0  0  0  0  0  0  0
  151.8148  141.9131  159.1302 H   0  0  0  0  0  0  0  0  0  0  0  0
  149.5956  143.2210  158.9726 H   0  0  0  0  0  0  0  0  0  0  0  0
  148.6651  141.7363  158.8084 H   0  0  0  0  0  0  0  0  0  0  0  0
  148.5325  142.9971  157.5887 H   0  0  0  0  0  0  0  0  0  0  0  0
  150.9422  138.9808  154.0300 H   0  0  0  0  0  0  0  0  0  0  0  0
  148.8351  137.9515  152.8900 H   0  0  0  0  0  0  0  0  0  0  0  0
  147.5369  136.9846  151.8043 H   0  0  0  0  0  0  0  0  0  0  0  0
  144.8188  137.7161  151.5030 H   0  0  0  0  0  0  0  0  0  0  0  0
  145.3100  135.2577  153.2596 H   0  0  0  0  0  0  0  0  0  0  0  0
  144.4584  136.7039  153.7332 H   0  0  0  0  0  0  0  0  0  0  0  0
  142.8584  134.8843  153.1061 H   0  0  0  0  0  0  0  0  0  0  0  0
  142.6786  136.2845  152.0794 H   0  0  0  0  0  0  0  0  0  0  0  0
  144.5547  133.1634  152.4252 H   0  0  0  0  0  0  0  0  0  0  0  0
  144.9347  133.2666  149.3070 H   0  0  0  0  0  0  0  0  0  0  0  0
  145.7479  132.0693  150.4407 H   0  0  0  0  0  0  0  0  0  0  0  0
  143.5014  131.2082  151.1512 H   0  0  0  0  0  0  0  0  0  0  0  0
  142.6819  132.4025  150.0187 H   0  0  0  0  0  0  0  0  0  0  0  0
  144.4521  134.7400  149.1932 H   0  0  0  0  0  0  0  0  0  0  0  0
  143.6436  136.1978  149.7118 H   0  0  0  0  0  0  0  0  0  0  0  0
  146.0863  136.5560  149.7504 H   0  0  0  0  0  0  0  0  0  0  0  0
  146.3221  135.1630  150.7738 H   0  0  0  0  0  0  0  0  0  0  0  0
  146.9075  139.8390  155.3725 H   0  0  0  0  0  0  0  0  0  0  0  0
  142.6567  134.4394  150.7569 H   0  0  0  0  0  0  0  0  0  0  0  0
  1  2  1  0  0  0  0
  1 24  1  0  0  0  0
  1 25  1  0  0  0  0
  1 26  1  0  0  0  0
  2  3  1  0  0  0  0
  2  4  1  0  0  0  0
  2  5  1  0  0  0  0
  3 27  1  0  0  0  0
  3 28  1  0  0  0  0
  3 29  1  0  0  0  0
  4 30  1  0  0  0  0
  4 31  1  0  0  0  0
  4 32  1  0  0  0  0
  5 23  1  0  0  0  0
  5  6  2  0  0  0  0
  6  7  1  0  0  0  0
  7  8  2  0  0  0  0
  7 33  1  0  0  0  0
  8  9  1  0  0  0  0
  8 22  1  0  0  0  0
  9 10  1  0  0  0  0
  9 34  1  0  0  0  0
 10 11  2  0  0  0  0
 10 12  1  0  0  0  0
 12 13  1  0  0  0  0
 12 35  1  0  0  0  0
 13 21  1  0  0  0  0
 13 14  1  0  0  0  0
 13 36  1  0  0  0  0
 14 15  1  0  0  0  0
 14 37  1  0  0  0  0
 14 38  1  0  0  0  0
 15 16  1  0  0  0  0
 15 39  1  0  0  0  0
 15 40  1  0  0  0  0
 16 17  1  0  0  0  0
 16 20  1  0  0  0  0
 16 51  1  0  0  0  0
 17 19  1  0  0  0  0
 17 18  1  0  0  0  0
 17 41  1  0  0  0  0
 18 19  1  0  0  0  0
 18 42  1  0  0  0  0
 18 43  1  0  0  0  0
 19 44  1  0  0  0  0
 19 45  1  0  0  0  0
 20 21  1  0  0  0  0
 20 46  1  0  0  0  0
 20 47  1  0  0  0  0
 21 48  1  0  0  0  0
 21 49  1  0  0  0  0
 22 23  2  0  0  0  0
 22 50  1  0  0  0  0
M  CHG  1  16   1
M  END
> <s_m_source_file>
AV-unprocessed.smi

> <i_m_source_file_index>
972

> <i_lp_mmshare_version>
43012

> <i_f3d_flags>
0

> <s_epik_input>
W0NIM11DKFtDSDNdKShbQ0gzXSljMW5bY0hdYyhbY0hdbjEpW05IXUMoPU8pW05IXVtDSF0yW0NIMl1bQ0gyXU4oW0NIMl1bQ0gyXTIpW0NIXTNbQ0gyXVtDSDJdMw==

> <s_epik_cmdline>
J2VwaWtfcHl0aG9uJywgJy1waCcsICc3LjAnLCAnLXRuJywgJzgnLCAnLW1hJywgJzIwMCcsICctbWV0YWxfYmluZGluZycsICctaW1hZScsICc8aW5maWxlLm1hZT4nLCAnLW9tYWUnLCAnPG91dGZpbGUubWFlPic=

> <r_lp_tautomer_probability>
1

> <r_epik_Ionization_Penalty>
0.123264

> <r_epik_Ionization_Penalty_Charging>
0.123242

> <r_epik_Ionization_Penalty_Neutral>
2.24743e-05

> <r_epik_State_Penalty>
0.112739

> <r_epik_Charging_Adjusted_Penalty>
0.235981

> <i_epik_Tot_Q>
1

> <i_epik_Tot_abs_Q>
1

> <r_epik_Metal_State_Penalty>
0.112739

> <b_epik_Metal_Only>
0

> <s_lp_Force_Field>
OPLS_2005

> <r_lp_Energy>
26.5088

> <b_lp_Chiralities_Consistent>
1

> <s_lp_Variant>
AV-unprocessed.smi:972-2

> <Gold.Version>
5.8.1

> <Gold.Id.Protein>
6NUR|6NUR_protein|mol2

> <Gold.PLP.Fitness>
44.5179

> <Gold.PLP.PLP>
-33.5917

> <Gold.PLP.part.hbond>
-3.3044

> <Gold.PLP.part.metal>
0.0000

> <Gold.PLP.part.buried>
-2.7159

> <Gold.PLP.part.nonpolar>
-28.1764

> <Gold.PLP.part.repulsive>
0.2886

> <Gold.PLP.ligand.clash>
0.0000

> <Gold.PLP.ligand.torsion>
0.9379

> <Gold.PLP.Chemscore.Hbond>
3.7985

> <Gold.PLP.Chemscore.CHOScore>
0.0000

> <Gold.PLP.Chemscore.Metal>
0.0000

> <Gold.Chemscore.Hbonds>
donor molecule, donor type, donor heavy atom, donor atom, acceptor molecule, acceptor atom, score
      L1  H     9    34       P1  7948  0.80
      L1  H    12    35       P1  7948  1.00
      L1  H    16    51       P1 10186  1.98

> <Gold.PLP.Chemscore.Internal.Correction>
1.4066

> <Gold.Rescore>
     Score         DG    S(hbond)    S(metal)    S(lipo)     H(rot)  DE(clash)    DE(int)     intcor
     18.04     -20.75       2.31        0.00      93.54       1.32       0.34       2.37       ----

> <Gold.Chemscore.Fitness>
18.0356

> <Gold.Chemscore.DG>
-20.7488

> <Gold.Chemscore.ZeroCoef>
-5.4800

> <Gold.Chemscore.Hbond>
2.3070

> <Gold.Chemscore.Metal>
0.0000

> <Gold.Chemscore.Lipo>
93.5414

> <Gold.Chemscore.Internal_Hbond>
0.0000

> <Gold.Chemscore.DEClash>
0.3397

> <Gold.Chemscore.DEInternal>
2.3735

> <Gold.Chemscore.Rot>
1.3207

> <Gold.Chemscore.Internal.Correction>
   9.000000E+99

> <Gold.Chemscore.Hbonds>
donor molecule, donor type, donor heavy atom, donor atom, acceptor molecule, acceptor atom, score
      L1  H     9    34       P1  7948  0.77
      L1  H    12    35       P1  7948  0.93
      L1  H    16    51       P1 10186  0.24

> <Gold.Chemscore.Hbond.Weighted>
-7.7053

> <Gold.Chemscore.Metal.Weighted>
-0.0000

> <Gold.Chemscore.Lipo.Weighted>
-10.9443

> <Gold.Chemscore.Internal_Hbond.Weighted>
0.0000

> <Gold.Chemscore.DEClash.Weighted>
0.3397

> <Gold.Chemscore.DEInternal.Weighted>
2.3735

> <Gold.Chemscore.Rot.Weighted>
3.3809

> <Gold.Chemscore.Internal.Correction.Weighted>
   9.000000E+99

> <Gold.Protein.RotatedTorsions>
[ 6907 6896 6895 6894 ] final -123.73 input  -60.11 | X-H torsion
[ 7974 7965 7964 7962 ] final -178.85 input  175.53 | X-H torsion
[ 8008 7997 7996 7995 ] final   69.16 input   59.86 | X-H torsion
[ 10167 10162 10161 10158 ] final   47.08 input  -65.29 | X-H torsion
[ 10718 10713 10712 10709 ] final  -95.82 input   66.30 | X-H torsion
[ 10763 10752 10751 10750 ] final   90.47 input  -60.55 | X-H torsion
[ 11005 11000 10999 10996 ] final   17.49 input  -57.11 | X-H torsion

> <Gold.Protein.ActiveResidues>
 VAL166  LYS551  ARG553  GLY616  TRP617  ASP618  TYR619  PRO620  LYS621  CYS622 
 ASP623  PHE694  ASN695  SER759  ASP760  ASP761  ALA762  ILE779  LEU786  VAL792 
 PHE793  MET794  SER795  GLU796  ALA797  LYS798  CYS799  TRP800  GLU811  SER814 

> <Gold.Protein.RotatedAtoms>
  150.8699  133.7520  159.2964 H   0  0  0  0  0  0  0  0  0  0  0  0  # atno 6907 bound_to 6896
  151.5136  135.1064  159.9870 H   0  0  0  0  0  0  0  0  0  0  0  0  # atno 6908 bound_to 6896
  152.4688  133.7937  159.6971 H   0  0  0  0  0  0  0  0  0  0  0  0  # atno 6909 bound_to 6896
  144.7133  140.0807  143.6425 H   0  0  0  0  0  0  0  0  0  0  0  0  # atno 7974 bound_to 7965
  155.7193  140.3493  155.5009 H   0  0  0  0  0  0  0  0  0  0  0  0  # atno 8008 bound_to 7997
  155.9284  140.1080  157.1173 H   0  0  0  0  0  0  0  0  0  0  0  0  # atno 8009 bound_to 7997
  154.4081  140.1236  156.4757 H   0  0  0  0  0  0  0  0  0  0  0  0  # atno 8010 bound_to 7997
  140.3073  144.2862  150.6206 H   0  0  0  0  0  0  0  0  0  0  0  0  # atno 10167 bound_to 10162
  156.0050  130.5125  150.6134 H   0  0  0  0  0  0  0  0  0  0  0  0  # atno 10718 bound_to 10713
  153.1979  135.4433  155.0230 H   0  0  0  0  0  0  0  0  0  0  0  0  # atno 10763 bound_to 10752
  154.8129  135.3302  154.7257 H   0  0  0  0  0  0  0  0  0  0  0  0  # atno 10764 bound_to 10752
  153.7705  135.6985  153.4963 H   0  0  0  0  0  0  0  0  0  0  0  0  # atno 10765 bound_to 10752
  140.4354  134.1377  155.7685 H   0  0  0  0  0  0  0  0  0  0  0  0  # atno 11005 bound_to 11000
  145.9704  139.2866  143.1102 LP  0  0  0  0  0  0  0  0  0  0  0  0  # atno 17320 bound_to 7965
  145.9122  140.9172  143.0448 LP  0  0  0  0  0  0  0  0  0  0  0  0  # atno 17321 bound_to 7965
  140.5599  143.2193  151.7783 LP  0  0  0  0  0  0  0  0  0  0  0  0  # atno 17342 bound_to 10162
  139.4901  144.4363  151.9815 LP  0  0  0  0  0  0  0  0  0  0  0  0  # atno 17343 bound_to 10162
  157.3963  131.0803  151.1349 LP  0  0  0  0  0  0  0  0  0  0  0  0  # atno 17370 bound_to 10713
  157.2025  130.6401  149.5744 LP  0  0  0  0  0  0  0  0  0  0  0  0  # atno 17371 bound_to 10713
  141.1728  133.8574  157.1517 LP  0  0  0  0  0  0  0  0  0  0  0  0  # atno 17394 bound_to 11000
  140.0106  134.9990  157.0386 LP  0  0  0  0  0  0  0  0  0  0  0  0  # atno 17395 bound_to 11000

$$$$
