AV-unprocessed.smi:3255|AV-procd|sdf|12458|dock7
  -GOLD-   2272018353D 1   1.00000     0.00000
 Structure written by MMmdl.
 39 40  0  0  0  0  0  0  0  0  2 V2000
  152.9390  144.4922  157.9986 C   0  0  0  0  0  0  0  0  0  0  0  0
  151.5878  144.3132  158.7057 C   0  0  1  0  0  0  0  0  0  0  0  0
  150.6399  143.6929  157.7811 N   0  0  0  0  0  0  0  0  0  0  0  0
  150.4994  142.3752  157.5814 C   0  0  0  0  0  0  0  0  0  0  0  0
  151.1360  141.5103  158.1838 O   0  0  0  0  0  0  0  0  0  0  0  0
  149.5923  142.1082  156.6318 N   0  0  0  0  0  0  0  0  0  0  0  0
  149.2516  140.7677  156.1715 C   0  0  0  0  0  0  0  0  0  0  0  0
  149.5847  140.5840  154.6813 C   0  0  0  0  0  0  0  0  0  0  0  0
  148.4519  140.0308  153.9390 N   0  0  0  0  0  0  0  0  0  0  0  0
  148.4263  138.8851  153.1862 C   0  0  0  0  0  0  0  0  0  0  0  0
  147.1553  138.7784  152.6821 C   0  0  0  0  0  0  0  0  0  0  0  0
  146.4608  139.8630  153.1474 N   0  3  0  0  0  0  0  0  0  0  0  0
  147.2514  140.6237  153.9114 C   0  0  0  0  0  0  0  0  0  0  0  0
  151.7269  143.5040  160.0166 C   0  0  2  0  0  0  0  0  0  0  0  0
  152.1311  144.2973  161.2669 C   0  0  0  0  0  0  0  0  0  0  0  0
  152.8349  143.2423  162.0896 C   0  0  0  0  0  0  0  0  0  0  0  0
  153.5692  142.4580  161.0088 C   0  0  0  0  0  0  0  0  0  0  0  0
  152.7018  142.4705  159.8801 O   0  0  0  0  0  0  0  0  0  0  0  0
  153.6595  144.9868  158.6506 H   0  0  0  0  0  0  0  0  0  0  0  0
  152.8350  145.1042  157.1021 H   0  0  0  0  0  0  0  0  0  0  0  0
  153.3643  143.5337  157.6995 H   0  0  0  0  0  0  0  0  0  0  0  0
  151.2294  145.3121  158.9616 H   0  0  0  0  0  0  0  0  0  0  0  0
  150.0671  144.3190  157.2345 H   0  0  0  0  0  0  0  0  0  0  0  0
  149.1164  142.8821  156.1913 H   0  0  0  0  0  0  0  0  0  0  0  0
  149.7772  140.0270  156.7770 H   0  0  0  0  0  0  0  0  0  0  0  0
  148.1865  140.6056  156.3396 H   0  0  0  0  0  0  0  0  0  0  0  0
  149.8558  141.5372  154.2254 H   0  0  0  0  0  0  0  0  0  0  0  0
  150.4336  139.9115  154.5461 H   0  0  0  0  0  0  0  0  0  0  0  0
  149.2913  138.2483  153.0678 H   0  0  0  0  0  0  0  0  0  0  0  0
  146.7051  138.0323  152.0435 H   0  0  0  0  0  0  0  0  0  0  0  0
  146.9755  141.5376  154.4074 H   0  0  0  0  0  0  0  0  0  0  0  0
  150.7831  142.9965  160.2222 H   0  0  0  0  0  0  0  0  0  0  0  0
  152.8329  145.0972  161.0303 H   0  0  0  0  0  0  0  0  0  0  0  0
  151.2773  144.7389  161.7814 H   0  0  0  0  0  0  0  0  0  0  0  0
  153.5038  143.6588  162.8433 H   0  0  0  0  0  0  0  0  0  0  0  0
  152.1051  142.6047  162.5904 H   0  0  0  0  0  0  0  0  0  0  0  0
  154.4978  142.9622  160.7378 H   0  0  0  0  0  0  0  0  0  0  0  0
  153.8112  141.4407  161.3171 H   0  0  0  0  0  0  0  0  0  0  0  0
  145.4893  140.0636  152.9440 H   0  0  0  0  0  0  0  0  0  0  0  0
  1  2  1  0  0  0  0
  1 19  1  0  0  0  0
  1 20  1  0  0  0  0
  1 21  1  0  0  0  0
  2  3  1  0  0  0  0
  2 14  1  0  0  0  0
  2 22  1  0  0  0  0
  3  4  1  0  0  0  0
  3 23  1  0  0  0  0
  4  5  2  0  0  0  0
  4  6  1  0  0  0  0
  6  7  1  0  0  0  0
  6 24  1  0  0  0  0
  7  8  1  0  0  0  0
  7 25  1  0  0  0  0
  7 26  1  0  0  0  0
  8  9  1  0  0  0  0
  8 27  1  0  0  0  0
  8 28  1  0  0  0  0
  9 13  1  0  0  0  0
  9 10  1  0  0  0  0
 10 11  2  0  0  0  0
 10 29  1  0  0  0  0
 11 12  1  0  0  0  0
 11 30  1  0  0  0  0
 12 13  2  0  0  0  0
 12 39  1  0  0  0  0
 13 31  1  0  0  0  0
 14 18  1  0  0  0  0
 14 15  1  0  0  0  0
 14 32  1  0  0  0  0
 15 16  1  0  0  0  0
 15 33  1  0  0  0  0
 15 34  1  0  0  0  0
 16 17  1  0  0  0  0
 16 35  1  0  0  0  0
 16 36  1  0  0  0  0
 17 18  1  0  0  0  0
 17 37  1  0  0  0  0
 17 38  1  0  0  0  0
M  CHG  1  12   1
M  END
> <s_m_source_file>
AV-unprocessed.smi

> <i_m_source_file_index>
3255

> <i_lp_mmshare_version>
43012

> <i_f3d_flags>
0

> <s_epik_input>
TzFbQ0gyXVtDSDJdW0NIMl1bQ0BIXTFbQ0BIXShbQ0gzXSlbTkhdQyg9TylbTkhdW0NIMl1bQ0gyXW4yW2NIXVtjSF1uW2NIXTI=

> <s_epik_cmdline>
J2VwaWtfcHl0aG9uJywgJy1waCcsICc3LjAnLCAnLXRuJywgJzgnLCAnLW1hJywgJzIwMCcsICctbWV0YWxfYmluZGluZycsICctaW1hZScsICc8aW5maWxlLm1hZT4nLCAnLW9tYWUnLCAnPG91dGZpbGUubWFlPic=

> <r_lp_tautomer_probability>
1

> <r_epik_Ionization_Penalty>
0.256241

> <r_epik_Ionization_Penalty_Charging>
0

> <r_epik_Ionization_Penalty_Neutral>
0.256241

> <r_epik_State_Penalty>
0.247735

> <r_epik_Charging_Adjusted_Penalty>
0.247735

> <i_epik_Tot_Q>
1

> <i_epik_Tot_abs_Q>
1

> <r_epik_Metal_State_Penalty>
0.537184

> <b_epik_Metal_Only>
0

> <s_lp_Force_Field>
OPLS_2005

> <r_lp_Energy>
18.6285

> <b_lp_Chiralities_Consistent>
1

> <s_lp_Variant>
AV-unprocessed.smi:3255-2

> <Gold.Version>
5.8.1

> <Gold.Id.Protein>
6NUR|6NUR_protein|mol2

> <Gold.PLP.Fitness>
52.4385

> <Gold.PLP.PLP>
-39.8917

> <Gold.PLP.part.hbond>
-3.0000

> <Gold.PLP.part.metal>
0.0000

> <Gold.PLP.part.buried>
-0.6562

> <Gold.PLP.part.nonpolar>
-36.3896

> <Gold.PLP.part.repulsive>
0.0733

> <Gold.PLP.ligand.clash>
0.0000

> <Gold.PLP.ligand.torsion>
1.2633

> <Gold.PLP.Chemscore.Hbond>
3.9280

> <Gold.PLP.Chemscore.CHOScore>
1.0903

> <Gold.PLP.Chemscore.Metal>
0.0000

> <Gold.Chemscore.Hbonds>
donor molecule, donor type, donor heavy atom, donor atom, acceptor molecule, acceptor atom, score
      L1  H     3    23       P1  8028  1.00
      L1  H     6    24       P1  8028  1.00
      L1  H    12    39       P1 10175  2.00
      L1  C    10    29       P1  7948  0.74

> <Gold.PLP.Chemscore.Internal.Correction>
0.0184

> <Gold.Rescore>
     Score         DG    S(hbond)    S(metal)    S(lipo)     H(rot)  DE(clash)    DE(int)     intcor
     13.51     -20.87       2.74        0.00     102.94       2.26       2.99       4.38       ----

> <Gold.Chemscore.Fitness>
13.5100

> <Gold.Chemscore.DG>
-20.8740

> <Gold.Chemscore.ZeroCoef>
-5.4800

> <Gold.Chemscore.Hbond>
2.7381

> <Gold.Chemscore.Metal>
0.0000

> <Gold.Chemscore.Lipo>
102.9450

> <Gold.Chemscore.Internal_Hbond>
0.0000

> <Gold.Chemscore.DEClash>
2.9861

> <Gold.Chemscore.DEInternal>
4.3779

> <Gold.Chemscore.Rot>
2.2640

> <Gold.Chemscore.Internal.Correction>
   9.000000E+99

> <Gold.Chemscore.Hbonds>
donor molecule, donor type, donor heavy atom, donor atom, acceptor molecule, acceptor atom, score
      L1  H     3    23       P1  8028  0.57
      L1  H     6    24       P1  8028  0.98
      L1  H    12    39       P1 10175  0.99

> <Gold.Chemscore.Hbond.Weighted>
-9.1452

> <Gold.Chemscore.Metal.Weighted>
-0.0000

> <Gold.Chemscore.Lipo.Weighted>
-12.0446

> <Gold.Chemscore.Internal_Hbond.Weighted>
0.0000

> <Gold.Chemscore.DEClash.Weighted>
2.9861

> <Gold.Chemscore.DEInternal.Weighted>
4.3779

> <Gold.Chemscore.Rot.Weighted>
5.7958

> <Gold.Chemscore.Internal.Correction.Weighted>
   9.000000E+99

> <Gold.Protein.RotatedTorsions>
[ 6907 6896 6895 6894 ] final  -13.91 input  -60.11 | X-H torsion
[ 7974 7965 7964 7962 ] final  135.11 input  175.53 | X-H torsion
[ 8008 7997 7996 7995 ] final -178.78 input   59.86 | X-H torsion
[ 10167 10162 10161 10158 ] final -177.19 input  -65.29 | X-H torsion
[ 10718 10713 10712 10709 ] final   42.53 input   66.30 | X-H torsion
[ 10763 10752 10751 10750 ] final  -48.95 input  -60.55 | X-H torsion
[ 11005 11000 10999 10996 ] final  162.70 input  -57.11 | X-H torsion

> <Gold.Protein.ActiveResidues>
 VAL166  LYS551  ARG553  GLY616  TRP617  ASP618  TYR619  PRO620  LYS621  CYS622 
 ASP623  PHE694  ASN695  SER759  ASP760  ASP761  ALA762  ILE779  LEU786  VAL792 
 PHE793  MET794  SER795  GLU796  ALA797  LYS798  CYS799  TRP800  GLU811  SER814 

> <Gold.Protein.RotatedAtoms>
  151.3476  135.0877  159.9391 H   0  0  0  0  0  0  0  0  0  0  0  0  # atno 6907 bound_to 6896
  152.5195  133.9385  159.7625 H   0  0  0  0  0  0  0  0  0  0  0  0  # atno 6908 bound_to 6896
  150.9754  133.6247  159.2761 H   0  0  0  0  0  0  0  0  0  0  0  0  # atno 6909 bound_to 6896
  144.9696  139.4620  143.5439 H   0  0  0  0  0  0  0  0  0  0  0  0  # atno 7974 bound_to 7965
  156.0228  140.1265  157.0339 H   0  0  0  0  0  0  0  0  0  0  0  0  # atno 8008 bound_to 7997
  154.4318  140.1065  156.6058 H   0  0  0  0  0  0  0  0  0  0  0  0  # atno 8009 bound_to 7997
  155.5919  140.3469  155.4571 H   0  0  0  0  0  0  0  0  0  0  0  0  # atno 8010 bound_to 7997
  139.5492  144.2154  152.1046 H   0  0  0  0  0  0  0  0  0  0  0  0  # atno 10167 bound_to 10162
  157.4059  130.7886  149.7388 H   0  0  0  0  0  0  0  0  0  0  0  0  # atno 10718 bound_to 10713
  154.0862  135.6584  153.4845 H   0  0  0  0  0  0  0  0  0  0  0  0  # atno 10763 bound_to 10752
  153.0338  135.5191  154.7425 H   0  0  0  0  0  0  0  0  0  0  0  0  # atno 10764 bound_to 10752
  154.6535  135.3004  154.9925 H   0  0  0  0  0  0  0  0  0  0  0  0  # atno 10765 bound_to 10752
  140.2283  134.8143  157.3291 H   0  0  0  0  0  0  0  0  0  0  0  0  # atno 11005 bound_to 11000
  146.3378  139.8899  142.8810 LP  0  0  0  0  0  0  0  0  0  0  0  0  # atno 17320 bound_to 7965
  145.2579  141.0067  143.3843 LP  0  0  0  0  0  0  0  0  0  0  0  0  # atno 17321 bound_to 7965
  140.1646  144.4993  150.6613 LP  0  0  0  0  0  0  0  0  0  0  0  0  # atno 17342 bound_to 10162
  140.6750  143.2301  151.5530 LP  0  0  0  0  0  0  0  0  0  0  0  0  # atno 17343 bound_to 10162
  155.9836  130.3999  150.3354 LP  0  0  0  0  0  0  0  0  0  0  0  0  # atno 17370 bound_to 10713
  157.1486  131.0315  151.2895 LP  0  0  0  0  0  0  0  0  0  0  0  0  # atno 17371 bound_to 10713
  140.1777  134.4529  155.7791 LP  0  0  0  0  0  0  0  0  0  0  0  0  # atno 17394 bound_to 11000
  141.2219  133.6969  156.7815 LP  0  0  0  0  0  0  0  0  0  0  0  0  # atno 17395 bound_to 11000

$$$$
