AV-unprocessed.smi:2212|AV-procd|sdf|8952|dock5
  -GOLD-   2272012163D 1   1.00000     0.00000
 Structure written by MMmdl.
 32 33  0  0  0  0  0  0  0  0  2 V2000
  152.7276  142.4010  161.3492 C   0  0  0  0  0  0  0  0  0  0  0  0
  153.1737  143.0200  160.1489 O   0  0  0  0  0  0  0  0  0  0  0  0
  152.1816  143.2776  159.1491 C   0  0  0  0  0  0  0  0  0  0  0  0
  151.5482  141.9814  158.6212 C   0  0  0  0  0  0  0  0  0  0  0  0
  150.5367  142.2504  157.6034 N   0  0  0  0  0  0  0  0  0  0  0  0
  149.9832  141.3331  156.7971 C   0  0  0  0  0  0  0  0  0  0  0  0
  150.2450  140.1308  156.8504 O   0  0  0  0  0  0  0  0  0  0  0  0
  149.1189  141.8929  155.9343 N   0  0  0  0  0  0  0  0  0  0  0  0
  148.3748  141.2356  154.9217 C   0  0  0  0  0  0  0  0  0  0  0  0
  148.7315  140.1436  154.2413 N   0  3  0  0  0  0  0  0  0  0  0  0
  147.7360  139.8289  153.3513 C   0  0  0  0  0  0  0  0  0  0  0  0
  146.7642  140.7836  153.5287 C   0  0  0  0  0  0  0  0  0  0  0  0
  147.1522  141.6734  154.5112 O   0  0  0  0  0  0  0  0  0  0  0  0
  151.2537  144.3727  159.7094 C   0  0  0  0  0  0  0  0  0  0  0  0
  152.1739  145.4295  159.0972 C   0  0  0  0  0  0  0  0  0  0  0  0
  152.6742  144.3416  158.1451 C   0  0  0  0  0  0  0  0  0  0  0  0
  153.5937  142.1345  161.9547 H   0  0  0  0  0  0  0  0  0  0  0  0
  152.1634  141.4882  161.1616 H   0  0  0  0  0  0  0  0  0  0  0  0
  152.1127  143.0750  161.9454 H   0  0  0  0  0  0  0  0  0  0  0  0
  152.3165  141.3182  158.2201 H   0  0  0  0  0  0  0  0  0  0  0  0
  151.0812  141.4181  159.4288 H   0  0  0  0  0  0  0  0  0  0  0  0
  150.2644  143.2158  157.4881 H   0  0  0  0  0  0  0  0  0  0  0  0
  149.5871  139.6103  154.3384 H   0  0  0  0  0  0  0  0  0  0  0  0
  147.8173  138.9749  152.6941 H   0  0  0  0  0  0  0  0  0  0  0  0
  145.8030  140.9634  153.0692 H   0  0  0  0  0  0  0  0  0  0  0  0
  150.2660  144.3700  159.2457 H   0  0  0  0  0  0  0  0  0  0  0  0
  151.1806  144.4038  160.7970 H   0  0  0  0  0  0  0  0  0  0  0  0
  151.6589  146.2597  158.6135 H   0  0  0  0  0  0  0  0  0  0  0  0
  152.9437  145.7749  159.7891 H   0  0  0  0  0  0  0  0  0  0  0  0
  153.7473  144.3709  157.9598 H   0  0  0  0  0  0  0  0  0  0  0  0
  152.1153  144.3240  157.2080 H   0  0  0  0  0  0  0  0  0  0  0  0
  148.9866  142.8914  156.0011 H   0  0  0  0  0  0  0  0  0  0  0  0
  1  2  1  0  0  0  0
  1 17  1  0  0  0  0
  1 18  1  0  0  0  0
  1 19  1  0  0  0  0
  2  3  1  0  0  0  0
  3 16  1  0  0  0  0
  3  4  1  0  0  0  0
  3 14  1  0  0  0  0
  4  5  1  0  0  0  0
  4 20  1  0  0  0  0
  4 21  1  0  0  0  0
  5 22  1  0  0  0  0
  5  6  1  0  0  0  0
  6  8  1  0  0  0  0
  6  7  2  0  0  0  0
  8  9  1  0  0  0  0
  8 32  1  0  0  0  0
  9 13  1  0  0  0  0
  9 10  2  0  0  0  0
 10 23  1  0  0  0  0
 10 11  1  0  0  0  0
 11 24  1  0  0  0  0
 11 12  2  0  0  0  0
 12 25  1  0  0  0  0
 12 13  1  0  0  0  0
 14 15  1  0  0  0  0
 14 26  1  0  0  0  0
 14 27  1  0  0  0  0
 15 16  1  0  0  0  0
 15 28  1  0  0  0  0
 15 29  1  0  0  0  0
 16 30  1  0  0  0  0
 16 31  1  0  0  0  0
M  CHG  1  10   1
M  END
> <s_m_source_file>
AV-unprocessed.smi

> <i_m_source_file_index>
2212

> <i_lp_mmshare_version>
43012

> <i_f3d_flags>
0

> <s_epik_input>
W0NIMl0xW0NIMl1bQ0gyXUMxKE9bQ0gzXSlbQ0gyXVtOSF1DKD1PKVtOSF1jMm5bY0hdW2NIXW8y

> <s_epik_cmdline>
J2VwaWtfcHl0aG9uJywgJy1waCcsICc3LjAnLCAnLXRuJywgJzgnLCAnLW1hJywgJzIwMCcsICctbWV0YWxfYmluZGluZycsICctaW1hZScsICc8aW5maWxlLm1hZT4nLCAnLW9tYWUnLCAnPG91dGZpbGUubWFlPic=

> <r_epik_Ionization_Penalty>
6.73843

> <r_epik_Ionization_Penalty_Charging>
6.66704

> <r_epik_Ionization_Penalty_Neutral>
0.0713889

> <r_epik_State_Penalty>
1.94951

> <r_epik_Charging_Adjusted_Penalty>
8.61656

> <i_epik_Tot_Q>
1

> <i_epik_Tot_abs_Q>
1

> <r_epik_Metal_State_Penalty>
1.97013

> <b_epik_Metal_Only>
0

> <s_lp_Force_Field>
OPLS_2005

> <r_lp_Energy>
24.3681

> <b_lp_Chiralities_Consistent>
1

> <s_lp_Variant>
AV-unprocessed.smi:2212-2

> <Gold.Version>
5.8.1

> <Gold.Id.Protein>
6NUR|6NUR_protein|mol2

> <Gold.PLP.Fitness>
39.6254

> <Gold.PLP.PLP>
-34.1592

> <Gold.PLP.part.hbond>
-2.0000

> <Gold.PLP.part.metal>
0.0000

> <Gold.PLP.part.buried>
-1.0040

> <Gold.PLP.part.nonpolar>
-32.1905

> <Gold.PLP.part.repulsive>
0.4662

> <Gold.PLP.ligand.clash>
0.0000

> <Gold.PLP.ligand.torsion>
0.4077

> <Gold.PLP.Chemscore.Hbond>
1.0000

> <Gold.PLP.Chemscore.CHOScore>
1.0000

> <Gold.PLP.Chemscore.Metal>
0.0000

> <Gold.Chemscore.Hbonds>
donor molecule, donor type, donor heavy atom, donor atom, acceptor molecule, acceptor atom, score
      L1  H     8    32       P1  8028  1.00
      L1  C    12    25       P1 10175  1.00

> <Gold.PLP.Chemscore.Internal.Correction>
0.2815

> <Gold.Rescore>
     Score         DG    S(hbond)    S(metal)    S(lipo)     H(rot)  DE(clash)    DE(int)     intcor
     14.11     -14.39       0.98        0.00      84.46       1.67       0.03       0.25       ----

> <Gold.Chemscore.Fitness>
14.1109

> <Gold.Chemscore.DG>
-14.3884

> <Gold.Chemscore.ZeroCoef>
-5.4800

> <Gold.Chemscore.Hbond>
0.9849

> <Gold.Chemscore.Metal>
0.0000

> <Gold.Chemscore.Lipo>
84.4556

> <Gold.Chemscore.Internal_Hbond>
0.0000

> <Gold.Chemscore.DEClash>
0.0297

> <Gold.Chemscore.DEInternal>
0.2478

> <Gold.Chemscore.Rot>
1.6650

> <Gold.Chemscore.Internal.Correction>
   9.000000E+99

> <Gold.Chemscore.Hbonds>
donor molecule, donor type, donor heavy atom, donor atom, acceptor molecule, acceptor atom, score
      L1  H     8    32       P1  8028  1.00

> <Gold.Chemscore.Hbond.Weighted>
-3.2896

> <Gold.Chemscore.Metal.Weighted>
-0.0000

> <Gold.Chemscore.Lipo.Weighted>
-9.8813

> <Gold.Chemscore.Internal_Hbond.Weighted>
0.0000

> <Gold.Chemscore.DEClash.Weighted>
0.0297

> <Gold.Chemscore.DEInternal.Weighted>
0.2478

> <Gold.Chemscore.Rot.Weighted>
4.2625

> <Gold.Chemscore.Internal.Correction.Weighted>
   9.000000E+99

> <Gold.Protein.RotatedTorsions>
[ 6907 6896 6895 6894 ] final   51.14 input  -60.11 | X-H torsion
[ 7974 7965 7964 7962 ] final   -6.26 input  175.53 | X-H torsion
[ 8008 7997 7996 7995 ] final   37.98 input   59.86 | X-H torsion
[ 10167 10162 10161 10158 ] final  -31.94 input  -65.29 | X-H torsion
[ 10718 10713 10712 10709 ] final  -15.99 input   66.30 | X-H torsion
[ 10763 10752 10751 10750 ] final -171.38 input  -60.55 | X-H torsion
[ 11005 11000 10999 10996 ] final  -22.24 input  -57.11 | X-H torsion

> <Gold.Protein.ActiveResidues>
 VAL166  LYS551  ARG553  GLY616  TRP617  ASP618  TYR619  PRO620  LYS621  CYS622 
 ASP623  PHE694  ASN695  SER759  ASP760  ASP761  ALA762  ILE779  LEU786  VAL792 
 PHE793  MET794  SER795  GLU796  ALA797  LYS798  CYS799  TRP800  GLU811  SER814 

> <Gold.Protein.RotatedAtoms>
  152.3095  134.7515  160.0339 H   0  0  0  0  0  0  0  0  0  0  0  0  # atno 6907 bound_to 6896
  151.8000  133.3363  159.3532 H   0  0  0  0  0  0  0  0  0  0  0  0  # atno 6908 bound_to 6896
  150.7313  134.5692  159.5926 H   0  0  0  0  0  0  0  0  0  0  0  0  # atno 6909 bound_to 6896
  146.2335  140.2144  142.8336 H   0  0  0  0  0  0  0  0  0  0  0  0  # atno 7974 bound_to 7965
  155.2127  140.3324  155.4326 H   0  0  0  0  0  0  0  0  0  0  0  0  # atno 8008 bound_to 7997
  156.2364  140.1874  156.7155 H   0  0  0  0  0  0  0  0  0  0  0  0  # atno 8009 bound_to 7997
  154.6067  140.0615  156.9426 H   0  0  0  0  0  0  0  0  0  0  0  0  # atno 8010 bound_to 7997
  140.7229  143.3732  151.1739 H   0  0  0  0  0  0  0  0  0  0  0  0  # atno 10167 bound_to 10162
  156.5940  130.4806  149.6267 H   0  0  0  0  0  0  0  0  0  0  0  0  # atno 10718 bound_to 10713
  154.6311  135.2886  155.0215 H   0  0  0  0  0  0  0  0  0  0  0  0  # atno 10763 bound_to 10752
  154.1376  135.6523  153.4939 H   0  0  0  0  0  0  0  0  0  0  0  0  # atno 10764 bound_to 10752
  153.0280  135.5325  154.7139 H   0  0  0  0  0  0  0  0  0  0  0  0  # atno 10765 bound_to 10752
  140.8638  133.7769  156.0106 H   0  0  0  0  0  0  0  0  0  0  0  0  # atno 11005 bound_to 11000
  144.9681  140.8342  143.5472 LP  0  0  0  0  0  0  0  0  0  0  0  0  # atno 17320 bound_to 7965
  145.2122  139.2199  143.5137 LP  0  0  0  0  0  0  0  0  0  0  0  0  # atno 17321 bound_to 7965
  139.7307  143.9077  152.3018 LP  0  0  0  0  0  0  0  0  0  0  0  0  # atno 17342 bound_to 10162
  139.8865  144.6989  150.8819 LP  0  0  0  0  0  0  0  0  0  0  0  0  # atno 17343 bound_to 10162
  156.2526  130.6916  151.1658 LP  0  0  0  0  0  0  0  0  0  0  0  0  # atno 17370 bound_to 10713
  157.7296  131.0622  150.5764 LP  0  0  0  0  0  0  0  0  0  0  0  0  # atno 17371 bound_to 10713
  140.8652  134.2793  157.5216 LP  0  0  0  0  0  0  0  0  0  0  0  0  # atno 17394 bound_to 11000
  139.8708  134.9539  156.4158 LP  0  0  0  0  0  0  0  0  0  0  0  0  # atno 17395 bound_to 11000

$$$$
