AV-unprocessed.smi:1188|AV-procd|sdf|4977|dock3
  -GOLD-   22720 3573D 1   1.00000     0.00000
 Structure written by MMmdl.
 48 49  0  0  0  0  0  0  0  0  1 V2000
  147.2575  132.6786  162.0074 C   0  0  0  0  0  0  0  0  0  0  0  0
  147.0081  133.7369  161.4515 C   0  0  0  0  0  0  0  0  0  0  0  0
  146.6915  135.0064  160.7807 C   0  0  0  0  0  0  0  0  0  0  0  0
  147.6087  135.2793  159.6845 N   0  0  0  0  0  0  0  0  0  0  0  0
  148.3313  136.4049  159.5514 C   0  0  0  0  0  0  0  0  0  0  0  0
  148.2618  137.3173  160.3760 O   0  0  0  0  0  0  0  0  0  0  0  0
  149.1868  136.4334  158.3615 C   0  0  0  0  0  0  0  0  0  0  0  0
  148.8440  135.6017  157.2242 C   0  0  0  0  0  0  0  0  0  0  0  0
  149.5994  135.6125  156.1087 C   0  0  0  0  0  0  0  0  0  0  0  0
  150.7938  136.4540  155.9958 C   0  0  0  0  0  0  0  0  0  0  0  0
  151.4853  136.4738  154.9769 O   0  0  0  0  0  0  0  0  0  0  0  0
  151.0914  137.2135  157.0935 N   0  0  0  0  0  0  0  0  0  0  0  0
  152.2713  138.0947  157.0986 C   0  0  0  0  0  0  0  0  0  0  0  0
  151.9406  139.5445  157.4805 C   0  0  0  0  0  0  0  0  0  0  0  0
  152.7687  140.2479  158.0606 O   0  0  0  0  0  0  0  0  0  0  0  0
  150.7230  139.9828  157.1269 N   0  0  0  0  0  0  0  0  0  0  0  0
  150.2043  141.3203  157.3878 C   0  0  0  0  0  0  0  0  0  0  0  0
  151.2553  142.4043  157.0878 C   0  0  0  0  0  0  0  0  0  0  0  0
  151.5788  143.2616  158.3004 C   0  0  0  0  0  0  0  0  0  0  0  0
  152.0992  142.7364  159.4269 C   0  0  0  0  0  0  0  0  0  0  0  0
  152.4266  143.5418  160.6723 C   0  0  0  0  0  0  0  0  0  0  0  0
  151.7913  144.9423  160.6477 C   0  0  0  0  0  0  0  0  0  0  0  0
  151.9474  145.5962  159.2691 C   0  0  0  0  0  0  0  0  0  0  0  0
  151.2800  144.7511  158.1693 C   0  0  0  0  0  0  0  0  0  0  0  0
  150.2926  137.2034  158.2546 C   0  0  0  0  0  0  0  0  0  0  0  0
  147.4748  131.7521  162.4900 H   0  0  0  0  0  0  0  0  0  0  0  0
  145.6675  134.9529  160.4089 H   0  0  0  0  0  0  0  0  0  0  0  0
  146.7393  135.8044  161.5230 H   0  0  0  0  0  0  0  0  0  0  0  0
  147.7070  134.5633  158.9797 H   0  0  0  0  0  0  0  0  0  0  0  0
  147.9730  134.9630  157.2565 H   0  0  0  0  0  0  0  0  0  0  0  0
  149.3193  134.9850  155.2753 H   0  0  0  0  0  0  0  0  0  0  0  0
  153.0247  137.7245  157.7952 H   0  0  0  0  0  0  0  0  0  0  0  0
  152.7568  138.0764  156.1208 H   0  0  0  0  0  0  0  0  0  0  0  0
  150.1087  139.3412  156.6469 H   0  0  0  0  0  0  0  0  0  0  0  0
  149.2966  141.4837  156.8048 H   0  0  0  0  0  0  0  0  0  0  0  0
  149.9133  141.3680  158.4376 H   0  0  0  0  0  0  0  0  0  0  0  0
  152.1701  141.9323  156.7259 H   0  0  0  0  0  0  0  0  0  0  0  0
  150.9100  143.0574  156.2854 H   0  0  0  0  0  0  0  0  0  0  0  0
  152.3169  141.6795  159.4769 H   0  0  0  0  0  0  0  0  0  0  0  0
  152.0878  142.9959  161.5532 H   0  0  0  0  0  0  0  0  0  0  0  0
  153.5116  143.6216  160.7458 H   0  0  0  0  0  0  0  0  0  0  0  0
  150.7303  144.8654  160.8893 H   0  0  0  0  0  0  0  0  0  0  0  0
  152.2389  145.5690  161.4196 H   0  0  0  0  0  0  0  0  0  0  0  0
  151.5232  146.6007  159.2751 H   0  0  0  0  0  0  0  0  0  0  0  0
  153.0089  145.7113  159.0459 H   0  0  0  0  0  0  0  0  0  0  0  0
  151.6063  145.1046  157.1904 H   0  0  0  0  0  0  0  0  0  0  0  0
  150.1988  144.8868  158.2098 H   0  0  0  0  0  0  0  0  0  0  0  0
  150.6451  137.8682  159.0302 H   0  0  0  0  0  0  0  0  0  0  0  0
  1  2  3  0  0  0  0
  1 26  1  0  0  0  0
  2  3  1  0  0  0  0
  3  4  1  0  0  0  0
  3 27  1  0  0  0  0
  3 28  1  0  0  0  0
  4  5  1  0  0  0  0
  4 29  1  0  0  0  0
  5  6  2  0  0  0  0
  5  7  1  0  0  0  0
  7 25  2  0  0  0  0
  7  8  1  0  0  0  0
  8  9  2  0  0  0  0
  8 30  1  0  0  0  0
  9 10  1  0  0  0  0
  9 31  1  0  0  0  0
 10 11  2  0  0  0  0
 10 12  1  0  0  0  0
 12 13  1  0  0  0  0
 12 25  1  0  0  0  0
 13 14  1  0  0  0  0
 13 32  1  0  0  0  0
 13 33  1  0  0  0  0
 14 15  2  0  0  0  0
 14 16  1  0  0  0  0
 16 17  1  0  0  0  0
 16 34  1  0  0  0  0
 17 18  1  0  0  0  0
 17 35  1  0  0  0  0
 17 36  1  0  0  0  0
 18 19  1  0  0  0  0
 18 37  1  0  0  0  0
 18 38  1  0  0  0  0
 19 24  1  0  0  0  0
 19 20  2  0  0  0  0
 20 21  1  0  0  0  0
 20 39  1  0  0  0  0
 21 22  1  0  0  0  0
 21 40  1  0  0  0  0
 21 41  1  0  0  0  0
 22 23  1  0  0  0  0
 22 42  1  0  0  0  0
 22 43  1  0  0  0  0
 23 24  1  0  0  0  0
 23 44  1  0  0  0  0
 23 45  1  0  0  0  0
 24 46  1  0  0  0  0
 24 47  1  0  0  0  0
 25 48  1  0  0  0  0
M  END
> <s_m_source_file>
AV-unprocessed.smi

> <i_m_source_file_index>
1188

> <i_lp_mmshare_version>
43012

> <i_f3d_flags>
0

> <s_epik_input>
W0NIXSNDW0NIMl1bTkhdQyg9TyljMVtjSF1bY0hdYyg9TyluKFtjSF0xKVtDSDJdQyg9TylbTkhdW0NIMl1bQ0gyXUMyPVtDSF1bQ0gyXVtDSDJdW0NIMl1bQ0gyXTI=

> <s_epik_cmdline>
J2VwaWtfcHl0aG9uJywgJy1waCcsICc3LjAnLCAnLXRuJywgJzgnLCAnLW1hJywgJzIwMCcsICctbWV0YWxfYmluZGluZycsICctaW1hZScsICc8aW5maWxlLm1hZT4nLCAnLW9tYWUnLCAnPG91dGZpbGUubWFlPic=

> <r_lp_tautomer_probability>
1

> <r_epik_Ionization_Penalty>
3.04448e-06

> <r_epik_Ionization_Penalty_Charging>
4.20752e-08

> <r_epik_Ionization_Penalty_Neutral>
3.00241e-06

> <r_epik_State_Penalty>
-0

> <r_epik_Charging_Adjusted_Penalty>
4.20752e-08

> <i_epik_Tot_Q>
0

> <i_epik_Tot_abs_Q>
0

> <r_epik_Metal_State_Penalty>
-0

> <b_epik_Metal_Only>
0

> <s_lp_Force_Field>
OPLS_2005

> <r_lp_Energy>
18.5418

> <b_lp_Chiralities_Consistent>
1

> <s_lp_Variant>
AV-unprocessed.smi:1188-1

> <Gold.Version>
5.8.1

> <Gold.Id.Protein>
6NUR|6NUR_protein|mol2

> <Gold.PLP.Fitness>
50.9765

> <Gold.PLP.PLP>
-44.2558

> <Gold.PLP.part.hbond>
-4.0000

> <Gold.PLP.part.metal>
0.0000

> <Gold.PLP.part.buried>
-6.3377

> <Gold.PLP.part.nonpolar>
-34.5011

> <Gold.PLP.part.repulsive>
0.2329

> <Gold.PLP.ligand.clash>
0.0000

> <Gold.PLP.ligand.torsion>
1.1619

> <Gold.PLP.Chemscore.Hbond>
2.9581

> <Gold.PLP.Chemscore.CHOScore>
0.0000

> <Gold.PLP.Chemscore.Metal>
0.0000

> <Gold.Chemscore.Hbonds>
donor molecule, donor type, donor heavy atom, donor atom, acceptor molecule, acceptor atom, score
      P1  H  6931  6943       L1     6  0.66
      P1  H  6934  6947       L1     6  0.53
      P1  H  7997  8008       L1    15  0.84
      P1  H 10752 10763       L1    11  1.00

> <Gold.PLP.Chemscore.Internal.Correction>
0.1702

> <Gold.Rescore>
     Score         DG    S(hbond)    S(metal)    S(lipo)     H(rot)  DE(clash)    DE(int)     intcor
     21.64     -25.52       3.27        0.00     121.03       1.97       0.18       3.69       ----

> <Gold.Chemscore.Fitness>
21.6422

> <Gold.Chemscore.DG>
-25.5175

> <Gold.Chemscore.ZeroCoef>
-5.4800

> <Gold.Chemscore.Hbond>
3.2690

> <Gold.Chemscore.Metal>
0.0000

> <Gold.Chemscore.Lipo>
121.0301

> <Gold.Chemscore.Internal_Hbond>
0.0000

> <Gold.Chemscore.DEClash>
0.1815

> <Gold.Chemscore.DEInternal>
3.6938

> <Gold.Chemscore.Rot>
1.9694

> <Gold.Chemscore.Internal.Correction>
   9.000000E+99

> <Gold.Chemscore.Hbonds>
donor molecule, donor type, donor heavy atom, donor atom, acceptor molecule, acceptor atom, score
      P1  H  6931  6943       L1     6  0.65
      P1  H  6934  6947       L1     6  0.51
      P1  H  7997  8008       L1    15  0.39
      P1  H 10752 10763       L1    11  1.00

> <Gold.Chemscore.Hbond.Weighted>
-10.9186

> <Gold.Chemscore.Metal.Weighted>
-0.0000

> <Gold.Chemscore.Lipo.Weighted>
-14.1605

> <Gold.Chemscore.Internal_Hbond.Weighted>
0.0000

> <Gold.Chemscore.DEClash.Weighted>
0.1815

> <Gold.Chemscore.DEInternal.Weighted>
3.6938

> <Gold.Chemscore.Rot.Weighted>
5.0416

> <Gold.Chemscore.Internal.Correction.Weighted>
   9.000000E+99

> <Gold.Protein.RotatedTorsions>
[ 6907 6896 6895 6894 ] final   93.40 input  -60.11 | X-H torsion
[ 7974 7965 7964 7962 ] final  -45.42 input  175.53 | X-H torsion
[ 8008 7997 7996 7995 ] final  -77.22 input   59.86 | X-H torsion
[ 10167 10162 10161 10158 ] final -150.42 input  -65.29 | X-H torsion
[ 10718 10713 10712 10709 ] final -133.90 input   66.30 | X-H torsion
[ 10763 10752 10751 10750 ] final   48.29 input  -60.55 | X-H torsion
[ 11005 11000 10999 10996 ] final   71.79 input  -57.11 | X-H torsion

> <Gold.Protein.ActiveResidues>
 VAL166  LYS551  ARG553  GLY616  TRP617  ASP618  TYR619  PRO620  LYS621  CYS622 
 ASP623  PHE694  ASN695  SER759  ASP760  ASP761  ALA762  ILE779  LEU786  VAL792 
 PHE793  MET794  SER795  GLU796  ALA797  LYS798  CYS799  TRP800  GLU811  SER814 

> <Gold.Protein.RotatedAtoms>
  152.5452  134.1354  159.8456 H   0  0  0  0  0  0  0  0  0  0  0  0  # atno 6907 bound_to 6896
  151.1395  133.4974  159.2604 H   0  0  0  0  0  0  0  0  0  0  0  0  # atno 6908 bound_to 6896
  151.1588  135.0273  159.8756 H   0  0  0  0  0  0  0  0  0  0  0  0  # atno 6909 bound_to 6896
  145.9823  140.7271  142.9357 H   0  0  0  0  0  0  0  0  0  0  0  0  # atno 7974 bound_to 7965
  154.5576  140.0714  156.8769 H   0  0  0  0  0  0  0  0  0  0  0  0  # atno 8008 bound_to 7997
  155.2872  140.3375  155.4236 H   0  0  0  0  0  0  0  0  0  0  0  0  # atno 8009 bound_to 7997
  156.2015  140.1724  156.7874 H   0  0  0  0  0  0  0  0  0  0  0  0  # atno 8010 bound_to 7997
  139.7356  143.8741  152.2547 H   0  0  0  0  0  0  0  0  0  0  0  0  # atno 10167 bound_to 10162
  156.2498  130.7146  151.1040 H   0  0  0  0  0  0  0  0  0  0  0  0  # atno 10718 bound_to 10713
  152.9793  135.5949  154.3902 H   0  0  0  0  0  0  0  0  0  0  0  0  # atno 10763 bound_to 10752
  154.3558  135.2767  155.2349 H   0  0  0  0  0  0  0  0  0  0  0  0  # atno 10764 bound_to 10752
  154.4368  135.6023  153.6158 H   0  0  0  0  0  0  0  0  0  0  0  0  # atno 10765 bound_to 10752
  139.9524  134.7203  156.0830 H   0  0  0  0  0  0  0  0  0  0  0  0  # atno 11005 bound_to 11000
  144.6865  140.2929  143.7275 LP  0  0  0  0  0  0  0  0  0  0  0  0  # atno 17320 bound_to 7965
  145.7752  139.1871  143.2189 LP  0  0  0  0  0  0  0  0  0  0  0  0  # atno 17321 bound_to 7965
  139.8677  144.7084  150.9024 LP  0  0  0  0  0  0  0  0  0  0  0  0  # atno 17342 bound_to 10162
  140.7778  143.3764  151.1555 LP  0  0  0  0  0  0  0  0  0  0  0  0  # atno 17343 bound_to 10162
  157.7210  131.0681  150.6137 LP  0  0  0  0  0  0  0  0  0  0  0  0  # atno 17370 bound_to 10713
  156.6216  130.4407  149.5820 LP  0  0  0  0  0  0  0  0  0  0  0  0  # atno 17371 bound_to 10713
  141.1190  133.6619  156.3166 LP  0  0  0  0  0  0  0  0  0  0  0  0  # atno 17394 bound_to 11000
  140.5687  134.5862  157.5452 LP  0  0  0  0  0  0  0  0  0  0  0  0  # atno 17395 bound_to 11000

$$$$
