AV-unprocessed.smi:1971|AV-procd|sdf|7969|dock9
  -GOLD-   2272010143D 1   1.00000     0.00000
 Structure written by MMmdl.
 43 44  0  0  0  0  0  0  0  0  3 V2000
  150.1895  135.0480  154.9249 C   0  0  0  0  0  0  0  0  0  0  0  0
  149.0540  135.9488  155.4315 C   0  0  0  0  0  0  0  0  0  0  0  0
  149.0025  137.2526  154.7248 N   0  3  0  0  0  0  0  0  0  0  0  0
  150.2064  138.0819  154.9803 C   0  0  0  0  0  0  0  0  0  0  0  0
  150.1268  139.4214  154.2126 C   0  0  0  0  0  0  0  0  0  0  0  0
  148.9273  140.1947  154.5684 N   0  0  0  0  0  0  0  0  0  0  0  0
  148.9244  140.7213  155.9520 C   0  0  1  0  0  0  0  0  0  0  0  0
  150.2062  141.5491  156.2084 C   0  0  0  0  0  0  0  0  0  0  0  0
  147.6628  141.5772  156.2524 C   0  0  0  0  0  0  0  0  0  0  0  0
  147.4991  141.8481  157.6777 N   0  0  0  0  0  0  0  0  0  0  0  0
  146.4010  142.3595  158.2535 C   0  0  0  0  0  0  0  0  0  0  0  0
  145.4247  142.6570  157.5602 O   0  0  0  0  0  0  0  0  0  0  0  0
  146.5010  142.4905  159.5951 N   0  5  0  0  0  0  0  0  0  0  0  0
  145.4830  143.0135  160.2978 C   0  0  0  0  0  0  0  0  0  0  0  0
  144.2045  142.9088  159.9176 N   0  0  0  0  0  0  0  0  0  0  0  0
  143.3110  143.5170  160.8010 C   0  0  0  0  0  0  0  0  0  0  0  0
  143.9229  144.0925  161.8828 C   0  0  0  0  0  0  0  0  0  0  0  0
  145.6501  143.8858  161.8240 S   0  0  0  0  0  0  0  0  0  0  0  0
  147.7817  139.3505  154.2016 C   0  0  0  0  0  0  0  0  0  0  0  0
  147.7678  138.0301  154.9991 C   0  0  0  0  0  0  0  0  0  0  0  0
  150.2616  134.1445  155.5307 H   0  0  0  0  0  0  0  0  0  0  0  0
  151.1518  135.5581  154.9789 H   0  0  0  0  0  0  0  0  0  0  0  0
  150.0316  134.7319  153.8941 H   0  0  0  0  0  0  0  0  0  0  0  0
  148.0926  135.4396  155.3490 H   0  0  0  0  0  0  0  0  0  0  0  0
  149.2184  136.1287  156.4949 H   0  0  0  0  0  0  0  0  0  0  0  0
  150.3336  138.2433  156.0511 H   0  0  0  0  0  0  0  0  0  0  0  0
  151.0899  137.5367  154.6468 H   0  0  0  0  0  0  0  0  0  0  0  0
  151.0344  140.0018  154.3660 H   0  0  0  0  0  0  0  0  0  0  0  0
  150.1024  139.2189  153.1407 H   0  0  0  0  0  0  0  0  0  0  0  0
  148.9234  139.8875  156.6517 H   0  0  0  0  0  0  0  0  0  0  0  0
  150.1944  142.0190  157.1917 H   0  0  0  0  0  0  0  0  0  0  0  0
  150.3189  142.3440  155.4704 H   0  0  0  0  0  0  0  0  0  0  0  0
  151.1074  140.9386  156.1907 H   0  0  0  0  0  0  0  0  0  0  0  0
  147.7174  142.5296  155.7243 H   0  0  0  0  0  0  0  0  0  0  0  0
  146.7453  141.0908  155.9242 H   0  0  0  0  0  0  0  0  0  0  0  0
  148.2769  141.6210  158.2799 H   0  0  0  0  0  0  0  0  0  0  0  0
  142.2541  143.4908  160.5816 H   0  0  0  0  0  0  0  0  0  0  0  0
  143.4667  144.6207  162.7063 H   0  0  0  0  0  0  0  0  0  0  0  0
  146.8399  139.8843  154.3125 H   0  0  0  0  0  0  0  0  0  0  0  0
  147.8427  139.1246  153.1361 H   0  0  0  0  0  0  0  0  0  0  0  0
  146.8942  137.4538  154.6979 H   0  0  0  0  0  0  0  0  0  0  0  0
  147.6633  138.2150  156.0691 H   0  0  0  0  0  0  0  0  0  0  0  0
  149.0061  137.0498  153.7355 H   0  0  0  0  0  0  0  0  0  0  0  0
  1  2  1  0  0  0  0
  1 21  1  0  0  0  0
  1 22  1  0  0  0  0
  1 23  1  0  0  0  0
  2  3  1  0  0  0  0
  2 24  1  0  0  0  0
  2 25  1  0  0  0  0
  3 20  1  0  0  0  0
  3  4  1  0  0  0  0
  3 43  1  0  0  0  0
  4  5  1  0  0  0  0
  4 26  1  0  0  0  0
  4 27  1  0  0  0  0
  5  6  1  0  0  0  0
  5 28  1  0  0  0  0
  5 29  1  0  0  0  0
  6  7  1  0  0  0  0
  6 19  1  0  0  0  0
  7  8  1  0  0  0  0
  7  9  1  0  0  0  0
  7 30  1  0  0  0  0
  8 31  1  0  0  0  0
  8 32  1  0  0  0  0
  8 33  1  0  0  0  0
  9 10  1  0  0  0  0
  9 34  1  0  0  0  0
  9 35  1  0  0  0  0
 10 11  1  0  0  0  0
 10 36  1  0  0  0  0
 11 12  2  0  0  0  0
 11 13  1  0  0  0  0
 13 14  1  0  0  0  0
 14 18  1  0  0  0  0
 14 15  2  0  0  0  0
 15 16  1  0  0  0  0
 16 17  2  0  0  0  0
 16 37  1  0  0  0  0
 17 18  1  0  0  0  0
 17 38  1  0  0  0  0
 19 20  1  0  0  0  0
 19 39  1  0  0  0  0
 19 40  1  0  0  0  0
 20 41  1  0  0  0  0
 20 42  1  0  0  0  0
M  CHG  1   3   1
M  CHG  1  13  -1
M  END
> <s_m_source_file>
AV-unprocessed.smi

> <i_m_source_file_index>
1971

> <i_lp_mmshare_version>
43012

> <i_f3d_flags>
0

> <s_epik_input>
W0NIM11bQ0gyXU4xW0NIMl1bQ0gyXU4oW0NIMl1bQ0gyXTEpW0NASF0oW0NIM10pW0NIMl1bTkhdQyg9TylbTkhdYzJuW2NIXVtjSF1zMg==

> <s_epik_cmdline>
J2VwaWtfcHl0aG9uJywgJy1waCcsICc3LjAnLCAnLXRuJywgJzgnLCAnLW1hJywgJzIwMCcsICctbWV0YWxfYmluZGluZycsICctaW1hZScsICc8aW5maWxlLm1hZT4nLCAnLW9tYWUnLCAnPG91dGZpbGUubWFlPic=

> <r_lp_tautomer_probability>
0.999

> <r_epik_Ionization_Penalty>
7.06996

> <r_epik_Ionization_Penalty_Charging>
5.92347

> <r_epik_Ionization_Penalty_Neutral>
1.14649

> <r_epik_State_Penalty>
6.04391

> <r_epik_Charging_Adjusted_Penalty>
11.9674

> <i_epik_Tot_Q>
0

> <i_epik_Tot_abs_Q>
2

> <r_epik_Metal_State_Penalty>
2.01291

> <b_epik_Metal_Only>
1

> <s_lp_Force_Field>
OPLS_2005

> <r_lp_Energy>
11.7698

> <b_lp_Chiralities_Consistent>
1

> <s_lp_Variant>
AV-unprocessed.smi:1971-8

> <Gold.Version>
5.8.1

> <Gold.Id.Protein>
6NUR|6NUR_protein|mol2

> <Gold.PLP.Fitness>
36.9684

> <Gold.PLP.PLP>
-25.5708

> <Gold.PLP.part.hbond>
-2.0000

> <Gold.PLP.part.metal>
0.0000

> <Gold.PLP.part.buried>
-4.0691

> <Gold.PLP.part.nonpolar>
-19.8245

> <Gold.PLP.part.repulsive>
0.2849

> <Gold.PLP.ligand.clash>
0.0000

> <Gold.PLP.ligand.torsion>
0.3499

> <Gold.PLP.Chemscore.Hbond>
4.0000

> <Gold.PLP.Chemscore.CHOScore>
0.0000

> <Gold.PLP.Chemscore.Metal>
0.0000

> <Gold.Chemscore.Hbonds>
donor molecule, donor type, donor heavy atom, donor atom, acceptor molecule, acceptor atom, score
      L1  H     3    43       P1  7948  2.00
      P1  H  6934  6946       L1    13  2.00

> <Gold.PLP.Chemscore.Internal.Correction>
0.0973

> <Gold.Rescore>
     Score         DG    S(hbond)    S(metal)    S(lipo)     H(rot)  DE(clash)    DE(int)     intcor
     11.68     -13.83       1.63        0.00      63.09       1.75       0.14       2.00       ----

> <Gold.Chemscore.Fitness>
11.6835

> <Gold.Chemscore.DG>
-13.8282

> <Gold.Chemscore.ZeroCoef>
-5.4800

> <Gold.Chemscore.Hbond>
1.6312

> <Gold.Chemscore.Metal>
0.0000

> <Gold.Chemscore.Lipo>
63.0891

> <Gold.Chemscore.Internal_Hbond>
0.0000

> <Gold.Chemscore.DEClash>
0.1400

> <Gold.Chemscore.DEInternal>
2.0047

> <Gold.Chemscore.Rot>
1.7505

> <Gold.Chemscore.Internal.Correction>
   9.000000E+99

> <Gold.Chemscore.Hbonds>
donor molecule, donor type, donor heavy atom, donor atom, acceptor molecule, acceptor atom, score
      L1  H     3    43       P1  7948  0.93
      P1  H  6934  6946       L1    13  0.27

> <Gold.Chemscore.Hbond.Weighted>
-5.4481

> <Gold.Chemscore.Metal.Weighted>
-0.0000

> <Gold.Chemscore.Lipo.Weighted>
-7.3814

> <Gold.Chemscore.Internal_Hbond.Weighted>
0.0000

> <Gold.Chemscore.DEClash.Weighted>
0.1400

> <Gold.Chemscore.DEInternal.Weighted>
2.0047

> <Gold.Chemscore.Rot.Weighted>
4.4813

> <Gold.Chemscore.Internal.Correction.Weighted>
   9.000000E+99

> <Gold.Protein.RotatedTorsions>
[ 6907 6896 6895 6894 ] final   31.83 input  -60.11 | X-H torsion
[ 7974 7965 7964 7962 ] final   46.20 input  175.53 | X-H torsion
[ 8008 7997 7996 7995 ] final    6.31 input   59.86 | X-H torsion
[ 10167 10162 10161 10158 ] final -142.51 input  -65.29 | X-H torsion
[ 10718 10713 10712 10709 ] final  144.68 input   66.30 | X-H torsion
[ 10763 10752 10751 10750 ] final  -60.19 input  -60.55 | X-H torsion
[ 11005 11000 10999 10996 ] final  -42.11 input  -57.11 | X-H torsion

> <Gold.Protein.ActiveResidues>
 VAL166  LYS551  ARG553  GLY616  TRP617  ASP618  TYR619  PRO620  LYS621  CYS622 
 ASP623  PHE694  ASN695  SER759  ASP760  ASP761  ALA762  ILE779  LEU786  VAL792 
 PHE793  MET794  SER795  GLU796  ALA797  LYS798  CYS799  TRP800  GLU811  SER814 

> <Gold.Protein.RotatedAtoms>
  152.0659  134.9565  160.0574 H   0  0  0  0  0  0  0  0  0  0  0  0  # atno 6907 bound_to 6896
  152.0910  133.4195  159.4552 H   0  0  0  0  0  0  0  0  0  0  0  0  # atno 6908 bound_to 6896
  150.6837  134.2791  159.4663 H   0  0  0  0  0  0  0  0  0  0  0  0  # atno 6909 bound_to 6896
  146.0411  139.4881  142.9778 H   0  0  0  0  0  0  0  0  0  0  0  0  # atno 7974 bound_to 7965
  154.7394  140.2746  155.6386 H   0  0  0  0  0  0  0  0  0  0  0  0  # atno 8008 bound_to 7997
  156.2870  140.2700  156.2043 H   0  0  0  0  0  0  0  0  0  0  0  0  # atno 8009 bound_to 7997
  155.0278  140.0371  157.2452 H   0  0  0  0  0  0  0  0  0  0  0  0  # atno 8010 bound_to 7997
  139.8081  143.7740  152.2662 H   0  0  0  0  0  0  0  0  0  0  0  0  # atno 10167 bound_to 10162
  157.3543  131.0955  151.0972 H   0  0  0  0  0  0  0  0  0  0  0  0  # atno 10718 bound_to 10713
  154.2653  135.6300  153.5290 H   0  0  0  0  0  0  0  0  0  0  0  0  # atno 10763 bound_to 10752
  152.9889  135.5597  154.5659 H   0  0  0  0  0  0  0  0  0  0  0  0  # atno 10764 bound_to 10752
  154.5217  135.2883  155.1232 H   0  0  0  0  0  0  0  0  0  0  0  0  # atno 10765 bound_to 10752
  141.0293  133.6827  156.2550 H   0  0  0  0  0  0  0  0  0  0  0  0  # atno 11005 bound_to 11000
  145.6883  141.0171  143.1569 LP  0  0  0  0  0  0  0  0  0  0  0  0  # atno 17320 bound_to 7965
  144.7075  139.8502  143.7425 LP  0  0  0  0  0  0  0  0  0  0  0  0  # atno 17321 bound_to 7965
  139.7881  144.7420  150.9994 LP  0  0  0  0  0  0  0  0  0  0  0  0  # atno 17342 bound_to 10162
  140.7818  143.4471  151.0466 LP  0  0  0  0  0  0  0  0  0  0  0  0  # atno 17343 bound_to 10162
  157.2136  130.6449  149.5784 LP  0  0  0  0  0  0  0  0  0  0  0  0  # atno 17370 bound_to 10713
  155.9726  130.4652  150.6244 LP  0  0  0  0  0  0  0  0  0  0  0  0  # atno 17371 bound_to 10713
  140.6435  134.5141  157.5571 LP  0  0  0  0  0  0  0  0  0  0  0  0  # atno 17394 bound_to 11000
  139.9197  134.8174  156.1251 LP  0  0  0  0  0  0  0  0  0  0  0  0  # atno 17395 bound_to 11000

$$$$
