AV-unprocessed.smi:3308|AV-procd|sdf|12711|dock7
  -GOLD-   2272019 43D 1   1.00000     0.00000
 Structure written by MMmdl.
 41 42  0  0  0  0  0  0  0  0  2 V2000
  155.1732  144.9968  163.6689 C   0  0  0  0  0  0  0  0  0  0  0  0
  154.9459  143.6129  164.3085 C   0  0  1  0  0  0  0  0  0  0  0  0
  154.5846  142.6075  163.2811 N   0  3  0  0  0  0  0  0  0  0  0  0
  153.2112  142.7067  162.7407 C   0  0  0  0  0  0  0  0  0  0  0  0
  153.0283  141.8761  161.4626 C   0  0  0  0  0  0  0  0  0  0  0  0
  153.6032  140.7922  161.3518 O   0  0  0  0  0  0  0  0  0  0  0  0
  152.2353  142.3708  160.4897 N   0  0  0  0  0  0  0  0  0  0  0  0
  151.5431  143.6547  160.5859 C   0  0  0  0  0  0  0  0  0  0  0  0
  150.9898  143.9332  159.1883 C   0  0  0  0  0  0  0  0  0  0  0  0
  150.8373  142.5522  158.5658 C   0  0  0  0  0  0  0  0  0  0  0  0
  151.9507  141.7243  159.2086 C   0  0  0  0  0  0  0  0  0  0  0  0
  156.1716  143.1465  165.1375 C   0  0  1  0  0  0  0  0  0  0  0  0
  157.4236  142.8957  164.2756 C   0  0  0  0  0  0  0  0  0  0  0  0
  156.4606  144.0179  166.2729 N   0  0  0  0  0  0  0  0  0  0  0  0
  156.5245  143.6799  167.6098 C   0  0  0  0  0  0  0  0  0  0  0  0
  156.8068  144.8186  168.3082 C   0  0  0  0  0  0  0  0  0  0  0  0
  156.8961  145.8193  167.3013 C   0  0  0  0  0  0  0  0  0  0  0  0
  156.6837  145.3392  166.0869 N   0  0  0  0  0  0  0  0  0  0  0  0
  155.5000  145.7213  164.4154 H   0  0  0  0  0  0  0  0  0  0  0  0
  154.2604  145.3910  163.2228 H   0  0  0  0  0  0  0  0  0  0  0  0
  155.9334  144.9602  162.8880 H   0  0  0  0  0  0  0  0  0  0  0  0
  154.1053  143.6949  164.9992 H   0  0  0  0  0  0  0  0  0  0  0  0
  155.2468  142.6649  162.5200 H   0  0  0  0  0  0  0  0  0  0  0  0
  152.5049  142.3631  163.4977 H   0  0  0  0  0  0  0  0  0  0  0  0
  152.9802  143.7475  162.5155 H   0  0  0  0  0  0  0  0  0  0  0  0
  150.7306  143.5663  161.3086 H   0  0  0  0  0  0  0  0  0  0  0  0
  152.2052  144.4566  160.9166 H   0  0  0  0  0  0  0  0  0  0  0  0
  150.0551  144.4944  159.2074 H   0  0  0  0  0  0  0  0  0  0  0  0
  151.7156  144.5133  158.6165 H   0  0  0  0  0  0  0  0  0  0  0  0
  149.8672  142.1351  158.8399 H   0  0  0  0  0  0  0  0  0  0  0  0
  150.8974  142.5698  157.4771 H   0  0  0  0  0  0  0  0  0  0  0  0
  152.8485  141.7491  158.5890 H   0  0  0  0  0  0  0  0  0  0  0  0
  151.6437  140.6842  159.3248 H   0  0  0  0  0  0  0  0  0  0  0  0
  155.9062  142.1777  165.5636 H   0  0  0  0  0  0  0  0  0  0  0  0
  157.2163  142.1728  163.4862 H   0  0  0  0  0  0  0  0  0  0  0  0
  158.2378  142.4945  164.8800 H   0  0  0  0  0  0  0  0  0  0  0  0
  157.7853  143.8083  163.8012 H   0  0  0  0  0  0  0  0  0  0  0  0
  156.3647  142.6676  167.9508 H   0  0  0  0  0  0  0  0  0  0  0  0
  156.9307  144.9215  169.3762 H   0  0  0  0  0  0  0  0  0  0  0  0
  157.1046  146.8729  167.4162 H   0  0  0  0  0  0  0  0  0  0  0  0
  154.6737  141.6934  163.7019 H   0  0  0  0  0  0  0  0  0  0  0  0
  1  2  1  0  0  0  0
  1 19  1  0  0  0  0
  1 20  1  0  0  0  0
  1 21  1  0  0  0  0
  2  3  1  0  0  0  0
  2 12  1  0  0  0  0
  2 22  1  0  0  0  0
  3  4  1  0  0  0  0
  3 23  1  0  0  0  0
  3 41  1  0  0  0  0
  4  5  1  0  0  0  0
  4 24  1  0  0  0  0
  4 25  1  0  0  0  0
  5  6  2  0  0  0  0
  5  7  1  0  0  0  0
  7 11  1  0  0  0  0
  7  8  1  0  0  0  0
  8  9  1  0  0  0  0
  8 26  1  0  0  0  0
  8 27  1  0  0  0  0
  9 10  1  0  0  0  0
  9 28  1  0  0  0  0
  9 29  1  0  0  0  0
 10 11  1  0  0  0  0
 10 30  1  0  0  0  0
 10 31  1  0  0  0  0
 11 32  1  0  0  0  0
 11 33  1  0  0  0  0
 12 13  1  0  0  0  0
 12 14  1  0  0  0  0
 12 34  1  0  0  0  0
 13 35  1  0  0  0  0
 13 36  1  0  0  0  0
 13 37  1  0  0  0  0
 14 18  1  0  0  0  0
 14 15  1  0  0  0  0
 15 16  2  0  0  0  0
 15 38  1  0  0  0  0
 16 17  1  0  0  0  0
 16 39  1  0  0  0  0
 17 18  2  0  0  0  0
 17 40  1  0  0  0  0
M  CHG  1   3   1
M  END
> <s_m_source_file>
AV-unprocessed.smi

> <i_m_source_file_index>
3308

> <i_lp_mmshare_version>
43012

> <i_f3d_flags>
0

> <s_epik_input>
bjFbY0hdW2NIXVtjSF1uMVtDQEBIXShbQ0gzXSlbQ0BIXShbQ0gzXSlbTkhdW0NIMl1DKD1PKU4yW0NIMl1bQ0gyXVtDSDJdW0NIMl0y

> <s_epik_cmdline>
J2VwaWtfcHl0aG9uJywgJy1waCcsICc3LjAnLCAnLXRuJywgJzgnLCAnLW1hJywgJzIwMCcsICctbWV0YWxfYmluZGluZycsICctaW1hZScsICc8aW5maWxlLm1hZT4nLCAnLW9tYWUnLCAnPG91dGZpbGUubWFlPic=

> <r_lp_tautomer_probability>
1

> <r_epik_Ionization_Penalty>
0.141739

> <r_epik_Ionization_Penalty_Charging>
0.141731

> <r_epik_Ionization_Penalty_Neutral>
8.82171e-06

> <r_epik_State_Penalty>
0.131043

> <r_epik_Charging_Adjusted_Penalty>
0.272773

> <i_epik_Tot_Q>
1

> <i_epik_Tot_abs_Q>
1

> <r_epik_Metal_State_Penalty>
0.131385

> <b_epik_Metal_Only>
0

> <s_lp_Force_Field>
OPLS_2005

> <r_lp_Energy>
32.7398

> <b_lp_Chiralities_Consistent>
1

> <s_lp_Variant>
AV-unprocessed.smi:3308-4

> <Gold.Version>
5.8.1

> <Gold.Id.Protein>
6NUR|6NUR_protein|mol2

> <Gold.PLP.Fitness>
49.5302

> <Gold.PLP.PLP>
-50.7073

> <Gold.PLP.part.hbond>
-1.0000

> <Gold.PLP.part.metal>
0.0000

> <Gold.PLP.part.buried>
-6.4828

> <Gold.PLP.part.nonpolar>
-43.4425

> <Gold.PLP.part.repulsive>
0.0815

> <Gold.PLP.ligand.clash>
0.0000

> <Gold.PLP.ligand.torsion>
0.6773

> <Gold.PLP.Chemscore.Hbond>
0.0000

> <Gold.PLP.Chemscore.CHOScore>
0.0000

> <Gold.PLP.Chemscore.Metal>
0.0000

> <Gold.PLP.Chemscore.Internal.Correction>
0.1776

> <Gold.Rescore>
     Score         DG    S(hbond)    S(metal)    S(lipo)     H(rot)  DE(clash)    DE(int)     intcor
     10.75     -13.71       0.00        0.00     109.33       1.78       1.21       1.74       ----

> <Gold.Chemscore.Fitness>
10.7509

> <Gold.Chemscore.DG>
-13.7062

> <Gold.Chemscore.ZeroCoef>
-5.4800

> <Gold.Chemscore.Hbond>
0.0000

> <Gold.Chemscore.Metal>
0.0000

> <Gold.Chemscore.Lipo>
109.3346

> <Gold.Chemscore.Internal_Hbond>
0.0000

> <Gold.Chemscore.DEClash>
1.2133

> <Gold.Chemscore.DEInternal>
1.7420

> <Gold.Chemscore.Rot>
1.7836

> <Gold.Chemscore.Internal.Correction>
   9.000000E+99

> <Gold.Chemscore.Hbond.Weighted>
-0.0000

> <Gold.Chemscore.Metal.Weighted>
-0.0000

> <Gold.Chemscore.Lipo.Weighted>
-12.7921

> <Gold.Chemscore.Internal_Hbond.Weighted>
0.0000

> <Gold.Chemscore.DEClash.Weighted>
1.2133

> <Gold.Chemscore.DEInternal.Weighted>
1.7420

> <Gold.Chemscore.Rot.Weighted>
4.5660

> <Gold.Chemscore.Internal.Correction.Weighted>
   9.000000E+99

> <Gold.Protein.RotatedTorsions>
[ 6907 6896 6895 6894 ] final -168.46 input  -60.11 | X-H torsion
[ 7974 7965 7964 7962 ] final  106.01 input  175.53 | X-H torsion
[ 8008 7997 7996 7995 ] final -122.17 input   59.86 | X-H torsion
[ 10167 10162 10161 10158 ] final   53.84 input  -65.29 | X-H torsion
[ 10718 10713 10712 10709 ] final   89.57 input   66.30 | X-H torsion
[ 10763 10752 10751 10750 ] final  -18.07 input  -60.55 | X-H torsion
[ 11005 11000 10999 10996 ] final  157.50 input  -57.11 | X-H torsion

> <Gold.Protein.ActiveResidues>
 VAL166  LYS551  ARG553  GLY616  TRP617  ASP618  TYR619  PRO620  LYS621  CYS622 
 ASP623  PHE694  ASN695  SER759  ASP760  ASP761  ALA762  ILE779  LEU786  VAL792 
 PHE793  MET794  SER795  GLU796  ALA797  LYS798  CYS799  TRP800  GLU811  SER814 

> <Gold.Protein.RotatedAtoms>
  151.4759  133.3558  159.2830 H   0  0  0  0  0  0  0  0  0  0  0  0  # atno 6907 bound_to 6896
  150.8930  134.8337  159.7317 H   0  0  0  0  0  0  0  0  0  0  0  0  # atno 6908 bound_to 6896
  152.4834  134.4671  159.9675 H   0  0  0  0  0  0  0  0  0  0  0  0  # atno 6909 bound_to 6896
  145.3122  139.2537  143.3757 H   0  0  0  0  0  0  0  0  0  0  0  0  # atno 7974 bound_to 7965
  155.1599  140.0405  157.2840 H   0  0  0  0  0  0  0  0  0  0  0  0  # atno 8008 bound_to 7997
  154.6343  140.2532  155.7369 H   0  0  0  0  0  0  0  0  0  0  0  0  # atno 8009 bound_to 7997
  156.2501  140.2869  156.0709 H   0  0  0  0  0  0  0  0  0  0  0  0  # atno 8010 bound_to 7997
  140.2365  144.3630  150.6395 H   0  0  0  0  0  0  0  0  0  0  0  0  # atno 10167 bound_to 10162
  157.6956  131.0338  150.3446 H   0  0  0  0  0  0  0  0  0  0  0  0  # atno 10718 bound_to 10713
  153.5836  135.7004  153.5453 H   0  0  0  0  0  0  0  0  0  0  0  0  # atno 10763 bound_to 10752
  153.3240  135.4066  155.1440 H   0  0  0  0  0  0  0  0  0  0  0  0  # atno 10764 bound_to 10752
  154.8613  135.3702  154.5364 H   0  0  0  0  0  0  0  0  0  0  0  0  # atno 10765 bound_to 10752
  140.1776  134.8499  157.2764 H   0  0  0  0  0  0  0  0  0  0  0  0  # atno 11005 bound_to 11000
  146.3113  140.3661  142.8669 LP  0  0  0  0  0  0  0  0  0  0  0  0  # atno 17320 bound_to 7965
  144.9006  140.7638  143.5869 LP  0  0  0  0  0  0  0  0  0  0  0  0  # atno 17321 bound_to 7965
  140.6146  143.2171  151.6818 LP  0  0  0  0  0  0  0  0  0  0  0  0  # atno 17342 bound_to 10162
  139.5092  144.3585  152.0584 LP  0  0  0  0  0  0  0  0  0  0  0  0  # atno 17343 bound_to 10162
  156.3902  130.3896  149.7035 LP  0  0  0  0  0  0  0  0  0  0  0  0  # atno 17370 bound_to 10713
  156.4388  130.7851  151.2872 LP  0  0  0  0  0  0  0  0  0  0  0  0  # atno 17371 bound_to 10713
  140.2305  134.3915  155.7524 LP  0  0  0  0  0  0  0  0  0  0  0  0  # atno 17394 bound_to 11000
  141.2221  133.7212  156.8633 LP  0  0  0  0  0  0  0  0  0  0  0  0  # atno 17395 bound_to 11000

$$$$
