AV-unprocessed.smi:3068|AV-procd|sdf|11699|dock4
  -GOLD-   2272017103D 1   1.00000     0.00000
 Structure written by MMmdl.
 40 42  0  0  0  0  0  0  0  0  2 V2000
  152.0793  137.4730  154.3009 N   0  0  0  0  0  0  0  0  0  0  0  0
  151.2637  138.2875  154.4037 C   0  0  0  0  0  0  0  0  0  0  0  0
  150.2365  139.3133  154.5313 C   0  0  0  0  0  0  0  0  0  0  0  0
  150.6541  140.5522  154.8799 N   0  0  0  0  0  0  0  0  0  0  0  0
  149.7121  141.5122  154.9972 C   0  0  0  0  0  0  0  0  0  0  0  0
  148.3494  141.2404  154.7671 C   0  0  0  0  0  0  0  0  0  0  0  0
  147.9232  140.0073  154.4193 N   0  0  0  0  0  0  0  0  0  0  0  0
  148.8601  139.0339  154.2977 C   0  0  0  0  0  0  0  0  0  0  0  0
  148.4298  137.7456  153.9336 N   0  0  0  0  0  0  0  0  0  0  0  0
  148.7851  136.5809  154.7319 C   0  0  0  0  0  0  0  0  0  0  0  0
  147.5322  135.8408  155.2408 C   0  0  1  0  0  0  0  0  0  0  0  0
  146.3269  135.9702  154.2905 C   0  0  0  0  0  0  0  0  0  0  0  0
  146.5255  135.1768  153.0545 N   0  3  2  0  0  0  0  0  0  0  0  0
  145.3888  135.3192  152.1091 C   0  0  0  0  0  0  0  0  0  0  0  0
  145.6554  134.5590  150.8004 C   0  0  0  0  0  0  0  0  0  0  0  0
  145.9541  133.0810  151.0805 C   0  0  0  0  0  0  0  0  0  0  0  0
  147.1154  132.9618  152.0760 C   0  0  0  0  0  0  0  0  0  0  0  0
  146.8334  133.7550  153.3680 C   0  0  1  0  0  0  0  0  0  0  0  0
  148.0278  133.6739  154.3376 C   0  0  0  0  0  0  0  0  0  0  0  0
  147.7805  134.4586  155.4994 O   0  0  0  0  0  0  0  0  0  0  0  0
  150.0472  142.5006  155.2746 H   0  0  0  0  0  0  0  0  0  0  0  0
  147.6007  142.0129  154.8614 H   0  0  0  0  0  0  0  0  0  0  0  0
  147.7732  137.6334  153.1738 H   0  0  0  0  0  0  0  0  0  0  0  0
  149.3743  135.9077  154.1081 H   0  0  0  0  0  0  0  0  0  0  0  0
  149.4278  136.8783  155.5605 H   0  0  0  0  0  0  0  0  0  0  0  0
  147.2501  136.2907  156.1936 H   0  0  0  0  0  0  0  0  0  0  0  0
  145.4257  135.6201  154.7962 H   0  0  0  0  0  0  0  0  0  0  0  0
  146.1591  137.0179  154.0380 H   0  0  0  0  0  0  0  0  0  0  0  0
  144.4752  134.9486  152.5773 H   0  0  0  0  0  0  0  0  0  0  0  0
  145.2266  136.3751  151.8899 H   0  0  0  0  0  0  0  0  0  0  0  0
  144.7943  134.6455  150.1371 H   0  0  0  0  0  0  0  0  0  0  0  0
  146.4979  135.0124  150.2763 H   0  0  0  0  0  0  0  0  0  0  0  0
  145.0666  132.5940  151.4868 H   0  0  0  0  0  0  0  0  0  0  0  0
  146.1980  132.5629  150.1524 H   0  0  0  0  0  0  0  0  0  0  0  0
  147.2898  131.9115  152.3121 H   0  0  0  0  0  0  0  0  0  0  0  0
  148.0307  133.3290  151.6091 H   0  0  0  0  0  0  0  0  0  0  0  0
  145.9609  133.3218  153.8610 H   0  0  0  0  0  0  0  0  0  0  0  0
  148.1833  132.6412  154.6509 H   0  0  0  0  0  0  0  0  0  0  0  0
  148.9530  133.9876  153.8537 H   0  0  0  0  0  0  0  0  0  0  0  0
  147.3393  135.5557  152.5912 H   0  0  0  0  0  0  0  0  0  0  0  0
  1  2  3  0  0  0  0
  2  3  1  0  0  0  0
  3  8  1  0  0  0  0
  3  4  2  0  0  0  0
  4  5  1  0  0  0  0
  5  6  2  0  0  0  0
  5 21  1  0  0  0  0
  6  7  1  0  0  0  0
  6 22  1  0  0  0  0
  7  8  2  0  0  0  0
  8  9  1  0  0  0  0
  9 10  1  0  0  0  0
  9 23  1  0  0  0  0
 10 11  1  0  0  0  0
 10 24  1  0  0  0  0
 10 25  1  0  0  0  0
 11 20  1  0  0  0  0
 11 12  1  0  0  0  0
 11 26  1  0  0  0  0
 12 13  1  0  0  0  0
 12 27  1  0  0  0  0
 12 28  1  0  0  0  0
 13 18  1  0  0  0  0
 13 14  1  0  0  0  0
 13 40  1  0  0  0  0
 14 15  1  0  0  0  0
 14 29  1  0  0  0  0
 14 30  1  0  0  0  0
 15 16  1  0  0  0  0
 15 31  1  0  0  0  0
 15 32  1  0  0  0  0
 16 17  1  0  0  0  0
 16 33  1  0  0  0  0
 16 34  1  0  0  0  0
 17 18  1  0  0  0  0
 17 35  1  0  0  0  0
 17 36  1  0  0  0  0
 18 19  1  0  0  0  0
 18 37  1  0  0  0  0
 19 20  1  0  0  0  0
 19 38  1  0  0  0  0
 19 39  1  0  0  0  0
M  CHG  1  13   1
M  END
> <s_m_source_file>
AV-unprocessed.smi

> <i_m_source_file_index>
3068

> <i_lp_mmshare_version>
43012

> <i_f3d_flags>
0

> <s_epik_input>
TiNDYzFuW2NIXVtjSF1uYzFbTkhdW0NIMl1bQ0BIXShbQ0gyXTIpT1tDSDJdW0NAQEhdKE4yMylbQ0gyXVtDSDJdW0NIMl1bQ0gyXTM=

> <s_epik_cmdline>
J2VwaWtfcHl0aG9uJywgJy1waCcsICc3LjAnLCAnLXRuJywgJzgnLCAnLW1hJywgJzIwMCcsICctbWV0YWxfYmluZGluZycsICctaW1hZScsICc8aW5maWxlLm1hZT4nLCAnLW9tYWUnLCAnPG91dGZpbGUubWFlPic=

> <r_epik_Ionization_Penalty>
0.0804321

> <r_epik_Ionization_Penalty_Charging>
0.0803403

> <r_epik_Ionization_Penalty_Neutral>
9.17277e-05

> <r_epik_State_Penalty>
0.0711481

> <r_epik_Charging_Adjusted_Penalty>
0.151488

> <i_epik_Tot_Q>
1

> <i_epik_Tot_abs_Q>
1

> <r_epik_Metal_State_Penalty>
0.0711481

> <b_epik_Metal_Only>
0

> <s_lp_Force_Field>
OPLS_2005

> <r_lp_Energy>
40.024

> <b_lp_Chiralities_Consistent>
1

> <s_lp_Variant>
AV-unprocessed.smi:3068-2

> <Gold.Version>
5.8.1

> <Gold.Id.Protein>
6NUR|6NUR_protein|mol2

> <Gold.PLP.Fitness>
41.3719

> <Gold.PLP.PLP>
-28.5451

> <Gold.PLP.part.hbond>
-4.0000

> <Gold.PLP.part.metal>
0.0000

> <Gold.PLP.part.buried>
-1.7181

> <Gold.PLP.part.nonpolar>
-22.9816

> <Gold.PLP.part.repulsive>
0.3749

> <Gold.PLP.ligand.clash>
0.0000

> <Gold.PLP.ligand.torsion>
0.8130

> <Gold.PLP.Chemscore.Hbond>
3.8140

> <Gold.PLP.Chemscore.CHOScore>
1.0000

> <Gold.PLP.Chemscore.Metal>
0.0000

> <Gold.Chemscore.Hbonds>
donor molecule, donor type, donor heavy atom, donor atom, acceptor molecule, acceptor atom, score
      L1  H    13    40       P1  7948  2.00
      P1  H  7989  7998       L1     4  0.95
      P1  H 10752 10763       L1     1  0.86
      L1  C     5    21       P1  8028  1.00

> <Gold.PLP.Chemscore.Internal.Correction>
0.0108

> <Gold.Rescore>
     Score         DG    S(hbond)    S(metal)    S(lipo)     H(rot)  DE(clash)    DE(int)     intcor
     13.58     -16.40       2.21        0.00      59.02       1.32       1.15       1.67       ----

> <Gold.Chemscore.Fitness>
13.5824

> <Gold.Chemscore.DG>
-16.4024

> <Gold.Chemscore.ZeroCoef>
-5.4800

> <Gold.Chemscore.Hbond>
2.2139

> <Gold.Chemscore.Metal>
0.0000

> <Gold.Chemscore.Lipo>
59.0201

> <Gold.Chemscore.Internal_Hbond>
0.0000

> <Gold.Chemscore.DEClash>
1.1489

> <Gold.Chemscore.DEInternal>
1.6711

> <Gold.Chemscore.Rot>
1.3193

> <Gold.Chemscore.Internal.Correction>
   9.000000E+99

> <Gold.Chemscore.Hbonds>
donor molecule, donor type, donor heavy atom, donor atom, acceptor molecule, acceptor atom, score
      L1  H     9    23       P1  7948  0.03
      L1  H    13    40       P1  7948  1.00
      P1  H  7989  7998       L1     4  0.14
      P1  H 10752 10763       L1     1  0.82

> <Gold.Chemscore.Hbond.Weighted>
-7.3944

> <Gold.Chemscore.Metal.Weighted>
-0.0000

> <Gold.Chemscore.Lipo.Weighted>
-6.9053

> <Gold.Chemscore.Internal_Hbond.Weighted>
0.0000

> <Gold.Chemscore.DEClash.Weighted>
1.1489

> <Gold.Chemscore.DEInternal.Weighted>
1.6711

> <Gold.Chemscore.Rot.Weighted>
3.3774

> <Gold.Chemscore.Internal.Correction.Weighted>
   9.000000E+99

> <Gold.Protein.RotatedTorsions>
[ 6907 6896 6895 6894 ] final -156.20 input  -60.11 | X-H torsion
[ 7974 7965 7964 7962 ] final -151.66 input  175.53 | X-H torsion
[ 8008 7997 7996 7995 ] final  -76.55 input   59.86 | X-H torsion
[ 10167 10162 10161 10158 ] final   -8.02 input  -65.29 | X-H torsion
[ 10718 10713 10712 10709 ] final   42.84 input   66.30 | X-H torsion
[ 10763 10752 10751 10750 ] final   35.56 input  -60.55 | X-H torsion
[ 11005 11000 10999 10996 ] final  -78.56 input  -57.11 | X-H torsion

> <Gold.Protein.ActiveResidues>
 VAL166  LYS551  ARG553  GLY616  TRP617  ASP618  TYR619  PRO620  LYS621  CYS622 
 ASP623  PHE694  ASN695  SER759  ASP760  ASP761  ALA762  ILE779  LEU786  VAL792 
 PHE793  MET794  SER795  GLU796  ALA797  LYS798  CYS799  TRP800  GLU811  SER814 

> <Gold.Protein.RotatedAtoms>
  151.2840  133.4196  159.2628 H   0  0  0  0  0  0  0  0  0  0  0  0  # atno 6907 bound_to 6896
  151.0336  134.9557  159.8134 H   0  0  0  0  0  0  0  0  0  0  0  0  # atno 6908 bound_to 6896
  152.5351  134.2800  159.9056 H   0  0  0  0  0  0  0  0  0  0  0  0  # atno 6909 bound_to 6896
  144.7837  140.4768  143.5821 H   0  0  0  0  0  0  0  0  0  0  0  0  # atno 7974 bound_to 7965
  154.5516  140.0725  156.8676 H   0  0  0  0  0  0  0  0  0  0  0  0  # atno 8008 bound_to 7997
  155.2983  140.3382  155.4231 H   0  0  0  0  0  0  0  0  0  0  0  0  # atno 8009 bound_to 7997
  156.1966  140.1706  156.7972 H   0  0  0  0  0  0  0  0  0  0  0  0  # atno 8010 bound_to 7997
  140.7046  143.6016  150.8792 H   0  0  0  0  0  0  0  0  0  0  0  0  # atno 10167 bound_to 10162
  157.4093  130.7905  149.7416 H   0  0  0  0  0  0  0  0  0  0  0  0  # atno 10718 bound_to 10713
  153.0114  135.6330  154.1847 H   0  0  0  0  0  0  0  0  0  0  0  0  # atno 10763 bound_to 10752
  154.1589  135.2824  155.3116 H   0  0  0  0  0  0  0  0  0  0  0  0  # atno 10764 bound_to 10752
  154.5997  135.5591  153.7422 H   0  0  0  0  0  0  0  0  0  0  0  0  # atno 10765 bound_to 10752
  141.1665  133.7068  156.7991 H   0  0  0  0  0  0  0  0  0  0  0  0  # atno 11005 bound_to 11000
  145.5979  139.1501  143.3145 LP  0  0  0  0  0  0  0  0  0  0  0  0  # atno 17320 bound_to 7965
  146.2059  140.6102  142.9081 LP  0  0  0  0  0  0  0  0  0  0  0  0  # atno 17321 bound_to 7965
  139.9740  143.6025  152.2964 LP  0  0  0  0  0  0  0  0  0  0  0  0  # atno 17342 bound_to 10162
  139.6622  144.7662  151.1941 LP  0  0  0  0  0  0  0  0  0  0  0  0  # atno 17343 bound_to 10162
  155.9846  130.3990  150.3305 LP  0  0  0  0  0  0  0  0  0  0  0  0  # atno 17370 bound_to 10713
  157.1441  131.0304  151.2914 LP  0  0  0  0  0  0  0  0  0  0  0  0  # atno 17371 bound_to 10713
  140.2269  134.8715  157.3436 LP  0  0  0  0  0  0  0  0  0  0  0  0  # atno 17394 bound_to 11000
  140.1930  134.4348  155.7705 LP  0  0  0  0  0  0  0  0  0  0  0  0  # atno 17395 bound_to 11000

$$$$
