AV-unprocessed.smi:3338|AV-procd|sdf|12872|dock7
  -GOLD-   2272019273D 1   1.00000     0.00000
 Structure written by MMmdl.
 44 45  0  0  0  0  0  0  0  0  2 V2000
  145.8691  131.3556  151.0415 C   0  0  0  0  0  0  0  0  0  0  0  0
  146.2342  132.6385  151.8014 C   0  0  1  0  0  0  0  0  0  0  0  0
  145.1024  133.0736  152.7471 C   0  0  0  0  0  0  0  0  0  0  0  0
  145.5044  134.3448  153.5051 C   0  0  0  0  0  0  0  0  0  0  0  0
  146.8380  134.1465  154.2429 C   0  0  0  0  0  0  0  0  0  0  0  0
  147.9124  133.7291  153.3050 N   0  3  1  0  0  0  0  0  0  0  0  0
  149.2392  133.6646  153.9683 C   0  0  0  0  0  0  0  0  0  0  0  0
  149.4020  134.7322  155.0678 C   0  0  0  0  0  0  0  0  0  0  0  0
  149.9792  135.9615  154.5379 N   0  0  0  0  0  0  0  0  0  0  0  0
  151.0464  136.5942  155.0529 C   0  0  0  0  0  0  0  0  0  0  0  0
  151.6654  136.1690  156.0293 O   0  0  0  0  0  0  0  0  0  0  0  0
  151.4776  137.8930  154.3487 C   0  0  2  0  0  0  0  0  0  0  0  0
  152.8798  138.3738  154.7751 C   0  0  0  0  0  0  0  0  0  0  0  0
  150.4734  138.9363  154.5260 N   0  0  0  0  0  0  0  0  0  0  0  0
  149.1204  138.8677  154.2615 C   0  0  0  0  0  0  0  0  0  0  0  0
  148.5737  140.0716  154.6019 C   0  0  0  0  0  0  0  0  0  0  0  0
  149.6828  140.8239  155.0786 C   0  0  0  0  0  0  0  0  0  0  0  0
  150.8157  140.1421  155.0371 N   0  0  0  0  0  0  0  0  0  0  0  0
  147.5521  132.4774  152.5856 C   0  0  0  0  0  0  0  0  0  0  0  0
  145.7077  130.5211  151.7245 H   0  0  0  0  0  0  0  0  0  0  0  0
  146.6609  131.0702  150.3483 H   0  0  0  0  0  0  0  0  0  0  0  0
  144.9568  131.4911  150.4598 H   0  0  0  0  0  0  0  0  0  0  0  0
  146.3775  133.4269  151.0609 H   0  0  0  0  0  0  0  0  0  0  0  0
  144.1845  133.2510  152.1853 H   0  0  0  0  0  0  0  0  0  0  0  0
  144.8837  132.2763  153.4591 H   0  0  0  0  0  0  0  0  0  0  0  0
  145.5920  135.1773  152.8055 H   0  0  0  0  0  0  0  0  0  0  0  0
  144.7228  134.6180  154.2145 H   0  0  0  0  0  0  0  0  0  0  0  0
  147.1151  135.0811  154.7323 H   0  0  0  0  0  0  0  0  0  0  0  0
  146.7269  133.3976  155.0286 H   0  0  0  0  0  0  0  0  0  0  0  0
  149.3563  132.6814  154.4262 H   0  0  0  0  0  0  0  0  0  0  0  0
  150.0308  133.7517  153.2223 H   0  0  0  0  0  0  0  0  0  0  0  0
  148.4389  134.9929  155.5046 H   0  0  0  0  0  0  0  0  0  0  0  0
  150.0198  134.3519  155.8832 H   0  0  0  0  0  0  0  0  0  0  0  0
  149.5237  136.3750  153.7367 H   0  0  0  0  0  0  0  0  0  0  0  0
  151.5248  137.6704  153.2815 H   0  0  0  0  0  0  0  0  0  0  0  0
  153.6345  137.6101  154.5843 H   0  0  0  0  0  0  0  0  0  0  0  0
  152.9214  138.6220  155.8365 H   0  0  0  0  0  0  0  0  0  0  0  0
  153.1709  139.2642  154.2171 H   0  0  0  0  0  0  0  0  0  0  0  0
  148.6630  137.9768  153.8566 H   0  0  0  0  0  0  0  0  0  0  0  0
  147.5386  140.3694  154.5242 H   0  0  0  0  0  0  0  0  0  0  0  0
  149.6983  141.8366  155.4539 H   0  0  0  0  0  0  0  0  0  0  0  0
  147.4689  131.6581  153.3020 H   0  0  0  0  0  0  0  0  0  0  0  0
  148.3430  132.2048  151.8881 H   0  0  0  0  0  0  0  0  0  0  0  0
  147.9763  134.4604  152.6112 H   0  0  0  0  0  0  0  0  0  0  0  0
  1  2  1  0  0  0  0
  1 20  1  0  0  0  0
  1 21  1  0  0  0  0
  1 22  1  0  0  0  0
  2 19  1  0  0  0  0
  2  3  1  0  0  0  0
  2 23  1  0  0  0  0
  3  4  1  0  0  0  0
  3 24  1  0  0  0  0
  3 25  1  0  0  0  0
  4  5  1  0  0  0  0
  4 26  1  0  0  0  0
  4 27  1  0  0  0  0
  5  6  1  0  0  0  0
  5 28  1  0  0  0  0
  5 29  1  0  0  0  0
  6  7  1  0  0  0  0
  6 19  1  0  0  0  0
  6 44  1  0  0  0  0
  7  8  1  0  0  0  0
  7 30  1  0  0  0  0
  7 31  1  0  0  0  0
  8  9  1  0  0  0  0
  8 32  1  0  0  0  0
  8 33  1  0  0  0  0
  9 10  1  0  0  0  0
  9 34  1  0  0  0  0
 10 11  2  0  0  0  0
 10 12  1  0  0  0  0
 12 13  1  0  0  0  0
 12 14  1  0  0  0  0
 12 35  1  0  0  0  0
 13 36  1  0  0  0  0
 13 37  1  0  0  0  0
 13 38  1  0  0  0  0
 14 18  1  0  0  0  0
 14 15  1  0  0  0  0
 15 16  2  0  0  0  0
 15 39  1  0  0  0  0
 16 17  1  0  0  0  0
 16 40  1  0  0  0  0
 17 18  2  0  0  0  0
 17 41  1  0  0  0  0
 19 42  1  0  0  0  0
 19 43  1  0  0  0  0
M  CHG  1   6   1
M  END
> <s_m_source_file>
AV-unprocessed.smi

> <i_m_source_file_index>
3338

> <i_lp_mmshare_version>
43012

> <i_f3d_flags>
0

> <s_epik_input>
W0NIM11bQ0BASF0xW0NIMl1bQ0gyXVtDSDJdTihbQ0gyXTEpW0NIMl1bQ0gyXVtOSF1DKD1PKVtDQEhdKFtDSDNdKW4yW2NIXVtjSF1bY0hdbjI=

> <s_epik_cmdline>
J2VwaWtfcHl0aG9uJywgJy1waCcsICc3LjAnLCAnLXRuJywgJzgnLCAnLW1hJywgJzIwMCcsICctbWV0YWxfYmluZGluZycsICctaW1hZScsICc8aW5maWxlLm1hZT4nLCAnLW9tYWUnLCAnPG91dGZpbGUubWFlPic=

> <r_lp_tautomer_probability>
1

> <r_epik_Ionization_Penalty>
0.00225707

> <r_epik_Ionization_Penalty_Charging>
0.00223709

> <r_epik_Ionization_Penalty_Neutral>
1.99775e-05

> <r_epik_State_Penalty>
0.00153978

> <r_epik_Charging_Adjusted_Penalty>
0.00377687

> <i_epik_Tot_Q>
1

> <i_epik_Tot_abs_Q>
1

> <r_epik_Metal_State_Penalty>
-0

> <b_epik_Metal_Only>
0

> <s_lp_Force_Field>
OPLS_2005

> <r_lp_Energy>
19.9397

> <b_lp_Chiralities_Consistent>
1

> <s_lp_Variant>
AV-unprocessed.smi:3338-4

> <Gold.Version>
5.8.1

> <Gold.Id.Protein>
6NUR|6NUR_protein|mol2

> <Gold.PLP.Fitness>
52.0574

> <Gold.PLP.PLP>
-35.8817

> <Gold.PLP.part.hbond>
-4.4609

> <Gold.PLP.part.metal>
0.0000

> <Gold.PLP.part.buried>
-0.6475

> <Gold.PLP.part.nonpolar>
-30.8154

> <Gold.PLP.part.repulsive>
0.1439

> <Gold.PLP.ligand.clash>
0.0000

> <Gold.PLP.ligand.torsion>
0.7191

> <Gold.PLP.Chemscore.Hbond>
4.9120

> <Gold.PLP.Chemscore.CHOScore>
0.9223

> <Gold.PLP.Chemscore.Metal>
0.0000

> <Gold.Chemscore.Hbonds>
donor molecule, donor type, donor heavy atom, donor atom, acceptor molecule, acceptor atom, score
      L1  H     6    44       P1  7948  1.58
      L1  H     9    34       P1  7948  0.96
      P1  H  7989  7998       L1    18  0.95
      P1  H 10752 10764       L1    11  1.00
      L1  C    15    39       P1  7948  0.70

> <Gold.PLP.Chemscore.Internal.Correction>
0.1111

> <Gold.Rescore>
     Score         DG    S(hbond)    S(metal)    S(lipo)     H(rot)  DE(clash)    DE(int)     intcor
     15.86     -17.01       2.00        0.00      79.94       1.76       0.29       0.86       ----

> <Gold.Chemscore.Fitness>
15.8595

> <Gold.Chemscore.DG>
-17.0106

> <Gold.Chemscore.ZeroCoef>
-5.4800

> <Gold.Chemscore.Hbond>
1.9987

> <Gold.Chemscore.Metal>
0.0000

> <Gold.Chemscore.Lipo>
79.9383

> <Gold.Chemscore.Internal_Hbond>
0.0000

> <Gold.Chemscore.DEClash>
0.2887

> <Gold.Chemscore.DEInternal>
0.8624

> <Gold.Chemscore.Rot>
1.7570

> <Gold.Chemscore.Internal.Correction>
   9.000000E+99

> <Gold.Chemscore.Hbonds>
donor molecule, donor type, donor heavy atom, donor atom, acceptor molecule, acceptor atom, score
      L1  H     6    44       P1  7948  0.37
      L1  H     9    34       P1  7948  0.64
      P1  H  7989  7998       L1    18  0.06
      P1  H 10752 10764       L1    11  0.29

> <Gold.Chemscore.Hbond.Weighted>
-6.6757

> <Gold.Chemscore.Metal.Weighted>
-0.0000

> <Gold.Chemscore.Lipo.Weighted>
-9.3528

> <Gold.Chemscore.Internal_Hbond.Weighted>
0.0000

> <Gold.Chemscore.DEClash.Weighted>
0.2887

> <Gold.Chemscore.DEInternal.Weighted>
0.8624

> <Gold.Chemscore.Rot.Weighted>
4.4979

> <Gold.Chemscore.Internal.Correction.Weighted>
   9.000000E+99

> <Gold.Protein.RotatedTorsions>
[ 6907 6896 6895 6894 ] final  -87.24 input  -60.11 | X-H torsion
[ 7974 7965 7964 7962 ] final    5.15 input  175.53 | X-H torsion
[ 8008 7997 7996 7995 ] final -127.09 input   59.86 | X-H torsion
[ 10167 10162 10161 10158 ] final  117.26 input  -65.29 | X-H torsion
[ 10718 10713 10712 10709 ] final  -98.66 input   66.30 | X-H torsion
[ 10763 10752 10751 10750 ] final  -19.27 input  -60.55 | X-H torsion
[ 11005 11000 10999 10996 ] final   19.53 input  -57.11 | X-H torsion

> <Gold.Protein.ActiveResidues>
 VAL166  LYS551  ARG553  GLY616  TRP617  ASP618  TYR619  PRO620  LYS621  CYS622 
 ASP623  PHE694  ASN695  SER759  ASP760  ASP761  ALA762  ILE779  LEU786  VAL792 
 PHE793  MET794  SER795  GLU796  ALA797  LYS798  CYS799  TRP800  GLU811  SER814 

> <Gold.Protein.RotatedAtoms>
  150.6866  134.2926  159.4672 H   0  0  0  0  0  0  0  0  0  0  0  0  # atno 6907 bound_to 6896
  152.0830  134.9456  160.0582 H   0  0  0  0  0  0  0  0  0  0  0  0  # atno 6908 bound_to 6896
  152.0801  133.4114  159.4534 H   0  0  0  0  0  0  0  0  0  0  0  0  # atno 6909 bound_to 6896
  146.2441  140.0427  142.8381 H   0  0  0  0  0  0  0  0  0  0  0  0  # atno 7974 bound_to 7965
  155.2405  140.0428  157.2974 H   0  0  0  0  0  0  0  0  0  0  0  0  # atno 8008 bound_to 7997
  154.5831  140.2406  155.7995 H   0  0  0  0  0  0  0  0  0  0  0  0  # atno 8009 bound_to 7997
  156.2207  140.2970  155.9954 H   0  0  0  0  0  0  0  0  0  0  0  0  # atno 8010 bound_to 7997
  139.6191  144.7097  151.2674 H   0  0  0  0  0  0  0  0  0  0  0  0  # atno 10167 bound_to 10162
  156.0113  130.5248  150.6556 H   0  0  0  0  0  0  0  0  0  0  0  0  # atno 10718 bound_to 10713
  153.6022  135.6999  153.5380 H   0  0  0  0  0  0  0  0  0  0  0  0  # atno 10763 bound_to 10752
  153.3087  135.4107  155.1316 H   0  0  0  0  0  0  0  0  0  0  0  0  # atno 10764 bound_to 10752
  154.8580  135.3667  154.5558 H   0  0  0  0  0  0  0  0  0  0  0  0  # atno 10765 bound_to 10752
  140.4127  134.1602  155.7668 H   0  0  0  0  0  0  0  0  0  0  0  0  # atno 11005 bound_to 11000
  145.1055  140.9372  143.4687 LP  0  0  0  0  0  0  0  0  0  0  0  0  # atno 17320 bound_to 7965
  145.0629  139.3091  143.5871 LP  0  0  0  0  0  0  0  0  0  0  0  0  # atno 17321 bound_to 7965
  140.7370  143.6690  150.8098 LP  0  0  0  0  0  0  0  0  0  0  0  0  # atno 17342 bound_to 10162
  140.0298  143.5455  152.2765 LP  0  0  0  0  0  0  0  0  0  0  0  0  # atno 17343 bound_to 10162
  157.4308  131.0849  151.1040 LP  0  0  0  0  0  0  0  0  0  0  0  0  # atno 17370 bound_to 10713
  157.1613  130.6227  149.5611 LP  0  0  0  0  0  0  0  0  0  0  0  0  # atno 17371 bound_to 10713
  141.1815  133.8404  157.1241 LP  0  0  0  0  0  0  0  0  0  0  0  0  # atno 17394 bound_to 11000
  140.0256  134.9925  157.0679 LP  0  0  0  0  0  0  0  0  0  0  0  0  # atno 17395 bound_to 11000

$$$$
