AV-unprocessed.smi:3091|AV-procd|sdf|11778|dock10
  -GOLD-   2272017163D 1   1.00000     0.00000
 Structure written by MMmdl.
 29 30  0  0  0  0  0  0  0  0  2 V2000
  148.3846  142.1493  154.9016 N   0  3  0  0  0  0  0  0  0  0  0  0
  149.2279  141.0151  154.4917 C   0  0  0  0  0  0  0  0  0  0  0  0
  150.2449  140.6887  155.5657 C   0  0  0  0  0  0  0  0  0  0  0  0
  151.0857  139.5645  155.4412 C   0  0  0  0  0  0  0  0  0  0  0  0
  152.0104  139.3028  156.4709 C   0  0  0  0  0  0  0  0  0  0  0  0
  152.1291  140.0740  157.5721 N   0  0  0  0  0  0  0  0  0  0  0  0
  151.3193  141.1553  157.6928 C   0  0  0  0  0  0  0  0  0  0  0  0
  151.4295  141.9567  158.8121 O   0  0  0  0  0  0  0  0  0  0  0  0
  152.6214  142.7176  159.0207 C   0  0  2  0  0  0  0  0  0  0  0  0
  152.6484  143.3178  160.4207 C   0  0  0  0  0  0  0  0  0  0  0  0
  151.9146  144.6366  160.2274 C   0  0  0  0  0  0  0  0  0  0  0  0
  152.3951  145.0844  158.9717 O   0  0  0  0  0  0  0  0  0  0  0  0
  152.5592  143.9577  158.1159 C   0  0  0  0  0  0  0  0  0  0  0  0
  150.3638  141.4981  156.7140 C   0  0  0  0  0  0  0  0  0  0  0  0
  147.6807  142.3201  154.1978 H   0  0  0  0  0  0  0  0  0  0  0  0
  148.9601  142.9721  155.0110 H   0  0  0  0  0  0  0  0  0  0  0  0
  148.5968  140.1468  154.2988 H   0  0  0  0  0  0  0  0  0  0  0  0
  149.7351  141.2604  153.5581 H   0  0  0  0  0  0  0  0  0  0  0  0
  151.0286  138.9162  154.5789 H   0  0  0  0  0  0  0  0  0  0  0  0
  152.6714  138.4510  156.4087 H   0  0  0  0  0  0  0  0  0  0  0  0
  153.5165  142.1340  158.7999 H   0  0  0  0  0  0  0  0  0  0  0  0
  152.1925  142.6865  161.1835 H   0  0  0  0  0  0  0  0  0  0  0  0
  153.6793  143.5134  160.7184 H   0  0  0  0  0  0  0  0  0  0  0  0
  150.8362  144.4789  160.1733 H   0  0  0  0  0  0  0  0  0  0  0  0
  152.1210  145.3575  161.0187 H   0  0  0  0  0  0  0  0  0  0  0  0
  153.4755  144.0781  157.5372 H   0  0  0  0  0  0  0  0  0  0  0  0
  151.7277  143.8999  157.4123 H   0  0  0  0  0  0  0  0  0  0  0  0
  149.7370  142.3682  156.8465 H   0  0  0  0  0  0  0  0  0  0  0  0
  147.9380  141.9331  155.7812 H   0  0  0  0  0  0  0  0  0  0  0  0
  1  2  1  0  0  0  0
  1 15  1  0  0  0  0
  1 16  1  0  0  0  0
  1 29  1  0  0  0  0
  2  3  1  0  0  0  0
  2 17  1  0  0  0  0
  2 18  1  0  0  0  0
  3 14  1  0  0  0  0
  3  4  2  0  0  0  0
  4  5  1  0  0  0  0
  4 19  1  0  0  0  0
  5  6  2  0  0  0  0
  5 20  1  0  0  0  0
  6  7  1  0  0  0  0
  7  8  1  0  0  0  0
  7 14  2  0  0  0  0
  8  9  1  0  0  0  0
  9 13  1  0  0  0  0
  9 10  1  0  0  0  0
  9 21  1  0  0  0  0
 10 11  1  0  0  0  0
 10 22  1  0  0  0  0
 10 23  1  0  0  0  0
 11 12  1  0  0  0  0
 11 24  1  0  0  0  0
 11 25  1  0  0  0  0
 12 13  1  0  0  0  0
 13 26  1  0  0  0  0
 13 27  1  0  0  0  0
 14 28  1  0  0  0  0
M  CHG  1   1   1
M  END
> <s_m_source_file>
AV-unprocessed.smi

> <i_m_source_file_index>
3091

> <i_lp_mmshare_version>
43012

> <i_f3d_flags>
0

> <s_epik_input>
W05IMl1bQ0gyXWMxW2NIXVtjSF1uYyhbY0hdMSlPW0NAQEhdMltDSDJdW0NIMl1PW0NIMl0y

> <s_epik_cmdline>
J2VwaWtfcHl0aG9uJywgJy1waCcsICc3LjAnLCAnLXRuJywgJzgnLCAnLW1hJywgJzIwMCcsICctbWV0YWxfYmluZGluZycsICctaW1hZScsICc8aW5maWxlLm1hZT4nLCAnLW9tYWUnLCAnPG91dGZpbGUubWFlPic=

> <r_lp_tautomer_probability>
1

> <r_epik_Ionization_Penalty>
0.0773124

> <r_epik_Ionization_Penalty_Charging>
0.0773118

> <r_epik_Ionization_Penalty_Neutral>
5.92883e-07

> <r_epik_State_Penalty>
0.0682686

> <r_epik_Charging_Adjusted_Penalty>
0.14558

> <i_epik_Tot_Q>
1

> <i_epik_Tot_abs_Q>
1

> <r_epik_Metal_State_Penalty>
0.0682821

> <b_epik_Metal_Only>
0

> <s_lp_Force_Field>
OPLS_2005

> <r_lp_Energy>
12.9222

> <b_lp_Chiralities_Consistent>
1

> <s_lp_Variant>
AV-unprocessed.smi:3091-1

> <Gold.Version>
5.8.1

> <Gold.Id.Protein>
6NUR|6NUR_protein|mol2

> <Gold.PLP.Fitness>
40.1492

> <Gold.PLP.PLP>
-34.1221

> <Gold.PLP.part.hbond>
-1.9303

> <Gold.PLP.part.metal>
0.0000

> <Gold.PLP.part.buried>
-2.6577

> <Gold.PLP.part.nonpolar>
-30.3201

> <Gold.PLP.part.repulsive>
0.1760

> <Gold.PLP.ligand.clash>
0.0000

> <Gold.PLP.ligand.torsion>
0.1802

> <Gold.PLP.Chemscore.Hbond>
2.1236

> <Gold.PLP.Chemscore.CHOScore>
0.0000

> <Gold.PLP.Chemscore.Metal>
0.0000

> <Gold.Chemscore.Hbonds>
donor molecule, donor type, donor heavy atom, donor atom, acceptor molecule, acceptor atom, score
      L1  H     1    16       P1  8028  1.63

> <Gold.PLP.Chemscore.Internal.Correction>
0.0168

> <Gold.Rescore>
     Score         DG    S(hbond)    S(metal)    S(lipo)     H(rot)  DE(clash)    DE(int)     intcor
     14.29     -14.32       0.99        0.00      82.07       1.59       0.00       0.03       ----

> <Gold.Chemscore.Fitness>
14.2918

> <Gold.Chemscore.DG>
-14.3203

> <Gold.Chemscore.ZeroCoef>
-5.4800

> <Gold.Chemscore.Hbond>
0.9925

> <Gold.Chemscore.Metal>
0.0000

> <Gold.Chemscore.Lipo>
82.0666

> <Gold.Chemscore.Internal_Hbond>
0.0000

> <Gold.Chemscore.DEClash>
0.0000

> <Gold.Chemscore.DEInternal>
0.0285

> <Gold.Chemscore.Rot>
1.5924

> <Gold.Chemscore.Internal.Correction>
   9.000000E+99

> <Gold.Chemscore.Hbonds>
donor molecule, donor type, donor heavy atom, donor atom, acceptor molecule, acceptor atom, score
      L1  H     1    16       P1  8028  0.81

> <Gold.Chemscore.Hbond.Weighted>
-3.3150

> <Gold.Chemscore.Metal.Weighted>
-0.0000

> <Gold.Chemscore.Lipo.Weighted>
-9.6018

> <Gold.Chemscore.Internal_Hbond.Weighted>
0.0000

> <Gold.Chemscore.DEClash.Weighted>
0.0000

> <Gold.Chemscore.DEInternal.Weighted>
0.0285

> <Gold.Chemscore.Rot.Weighted>
4.0765

> <Gold.Chemscore.Internal.Correction.Weighted>
   9.000000E+99

> <Gold.Protein.RotatedTorsions>
[ 6907 6896 6895 6894 ] final  147.33 input  -60.11 | X-H torsion
[ 7974 7965 7964 7962 ] final -116.12 input  175.53 | X-H torsion
[ 8008 7997 7996 7995 ] final  -85.29 input   59.86 | X-H torsion
[ 10167 10162 10161 10158 ] final  -69.66 input  -65.29 | X-H torsion
[ 10718 10713 10712 10709 ] final   70.82 input   66.30 | X-H torsion
[ 10763 10752 10751 10750 ] final -147.72 input  -60.55 | X-H torsion
[ 11005 11000 10999 10996 ] final -143.25 input  -57.11 | X-H torsion

> <Gold.Protein.ActiveResidues>
 VAL166  LYS551  ARG553  GLY616  TRP617  ASP618  TYR619  PRO620  LYS621  CYS622 
 ASP623  PHE694  ASN695  SER759  ASP760  ASP761  ALA762  ILE779  LEU786  VAL792 
 PHE793  MET794  SER795  GLU796  ALA797  LYS798  CYS799  TRP800  GLU811  SER814 

> <Gold.Protein.RotatedAtoms>
  152.1562  133.4552  159.4837 H   0  0  0  0  0  0  0  0  0  0  0  0  # atno 6907 bound_to 6896
  150.6901  134.2128  159.4375 H   0  0  0  0  0  0  0  0  0  0  0  0  # atno 6908 bound_to 6896
  152.0028  134.9919  160.0616 H   0  0  0  0  0  0  0  0  0  0  0  0  # atno 6909 bound_to 6896
  145.1004  140.8548  143.3929 H   0  0  0  0  0  0  0  0  0  0  0  0  # atno 7974 bound_to 7965
  154.6391  140.0593  156.9824 H   0  0  0  0  0  0  0  0  0  0  0  0  # atno 8008 bound_to 7997
  155.1545  140.3277  155.4406 H   0  0  0  0  0  0  0  0  0  0  0  0  # atno 8009 bound_to 7997
  156.2522  140.1941  156.6655 H   0  0  0  0  0  0  0  0  0  0  0  0  # atno 8010 bound_to 7997
  140.5413  143.2315  151.7083 H   0  0  0  0  0  0  0  0  0  0  0  0  # atno 10167 bound_to 10162
  157.6420  130.9496  150.0703 H   0  0  0  0  0  0  0  0  0  0  0  0  # atno 10718 bound_to 10713
  154.8271  135.3353  154.6861 H   0  0  0  0  0  0  0  0  0  0  0  0  # atno 10763 bound_to 10752
  153.7486  135.6941  153.4955 H   0  0  0  0  0  0  0  0  0  0  0  0  # atno 10764 bound_to 10752
  153.2193  135.4454  155.0421 H   0  0  0  0  0  0  0  0  0  0  0  0  # atno 10765 bound_to 10752
  140.8144  134.2706  157.4927 H   0  0  0  0  0  0  0  0  0  0  0  0  # atno 11005 bound_to 11000
  145.0962  139.2855  143.5710 LP  0  0  0  0  0  0  0  0  0  0  0  0  # atno 17320 bound_to 7965
  146.3530  140.0514  142.8635 LP  0  0  0  0  0  0  0  0  0  0  0  0  # atno 17321 bound_to 7965
  139.4990  144.3964  152.0227 LP  0  0  0  0  0  0  0  0  0  0  0  0  # atno 17342 bound_to 10162
  140.3073  144.3578  150.6043 LP  0  0  0  0  0  0  0  0  0  0  0  0  # atno 17343 bound_to 10162
  156.1709  130.3646  149.9166 LP  0  0  0  0  0  0  0  0  0  0  0  0  # atno 17370 bound_to 10713
  156.7142  130.8982  151.3612 LP  0  0  0  0  0  0  0  0  0  0  0  0  # atno 17371 bound_to 10713
  139.8712  134.9501  156.4045 LP  0  0  0  0  0  0  0  0  0  0  0  0  # atno 17394 bound_to 11000
  140.9164  133.7675  155.9853 LP  0  0  0  0  0  0  0  0  0  0  0  0  # atno 17395 bound_to 11000

$$$$
