AV-unprocessed.smi:261|AV-procd|sdf|1997|dock1
  -GOLD-   2262021193D 1   1.00000     0.00000
 Structure written by MMmdl.
 51 54  0  0  0  0  0  0  0  0  1 V2000
  152.2337  144.7429  158.4219 C   0  0  0  0  0  0  0  0  0  0  0  0
  151.3232  144.0081  157.6200 O   0  0  0  0  0  0  0  0  0  0  0  0
  151.6123  142.6187  157.5607 C   0  0  1  0  0  0  0  0  0  0  0  0
  151.2792  141.8702  158.8547 C   0  0  0  0  0  0  0  0  0  0  0  0
  151.0425  140.4174  158.4071 C   0  0  2  0  0  0  0  0  0  0  0  0
  152.3441  139.5956  158.4430 C   0  0  0  0  0  0  0  0  0  0  0  0
  152.2843  138.3565  157.9495 N   0  0  0  0  0  0  0  0  0  0  0  0
  153.3809  140.0603  158.9145 O   0  0  0  0  0  0  0  0  0  0  0  0
  150.5233  140.5683  157.0476 N   0  0  0  0  0  0  0  0  0  0  0  0
  149.8103  139.6275  156.3676 C   0  0  0  0  0  0  0  0  0  0  0  0
  149.9331  138.3327  156.7643 N   0  0  0  0  0  0  0  0  0  0  0  0
  149.2620  137.3589  156.1451 C   0  0  0  0  0  0  0  0  0  0  0  0
  148.4197  137.4527  155.1168 N   0  0  0  0  0  0  0  0  0  0  0  0
  148.2860  138.7455  154.7061 C   0  0  0  0  0  0  0  0  0  0  0  0
  148.9383  139.8845  155.2647 C   0  0  0  0  0  0  0  0  0  0  0  0
  148.5498  141.0224  154.5644 N   0  0  0  0  0  0  0  0  0  0  0  0
  147.7219  140.5859  153.6568 C   0  0  0  0  0  0  0  0  0  0  0  0
  147.4905  139.2307  153.6822 N   0  0  0  0  0  0  0  0  0  0  0  0
  146.6246  138.4805  152.7879 C   0  0  0  0  0  0  0  0  0  0  0  0
  145.6452  137.5327  153.5182 C   0  0  1  0  0  0  0  0  0  0  0  0
  144.7735  138.3708  154.2499 O   0  0  0  0  0  0  0  0  0  0  0  0
  144.7657  136.6510  152.6014 C   0  0  1  0  0  0  0  0  0  0  0  0
  145.5094  135.7138  151.6471 C   0  0  0  0  0  0  0  0  0  0  0  0
  144.5067  134.6061  151.3731 C   0  0  0  0  0  0  0  0  0  0  0  0
  143.5108  134.7214  152.5279 C   0  0  0  0  0  0  0  0  0  0  0  0
  144.0598  135.7058  153.3931 O   0  0  0  0  0  0  0  0  0  0  0  0
  150.7152  141.9222  156.5369 C   0  0  0  0  0  0  0  0  0  0  0  0
  152.6565  142.4519  157.2895 H   0  0  0  0  0  0  0  0  0  0  0  0
  150.2967  139.9663  159.0621 H   0  0  0  0  0  0  0  0  0  0  0  0
  151.9763  145.8013  158.3868 H   0  0  0  0  0  0  0  0  0  0  0  0
  153.2568  144.6348  158.0596 H   0  0  0  0  0  0  0  0  0  0  0  0
  152.1958  144.4265  159.4647 H   0  0  0  0  0  0  0  0  0  0  0  0
  152.0593  141.9708  159.6109 H   0  0  0  0  0  0  0  0  0  0  0  0
  150.3587  142.2701  159.2828 H   0  0  0  0  0  0  0  0  0  0  0  0
  153.1065  137.7706  157.9568 H   0  0  0  0  0  0  0  0  0  0  0  0
  151.4127  138.0068  157.5789 H   0  0  0  0  0  0  0  0  0  0  0  0
  149.4218  136.3627  156.5301 H   0  0  0  0  0  0  0  0  0  0  0  0
  147.2499  141.2467  152.9443 H   0  0  0  0  0  0  0  0  0  0  0  0
  146.0662  139.2132  152.2031 H   0  0  0  0  0  0  0  0  0  0  0  0
  147.2346  137.9209  152.0777 H   0  0  0  0  0  0  0  0  0  0  0  0
  146.1895  136.9091  154.2282 H   0  0  0  0  0  0  0  0  0  0  0  0
  144.6848  139.1897  153.7868 H   0  0  0  0  0  0  0  0  0  0  0  0
  144.0568  137.2605  152.0372 H   0  0  0  0  0  0  0  0  0  0  0  0
  145.8340  136.2100  150.7330 H   0  0  0  0  0  0  0  0  0  0  0  0
  146.3874  135.2925  152.1384 H   0  0  0  0  0  0  0  0  0  0  0  0
  144.0012  134.7589  150.4189 H   0  0  0  0  0  0  0  0  0  0  0  0
  144.9927  133.6305  151.3451 H   0  0  0  0  0  0  0  0  0  0  0  0
  142.5389  135.0590  152.1662 H   0  0  0  0  0  0  0  0  0  0  0  0
  143.3700  133.7775  153.0548 H   0  0  0  0  0  0  0  0  0  0  0  0
  149.7440  142.4156  156.4743 H   0  0  0  0  0  0  0  0  0  0  0  0
  151.1698  141.9308  155.5456 H   0  0  0  0  0  0  0  0  0  0  0  0
  1  2  1  0  0  0  0
  1 30  1  0  0  0  0
  1 31  1  0  0  0  0
  1 32  1  0  0  0  0
  2  3  1  0  0  0  0
  3 28  1  0  0  0  0
  3 27  1  0  0  0  0
  3  4  1  0  0  0  0
  4  5  1  0  0  0  0
  4 33  1  0  0  0  0
  4 34  1  0  0  0  0
  5 29  1  0  0  0  0
  5  6  1  0  0  0  0
  5  9  1  0  0  0  0
  6  7  1  0  0  0  0
  6  8  2  0  0  0  0
  7 35  1  0  0  0  0
  7 36  1  0  0  0  0
  9 10  1  0  0  0  0
  9 27  1  0  0  0  0
 10 15  1  0  0  0  0
 10 11  2  0  0  0  0
 11 12  1  0  0  0  0
 12 13  2  0  0  0  0
 12 37  1  0  0  0  0
 13 14  1  0  0  0  0
 14 18  1  0  0  0  0
 14 15  2  0  0  0  0
 15 16  1  0  0  0  0
 16 17  2  0  0  0  0
 17 18  1  0  0  0  0
 17 38  1  0  0  0  0
 18 19  1  0  0  0  0
 19 20  1  0  0  0  0
 19 39  1  0  0  0  0
 19 40  1  0  0  0  0
 20 21  1  0  0  0  0
 20 22  1  0  0  0  0
 20 41  1  0  0  0  0
 21 42  1  0  0  0  0
 22 26  1  0  0  0  0
 22 23  1  0  0  0  0
 22 43  1  0  0  0  0
 23 24  1  0  0  0  0
 23 44  1  0  0  0  0
 23 45  1  0  0  0  0
 24 25  1  0  0  0  0
 24 46  1  0  0  0  0
 24 47  1  0  0  0  0
 25 26  1  0  0  0  0
 25 48  1  0  0  0  0
 25 49  1  0  0  0  0
 27 50  1  0  0  0  0
 27 51  1  0  0  0  0
M  END
> <s_m_source_file>
AV-unprocessed.smi

> <i_m_source_file_index>
261

> <i_lp_mmshare_version>
43012

> <i_f3d_flags>
0

> <s_epik_input>
W0NIM11PW0NASF0xW0NIMl1bQ0BASF0oQyg9TylbTkgyXSlOKFtDSDJdMSljKG5bY0hdbjIpYyhjMjMpbltjSF1uM1tDSDJdW0NASF0oW09IXSlbQ0BASF00W0NIMl1bQ0gyXVtDSDJdTzQ=

> <s_epik_cmdline>
J2VwaWtfcHl0aG9uJywgJy1waCcsICc3LjAnLCAnLXRuJywgJzgnLCAnLW1hJywgJzIwMCcsICctbWV0YWxfYmluZGluZycsICctaW1hZScsICc8aW5maWxlLm1hZT4nLCAnLW9tYWUnLCAnPG91dGZpbGUubWFlPic=

> <r_lp_tautomer_probability>
1

> <r_epik_Ionization_Penalty>
0.000713824

> <r_epik_Ionization_Penalty_Charging>
0

> <r_epik_Ionization_Penalty_Neutral>
0.000713824

> <r_epik_State_Penalty>
0.000402132

> <r_epik_Charging_Adjusted_Penalty>
0.000402132

> <i_epik_Tot_Q>
0

> <i_epik_Tot_abs_Q>
0

> <r_epik_Metal_State_Penalty>
-0

> <b_epik_Metal_Only>
0

> <s_lp_Force_Field>
OPLS_2005

> <r_lp_Energy>
45.931

> <b_lp_Chiralities_Consistent>
1

> <s_lp_Variant>
AV-unprocessed.smi:261-15

> <Gold.Version>
5.8.1

> <Gold.Id.Protein>
6NUR|6NUR_protein|mol2

> <Gold.PLP.Fitness>
45.4028

> <Gold.PLP.PLP>
-39.8615

> <Gold.PLP.part.hbond>
-2.0000

> <Gold.PLP.part.metal>
0.0000

> <Gold.PLP.part.buried>
-4.8134

> <Gold.PLP.part.nonpolar>
-34.2181

> <Gold.PLP.part.repulsive>
0.6080

> <Gold.PLP.ligand.clash>
0.0000

> <Gold.PLP.ligand.torsion>
0.4032

> <Gold.PLP.Chemscore.Hbond>
1.9920

> <Gold.PLP.Chemscore.CHOScore>
0.0000

> <Gold.PLP.Chemscore.Metal>
0.0000

> <Gold.Chemscore.Hbonds>
donor molecule, donor type, donor heavy atom, donor atom, acceptor molecule, acceptor atom, score
      L1  H    21    42       P1 10175  0.86
      P1  H  7997  8010       L1     8  0.54

> <Gold.PLP.Chemscore.Internal.Correction>
0.3716

> <Gold.Rescore>
     Score         DG    S(hbond)    S(metal)    S(lipo)     H(rot)  DE(clash)    DE(int)     intcor
      9.74     -12.49       1.96        0.00      73.58       3.18       0.05       2.71       ----

> <Gold.Chemscore.Fitness>
9.7358

> <Gold.Chemscore.DG>
-12.4948

> <Gold.Chemscore.ZeroCoef>
-5.4800

> <Gold.Chemscore.Hbond>
1.9624

> <Gold.Chemscore.Metal>
0.0000

> <Gold.Chemscore.Lipo>
73.5822

> <Gold.Chemscore.Internal_Hbond>
0.0000

> <Gold.Chemscore.DEClash>
0.0519

> <Gold.Chemscore.DEInternal>
2.7070

> <Gold.Chemscore.Rot>
3.1831

> <Gold.Chemscore.Internal.Correction>
   9.000000E+99

> <Gold.Chemscore.Hbonds>
donor molecule, donor type, donor heavy atom, donor atom, acceptor molecule, acceptor atom, score
      L1  H    21    42       P1 10175  0.80
      P1  H  7997  8010       L1     8  0.22

> <Gold.Chemscore.Hbond.Weighted>
-6.5543

> <Gold.Chemscore.Metal.Weighted>
-0.0000

> <Gold.Chemscore.Lipo.Weighted>
-8.6091

> <Gold.Chemscore.Internal_Hbond.Weighted>
0.0000

> <Gold.Chemscore.DEClash.Weighted>
0.0519

> <Gold.Chemscore.DEInternal.Weighted>
2.7070

> <Gold.Chemscore.Rot.Weighted>
8.1486

> <Gold.Chemscore.Internal.Correction.Weighted>
   9.000000E+99

> <Gold.Protein.RotatedTorsions>
[ 6907 6896 6895 6894 ] final   95.57 input  -60.11 | X-H torsion
[ 7974 7965 7964 7962 ] final  -26.19 input  175.53 | X-H torsion
[ 8008 7997 7996 7995 ] final   18.62 input   59.86 | X-H torsion
[ 10167 10162 10161 10158 ] final  -28.88 input  -65.29 | X-H torsion
[ 10718 10713 10712 10709 ] final   91.12 input   66.30 | X-H torsion
[ 10763 10752 10751 10750 ] final  108.01 input  -60.55 | X-H torsion
[ 11005 11000 10999 10996 ] final   26.28 input  -57.11 | X-H torsion

> <Gold.Protein.ActiveResidues>
 VAL166  LYS551  ARG553  GLY616  TRP617  ASP618  TYR619  PRO620  LYS621  CYS622 
 ASP623  PHE694  ASN695  SER759  ASP760  ASP761  ALA762  ILE779  LEU786  VAL792 
 PHE793  MET794  SER795  GLU796  ALA797  LYS798  CYS799  TRP800  GLU811  SER814 

> <Gold.Protein.RotatedAtoms>
  152.5442  134.1020  159.8321 H   0  0  0  0  0  0  0  0  0  0  0  0  # atno 6907 bound_to 6896
  151.1096  133.5175  159.2613 H   0  0  0  0  0  0  0  0  0  0  0  0  # atno 6908 bound_to 6896
  151.1899  135.0407  159.8882 H   0  0  0  0  0  0  0  0  0  0  0  0  # atno 6909 bound_to 6896
  146.1441  140.4987  142.8639 H   0  0  0  0  0  0  0  0  0  0  0  0  # atno 7974 bound_to 7965
  154.9086  140.3011  155.5278 H   0  0  0  0  0  0  0  0  0  0  0  0  # atno 8008 bound_to 7997
  156.3016  140.2393  156.4058 H   0  0  0  0  0  0  0  0  0  0  0  0  # atno 8009 bound_to 7997
  154.8448  140.0412  157.1554 H   0  0  0  0  0  0  0  0  0  0  0  0  # atno 8010 bound_to 7997
  140.7266  143.3974  151.1324 H   0  0  0  0  0  0  0  0  0  0  0  0  # atno 10167 bound_to 10162
  157.6960  131.0396  150.3681 H   0  0  0  0  0  0  0  0  0  0  0  0  # atno 10718 bound_to 10713
  153.4147  135.3826  155.2073 H   0  0  0  0  0  0  0  0  0  0  0  0  # atno 10763 bound_to 10752
  154.8740  135.3802  154.4458 H   0  0  0  0  0  0  0  0  0  0  0  0  # atno 10764 bound_to 10752
  153.4971  135.7088  153.5915 H   0  0  0  0  0  0  0  0  0  0  0  0  # atno 10765 bound_to 10752
  140.3387  134.2357  155.7692 H   0  0  0  0  0  0  0  0  0  0  0  0  # atno 11005 bound_to 11000
  144.7826  140.5872  143.6595 LP  0  0  0  0  0  0  0  0  0  0  0  0  # atno 17320 bound_to 7965
  145.4978  139.1485  143.3674 LP  0  0  0  0  0  0  0  0  0  0  0  0  # atno 17321 bound_to 7965
  139.7589  143.8666  152.3095 LP  0  0  0  0  0  0  0  0  0  0  0  0  # atno 17342 bound_to 10162
  139.8545  144.7148  150.9174 LP  0  0  0  0  0  0  0  0  0  0  0  0  # atno 17343 bound_to 10162
  156.4110  130.3934  149.6892 LP  0  0  0  0  0  0  0  0  0  0  0  0  # atno 17370 bound_to 10713
  156.4176  130.7753  151.2769 LP  0  0  0  0  0  0  0  0  0  0  0  0  # atno 17371 bound_to 10713
  141.2044  133.7887  157.0288 LP  0  0  0  0  0  0  0  0  0  0  0  0  # atno 17394 bound_to 11000
  140.0799  134.9654  157.1607 LP  0  0  0  0  0  0  0  0  0  0  0  0  # atno 17395 bound_to 11000

$$$$
