AV-unprocessed.smi:106|AV-procd|sdf|1011|dock5
  -GOLD-   2262018 13D 1   1.00000     0.00000
 Structure written by MMmdl.
 51 54  0  0  0  0  0  0  0  0  1 V2000
  150.4275  136.2146  158.7334 O   0  0  0  0  0  0  0  0  0  0  0  0
  150.3937  136.2879  157.5029 C   0  0  0  0  0  0  0  0  0  0  0  0
  150.8388  137.5992  156.8187 C   0  0  0  0  0  0  0  0  0  0  0  0
  151.4644  138.5695  157.7459 N   0  0  0  0  0  0  0  0  0  0  0  0
  152.5024  138.1170  158.5976 C   0  0  0  0  0  0  0  0  0  0  0  0
  152.8791  136.9442  158.5781 O   0  0  0  0  0  0  0  0  0  0  0  0
  153.0755  139.1248  159.4815 C   0  0  0  0  0  0  0  0  0  0  0  0
  154.0852  138.7931  160.3039 F   0  0  0  0  0  0  0  0  0  0  0  0
  152.6102  140.3906  159.4844 C   0  0  0  0  0  0  0  0  0  0  0  0
  151.5714  140.8121  158.6776 N   0  0  0  0  0  0  0  0  0  0  0  0
  151.1445  142.2629  158.7345 C   0  0  2  0  0  0  0  0  0  0  0  0
  151.2090  142.9817  157.3786 C   0  0  0  0  0  0  0  0  0  0  0  0
  151.6204  144.3744  157.8044 C   0  0  0  0  0  0  0  0  0  0  0  0
  152.5418  144.0859  158.9848 C   0  0  0  0  0  0  0  0  0  0  0  0
  151.9702  142.9506  159.6299 O   0  0  0  0  0  0  0  0  0  0  0  0
  150.9871  139.9030  157.7643 C   0  0  0  0  0  0  0  0  0  0  0  0
  150.0851  140.2560  157.0036 O   0  0  0  0  0  0  0  0  0  0  0  0
  149.9760  135.2531  156.7328 N   0  0  0  0  0  0  0  0  0  0  0  0
  149.5810  133.9436  157.2735 C   0  0  0  0  0  0  0  0  0  0  0  0
  149.7759  132.8004  156.2584 C   0  0  0  0  0  0  0  0  0  0  0  0
  149.0818  133.0371  154.9842 N   0  0  0  0  0  0  0  0  0  0  0  0
  148.8010  131.9941  154.1617 C   0  0  0  0  0  0  0  0  0  0  0  0
  149.2289  130.8590  154.3802 O   0  0  0  0  0  0  0  0  0  0  0  0
  147.9389  132.2137  152.9731 C   0  0  0  0  0  0  0  0  0  0  0  0
  147.8157  133.2604  152.0910 C   0  0  0  0  0  0  0  0  0  0  0  0
  146.7994  133.0552  151.1122 C   0  0  0  0  0  0  0  0  0  0  0  0
  146.1381  131.8672  151.2730 C   0  0  0  0  0  0  0  0  0  0  0  0
  146.7448  130.9784  152.6427 S   0  0  0  0  0  0  0  0  0  0  0  0
  148.8454  134.4491  154.6458 C   0  0  0  0  0  0  0  0  0  0  0  0
  149.8929  135.3900  155.2711 C   0  0  0  0  0  0  0  0  0  0  0  0
  151.5242  137.3637  156.0029 H   0  0  0  0  0  0  0  0  0  0  0  0
  149.9749  138.0453  156.3246 H   0  0  0  0  0  0  0  0  0  0  0  0
  153.0733  141.0983  160.1566 H   0  0  0  0  0  0  0  0  0  0  0  0
  150.1334  142.2641  159.1434 H   0  0  0  0  0  0  0  0  0  0  0  0
  151.9615  142.5428  156.7250 H   0  0  0  0  0  0  0  0  0  0  0  0
  150.2441  142.9475  156.8722 H   0  0  0  0  0  0  0  0  0  0  0  0
  152.1085  144.9393  157.0097 H   0  0  0  0  0  0  0  0  0  0  0  0
  150.7478  144.9365  158.1399 H   0  0  0  0  0  0  0  0  0  0  0  0
  153.5445  143.8386  158.6358 H   0  0  0  0  0  0  0  0  0  0  0  0
  152.6232  144.9317  159.6678 H   0  0  0  0  0  0  0  0  0  0  0  0
  150.1549  133.6850  158.1628 H   0  0  0  0  0  0  0  0  0  0  0  0
  148.5351  133.9953  157.5793 H   0  0  0  0  0  0  0  0  0  0  0  0
  150.8396  132.6654  156.0547 H   0  0  0  0  0  0  0  0  0  0  0  0
  149.4270  131.8749  156.7199 H   0  0  0  0  0  0  0  0  0  0  0  0
  148.4106  134.1611  152.1110 H   0  0  0  0  0  0  0  0  0  0  0  0
  146.5861  133.7801  150.3406 H   0  0  0  0  0  0  0  0  0  0  0  0
  145.3276  131.4665  150.6824 H   0  0  0  0  0  0  0  0  0  0  0  0
  148.8717  134.6062  153.5670 H   0  0  0  0  0  0  0  0  0  0  0  0
  147.8485  134.7305  154.9869 H   0  0  0  0  0  0  0  0  0  0  0  0
  149.6366  136.4118  154.9860 H   0  0  0  0  0  0  0  0  0  0  0  0
  150.8769  135.1866  154.8461 H   0  0  0  0  0  0  0  0  0  0  0  0
  1  2  2  0  0  0  0
  2  3  1  0  0  0  0
  2 18  1  0  0  0  0
  3  4  1  0  0  0  0
  3 31  1  0  0  0  0
  3 32  1  0  0  0  0
  4 16  1  0  0  0  0
  4  5  1  0  0  0  0
  5  6  2  0  0  0  0
  5  7  1  0  0  0  0
  7  8  1  0  0  0  0
  7  9  2  0  0  0  0
  9 10  1  0  0  0  0
  9 33  1  0  0  0  0
 10 11  1  0  0  0  0
 10 16  1  0  0  0  0
 11 15  1  0  0  0  0
 11 12  1  0  0  0  0
 11 34  1  0  0  0  0
 12 13  1  0  0  0  0
 12 35  1  0  0  0  0
 12 36  1  0  0  0  0
 13 14  1  0  0  0  0
 13 37  1  0  0  0  0
 13 38  1  0  0  0  0
 14 15  1  0  0  0  0
 14 39  1  0  0  0  0
 14 40  1  0  0  0  0
 16 17  2  0  0  0  0
 18 30  1  0  0  0  0
 18 19  1  0  0  0  0
 19 20  1  0  0  0  0
 19 41  1  0  0  0  0
 19 42  1  0  0  0  0
 20 21  1  0  0  0  0
 20 43  1  0  0  0  0
 20 44  1  0  0  0  0
 21 22  1  0  0  0  0
 21 29  1  0  0  0  0
 22 23  2  0  0  0  0
 22 24  1  0  0  0  0
 24 28  1  0  0  0  0
 24 25  2  0  0  0  0
 25 26  1  0  0  0  0
 25 45  1  0  0  0  0
 26 27  2  0  0  0  0
 26 46  1  0  0  0  0
 27 28  1  0  0  0  0
 27 47  1  0  0  0  0
 29 30  1  0  0  0  0
 29 48  1  0  0  0  0
 29 49  1  0  0  0  0
 30 50  1  0  0  0  0
 30 51  1  0  0  0  0
M  END
> <s_m_source_file>
AV-unprocessed.smi

> <i_m_source_file_index>
106

> <i_lp_mmshare_version>
43012

> <i_f3d_flags>
0

> <s_epik_input>
czFbY0hdW2NIXVtjSF1jMUMoPU8pTihbQ0gyXVtDSDJdMilbQ0gyXVtDSDJdTjJDKD1PKVtDSDJdbjNjKD1PKWMoRilbY0hdbihjMz1PKVtDQEBIXTRbQ0gyXVtDSDJdW0NIMl1PNA==

> <s_epik_cmdline>
J2VwaWtfcHl0aG9uJywgJy1waCcsICc3LjAnLCAnLXRuJywgJzgnLCAnLW1hJywgJzIwMCcsICctbWV0YWxfYmluZGluZycsICctaW1hZScsICc8aW5maWxlLm1hZT4nLCAnLW9tYWUnLCAnPG91dGZpbGUubWFlPic=

> <r_lp_tautomer_probability>
1

> <r_epik_Ionization_Penalty>
4.82844e-09

> <r_epik_Ionization_Penalty_Charging>
4.20153e-09

> <r_epik_Ionization_Penalty_Neutral>
6.26919e-10

> <r_epik_State_Penalty>
-0

> <r_epik_Charging_Adjusted_Penalty>
4.20153e-09

> <i_epik_Tot_Q>
0

> <i_epik_Tot_abs_Q>
0

> <r_epik_Metal_State_Penalty>
-0

> <b_epik_Metal_Only>
0

> <s_epik_Chemistry_Notes>
This compound contains an acetal/aminal-like group ( X-CH(R)-Y where X, Y are N, S, or O) that may be acid/base labile, releasing an aldehyde.

> <s_lp_Force_Field>
OPLS_2005

> <r_lp_Energy>
67.8789

> <b_lp_Chiralities_Consistent>
1

> <s_lp_Variant>
AV-unprocessed.smi:106-1

> <Gold.Version>
5.8.1

> <Gold.Id.Protein>
6NUR|6NUR_protein|mol2

> <Gold.PLP.Fitness>
49.0409

> <Gold.PLP.PLP>
-47.1890

> <Gold.PLP.part.hbond>
-1.1116

> <Gold.PLP.part.metal>
0.0000

> <Gold.PLP.part.buried>
-6.5785

> <Gold.PLP.part.nonpolar>
-40.2885

> <Gold.PLP.part.repulsive>
0.0511

> <Gold.PLP.ligand.clash>
0.0000

> <Gold.PLP.ligand.torsion>
0.8570

> <Gold.PLP.Chemscore.Hbond>
1.0000

> <Gold.PLP.Chemscore.CHOScore>
0.0000

> <Gold.PLP.Chemscore.Metal>
0.0000

> <Gold.Chemscore.Hbonds>
donor molecule, donor type, donor heavy atom, donor atom, acceptor molecule, acceptor atom, score
      P1  H  6896  6907       L1     1  0.96

> <Gold.PLP.Chemscore.Internal.Correction>
0.5659

> <Gold.Rescore>
     Score         DG    S(hbond)    S(metal)    S(lipo)     H(rot)  DE(clash)    DE(int)     intcor
     10.74     -16.66       0.96        0.00     103.79       1.63       0.00       5.92       ----

> <Gold.Chemscore.Fitness>
10.7370

> <Gold.Chemscore.DG>
-16.6613

> <Gold.Chemscore.ZeroCoef>
-5.4800

> <Gold.Chemscore.Hbond>
0.9574

> <Gold.Chemscore.Metal>
0.0000

> <Gold.Chemscore.Lipo>
103.7943

> <Gold.Chemscore.Internal_Hbond>
0.0000

> <Gold.Chemscore.DEClash>
0.0038

> <Gold.Chemscore.DEInternal>
5.9205

> <Gold.Chemscore.Rot>
1.6252

> <Gold.Chemscore.Internal.Correction>
   9.000000E+99

> <Gold.Chemscore.Hbonds>
donor molecule, donor type, donor heavy atom, donor atom, acceptor molecule, acceptor atom, score
      P1  H  6896  6907       L1     1  0.92

> <Gold.Chemscore.Hbond.Weighted>
-3.1979

> <Gold.Chemscore.Metal.Weighted>
-0.0000

> <Gold.Chemscore.Lipo.Weighted>
-12.1439

> <Gold.Chemscore.Internal_Hbond.Weighted>
0.0000

> <Gold.Chemscore.DEClash.Weighted>
0.0038

> <Gold.Chemscore.DEInternal.Weighted>
5.9205

> <Gold.Chemscore.Rot.Weighted>
4.1605

> <Gold.Chemscore.Internal.Correction.Weighted>
   9.000000E+99

> <Gold.Protein.RotatedTorsions>
[ 6907 6896 6895 6894 ] final  -53.35 input  -60.11 | X-H torsion
[ 7974 7965 7964 7962 ] final   67.59 input  175.53 | X-H torsion
[ 8008 7997 7996 7995 ] final    2.19 input   59.86 | X-H torsion
[ 10167 10162 10161 10158 ] final   84.75 input  -65.29 | X-H torsion
[ 10718 10713 10712 10709 ] final   -2.04 input   66.30 | X-H torsion
[ 10763 10752 10751 10750 ] final  172.85 input  -60.55 | X-H torsion
[ 11005 11000 10999 10996 ] final  -37.16 input  -57.11 | X-H torsion

> <Gold.Protein.ActiveResidues>
 VAL166  LYS551  ARG553  GLY616  TRP617  ASP618  TYR619  PRO620  LYS621  CYS622 
 ASP623  PHE694  ASN695  SER759  ASP760  ASP761  ALA762  ILE779  LEU786  VAL792 
 PHE793  MET794  SER795  GLU796  ALA797  LYS798  CYS799  TRP800  GLU811  SER814 

> <Gold.Protein.RotatedAtoms>
  150.8434  134.7735  159.6950 H   0  0  0  0  0  0  0  0  0  0  0  0  # atno 6907 bound_to 6896
  152.4517  134.5377  159.9839 H   0  0  0  0  0  0  0  0  0  0  0  0  # atno 6908 bound_to 6896
  151.5512  133.3379  159.2989 H   0  0  0  0  0  0  0  0  0  0  0  0  # atno 6909 bound_to 6896
  145.8128  139.3042  143.1089 H   0  0  0  0  0  0  0  0  0  0  0  0  # atno 7974 bound_to 7965
  154.6887  140.2648  155.6835 H   0  0  0  0  0  0  0  0  0  0  0  0  # atno 8008 bound_to 7997
  156.2724  140.2795  156.1380 H   0  0  0  0  0  0  0  0  0  0  0  0  # atno 8009 bound_to 7997
  155.0928  140.0373  157.2664 H   0  0  0  0  0  0  0  0  0  0  0  0  # atno 8010 bound_to 7997
  139.9049  144.6307  150.8598 H   0  0  0  0  0  0  0  0  0  0  0  0  # atno 10167 bound_to 10162
  156.7967  130.5379  149.5727 H   0  0  0  0  0  0  0  0  0  0  0  0  # atno 10718 bound_to 10713
  154.4318  135.2760  155.1907 H   0  0  0  0  0  0  0  0  0  0  0  0  # atno 10763 bound_to 10752
  154.3810  135.6087  153.5794 H   0  0  0  0  0  0  0  0  0  0  0  0  # atno 10764 bound_to 10752
  152.9836  135.5880  154.4631 H   0  0  0  0  0  0  0  0  0  0  0  0  # atno 10765 bound_to 10752
  140.9930  133.6995  156.1885 H   0  0  0  0  0  0  0  0  0  0  0  0  # atno 11005 bound_to 11000
  145.9758  140.8723  143.0139 LP  0  0  0  0  0  0  0  0  0  0  0  0  # atno 17320 bound_to 7965
  144.6755  140.2010  143.7387 LP  0  0  0  0  0  0  0  0  0  0  0  0  # atno 17321 bound_to 7965
  140.7699  143.3409  151.2210 LP  0  0  0  0  0  0  0  0  0  0  0  0  # atno 17342 bound_to 10162
  139.6993  143.9560  152.2898 LP  0  0  0  0  0  0  0  0  0  0  0  0  # atno 17343 bound_to 10162
  156.1126  130.6051  151.0071 LP  0  0  0  0  0  0  0  0  0  0  0  0  # atno 17370 bound_to 10713
  157.6574  131.0887  150.7917 LP  0  0  0  0  0  0  0  0  0  0  0  0  # atno 17371 bound_to 10713
  140.7009  134.4565  157.5586 LP  0  0  0  0  0  0  0  0  0  0  0  0  # atno 17394 bound_to 11000
  139.9001  134.8575  156.1931 LP  0  0  0  0  0  0  0  0  0  0  0  0  # atno 17395 bound_to 11000

$$$$
