AV-unprocessed.smi:2729|AV-procd|sdf|10526|dock3
  -GOLD-   2272014573D 1   1.00000     0.00000
 Structure written by MMmdl.
 33 34  0  0  0  0  0  0  0  0  1 V2000
  147.1463  136.3290  156.1116 C   0  0  0  0  0  0  0  0  0  0  0  0
  148.2117  135.3840  155.5176 C   0  0  1  0  0  0  0  0  0  0  0  0
  147.8765  135.0342  154.1302 N   0  0  0  0  0  0  0  0  0  0  0  0
  146.7949  134.3839  153.6716 C   0  0  0  0  0  0  0  0  0  0  0  0
  145.8929  133.9560  154.3905 O   0  0  0  0  0  0  0  0  0  0  0  0
  146.8272  134.2910  152.3314 N   0  0  0  0  0  0  0  0  0  0  0  0
  145.8877  133.6714  151.4643 C   0  0  0  0  0  0  0  0  0  0  0  0
  144.4848  133.7066  151.6533 C   0  0  0  0  0  0  0  0  0  0  0  0
  143.6584  133.0348  150.7323 C   0  0  0  0  0  0  0  0  0  0  0  0
  144.2631  132.3470  149.6624 C   0  0  0  0  0  0  0  0  0  0  0  0
  145.5990  132.2936  149.4778 N   0  0  0  0  0  0  0  0  0  0  0  0
  146.3851  132.9397  150.3651 C   0  0  0  0  0  0  0  0  0  0  0  0
  149.6350  135.9962  155.6080 C   0  0  0  0  0  0  0  0  0  0  0  0
  150.6791  134.8975  155.3765 C   0  0  0  0  0  0  0  0  0  0  0  0
  149.9456  133.3706  156.0685 S   0  0  0  0  0  0  0  0  0  0  0  0
  149.8972  132.3454  155.0149 O   0  0  0  0  0  0  0  0  0  0  0  0
  150.5464  133.0824  157.3797 O   0  0  0  0  0  0  0  0  0  0  0  0
  148.2669  134.0677  156.3190 C   0  0  0  0  0  0  0  0  0  0  0  0
  147.3390  136.5289  157.1661 H   0  0  0  0  0  0  0  0  0  0  0  0
  146.1484  135.8956  156.0377 H   0  0  0  0  0  0  0  0  0  0  0  0
  147.1271  137.2934  155.6044 H   0  0  0  0  0  0  0  0  0  0  0  0
  148.5416  135.3433  153.4362 H   0  0  0  0  0  0  0  0  0  0  0  0
  147.5886  134.7690  151.8721 H   0  0  0  0  0  0  0  0  0  0  0  0
  144.0292  134.2178  152.4868 H   0  0  0  0  0  0  0  0  0  0  0  0
  142.5845  133.0422  150.8470 H   0  0  0  0  0  0  0  0  0  0  0  0
  143.6577  131.8204  148.9395 H   0  0  0  0  0  0  0  0  0  0  0  0
  147.4486  132.8729  150.1877 H   0  0  0  0  0  0  0  0  0  0  0  0
  149.7861  136.8373  154.9319 H   0  0  0  0  0  0  0  0  0  0  0  0
  149.7805  136.3910  156.6146 H   0  0  0  0  0  0  0  0  0  0  0  0
  150.8473  134.7411  154.3108 H   0  0  0  0  0  0  0  0  0  0  0  0
  151.6353  135.1095  155.8545 H   0  0  0  0  0  0  0  0  0  0  0  0
  148.1543  134.2570  157.3872 H   0  0  0  0  0  0  0  0  0  0  0  0
  147.5082  133.3407  156.0271 H   0  0  0  0  0  0  0  0  0  0  0  0
  1  2  1  0  0  0  0
  1 19  1  0  0  0  0
  1 20  1  0  0  0  0
  1 21  1  0  0  0  0
  2 18  1  0  0  0  0
  2  3  1  0  0  0  0
  2 13  1  0  0  0  0
  3  4  1  0  0  0  0
  3 22  1  0  0  0  0
  4  5  2  0  0  0  0
  4  6  1  0  0  0  0
  6  7  1  0  0  0  0
  6 23  1  0  0  0  0
  7 12  1  0  0  0  0
  7  8  2  0  0  0  0
  8  9  1  0  0  0  0
  8 24  1  0  0  0  0
  9 10  2  0  0  0  0
  9 25  1  0  0  0  0
 10 11  1  0  0  0  0
 10 26  1  0  0  0  0
 11 12  2  0  0  0  0
 12 27  1  0  0  0  0
 13 14  1  0  0  0  0
 13 28  1  0  0  0  0
 13 29  1  0  0  0  0
 14 15  1  0  0  0  0
 14 30  1  0  0  0  0
 14 31  1  0  0  0  0
 15 16  2  0  0  0  0
 15 17  2  0  0  0  0
 15 18  1  0  0  0  0
 18 32  1  0  0  0  0
 18 33  1  0  0  0  0
M  END
> <s_m_source_file>
AV-unprocessed.smi

> <i_m_source_file_index>
2729

> <i_lp_mmshare_version>
43012

> <i_f3d_flags>
0

> <s_epik_input>
Tz1TKD1PKShbQ0gyXTEpW0NIMl1bQ0gyXVtDQEBdMShbQ0gzXSlbTkhdQyg9TylbTkhdYzJbY0hdW2NIXVtjSF1uW2NIXTI=

> <s_epik_cmdline>
J2VwaWtfcHl0aG9uJywgJy1waCcsICc3LjAnLCAnLXRuJywgJzgnLCAnLW1hJywgJzIwMCcsICctbWV0YWxfYmluZGluZycsICctaW1hZScsICc8aW5maWxlLm1hZT4nLCAnLW9tYWUnLCAnPG91dGZpbGUubWFlPic=

> <r_epik_Ionization_Penalty>
0.00438887

> <r_epik_Ionization_Penalty_Charging>
0

> <r_epik_Ionization_Penalty_Neutral>
0.00438887

> <r_epik_State_Penalty>
0.00314315

> <r_epik_Charging_Adjusted_Penalty>
0.00314315

> <i_epik_Tot_Q>
0

> <i_epik_Tot_abs_Q>
0

> <r_epik_Metal_State_Penalty>
-0

> <b_epik_Metal_Only>
0

> <s_lp_Force_Field>
OPLS_2005

> <r_lp_Energy>
5.02931

> <b_lp_Chiralities_Consistent>
1

> <s_lp_Variant>
AV-unprocessed.smi:2729-1

> <Gold.Version>
5.8.1

> <Gold.Id.Protein>
6NUR|6NUR_protein|mol2

> <Gold.PLP.Fitness>
34.9612

> <Gold.PLP.PLP>
-23.6076

> <Gold.PLP.part.hbond>
-3.0000

> <Gold.PLP.part.metal>
0.0000

> <Gold.PLP.part.buried>
-4.4609

> <Gold.PLP.part.nonpolar>
-16.7162

> <Gold.PLP.part.repulsive>
0.2612

> <Gold.PLP.ligand.clash>
0.0000

> <Gold.PLP.ligand.torsion>
0.3189

> <Gold.PLP.Chemscore.Hbond>
2.9920

> <Gold.PLP.Chemscore.CHOScore>
1.0000

> <Gold.PLP.Chemscore.Metal>
0.0000

> <Gold.Chemscore.Hbonds>
donor molecule, donor type, donor heavy atom, donor atom, acceptor molecule, acceptor atom, score
      L1  H     3    22       P1  7948  1.00
      L1  H     6    23       P1  7948  1.00
      P1  H  6896  6908       L1    17  1.00
      L1  C    12    27       P1 10747  1.00

> <Gold.PLP.Chemscore.Internal.Correction>
0.0153

> <Gold.Rescore>
     Score         DG    S(hbond)    S(metal)    S(lipo)     H(rot)  DE(clash)    DE(int)     intcor
     16.11     -17.82       2.75        0.00      48.70       1.00       0.00       1.70       ----

> <Gold.Chemscore.Fitness>
16.1137

> <Gold.Chemscore.DG>
-17.8185

> <Gold.Chemscore.ZeroCoef>
-5.4800

> <Gold.Chemscore.Hbond>
2.7546

> <Gold.Chemscore.Metal>
0.0000

> <Gold.Chemscore.Lipo>
48.7007

> <Gold.Chemscore.Internal_Hbond>
0.0000

> <Gold.Chemscore.DEClash>
0.0048

> <Gold.Chemscore.DEInternal>
1.7000

> <Gold.Chemscore.Rot>
1.0000

> <Gold.Chemscore.Internal.Correction>
   9.000000E+99

> <Gold.Chemscore.Hbonds>
donor molecule, donor type, donor heavy atom, donor atom, acceptor molecule, acceptor atom, score
      L1  H     3    22       P1  7948  0.91
      L1  H     6    23       P1  7948  0.57
      P1  H  6896  6908       L1    17  0.97

> <Gold.Chemscore.Hbond.Weighted>
-9.2005

> <Gold.Chemscore.Metal.Weighted>
-0.0000

> <Gold.Chemscore.Lipo.Weighted>
-5.6980

> <Gold.Chemscore.Internal_Hbond.Weighted>
0.0000

> <Gold.Chemscore.DEClash.Weighted>
0.0048

> <Gold.Chemscore.DEInternal.Weighted>
1.7000

> <Gold.Chemscore.Rot.Weighted>
2.5600

> <Gold.Chemscore.Internal.Correction.Weighted>
   9.000000E+99

> <Gold.Protein.RotatedTorsions>
[ 6907 6896 6895 6894 ] final   96.58 input  -60.11 | X-H torsion
[ 7974 7965 7964 7962 ] final  157.92 input  175.53 | X-H torsion
[ 8008 7997 7996 7995 ] final -118.57 input   59.86 | X-H torsion
[ 10167 10162 10161 10158 ] final  -39.24 input  -65.29 | X-H torsion
[ 10718 10713 10712 10709 ] final   16.72 input   66.30 | X-H torsion
[ 10763 10752 10751 10750 ] final   15.31 input  -60.55 | X-H torsion
[ 11005 11000 10999 10996 ] final  148.24 input  -57.11 | X-H torsion

> <Gold.Protein.ActiveResidues>
 VAL166  LYS551  ARG553  GLY616  TRP617  ASP618  TYR619  PRO620  LYS621  CYS622 
 ASP623  PHE694  ASN695  SER759  ASP760  ASP761  ALA762  ILE779  LEU786  VAL792 
 PHE793  MET794  SER795  GLU796  ALA797  LYS798  CYS799  TRP800  GLU811  SER814 

> <Gold.Protein.RotatedAtoms>
  152.5433  134.0864  159.8257 H   0  0  0  0  0  0  0  0  0  0  0  0  # atno 6907 bound_to 6896
  151.0959  133.5273  159.2620 H   0  0  0  0  0  0  0  0  0  0  0  0  # atno 6908 bound_to 6896
  151.2046  135.0465  159.8940 H   0  0  0  0  0  0  0  0  0  0  0  0  # atno 6909 bound_to 6896
  144.7875  139.7407  143.6235 H   0  0  0  0  0  0  0  0  0  0  0  0  # atno 7974 bound_to 7965
  155.1018  140.0396  157.2699 H   0  0  0  0  0  0  0  0  0  0  0  0  # atno 8008 bound_to 7997
  154.6752  140.2621  155.6940 H   0  0  0  0  0  0  0  0  0  0  0  0  # atno 8009 bound_to 7997
  156.2674  140.2789  156.1276 H   0  0  0  0  0  0  0  0  0  0  0  0  # atno 8010 bound_to 7997
  140.7069  143.3226  151.2755 H   0  0  0  0  0  0  0  0  0  0  0  0  # atno 10167 bound_to 10162
  157.0719  130.6352  149.5807 H   0  0  0  0  0  0  0  0  0  0  0  0  # atno 10718 bound_to 10713
  153.1537  135.6783  153.8843 H   0  0  0  0  0  0  0  0  0  0  0  0  # atno 10763 bound_to 10752
  153.8261  135.3124  155.3416 H   0  0  0  0  0  0  0  0  0  0  0  0  # atno 10764 bound_to 10752
  154.7882  135.4850  154.0079 H   0  0  0  0  0  0  0  0  0  0  0  0  # atno 10765 bound_to 10752
  140.0943  134.9022  157.1699 H   0  0  0  0  0  0  0  0  0  0  0  0  # atno 11005 bound_to 11000
  146.2113  139.5472  142.9679 LP  0  0  0  0  0  0  0  0  0  0  0  0  # atno 17320 bound_to 7965
  145.5882  141.0373  143.2084 LP  0  0  0  0  0  0  0  0  0  0  0  0  # atno 17321 bound_to 7965
  139.6685  144.0062  152.2738 LP  0  0  0  0  0  0  0  0  0  0  0  0  # atno 17342 bound_to 10162
  139.9653  144.6530  150.8040 LP  0  0  0  0  0  0  0  0  0  0  0  0  # atno 17343 bound_to 10162
  155.9948  130.5013  150.7434 LP  0  0  0  0  0  0  0  0  0  0  0  0  # atno 17370 bound_to 10713
  157.4871  131.0907  151.0470 LP  0  0  0  0  0  0  0  0  0  0  0  0  # atno 17371 bound_to 10713
  140.3308  134.2812  155.7228 LP  0  0  0  0  0  0  0  0  0  0  0  0  # atno 17394 bound_to 11000
  141.2087  133.7769  157.0041 LP  0  0  0  0  0  0  0  0  0  0  0  0  # atno 17395 bound_to 11000

$$$$
