AV-unprocessed.smi:317|AV-procd|sdf|2328|dock10
  -GOLD-   2262022233D 1   1.00000     0.00000
 Structure written by MMmdl.
 40 41  0  0  0  0  0  0  0  0  2 V2000
  150.5574  137.3399  156.5787 C   0  0  0  0  0  0  0  0  0  0  0  0
  150.9310  137.3738  155.0888 C   0  0  2  0  0  0  0  0  0  0  0  0
  150.7103  138.7655  154.4634 C   0  0  0  0  0  0  0  0  0  0  0  0
  151.7339  139.6524  154.8615 O   0  0  0  0  0  0  0  0  0  0  0  0
  150.1480  136.3660  154.3784 N   0  0  0  0  0  0  0  0  0  0  0  0
  150.1571  135.0503  154.6358 C   0  0  0  0  0  0  0  0  0  0  0  0
  150.8559  134.5302  155.5052 O   0  0  0  0  0  0  0  0  0  0  0  0
  149.3273  134.3889  153.8116 N   0  0  0  0  0  0  0  0  0  0  0  0
  149.0665  132.9897  153.7547 C   0  0  0  0  0  0  0  0  0  0  0  0
  149.9396  132.0500  154.3619 C   0  0  0  0  0  0  0  0  0  0  0  0
  149.6653  130.6725  154.2702 C   0  0  0  0  0  0  0  0  0  0  0  0
  148.5183  130.2523  153.5761 C   0  0  0  0  0  0  0  0  0  0  0  0
  147.6962  131.1703  153.0278 N   0  3  0  0  0  0  0  0  0  0  0  0
  147.8970  132.5103  153.0943 C   0  0  0  0  0  0  0  0  0  0  0  0
  146.9376  133.3495  152.4828 N   0  0  0  0  0  0  0  0  0  0  0  0
  146.7829  133.3594  151.0325 C   0  0  0  0  0  0  0  0  0  0  0  0
  145.4669  134.0897  150.7798 C   0  0  0  0  0  0  0  0  0  0  0  0
  144.6166  133.6534  151.9691 C   0  0  0  0  0  0  0  0  0  0  0  0
  145.6302  133.5137  153.1102 C   0  0  0  0  0  0  0  0  0  0  0  0
  151.1543  138.0497  157.1520 H   0  0  0  0  0  0  0  0  0  0  0  0
  150.7290  136.3508  157.0047 H   0  0  0  0  0  0  0  0  0  0  0  0
  149.5071  137.5909  156.7313 H   0  0  0  0  0  0  0  0  0  0  0  0
  151.9872  137.1102  155.0004 H   0  0  0  0  0  0  0  0  0  0  0  0
  150.7296  138.7084  153.3745 H   0  0  0  0  0  0  0  0  0  0  0  0
  149.7400  139.1745  154.7468 H   0  0  0  0  0  0  0  0  0  0  0  0
  151.4911  140.0412  155.6881 H   0  0  0  0  0  0  0  0  0  0  0  0
  149.5466  136.7027  153.6408 H   0  0  0  0  0  0  0  0  0  0  0  0
  148.8983  134.9403  153.0834 H   0  0  0  0  0  0  0  0  0  0  0  0
  150.8175  132.3636  154.9057 H   0  0  0  0  0  0  0  0  0  0  0  0
  150.3272  129.9499  154.7254 H   0  0  0  0  0  0  0  0  0  0  0  0
  148.2290  129.2189  153.4512 H   0  0  0  0  0  0  0  0  0  0  0  0
  147.6218  133.8566  150.5446 H   0  0  0  0  0  0  0  0  0  0  0  0
  146.7147  132.3405  150.6493 H   0  0  0  0  0  0  0  0  0  0  0  0
  145.6254  135.1685  150.8111 H   0  0  0  0  0  0  0  0  0  0  0  0
  145.0188  133.8393  149.8180 H   0  0  0  0  0  0  0  0  0  0  0  0
  143.8138  134.3544  152.1987 H   0  0  0  0  0  0  0  0  0  0  0  0
  144.1647  132.6833  151.7586 H   0  0  0  0  0  0  0  0  0  0  0  0
  145.3788  132.6767  153.7630 H   0  0  0  0  0  0  0  0  0  0  0  0
  145.6414  134.4239  153.7104 H   0  0  0  0  0  0  0  0  0  0  0  0
  146.8657  130.8341  152.5399 H   0  0  0  0  0  0  0  0  0  0  0  0
  1  2  1  0  0  0  0
  1 20  1  0  0  0  0
  1 21  1  0  0  0  0
  1 22  1  0  0  0  0
  2  3  1  0  0  0  0
  2  5  1  0  0  0  0
  2 23  1  0  0  0  0
  3  4  1  0  0  0  0
  3 24  1  0  0  0  0
  3 25  1  0  0  0  0
  4 26  1  0  0  0  0
  5  6  1  0  0  0  0
  5 27  1  0  0  0  0
  6  7  2  0  0  0  0
  6  8  1  0  0  0  0
  8  9  1  0  0  0  0
  8 28  1  0  0  0  0
  9 14  1  0  0  0  0
  9 10  2  0  0  0  0
 10 11  1  0  0  0  0
 10 29  1  0  0  0  0
 11 12  2  0  0  0  0
 11 30  1  0  0  0  0
 12 13  1  0  0  0  0
 12 31  1  0  0  0  0
 13 14  2  0  0  0  0
 13 40  1  0  0  0  0
 14 15  1  0  0  0  0
 15 19  1  0  0  0  0
 15 16  1  0  0  0  0
 16 17  1  0  0  0  0
 16 32  1  0  0  0  0
 16 33  1  0  0  0  0
 17 18  1  0  0  0  0
 17 34  1  0  0  0  0
 17 35  1  0  0  0  0
 18 19  1  0  0  0  0
 18 36  1  0  0  0  0
 18 37  1  0  0  0  0
 19 38  1  0  0  0  0
 19 39  1  0  0  0  0
M  CHG  1  13   1
M  END
> <s_m_source_file>
AV-unprocessed.smi

> <i_m_source_file_index>
317

> <i_lp_mmshare_version>
43012

> <i_f3d_flags>
0

> <s_epik_input>
W09IXVtDSDJdW0NAQEhdKFtDSDNdKVtOSF1DKD1PKVtOSF1jMVtjSF1bY0hdW2NIXW5jMU4yW0NIMl1bQ0gyXVtDSDJdW0NIMl0y

> <s_epik_cmdline>
J2VwaWtfcHl0aG9uJywgJy1waCcsICc3LjAnLCAnLXRuJywgJzgnLCAnLW1hJywgJzIwMCcsICctbWV0YWxfYmluZGluZycsICctaW1hZScsICc8aW5maWxlLm1hZT4nLCAnLW9tYWUnLCAnPG91dGZpbGUubWFlPic=

> <r_lp_tautomer_probability>
0.999994

> <r_epik_Ionization_Penalty>
1.11558

> <r_epik_Ionization_Penalty_Charging>
1.11556

> <r_epik_Ionization_Penalty_Neutral>
2.02999e-05

> <r_epik_State_Penalty>
1.17393

> <r_epik_Charging_Adjusted_Penalty>
2.28949

> <i_epik_Tot_Q>
1

> <i_epik_Tot_abs_Q>
1

> <r_epik_Metal_State_Penalty>
1.25924

> <b_epik_Metal_Only>
0

> <s_lp_Force_Field>
OPLS_2005

> <r_lp_Energy>
37.9657

> <b_lp_Chiralities_Consistent>
1

> <s_lp_Variant>
AV-unprocessed.smi:317-3

> <Gold.Version>
5.8.1

> <Gold.Id.Protein>
6NUR|6NUR_protein|mol2

> <Gold.PLP.Fitness>
39.5124

> <Gold.PLP.PLP>
-31.4686

> <Gold.PLP.part.hbond>
-4.3175

> <Gold.PLP.part.metal>
0.0000

> <Gold.PLP.part.buried>
-4.1144

> <Gold.PLP.part.nonpolar>
-23.3196

> <Gold.PLP.part.repulsive>
0.2681

> <Gold.PLP.ligand.clash>
0.0000

> <Gold.PLP.ligand.torsion>
0.4021

> <Gold.PLP.Chemscore.Hbond>
2.8160

> <Gold.PLP.Chemscore.CHOScore>
0.0000

> <Gold.PLP.Chemscore.Metal>
0.0000

> <Gold.Chemscore.Hbonds>
donor molecule, donor type, donor heavy atom, donor atom, acceptor molecule, acceptor atom, score
      L1  H     5    27       P1  7948  0.80
      L1  H     8    28       P1  7948  0.95
      P1  H  7989  7998       L1     4  1.00

> <Gold.PLP.Chemscore.Internal.Correction>
0.4001

> <Gold.Rescore>
     Score         DG    S(hbond)    S(metal)    S(lipo)     H(rot)  DE(clash)    DE(int)     intcor
     12.94     -14.92       2.32        0.00      60.68       2.11       0.37       1.62       ----

> <Gold.Chemscore.Fitness>
12.9372

> <Gold.Chemscore.DG>
-14.9239

> <Gold.Chemscore.ZeroCoef>
-5.4800

> <Gold.Chemscore.Hbond>
2.3189

> <Gold.Chemscore.Metal>
0.0000

> <Gold.Chemscore.Lipo>
60.6850

> <Gold.Chemscore.Internal_Hbond>
0.0000

> <Gold.Chemscore.DEClash>
0.3687

> <Gold.Chemscore.DEInternal>
1.6179

> <Gold.Chemscore.Rot>
2.1099

> <Gold.Chemscore.Internal.Correction>
   9.000000E+99

> <Gold.Chemscore.Hbonds>
donor molecule, donor type, donor heavy atom, donor atom, acceptor molecule, acceptor atom, score
      L1  H     5    27       P1  7948  0.62
      L1  H     8    28       P1  7948  0.21
      P1  H  7989  7998       L1     4  0.20
      P1  H 10752 10765       L1     7  0.01

> <Gold.Chemscore.Hbond.Weighted>
-7.7452

> <Gold.Chemscore.Metal.Weighted>
-0.0000

> <Gold.Chemscore.Lipo.Weighted>
-7.1001

> <Gold.Chemscore.Internal_Hbond.Weighted>
0.0000

> <Gold.Chemscore.DEClash.Weighted>
0.3687

> <Gold.Chemscore.DEInternal.Weighted>
1.6179

> <Gold.Chemscore.Rot.Weighted>
5.4015

> <Gold.Chemscore.Internal.Correction.Weighted>
   9.000000E+99

> <Gold.Protein.RotatedTorsions>
[ 6907 6896 6895 6894 ] final  -75.31 input  -60.11 | X-H torsion
[ 7974 7965 7964 7962 ] final   73.51 input  175.53 | X-H torsion
[ 8008 7997 7996 7995 ] final  113.73 input   59.86 | X-H torsion
[ 10167 10162 10161 10158 ] final  -57.51 input  -65.29 | X-H torsion
[ 10718 10713 10712 10709 ] final   -1.24 input   66.30 | X-H torsion
[ 10763 10752 10751 10750 ] final -168.39 input  -60.55 | X-H torsion
[ 11005 11000 10999 10996 ] final   72.52 input  -57.11 | X-H torsion

> <Gold.Protein.ActiveResidues>
 VAL166  LYS551  ARG553  GLY616  TRP617  ASP618  TYR619  PRO620  LYS621  CYS622 
 ASP623  PHE694  ASN695  SER759  ASP760  ASP761  ALA762  ILE779  LEU786  VAL792 
 PHE793  MET794  SER795  GLU796  ALA797  LYS798  CYS799  TRP800  GLU811  SER814 

> <Gold.Protein.RotatedAtoms>
  150.7063  134.4740  159.5438 H   0  0  0  0  0  0  0  0  0  0  0  0  # atno 6907 bound_to 6896
  152.2390  134.8244  160.0472 H   0  0  0  0  0  0  0  0  0  0  0  0  # atno 6908 bound_to 6896
  151.9032  133.3508  159.3875 H   0  0  0  0  0  0  0  0  0  0  0  0  # atno 6909 bound_to 6896
  145.7400  139.2717  143.1492 H   0  0  0  0  0  0  0  0  0  0  0  0  # atno 7974 bound_to 7965
  156.2276  140.2973  156.0107 H   0  0  0  0  0  0  0  0  0  0  0  0  # atno 8008 bound_to 7997
  155.2313  140.0419  157.2979 H   0  0  0  0  0  0  0  0  0  0  0  0  # atno 8009 bound_to 7997
  154.5942  140.2409  155.7887 H   0  0  0  0  0  0  0  0  0  0  0  0  # atno 8010 bound_to 7997
  140.6253  143.2436  151.5378 H   0  0  0  0  0  0  0  0  0  0  0  0  # atno 10167 bound_to 10162
  156.8085  130.5417  149.5712 H   0  0  0  0  0  0  0  0  0  0  0  0  # atno 10718 bound_to 10713
  154.6633  135.2928  154.9838 H   0  0  0  0  0  0  0  0  0  0  0  0  # atno 10763 bound_to 10752
  154.0890  135.6593  153.4853 H   0  0  0  0  0  0  0  0  0  0  0  0  # atno 10764 bound_to 10752
  153.0442  135.5215  154.7594 H   0  0  0  0  0  0  0  0  0  0  0  0  # atno 10765 bound_to 10752
  139.9487  134.7267  156.0916 H   0  0  0  0  0  0  0  0  0  0  0  0  # atno 11005 bound_to 11000
  146.0457  140.8120  142.9807 LP  0  0  0  0  0  0  0  0  0  0  0  0  # atno 17320 bound_to 7965
  144.6873  140.2976  143.7268 LP  0  0  0  0  0  0  0  0  0  0  0  0  # atno 17321 bound_to 7965
  139.5475  144.2483  152.1469 LP  0  0  0  0  0  0  0  0  0  0  0  0  # atno 17342 bound_to 10162
  140.1713  144.4933  150.6578 LP  0  0  0  0  0  0  0  0  0  0  0  0  # atno 17343 bound_to 10162
  156.1058  130.6003  150.9969 LP  0  0  0  0  0  0  0  0  0  0  0  0  # atno 17370 bound_to 10713
  157.6518  131.0896  150.8035 LP  0  0  0  0  0  0  0  0  0  0  0  0  # atno 17371 bound_to 10713
  141.1144  133.6632  156.3057 LP  0  0  0  0  0  0  0  0  0  0  0  0  # atno 17394 bound_to 11000
  140.5772  134.5781  157.5471 LP  0  0  0  0  0  0  0  0  0  0  0  0  # atno 17395 bound_to 11000

$$$$
