AV-unprocessed.smi:1005|AV-procd|sdf|4379|dock8
  -GOLD-   22720 2303D 1   1.00000     0.00000
 Structure written by MMmdl.
 58 60  0  0  0  0  0  0  0  0  4 V2000
  152.8268  143.0793  160.7043 C   0  0  0  0  0  0  0  0  0  0  0  0
  152.3475  142.3002  159.4911 C   0  0  0  0  0  0  0  0  0  0  0  0
  151.5029  142.9498  158.5631 C   0  0  0  0  0  0  0  0  0  0  0  0
  151.0848  142.2125  157.4617 C   0  0  0  0  0  0  0  0  0  0  0  0
  150.2656  142.5615  156.3862 N   0  3  0  0  0  0  0  0  0  0  0  0
  150.1417  141.4981  155.5447 C   0  0  0  0  0  0  0  0  0  0  0  0
  150.8735  140.4747  156.0644 N   0  0  0  0  0  0  0  0  0  0  0  0
  151.0743  139.1109  155.5521 C   0  0  0  0  0  0  0  0  0  0  0  0
  150.4755  138.9018  154.1465 C   0  0  1  0  0  0  0  0  0  0  0  0
  150.8515  137.6304  153.6542 O   0  0  0  0  0  0  0  0  0  0  0  0
  148.9355  138.9869  154.1649 C   0  0  0  0  0  0  0  0  0  0  0  0
  148.2856  137.6630  154.3453 N   0  3  1  0  0  0  0  0  0  0  0  0
  148.5919  137.0566  155.6621 C   0  0  0  0  0  0  0  0  0  0  0  0
  147.9590  135.6600  155.7675 C   0  0  0  0  0  0  0  0  0  0  0  0
  146.5562  135.7575  155.5521 O   0  0  0  0  0  0  0  0  0  0  0  0
  146.2384  136.2513  154.2547 C   0  0  1  0  0  0  0  0  0  0  0  0
  144.7052  136.2447  154.1061 C   0  0  0  0  0  0  0  0  0  0  0  0
  144.2467  136.8864  152.8470 N   0  3  0  0  0  0  0  0  0  0  0  0
  142.8032  137.2201  152.8483 C   0  0  0  0  0  0  0  0  0  0  0  0
  144.6178  136.0970  151.6516 C   0  0  0  0  0  0  0  0  0  0  0  0
  146.8196  137.6731  154.1126 C   0  0  0  0  0  0  0  0  0  0  0  0
  151.4758  140.8735  157.2646 C   0  0  0  0  0  0  0  0  0  0  0  0
  152.3053  140.2177  158.1721 C   0  0  0  0  0  0  0  0  0  0  0  0
  152.7418  140.9507  159.2989 C   0  0  0  0  0  0  0  0  0  0  0  0
  153.6487  140.2615  160.3043 C   0  0  0  0  0  0  0  0  0  0  0  0
  152.4739  144.1109  160.6816 H   0  0  0  0  0  0  0  0  0  0  0  0
  153.9161  143.1026  160.7404 H   0  0  0  0  0  0  0  0  0  0  0  0
  152.4590  142.6211  161.6225 H   0  0  0  0  0  0  0  0  0  0  0  0
  151.1972  143.9762  158.7043 H   0  0  0  0  0  0  0  0  0  0  0  0
  149.5657  141.4729  154.6307 H   0  0  0  0  0  0  0  0  0  0  0  0
  152.1379  138.8719  155.5719 H   0  0  0  0  0  0  0  0  0  0  0  0
  150.5983  138.4321  156.2608 H   0  0  0  0  0  0  0  0  0  0  0  0
  150.8904  139.6588  153.4818 H   0  0  0  0  0  0  0  0  0  0  0  0
  150.0896  137.2177  153.2757 H   0  0  0  0  0  0  0  0  0  0  0  0
  148.6379  139.6483  154.9805 H   0  0  0  0  0  0  0  0  0  0  0  0
  148.5660  139.4493  153.2483 H   0  0  0  0  0  0  0  0  0  0  0  0
  149.6717  136.9786  155.7949 H   0  0  0  0  0  0  0  0  0  0  0  0
  148.2157  137.7000  156.4592 H   0  0  0  0  0  0  0  0  0  0  0  0
  148.4047  134.9734  155.0457 H   0  0  0  0  0  0  0  0  0  0  0  0
  148.1366  135.2403  156.7578 H   0  0  0  0  0  0  0  0  0  0  0  0
  146.6911  135.6097  153.4980 H   0  0  0  0  0  0  0  0  0  0  0  0
  144.3649  135.2081  154.1318 H   0  0  0  0  0  0  0  0  0  0  0  0
  144.2339  136.7412  154.9560 H   0  0  0  0  0  0  0  0  0  0  0  0
  142.1944  136.3208  152.9512 H   0  0  0  0  0  0  0  0  0  0  0  0
  142.5233  137.7123  151.9163 H   0  0  0  0  0  0  0  0  0  0  0  0
  142.5477  137.9000  153.6599 H   0  0  0  0  0  0  0  0  0  0  0  0
  144.1260  135.1235  151.6576 H   0  0  0  0  0  0  0  0  0  0  0  0
  145.6957  135.9366  151.6112 H   0  0  0  0  0  0  0  0  0  0  0  0
  144.3302  136.6200  150.7387 H   0  0  0  0  0  0  0  0  0  0  0  0
  146.3432  138.3488  154.8251 H   0  0  0  0  0  0  0  0  0  0  0  0
  146.5968  138.0524  153.1161 H   0  0  0  0  0  0  0  0  0  0  0  0
  152.6111  139.1923  158.0269 H   0  0  0  0  0  0  0  0  0  0  0  0
  153.8058  139.2135  160.0476 H   0  0  0  0  0  0  0  0  0  0  0  0
  153.2122  140.2958  161.3026 H   0  0  0  0  0  0  0  0  0  0  0  0
  154.6239  140.7481  160.3348 H   0  0  0  0  0  0  0  0  0  0  0  0
  144.7511  137.7583  152.7677 H   0  0  0  0  0  0  0  0  0  0  0  0
  148.6950  137.0529  153.6513 H   0  0  0  0  0  0  0  0  0  0  0  0
  149.8204  143.4581  156.2365 H   0  0  0  0  0  0  0  0  0  0  0  0
  1  2  1  0  0  0  0
  1 26  1  0  0  0  0
  1 27  1  0  0  0  0
  1 28  1  0  0  0  0
  2 24  1  0  0  0  0
  2  3  2  0  0  0  0
  3  4  1  0  0  0  0
  3 29  1  0  0  0  0
  4 22  2  0  0  0  0
  4  5  1  0  0  0  0
  5  6  2  0  0  0  0
  5 58  1  0  0  0  0
  6  7  1  0  0  0  0
  6 30  1  0  0  0  0
  7  8  1  0  0  0  0
  7 22  1  0  0  0  0
  8  9  1  0  0  0  0
  8 31  1  0  0  0  0
  8 32  1  0  0  0  0
  9 10  1  0  0  0  0
  9 11  1  0  0  0  0
  9 33  1  0  0  0  0
 10 34  1  0  0  0  0
 11 12  1  0  0  0  0
 11 35  1  0  0  0  0
 11 36  1  0  0  0  0
 12 21  1  0  0  0  0
 12 13  1  0  0  0  0
 12 57  1  0  0  0  0
 13 14  1  0  0  0  0
 13 37  1  0  0  0  0
 13 38  1  0  0  0  0
 14 15  1  0  0  0  0
 14 39  1  0  0  0  0
 14 40  1  0  0  0  0
 15 16  1  0  0  0  0
 16 17  1  0  0  0  0
 16 21  1  0  0  0  0
 16 41  1  0  0  0  0
 17 18  1  0  0  0  0
 17 42  1  0  0  0  0
 17 43  1  0  0  0  0
 18 19  1  0  0  0  0
 18 20  1  0  0  0  0
 18 56  1  0  0  0  0
 19 44  1  0  0  0  0
 19 45  1  0  0  0  0
 19 46  1  0  0  0  0
 20 47  1  0  0  0  0
 20 48  1  0  0  0  0
 20 49  1  0  0  0  0
 21 50  1  0  0  0  0
 21 51  1  0  0  0  0
 22 23  1  0  0  0  0
 23 24  2  0  0  0  0
 23 52  1  0  0  0  0
 24 25  1  0  0  0  0
 25 53  1  0  0  0  0
 25 54  1  0  0  0  0
 25 55  1  0  0  0  0
M  CHG  1   5   1
M  CHG  1  12   1
M  CHG  1  18   1
M  END
> <s_m_source_file>
AV-unprocessed.smi

> <i_m_source_file_index>
1005

> <i_lp_mmshare_version>
43012

> <i_f3d_flags>
0

> <s_epik_input>
W0NIM11jKFtjSF0xKWMoW0NIM10pW2NIXWMoYzEyKW4oW2NIXW4yKVtDSDJdW0NASF0oW09IXSlbQ0gyXU4zW0NIMl1bQ0gyXU9bQ0BIXShbQ0gyXTMpW0NIMl1OKFtDSDNdKVtDSDNd

> <s_epik_cmdline>
J2VwaWtfcHl0aG9uJywgJy1waCcsICc3LjAnLCAnLXRuJywgJzgnLCAnLW1hJywgJzIwMCcsICctbWV0YWxfYmluZGluZycsICctaW1hZScsICc8aW5maWxlLm1hZT4nLCAnLW9tYWUnLCAnPG91dGZpbGUubWFlPic=

> <r_epik_Ionization_Penalty>
2.30802

> <r_epik_Ionization_Penalty_Charging>
2.30798

> <r_epik_Ionization_Penalty_Neutral>
3.4851e-05

> <r_epik_State_Penalty>
2.52618

> <r_epik_Charging_Adjusted_Penalty>
4.83416

> <i_epik_Tot_Q>
3

> <i_epik_Tot_abs_Q>
3

> <r_epik_Metal_State_Penalty>
6.53149

> <b_epik_Metal_Only>
0

> <s_lp_Force_Field>
OPLS_2005

> <r_lp_Energy>
42.4596

> <b_lp_Chiralities_Consistent>
1

> <s_lp_Variant>
AV-unprocessed.smi:1005-18

> <Gold.Version>
5.8.1

> <Gold.Id.Protein>
6NUR|6NUR_protein|mol2

> <Gold.PLP.Fitness>
56.2626

> <Gold.PLP.PLP>
-42.7120

> <Gold.PLP.part.hbond>
-4.0000

> <Gold.PLP.part.metal>
0.0000

> <Gold.PLP.part.buried>
-4.5469

> <Gold.PLP.part.nonpolar>
-33.9647

> <Gold.PLP.part.repulsive>
0.1293

> <Gold.PLP.ligand.clash>
0.0000

> <Gold.PLP.ligand.torsion>
0.6163

> <Gold.PLP.Chemscore.Hbond>
4.8921

> <Gold.PLP.Chemscore.CHOScore>
0.0000

> <Gold.PLP.Chemscore.Metal>
0.0000

> <Gold.Chemscore.Hbonds>
donor molecule, donor type, donor heavy atom, donor atom, acceptor molecule, acceptor atom, score
      L1  H     5    58       P1  8028  2.00
      L1  H    10    34       P1  7948  0.90
      L1  H    12    57       P1  7948  2.00

> <Gold.PLP.Chemscore.Internal.Correction>
0.1068

> <Gold.Rescore>
     Score         DG    S(hbond)    S(metal)    S(lipo)     H(rot)  DE(clash)    DE(int)     intcor
     17.87     -18.63       2.13        0.00     107.48       2.56       0.15       0.60       ----

> <Gold.Chemscore.Fitness>
17.8728

> <Gold.Chemscore.DG>
-18.6304

> <Gold.Chemscore.ZeroCoef>
-5.4800

> <Gold.Chemscore.Hbond>
2.1318

> <Gold.Chemscore.Metal>
0.0000

> <Gold.Chemscore.Lipo>
107.4812

> <Gold.Chemscore.Internal_Hbond>
0.0000

> <Gold.Chemscore.DEClash>
0.1542

> <Gold.Chemscore.DEInternal>
0.6035

> <Gold.Chemscore.Rot>
2.5566

> <Gold.Chemscore.Internal.Correction>
   9.000000E+99

> <Gold.Chemscore.Hbonds>
donor molecule, donor type, donor heavy atom, donor atom, acceptor molecule, acceptor atom, score
      L1  H     5    58       P1  8028  1.00
      L1  H    10    34       P1  7948  0.17
      L1  H    12    57       P1  7948  0.97

> <Gold.Chemscore.Hbond.Weighted>
-7.1201

> <Gold.Chemscore.Metal.Weighted>
-0.0000

> <Gold.Chemscore.Lipo.Weighted>
-12.5753

> <Gold.Chemscore.Internal_Hbond.Weighted>
0.0000

> <Gold.Chemscore.DEClash.Weighted>
0.1542

> <Gold.Chemscore.DEInternal.Weighted>
0.6035

> <Gold.Chemscore.Rot.Weighted>
6.5450

> <Gold.Chemscore.Internal.Correction.Weighted>
   9.000000E+99

> <Gold.Protein.RotatedTorsions>
[ 6907 6896 6895 6894 ] final  -27.72 input  -60.11 | X-H torsion
[ 7974 7965 7964 7962 ] final   20.63 input  175.53 | X-H torsion
[ 8008 7997 7996 7995 ] final   44.11 input   59.86 | X-H torsion
[ 10167 10162 10161 10158 ] final   17.28 input  -65.29 | X-H torsion
[ 10718 10713 10712 10709 ] final   75.46 input   66.30 | X-H torsion
[ 10763 10752 10751 10750 ] final  120.80 input  -60.55 | X-H torsion
[ 11005 11000 10999 10996 ] final   80.76 input  -57.11 | X-H torsion

> <Gold.Protein.ActiveResidues>
 VAL166  LYS551  ARG553  GLY616  TRP617  ASP618  TYR619  PRO620  LYS621  CYS622 
 ASP623  PHE694  ASN695  SER759  ASP760  ASP761  ALA762  ILE779  LEU786  VAL792 
 PHE793  MET794  SER795  GLU796  ALA797  LYS798  CYS799  TRP800  GLU811  SER814 

> <Gold.Protein.RotatedAtoms>
  151.1430  135.0189  159.8633 H   0  0  0  0  0  0  0  0  0  0  0  0  # atno 6907 bound_to 6896
  152.5452  134.1477  159.8515 H   0  0  0  0  0  0  0  0  0  0  0  0  # atno 6908 bound_to 6896
  151.1555  133.4834  159.2627 H   0  0  0  0  0  0  0  0  0  0  0  0  # atno 6909 bound_to 6896
  146.2104  139.8142  142.8693 H   0  0  0  0  0  0  0  0  0  0  0  0  # atno 7974 bound_to 7965
  155.3138  140.3392  155.4243 H   0  0  0  0  0  0  0  0  0  0  0  0  # atno 8008 bound_to 7997
  156.1942  140.1709  156.8068 H   0  0  0  0  0  0  0  0  0  0  0  0  # atno 8009 bound_to 7997
  154.5479  140.0711  156.8603 H   0  0  0  0  0  0  0  0  0  0  0  0  # atno 8010 bound_to 7997
  140.5737  143.9113  150.6733 H   0  0  0  0  0  0  0  0  0  0  0  0  # atno 10167 bound_to 10162
  157.6635  130.9727  150.1357 H   0  0  0  0  0  0  0  0  0  0  0  0  # atno 10718 bound_to 10713
  153.6042  135.3442  155.2956 H   0  0  0  0  0  0  0  0  0  0  0  0  # atno 10763 bound_to 10752
  154.8630  135.4235  154.2380 H   0  0  0  0  0  0  0  0  0  0  0  0  # atno 10764 bound_to 10752
  153.3215  135.7038  153.7098 H   0  0  0  0  0  0  0  0  0  0  0  0  # atno 10765 bound_to 10752
  139.9122  134.7945  156.1952 H   0  0  0  0  0  0  0  0  0  0  0  0  # atno 11005 bound_to 11000
  145.3164  141.0233  143.3525 LP  0  0  0  0  0  0  0  0  0  0  0  0  # atno 17320 bound_to 7965
  144.8898  139.4789  143.6683 LP  0  0  0  0  0  0  0  0  0  0  0  0  # atno 17321 bound_to 7965
  140.2595  143.3534  152.1335 LP  0  0  0  0  0  0  0  0  0  0  0  0  # atno 17342 bound_to 10162
  139.5131  144.6927  151.5715 LP  0  0  0  0  0  0  0  0  0  0  0  0  # atno 17343 bound_to 10162
  156.2192  130.3672  149.8576 LP  0  0  0  0  0  0  0  0  0  0  0  0  # atno 17370 bound_to 10713
  156.6434  130.8714  151.3518 LP  0  0  0  0  0  0  0  0  0  0  0  0  # atno 17371 bound_to 10713
  141.0559  133.6865  156.1859 LP  0  0  0  0  0  0  0  0  0  0  0  0  # atno 17394 bound_to 11000
  140.6738  134.4840  157.5588 LP  0  0  0  0  0  0  0  0  0  0  0  0  # atno 17395 bound_to 11000

$$$$
