AV-unprocessed.smi:686|AV-procd|sdf|3344|dock5
  -GOLD-   22720 0313D 1   1.00000     0.00000
 Structure written by MMmdl.
 41 42  0  0  0  0  0  0  0  0  2 V2000
  151.2411  137.3349  154.3620 C   0  0  0  0  0  0  0  0  0  0  0  0
  150.1582  138.1260  155.1141 C   0  0  1  0  0  0  0  0  0  0  0  0
  149.2460  138.8943  154.1553 C   0  0  0  0  0  0  0  0  0  0  0  0
  148.1828  137.9447  153.7630 N   0  3  2  0  0  0  0  0  0  0  0  0
  146.9369  138.5588  153.2227 C   0  0  0  0  0  0  0  0  0  0  0  0
  145.8631  137.4881  152.9513 C   0  0  0  0  0  0  0  0  0  0  0  0
  147.2064  139.3555  151.9319 C   0  0  0  0  0  0  0  0  0  0  0  0
  147.9864  137.0239  154.9087 C   0  0  0  0  0  0  0  0  0  0  0  0
  149.1821  137.2088  155.8629 C   0  0  2  0  0  0  0  0  0  0  0  0
  148.7592  137.8497  157.1126 N   0  0  0  0  0  0  0  0  0  0  0  0
  148.9422  136.9686  158.5853 S   0  0  0  0  0  0  0  0  0  0  0  0
  149.5496  135.6691  158.2593 O   0  0  0  0  0  0  0  0  0  0  0  0
  149.5967  137.8622  159.5527 O   0  0  0  0  0  0  0  0  0  0  0  0
  147.1976  136.6884  159.1056 C   0  0  0  0  0  0  0  0  0  0  0  0
  147.1686  136.2497  160.5415 C   0  0  0  0  0  0  0  0  0  0  0  0
  146.7229  135.0103  161.0784 C   0  0  0  0  0  0  0  0  0  0  0  0
  146.9187  135.1562  162.4214 C   0  0  0  0  0  0  0  0  0  0  0  0
  147.4434  136.3773  162.6952 O   0  0  0  0  0  0  0  0  0  0  0  0
  147.6004  137.0679  161.4882 N   0  0  0  0  0  0  0  0  0  0  0  0
  150.8054  136.6236  153.6594 H   0  0  0  0  0  0  0  0  0  0  0  0
  151.8673  136.7740  155.0564 H   0  0  0  0  0  0  0  0  0  0  0  0
  151.8939  138.0022  153.7985 H   0  0  0  0  0  0  0  0  0  0  0  0
  150.6624  138.8163  155.7925 H   0  0  0  0  0  0  0  0  0  0  0  0
  148.7978  139.7384  154.6824 H   0  0  0  0  0  0  0  0  0  0  0  0
  149.7835  139.2872  153.2915 H   0  0  0  0  0  0  0  0  0  0  0  0
  146.5484  139.2517  153.9709 H   0  0  0  0  0  0  0  0  0  0  0  0
  144.9599  137.9376  152.5376 H   0  0  0  0  0  0  0  0  0  0  0  0
  145.5662  136.9625  153.8586 H   0  0  0  0  0  0  0  0  0  0  0  0
  146.2174  136.7446  152.2365 H   0  0  0  0  0  0  0  0  0  0  0  0
  146.2791  139.7559  151.5207 H   0  0  0  0  0  0  0  0  0  0  0  0
  147.6626  138.7279  151.1655 H   0  0  0  0  0  0  0  0  0  0  0  0
  147.8650  140.2067  152.1053 H   0  0  0  0  0  0  0  0  0  0  0  0
  147.0441  137.2312  155.4187 H   0  0  0  0  0  0  0  0  0  0  0  0
  147.9348  135.9995  154.5385 H   0  0  0  0  0  0  0  0  0  0  0  0
  149.6491  136.2530  156.1064 H   0  0  0  0  0  0  0  0  0  0  0  0
  149.1638  138.7822  157.1982 H   0  0  0  0  0  0  0  0  0  0  0  0
  146.6406  137.6149  158.9676 H   0  0  0  0  0  0  0  0  0  0  0  0
  146.7599  135.9347  158.4503 H   0  0  0  0  0  0  0  0  0  0  0  0
  146.3196  134.1526  160.5606 H   0  0  0  0  0  0  0  0  0  0  0  0
  146.7438  134.5132  163.2713 H   0  0  0  0  0  0  0  0  0  0  0  0
  148.5798  137.3828  153.0236 H   0  0  0  0  0  0  0  0  0  0  0  0
  1  2  1  0  0  0  0
  1 20  1  0  0  0  0
  1 21  1  0  0  0  0
  1 22  1  0  0  0  0
  2  9  1  0  0  0  0
  2  3  1  0  0  0  0
  2 23  1  0  0  0  0
  3  4  1  0  0  0  0
  3 24  1  0  0  0  0
  3 25  1  0  0  0  0
  4  5  1  0  0  0  0
  4  8  1  0  0  0  0
  4 41  1  0  0  0  0
  5  6  1  0  0  0  0
  5  7  1  0  0  0  0
  5 26  1  0  0  0  0
  6 27  1  0  0  0  0
  6 28  1  0  0  0  0
  6 29  1  0  0  0  0
  7 30  1  0  0  0  0
  7 31  1  0  0  0  0
  7 32  1  0  0  0  0
  8  9  1  0  0  0  0
  8 33  1  0  0  0  0
  8 34  1  0  0  0  0
  9 10  1  0  0  0  0
  9 35  1  0  0  0  0
 10 11  1  0  0  0  0
 10 36  1  0  0  0  0
 11 12  2  0  0  0  0
 11 13  2  0  0  0  0
 11 14  1  0  0  0  0
 14 15  1  0  0  0  0
 14 37  1  0  0  0  0
 14 38  1  0  0  0  0
 15 19  2  0  0  0  0
 15 16  1  0  0  0  0
 16 17  2  0  0  0  0
 16 39  1  0  0  0  0
 17 18  1  0  0  0  0
 17 40  1  0  0  0  0
 18 19  1  0  0  0  0
M  CHG  1   4   1
M  END
> <s_m_source_file>
AV-unprocessed.smi

> <i_m_source_file_index>
686

> <i_lp_mmshare_version>
43012

> <i_f3d_flags>
0

> <s_epik_input>
W0NIM11bQ0BASF0xW0NIMl1OKFtDSF0oW0NIM10pW0NIM10pW0NIMl1bQ0BIXTFbTkhdUyg9TykoPU8pW0NIMl1jMltjSF1bY0hdb24y

> <s_epik_cmdline>
J2VwaWtfcHl0aG9uJywgJy1waCcsICc3LjAnLCAnLXRuJywgJzgnLCAnLW1hJywgJzIwMCcsICctbWV0YWxfYmluZGluZycsICctaW1hZScsICc8aW5maWxlLm1hZT4nLCAnLW9tYWUnLCAnPG91dGZpbGUubWFlPic=

> <r_epik_Ionization_Penalty>
0.00200818

> <r_epik_Ionization_Penalty_Charging>
0.000701289

> <r_epik_Ionization_Penalty_Neutral>
0.00130689

> <r_epik_State_Penalty>
0.00131314

> <r_epik_Charging_Adjusted_Penalty>
0.00201443

> <i_epik_Tot_Q>
1

> <i_epik_Tot_abs_Q>
1

> <r_epik_Metal_State_Penalty>
0.310831

> <b_epik_Metal_Only>
0

> <s_lp_Force_Field>
OPLS_2005

> <r_lp_Energy>
21.6188

> <b_lp_Chiralities_Consistent>
1

> <s_lp_Variant>
AV-unprocessed.smi:686-8

> <Gold.Version>
5.8.1

> <Gold.Id.Protein>
6NUR|6NUR_protein|mol2

> <Gold.PLP.Fitness>
40.9524

> <Gold.PLP.PLP>
-29.1796

> <Gold.PLP.part.hbond>
-6.0694

> <Gold.PLP.part.metal>
0.0000

> <Gold.PLP.part.buried>
-1.3935

> <Gold.PLP.part.nonpolar>
-22.2347

> <Gold.PLP.part.repulsive>
0.0121

> <Gold.PLP.ligand.clash>
0.0000

> <Gold.PLP.ligand.torsion>
1.1387

> <Gold.PLP.Chemscore.Hbond>
4.6296

> <Gold.PLP.Chemscore.CHOScore>
0.0000

> <Gold.PLP.Chemscore.Metal>
0.0000

> <Gold.Chemscore.Hbonds>
donor molecule, donor type, donor heavy atom, donor atom, acceptor molecule, acceptor atom, score
      L1  H     4    41       P1  7948  2.00
      P1  H  6896  6909       L1    12  1.00
      P1  H  6931  6943       L1    19  1.00
      P1  H  6934  6947       L1    19  0.74

> <Gold.PLP.Chemscore.Internal.Correction>
0.1615

> <Gold.Rescore>
     Score         DG    S(hbond)    S(metal)    S(lipo)     H(rot)  DE(clash)    DE(int)     intcor
     15.34     -17.52       2.81        0.00      64.41       1.91       0.14       2.04       ----

> <Gold.Chemscore.Fitness>
15.3361

> <Gold.Chemscore.DG>
-17.5209

> <Gold.Chemscore.ZeroCoef>
-5.4800

> <Gold.Chemscore.Hbond>
2.8140

> <Gold.Chemscore.Metal>
0.0000

> <Gold.Chemscore.Lipo>
64.4081

> <Gold.Chemscore.Internal_Hbond>
0.0000

> <Gold.Chemscore.DEClash>
0.1440

> <Gold.Chemscore.DEInternal>
2.0408

> <Gold.Chemscore.Rot>
1.9115

> <Gold.Chemscore.Internal.Correction>
   9.000000E+99

> <Gold.Chemscore.Hbonds>
donor molecule, donor type, donor heavy atom, donor atom, acceptor molecule, acceptor atom, score
      L1  H     4    41       P1  7948  1.00
      P1  H  6896  6909       L1    12  0.92
      P1  H  6931  6943       L1    19  0.33
      P1  H  6934  6947       L1    19  0.54

> <Gold.Chemscore.Hbond.Weighted>
-9.3986

> <Gold.Chemscore.Metal.Weighted>
-0.0000

> <Gold.Chemscore.Lipo.Weighted>
-7.5357

> <Gold.Chemscore.Internal_Hbond.Weighted>
0.0000

> <Gold.Chemscore.DEClash.Weighted>
0.1440

> <Gold.Chemscore.DEInternal.Weighted>
2.0408

> <Gold.Chemscore.Rot.Weighted>
4.8935

> <Gold.Chemscore.Internal.Correction.Weighted>
   9.000000E+99

> <Gold.Protein.RotatedTorsions>
[ 6907 6896 6895 6894 ] final   55.19 input  -60.11 | X-H torsion
[ 7974 7965 7964 7962 ] final   83.23 input  175.53 | X-H torsion
[ 8008 7997 7996 7995 ] final   58.60 input   59.86 | X-H torsion
[ 10167 10162 10161 10158 ] final   51.63 input  -65.29 | X-H torsion
[ 10718 10713 10712 10709 ] final  -16.34 input   66.30 | X-H torsion
[ 10763 10752 10751 10750 ] final  -70.73 input  -60.55 | X-H torsion
[ 11005 11000 10999 10996 ] final   50.33 input  -57.11 | X-H torsion

> <Gold.Protein.ActiveResidues>
 VAL166  LYS551  ARG553  GLY616  TRP617  ASP618  TYR619  PRO620  LYS621  CYS622 
 ASP623  PHE694  ASN695  SER759  ASP760  ASP761  ALA762  ILE779  LEU786  VAL792 
 PHE793  MET794  SER795  GLU796  ALA797  LYS798  CYS799  TRP800  GLU811  SER814 

> <Gold.Protein.RotatedAtoms>
  152.3514  134.7000  160.0234 H   0  0  0  0  0  0  0  0  0  0  0  0  # atno 6907 bound_to 6896
  151.7353  133.3314  159.3359 H   0  0  0  0  0  0  0  0  0  0  0  0  # atno 6908 bound_to 6896
  150.7543  134.6260  159.6206 H   0  0  0  0  0  0  0  0  0  0  0  0  # atno 6909 bound_to 6896
  145.6147  139.2374  143.2172 H   0  0  0  0  0  0  0  0  0  0  0  0  # atno 7974 bound_to 7965
  155.5527  140.3486  155.4472 H   0  0  0  0  0  0  0  0  0  0  0  0  # atno 8008 bound_to 7997
  156.0572  140.1331  157.0009 H   0  0  0  0  0  0  0  0  0  0  0  0  # atno 8009 bound_to 7997
  154.4462  140.0993  156.6448 H   0  0  0  0  0  0  0  0  0  0  0  0  # atno 8010 bound_to 7997
  140.2599  144.3385  150.6321 H   0  0  0  0  0  0  0  0  0  0  0  0  # atno 10167 bound_to 10162
  156.5890  130.4794  149.6287 H   0  0  0  0  0  0  0  0  0  0  0  0  # atno 10718 bound_to 10713
  154.4218  135.5985  153.6015 H   0  0  0  0  0  0  0  0  0  0  0  0  # atno 10763 bound_to 10752
  152.9794  135.5954  154.3945 H   0  0  0  0  0  0  0  0  0  0  0  0  # atno 10764 bound_to 10752
  154.3772  135.2841  155.2211 H   0  0  0  0  0  0  0  0  0  0  0  0  # atno 10765 bound_to 10752
  140.1027  134.5060  155.8748 H   0  0  0  0  0  0  0  0  0  0  0  0  # atno 11005 bound_to 11000
  146.1477  140.6969  142.9336 LP  0  0  0  0  0  0  0  0  0  0  0  0  # atno 17320 bound_to 7965
  144.7255  140.4512  143.6976 LP  0  0  0  0  0  0  0  0  0  0  0  0  # atno 17321 bound_to 7965
  140.5974  143.2167  151.7137 LP  0  0  0  0  0  0  0  0  0  0  0  0  # atno 17342 bound_to 10162
  139.5020  144.3846  152.0342 LP  0  0  0  0  0  0  0  0  0  0  0  0  # atno 17343 bound_to 10162
  156.2566  130.6938  151.1693 LP  0  0  0  0  0  0  0  0  0  0  0  0  # atno 17370 bound_to 10713
  157.7308  131.0613  150.5708 LP  0  0  0  0  0  0  0  0  0  0  0  0  # atno 17371 bound_to 10713
  141.2110  133.6701  156.6549 LP  0  0  0  0  0  0  0  0  0  0  0  0  # atno 17394 bound_to 11000
  140.3198  134.8017  157.4243 LP  0  0  0  0  0  0  0  0  0  0  0  0  # atno 17395 bound_to 11000

$$$$
