AV-unprocessed.smi:2532|AV-procd|sdf|9971|dock10
  -GOLD-   2272014 13D 1   1.00000     0.00000
 Structure written by MMmdl.
 37 39  0  0  0  0  0  0  0  0  2 V2000
  148.9604  138.9775  157.6499 O   0  0  0  0  0  0  0  0  0  0  0  0
  149.9317  139.0667  158.6735 C   0  0  1  0  0  0  0  0  0  0  0  0
  150.1767  137.6556  159.2296 C   0  0  0  0  0  0  0  0  0  0  0  0
  149.0792  137.2930  160.0500 O   0  0  0  0  0  0  0  0  0  0  0  0
  148.4323  136.1083  159.6148 C   0  0  0  0  0  0  0  0  0  0  0  0
  147.7072  135.5351  160.7896 C   0  0  0  0  0  0  0  0  0  0  0  0
  147.0780  134.3182  160.8615 C   0  0  0  0  0  0  0  0  0  0  0  0
  146.4933  134.0603  162.1362 C   0  0  0  0  0  0  0  0  0  0  0  0
  146.6923  135.0803  163.0279 C   0  0  0  0  0  0  0  0  0  0  0  0
  147.6041  136.3827  162.3157 S   0  0  0  0  0  0  0  0  0  0  0  0
  151.2185  139.6944  158.1023 C   0  0  0  0  0  0  0  0  0  0  0  0
  151.0430  141.1030  157.7185 N   0  0  0  0  0  0  0  0  0  0  0  0
  150.3175  141.6395  156.7001 C   0  0  0  0  0  0  0  0  0  0  0  0
  150.4699  142.9918  156.7532 N   0  3  0  0  0  0  0  0  0  0  0  0
  151.3060  143.3252  157.8209 C   0  0  0  0  0  0  0  0  0  0  0  0
  151.7525  144.5624  158.2750 C   0  0  0  0  0  0  0  0  0  0  0  0
  152.6063  144.5540  159.3975 C   0  0  0  0  0  0  0  0  0  0  0  0
  152.9850  143.3484  160.0232 C   0  0  0  0  0  0  0  0  0  0  0  0
  152.5258  142.1001  159.5544 C   0  0  0  0  0  0  0  0  0  0  0  0
  151.6800  142.1163  158.4454 C   0  0  0  0  0  0  0  0  0  0  0  0
  148.6075  138.1004  157.6515 H   0  0  0  0  0  0  0  0  0  0  0  0
  149.5487  139.7105  159.4668 H   0  0  0  0  0  0  0  0  0  0  0  0
  150.3325  136.9346  158.4248 H   0  0  0  0  0  0  0  0  0  0  0  0
  151.0775  137.6525  159.8455 H   0  0  0  0  0  0  0  0  0  0  0  0
  147.7330  136.3325  158.8076 H   0  0  0  0  0  0  0  0  0  0  0  0
  149.1607  135.3884  159.2392 H   0  0  0  0  0  0  0  0  0  0  0  0
  147.0156  133.6102  160.0483 H   0  0  0  0  0  0  0  0  0  0  0  0
  145.9575  133.1478  162.3521 H   0  0  0  0  0  0  0  0  0  0  0  0
  146.3641  135.1452  164.0548 H   0  0  0  0  0  0  0  0  0  0  0  0
  152.0082  139.6674  158.8541 H   0  0  0  0  0  0  0  0  0  0  0  0
  151.5924  139.1289  157.2486 H   0  0  0  0  0  0  0  0  0  0  0  0
  149.7282  141.0914  155.9792 H   0  0  0  0  0  0  0  0  0  0  0  0
  151.4652  145.4873  157.7967 H   0  0  0  0  0  0  0  0  0  0  0  0
  152.9793  145.4908  159.7852 H   0  0  0  0  0  0  0  0  0  0  0  0
  153.6422  143.3808  160.8801 H   0  0  0  0  0  0  0  0  0  0  0  0
  152.8280  141.1831  160.0378 H   0  0  0  0  0  0  0  0  0  0  0  0
  150.0355  143.6372  156.1062 H   0  0  0  0  0  0  0  0  0  0  0  0
  1  2  1  0  0  0  0
  1 21  1  0  0  0  0
  2  3  1  0  0  0  0
  2 11  1  0  0  0  0
  2 22  1  0  0  0  0
  3  4  1  0  0  0  0
  3 23  1  0  0  0  0
  3 24  1  0  0  0  0
  4  5  1  0  0  0  0
  5  6  1  0  0  0  0
  5 25  1  0  0  0  0
  5 26  1  0  0  0  0
  6 10  1  0  0  0  0
  6  7  2  0  0  0  0
  7  8  1  0  0  0  0
  7 27  1  0  0  0  0
  8  9  2  0  0  0  0
  8 28  1  0  0  0  0
  9 10  1  0  0  0  0
  9 29  1  0  0  0  0
 11 12  1  0  0  0  0
 11 30  1  0  0  0  0
 11 31  1  0  0  0  0
 12 20  1  0  0  0  0
 12 13  1  0  0  0  0
 13 14  2  0  0  0  0
 13 32  1  0  0  0  0
 14 15  1  0  0  0  0
 14 37  1  0  0  0  0
 15 20  2  0  0  0  0
 15 16  1  0  0  0  0
 16 17  2  0  0  0  0
 16 33  1  0  0  0  0
 17 18  1  0  0  0  0
 17 34  1  0  0  0  0
 18 19  2  0  0  0  0
 18 35  1  0  0  0  0
 19 20  1  0  0  0  0
 19 36  1  0  0  0  0
M  CHG  1  14   1
M  END
> <s_m_source_file>
AV-unprocessed.smi

> <i_m_source_file_index>
2532

> <i_lp_mmshare_version>
43012

> <i_f3d_flags>
0

> <s_epik_input>
W2NIXTFbY0hdW2NIXVtjSF1jKGMxMiluKFtjSF1uMilbQ0gyXVtDQEhdKFtPSF0pW0NIMl1PW0NIMl1jM1tjSF1bY0hdW2NIXXMz

> <s_epik_cmdline>
J2VwaWtfcHl0aG9uJywgJy1waCcsICc3LjAnLCAnLXRuJywgJzgnLCAnLW1hJywgJzIwMCcsICctbWV0YWxfYmluZGluZycsICctaW1hZScsICc8aW5maWxlLm1hZT4nLCAnLW9tYWUnLCAnPG91dGZpbGUubWFlPic=

> <r_epik_Ionization_Penalty>
1.31758

> <r_epik_Ionization_Penalty_Charging>
1.31758

> <r_epik_Ionization_Penalty_Neutral>
1.26231e-06

> <r_epik_State_Penalty>
1.39289

> <r_epik_Charging_Adjusted_Penalty>
2.71047

> <i_epik_Tot_Q>
1

> <i_epik_Tot_abs_Q>
1

> <r_epik_Metal_State_Penalty>
5.42637

> <b_epik_Metal_Only>
0

> <s_lp_Force_Field>
OPLS_2005

> <r_lp_Energy>
15.1458

> <b_lp_Chiralities_Consistent>
1

> <s_lp_Variant>
AV-unprocessed.smi:2532-4

> <Gold.Version>
5.8.1

> <Gold.Id.Protein>
6NUR|6NUR_protein|mol2

> <Gold.PLP.Fitness>
53.5875

> <Gold.PLP.PLP>
-48.2706

> <Gold.PLP.part.hbond>
-2.0000

> <Gold.PLP.part.metal>
0.0000

> <Gold.PLP.part.buried>
-5.9887

> <Gold.PLP.part.nonpolar>
-42.2788

> <Gold.PLP.part.repulsive>
0.0661

> <Gold.PLP.ligand.clash>
0.0000

> <Gold.PLP.ligand.torsion>
0.7619

> <Gold.PLP.Chemscore.Hbond>
2.2570

> <Gold.PLP.Chemscore.CHOScore>
0.0000

> <Gold.PLP.Chemscore.Metal>
0.0000

> <Gold.Chemscore.Hbonds>
donor molecule, donor type, donor heavy atom, donor atom, acceptor molecule, acceptor atom, score
      L1  H    14    37       P1  8028  2.00
      P1  H  6931  6943       L1     4  0.40

> <Gold.PLP.Chemscore.Internal.Correction>
0.0696

> <Gold.Rescore>
     Score         DG    S(hbond)    S(metal)    S(lipo)     H(rot)  DE(clash)    DE(int)     intcor
     18.68     -19.42       1.43        0.00     132.13       2.46       0.05       0.70       ----

> <Gold.Chemscore.Fitness>
18.6762

> <Gold.Chemscore.DG>
-19.4245

> <Gold.Chemscore.ZeroCoef>
-5.4800

> <Gold.Chemscore.Hbond>
1.4324

> <Gold.Chemscore.Metal>
0.0000

> <Gold.Chemscore.Lipo>
132.1348

> <Gold.Chemscore.Internal_Hbond>
0.0000

> <Gold.Chemscore.DEClash>
0.0515

> <Gold.Chemscore.DEInternal>
0.6968

> <Gold.Chemscore.Rot>
2.4608

> <Gold.Chemscore.Internal.Correction>
   9.000000E+99

> <Gold.Chemscore.Hbonds>
donor molecule, donor type, donor heavy atom, donor atom, acceptor molecule, acceptor atom, score
      L1  H    14    37       P1  8028  0.97
      P1  H  6931  6943       L1     4  0.32

> <Gold.Chemscore.Hbond.Weighted>
-4.7844

> <Gold.Chemscore.Metal.Weighted>
-0.0000

> <Gold.Chemscore.Lipo.Weighted>
-15.4598

> <Gold.Chemscore.Internal_Hbond.Weighted>
0.0000

> <Gold.Chemscore.DEClash.Weighted>
0.0515

> <Gold.Chemscore.DEInternal.Weighted>
0.6968

> <Gold.Chemscore.Rot.Weighted>
6.2996

> <Gold.Chemscore.Internal.Correction.Weighted>
   9.000000E+99

> <Gold.Protein.RotatedTorsions>
[ 6907 6896 6895 6894 ] final   17.83 input  -60.11 | X-H torsion
[ 7974 7965 7964 7962 ] final -114.28 input  175.53 | X-H torsion
[ 8008 7997 7996 7995 ] final   53.79 input   59.86 | X-H torsion
[ 10167 10162 10161 10158 ] final  149.01 input  -65.29 | X-H torsion
[ 10718 10713 10712 10709 ] final -121.33 input   66.30 | X-H torsion
[ 10763 10752 10751 10750 ] final  112.99 input  -60.55 | X-H torsion
[ 11005 11000 10999 10996 ] final  -79.50 input  -57.11 | X-H torsion

> <Gold.Protein.ActiveResidues>
 VAL166  LYS551  ARG553  GLY616  TRP617  ASP618  TYR619  PRO620  LYS621  CYS622 
 ASP623  PHE694  ASN695  SER759  ASP760  ASP761  ALA762  ILE779  LEU786  VAL792 
 PHE793  MET794  SER795  GLU796  ALA797  LYS798  CYS799  TRP800  GLU811  SER814 

> <Gold.Protein.RotatedAtoms>
  151.8557  135.0542  160.0463 H   0  0  0  0  0  0  0  0  0  0  0  0  # atno 6907 bound_to 6896
  152.2701  133.5370  159.5442 H   0  0  0  0  0  0  0  0  0  0  0  0  # atno 6908 bound_to 6896
  150.7148  134.0625  159.3878 H   0  0  0  0  0  0  0  0  0  0  0  0  # atno 6909 bound_to 6896
  145.1220  140.8674  143.3808 H   0  0  0  0  0  0  0  0  0  0  0  0  # atno 7974 bound_to 7965
  155.4740  140.3466  155.4330 H   0  0  0  0  0  0  0  0  0  0  0  0  # atno 8008 bound_to 7997
  156.1082  140.1453  156.9404 H   0  0  0  0  0  0  0  0  0  0  0  0  # atno 8009 bound_to 7997
  154.4738  140.0892  156.7190 H   0  0  0  0  0  0  0  0  0  0  0  0  # atno 8010 bound_to 7997
  139.4867  144.5635  151.7187 H   0  0  0  0  0  0  0  0  0  0  0  0  # atno 10167 bound_to 10162
  156.1328  130.6408  150.9649 H   0  0  0  0  0  0  0  0  0  0  0  0  # atno 10718 bound_to 10713
  153.4860  135.3669  155.2467 H   0  0  0  0  0  0  0  0  0  0  0  0  # atno 10763 bound_to 10752
  154.8754  135.3965  154.3644 H   0  0  0  0  0  0  0  0  0  0  0  0  # atno 10764 bound_to 10752
  153.4256  135.7081  153.6330 H   0  0  0  0  0  0  0  0  0  0  0  0  # atno 10765 bound_to 10752
  141.1667  133.7109  156.8132 H   0  0  0  0  0  0  0  0  0  0  0  0  # atno 11005 bound_to 11000
  145.0730  139.3017  143.5822 LP  0  0  0  0  0  0  0  0  0  0  0  0  # atno 17320 bound_to 7965
  146.3520  140.0211  142.8658 LP  0  0  0  0  0  0  0  0  0  0  0  0  # atno 17321 bound_to 7965
  140.5209  144.0880  150.6022 LP  0  0  0  0  0  0  0  0  0  0  0  0  # atno 17342 bound_to 10162
  140.3838  143.2788  152.0140 LP  0  0  0  0  0  0  0  0  0  0  0  0  # atno 17343 bound_to 10162
  157.6504  131.0898  150.8062 LP  0  0  0  0  0  0  0  0  0  0  0  0  # atno 17370 bound_to 10713
  156.8145  130.4963  149.5351 LP  0  0  0  0  0  0  0  0  0  0  0  0  # atno 17371 bound_to 10713
  140.2172  134.8784  157.3338 LP  0  0  0  0  0  0  0  0  0  0  0  0  # atno 17394 bound_to 11000
  140.2025  134.4237  155.7655 LP  0  0  0  0  0  0  0  0  0  0  0  0  # atno 17395 bound_to 11000

$$$$
