AV-unprocessed.smi:232|AV-procd|sdf|1768|dock1
  -GOLD-   2262020303D 1   1.00000     0.00000
 Structure written by MMmdl.
 52 55  0  0  0  0  0  0  0  0  1 V2000
  151.4562  144.6398  158.8036 C   0  0  0  0  0  0  0  0  0  0  0  0
  151.2288  143.1232  158.8006 C   0  0  0  0  0  0  0  0  0  0  0  0
  152.5345  142.3140  158.9540 C   0  0  1  0  0  0  0  0  0  0  0  0
  153.2212  142.4948  160.3162 C   0  0  0  0  0  0  0  0  0  0  0  0
  153.8919  141.1458  160.6028 C   0  0  0  0  0  0  0  0  0  0  0  0
  153.5568  140.2813  159.3825 C   0  0  1  0  0  0  0  0  0  0  0  0
  153.4034  138.7876  159.7117 C   0  0  0  0  0  0  0  0  0  0  0  0
  152.3421  140.8732  158.8325 N   0  0  0  0  0  0  0  0  0  0  0  0
  151.9716  140.4530  157.5996 C   0  0  0  0  0  0  0  0  0  0  0  0
  152.9061  140.0737  156.6874 N   0  0  0  0  0  0  0  0  0  0  0  0
  152.5271  139.6816  155.4669 C   0  0  0  0  0  0  0  0  0  0  0  0
  151.2942  139.6007  154.9603 N   0  0  0  0  0  0  0  0  0  0  0  0
  150.3580  139.9843  155.8753 C   0  0  0  0  0  0  0  0  0  0  0  0
  150.6086  140.4184  157.2061 C   0  0  0  0  0  0  0  0  0  0  0  0
  149.4132  140.7293  157.8417 N   0  0  0  0  0  0  0  0  0  0  0  0
  148.5042  140.4959  156.9341 C   0  0  0  0  0  0  0  0  0  0  0  0
  148.9851  140.0488  155.7238 N   0  0  0  0  0  0  0  0  0  0  0  0
  148.2064  139.7226  154.5430 C   0  0  0  0  0  0  0  0  0  0  0  0
  146.7052  139.5736  154.8578 C   0  0  2  0  0  0  0  0  0  0  0  0
  146.0261  138.9746  153.7699 O   0  0  0  0  0  0  0  0  0  0  0  0
  146.0401  140.9088  155.2488 C   0  0  2  0  0  0  0  0  0  0  0  0
  144.5946  140.8303  155.7479 C   0  0  0  0  0  0  0  0  0  0  0  0
  144.1081  142.2334  155.4632 C   0  0  0  0  0  0  0  0  0  0  0  0
  144.7954  142.5364  154.1342 C   0  0  0  0  0  0  0  0  0  0  0  0
  146.0397  141.8430  154.1717 O   0  0  0  0  0  0  0  0  0  0  0  0
  150.5166  145.1714  158.6516 H   0  0  0  0  0  0  0  0  0  0  0  0
  152.1382  144.9358  158.0061 H   0  0  0  0  0  0  0  0  0  0  0  0
  151.8777  144.9789  159.7499 H   0  0  0  0  0  0  0  0  0  0  0  0
  150.5307  142.8555  159.5948 H   0  0  0  0  0  0  0  0  0  0  0  0
  150.7372  142.8600  157.8637 H   0  0  0  0  0  0  0  0  0  0  0  0
  153.2323  142.6249  158.1744 H   0  0  0  0  0  0  0  0  0  0  0  0
  153.9367  143.3173  160.2973 H   0  0  0  0  0  0  0  0  0  0  0  0
  152.4906  142.7098  161.0973 H   0  0  0  0  0  0  0  0  0  0  0  0
  154.9689  141.2385  160.7450 H   0  0  0  0  0  0  0  0  0  0  0  0
  153.4731  140.7161  161.5138 H   0  0  0  0  0  0  0  0  0  0  0  0
  154.3659  140.3990  158.6599 H   0  0  0  0  0  0  0  0  0  0  0  0
  154.3155  138.3933  160.1601 H   0  0  0  0  0  0  0  0  0  0  0  0
  153.1992  138.2018  158.8150 H   0  0  0  0  0  0  0  0  0  0  0  0
  152.5860  138.6184  160.4131 H   0  0  0  0  0  0  0  0  0  0  0  0
  153.3264  139.3939  154.8001 H   0  0  0  0  0  0  0  0  0  0  0  0
  147.4514  140.6505  157.1209 H   0  0  0  0  0  0  0  0  0  0  0  0
  148.3620  140.5096  153.8043 H   0  0  0  0  0  0  0  0  0  0  0  0
  148.6012  138.8032  154.1086 H   0  0  0  0  0  0  0  0  0  0  0  0
  146.5958  138.8913  155.7019 H   0  0  0  0  0  0  0  0  0  0  0  0
  145.1548  139.3375  153.7238 H   0  0  0  0  0  0  0  0  0  0  0  0
  146.6372  141.3688  156.0383 H   0  0  0  0  0  0  0  0  0  0  0  0
  144.0053  140.1174  155.1707 H   0  0  0  0  0  0  0  0  0  0  0  0
  144.5234  140.5578  156.8013 H   0  0  0  0  0  0  0  0  0  0  0  0
  143.0219  142.3100  155.4090 H   0  0  0  0  0  0  0  0  0  0  0  0
  144.4625  142.9176  156.2354 H   0  0  0  0  0  0  0  0  0  0  0  0
  144.2056  142.1432  153.3054 H   0  0  0  0  0  0  0  0  0  0  0  0
  144.9381  143.6048  153.9719 H   0  0  0  0  0  0  0  0  0  0  0  0
  1  2  1  0  0  0  0
  1 26  1  0  0  0  0
  1 27  1  0  0  0  0
  1 28  1  0  0  0  0
  2  3  1  0  0  0  0
  2 29  1  0  0  0  0
  2 30  1  0  0  0  0
  3  8  1  0  0  0  0
  3  4  1  0  0  0  0
  3 31  1  0  0  0  0
  4  5  1  0  0  0  0
  4 32  1  0  0  0  0
  4 33  1  0  0  0  0
  5  6  1  0  0  0  0
  5 34  1  0  0  0  0
  5 35  1  0  0  0  0
  6  7  1  0  0  0  0
  6  8  1  0  0  0  0
  6 36  1  0  0  0  0
  7 37  1  0  0  0  0
  7 38  1  0  0  0  0
  7 39  1  0  0  0  0
  8  9  1  0  0  0  0
  9 14  1  0  0  0  0
  9 10  2  0  0  0  0
 10 11  1  0  0  0  0
 11 12  2  0  0  0  0
 11 40  1  0  0  0  0
 12 13  1  0  0  0  0
 13 17  1  0  0  0  0
 13 14  2  0  0  0  0
 14 15  1  0  0  0  0
 15 16  2  0  0  0  0
 16 17  1  0  0  0  0
 16 41  1  0  0  0  0
 17 18  1  0  0  0  0
 18 19  1  0  0  0  0
 18 42  1  0  0  0  0
 18 43  1  0  0  0  0
 19 20  1  0  0  0  0
 19 21  1  0  0  0  0
 19 44  1  0  0  0  0
 20 45  1  0  0  0  0
 21 25  1  0  0  0  0
 21 22  1  0  0  0  0
 21 46  1  0  0  0  0
 22 23  1  0  0  0  0
 22 47  1  0  0  0  0
 22 48  1  0  0  0  0
 23 24  1  0  0  0  0
 23 49  1  0  0  0  0
 23 50  1  0  0  0  0
 24 25  1  0  0  0  0
 24 51  1  0  0  0  0
 24 52  1  0  0  0  0
M  END
> <s_m_source_file>
AV-unprocessed.smi

> <i_m_source_file_index>
232

> <i_lp_mmshare_version>
43012

> <i_f3d_flags>
0

> <s_epik_input>
W0NIM11bQ0gyXVtDQEBIXTFbQ0gyXVtDSDJdW0NAQEhdKFtDSDNdKU4xYyhuW2NIXW4yKWMoYzIzKW5bY0hdbjNbQ0gyXVtDQEhdKFtPSF0pW0NAQEhdNFtDSDJdW0NIMl1bQ0gyXU80

> <s_epik_cmdline>
J2VwaWtfcHl0aG9uJywgJy1waCcsICc3LjAnLCAnLXRuJywgJzgnLCAnLW1hJywgJzIwMCcsICctbWV0YWxfYmluZGluZycsICctaW1hZScsICc8aW5maWxlLm1hZT4nLCAnLW9tYWUnLCAnPG91dGZpbGUubWFlPic=

> <r_lp_tautomer_probability>
1

> <r_epik_Ionization_Penalty>
0.00258048

> <r_epik_Ionization_Penalty_Charging>
0

> <r_epik_Ionization_Penalty_Neutral>
0.00258048

> <r_epik_State_Penalty>
0.00168551

> <r_epik_Charging_Adjusted_Penalty>
0.00168551

> <i_epik_Tot_Q>
0

> <i_epik_Tot_abs_Q>
0

> <r_epik_Metal_State_Penalty>
-0

> <b_epik_Metal_Only>
0

> <s_lp_Force_Field>
OPLS_2005

> <r_lp_Energy>
54.3711

> <b_lp_Chiralities_Consistent>
1

> <s_lp_Variant>
AV-unprocessed.smi:232-2

> <Gold.Version>
5.8.1

> <Gold.Id.Protein>
6NUR|6NUR_protein|mol2

> <Gold.PLP.Fitness>
52.9784

> <Gold.PLP.PLP>
-46.6012

> <Gold.PLP.part.hbond>
-3.2518

> <Gold.PLP.part.metal>
0.0000

> <Gold.PLP.part.buried>
-4.4790

> <Gold.PLP.part.nonpolar>
-40.0659

> <Gold.PLP.part.repulsive>
0.2948

> <Gold.PLP.ligand.clash>
0.0000

> <Gold.PLP.ligand.torsion>
1.0210

> <Gold.PLP.Chemscore.Hbond>
2.7440

> <Gold.PLP.Chemscore.CHOScore>
0.0000

> <Gold.PLP.Chemscore.Metal>
0.0000

> <Gold.Chemscore.Hbonds>
donor molecule, donor type, donor heavy atom, donor atom, acceptor molecule, acceptor atom, score
      L1  H    20    45       P1 10175  0.44
      P1  H  7989  7998       L1    12  0.70
      P1  H  7997  8009       L1    10  0.80

> <Gold.PLP.Chemscore.Internal.Correction>
0.1872

> <Gold.Rescore>
     Score         DG    S(hbond)    S(metal)    S(lipo)     H(rot)  DE(clash)    DE(int)     intcor
     14.84     -17.30       1.78        0.00     103.20       2.43       0.74       1.71       ----

> <Gold.Chemscore.Fitness>
14.8416

> <Gold.Chemscore.DG>
-17.2978

> <Gold.Chemscore.ZeroCoef>
-5.4800

> <Gold.Chemscore.Hbond>
1.7827

> <Gold.Chemscore.Metal>
0.0000

> <Gold.Chemscore.Lipo>
103.2000

> <Gold.Chemscore.Internal_Hbond>
0.0000

> <Gold.Chemscore.DEClash>
0.7433

> <Gold.Chemscore.DEInternal>
1.7129

> <Gold.Chemscore.Rot>
2.4260

> <Gold.Chemscore.Internal.Correction>
   9.000000E+99

> <Gold.Chemscore.Hbonds>
donor molecule, donor type, donor heavy atom, donor atom, acceptor molecule, acceptor atom, score
      L1  H    20    45       P1 10175  0.43
      P1  H  7989  7998       L1    12  0.07
      P1  H  7997  8009       L1    10  0.59

> <Gold.Chemscore.Hbond.Weighted>
-5.9541

> <Gold.Chemscore.Metal.Weighted>
-0.0000

> <Gold.Chemscore.Lipo.Weighted>
-12.0744

> <Gold.Chemscore.Internal_Hbond.Weighted>
0.0000

> <Gold.Chemscore.DEClash.Weighted>
0.7433

> <Gold.Chemscore.DEInternal.Weighted>
1.7129

> <Gold.Chemscore.Rot.Weighted>
6.2107

> <Gold.Chemscore.Internal.Correction.Weighted>
   9.000000E+99

> <Gold.Protein.RotatedTorsions>
[ 6907 6896 6895 6894 ] final  -37.60 input  -60.11 | X-H torsion
[ 7974 7965 7964 7962 ] final  119.28 input  175.53 | X-H torsion
[ 8008 7997 7996 7995 ] final  166.80 input   59.86 | X-H torsion
[ 10167 10162 10161 10158 ] final  177.53 input  -65.29 | X-H torsion
[ 10718 10713 10712 10709 ] final  156.49 input   66.30 | X-H torsion
[ 10763 10752 10751 10750 ] final  116.18 input  -60.55 | X-H torsion
[ 11005 11000 10999 10996 ] final   98.21 input  -57.11 | X-H torsion

> <Gold.Protein.ActiveResidues>
 VAL166  LYS551  ARG553  GLY616  TRP617  ASP618  TYR619  PRO620  LYS621  CYS622 
 ASP623  PHE694  ASN695  SER759  ASP760  ASP761  ALA762  ILE779  LEU786  VAL792 
 PHE793  MET794  SER795  GLU796  ALA797  LYS798  CYS799  TRP800  GLU811  SER814 

> <Gold.Protein.RotatedAtoms>
  151.0127  134.9409  159.8015 H   0  0  0  0  0  0  0  0  0  0  0  0  # atno 6907 bound_to 6896
  152.5306  134.3006  159.9087 H   0  0  0  0  0  0  0  0  0  0  0  0  # atno 6908 bound_to 6896
  151.3013  133.4079  159.2674 H   0  0  0  0  0  0  0  0  0  0  0  0  # atno 6909 bound_to 6896
  145.1450  139.3245  143.4596 H   0  0  0  0  0  0  0  0  0  0  0  0  # atno 7974 bound_to 7965
  156.1688  140.1634  156.8484 H   0  0  0  0  0  0  0  0  0  0  0  0  # atno 8008 bound_to 7997
  154.5235  140.0773  156.8250 H   0  0  0  0  0  0  0  0  0  0  0  0  # atno 8009 bound_to 7997
  155.3556  140.3392  155.4242 H   0  0  0  0  0  0  0  0  0  0  0  0  # atno 8010 bound_to 7997
  139.5257  144.2787  152.0565 H   0  0  0  0  0  0  0  0  0  0  0  0  # atno 10167 bound_to 10162
  157.2043  131.0683  151.2007 H   0  0  0  0  0  0  0  0  0  0  0  0  # atno 10718 bound_to 10713
  153.5334  135.3573  155.2686 H   0  0  0  0  0  0  0  0  0  0  0  0  # atno 10763 bound_to 10752
  154.8724  135.4074  154.3126 H   0  0  0  0  0  0  0  0  0  0  0  0  # atno 10764 bound_to 10752
  153.3819  135.7068  153.6627 H   0  0  0  0  0  0  0  0  0  0  0  0  # atno 10765 bound_to 10752
  139.8773  134.9038  156.4423 H   0  0  0  0  0  0  0  0  0  0  0  0  # atno 11005 bound_to 11000
  146.3501  140.1502  142.8592 LP  0  0  0  0  0  0  0  0  0  0  0  0  # atno 17320 bound_to 7965
  145.0491  140.9004  143.5006 LP  0  0  0  0  0  0  0  0  0  0  0  0  # atno 17321 bound_to 7965
  140.2243  144.4434  150.6328 LP  0  0  0  0  0  0  0  0  0  0  0  0  # atno 17342 bound_to 10162
  140.6398  143.2201  151.6316 LP  0  0  0  0  0  0  0  0  0  0  0  0  # atno 17343 bound_to 10162
  157.3736  130.7194  149.6581 LP  0  0  0  0  0  0  0  0  0  0  0  0  # atno 17370 bound_to 10713
  155.9697  130.4192  150.4364 LP  0  0  0  0  0  0  0  0  0  0  0  0  # atno 17371 bound_to 10713
  140.8991  133.7793  155.9659 LP  0  0  0  0  0  0  0  0  0  0  0  0  # atno 17394 bound_to 11000
  140.8671  134.2771  157.5208 LP  0  0  0  0  0  0  0  0  0  0  0  0  # atno 17395 bound_to 11000

$$$$
