AV-unprocessed.smi:413|AV-procd|sdf|2512|dock1
  -GOLD-   2262022463D 1   1.00000     0.00000
 Structure written by MMmdl.
 40 42  0  0  0  0  0  0  0  0  1 V2000
  153.2088  140.3051  159.9677 C   0  0  0  0  0  0  0  0  0  0  0  0
  152.5632  141.1798  158.9965 N   0  0  0  0  0  0  0  0  0  0  0  0
  152.0132  140.8199  157.8134 C   0  0  0  0  0  0  0  0  0  0  0  0
  151.9604  139.6785  157.3555 O   0  0  0  0  0  0  0  0  0  0  0  0
  151.5314  141.9369  157.2175 N   0  0  0  0  0  0  0  0  0  0  0  0
  150.8441  142.0070  155.9290 C   0  0  0  0  0  0  0  0  0  0  0  0
  150.0921  140.6997  155.6052 C   0  0  2  0  0  0  0  0  0  0  0  0
  151.0057  139.7826  155.0377 O   0  0  0  0  0  0  0  0  0  0  0  0
  148.9667  140.9177  154.5823 C   0  0  0  0  0  0  0  0  0  0  0  0
  147.7523  141.1579  155.2813 O   0  0  0  0  0  0  0  0  0  0  0  0
  146.9744  142.2268  154.8932 C   0  0  0  0  0  0  0  0  0  0  0  0
  146.1793  142.8325  155.8880 C   0  0  0  0  0  0  0  0  0  0  0  0
  145.3545  143.9319  155.5817 C   0  0  0  0  0  0  0  0  0  0  0  0
  145.3147  144.4366  154.2689 C   0  0  0  0  0  0  0  0  0  0  0  0
  144.5214  145.4930  153.9721 F   0  0  0  0  0  0  0  0  0  0  0  0
  146.1010  143.8405  153.2654 C   0  0  0  0  0  0  0  0  0  0  0  0
  146.9273  142.7417  153.5726 C   0  0  0  0  0  0  0  0  0  0  0  0
  151.7824  143.0425  158.0435 C   0  0  0  0  0  0  0  0  0  0  0  0
  151.4907  144.4082  157.8808 C   0  0  0  0  0  0  0  0  0  0  0  0
  151.8846  145.2820  158.9214 C   0  0  0  0  0  0  0  0  0  0  0  0
  152.5470  144.7876  160.0751 C   0  0  0  0  0  0  0  0  0  0  0  0
  152.8324  143.4088  160.2115 C   0  0  0  0  0  0  0  0  0  0  0  0
  152.4299  142.5639  159.1631 C   0  0  0  0  0  0  0  0  0  0  0  0
  153.1402  139.2544  159.6835 H   0  0  0  0  0  0  0  0  0  0  0  0
  152.7422  140.4187  160.9465 H   0  0  0  0  0  0  0  0  0  0  0  0
  154.2643  140.5618  160.0600 H   0  0  0  0  0  0  0  0  0  0  0  0
  150.1354  142.8346  155.9858 H   0  0  0  0  0  0  0  0  0  0  0  0
  151.5331  142.2718  155.1264 H   0  0  0  0  0  0  0  0  0  0  0  0
  149.6678  140.2584  156.5079 H   0  0  0  0  0  0  0  0  0  0  0  0
  151.7672  139.7351  155.5951 H   0  0  0  0  0  0  0  0  0  0  0  0
  149.2112  141.7590  153.9312 H   0  0  0  0  0  0  0  0  0  0  0  0
  148.8560  140.0276  153.9604 H   0  0  0  0  0  0  0  0  0  0  0  0
  146.2041  142.4511  156.8984 H   0  0  0  0  0  0  0  0  0  0  0  0
  144.7528  144.3873  156.3543 H   0  0  0  0  0  0  0  0  0  0  0  0
  146.0706  144.2263  152.2571 H   0  0  0  0  0  0  0  0  0  0  0  0
  147.5138  142.3093  152.7762 H   0  0  0  0  0  0  0  0  0  0  0  0
  150.9882  144.7819  157.0010 H   0  0  0  0  0  0  0  0  0  0  0  0
  151.6781  146.3386  158.8367 H   0  0  0  0  0  0  0  0  0  0  0  0
  152.8374  145.4723  160.8584 H   0  0  0  0  0  0  0  0  0  0  0  0
  153.3373  143.0246  161.0856 H   0  0  0  0  0  0  0  0  0  0  0  0
  1  2  1  0  0  0  0
  1 24  1  0  0  0  0
  1 25  1  0  0  0  0
  1 26  1  0  0  0  0
  2 23  1  0  0  0  0
  2  3  1  0  0  0  0
  3  4  2  0  0  0  0
  3  5  1  0  0  0  0
  5  6  1  0  0  0  0
  5 18  1  0  0  0  0
  6  7  1  0  0  0  0
  6 27  1  0  0  0  0
  6 28  1  0  0  0  0
  7  8  1  0  0  0  0
  7  9  1  0  0  0  0
  7 29  1  0  0  0  0
  8 30  1  0  0  0  0
  9 10  1  0  0  0  0
  9 31  1  0  0  0  0
  9 32  1  0  0  0  0
 10 11  1  0  0  0  0
 11 17  1  0  0  0  0
 11 12  2  0  0  0  0
 12 13  1  0  0  0  0
 12 33  1  0  0  0  0
 13 14  2  0  0  0  0
 13 34  1  0  0  0  0
 14 15  1  0  0  0  0
 14 16  1  0  0  0  0
 16 17  2  0  0  0  0
 16 35  1  0  0  0  0
 17 36  1  0  0  0  0
 18 23  2  0  0  0  0
 18 19  1  0  0  0  0
 19 20  2  0  0  0  0
 19 37  1  0  0  0  0
 20 21  1  0  0  0  0
 20 38  1  0  0  0  0
 21 22  2  0  0  0  0
 21 39  1  0  0  0  0
 22 23  1  0  0  0  0
 22 40  1  0  0  0  0
M  END
> <s_m_source_file>
AV-unprocessed.smi

> <i_m_source_file_index>
413

> <i_lp_mmshare_version>
43012

> <i_f3d_flags>
0

> <s_epik_input>
W2NIXTFbY0hdW2NIXVtjSF1jKGMxMiluKFtDSDNdKWMoPU8pbjJbQ0gyXVtDQEhdKFtPSF0pW0NIMl1PYzNbY0hdW2NIXWMoRilbY0hdW2NIXTM=

> <s_epik_cmdline>
J2VwaWtfcHl0aG9uJywgJy1waCcsICc3LjAnLCAnLXRuJywgJzgnLCAnLW1hJywgJzIwMCcsICctbWV0YWxfYmluZGluZycsICctaW1hZScsICc8aW5maWxlLm1hZT4nLCAnLW9tYWUnLCAnPG91dGZpbGUubWFlPic=

> <r_lp_tautomer_probability>
1

> <r_epik_Ionization_Penalty>
2.40172e-06

> <r_epik_Ionization_Penalty_Charging>
2.42369e-09

> <r_epik_Ionization_Penalty_Neutral>
2.3993e-06

> <r_epik_State_Penalty>
-0

> <r_epik_Charging_Adjusted_Penalty>
2.42369e-09

> <i_epik_Tot_Q>
0

> <i_epik_Tot_abs_Q>
0

> <r_epik_Metal_State_Penalty>
-0

> <b_epik_Metal_Only>
0

> <s_lp_Force_Field>
OPLS_2005

> <r_lp_Energy>
46.1897

> <b_lp_Chiralities_Consistent>
1

> <s_lp_Variant>
AV-unprocessed.smi:413-1

> <Gold.Version>
5.8.1

> <Gold.Id.Protein>
6NUR|6NUR_protein|mol2

> <Gold.PLP.Fitness>
53.1911

> <Gold.PLP.PLP>
-53.5741

> <Gold.PLP.part.hbond>
-1.0000

> <Gold.PLP.part.metal>
0.0000

> <Gold.PLP.part.buried>
-9.2760

> <Gold.PLP.part.nonpolar>
-43.7517

> <Gold.PLP.part.repulsive>
0.0635

> <Gold.PLP.ligand.clash>
0.0000

> <Gold.PLP.ligand.torsion>
1.7518

> <Gold.PLP.Chemscore.Hbond>
1.0000

> <Gold.PLP.Chemscore.CHOScore>
0.0000

> <Gold.PLP.Chemscore.Metal>
0.0000

> <Gold.Chemscore.Hbonds>
donor molecule, donor type, donor heavy atom, donor atom, acceptor molecule, acceptor atom, score
      P1  H  7989  7998       L1     8  0.95

> <Gold.PLP.Chemscore.Internal.Correction>
0.1206

> <Gold.Rescore>
     Score         DG    S(hbond)    S(metal)    S(lipo)     H(rot)  DE(clash)    DE(int)     intcor
     16.44     -19.59       1.58        0.00     125.03       2.27       0.06       3.09       ----

> <Gold.Chemscore.Fitness>
16.4352

> <Gold.Chemscore.DG>
-19.5874

> <Gold.Chemscore.ZeroCoef>
-5.4800

> <Gold.Chemscore.Hbond>
1.5843

> <Gold.Chemscore.Metal>
0.0000

> <Gold.Chemscore.Lipo>
125.0297

> <Gold.Chemscore.Internal_Hbond>
0.0000

> <Gold.Chemscore.DEClash>
0.0573

> <Gold.Chemscore.DEInternal>
3.0948

> <Gold.Chemscore.Rot>
2.2706

> <Gold.Chemscore.Internal.Correction>
   9.000000E+99

> <Gold.Chemscore.Hbonds>
donor molecule, donor type, donor heavy atom, donor atom, acceptor molecule, acceptor atom, score
      P1  H  7989  7998       L1     8  0.08

> <Gold.Chemscore.Hbond.Weighted>
-5.2917

> <Gold.Chemscore.Metal.Weighted>
-0.0000

> <Gold.Chemscore.Lipo.Weighted>
-14.6285

> <Gold.Chemscore.Internal_Hbond.Weighted>
0.0000

> <Gold.Chemscore.DEClash.Weighted>
0.0573

> <Gold.Chemscore.DEInternal.Weighted>
3.0948

> <Gold.Chemscore.Rot.Weighted>
5.8128

> <Gold.Chemscore.Internal.Correction.Weighted>
   9.000000E+99

> <Gold.Protein.RotatedTorsions>
[ 6907 6896 6895 6894 ] final   31.49 input  -60.11 | X-H torsion
[ 7974 7965 7964 7962 ] final  -12.78 input  175.53 | X-H torsion
[ 8008 7997 7996 7995 ] final  167.03 input   59.86 | X-H torsion
[ 10167 10162 10161 10158 ] final  129.36 input  -65.29 | X-H torsion
[ 10718 10713 10712 10709 ] final   74.75 input   66.30 | X-H torsion
[ 10763 10752 10751 10750 ] final  112.35 input  -60.55 | X-H torsion
[ 11005 11000 10999 10996 ] final  -43.36 input  -57.11 | X-H torsion

> <Gold.Protein.ActiveResidues>
 VAL166  LYS551  ARG553  GLY616  TRP617  ASP618  TYR619  PRO620  LYS621  CYS622 
 ASP623  PHE694  ASN695  SER759  ASP760  ASP761  ALA762  ILE779  LEU786  VAL792 
 PHE793  MET794  SER795  GLU796  ALA797  LYS798  CYS799  TRP800  GLU811  SER814 

> <Gold.Protein.RotatedAtoms>
  152.0611  134.9594  160.0574 H   0  0  0  0  0  0  0  0  0  0  0  0  # atno 6907 bound_to 6896
  152.0957  133.4218  159.4572 H   0  0  0  0  0  0  0  0  0  0  0  0  # atno 6908 bound_to 6896
  150.6838  134.2739  159.4643 H   0  0  0  0  0  0  0  0  0  0  0  0  # atno 6909 bound_to 6896
  146.2139  140.3108  142.8382 H   0  0  0  0  0  0  0  0  0  0  0  0  # atno 7974 bound_to 7965
  156.1669  140.1628  156.8516 H   0  0  0  0  0  0  0  0  0  0  0  0  # atno 8008 bound_to 7997
  154.5216  140.0777  156.8217 H   0  0  0  0  0  0  0  0  0  0  0  0  # atno 8009 bound_to 7997
  155.3594  140.3394  155.4243 H   0  0  0  0  0  0  0  0  0  0  0  0  # atno 8010 bound_to 7997
  139.5481  144.6791  151.4408 H   0  0  0  0  0  0  0  0  0  0  0  0  # atno 10167 bound_to 10162
  157.6605  130.9693  150.1255 H   0  0  0  0  0  0  0  0  0  0  0  0  # atno 10718 bound_to 10713
  153.4766  135.3689  155.2420 H   0  0  0  0  0  0  0  0  0  0  0  0  # atno 10763 bound_to 10752
  154.8756  135.3944  154.3749 H   0  0  0  0  0  0  0  0  0  0  0  0  # atno 10764 bound_to 10752
  153.4346  135.7083  153.6273 H   0  0  0  0  0  0  0  0  0  0  0  0  # atno 10765 bound_to 10752
  141.0378  133.6792  156.2722 H   0  0  0  0  0  0  0  0  0  0  0  0  # atno 11005 bound_to 11000
  144.8990  140.7618  143.5879 LP  0  0  0  0  0  0  0  0  0  0  0  0  # atno 17320 bound_to 7965
  145.3033  139.1843  143.4678 LP  0  0  0  0  0  0  0  0  0  0  0  0  # atno 17321 bound_to 7965
  140.6736  143.8240  150.7030 LP  0  0  0  0  0  0  0  0  0  0  0  0  # atno 17342 bound_to 10162
  140.1671  143.4226  152.2027 LP  0  0  0  0  0  0  0  0  0  0  0  0  # atno 17343 bound_to 10162
  156.2115  130.3667  149.8664 LP  0  0  0  0  0  0  0  0  0  0  0  0  # atno 17370 bound_to 10713
  156.6542  130.8756  151.3536 LP  0  0  0  0  0  0  0  0  0  0  0  0  # atno 17371 bound_to 10713
  140.6289  134.5284  157.5557 LP  0  0  0  0  0  0  0  0  0  0  0  0  # atno 17394 bound_to 11000
  139.9253  134.8067  156.1086 LP  0  0  0  0  0  0  0  0  0  0  0  0  # atno 17395 bound_to 11000

$$$$
