AV-unprocessed.smi:1321|AV-procd|sdf|5462|dock7
  -GOLD-   22720 5 33D 1   1.00000     0.00000
 Structure written by MMmdl.
 43 44  0  0  0  0  0  0  0  0  1 V2000
  144.8538  144.4399  161.3276 C   0  0  0  0  0  0  0  0  0  0  0  0
  145.8396  144.8540  160.2094 C   0  0  0  0  0  0  0  0  0  0  0  0
  145.0275  145.3502  158.9943 C   0  0  0  0  0  0  0  0  0  0  0  0
  146.7341  146.0014  160.7201 C   0  0  0  0  0  0  0  0  0  0  0  0
  146.7532  143.6867  159.7647 C   0  0  0  0  0  0  0  0  0  0  0  0
  146.6254  142.5810  160.2921 O   0  0  0  0  0  0  0  0  0  0  0  0
  147.6527  143.9217  158.7941 N   0  0  0  0  0  0  0  0  0  0  0  0
  148.5241  142.9313  158.1714 C   0  0  0  0  0  0  0  0  0  0  0  0
  149.9942  143.2150  158.4514 C   0  0  0  0  0  0  0  0  0  0  0  0
  150.3384  144.2714  159.3216 C   0  0  0  0  0  0  0  0  0  0  0  0
  151.6957  144.5563  159.5559 C   0  0  0  0  0  0  0  0  0  0  0  0
  152.6630  143.7698  158.9048 C   0  0  0  0  0  0  0  0  0  0  0  0
  152.3511  142.7575  158.0696 N   0  0  0  0  0  0  0  0  0  0  0  0
  151.0444  142.4792  157.8400 C   0  0  0  0  0  0  0  0  0  0  0  0
  150.7560  141.4067  156.9786 N   0  0  0  0  0  0  0  0  0  0  0  0
  150.0645  141.7456  155.7395 C   0  0  0  0  0  0  0  0  0  0  0  0
  149.6664  140.4603  154.9943 C   0  0  0  0  0  0  0  0  0  0  0  0
  150.8252  139.6623  154.7681 O   0  0  0  0  0  0  0  0  0  0  0  0
  151.4540  139.2726  155.9860 C   0  0  0  0  0  0  0  0  0  0  0  0
  151.8951  140.5237  156.7659 C   0  0  0  0  0  0  0  0  0  0  0  0
  144.1973  145.2678  161.5974 H   0  0  0  0  0  0  0  0  0  0  0  0
  145.3736  144.1376  162.2380 H   0  0  0  0  0  0  0  0  0  0  0  0
  144.2145  143.6127  161.0153 H   0  0  0  0  0  0  0  0  0  0  0  0
  144.4129  144.5537  158.5729 H   0  0  0  0  0  0  0  0  0  0  0  0
  145.6727  145.7255  158.1986 H   0  0  0  0  0  0  0  0  0  0  0  0
  144.3585  146.1647  159.2734 H   0  0  0  0  0  0  0  0  0  0  0  0
  146.1360  146.8566  161.0364 H   0  0  0  0  0  0  0  0  0  0  0  0
  147.4207  146.3545  159.9495 H   0  0  0  0  0  0  0  0  0  0  0  0
  147.3342  145.6882  161.5759 H   0  0  0  0  0  0  0  0  0  0  0  0
  147.6998  144.8587  158.4215 H   0  0  0  0  0  0  0  0  0  0  0  0
  148.2607  141.9541  158.5771 H   0  0  0  0  0  0  0  0  0  0  0  0
  148.3554  142.8558  157.0968 H   0  0  0  0  0  0  0  0  0  0  0  0
  149.5724  144.8633  159.8008 H   0  0  0  0  0  0  0  0  0  0  0  0
  151.9880  145.3595  160.2156 H   0  0  0  0  0  0  0  0  0  0  0  0
  153.7153  143.9583  159.0581 H   0  0  0  0  0  0  0  0  0  0  0  0
  149.1784  142.3411  155.9623 H   0  0  0  0  0  0  0  0  0  0  0  0
  150.7134  142.3503  155.1046 H   0  0  0  0  0  0  0  0  0  0  0  0
  148.9266  139.8933  155.5609 H   0  0  0  0  0  0  0  0  0  0  0  0
  149.2117  140.7075  154.0351 H   0  0  0  0  0  0  0  0  0  0  0  0
  150.7724  138.6624  156.5804 H   0  0  0  0  0  0  0  0  0  0  0  0
  152.3181  138.6492  155.7562 H   0  0  0  0  0  0  0  0  0  0  0  0
  152.6659  141.0581  156.2086 H   0  0  0  0  0  0  0  0  0  0  0  0
  152.3341  140.2331  157.7208 H   0  0  0  0  0  0  0  0  0  0  0  0
  1  2  1  0  0  0  0
  1 21  1  0  0  0  0
  1 22  1  0  0  0  0
  1 23  1  0  0  0  0
  2  3  1  0  0  0  0
  2  4  1  0  0  0  0
  2  5  1  0  0  0  0
  3 24  1  0  0  0  0
  3 25  1  0  0  0  0
  3 26  1  0  0  0  0
  4 27  1  0  0  0  0
  4 28  1  0  0  0  0
  4 29  1  0  0  0  0
  5  6  2  0  0  0  0
  5  7  1  0  0  0  0
  7  8  1  0  0  0  0
  7 30  1  0  0  0  0
  8  9  1  0  0  0  0
  8 31  1  0  0  0  0
  8 32  1  0  0  0  0
  9 14  1  0  0  0  0
  9 10  2  0  0  0  0
 10 11  1  0  0  0  0
 10 33  1  0  0  0  0
 11 12  2  0  0  0  0
 11 34  1  0  0  0  0
 12 13  1  0  0  0  0
 12 35  1  0  0  0  0
 13 14  2  0  0  0  0
 14 15  1  0  0  0  0
 15 20  1  0  0  0  0
 15 16  1  0  0  0  0
 16 17  1  0  0  0  0
 16 36  1  0  0  0  0
 16 37  1  0  0  0  0
 17 18  1  0  0  0  0
 17 38  1  0  0  0  0
 17 39  1  0  0  0  0
 18 19  1  0  0  0  0
 19 20  1  0  0  0  0
 19 40  1  0  0  0  0
 19 41  1  0  0  0  0
 20 42  1  0  0  0  0
 20 43  1  0  0  0  0
M  END
> <s_m_source_file>
AV-unprocessed.smi

> <i_m_source_file_index>
1321

> <i_lp_mmshare_version>
43012

> <i_f3d_flags>
0

> <s_epik_input>
W0NIM11DKFtDSDNdKShbQ0gzXSlDKD1PKVtOSF1bQ0gyXWMxW2NIXVtjSF1bY0hdbmMxTjJbQ0gyXVtDSDJdT1tDSDJdW0NIMl0y

> <s_epik_cmdline>
J2VwaWtfcHl0aG9uJywgJy1waCcsICc3LjAnLCAnLXRuJywgJzgnLCAnLW1hJywgJzIwMCcsICctbWV0YWxfYmluZGluZycsICctaW1hZScsICc8aW5maWxlLm1hZT4nLCAnLW9tYWUnLCAnPG91dGZpbGUubWFlPic=

> <r_lp_tautomer_probability>
1

> <r_epik_Ionization_Penalty>
0.0052234

> <r_epik_Ionization_Penalty_Charging>
0

> <r_epik_Ionization_Penalty_Neutral>
0.0052234

> <r_epik_State_Penalty>
0.0038086

> <r_epik_Charging_Adjusted_Penalty>
0.0038086

> <i_epik_Tot_Q>
0

> <i_epik_Tot_abs_Q>
0

> <r_epik_Metal_State_Penalty>
-0

> <b_epik_Metal_Only>
0

> <s_lp_Force_Field>
OPLS_2005

> <r_lp_Energy>
23.2048

> <b_lp_Chiralities_Consistent>
1

> <s_lp_Variant>
AV-unprocessed.smi:1321-1

> <Gold.Version>
5.8.1

> <Gold.Id.Protein>
6NUR|6NUR_protein|mol2

> <Gold.PLP.Fitness>
44.7166

> <Gold.PLP.PLP>
-34.1685

> <Gold.PLP.part.hbond>
-3.9041

> <Gold.PLP.part.metal>
0.0000

> <Gold.PLP.part.buried>
-0.9076

> <Gold.PLP.part.nonpolar>
-29.6093

> <Gold.PLP.part.repulsive>
0.2390

> <Gold.PLP.ligand.clash>
0.0000

> <Gold.PLP.ligand.torsion>
0.2915

> <Gold.PLP.Chemscore.Hbond>
3.6503

> <Gold.PLP.Chemscore.CHOScore>
0.0000

> <Gold.PLP.Chemscore.Metal>
0.0000

> <Gold.Chemscore.Hbonds>
donor molecule, donor type, donor heavy atom, donor atom, acceptor molecule, acceptor atom, score
      L1  H     7    30       P1  8029  1.00
      P1  H  6933  6944       L1     6  0.43
      P1  H  6934  6946       L1     6  1.00
      P1  H  7989  7998       L1    18  0.80

> <Gold.PLP.Chemscore.Internal.Correction>
0.1802

> <Gold.Rescore>
     Score         DG    S(hbond)    S(metal)    S(lipo)     H(rot)  DE(clash)    DE(int)     intcor
     19.76     -21.49       2.85        0.00      88.53       1.52       1.29       0.43       ----

> <Gold.Chemscore.Fitness>
19.7640

> <Gold.Chemscore.DG>
-21.4871

> <Gold.Chemscore.ZeroCoef>
-5.4800

> <Gold.Chemscore.Hbond>
2.8541

> <Gold.Chemscore.Metal>
0.0000

> <Gold.Chemscore.Lipo>
88.5346

> <Gold.Chemscore.Internal_Hbond>
0.0000

> <Gold.Chemscore.DEClash>
1.2907

> <Gold.Chemscore.DEInternal>
0.4324

> <Gold.Chemscore.Rot>
1.5173

> <Gold.Chemscore.Internal.Correction>
   9.000000E+99

> <Gold.Chemscore.Hbonds>
donor molecule, donor type, donor heavy atom, donor atom, acceptor molecule, acceptor atom, score
      L1  H     7    30       P1  8029  0.95
      P1  H  6933  6944       L1     6  0.19
      P1  H  6934  6946       L1     6  0.98
      P1  H  7989  7998       L1    18  0.12

> <Gold.Chemscore.Hbond.Weighted>
-9.5328

> <Gold.Chemscore.Metal.Weighted>
-0.0000

> <Gold.Chemscore.Lipo.Weighted>
-10.3585

> <Gold.Chemscore.Internal_Hbond.Weighted>
0.0000

> <Gold.Chemscore.DEClash.Weighted>
1.2907

> <Gold.Chemscore.DEInternal.Weighted>
0.4324

> <Gold.Chemscore.Rot.Weighted>
3.8843

> <Gold.Chemscore.Internal.Correction.Weighted>
   9.000000E+99

> <Gold.Protein.RotatedTorsions>
[ 6907 6896 6895 6894 ] final   95.80 input  -60.11 | X-H torsion
[ 7974 7965 7964 7962 ] final   24.57 input  175.53 | X-H torsion
[ 8008 7997 7996 7995 ] final   81.04 input   59.86 | X-H torsion
[ 10167 10162 10161 10158 ] final  104.00 input  -65.29 | X-H torsion
[ 10718 10713 10712 10709 ] final  135.78 input   66.30 | X-H torsion
[ 10763 10752 10751 10750 ] final   90.00 input  -60.55 | X-H torsion
[ 11005 11000 10999 10996 ] final   16.97 input  -57.11 | X-H torsion

> <Gold.Protein.ActiveResidues>
 VAL166  LYS551  ARG553  GLY616  TRP617  ASP618  TYR619  PRO620  LYS621  CYS622 
 ASP623  PHE694  ASN695  SER759  ASP760  ASP761  ALA762  ILE779  LEU786  VAL792 
 PHE793  MET794  SER795  GLU796  ALA797  LYS798  CYS799  TRP800  GLU811  SER814 

> <Gold.Protein.RotatedAtoms>
  152.5440  134.0983  159.8306 H   0  0  0  0  0  0  0  0  0  0  0  0  # atno 6907 bound_to 6896
  151.1064  133.5198  159.2615 H   0  0  0  0  0  0  0  0  0  0  0  0  # atno 6908 bound_to 6896
  151.1933  135.0421  159.8896 H   0  0  0  0  0  0  0  0  0  0  0  0  # atno 6909 bound_to 6896
  146.1931  139.7586  142.8817 H   0  0  0  0  0  0  0  0  0  0  0  0  # atno 7974 bound_to 7965
  155.8917  140.3438  155.5961 H   0  0  0  0  0  0  0  0  0  0  0  0  # atno 8008 bound_to 7997
  155.7603  140.0831  157.2178 H   0  0  0  0  0  0  0  0  0  0  0  0  # atno 8009 bound_to 7997
  154.4034  140.1537  156.2812 H   0  0  0  0  0  0  0  0  0  0  0  0  # atno 8010 bound_to 7997
  139.7215  144.7057  151.0865 H   0  0  0  0  0  0  0  0  0  0  0  0  # atno 10167 bound_to 10162
  157.4535  131.1068  151.0005 H   0  0  0  0  0  0  0  0  0  0  0  0  # atno 10718 bound_to 10713
  153.1929  135.4450  155.0172 H   0  0  0  0  0  0  0  0  0  0  0  0  # atno 10763 bound_to 10752
  154.8101  135.3291  154.7329 H   0  0  0  0  0  0  0  0  0  0  0  0  # atno 10764 bound_to 10752
  153.7781  135.6979  153.4949 H   0  0  0  0  0  0  0  0  0  0  0  0  # atno 10765 bound_to 10752
  140.4411  134.1320  155.7690 H   0  0  0  0  0  0  0  0  0  0  0  0  # atno 11005 bound_to 11000
  145.3730  141.0346  143.3220 LP  0  0  0  0  0  0  0  0  0  0  0  0  # atno 17320 bound_to 7965
  144.8526  139.5299  143.6849 LP  0  0  0  0  0  0  0  0  0  0  0  0  # atno 17321 bound_to 7965
  140.7754  143.5160  150.9594 LP  0  0  0  0  0  0  0  0  0  0  0  0  # atno 17342 bound_to 10162
  139.8847  143.7027  152.3153 LP  0  0  0  0  0  0  0  0  0  0  0  0  # atno 17343 bound_to 10162
  157.0826  130.5909  149.5423 LP  0  0  0  0  0  0  0  0  0  0  0  0  # atno 17370 bound_to 10713
  155.9997  130.5074  150.7617 LP  0  0  0  0  0  0  0  0  0  0  0  0  # atno 17371 bound_to 10713
  141.1705  133.8618  157.1585 LP  0  0  0  0  0  0  0  0  0  0  0  0  # atno 17394 bound_to 11000
  140.0069  135.0005  157.0311 LP  0  0  0  0  0  0  0  0  0  0  0  0  # atno 17395 bound_to 11000

$$$$
