AV-unprocessed.smi:3250|AV-procd|sdf|12426|dock1
  -GOLD-   2272018313D 1   1.00000     0.00000
 Structure written by MMmdl.
 39 40  0  0  0  0  0  0  0  0  2 V2000
  144.0726  132.9358  149.4816 C   0  0  0  0  0  0  0  0  0  0  0  0
  144.1894  134.2995  150.1771 C   0  0  0  0  0  0  0  0  0  0  0  0
  145.6028  134.7253  150.3593 N   0  3  2  0  0  0  0  0  0  0  0  0
  146.4530  133.6952  151.0042 C   0  0  0  0  0  0  0  0  0  0  0  0
  146.2189  133.6538  152.5247 C   0  0  0  0  0  0  0  0  0  0  0  0
  146.4595  134.9433  153.0736 O   0  0  0  0  0  0  0  0  0  0  0  0
  145.5704  135.9311  152.5608 C   0  0  1  0  0  0  0  0  0  0  0  0
  145.8769  137.2600  153.2645 C   0  0  0  0  0  0  0  0  0  0  0  0
  147.2697  137.6478  153.0993 N   0  0  0  0  0  0  0  0  0  0  0  0
  147.7828  138.8713  153.4854 C   0  0  0  0  0  0  0  0  0  0  0  0
  146.9561  139.9101  153.3489 N   0  0  0  0  0  0  0  0  0  0  0  0
  147.4270  141.1209  153.7190 C   0  0  0  0  0  0  0  0  0  0  0  0
  148.7311  141.2870  154.2263 C   0  0  0  0  0  0  0  0  0  0  0  0
  149.5195  140.1231  154.3281 C   0  0  0  0  0  0  0  0  0  0  0  0
  150.8057  140.2159  154.8175 O   0  0  0  0  0  0  0  0  0  0  0  0
  151.5307  139.0101  155.0311 C   0  0  0  0  0  0  0  0  0  0  0  0
  149.0356  138.9122  153.9532 N   0  0  0  0  0  0  0  0  0  0  0  0
  145.7785  136.0378  151.0337 C   0  0  0  0  0  0  0  0  0  0  0  0
  143.0328  132.6093  149.4538 H   0  0  0  0  0  0  0  0  0  0  0  0
  144.6433  132.1724  150.0112 H   0  0  0  0  0  0  0  0  0  0  0  0
  144.4268  132.9685  148.4516 H   0  0  0  0  0  0  0  0  0  0  0  0
  143.6197  135.0536  149.6345 H   0  0  0  0  0  0  0  0  0  0  0  0
  143.7184  134.2092  151.1567 H   0  0  0  0  0  0  0  0  0  0  0  0
  146.2816  132.7154  150.5571 H   0  0  0  0  0  0  0  0  0  0  0  0
  147.4974  133.9415  150.8085 H   0  0  0  0  0  0  0  0  0  0  0  0
  145.2074  133.3221  152.7634 H   0  0  0  0  0  0  0  0  0  0  0  0
  146.9026  132.9423  152.9882 H   0  0  0  0  0  0  0  0  0  0  0  0
  144.5394  135.6481  152.7781 H   0  0  0  0  0  0  0  0  0  0  0  0
  145.2284  138.0500  152.8837 H   0  0  0  0  0  0  0  0  0  0  0  0
  145.6743  137.1649  154.3319 H   0  0  0  0  0  0  0  0  0  0  0  0
  147.8929  137.0169  152.6166 H   0  0  0  0  0  0  0  0  0  0  0  0
  146.7594  141.9627  153.6098 H   0  0  0  0  0  0  0  0  0  0  0  0
  149.1061  142.2557  154.5217 H   0  0  0  0  0  0  0  0  0  0  0  0
  152.5209  139.2484  155.4187 H   0  0  0  0  0  0  0  0  0  0  0  0
  151.6639  138.4550  154.1016 H   0  0  0  0  0  0  0  0  0  0  0  0
  151.0343  138.3702  155.7621 H   0  0  0  0  0  0  0  0  0  0  0  0
  146.7936  136.3836  150.8326 H   0  0  0  0  0  0  0  0  0  0  0  0
  145.1160  136.7892  150.6059 H   0  0  0  0  0  0  0  0  0  0  0  0
  145.9655  134.8327  149.4225 H   0  0  0  0  0  0  0  0  0  0  0  0
  1  2  1  0  0  0  0
  1 19  1  0  0  0  0
  1 20  1  0  0  0  0
  1 21  1  0  0  0  0
  2  3  1  0  0  0  0
  2 22  1  0  0  0  0
  2 23  1  0  0  0  0
  3 18  1  0  0  0  0
  3  4  1  0  0  0  0
  3 39  1  0  0  0  0
  4  5  1  0  0  0  0
  4 24  1  0  0  0  0
  4 25  1  0  0  0  0
  5  6  1  0  0  0  0
  5 26  1  0  0  0  0
  5 27  1  0  0  0  0
  6  7  1  0  0  0  0
  7  8  1  0  0  0  0
  7 18  1  0  0  0  0
  7 28  1  0  0  0  0
  8  9  1  0  0  0  0
  8 29  1  0  0  0  0
  8 30  1  0  0  0  0
  9 10  1  0  0  0  0
  9 31  1  0  0  0  0
 10 17  1  0  0  0  0
 10 11  2  0  0  0  0
 11 12  1  0  0  0  0
 12 13  2  0  0  0  0
 12 32  1  0  0  0  0
 13 14  1  0  0  0  0
 13 33  1  0  0  0  0
 14 15  1  0  0  0  0
 14 17  2  0  0  0  0
 15 16  1  0  0  0  0
 16 34  1  0  0  0  0
 16 35  1  0  0  0  0
 16 36  1  0  0  0  0
 18 37  1  0  0  0  0
 18 38  1  0  0  0  0
M  CHG  1   3   1
M  END
> <s_m_source_file>
AV-unprocessed.smi

> <i_m_source_file_index>
3250

> <i_lp_mmshare_version>
43012

> <i_f3d_flags>
0

> <s_epik_input>
W0NIM11bQ0gyXU4xW0NIMl1bQ0gyXU9bQ0BIXShbQ0gyXTEpW0NIMl1bTkhdYzJuW2NIXVtjSF1jKG4yKU9bQ0gzXQ==

> <s_epik_cmdline>
J2VwaWtfcHl0aG9uJywgJy1waCcsICc3LjAnLCAnLXRuJywgJzgnLCAnLW1hJywgJzIwMCcsICctbWV0YWxfYmluZGluZycsICctaW1hZScsICc8aW5maWxlLm1hZT4nLCAnLW9tYWUnLCAnPG91dGZpbGUubWFlPic=

> <r_lp_tautomer_probability>
1

> <r_epik_Ionization_Penalty>
0.19684

> <r_epik_Ionization_Penalty_Charging>
0.178504

> <r_epik_Ionization_Penalty_Neutral>
0.0183356

> <r_epik_State_Penalty>
0.162939

> <r_epik_Charging_Adjusted_Penalty>
0.341443

> <i_epik_Tot_Q>
1

> <i_epik_Tot_abs_Q>
1

> <r_epik_Metal_State_Penalty>
0.1608

> <b_epik_Metal_Only>
0

> <s_lp_Force_Field>
OPLS_2005

> <r_lp_Energy>
11.5983

> <b_lp_Chiralities_Consistent>
1

> <s_lp_Variant>
AV-unprocessed.smi:3250-2

> <Gold.Version>
5.8.1

> <Gold.Id.Protein>
6NUR|6NUR_protein|mol2

> <Gold.PLP.Fitness>
39.9742

> <Gold.PLP.PLP>
-31.6225

> <Gold.PLP.part.hbond>
-3.0000

> <Gold.PLP.part.metal>
0.0000

> <Gold.PLP.part.buried>
-4.8620

> <Gold.PLP.part.nonpolar>
-25.6112

> <Gold.PLP.part.repulsive>
1.2562

> <Gold.PLP.ligand.clash>
0.0000

> <Gold.PLP.ligand.torsion>
0.3378

> <Gold.PLP.Chemscore.Hbond>
3.0000

> <Gold.PLP.Chemscore.CHOScore>
0.0000

> <Gold.PLP.Chemscore.Metal>
0.0000

> <Gold.Chemscore.Hbonds>
donor molecule, donor type, donor heavy atom, donor atom, acceptor molecule, acceptor atom, score
      L1  H     3    39       P1  7921  1.00
      L1  H     9    31       P1  7948  0.96
      P1  H  7989  7998       L1    15  1.00

> <Gold.PLP.Chemscore.Internal.Correction>
0.0272

> <Gold.Rescore>
     Score         DG    S(hbond)    S(metal)    S(lipo)     H(rot)  DE(clash)    DE(int)     intcor
     15.05     -15.51       2.07        0.00      64.16       1.71       0.22       0.24       ----

> <Gold.Chemscore.Fitness>
15.0528

> <Gold.Chemscore.DG>
-15.5117

> <Gold.Chemscore.ZeroCoef>
-5.4800

> <Gold.Chemscore.Hbond>
2.0688

> <Gold.Chemscore.Metal>
0.0000

> <Gold.Chemscore.Lipo>
64.1593

> <Gold.Chemscore.Internal_Hbond>
0.0000

> <Gold.Chemscore.DEClash>
0.2167

> <Gold.Chemscore.DEInternal>
0.2423

> <Gold.Chemscore.Rot>
1.7127

> <Gold.Chemscore.Internal.Correction>
   9.000000E+99

> <Gold.Chemscore.Hbonds>
donor molecule, donor type, donor heavy atom, donor atom, acceptor molecule, acceptor atom, score
      L1  H     3    39       P1  7921  0.78
      L1  H     9    31       P1  7948  0.91
      P1  H  7989  7998       L1    15  0.12

> <Gold.Chemscore.Hbond.Weighted>
-6.9096

> <Gold.Chemscore.Metal.Weighted>
-0.0000

> <Gold.Chemscore.Lipo.Weighted>
-7.5066

> <Gold.Chemscore.Internal_Hbond.Weighted>
0.0000

> <Gold.Chemscore.DEClash.Weighted>
0.2167

> <Gold.Chemscore.DEInternal.Weighted>
0.2423

> <Gold.Chemscore.Rot.Weighted>
4.3846

> <Gold.Chemscore.Internal.Correction.Weighted>
   9.000000E+99

> <Gold.Protein.RotatedTorsions>
[ 6907 6896 6895 6894 ] final -136.76 input  -60.11 | X-H torsion
[ 7974 7965 7964 7962 ] final  -85.43 input  175.53 | X-H torsion
[ 8008 7997 7996 7995 ] final   44.86 input   59.86 | X-H torsion
[ 10167 10162 10161 10158 ] final  138.98 input  -65.29 | X-H torsion
[ 10718 10713 10712 10709 ] final  -84.35 input   66.30 | X-H torsion
[ 10763 10752 10751 10750 ] final  129.85 input  -60.55 | X-H torsion
[ 11005 11000 10999 10996 ] final  172.84 input  -57.11 | X-H torsion

> <Gold.Protein.ActiveResidues>
 VAL166  LYS551  ARG553  GLY616  TRP617  ASP618  TYR619  PRO620  LYS621  CYS622 
 ASP623  PHE694  ASN695  SER759  ASP760  ASP761  ALA762  ILE779  LEU786  VAL792 
 PHE793  MET794  SER795  GLU796  ALA797  LYS798  CYS799  TRP800  GLU811  SER814 

> <Gold.Protein.RotatedAtoms>
  151.0140  133.5938  159.2678 H   0  0  0  0  0  0  0  0  0  0  0  0  # atno 6907 bound_to 6896
  151.3079  135.0785  159.9271 H   0  0  0  0  0  0  0  0  0  0  0  0  # atno 6908 bound_to 6896
  152.5307  133.9810  159.7861 H   0  0  0  0  0  0  0  0  0  0  0  0  # atno 6909 bound_to 6896
  145.4934  140.9551  143.1799 H   0  0  0  0  0  0  0  0  0  0  0  0  # atno 7974 bound_to 7965
  155.3263  140.3400  155.4240 H   0  0  0  0  0  0  0  0  0  0  0  0  # atno 8008 bound_to 7997
  156.1884  140.1689  156.8177 H   0  0  0  0  0  0  0  0  0  0  0  0  # atno 8009 bound_to 7997
  154.5413  140.0724  156.8498 H   0  0  0  0  0  0  0  0  0  0  0  0  # atno 8010 bound_to 7997
  139.5093  144.6321  151.5790 H   0  0  0  0  0  0  0  0  0  0  0  0  # atno 10167 bound_to 10162
  156.0007  130.4695  150.4397 H   0  0  0  0  0  0  0  0  0  0  0  0  # atno 10718 bound_to 10713
  153.7485  135.3213  155.3317 H   0  0  0  0  0  0  0  0  0  0  0  0  # atno 10763 bound_to 10752
  154.8271  135.4561  154.0955 H   0  0  0  0  0  0  0  0  0  0  0  0  # atno 10764 bound_to 10752
  153.2151  135.6941  153.8149 H   0  0  0  0  0  0  0  0  0  0  0  0  # atno 10765 bound_to 10752
  140.3341  134.7332  157.4155 H   0  0  0  0  0  0  0  0  0  0  0  0  # atno 11005 bound_to 11000
  144.7821  139.6504  143.7150 LP  0  0  0  0  0  0  0  0  0  0  0  0  # atno 17320 bound_to 7965
  146.2270  139.5741  142.9580 LP  0  0  0  0  0  0  0  0  0  0  0  0  # atno 17321 bound_to 7965
  140.6058  143.9527  150.6417 LP  0  0  0  0  0  0  0  0  0  0  0  0  # atno 17342 bound_to 10162
  140.2754  143.3427  152.1200 LP  0  0  0  0  0  0  0  0  0  0  0  0  # atno 17343 bound_to 10162
  157.2439  131.0531  151.2420 LP  0  0  0  0  0  0  0  0  0  0  0  0  # atno 17370 bound_to 10713
  157.3594  130.7123  149.6492 LP  0  0  0  0  0  0  0  0  0  0  0  0  # atno 17371 bound_to 10713
  140.0836  134.5697  155.8515 LP  0  0  0  0  0  0  0  0  0  0  0  0  # atno 17394 bound_to 11000
  141.2056  133.6648  156.6189 LP  0  0  0  0  0  0  0  0  0  0  0  0  # atno 17395 bound_to 11000

$$$$
