AV-unprocessed.smi:1703|AV-procd|sdf|6878|dock9
  -GOLD-   22720 8 83D 1   1.00000     0.00000
 Structure written by MMmdl.
 50 52  0  0  0  0  0  0  0  0  3 V2000
  143.7472  137.7891  154.4163 C   0  0  0  0  0  0  0  0  0  0  0  0
  143.6010  138.4394  155.8040 C   0  0  1  0  0  0  0  0  0  0  0  0
  144.6222  139.5638  156.0664 C   0  0  0  0  0  0  0  0  0  0  0  0
  144.2823  140.7815  155.2936 N   0  3  2  0  0  0  0  0  0  0  0  0
  145.2917  141.8598  155.4495 C   0  0  0  0  0  0  0  0  0  0  0  0
  146.7180  141.3067  155.6381 C   0  0  2  0  0  0  0  0  0  0  0  0
  147.3133  141.9464  156.7509 O   0  0  0  0  0  0  0  0  0  0  0  0
  147.5925  141.5312  154.3888 C   0  0  0  0  0  0  0  0  0  0  0  0
  148.4225  140.3597  154.0599 N   0  0  0  0  0  0  0  0  0  0  0  0
  148.1723  139.3229  153.2082 C   0  0  0  0  0  0  0  0  0  0  0  0
  146.9444  139.1278  152.3762 C   0  0  0  0  0  0  0  0  0  0  0  0
  147.0570  138.0602  151.4593 O   0  0  0  0  0  0  0  0  0  0  0  0
  149.2461  138.4844  153.2686 N   0  3  0  0  0  0  0  0  0  0  0  0
  150.1926  138.9889  154.1601 C   0  0  0  0  0  0  0  0  0  0  0  0
  151.4329  138.4909  154.5470 C   0  0  0  0  0  0  0  0  0  0  0  0
  152.1560  139.2539  155.4867 C   0  0  0  0  0  0  0  0  0  0  0  0
  151.6404  140.4594  156.0050 C   0  0  0  0  0  0  0  0  0  0  0  0
  150.3808  140.9537  155.6057 C   0  0  0  0  0  0  0  0  0  0  0  0
  149.6718  140.1947  154.6735 C   0  0  0  0  0  0  0  0  0  0  0  0
  142.8958  141.2111  155.5957 C   0  0  0  0  0  0  0  0  0  0  0  0
  141.9073  140.0699  155.2944 C   0  0  2  0  0  0  0  0  0  0  0  0
  140.4691  140.4382  155.6745 C   0  0  0  0  0  0  0  0  0  0  0  0
  142.2754  138.9136  156.0424 O   0  0  0  0  0  0  0  0  0  0  0  0
  144.7228  137.3131  154.3138 H   0  0  0  0  0  0  0  0  0  0  0  0
  143.6548  138.5130  153.6070 H   0  0  0  0  0  0  0  0  0  0  0  0
  142.9899  137.0198  154.2652 H   0  0  0  0  0  0  0  0  0  0  0  0
  143.7764  137.6535  156.5396 H   0  0  0  0  0  0  0  0  0  0  0  0
  144.6359  139.8096  157.1295 H   0  0  0  0  0  0  0  0  0  0  0  0
  145.6248  139.2204  155.8081 H   0  0  0  0  0  0  0  0  0  0  0  0
  145.2472  142.5227  154.5838 H   0  0  0  0  0  0  0  0  0  0  0  0
  145.0427  142.4753  156.3155 H   0  0  0  0  0  0  0  0  0  0  0  0
  146.6816  140.2377  155.8452 H   0  0  0  0  0  0  0  0  0  0  0  0
  146.9187  141.6105  157.5413 H   0  0  0  0  0  0  0  0  0  0  0  0
  146.9596  141.7319  153.5240 H   0  0  0  0  0  0  0  0  0  0  0  0
  148.2281  142.4094  154.5018 H   0  0  0  0  0  0  0  0  0  0  0  0
  146.0970  138.9394  153.0357 H   0  0  0  0  0  0  0  0  0  0  0  0
  146.7281  140.0407  151.8215 H   0  0  0  0  0  0  0  0  0  0  0  0
  147.3370  137.2882  151.9278 H   0  0  0  0  0  0  0  0  0  0  0  0
  151.8286  137.5663  154.1527 H   0  0  0  0  0  0  0  0  0  0  0  0
  153.1245  138.9067  155.8169 H   0  0  0  0  0  0  0  0  0  0  0  0
  152.2229  141.0166  156.7246 H   0  0  0  0  0  0  0  0  0  0  0  0
  149.9995  141.8768  156.0150 H   0  0  0  0  0  0  0  0  0  0  0  0
  142.8253  141.5060  156.6441 H   0  0  0  0  0  0  0  0  0  0  0  0
  142.6290  142.0848  155.0018 H   0  0  0  0  0  0  0  0  0  0  0  0
  141.9253  139.8413  154.2284 H   0  0  0  0  0  0  0  0  0  0  0  0
  140.1291  141.3153  155.1233 H   0  0  0  0  0  0  0  0  0  0  0  0
  140.3851  140.6581  156.7392 H   0  0  0  0  0  0  0  0  0  0  0  0
  139.7852  139.6195  155.4488 H   0  0  0  0  0  0  0  0  0  0  0  0
  144.3046  140.5121  154.3199 H   0  0  0  0  0  0  0  0  0  0  0  0
  149.3192  137.6257  152.7374 H   0  0  0  0  0  0  0  0  0  0  0  0
  1  2  1  0  0  0  0
  1 24  1  0  0  0  0
  1 25  1  0  0  0  0
  1 26  1  0  0  0  0
  2 23  1  0  0  0  0
  2  3  1  0  0  0  0
  2 27  1  0  0  0  0
  3  4  1  0  0  0  0
  3 28  1  0  0  0  0
  3 29  1  0  0  0  0
  4  5  1  0  0  0  0
  4 20  1  0  0  0  0
  4 49  1  0  0  0  0
  5  6  1  0  0  0  0
  5 30  1  0  0  0  0
  5 31  1  0  0  0  0
  6  7  1  0  0  0  0
  6  8  1  0  0  0  0
  6 32  1  0  0  0  0
  7 33  1  0  0  0  0
  8  9  1  0  0  0  0
  8 34  1  0  0  0  0
  8 35  1  0  0  0  0
  9 19  1  0  0  0  0
  9 10  1  0  0  0  0
 10 11  1  0  0  0  0
 10 13  2  0  0  0  0
 11 12  1  0  0  0  0
 11 36  1  0  0  0  0
 11 37  1  0  0  0  0
 12 38  1  0  0  0  0
 13 14  1  0  0  0  0
 13 50  1  0  0  0  0
 14 19  2  0  0  0  0
 14 15  1  0  0  0  0
 15 16  2  0  0  0  0
 15 39  1  0  0  0  0
 16 17  1  0  0  0  0
 16 40  1  0  0  0  0
 17 18  2  0  0  0  0
 17 41  1  0  0  0  0
 18 19  1  0  0  0  0
 18 42  1  0  0  0  0
 20 21  1  0  0  0  0
 20 43  1  0  0  0  0
 20 44  1  0  0  0  0
 21 22  1  0  0  0  0
 21 23  1  0  0  0  0
 21 45  1  0  0  0  0
 22 46  1  0  0  0  0
 22 47  1  0  0  0  0
 22 48  1  0  0  0  0
M  CHG  1   4   1
M  CHG  1  13   1
M  END
> <s_m_source_file>
AV-unprocessed.smi

> <i_m_source_file_index>
1703

> <i_lp_mmshare_version>
43012

> <i_f3d_flags>
0

> <s_epik_input>
W0NIM11bQ0BASF0xW0NIMl1OKFtDSDJdW0NASF0oTzEpW0NIM10pW0NIMl1bQ0BIXShbT0hdKVtDSDJdbihjKG4yKVtDSDJdW09IXSljKGMyMylbY0hdW2NIXVtjSF1bY0hdMw==

> <s_epik_cmdline>
J2VwaWtfcHl0aG9uJywgJy1waCcsICc3LjAnLCAnLXRuJywgJzgnLCAnLW1hJywgJzIwMCcsICctbWV0YWxfYmluZGluZycsICctaW1hZScsICc8aW5maWxlLm1hZT4nLCAnLW9tYWUnLCAnPG91dGZpbGUubWFlPic=

> <r_epik_Ionization_Penalty>
2.22579

> <r_epik_Ionization_Penalty_Charging>
2.22492

> <r_epik_Ionization_Penalty_Neutral>
0.000870007

> <r_epik_State_Penalty>
2.3141

> <r_epik_Charging_Adjusted_Penalty>
4.53902

> <i_epik_Tot_Q>
2

> <i_epik_Tot_abs_Q>
2

> <r_epik_Metal_State_Penalty>
6.36517

> <b_epik_Metal_Only>
0

> <s_lp_Force_Field>
OPLS_2005

> <r_lp_Energy>
31.039

> <b_lp_Chiralities_Consistent>
1

> <s_lp_Variant>
AV-unprocessed.smi:1703-26

> <Gold.Version>
5.8.1

> <Gold.Id.Protein>
6NUR|6NUR_protein|mol2

> <Gold.PLP.Fitness>
48.6657

> <Gold.PLP.PLP>
-35.6718

> <Gold.PLP.part.hbond>
-5.4686

> <Gold.PLP.part.metal>
0.0000

> <Gold.PLP.part.buried>
1.6779

> <Gold.PLP.part.nonpolar>
-31.1798

> <Gold.PLP.part.repulsive>
0.1285

> <Gold.PLP.ligand.clash>
0.0000

> <Gold.PLP.ligand.torsion>
1.9684

> <Gold.PLP.Chemscore.Hbond>
5.6240

> <Gold.PLP.Chemscore.CHOScore>
0.0000

> <Gold.PLP.Chemscore.Metal>
0.0000

> <Gold.Chemscore.Hbonds>
donor molecule, donor type, donor heavy atom, donor atom, acceptor molecule, acceptor atom, score
      L1  H     4    49       P1 10175  2.00
      L1  H    12    38       P1  7948  0.62
      L1  H    13    50       P1  7948  2.00
      P1  H  7954  7966       L1    12  0.95

> <Gold.PLP.Chemscore.Internal.Correction>
0.0587

> <Gold.Rescore>
     Score         DG    S(hbond)    S(metal)    S(lipo)     H(rot)  DE(clash)    DE(int)     intcor
     12.67     -16.05       3.02        0.00      70.71       3.04       1.41       1.96       ----

> <Gold.Chemscore.Fitness>
12.6736

> <Gold.Chemscore.DG>
-16.0475

> <Gold.Chemscore.ZeroCoef>
-5.4800

> <Gold.Chemscore.Hbond>
3.0152

> <Gold.Chemscore.Metal>
0.0000

> <Gold.Chemscore.Lipo>
70.7129

> <Gold.Chemscore.Internal_Hbond>
0.0000

> <Gold.Chemscore.DEClash>
1.4097

> <Gold.Chemscore.DEInternal>
1.9642

> <Gold.Chemscore.Rot>
3.0378

> <Gold.Chemscore.Internal.Correction>
   9.000000E+99

> <Gold.Chemscore.Hbonds>
donor molecule, donor type, donor heavy atom, donor atom, acceptor molecule, acceptor atom, score
      L1  H     4    49       P1 10175  0.97
      L1  H    12    38       P1  7948  0.62
      L1  H    13    50       P1  7948  0.92
      P1  H  7954  7966       L1    12  0.21

> <Gold.Chemscore.Hbond.Weighted>
-10.0707

> <Gold.Chemscore.Metal.Weighted>
-0.0000

> <Gold.Chemscore.Lipo.Weighted>
-8.2734

> <Gold.Chemscore.Internal_Hbond.Weighted>
0.0000

> <Gold.Chemscore.DEClash.Weighted>
1.4097

> <Gold.Chemscore.DEInternal.Weighted>
1.9642

> <Gold.Chemscore.Rot.Weighted>
7.7767

> <Gold.Chemscore.Internal.Correction.Weighted>
   9.000000E+99

> <Gold.Protein.RotatedTorsions>
[ 6907 6896 6895 6894 ] final  -69.70 input  -60.11 | X-H torsion
[ 7974 7965 7964 7962 ] final   62.93 input  175.53 | X-H torsion
[ 8008 7997 7996 7995 ] final  107.62 input   59.86 | X-H torsion
[ 10167 10162 10161 10158 ] final  -50.98 input  -65.29 | X-H torsion
[ 10718 10713 10712 10709 ] final -113.81 input   66.30 | X-H torsion
[ 10763 10752 10751 10750 ] final  148.17 input  -60.55 | X-H torsion
[ 11005 11000 10999 10996 ] final  -44.61 input  -57.11 | X-H torsion

> <Gold.Protein.ActiveResidues>
 VAL166  LYS551  ARG553  GLY616  TRP617  ASP618  TYR619  PRO620  LYS621  CYS622 
 ASP623  PHE694  ASN695  SER759  ASP760  ASP761  ALA762  ILE779  LEU786  VAL792 
 PHE793  MET794  SER795  GLU796  ALA797  LYS798  CYS799  TRP800  GLU811  SER814 

> <Gold.Protein.RotatedAtoms>
  150.7293  134.5559  159.5817 H   0  0  0  0  0  0  0  0  0  0  0  0  # atno 6907 bound_to 6896
  152.3034  134.7580  160.0361 H   0  0  0  0  0  0  0  0  0  0  0  0  # atno 6908 bound_to 6896
  151.8153  133.3351  159.3604 H   0  0  0  0  0  0  0  0  0  0  0  0  # atno 6909 bound_to 6896
  145.8676  139.3356  143.0781 H   0  0  0  0  0  0  0  0  0  0  0  0  # atno 7974 bound_to 7965
  156.1838  140.3091  155.9200 H   0  0  0  0  0  0  0  0  0  0  0  0  # atno 8008 bound_to 7997
  155.3325  140.0461  157.3060 H   0  0  0  0  0  0  0  0  0  0  0  0  # atno 8009 bound_to 7997
  154.5373  140.2250  155.8711 H   0  0  0  0  0  0  0  0  0  0  0  0  # atno 8010 bound_to 7997
  140.6611  143.2637  151.4437 H   0  0  0  0  0  0  0  0  0  0  0  0  # atno 10167 bound_to 10162
  156.0790  130.5993  150.8692 H   0  0  0  0  0  0  0  0  0  0  0  0  # atno 10718 bound_to 10713
  154.0504  135.2882  155.3341 H   0  0  0  0  0  0  0  0  0  0  0  0  # atno 10763 bound_to 10752
  154.6873  135.5240  153.8346 H   0  0  0  0  0  0  0  0  0  0  0  0  # atno 10764 bound_to 10752
  153.0563  135.6596  154.0701 H   0  0  0  0  0  0  0  0  0  0  0  0  # atno 10765 bound_to 10752
  141.0462  133.6760  156.2897 H   0  0  0  0  0  0  0  0  0  0  0  0  # atno 11005 bound_to 11000
  145.9174  140.9138  143.0422 LP  0  0  0  0  0  0  0  0  0  0  0  0  # atno 17320 bound_to 7965
  144.6726  140.1243  143.7448 LP  0  0  0  0  0  0  0  0  0  0  0  0  # atno 17321 bound_to 7965
  139.5845  144.1634  152.2012 LP  0  0  0  0  0  0  0  0  0  0  0  0  # atno 17342 bound_to 10162
  140.0970  144.5572  150.7015 LP  0  0  0  0  0  0  0  0  0  0  0  0  # atno 17343 bound_to 10162
  157.5899  131.0945  150.9136 LP  0  0  0  0  0  0  0  0  0  0  0  0  # atno 17370 bound_to 10713
  156.9314  130.5351  149.5279 LP  0  0  0  0  0  0  0  0  0  0  0  0  # atno 17371 bound_to 10713
  140.6143  134.5427  157.5538 LP  0  0  0  0  0  0  0  0  0  0  0  0  # atno 17394 bound_to 11000
  139.9313  134.7958  156.0922 LP  0  0  0  0  0  0  0  0  0  0  0  0  # atno 17395 bound_to 11000

$$$$
