AV-unprocessed.smi:615|AV-procd|sdf|3071|dock3
  -GOLD-   2262023593D 1   1.00000     0.00000
 Structure written by MMmdl.
 25 26  0  0  0  0  0  0  0  0  2 V2000
  146.7778  139.0790  152.4919 C   0  0  0  0  0  0  0  0  0  0  0  0
  147.2068  140.3375  153.2580 C   0  0  0  0  0  0  0  0  0  0  0  0
  148.6323  140.3180  153.5676 N   0  0  0  0  0  0  0  0  0  0  0  0
  149.1785  140.5338  154.7732 C   0  0  0  0  0  0  0  0  0  0  0  0
  148.4551  140.7740  155.7427 O   0  0  0  0  0  0  0  0  0  0  0  0
  150.5289  140.4554  154.7817 N   0  5  0  0  0  0  0  0  0  0  0  0
  151.1956  140.4891  155.9472 C   0  0  0  0  0  0  0  0  0  0  0  0
  152.2656  139.7175  156.1857 N   0  0  0  0  0  0  0  0  0  0  0  0
  152.8027  139.9075  157.4506 N   0  0  0  0  0  0  0  0  0  0  0  0
  152.1240  140.8164  158.1548 C   0  0  0  0  0  0  0  0  0  0  0  0
  152.5071  141.1993  159.5452 C   0  0  0  0  0  0  0  0  0  0  0  0
  152.7737  142.6396  159.9254 C   0  0  0  0  0  0  0  0  0  0  0  0
  153.9131  141.6549  159.8613 C   0  0  0  0  0  0  0  0  0  0  0  0
  150.7501  141.5139  157.3112 S   0  0  0  0  0  0  0  0  0  0  0  0
  145.7189  139.1232  152.2372 H   0  0  0  0  0  0  0  0  0  0  0  0
  146.9380  138.1786  153.0856 H   0  0  0  0  0  0  0  0  0  0  0  0
  147.3394  138.9728  151.5634 H   0  0  0  0  0  0  0  0  0  0  0  0
  147.0042  141.2219  152.6538 H   0  0  0  0  0  0  0  0  0  0  0  0
  146.6204  140.4459  154.1719 H   0  0  0  0  0  0  0  0  0  0  0  0
  149.2625  140.1255  152.8030 H   0  0  0  0  0  0  0  0  0  0  0  0
  151.9996  140.5674  160.2712 H   0  0  0  0  0  0  0  0  0  0  0  0
  152.7266  143.3962  159.1447 H   0  0  0  0  0  0  0  0  0  0  0  0
  152.4465  142.9660  160.9103 H   0  0  0  0  0  0  0  0  0  0  0  0
  154.3471  141.3244  160.8027 H   0  0  0  0  0  0  0  0  0  0  0  0
  154.6118  141.7482  159.0322 H   0  0  0  0  0  0  0  0  0  0  0  0
  1  2  1  0  0  0  0
  1 15  1  0  0  0  0
  1 16  1  0  0  0  0
  1 17  1  0  0  0  0
  2  3  1  0  0  0  0
  2 18  1  0  0  0  0
  2 19  1  0  0  0  0
  3  4  1  0  0  0  0
  3 20  1  0  0  0  0
  4  5  2  0  0  0  0
  4  6  1  0  0  0  0
  6  7  1  0  0  0  0
  7 14  1  0  0  0  0
  7  8  2  0  0  0  0
  8  9  1  0  0  0  0
  9 10  2  0  0  0  0
 10 11  1  0  0  0  0
 10 14  1  0  0  0  0
 11 13  1  0  0  0  0
 11 12  1  0  0  0  0
 11 21  1  0  0  0  0
 12 13  1  0  0  0  0
 12 22  1  0  0  0  0
 12 23  1  0  0  0  0
 13 24  1  0  0  0  0
 13 25  1  0  0  0  0
M  CHG  1   6  -1
M  END
> <s_m_source_file>
AV-unprocessed.smi

> <i_m_source_file_index>
615

> <i_lp_mmshare_version>
43012

> <i_f3d_flags>
0

> <s_epik_input>
W0NIM11bQ0gyXVtOSF1DKD1PKVtOSF1jMW5uYyhzMSlbQ0hdMltDSDJdW0NIMl0y

> <s_epik_cmdline>
J2VwaWtfcHl0aG9uJywgJy1waCcsICc3LjAnLCAnLXRuJywgJzgnLCAnLW1hJywgJzIwMCcsICctbWV0YWxfYmluZGluZycsICctaW1hZScsICc8aW5maWxlLm1hZT4nLCAnLW9tYWUnLCAnPG91dGZpbGUubWFlPic=

> <r_lp_tautomer_probability>
1

> <r_epik_Ionization_Penalty>
3.99003

> <r_epik_Ionization_Penalty_Charging>
3.83446

> <r_epik_Ionization_Penalty_Neutral>
0.155577

> <r_epik_State_Penalty>
3.83354

> <r_epik_Charging_Adjusted_Penalty>
7.668

> <i_epik_Tot_Q>
-1

> <i_epik_Tot_abs_Q>
1

> <r_epik_Metal_State_Penalty>
0.575872

> <b_epik_Metal_Only>
1

> <s_lp_Force_Field>
OPLS_2005

> <r_lp_Energy>
-1.25132

> <b_lp_Chiralities_Consistent>
1

> <s_lp_Variant>
AV-unprocessed.smi:615-2

> <Gold.Version>
5.8.1

> <Gold.Id.Protein>
6NUR|6NUR_protein|mol2

> <Gold.PLP.Fitness>
38.4006

> <Gold.PLP.PLP>
-30.2529

> <Gold.PLP.part.hbond>
-3.7564

> <Gold.PLP.part.metal>
0.0000

> <Gold.PLP.part.buried>
-2.0612

> <Gold.PLP.part.nonpolar>
-24.0056

> <Gold.PLP.part.repulsive>
0.3126

> <Gold.PLP.ligand.clash>
0.0000

> <Gold.PLP.ligand.torsion>
0.4193

> <Gold.PLP.Chemscore.Hbond>
2.9424

> <Gold.PLP.Chemscore.CHOScore>
0.0000

> <Gold.PLP.Chemscore.Metal>
0.0000

> <Gold.Chemscore.Hbonds>
donor molecule, donor type, donor heavy atom, donor atom, acceptor molecule, acceptor atom, score
      L1  H     3    20       P1  7957  1.00
      P1  H  7989  7998       L1     6  1.00
      P1  H  7997  8008       L1     9  0.90

> <Gold.PLP.Chemscore.Internal.Correction>
0.1591

> <Gold.Rescore>
     Score         DG    S(hbond)    S(metal)    S(lipo)     H(rot)  DE(clash)    DE(int)     intcor
     14.59     -16.25       2.06        0.00      60.02       1.23       0.02       1.65       ----

> <Gold.Chemscore.Fitness>
14.5882

> <Gold.Chemscore.DG>
-16.2523

> <Gold.Chemscore.ZeroCoef>
-5.4800

> <Gold.Chemscore.Hbond>
2.0647

> <Gold.Chemscore.Metal>
0.0000

> <Gold.Chemscore.Lipo>
60.0162

> <Gold.Chemscore.Internal_Hbond>
0.0000

> <Gold.Chemscore.DEClash>
0.0162

> <Gold.Chemscore.DEInternal>
1.6479

> <Gold.Chemscore.Rot>
1.2288

> <Gold.Chemscore.Internal.Correction>
   9.000000E+99

> <Gold.Chemscore.Hbonds>
donor molecule, donor type, donor heavy atom, donor atom, acceptor molecule, acceptor atom, score
      L1  H     3    20       P1  7957  0.95
      P1  H  7989  7998       L1     6  0.67
      P1  H  7997  8008       L1     9  0.17

> <Gold.Chemscore.Hbond.Weighted>
-6.8960

> <Gold.Chemscore.Metal.Weighted>
-0.0000

> <Gold.Chemscore.Lipo.Weighted>
-7.0219

> <Gold.Chemscore.Internal_Hbond.Weighted>
0.0000

> <Gold.Chemscore.DEClash.Weighted>
0.0162

> <Gold.Chemscore.DEInternal.Weighted>
1.6479

> <Gold.Chemscore.Rot.Weighted>
3.1456

> <Gold.Chemscore.Internal.Correction.Weighted>
   9.000000E+99

> <Gold.Protein.RotatedTorsions>
[ 6907 6896 6895 6894 ] final   46.39 input  -60.11 | X-H torsion
[ 7974 7965 7964 7962 ] final  -92.92 input  175.53 | X-H torsion
[ 8008 7997 7996 7995 ] final  -82.14 input   59.86 | X-H torsion
[ 10167 10162 10161 10158 ] final  111.59 input  -65.29 | X-H torsion
[ 10718 10713 10712 10709 ] final -172.64 input   66.30 | X-H torsion
[ 10763 10752 10751 10750 ] final -155.65 input  -60.55 | X-H torsion
[ 11005 11000 10999 10996 ] final -141.16 input  -57.11 | X-H torsion

> <Gold.Protein.ActiveResidues>
 VAL166  LYS551  ARG553  GLY616  TRP617  ASP618  TYR619  PRO620  LYS621  CYS622 
 ASP623  PHE694  ASN695  SER759  ASP760  ASP761  ALA762  ILE779  LEU786  VAL792 
 PHE793  MET794  SER795  GLU796  ALA797  LYS798  CYS799  TRP800  GLU811  SER814 

> <Gold.Protein.RotatedAtoms>
  152.2558  134.8085  160.0438 H   0  0  0  0  0  0  0  0  0  0  0  0  # atno 6907 bound_to 6896
  151.8749  133.3478  159.3755 H   0  0  0  0  0  0  0  0  0  0  0  0  # atno 6908 bound_to 6896
  150.7099  134.5003  159.5602 H   0  0  0  0  0  0  0  0  0  0  0  0  # atno 6909 bound_to 6896
  145.3934  140.9530  143.2327 H   0  0  0  0  0  0  0  0  0  0  0  0  # atno 7974 bound_to 7965
  154.6055  140.0637  156.9425 H   0  0  0  0  0  0  0  0  0  0  0  0  # atno 8008 bound_to 7997
  155.2060  140.3319  155.4317 H   0  0  0  0  0  0  0  0  0  0  0  0  # atno 8009 bound_to 7997
  156.2345  140.1856  156.7139 H   0  0  0  0  0  0  0  0  0  0  0  0  # atno 8010 bound_to 7997
  139.6599  144.7129  151.1884 H   0  0  0  0  0  0  0  0  0  0  0  0  # atno 10167 bound_to 10162
  156.7586  130.9405  151.3117 H   0  0  0  0  0  0  0  0  0  0  0  0  # atno 10718 bound_to 10713
  154.7771  135.3163  154.8068 H   0  0  0  0  0  0  0  0  0  0  0  0  # atno 10763 bound_to 10752
  153.8789  135.6837  153.4773 H   0  0  0  0  0  0  0  0  0  0  0  0  # atno 10764 bound_to 10752
  153.1398  135.4744  154.9414 H   0  0  0  0  0  0  0  0  0  0  0  0  # atno 10765 bound_to 10752
  140.8351  134.2469  157.4838 H   0  0  0  0  0  0  0  0  0  0  0  0  # atno 11005 bound_to 11000
  144.8424  139.5451  143.6894 LP  0  0  0  0  0  0  0  0  0  0  0  0  # atno 17320 bound_to 7965
  146.2786  139.6818  142.9245 LP  0  0  0  0  0  0  0  0  0  0  0  0  # atno 17321 bound_to 7965
  140.7575  143.6010  150.8699 LP  0  0  0  0  0  0  0  0  0  0  0  0  # atno 17342 bound_to 10162
  139.9667  143.6103  152.2986 LP  0  0  0  0  0  0  0  0  0  0  0  0  # atno 17343 bound_to 10162
  157.6745  130.9081  150.0117 LP  0  0  0  0  0  0  0  0  0  0  0  0  # atno 17370 bound_to 10713
  156.1354  130.3643  149.9665 LP  0  0  0  0  0  0  0  0  0  0  0  0  # atno 17371 bound_to 10713
  139.8704  134.9606  156.4371 LP  0  0  0  0  0  0  0  0  0  0  0  0  # atno 17394 bound_to 11000
  140.8956  133.7817  155.9621 LP  0  0  0  0  0  0  0  0  0  0  0  0  # atno 17395 bound_to 11000

$$$$
