AV-unprocessed.smi:1162|AV-procd|sdf|4919|dock6
  -GOLD-   22720 3503D 1   1.00000     0.00000
 Structure written by MMmdl.
 44 45  0  0  0  0  0  0  0  0  1 V2000
  146.3053  131.0567  161.6665 C   0  0  0  0  0  0  0  0  0  0  0  0
  146.9365  131.9358  162.5911 O   0  0  0  0  0  0  0  0  0  0  0  0
  147.5626  133.0631  162.1000 C   0  0  0  0  0  0  0  0  0  0  0  0
  148.1980  133.9318  163.0095 C   0  0  0  0  0  0  0  0  0  0  0  0
  148.8356  135.0867  162.5176 C   0  0  0  0  0  0  0  0  0  0  0  0
  148.8238  135.3330  161.1238 C   0  0  0  0  0  0  0  0  0  0  0  0
  149.4083  136.4702  160.5035 N   0  0  0  0  0  0  0  0  0  0  0  0
  149.9263  136.5815  159.2684 C   0  0  0  0  0  0  0  0  0  0  0  0
  149.9475  135.6906  158.4195 O   0  0  0  0  0  0  0  0  0  0  0  0
  150.4102  137.8144  159.0582 N   0  0  0  0  0  0  0  0  0  0  0  0
  151.0081  138.2826  157.8102 C   0  0  0  0  0  0  0  0  0  0  0  0
  151.8702  139.5377  157.9918 C   0  0  0  0  0  0  0  0  0  0  0  0
  153.0804  139.5130  157.7623 O   0  0  0  0  0  0  0  0  0  0  0  0
  151.2195  140.6410  158.3908 N   0  0  0  0  0  0  0  0  0  0  0  0
  151.8297  141.9479  158.6161 C   0  0  0  0  0  0  0  0  0  0  0  0
  152.8262  141.8879  159.7926 C   0  0  0  0  0  0  0  0  0  0  0  0
  153.4190  143.2730  160.0994 C   0  0  0  0  0  0  0  0  0  0  0  0
  152.3149  144.3093  160.3606 C   0  0  0  0  0  0  0  0  0  0  0  0
  151.3277  144.3753  159.1851 C   0  0  0  0  0  0  0  0  0  0  0  0
  150.7289  142.9918  158.8843 C   0  0  0  0  0  0  0  0  0  0  0  0
  148.1518  134.4068  160.2999 C   0  0  0  0  0  0  0  0  0  0  0  0
  147.5391  133.2979  160.7648 N   0  0  0  0  0  0  0  0  0  0  0  0
  145.8539  130.2261  162.2090 H   0  0  0  0  0  0  0  0  0  0  0  0
  147.0234  130.6386  160.9596 H   0  0  0  0  0  0  0  0  0  0  0  0
  145.5109  131.5611  161.1145 H   0  0  0  0  0  0  0  0  0  0  0  0
  148.1912  133.7193  164.0683 H   0  0  0  0  0  0  0  0  0  0  0  0
  149.3027  135.7611  163.2178 H   0  0  0  0  0  0  0  0  0  0  0  0
  149.3902  137.3170  161.0529 H   0  0  0  0  0  0  0  0  0  0  0  0
  150.3389  138.4875  159.8069 H   0  0  0  0  0  0  0  0  0  0  0  0
  151.6370  137.4856  157.4130 H   0  0  0  0  0  0  0  0  0  0  0  0
  150.2309  138.4682  157.0666 H   0  0  0  0  0  0  0  0  0  0  0  0
  150.2253  140.5702  158.5527 H   0  0  0  0  0  0  0  0  0  0  0  0
  152.3669  142.2497  157.7147 H   0  0  0  0  0  0  0  0  0  0  0  0
  152.3247  141.5045  160.6824 H   0  0  0  0  0  0  0  0  0  0  0  0
  153.6330  141.1888  159.5686 H   0  0  0  0  0  0  0  0  0  0  0  0
  154.0811  143.2101  160.9633 H   0  0  0  0  0  0  0  0  0  0  0  0
  154.0350  143.5992  159.2606 H   0  0  0  0  0  0  0  0  0  0  0  0
  151.7780  144.0501  161.2742 H   0  0  0  0  0  0  0  0  0  0  0  0
  152.7583  145.2909  160.5298 H   0  0  0  0  0  0  0  0  0  0  0  0
  150.5308  145.0853  159.4078 H   0  0  0  0  0  0  0  0  0  0  0  0
  151.8389  144.7531  158.2984 H   0  0  0  0  0  0  0  0  0  0  0  0
  150.0611  143.0607  158.0248 H   0  0  0  0  0  0  0  0  0  0  0  0
  150.1149  142.6740  159.7285 H   0  0  0  0  0  0  0  0  0  0  0  0
  148.1051  134.5574  159.2311 H   0  0  0  0  0  0  0  0  0  0  0  0
  1  2  1  0  0  0  0
  1 23  1  0  0  0  0
  1 24  1  0  0  0  0
  1 25  1  0  0  0  0
  2  3  1  0  0  0  0
  3 22  1  0  0  0  0
  3  4  2  0  0  0  0
  4  5  1  0  0  0  0
  4 26  1  0  0  0  0
  5  6  2  0  0  0  0
  5 27  1  0  0  0  0
  6  7  1  0  0  0  0
  6 21  1  0  0  0  0
  7  8  1  0  0  0  0
  7 28  1  0  0  0  0
  8  9  2  0  0  0  0
  8 10  1  0  0  0  0
 10 11  1  0  0  0  0
 10 29  1  0  0  0  0
 11 12  1  0  0  0  0
 11 30  1  0  0  0  0
 11 31  1  0  0  0  0
 12 13  2  0  0  0  0
 12 14  1  0  0  0  0
 14 15  1  0  0  0  0
 14 32  1  0  0  0  0
 15 20  1  0  0  0  0
 15 16  1  0  0  0  0
 15 33  1  0  0  0  0
 16 17  1  0  0  0  0
 16 34  1  0  0  0  0
 16 35  1  0  0  0  0
 17 18  1  0  0  0  0
 17 36  1  0  0  0  0
 17 37  1  0  0  0  0
 18 19  1  0  0  0  0
 18 38  1  0  0  0  0
 18 39  1  0  0  0  0
 19 20  1  0  0  0  0
 19 40  1  0  0  0  0
 19 41  1  0  0  0  0
 20 42  1  0  0  0  0
 20 43  1  0  0  0  0
 21 22  2  0  0  0  0
 21 44  1  0  0  0  0
M  END
> <s_m_source_file>
AV-unprocessed.smi

> <i_m_source_file_index>
1162

> <i_lp_mmshare_version>
43012

> <i_f3d_flags>
0

> <s_epik_input>
W0NIM11PYzFbY0hdW2NIXWMoW2NIXW4xKVtOSF1DKD1PKVtOSF1bQ0gyXUMoPU8pW05IXVtDSF0yW0NIMl1bQ0gyXVtDSDJdW0NIMl1bQ0gyXTI=

> <s_epik_cmdline>
J2VwaWtfcHl0aG9uJywgJy1waCcsICc3LjAnLCAnLXRuJywgJzgnLCAnLW1hJywgJzIwMCcsICctbWV0YWxfYmluZGluZycsICctaW1hZScsICc8aW5maWxlLm1hZT4nLCAnLW9tYWUnLCAnPG91dGZpbGUubWFlPic=

> <r_lp_tautomer_probability>
1

> <r_epik_Ionization_Penalty>
0.000141568

> <r_epik_Ionization_Penalty_Charging>
0

> <r_epik_Ionization_Penalty_Neutral>
0.000141568

> <r_epik_State_Penalty>
-0

> <r_epik_Charging_Adjusted_Penalty>
0

> <i_epik_Tot_Q>
0

> <i_epik_Tot_abs_Q>
0

> <r_epik_Metal_State_Penalty>
-0

> <b_epik_Metal_Only>
0

> <s_lp_Force_Field>
OPLS_2005

> <r_lp_Energy>
7.6567

> <b_lp_Chiralities_Consistent>
1

> <s_lp_Variant>
AV-unprocessed.smi:1162-1

> <Gold.Version>
5.8.1

> <Gold.Id.Protein>
6NUR|6NUR_protein|mol2

> <Gold.PLP.Fitness>
46.8576

> <Gold.PLP.PLP>
-41.5669

> <Gold.PLP.part.hbond>
-2.0000

> <Gold.PLP.part.metal>
0.0000

> <Gold.PLP.part.buried>
-6.7525

> <Gold.PLP.part.nonpolar>
-34.5695

> <Gold.PLP.part.repulsive>
1.5481

> <Gold.PLP.ligand.clash>
0.0000

> <Gold.PLP.ligand.torsion>
0.3755

> <Gold.PLP.Chemscore.Hbond>
2.0000

> <Gold.PLP.Chemscore.CHOScore>
0.0000

> <Gold.PLP.Chemscore.Metal>
0.0000

> <Gold.Chemscore.Hbonds>
donor molecule, donor type, donor heavy atom, donor atom, acceptor molecule, acceptor atom, score
      P1  H  6896  6908       L1     9  0.55
      P1  H  7997  8008       L1    13  1.00

> <Gold.PLP.Chemscore.Internal.Correction>
0.0416

> <Gold.Rescore>
     Score         DG    S(hbond)    S(metal)    S(lipo)     H(rot)  DE(clash)    DE(int)     intcor
     17.28     -19.17       1.87        0.00     103.37       1.82       0.23       1.67       ----

> <Gold.Chemscore.Fitness>
17.2755

> <Gold.Chemscore.DG>
-19.1722

> <Gold.Chemscore.ZeroCoef>
-5.4800

> <Gold.Chemscore.Hbond>
1.8736

> <Gold.Chemscore.Metal>
0.0000

> <Gold.Chemscore.Lipo>
103.3706

> <Gold.Chemscore.Internal_Hbond>
0.0000

> <Gold.Chemscore.DEClash>
0.2262

> <Gold.Chemscore.DEInternal>
1.6704

> <Gold.Chemscore.Rot>
1.8204

> <Gold.Chemscore.Internal.Correction>
   9.000000E+99

> <Gold.Chemscore.Hbonds>
donor molecule, donor type, donor heavy atom, donor atom, acceptor molecule, acceptor atom, score
      P1  H  6896  6908       L1     9  0.03
      P1  H  7997  8008       L1    13  1.00

> <Gold.Chemscore.Hbond.Weighted>
-6.2579

> <Gold.Chemscore.Metal.Weighted>
-0.0000

> <Gold.Chemscore.Lipo.Weighted>
-12.0944

> <Gold.Chemscore.Internal_Hbond.Weighted>
0.0000

> <Gold.Chemscore.DEClash.Weighted>
0.2262

> <Gold.Chemscore.DEInternal.Weighted>
1.6704

> <Gold.Chemscore.Rot.Weighted>
4.6601

> <Gold.Chemscore.Internal.Correction.Weighted>
   9.000000E+99

> <Gold.Protein.RotatedTorsions>
[ 6907 6896 6895 6894 ] final  170.89 input  -60.11 | X-H torsion
[ 7974 7965 7964 7962 ] final  174.75 input  175.53 | X-H torsion
[ 8008 7997 7996 7995 ] final  -80.76 input   59.86 | X-H torsion
[ 10167 10162 10161 10158 ] final -118.91 input  -65.29 | X-H torsion
[ 10718 10713 10712 10709 ] final -164.04 input   66.30 | X-H torsion
[ 10763 10752 10751 10750 ] final   -4.86 input  -60.55 | X-H torsion
[ 11005 11000 10999 10996 ] final   54.48 input  -57.11 | X-H torsion

> <Gold.Protein.ActiveResidues>
 VAL166  LYS551  ARG553  GLY616  TRP617  ASP618  TYR619  PRO620  LYS621  CYS622 
 ASP623  PHE694  ASN695  SER759  ASP760  ASP761  ALA762  ILE779  LEU786  VAL792 
 PHE793  MET794  SER795  GLU796  ALA797  LYS798  CYS799  TRP800  GLU811  SER814 

> <Gold.Protein.RotatedAtoms>
  151.8089  133.3379  159.3549 H   0  0  0  0  0  0  0  0  0  0  0  0  # atno 6907 bound_to 6896
  150.7333  134.5683  159.5886 H   0  0  0  0  0  0  0  0  0  0  0  0  # atno 6908 bound_to 6896
  152.3089  134.7522  160.0392 H   0  0  0  0  0  0  0  0  0  0  0  0  # atno 6909 bound_to 6896
  144.7215  139.9844  143.6439 H   0  0  0  0  0  0  0  0  0  0  0  0  # atno 7974 bound_to 7965
  154.5915  140.0658  156.9246 H   0  0  0  0  0  0  0  0  0  0  0  0  # atno 8008 bound_to 7997
  155.2286  140.3336  155.4288 H   0  0  0  0  0  0  0  0  0  0  0  0  # atno 8009 bound_to 7997
  156.2259  140.1819  156.7348 H   0  0  0  0  0  0  0  0  0  0  0  0  # atno 8010 bound_to 7997
  140.0524  143.5047  152.2075 H   0  0  0  0  0  0  0  0  0  0  0  0  # atno 10167 bound_to 10162
  156.6333  130.8939  151.2982 H   0  0  0  0  0  0  0  0  0  0  0  0  # atno 10718 bound_to 10713
  153.3906  135.7001  153.6497 H   0  0  0  0  0  0  0  0  0  0  0  0  # atno 10763 bound_to 10752
  153.5071  135.3640  155.2569 H   0  0  0  0  0  0  0  0  0  0  0  0  # atno 10764 bound_to 10752
  154.8702  135.4126  154.3222 H   0  0  0  0  0  0  0  0  0  0  0  0  # atno 10765 bound_to 10752
  140.0683  134.5505  155.9074 H   0  0  0  0  0  0  0  0  0  0  0  0  # atno 11005 bound_to 11000
  146.0462  139.3467  143.0667 LP  0  0  0  0  0  0  0  0  0  0  0  0  # atno 17320 bound_to 7965
  145.8273  140.9649  143.0867 LP  0  0  0  0  0  0  0  0  0  0  0  0  # atno 17321 bound_to 7965
  139.5945  144.7562  151.3321 LP  0  0  0  0  0  0  0  0  0  0  0  0  # atno 17342 bound_to 10162
  140.7210  143.7135  150.7751 LP  0  0  0  0  0  0  0  0  0  0  0  0  # atno 17343 bound_to 10162
  157.7193  130.9538  150.1376 LP  0  0  0  0  0  0  0  0  0  0  0  0  # atno 17370 bound_to 10713
  156.2217  130.3674  149.8548 LP  0  0  0  0  0  0  0  0  0  0  0  0  # atno 17371 bound_to 10713
  141.2002  133.6611  156.5882 LP  0  0  0  0  0  0  0  0  0  0  0  0  # atno 17394 bound_to 11000
  140.3665  134.7642  157.4570 LP  0  0  0  0  0  0  0  0  0  0  0  0  # atno 17395 bound_to 11000

$$$$
