AV-unprocessed.smi:2732|AV-procd|sdf|10535|dock10
  -GOLD-   2272014583D 1   1.00000     0.00000
 Structure written by MMmdl.
 35 36  0  0  0  0  0  0  0  0  2 V2000
  149.7024  143.0041  158.2001 C   0  0  0  0  0  0  0  0  0  0  0  0
  150.8884  142.5643  157.3282 C   0  0  1  0  0  0  0  0  0  0  0  0
  151.9182  142.1106  158.2027 O   0  0  0  0  0  0  0  0  0  0  0  0
  152.4156  143.0801  159.1165 C   0  0  0  0  0  0  0  0  0  0  0  0
  153.5499  142.4657  159.9072 C   0  0  0  0  0  0  0  0  0  0  0  0
  153.4571  141.0369  160.3927 C   0  0  0  0  0  0  0  0  0  0  0  0
  153.3906  142.1723  161.3819 C   0  0  0  0  0  0  0  0  0  0  0  0
  150.4861  141.4465  156.3519 C   0  0  0  0  0  0  0  0  0  0  0  0
  151.1396  140.4040  156.3139 O   0  0  0  0  0  0  0  0  0  0  0  0
  149.4310  141.7133  155.5597 N   0  0  0  0  0  0  0  0  0  0  0  0
  148.8420  140.8890  154.5636 C   0  0  0  0  0  0  0  0  0  0  0  0
  147.6813  141.3654  153.9157 C   0  0  0  0  0  0  0  0  0  0  0  0
  147.0561  140.5753  152.9288 C   0  0  0  0  0  0  0  0  0  0  0  0
  147.5989  139.3129  152.6138 C   0  0  0  0  0  0  0  0  0  0  0  0
  147.0319  138.4822  151.6494 N   0  0  0  0  0  0  0  0  0  0  0  0
  148.7009  138.8800  153.2630 N   0  3  0  0  0  0  0  0  0  0  0  0
  149.3311  139.6063  154.2124 C   0  0  0  0  0  0  0  0  0  0  0  0
  148.8617  143.3364  157.5899 H   0  0  0  0  0  0  0  0  0  0  0  0
  149.9867  143.8342  158.8472 H   0  0  0  0  0  0  0  0  0  0  0  0
  149.3527  142.1940  158.8414 H   0  0  0  0  0  0  0  0  0  0  0  0
  151.2420  143.4342  156.7710 H   0  0  0  0  0  0  0  0  0  0  0  0
  152.7745  143.9726  158.6027 H   0  0  0  0  0  0  0  0  0  0  0  0
  151.6289  143.3853  159.8078 H   0  0  0  0  0  0  0  0  0  0  0  0
  154.5374  142.7898  159.5840 H   0  0  0  0  0  0  0  0  0  0  0  0
  152.5371  140.4907  160.1943 H   0  0  0  0  0  0  0  0  0  0  0  0
  154.3670  140.4405  160.3731 H   0  0  0  0  0  0  0  0  0  0  0  0
  154.2559  142.3353  162.0211 H   0  0  0  0  0  0  0  0  0  0  0  0
  152.4265  142.3839  161.8400 H   0  0  0  0  0  0  0  0  0  0  0  0
  149.0452  142.6430  155.6407 H   0  0  0  0  0  0  0  0  0  0  0  0
  147.2731  142.3339  154.1661 H   0  0  0  0  0  0  0  0  0  0  0  0
  146.1719  140.9373  152.4245 H   0  0  0  0  0  0  0  0  0  0  0  0
  146.2055  138.7547  151.1364 H   0  0  0  0  0  0  0  0  0  0  0  0
  147.4343  137.5843  151.4212 H   0  0  0  0  0  0  0  0  0  0  0  0
  150.1898  139.1250  154.6560 H   0  0  0  0  0  0  0  0  0  0  0  0
  149.0769  137.9608  153.0293 H   0  0  0  0  0  0  0  0  0  0  0  0
  1  2  1  0  0  0  0
  1 18  1  0  0  0  0
  1 19  1  0  0  0  0
  1 20  1  0  0  0  0
  2  3  1  0  0  0  0
  2  8  1  0  0  0  0
  2 21  1  0  0  0  0
  3  4  1  0  0  0  0
  4  5  1  0  0  0  0
  4 22  1  0  0  0  0
  4 23  1  0  0  0  0
  5  7  1  0  0  0  0
  5  6  1  0  0  0  0
  5 24  1  0  0  0  0
  6  7  1  0  0  0  0
  6 25  1  0  0  0  0
  6 26  1  0  0  0  0
  7 27  1  0  0  0  0
  7 28  1  0  0  0  0
  8  9  2  0  0  0  0
  8 10  1  0  0  0  0
 10 11  1  0  0  0  0
 10 29  1  0  0  0  0
 11 17  1  0  0  0  0
 11 12  2  0  0  0  0
 12 13  1  0  0  0  0
 12 30  1  0  0  0  0
 13 14  2  0  0  0  0
 13 31  1  0  0  0  0
 14 15  1  0  0  0  0
 14 16  1  0  0  0  0
 15 32  1  0  0  0  0
 15 33  1  0  0  0  0
 16 17  2  0  0  0  0
 16 35  1  0  0  0  0
 17 34  1  0  0  0  0
M  CHG  1  16   1
M  END
> <s_m_source_file>
AV-unprocessed.smi

> <i_m_source_file_index>
2732

> <i_lp_mmshare_version>
43012

> <i_f3d_flags>
0

> <s_epik_input>
W0NIMl0xW0NIMl1bQ0hdMVtDSDJdT1tDQEBIXShbQ0gzXSlDKD1PKVtOSF1jMltjSF1bY0hdYyhbTkgyXSluW2NIXTI=

> <s_epik_cmdline>
J2VwaWtfcHl0aG9uJywgJy1waCcsICc3LjAnLCAnLXRuJywgJzgnLCAnLW1hJywgJzIwMCcsICctbWV0YWxfYmluZGluZycsICctaW1hZScsICc8aW5maWxlLm1hZT4nLCAnLW9tYWUnLCAnPG91dGZpbGUubWFlPic=

> <r_lp_tautomer_probability>
0.999994

> <r_epik_Ionization_Penalty>
1.25173

> <r_epik_Ionization_Penalty_Charging>
1.25172

> <r_epik_Ionization_Penalty_Neutral>
2.35798e-06

> <r_epik_State_Penalty>
1.32157

> <r_epik_Charging_Adjusted_Penalty>
2.5733

> <i_epik_Tot_Q>
1

> <i_epik_Tot_abs_Q>
1

> <r_epik_Metal_State_Penalty>
1.39188

> <b_epik_Metal_Only>
0

> <s_lp_Force_Field>
OPLS_2005

> <r_lp_Energy>
25.671

> <b_lp_Chiralities_Consistent>
1

> <s_lp_Variant>
AV-unprocessed.smi:2732-4

> <Gold.Version>
5.8.1

> <Gold.Id.Protein>
6NUR|6NUR_protein|mol2

> <Gold.PLP.Fitness>
50.8246

> <Gold.PLP.PLP>
-37.7044

> <Gold.PLP.part.hbond>
-4.9921

> <Gold.PLP.part.metal>
0.0000

> <Gold.PLP.part.buried>
1.3063

> <Gold.PLP.part.nonpolar>
-34.0616

> <Gold.PLP.part.repulsive>
0.5115

> <Gold.PLP.ligand.clash>
0.0000

> <Gold.PLP.ligand.torsion>
0.5427

> <Gold.PLP.Chemscore.Hbond>
4.5478

> <Gold.PLP.Chemscore.CHOScore>
0.0000

> <Gold.PLP.Chemscore.Metal>
0.0000

> <Gold.Chemscore.Hbonds>
donor molecule, donor type, donor heavy atom, donor atom, acceptor molecule, acceptor atom, score
      L1  H    10    29       P1  8028  0.88
      L1  H    15    33       P1  7948  1.78
      L1  H    16    35       P1  7948  1.81

> <Gold.PLP.Chemscore.Internal.Correction>
0.5622

> <Gold.Rescore>
     Score         DG    S(hbond)    S(metal)    S(lipo)     H(rot)  DE(clash)    DE(int)     intcor
     16.26     -19.58       2.51        0.00      87.48       1.76       1.43       1.90       ----

> <Gold.Chemscore.Fitness>
16.2555

> <Gold.Chemscore.DG>
-19.5834

> <Gold.Chemscore.ZeroCoef>
-5.4800

> <Gold.Chemscore.Hbond>
2.5074

> <Gold.Chemscore.Metal>
0.0000

> <Gold.Chemscore.Lipo>
87.4810

> <Gold.Chemscore.Internal_Hbond>
0.0000

> <Gold.Chemscore.DEClash>
1.4271

> <Gold.Chemscore.DEInternal>
1.9009

> <Gold.Chemscore.Rot>
1.7604

> <Gold.Chemscore.Internal.Correction>
   9.000000E+99

> <Gold.Chemscore.Hbonds>
donor molecule, donor type, donor heavy atom, donor atom, acceptor molecule, acceptor atom, score
      L1  H    10    29       P1  8028  0.85
      L1  H    15    33       P1  7948  0.82
      L1  H    16    35       P1  7948  0.82

> <Gold.Chemscore.Hbond.Weighted>
-8.3747

> <Gold.Chemscore.Metal.Weighted>
-0.0000

> <Gold.Chemscore.Lipo.Weighted>
-10.2353

> <Gold.Chemscore.Internal_Hbond.Weighted>
0.0000

> <Gold.Chemscore.DEClash.Weighted>
1.4271

> <Gold.Chemscore.DEInternal.Weighted>
1.9009

> <Gold.Chemscore.Rot.Weighted>
4.5065

> <Gold.Chemscore.Internal.Correction.Weighted>
   9.000000E+99

> <Gold.Protein.RotatedTorsions>
[ 6907 6896 6895 6894 ] final  -21.26 input  -60.11 | X-H torsion
[ 7974 7965 7964 7962 ] final -177.38 input  175.53 | X-H torsion
[ 8008 7997 7996 7995 ] final   11.18 input   59.86 | X-H torsion
[ 10167 10162 10161 10158 ] final   62.38 input  -65.29 | X-H torsion
[ 10718 10713 10712 10709 ] final   87.35 input   66.30 | X-H torsion
[ 10763 10752 10751 10750 ] final   77.89 input  -60.55 | X-H torsion
[ 11005 11000 10999 10996 ] final  -53.52 input  -57.11 | X-H torsion

> <Gold.Protein.ActiveResidues>
 VAL166  LYS551  ARG553  GLY616  TRP617  ASP618  TYR619  PRO620  LYS621  CYS622 
 ASP623  PHE694  ASN695  SER759  ASP760  ASP761  ALA762  ILE779  LEU786  VAL792 
 PHE793  MET794  SER795  GLU796  ALA797  LYS798  CYS799  TRP800  GLU811  SER814 

> <Gold.Protein.RotatedAtoms>
  151.2360  135.0571  159.9005 H   0  0  0  0  0  0  0  0  0  0  0  0  # atno 6907 bound_to 6896
  152.5399  134.0486  159.8110 H   0  0  0  0  0  0  0  0  0  0  0  0  # atno 6908 bound_to 6896
  151.0673  133.5446  159.2661 H   0  0  0  0  0  0  0  0  0  0  0  0  # atno 6909 bound_to 6896
  144.7127  140.1028  143.6415 H   0  0  0  0  0  0  0  0  0  0  0  0  # atno 7974 bound_to 7965
  154.8034  140.2856  155.5905 H   0  0  0  0  0  0  0  0  0  0  0  0  # atno 8008 bound_to 7997
  156.2980  140.2582  156.2836 H   0  0  0  0  0  0  0  0  0  0  0  0  # atno 8009 bound_to 7997
  154.9532  140.0379  157.2143 H   0  0  0  0  0  0  0  0  0  0  0  0  # atno 8010 bound_to 7997
  140.1445  144.4522  150.6793 H   0  0  0  0  0  0  0  0  0  0  0  0  # atno 10167 bound_to 10162
  157.6939  131.0252  150.3110 H   0  0  0  0  0  0  0  0  0  0  0  0  # atno 10718 bound_to 10713
  153.0832  135.4897  154.8545 H   0  0  0  0  0  0  0  0  0  0  0  0  # atno 10763 bound_to 10752
  154.7178  135.3033  154.9098 H   0  0  0  0  0  0  0  0  0  0  0  0  # atno 10764 bound_to 10752
  153.9772  135.6794  153.4802 H   0  0  0  0  0  0  0  0  0  0  0  0  # atno 10765 bound_to 10752
  141.0980  133.6622  156.4185 H   0  0  0  0  0  0  0  0  0  0  0  0  # atno 11005 bound_to 11000
  145.9523  139.2742  143.1205 LP  0  0  0  0  0  0  0  0  0  0  0  0  # atno 17320 bound_to 7965
  145.9310  140.9048  143.0356 LP  0  0  0  0  0  0  0  0  0  0  0  0  # atno 17321 bound_to 7965
  140.6740  143.2297  151.5553 LP  0  0  0  0  0  0  0  0  0  0  0  0  # atno 17342 bound_to 10162
  139.5456  144.2531  152.1435 LP  0  0  0  0  0  0  0  0  0  0  0  0  # atno 17343 bound_to 10162
  156.3612  130.3847  149.7250 LP  0  0  0  0  0  0  0  0  0  0  0  0  # atno 17370 bound_to 10713
  156.4696  130.7990  151.3008 LP  0  0  0  0  0  0  0  0  0  0  0  0  # atno 17371 bound_to 10713
  140.5092  134.6411  157.5278 LP  0  0  0  0  0  0  0  0  0  0  0  0  # atno 17394 bound_to 11000
  139.9822  134.7118  155.9838 LP  0  0  0  0  0  0  0  0  0  0  0  0  # atno 17395 bound_to 11000

$$$$
