AV-unprocessed.smi:2448|AV-procd|sdf|9660|dock1
  -GOLD-   2272013293D 1   1.00000     0.00000
 Structure written by MMmdl.
 38 39  0  0  0  0  0  0  0  0  2 V2000
  148.4007  136.6872  161.6432 O   0  0  0  0  0  0  0  0  0  0  0  0
  147.4657  136.0034  160.8273 C   0  0  2  0  0  0  0  0  0  0  0  0
  147.4770  136.6581  159.4304 C   0  0  0  0  0  0  0  0  0  0  0  0
  148.7675  136.4865  158.7582 N   0  0  0  0  0  0  0  0  0  0  0  0
  149.3582  137.6821  158.1381 C   0  0  2  0  0  0  0  0  0  0  0  0
  148.5633  137.9639  156.8404 C   0  0  0  0  0  0  0  0  0  0  0  0
  148.6222  139.4018  156.3533 C   0  0  0  0  0  0  0  0  0  0  0  0
  148.0962  140.4500  157.1415 C   0  0  0  0  0  0  0  0  0  0  0  0
  148.1660  141.7741  156.6624 C   0  0  0  0  0  0  0  0  0  0  0  0
  148.7348  142.0265  155.4633 N   0  3  0  0  0  0  0  0  0  0  0  0
  149.2539  141.0554  154.6806 C   0  0  0  0  0  0  0  0  0  0  0  0
  149.2125  139.7122  155.1078 C   0  0  0  0  0  0  0  0  0  0  0  0
  150.8854  137.5268  157.8886 C   0  0  0  0  0  0  0  0  0  0  0  0
  151.5495  137.3416  159.0277 F   0  0  0  0  0  0  0  0  0  0  0  0
  151.1180  136.4921  157.0807 F   0  0  0  0  0  0  0  0  0  0  0  0
  151.3939  138.6239  157.3297 F   0  0  0  0  0  0  0  0  0  0  0  0
  146.0901  136.1303  161.5023 C   0  0  0  0  0  0  0  0  0  0  0  0
  146.0770  135.2018  162.7210 C   0  0  0  0  0  0  0  0  0  0  0  0
  147.0808  133.7518  162.3134 S   0  0  0  0  0  0  0  0  0  0  0  0
  147.7783  134.4957  160.8140 C   0  0  0  0  0  0  0  0  0  0  0  0
  148.6190  136.1334  162.3769 H   0  0  0  0  0  0  0  0  0  0  0  0
  146.6888  136.2160  158.8199 H   0  0  0  0  0  0  0  0  0  0  0  0
  147.2327  137.7131  159.5433 H   0  0  0  0  0  0  0  0  0  0  0  0
  149.4312  136.0813  159.4107 H   0  0  0  0  0  0  0  0  0  0  0  0
  149.2079  138.5288  158.8090 H   0  0  0  0  0  0  0  0  0  0  0  0
  148.9047  137.2992  156.0454 H   0  0  0  0  0  0  0  0  0  0  0  0
  147.5106  137.7233  156.9976 H   0  0  0  0  0  0  0  0  0  0  0  0
  147.6404  140.2453  158.0995 H   0  0  0  0  0  0  0  0  0  0  0  0
  147.7869  142.6321  157.1981 H   0  0  0  0  0  0  0  0  0  0  0  0
  149.6835  141.3797  153.7439 H   0  0  0  0  0  0  0  0  0  0  0  0
  149.6276  138.9324  154.4859 H   0  0  0  0  0  0  0  0  0  0  0  0
  145.8551  137.1594  161.7768 H   0  0  0  0  0  0  0  0  0  0  0  0
  145.3149  135.8045  160.8075 H   0  0  0  0  0  0  0  0  0  0  0  0
  146.5322  135.7002  163.5773 H   0  0  0  0  0  0  0  0  0  0  0  0
  145.0657  134.9114  163.0057 H   0  0  0  0  0  0  0  0  0  0  0  0
  147.2896  134.0224  159.9617 H   0  0  0  0  0  0  0  0  0  0  0  0
  148.8453  134.2862  160.7338 H   0  0  0  0  0  0  0  0  0  0  0  0
  148.7748  142.9920  155.1354 H   0  0  0  0  0  0  0  0  0  0  0  0
  1  2  1  0  0  0  0
  1 21  1  0  0  0  0
  2 20  1  0  0  0  0
  2  3  1  0  0  0  0
  2 17  1  0  0  0  0
  3  4  1  0  0  0  0
  3 22  1  0  0  0  0
  3 23  1  0  0  0  0
  4  5  1  0  0  0  0
  4 24  1  0  0  0  0
  5  6  1  0  0  0  0
  5 13  1  0  0  0  0
  5 25  1  0  0  0  0
  6  7  1  0  0  0  0
  6 26  1  0  0  0  0
  6 27  1  0  0  0  0
  7 12  1  0  0  0  0
  7  8  2  0  0  0  0
  8  9  1  0  0  0  0
  8 28  1  0  0  0  0
  9 10  2  0  0  0  0
  9 29  1  0  0  0  0
 10 11  1  0  0  0  0
 10 38  1  0  0  0  0
 11 12  2  0  0  0  0
 11 30  1  0  0  0  0
 12 31  1  0  0  0  0
 13 14  1  0  0  0  0
 13 15  1  0  0  0  0
 13 16  1  0  0  0  0
 17 18  1  0  0  0  0
 17 32  1  0  0  0  0
 17 33  1  0  0  0  0
 18 19  1  0  0  0  0
 18 34  1  0  0  0  0
 18 35  1  0  0  0  0
 19 20  1  0  0  0  0
 20 36  1  0  0  0  0
 20 37  1  0  0  0  0
M  CHG  1  10   1
M  END
> <s_m_source_file>
AV-unprocessed.smi

> <i_m_source_file_index>
2448

> <i_lp_mmshare_version>
43012

> <i_f3d_flags>
0

> <s_epik_input>
W0NIMl0xU1tDSDJdW0NIMl1bQ0BAXTEoW09IXSlbQ0gyXVtOSF1bQ0BASF0oQyhGKShGKUYpW0NIMl1jMltjSF1bY0hdbltjSF1bY0hdMg==

> <s_epik_cmdline>
J2VwaWtfcHl0aG9uJywgJy1waCcsICc3LjAnLCAnLXRuJywgJzgnLCAnLW1hJywgJzIwMCcsICctbWV0YWxfYmluZGluZycsICctaW1hZScsICc8aW5maWxlLm1hZT4nLCAnLW9tYWUnLCAnPG91dGZpbGUubWFlPic=

> <r_epik_Ionization_Penalty>
1.11129

> <r_epik_Ionization_Penalty_Charging>
1.08366

> <r_epik_Ionization_Penalty_Neutral>
0.0276276

> <r_epik_State_Penalty>
1.93785

> <r_epik_Charging_Adjusted_Penalty>
3.02151

> <i_epik_Tot_Q>
1

> <i_epik_Tot_abs_Q>
1

> <r_epik_Metal_State_Penalty>
5.97911

> <b_epik_Metal_Only>
0

> <s_lp_Force_Field>
OPLS_2005

> <r_lp_Energy>
38.3653

> <b_lp_Chiralities_Consistent>
1

> <s_lp_Variant>
AV-unprocessed.smi:2448-10

> <Gold.Version>
5.8.1

> <Gold.Id.Protein>
6NUR|6NUR_protein|mol2

> <Gold.PLP.Fitness>
36.2579

> <Gold.PLP.PLP>
-28.1669

> <Gold.PLP.part.hbond>
-1.8538

> <Gold.PLP.part.metal>
0.0000

> <Gold.PLP.part.buried>
-4.9890

> <Gold.PLP.part.nonpolar>
-21.3213

> <Gold.PLP.part.repulsive>
0.1156

> <Gold.PLP.ligand.clash>
0.0000

> <Gold.PLP.ligand.torsion>
0.7102

> <Gold.PLP.Chemscore.Hbond>
3.0000

> <Gold.PLP.Chemscore.CHOScore>
0.0000

> <Gold.PLP.Chemscore.Metal>
0.0000

> <Gold.Chemscore.Hbonds>
donor molecule, donor type, donor heavy atom, donor atom, acceptor molecule, acceptor atom, score
      L1  H    10    38       P1  8028  1.82
      P1  H  6931  6943       L1     1  1.00

> <Gold.PLP.Chemscore.Internal.Correction>
0.5115

> <Gold.Rescore>
     Score         DG    S(hbond)    S(metal)    S(lipo)     H(rot)  DE(clash)    DE(int)     intcor
     12.19     -13.00       1.87        0.00      64.00       2.42       0.13       0.68       ----

> <Gold.Chemscore.Fitness>
12.1864

> <Gold.Chemscore.DG>
-13.0017

> <Gold.Chemscore.ZeroCoef>
-5.4800

> <Gold.Chemscore.Hbond>
1.8686

> <Gold.Chemscore.Metal>
0.0000

> <Gold.Chemscore.Lipo>
63.9988

> <Gold.Chemscore.Internal_Hbond>
0.0000

> <Gold.Chemscore.DEClash>
0.1334

> <Gold.Chemscore.DEInternal>
0.6819

> <Gold.Chemscore.Rot>
2.4247

> <Gold.Chemscore.Internal.Correction>
   9.000000E+99

> <Gold.Chemscore.Hbonds>
donor molecule, donor type, donor heavy atom, donor atom, acceptor molecule, acceptor atom, score
      L1  H    10    38       P1  8028  0.88
      P1  H  6931  6943       L1     1  0.70

> <Gold.Chemscore.Hbond.Weighted>
-6.2411

> <Gold.Chemscore.Metal.Weighted>
-0.0000

> <Gold.Chemscore.Lipo.Weighted>
-7.4879

> <Gold.Chemscore.Internal_Hbond.Weighted>
0.0000

> <Gold.Chemscore.DEClash.Weighted>
0.1334

> <Gold.Chemscore.DEInternal.Weighted>
0.6819

> <Gold.Chemscore.Rot.Weighted>
6.2072

> <Gold.Chemscore.Internal.Correction.Weighted>
   9.000000E+99

> <Gold.Protein.RotatedTorsions>
[ 6907 6896 6895 6894 ] final  -70.22 input  -60.11 | X-H torsion
[ 7974 7965 7964 7962 ] final -113.16 input  175.53 | X-H torsion
[ 8008 7997 7996 7995 ] final  116.76 input   59.86 | X-H torsion
[ 10167 10162 10161 10158 ] final   -5.42 input  -65.29 | X-H torsion
[ 10718 10713 10712 10709 ] final  111.26 input   66.30 | X-H torsion
[ 10763 10752 10751 10750 ] final  132.21 input  -60.55 | X-H torsion
[ 11005 11000 10999 10996 ] final   49.57 input  -57.11 | X-H torsion

> <Gold.Protein.ActiveResidues>
 VAL166  LYS551  ARG553  GLY616  TRP617  ASP618  TYR619  PRO620  LYS621  CYS622 
 ASP623  PHE694  ASN695  SER759  ASP760  ASP761  ALA762  ILE779  LEU786  VAL792 
 PHE793  MET794  SER795  GLU796  ALA797  LYS798  CYS799  TRP800  GLU811  SER814 

> <Gold.Protein.RotatedAtoms>
  150.7268  134.5484  159.5781 H   0  0  0  0  0  0  0  0  0  0  0  0  # atno 6907 bound_to 6896
  152.2977  134.7644  160.0373 H   0  0  0  0  0  0  0  0  0  0  0  0  # atno 6908 bound_to 6896
  151.8236  133.3362  159.3628 H   0  0  0  0  0  0  0  0  0  0  0  0  # atno 6909 bound_to 6896
  145.1353  140.8747  143.3734 H   0  0  0  0  0  0  0  0  0  0  0  0  # atno 7974 bound_to 7965
  156.2457  140.2911  156.0573 H   0  0  0  0  0  0  0  0  0  0  0  0  # atno 8008 bound_to 7997
  155.1815  140.0404  157.2900 H   0  0  0  0  0  0  0  0  0  0  0  0  # atno 8009 bound_to 7997
  154.6256  140.2487  155.7502 H   0  0  0  0  0  0  0  0  0  0  0  0  # atno 8010 bound_to 7997
  140.6962  143.6310  150.8523 H   0  0  0  0  0  0  0  0  0  0  0  0  # atno 10167 bound_to 10162
  157.6453  131.0947  150.6723 H   0  0  0  0  0  0  0  0  0  0  0  0  # atno 10718 bound_to 10713
  153.7870  135.3160  155.3373 H   0  0  0  0  0  0  0  0  0  0  0  0  # atno 10763 bound_to 10752
  154.8140  135.4648  154.0595 H   0  0  0  0  0  0  0  0  0  0  0  0  # atno 10764 bound_to 10752
  153.1902  135.6907  153.8449 H   0  0  0  0  0  0  0  0  0  0  0  0  # atno 10765 bound_to 10752
  140.1092  134.4977  155.8692 H   0  0  0  0  0  0  0  0  0  0  0  0  # atno 11005 bound_to 11000
  145.0591  139.3120  143.5889 LP  0  0  0  0  0  0  0  0  0  0  0  0  # atno 17320 bound_to 7965
  146.3510  140.0026  142.8674 LP  0  0  0  0  0  0  0  0  0  0  0  0  # atno 17321 bound_to 7965
  140.0028  143.5725  152.2869 LP  0  0  0  0  0  0  0  0  0  0  0  0  # atno 17342 bound_to 10162
  139.6421  144.7655  151.2318 LP  0  0  0  0  0  0  0  0  0  0  0  0  # atno 17343 bound_to 10162
  156.7041  130.4632  149.5565 LP  0  0  0  0  0  0  0  0  0  0  0  0  # atno 17370 bound_to 10713
  156.1775  130.6477  151.0912 LP  0  0  0  0  0  0  0  0  0  0  0  0  # atno 17371 bound_to 10713
  141.2126  133.6721  156.6672 LP  0  0  0  0  0  0  0  0  0  0  0  0  # atno 17394 bound_to 11000
  140.3114  134.8083  157.4179 LP  0  0  0  0  0  0  0  0  0  0  0  0  # atno 17395 bound_to 11000

$$$$
