AV-unprocessed.smi:861|AV-procd|sdf|3974|dock5
  -GOLD-   22720 1453D 1   1.00000     0.00000
 Structure written by MMmdl.
 45 46  0  0  0  0  0  0  0  0  3 V2000
  149.5908  134.0292  154.8084 C   0  0  0  0  0  0  0  0  0  0  0  0
  149.4141  135.5400  155.0375 C   0  0  0  0  0  0  0  0  0  0  0  0
  150.0375  135.9499  156.3811 C   0  0  0  0  0  0  0  0  0  0  0  0
  147.9381  135.9835  154.9632 C   0  0  0  0  0  0  0  0  0  0  0  0
  147.7337  137.5089  155.0505 C   0  0  0  0  0  0  0  0  0  0  0  0
  148.4593  138.2358  153.9741 N   0  3  1  0  0  0  0  0  0  0  0  0
  147.6224  139.1786  153.1885 C   0  0  0  0  0  0  0  0  0  0  0  0
  147.3845  140.4943  153.9533 C   0  0  0  0  0  0  0  0  0  0  0  0
  148.6327  141.0638  154.3290 O   0  0  0  0  0  0  0  0  0  0  0  0
  149.3825  140.2168  155.1945 C   0  0  2  0  0  0  0  0  0  0  0  0
  150.6651  140.9598  155.5973 C   0  0  0  0  0  0  0  0  0  0  0  0
  150.3746  142.2630  156.1762 N   0  0  0  0  0  0  0  0  0  0  0  0
  150.9569  142.6503  157.3906 C   0  0  0  0  0  0  0  0  0  0  0  0
  151.8459  141.8423  158.1369 C   0  0  0  0  0  0  0  0  0  0  0  0
  152.3584  142.3529  159.3417 C   0  0  0  0  0  0  0  0  0  0  0  0
  151.9522  143.6424  159.7282 C   0  0  0  0  0  0  0  0  0  0  0  0
  151.1014  144.3994  159.0003 N   0  0  0  0  0  0  0  0  0  0  0  0
  150.6275  143.8826  157.8529 N   0  3  0  0  0  0  0  0  0  0  0  0
  149.6985  138.9089  154.4376 C   0  0  0  0  0  0  0  0  0  0  0  0
  149.0243  133.4485  155.5370 H   0  0  0  0  0  0  0  0  0  0  0  0
  150.6385  133.7411  154.9000 H   0  0  0  0  0  0  0  0  0  0  0  0
  149.2651  133.7284  153.8132 H   0  0  0  0  0  0  0  0  0  0  0  0
  149.9649  136.0646  154.2556 H   0  0  0  0  0  0  0  0  0  0  0  0
  149.5367  135.4598  157.2169 H   0  0  0  0  0  0  0  0  0  0  0  0
  149.9689  137.0269  156.5371 H   0  0  0  0  0  0  0  0  0  0  0  0
  151.0936  135.6819  156.4234 H   0  0  0  0  0  0  0  0  0  0  0  0
  147.4890  135.6053  154.0436 H   0  0  0  0  0  0  0  0  0  0  0  0
  147.3997  135.5023  155.7790 H   0  0  0  0  0  0  0  0  0  0  0  0
  146.6723  137.7564  155.0353 H   0  0  0  0  0  0  0  0  0  0  0  0
  148.1125  137.8503  156.0135 H   0  0  0  0  0  0  0  0  0  0  0  0
  148.1454  139.3992  152.2570 H   0  0  0  0  0  0  0  0  0  0  0  0
  146.6740  138.7264  152.9016 H   0  0  0  0  0  0  0  0  0  0  0  0
  146.8543  141.2030  153.3171 H   0  0  0  0  0  0  0  0  0  0  0  0
  146.7606  140.3384  154.8341 H   0  0  0  0  0  0  0  0  0  0  0  0
  148.8020  139.9947  156.0920 H   0  0  0  0  0  0  0  0  0  0  0  0
  151.2079  140.3695  156.3365 H   0  0  0  0  0  0  0  0  0  0  0  0
  151.3190  141.0771  154.7321 H   0  0  0  0  0  0  0  0  0  0  0  0
  149.8636  142.9384  155.6255 H   0  0  0  0  0  0  0  0  0  0  0  0
  152.1352  140.8552  157.8082 H   0  0  0  0  0  0  0  0  0  0  0  0
  153.0396  141.7769  159.9505 H   0  0  0  0  0  0  0  0  0  0  0  0
  152.3184  144.0796  160.6456 H   0  0  0  0  0  0  0  0  0  0  0  0
  150.2911  138.2331  155.0553 H   0  0  0  0  0  0  0  0  0  0  0  0
  150.3105  139.1341  153.5629 H   0  0  0  0  0  0  0  0  0  0  0  0
  148.7626  137.5163  153.3328 H   0  0  0  0  0  0  0  0  0  0  0  0
  149.9847  144.4493  157.2992 H   0  0  0  0  0  0  0  0  0  0  0  0
  1  2  1  0  0  0  0
  1 20  1  0  0  0  0
  1 21  1  0  0  0  0
  1 22  1  0  0  0  0
  2  3  1  0  0  0  0
  2  4  1  0  0  0  0
  2 23  1  0  0  0  0
  3 24  1  0  0  0  0
  3 25  1  0  0  0  0
  3 26  1  0  0  0  0
  4  5  1  0  0  0  0
  4 27  1  0  0  0  0
  4 28  1  0  0  0  0
  5  6  1  0  0  0  0
  5 29  1  0  0  0  0
  5 30  1  0  0  0  0
  6 19  1  0  0  0  0
  6  7  1  0  0  0  0
  6 44  1  0  0  0  0
  7  8  1  0  0  0  0
  7 31  1  0  0  0  0
  7 32  1  0  0  0  0
  8  9  1  0  0  0  0
  8 33  1  0  0  0  0
  8 34  1  0  0  0  0
  9 10  1  0  0  0  0
 10 11  1  0  0  0  0
 10 19  1  0  0  0  0
 10 35  1  0  0  0  0
 11 12  1  0  0  0  0
 11 36  1  0  0  0  0
 11 37  1  0  0  0  0
 12 13  1  0  0  0  0
 12 38  1  0  0  0  0
 13 18  1  0  0  0  0
 13 14  2  0  0  0  0
 14 15  1  0  0  0  0
 14 39  1  0  0  0  0
 15 16  2  0  0  0  0
 15 40  1  0  0  0  0
 16 17  1  0  0  0  0
 16 41  1  0  0  0  0
 17 18  2  0  0  0  0
 18 45  1  0  0  0  0
 19 42  1  0  0  0  0
 19 43  1  0  0  0  0
M  CHG  1   6   1
M  CHG  1  18   1
M  END
> <s_m_source_file>
AV-unprocessed.smi

> <i_m_source_file_index>
861

> <i_lp_mmshare_version>
43012

> <i_f3d_flags>
0

> <s_epik_input>
W0NIM11bQ0hdKFtDSDNdKVtDSDJdW0NIMl1OMVtDSDJdW0NIMl1PW0NASF0oW0NIMl0xKVtDSDJdW05IXWMyW2NIXVtjSF1bY0hdbm4y

> <s_epik_cmdline>
J2VwaWtfcHl0aG9uJywgJy1waCcsICc3LjAnLCAnLXRuJywgJzgnLCAnLW1hJywgJzIwMCcsICctbWV0YWxfYmluZGluZycsICctaW1hZScsICc8aW5maWxlLm1hZT4nLCAnLW9tYWUnLCAnPG91dGZpbGUubWFlPic=

> <r_lp_tautomer_probability>
0.966961

> <r_epik_Ionization_Penalty>
2.478

> <r_epik_Ionization_Penalty_Charging>
2.47799

> <r_epik_Ionization_Penalty_Neutral>
3.15286e-06

> <r_epik_State_Penalty>
2.10794

> <r_epik_Charging_Adjusted_Penalty>
4.58594

> <i_epik_Tot_Q>
2

> <i_epik_Tot_abs_Q>
2

> <r_epik_Metal_State_Penalty>
2.11378

> <b_epik_Metal_Only>
0

> <s_lp_Force_Field>
OPLS_2005

> <r_lp_Energy>
35.7333

> <b_lp_Chiralities_Consistent>
1

> <s_lp_Variant>
AV-unprocessed.smi:861-9

> <Gold.Version>
5.8.1

> <Gold.Id.Protein>
6NUR|6NUR_protein|mol2

> <Gold.PLP.Fitness>
47.7413

> <Gold.PLP.PLP>
-31.3160

> <Gold.PLP.part.hbond>
-3.0000

> <Gold.PLP.part.metal>
0.0000

> <Gold.PLP.part.buried>
-3.7307

> <Gold.PLP.part.nonpolar>
-24.4047

> <Gold.PLP.part.repulsive>
0.3637

> <Gold.PLP.ligand.clash>
0.0000

> <Gold.PLP.ligand.torsion>
0.7502

> <Gold.PLP.Chemscore.Hbond>
5.9520

> <Gold.PLP.Chemscore.CHOScore>
0.0000

> <Gold.PLP.Chemscore.Metal>
0.0000

> <Gold.Chemscore.Hbonds>
donor molecule, donor type, donor heavy atom, donor atom, acceptor molecule, acceptor atom, score
      L1  H     6    44       P1  7948  2.00
      L1  H    12    38       P1  8028  1.82
      L1  H    18    45       P1  8028  2.00

> <Gold.PLP.Chemscore.Internal.Correction>
0.0697

> <Gold.Rescore>
     Score         DG    S(hbond)    S(metal)    S(lipo)     H(rot)  DE(clash)    DE(int)     intcor
     16.94     -17.81       2.26        0.00      79.56       1.78       0.07       0.80       ----

> <Gold.Chemscore.Fitness>
16.9368

> <Gold.Chemscore.DG>
-17.8068

> <Gold.Chemscore.ZeroCoef>
-5.4800

> <Gold.Chemscore.Hbond>
2.2647

> <Gold.Chemscore.Metal>
0.0000

> <Gold.Chemscore.Lipo>
79.5635

> <Gold.Chemscore.Internal_Hbond>
0.0000

> <Gold.Chemscore.DEClash>
0.0706

> <Gold.Chemscore.DEInternal>
0.7994

> <Gold.Chemscore.Rot>
1.7759

> <Gold.Chemscore.Internal.Correction>
   9.000000E+99

> <Gold.Chemscore.Hbonds>
donor molecule, donor type, donor heavy atom, donor atom, acceptor molecule, acceptor atom, score
      L1  H     6    44       P1  7948  0.99
      L1  H    12    38       P1  8028  0.84
      L1  H    18    45       P1  8028  0.38

> <Gold.Chemscore.Hbond.Weighted>
-7.5641

> <Gold.Chemscore.Metal.Weighted>
-0.0000

> <Gold.Chemscore.Lipo.Weighted>
-9.3089

> <Gold.Chemscore.Internal_Hbond.Weighted>
0.0000

> <Gold.Chemscore.DEClash.Weighted>
0.0706

> <Gold.Chemscore.DEInternal.Weighted>
0.7994

> <Gold.Chemscore.Rot.Weighted>
4.5462

> <Gold.Chemscore.Internal.Correction.Weighted>
   9.000000E+99

> <Gold.Protein.RotatedTorsions>
[ 6907 6896 6895 6894 ] final -115.53 input  -60.11 | X-H torsion
[ 7974 7965 7964 7962 ] final  -45.00 input  175.53 | X-H torsion
[ 8008 7997 7996 7995 ] final   84.41 input   59.86 | X-H torsion
[ 10167 10162 10161 10158 ] final   58.61 input  -65.29 | X-H torsion
[ 10718 10713 10712 10709 ] final -135.47 input   66.30 | X-H torsion
[ 10763 10752 10751 10750 ] final  -13.04 input  -60.55 | X-H torsion
[ 11005 11000 10999 10996 ] final   -1.34 input  -57.11 | X-H torsion

> <Gold.Protein.ActiveResidues>
 VAL166  LYS551  ARG553  GLY616  TRP617  ASP618  TYR619  PRO620  LYS621  CYS622 
 ASP623  PHE694  ASN695  SER759  ASP760  ASP761  ALA762  ILE779  LEU786  VAL792 
 PHE793  MET794  SER795  GLU796  ALA797  LYS798  CYS799  TRP800  GLU811  SER814 

> <Gold.Protein.RotatedAtoms>
  150.7985  133.8646  159.3241 H   0  0  0  0  0  0  0  0  0  0  0  0  # atno 6907 bound_to 6896
  151.6465  135.1005  160.0161 H   0  0  0  0  0  0  0  0  0  0  0  0  # atno 6908 bound_to 6896
  152.4069  133.6864  159.6399 H   0  0  0  0  0  0  0  0  0  0  0  0  # atno 6909 bound_to 6896
  145.9864  140.7228  142.9338 H   0  0  0  0  0  0  0  0  0  0  0  0  # atno 7974 bound_to 7965
  155.9367  140.3411  155.6293 H   0  0  0  0  0  0  0  0  0  0  0  0  # atno 8008 bound_to 7997
  155.7091  140.0769  157.2397 H   0  0  0  0  0  0  0  0  0  0  0  0  # atno 8009 bound_to 7997
  154.4095  140.1626  156.2263 H   0  0  0  0  0  0  0  0  0  0  0  0  # atno 8010 bound_to 7997
  140.1854  144.4140  150.6596 H   0  0  0  0  0  0  0  0  0  0  0  0  # atno 10167 bound_to 10162
  156.2666  130.7241  151.1193 H   0  0  0  0  0  0  0  0  0  0  0  0  # atno 10718 bound_to 10713
  153.5074  135.7016  153.5799 H   0  0  0  0  0  0  0  0  0  0  0  0  # atno 10763 bound_to 10752
  153.3904  135.3897  155.1919 H   0  0  0  0  0  0  0  0  0  0  0  0  # atno 10764 bound_to 10752
  154.8706  135.3857  154.4550 H   0  0  0  0  0  0  0  0  0  0  0  0  # atno 10765 bound_to 10752
  140.6463  133.9445  155.8354 H   0  0  0  0  0  0  0  0  0  0  0  0  # atno 11005 bound_to 11000
  144.6876  140.2995  143.7265 LP  0  0  0  0  0  0  0  0  0  0  0  0  # atno 17320 bound_to 7965
  145.7694  139.1852  143.2221 LP  0  0  0  0  0  0  0  0  0  0  0  0  # atno 17321 bound_to 7965
  140.6492  143.2220  151.6117 LP  0  0  0  0  0  0  0  0  0  0  0  0  # atno 17342 bound_to 10162
  139.5278  144.3006  152.1077 LP  0  0  0  0  0  0  0  0  0  0  0  0  # atno 17343 bound_to 10162
  157.7269  131.0643  150.5888 LP  0  0  0  0  0  0  0  0  0  0  0  0  # atno 17370 bound_to 10713
  156.5980  130.4347  149.5909 LP  0  0  0  0  0  0  0  0  0  0  0  0  # atno 17371 bound_to 10713
  141.0570  134.0402  157.3709 LP  0  0  0  0  0  0  0  0  0  0  0  0  # atno 17394 bound_to 11000
  139.9062  135.0180  156.7495 LP  0  0  0  0  0  0  0  0  0  0  0  0  # atno 17395 bound_to 11000

$$$$
