AV-unprocessed.smi:39|AV-procd|sdf|352|dock5
  -GOLD-   2262016193D 1   1.00000     0.00000
 Structure written by MMmdl.
 32 33  0  0  0  0  0  0  0  0  3 V2000
  152.6178  142.9866  160.0367 C   0  0  0  0  0  0  0  0  0  0  0  0
  152.0450  142.4005  158.7566 C   0  0  0  0  0  0  0  0  0  0  0  0
  152.2415  141.1057  158.3974 C   0  0  0  0  0  0  0  0  0  0  0  0
  151.7294  140.5416  157.2341 N   0  0  0  0  0  0  0  0  0  0  0  0
  151.9701  139.0954  156.8456 C   0  0  2  0  0  0  0  0  0  0  0  0
  151.3210  138.1415  157.8631 C   0  0  0  0  0  0  0  0  0  0  0  0
  152.4609  137.2010  158.2138 C   0  0  2  0  0  0  0  0  0  0  0  0
  152.3208  136.6608  159.5695 N   0  0  0  0  0  0  0  0  0  0  0  0
  153.2046  136.9598  160.3833 N   0  3  0  0  0  0  0  0  0  0  0  0
  153.9947  137.3550  161.1009 N   0  5  0  0  0  0  0  0  0  0  0  0
  153.6760  138.1177  158.0492 C   0  0  1  0  0  0  0  0  0  0  0  0
  155.0070  137.3772  157.8458 C   0  0  0  0  0  0  0  0  0  0  0  0
  154.9410  136.5874  156.6781 O   0  0  0  0  0  0  0  0  0  0  0  0
  153.3391  138.8175  156.8562 O   0  0  0  0  0  0  0  0  0  0  0  0
  150.9735  141.3458  156.3562 C   0  0  0  0  0  0  0  0  0  0  0  0
  150.5000  140.9177  155.3041 O   0  0  0  0  0  0  0  0  0  0  0  0
  150.7712  142.6743  156.7247 N   0  0  0  0  0  0  0  0  0  0  0  0
  151.2582  143.2781  157.8858 C   0  0  0  0  0  0  0  0  0  0  0  0
  151.0114  144.4632  158.1034 O   0  0  0  0  0  0  0  0  0  0  0  0
  151.5891  138.9936  155.8276 H   0  0  0  0  0  0  0  0  0  0  0  0
  152.4951  136.4079  157.4628 H   0  0  0  0  0  0  0  0  0  0  0  0
  153.7336  138.8090  158.8927 H   0  0  0  0  0  0  0  0  0  0  0  0
  150.2275  143.2501  156.0987 H   0  0  0  0  0  0  0  0  0  0  0  0
  153.1685  142.2426  160.6131 H   0  0  0  0  0  0  0  0  0  0  0  0
  151.8188  143.3738  160.6701 H   0  0  0  0  0  0  0  0  0  0  0  0
  153.3011  143.8051  159.8079 H   0  0  0  0  0  0  0  0  0  0  0  0
  152.8323  140.4974  159.0653 H   0  0  0  0  0  0  0  0  0  0  0  0
  150.9898  138.7007  158.7403 H   0  0  0  0  0  0  0  0  0  0  0  0
  150.4623  137.6305  157.4267 H   0  0  0  0  0  0  0  0  0  0  0  0
  155.8224  138.0870  157.7092 H   0  0  0  0  0  0  0  0  0  0  0  0
  155.2555  136.7608  158.7102 H   0  0  0  0  0  0  0  0  0  0  0  0
  155.7354  136.7158  156.1827 H   0  0  0  0  0  0  0  0  0  0  0  0
  1  2  1  0  0  0  0
  1 24  1  0  0  0  0
  1 25  1  0  0  0  0
  1 26  1  0  0  0  0
  2 18  1  0  0  0  0
  2  3  2  0  0  0  0
  3  4  1  0  0  0  0
  3 27  1  0  0  0  0
  4  5  1  0  0  0  0
  4 15  1  0  0  0  0
  5 20  1  0  0  0  0
  5 14  1  0  0  0  0
  5  6  1  0  0  0  0
  6  7  1  0  0  0  0
  6 28  1  0  0  0  0
  6 29  1  0  0  0  0
  7 21  1  0  0  0  0
  7  8  1  0  0  0  0
  7 11  1  0  0  0  0
  8  9  2  0  0  0  0
  9 10  2  0  0  0  0
 11 22  1  0  0  0  0
 11 12  1  0  0  0  0
 11 14  1  0  0  0  0
 12 13  1  0  0  0  0
 12 30  1  0  0  0  0
 12 31  1  0  0  0  0
 13 32  1  0  0  0  0
 15 16  2  0  0  0  0
 15 17  1  0  0  0  0
 17 23  1  0  0  0  0
 17 18  1  0  0  0  0
 18 19  2  0  0  0  0
M  CHG  1   9   1
M  CHG  1  10  -1
M  END
> <s_m_source_file>
AV-unprocessed.smi

> <i_m_source_file_index>
39

> <i_lp_mmshare_version>
43012

> <i_f3d_flags>
0

> <s_epik_input>
Tz1jMVtuSF1jKD1PKW4oW2NIXWMxW0NIM10pW0NASF0yW0NIMl1bQ0BIXShOPVtOK109W04tXSlbQ0BIXShPMilbQ0gyXVtPSF0=

> <s_epik_cmdline>
J2VwaWtfcHl0aG9uJywgJy1waCcsICc3LjAnLCAnLXRuJywgJzgnLCAnLW1hJywgJzIwMCcsICctbWV0YWxfYmluZGluZycsICctaW1hZScsICc8aW5maWxlLm1hZT4nLCAnLW9tYWUnLCAnPG91dGZpbGUubWFlPic=

> <r_lp_tautomer_probability>
0.999537

> <r_epik_Ionization_Penalty>
0.00127512

> <r_epik_Ionization_Penalty_Charging>
0.00127507

> <r_epik_Ionization_Penalty_Neutral>
5.43433e-08

> <r_epik_State_Penalty>
0.000844892

> <r_epik_Charging_Adjusted_Penalty>
0.00211996

> <i_epik_Tot_Q>
0

> <i_epik_Tot_abs_Q>
2

> <r_epik_Metal_State_Penalty>
0.680636

> <b_epik_Metal_Only>
0

> <s_epik_Chemistry_Notes>
This compound contains an acetal/aminal-like group ( X-CH(R)-Y where X, Y are N, S, or O) that may be acid/base labile, releasing an aldehyde.

> <s_lp_Force_Field>
OPLS_2005

> <r_lp_Energy>
24.5803

> <b_lp_Chiralities_Consistent>
1

> <s_lp_Variant>
AV-unprocessed.smi:39-2

> <Gold.Version>
5.8.1

> <Gold.Id.Protein>
6NUR|6NUR_protein|mol2

> <Gold.PLP.Fitness>
40.8937

> <Gold.PLP.PLP>
-27.4272

> <Gold.PLP.part.hbond>
-5.5762

> <Gold.PLP.part.metal>
0.0000

> <Gold.PLP.part.buried>
-5.3700

> <Gold.PLP.part.nonpolar>
-16.7012

> <Gold.PLP.part.repulsive>
0.3103

> <Gold.PLP.ligand.clash>
0.0000

> <Gold.PLP.ligand.torsion>
0.0774

> <Gold.PLP.Chemscore.Hbond>
4.5273

> <Gold.PLP.Chemscore.CHOScore>
0.0000

> <Gold.PLP.Chemscore.Metal>
0.0000

> <Gold.Chemscore.Hbonds>
donor molecule, donor type, donor heavy atom, donor atom, acceptor molecule, acceptor atom, score
      L1  H    17    23       P1  8028  0.99
      P1  H  6896  6909       L1     8  1.00
      P1  H  7989  7998       L1    16  0.59
      P1  H  7997  8009       L1    14  1.00
      P1  H 10752 10765       L1    13  0.71

> <Gold.PLP.Chemscore.Internal.Correction>
0.0394

> <Gold.Rescore>
     Score         DG    S(hbond)    S(metal)    S(lipo)     H(rot)  DE(clash)    DE(int)     intcor
     14.93     -15.08       3.46        0.00      43.43       2.75       0.03       0.12       ----

> <Gold.Chemscore.Fitness>
14.9282

> <Gold.Chemscore.DG>
-15.0751

> <Gold.Chemscore.ZeroCoef>
-5.4800

> <Gold.Chemscore.Hbond>
3.4612

> <Gold.Chemscore.Metal>
0.0000

> <Gold.Chemscore.Lipo>
43.4252

> <Gold.Chemscore.Internal_Hbond>
0.0000

> <Gold.Chemscore.DEClash>
0.0308

> <Gold.Chemscore.DEInternal>
0.1161

> <Gold.Chemscore.Rot>
2.7524

> <Gold.Chemscore.Internal.Correction>
   9.000000E+99

> <Gold.Chemscore.Hbonds>
donor molecule, donor type, donor heavy atom, donor atom, acceptor molecule, acceptor atom, score
      L1  H    17    23       P1  8028  0.90
      P1  H  6896  6909       L1     8  0.68
      P1  H  7989  7998       L1    16  0.57
      P1  H  7997  8009       L1    14  0.78
      P1  H 10752 10765       L1    13  0.13

> <Gold.Chemscore.Hbond.Weighted>
-11.5605

> <Gold.Chemscore.Metal.Weighted>
-0.0000

> <Gold.Chemscore.Lipo.Weighted>
-5.0808

> <Gold.Chemscore.Internal_Hbond.Weighted>
0.0000

> <Gold.Chemscore.DEClash.Weighted>
0.0308

> <Gold.Chemscore.DEInternal.Weighted>
0.1161

> <Gold.Chemscore.Rot.Weighted>
7.0461

> <Gold.Chemscore.Internal.Correction.Weighted>
   9.000000E+99

> <Gold.Protein.RotatedTorsions>
[ 6907 6896 6895 6894 ] final  123.18 input  -60.11 | X-H torsion
[ 7974 7965 7964 7962 ] final  -65.30 input  175.53 | X-H torsion
[ 8008 7997 7996 7995 ] final -173.30 input   59.86 | X-H torsion
[ 10167 10162 10161 10158 ] final  117.84 input  -65.29 | X-H torsion
[ 10718 10713 10712 10709 ] final  -63.55 input   66.30 | X-H torsion
[ 10763 10752 10751 10750 ] final  -95.71 input  -60.55 | X-H torsion
[ 11005 11000 10999 10996 ] final   77.42 input  -57.11 | X-H torsion

> <Gold.Protein.ActiveResidues>
 VAL166  LYS551  ARG553  GLY616  TRP617  ASP618  TYR619  PRO620  LYS621  CYS622 
 ASP623  PHE694  ASN695  SER759  ASP760  ASP761  ALA762  ILE779  LEU786  VAL792 
 PHE793  MET794  SER795  GLU796  ALA797  LYS798  CYS799  TRP800  GLU811  SER814 

> <Gold.Protein.RotatedAtoms>
  152.4182  133.7073  159.6458 H   0  0  0  0  0  0  0  0  0  0  0  0  # atno 6907 bound_to 6896
  150.8059  133.8501  159.3211 H   0  0  0  0  0  0  0  0  0  0  0  0  # atno 6908 bound_to 6896
  151.6225  135.1032  160.0156 H   0  0  0  0  0  0  0  0  0  0  0  0  # atno 6909 bound_to 6896
  145.7559  140.8885  143.0455 H   0  0  0  0  0  0  0  0  0  0  0  0  # atno 7974 bound_to 7965
  155.9557  140.1135  157.0939 H   0  0  0  0  0  0  0  0  0  0  0  0  # atno 8008 bound_to 7997
  154.4120  140.1192  156.5178 H   0  0  0  0  0  0  0  0  0  0  0  0  # atno 8009 bound_to 7997
  155.6785  140.3473  155.4848 H   0  0  0  0  0  0  0  0  0  0  0  0  # atno 8010 bound_to 7997
  139.6151  144.7090  151.2757 H   0  0  0  0  0  0  0  0  0  0  0  0  # atno 10167 bound_to 10162
  156.0784  130.4222  150.1293 H   0  0  0  0  0  0  0  0  0  0  0  0  # atno 10718 bound_to 10713
  154.7173  135.5110  153.8757 H   0  0  0  0  0  0  0  0  0  0  0  0  # atno 10763 bound_to 10752
  153.0831  135.6637  154.0012 H   0  0  0  0  0  0  0  0  0  0  0  0  # atno 10764 bound_to 10752
  153.9842  135.3026  155.3397 H   0  0  0  0  0  0  0  0  0  0  0  0  # atno 10765 bound_to 10752
  139.9255  134.7681  156.1519 H   0  0  0  0  0  0  0  0  0  0  0  0  # atno 11005 bound_to 11000
  144.6840  139.9656  143.7481 LP  0  0  0  0  0  0  0  0  0  0  0  0  # atno 17320 bound_to 7965
  146.0311  139.3336  143.0754 LP  0  0  0  0  0  0  0  0  0  0  0  0  # atno 17321 bound_to 7965
  140.7346  143.6762  150.8039 LP  0  0  0  0  0  0  0  0  0  0  0  0  # atno 17342 bound_to 10162
  140.0364  143.5391  152.2737 LP  0  0  0  0  0  0  0  0  0  0  0  0  # atno 17343 bound_to 10162
  156.9330  130.9720  151.3529 LP  0  0  0  0  0  0  0  0  0  0  0  0  # atno 17370 bound_to 10713
  157.5890  130.8430  149.8631 LP  0  0  0  0  0  0  0  0  0  0  0  0  # atno 17371 bound_to 10713
  141.0810  133.6754  156.2335 LP  0  0  0  0  0  0  0  0  0  0  0  0  # atno 17394 bound_to 11000
  140.6348  134.5227  157.5563 LP  0  0  0  0  0  0  0  0  0  0  0  0  # atno 17395 bound_to 11000

$$$$
