AV-unprocessed.smi:1645|AV-procd|sdf|6613|dock5
  -GOLD-   22720 7313D 1   1.00000     0.00000
 Structure written by MMmdl.
 56 59  0  0  0  0  0  0  0  0  3 V2000
  148.7640  135.3197  156.1627 O   0  0  0  0  0  0  0  0  0  0  0  0
  149.0209  135.6296  154.9997 C   0  0  0  0  0  0  0  0  0  0  0  0
  149.6500  136.7539  154.6164 N   0  0  0  0  0  0  0  0  0  0  0  0
  150.0702  137.8510  155.4171 C   0  0  0  0  0  0  0  0  0  0  0  0
  150.9796  138.7687  154.8522 C   0  0  0  0  0  0  0  0  0  0  0  0
  151.4066  139.8861  155.5987 C   0  0  0  0  0  0  0  0  0  0  0  0
  150.9118  140.0901  156.9116 C   0  0  0  0  0  0  0  0  0  0  0  0
  151.2800  141.1796  157.7342 N   0  0  0  0  0  0  0  0  0  0  0  0
  151.0162  142.5179  157.1942 C   0  0  0  0  0  0  0  0  0  0  0  0
  151.0574  143.5903  158.2959 C   0  0  0  0  0  0  0  0  0  0  0  0
  152.3679  143.5174  159.0904 C   0  0  0  0  0  0  0  0  0  0  0  0
  152.5530  142.1033  159.6562 C   0  0  0  0  0  0  0  0  0  0  0  0
  152.4954  141.0458  158.5406 C   0  0  0  0  0  0  0  0  0  0  0  0
  150.0343  139.1836  157.4066 N   0  3  0  0  0  0  0  0  0  0  0  0
  149.6009  138.0991  156.7286 C   0  0  0  0  0  0  0  0  0  0  0  0
  148.7197  134.8573  153.9461 N   0  0  0  0  0  0  0  0  0  0  0  0
  148.0397  133.5667  154.0162 C   0  0  1  0  0  0  0  0  0  0  0  0
  146.9432  133.4068  152.9695 C   0  0  0  0  0  0  0  0  0  0  0  0
  146.7612  131.8889  152.9251 C   0  0  0  0  0  0  0  0  0  0  0  0
  148.1045  131.3129  153.1627 N   0  3  2  0  0  0  0  0  0  0  0  0
  148.1061  130.0323  153.9112 C   0  0  0  0  0  0  0  0  0  0  0  0
  149.5447  129.5156  154.0968 C   0  0  0  0  0  0  0  0  0  0  0  0
  150.4976  130.5783  154.6833 C   0  0  0  0  0  0  0  0  0  0  0  0
  149.7932  131.9185  154.9477 C   0  0  0  0  0  0  0  0  0  0  0  0
  148.9787  132.3846  153.7195 C   0  0  2  0  0  0  0  0  0  0  0  0
  149.8707  136.8266  153.6340 H   0  0  0  0  0  0  0  0  0  0  0  0
  151.3528  138.6216  153.8491 H   0  0  0  0  0  0  0  0  0  0  0  0
  152.0989  140.5749  155.1388 H   0  0  0  0  0  0  0  0  0  0  0  0
  151.7659  142.7383  156.4332 H   0  0  0  0  0  0  0  0  0  0  0  0
  150.0452  142.5709  156.7024 H   0  0  0  0  0  0  0  0  0  0  0  0
  150.9411  144.5809  157.8554 H   0  0  0  0  0  0  0  0  0  0  0  0
  150.2127  143.4517  158.9720 H   0  0  0  0  0  0  0  0  0  0  0  0
  153.2087  143.7711  158.4434 H   0  0  0  0  0  0  0  0  0  0  0  0
  152.3603  144.2499  159.8981 H   0  0  0  0  0  0  0  0  0  0  0  0
  153.5029  142.0330  160.1866 H   0  0  0  0  0  0  0  0  0  0  0  0
  151.7724  141.9002  160.3906 H   0  0  0  0  0  0  0  0  0  0  0  0
  152.5362  140.0599  159.0042 H   0  0  0  0  0  0  0  0  0  0  0  0
  153.3668  141.1382  157.8909 H   0  0  0  0  0  0  0  0  0  0  0  0
  148.8879  137.4895  157.2625 H   0  0  0  0  0  0  0  0  0  0  0  0
  148.9718  135.1894  153.0263 H   0  0  0  0  0  0  0  0  0  0  0  0
  147.5790  133.4343  154.9978 H   0  0  0  0  0  0  0  0  0  0  0  0
  146.0251  133.9349  153.2294 H   0  0  0  0  0  0  0  0  0  0  0  0
  147.2827  133.7713  151.9986 H   0  0  0  0  0  0  0  0  0  0  0  0
  146.0808  131.5861  153.7226 H   0  0  0  0  0  0  0  0  0  0  0  0
  146.3401  131.5451  151.9799 H   0  0  0  0  0  0  0  0  0  0  0  0
  147.6277  130.1702  154.8824 H   0  0  0  0  0  0  0  0  0  0  0  0
  147.5115  129.2953  153.3700 H   0  0  0  0  0  0  0  0  0  0  0  0
  149.5353  128.6315  154.7352 H   0  0  0  0  0  0  0  0  0  0  0  0
  149.9328  129.1840  153.1327 H   0  0  0  0  0  0  0  0  0  0  0  0
  150.9471  130.2111  155.6064 H   0  0  0  0  0  0  0  0  0  0  0  0
  151.3238  130.7389  153.9896 H   0  0  0  0  0  0  0  0  0  0  0  0
  149.1370  131.8135  155.8128 H   0  0  0  0  0  0  0  0  0  0  0  0
  150.5298  132.6747  155.2201 H   0  0  0  0  0  0  0  0  0  0  0  0
  149.6671  132.6582  152.9180 H   0  0  0  0  0  0  0  0  0  0  0  0
  148.4888  131.1036  152.2523 H   0  0  0  0  0  0  0  0  0  0  0  0
  149.6755  139.3298  158.3503 H   0  0  0  0  0  0  0  0  0  0  0  0
  1  2  2  0  0  0  0
  2  3  1  0  0  0  0
  2 16  1  0  0  0  0
  3  4  1  0  0  0  0
  3 26  1  0  0  0  0
  4 15  1  0  0  0  0
  4  5  2  0  0  0  0
  5  6  1  0  0  0  0
  5 27  1  0  0  0  0
  6  7  2  0  0  0  0
  6 28  1  0  0  0  0
  7  8  1  0  0  0  0
  7 14  1  0  0  0  0
  8 13  1  0  0  0  0
  8  9  1  0  0  0  0
  9 10  1  0  0  0  0
  9 29  1  0  0  0  0
  9 30  1  0  0  0  0
 10 11  1  0  0  0  0
 10 31  1  0  0  0  0
 10 32  1  0  0  0  0
 11 12  1  0  0  0  0
 11 33  1  0  0  0  0
 11 34  1  0  0  0  0
 12 13  1  0  0  0  0
 12 35  1  0  0  0  0
 12 36  1  0  0  0  0
 13 37  1  0  0  0  0
 13 38  1  0  0  0  0
 14 15  2  0  0  0  0
 14 56  1  0  0  0  0
 15 39  1  0  0  0  0
 16 17  1  0  0  0  0
 16 40  1  0  0  0  0
 17 25  1  0  0  0  0
 17 18  1  0  0  0  0
 17 41  1  0  0  0  0
 18 19  1  0  0  0  0
 18 42  1  0  0  0  0
 18 43  1  0  0  0  0
 19 20  1  0  0  0  0
 19 44  1  0  0  0  0
 19 45  1  0  0  0  0
 20 25  1  0  0  0  0
 20 21  1  0  0  0  0
 20 55  1  0  0  0  0
 21 22  1  0  0  0  0
 21 46  1  0  0  0  0
 21 47  1  0  0  0  0
 22 23  1  0  0  0  0
 22 48  1  0  0  0  0
 22 49  1  0  0  0  0
 23 24  1  0  0  0  0
 23 50  1  0  0  0  0
 23 51  1  0  0  0  0
 24 25  1  0  0  0  0
 24 52  1  0  0  0  0
 24 53  1  0  0  0  0
 25 54  1  0  0  0  0
M  CHG  1  14   1
M  CHG  1  20   1
M  END
> <s_m_source_file>
AV-unprocessed.smi

> <i_m_source_file_index>
1645

> <i_lp_mmshare_version>
43012

> <i_f3d_flags>
0

> <s_epik_input>
W0NIMl0xW0NIMl1bQ0gyXVtDSDJdW0NASF0oTjEyKVtDQEBIXShbQ0gyXVtDSDJdMilbTkhdQyg9TylbTkhdYzNbY0hdW2NIXWMobltjSF0zKU40W0NIMl1bQ0gyXVtDSDJdW0NIMl1bQ0gyXTQ=

> <s_epik_cmdline>
J2VwaWtfcHl0aG9uJywgJy1waCcsICc3LjAnLCAnLXRuJywgJzgnLCAnLW1hJywgJzIwMCcsICctbWV0YWxfYmluZGluZycsICctaW1hZScsICc8aW5maWxlLm1hZT4nLCAnLW9tYWUnLCAnPG91dGZpbGUubWFlPic=

> <r_lp_tautomer_probability>
0.999994

> <r_epik_Ionization_Penalty>
1.26838

> <r_epik_Ionization_Penalty_Charging>
1.26836

> <r_epik_Ionization_Penalty_Neutral>
1.95562e-05

> <r_epik_State_Penalty>
1.33841

> <r_epik_Charging_Adjusted_Penalty>
2.60677

> <i_epik_Tot_Q>
2

> <i_epik_Tot_abs_Q>
2

> <r_epik_Metal_State_Penalty>
1.40601

> <b_epik_Metal_Only>
0

> <s_lp_Force_Field>
OPLS_2005

> <r_lp_Energy>
63.6988

> <b_lp_Chiralities_Consistent>
1

> <s_lp_Variant>
AV-unprocessed.smi:1645-14

> <Gold.Version>
5.8.1

> <Gold.Id.Protein>
6NUR|6NUR_protein|mol2

> <Gold.PLP.Fitness>
49.4950

> <Gold.PLP.PLP>
-42.1824

> <Gold.PLP.part.hbond>
-3.0000

> <Gold.PLP.part.metal>
0.0000

> <Gold.PLP.part.buried>
-4.6914

> <Gold.PLP.part.nonpolar>
-34.5479

> <Gold.PLP.part.repulsive>
0.1115

> <Gold.PLP.ligand.clash>
0.0000

> <Gold.PLP.ligand.torsion>
0.5777

> <Gold.PLP.Chemscore.Hbond>
2.6489

> <Gold.PLP.Chemscore.CHOScore>
0.0000

> <Gold.PLP.Chemscore.Metal>
0.0000

> <Gold.Chemscore.Hbonds>
donor molecule, donor type, donor heavy atom, donor atom, acceptor molecule, acceptor atom, score
      L1  H     3    26       P1  7948  0.71
      L1  H    16    40       P1  7948  0.98
      L1  H    20    55       P1 10747  0.99

> <Gold.PLP.Chemscore.Internal.Correction>
0.5214

> <Gold.Rescore>
     Score         DG    S(hbond)    S(metal)    S(lipo)     H(rot)  DE(clash)    DE(int)     intcor
     20.74     -22.65       2.23        0.00     109.03       1.18       0.25       1.66       ----

> <Gold.Chemscore.Fitness>
20.7422

> <Gold.Chemscore.DG>
-22.6507

> <Gold.Chemscore.ZeroCoef>
-5.4800

> <Gold.Chemscore.Hbond>
2.2288

> <Gold.Chemscore.Metal>
0.0000

> <Gold.Chemscore.Lipo>
109.0251

> <Gold.Chemscore.Internal_Hbond>
0.0000

> <Gold.Chemscore.DEClash>
0.2472

> <Gold.Chemscore.DEInternal>
1.6613

> <Gold.Chemscore.Rot>
1.1833

> <Gold.Chemscore.Internal.Correction>
   9.000000E+99

> <Gold.Chemscore.Hbonds>
donor molecule, donor type, donor heavy atom, donor atom, acceptor molecule, acceptor atom, score
      L1  H     3    26       P1  7948  0.27
      L1  H    16    40       P1  7948  0.23
      L1  H    20    55       P1 10747  0.89

> <Gold.Chemscore.Hbond.Weighted>
-7.4441

> <Gold.Chemscore.Metal.Weighted>
-0.0000

> <Gold.Chemscore.Lipo.Weighted>
-12.7559

> <Gold.Chemscore.Internal_Hbond.Weighted>
0.0000

> <Gold.Chemscore.DEClash.Weighted>
0.2472

> <Gold.Chemscore.DEInternal.Weighted>
1.6613

> <Gold.Chemscore.Rot.Weighted>
3.0293

> <Gold.Chemscore.Internal.Correction.Weighted>
   9.000000E+99

> <Gold.Protein.RotatedTorsions>
[ 6907 6896 6895 6894 ] final  -30.76 input  -60.11 | X-H torsion
[ 7974 7965 7964 7962 ] final  157.45 input  175.53 | X-H torsion
[ 8008 7997 7996 7995 ] final  -63.39 input   59.86 | X-H torsion
[ 10167 10162 10161 10158 ] final  -52.17 input  -65.29 | X-H torsion
[ 10718 10713 10712 10709 ] final   63.98 input   66.30 | X-H torsion
[ 10763 10752 10751 10750 ] final   70.23 input  -60.55 | X-H torsion
[ 11005 11000 10999 10996 ] final  109.78 input  -57.11 | X-H torsion

> <Gold.Protein.ActiveResidues>
 VAL166  LYS551  ARG553  GLY616  TRP617  ASP618  TYR619  PRO620  LYS621  CYS622 
 ASP623  PHE694  ASN695  SER759  ASP760  ASP761  ALA762  ILE779  LEU786  VAL792 
 PHE793  MET794  SER795  GLU796  ALA797  LYS798  CYS799  TRP800  GLU811  SER814 

> <Gold.Protein.RotatedAtoms>
  151.1012  134.9973  159.8449 H   0  0  0  0  0  0  0  0  0  0  0  0  # atno 6907 bound_to 6896
  152.5437  134.1948  159.8698 H   0  0  0  0  0  0  0  0  0  0  0  0  # atno 6908 bound_to 6896
  151.1991  133.4577  159.2629 H   0  0  0  0  0  0  0  0  0  0  0  0  # atno 6909 bound_to 6896
  144.7902  139.7343  143.6224 H   0  0  0  0  0  0  0  0  0  0  0  0  # atno 7974 bound_to 7965
  154.4551  140.0976  156.6735 H   0  0  0  0  0  0  0  0  0  0  0  0  # atno 8008 bound_to 7997
  155.5162  140.3477  155.4379 H   0  0  0  0  0  0  0  0  0  0  0  0  # atno 8009 bound_to 7997
  156.0762  140.1361  156.9758 H   0  0  0  0  0  0  0  0  0  0  0  0  # atno 8010 bound_to 7997
  140.6551  143.2593  151.4609 H   0  0  0  0  0  0  0  0  0  0  0  0  # atno 10167 bound_to 10162
  157.6009  130.9135  149.9786 H   0  0  0  0  0  0  0  0  0  0  0  0  # atno 10718 bound_to 10713
  153.0330  135.5181  154.7410 H   0  0  0  0  0  0  0  0  0  0  0  0  # atno 10763 bound_to 10752
  154.6409  135.2912  155.0107 H   0  0  0  0  0  0  0  0  0  0  0  0  # atno 10764 bound_to 10752
  154.1025  135.6634  153.4923 H   0  0  0  0  0  0  0  0  0  0  0  0  # atno 10765 bound_to 10752
  139.8869  134.9467  156.6179 H   0  0  0  0  0  0  0  0  0  0  0  0  # atno 11005 bound_to 11000
  146.2151  139.5535  142.9655 LP  0  0  0  0  0  0  0  0  0  0  0  0  # atno 17320 bound_to 7965
  145.5814  141.0382  143.2120 LP  0  0  0  0  0  0  0  0  0  0  0  0  # atno 17321 bound_to 7965
  139.5772  144.1792  152.1919 LP  0  0  0  0  0  0  0  0  0  0  0  0  # atno 17342 bound_to 10162
  140.1106  144.5460  150.6928 LP  0  0  0  0  0  0  0  0  0  0  0  0  # atno 17343 bound_to 10162
  156.1081  130.3651  150.0097 LP  0  0  0  0  0  0  0  0  0  0  0  0  # atno 17370 bound_to 10713
  156.8200  130.9355  151.3641 LP  0  0  0  0  0  0  0  0  0  0  0  0  # atno 17371 bound_to 10713
  140.7762  133.8698  155.8531 LP  0  0  0  0  0  0  0  0  0  0  0  0  # atno 17394 bound_to 11000
  140.9800  134.1418  157.4503 LP  0  0  0  0  0  0  0  0  0  0  0  0  # atno 17395 bound_to 11000

$$$$
