AV-unprocessed.smi:290|AV-procd|sdf|2228|dock6
  -GOLD-   2262022 83D 1   1.00000     0.00000
 Structure written by MMmdl.
 59 62  0  0  0  0  0  0  0  0  2 V2000
  151.6111  145.2264  159.3546 C   0  0  0  0  0  0  0  0  0  0  0  0
  152.2407  143.8535  159.0677 C   0  0  1  0  0  0  0  0  0  0  0  0
  152.9182  143.3684  160.2185 O   0  0  0  0  0  0  0  0  0  0  0  0
  153.0968  141.9750  160.0412 C   0  0  0  0  0  0  0  0  0  0  0  0
  151.7398  141.5311  159.5104 C   0  0  0  0  0  0  0  0  0  0  0  0
  151.2776  142.7100  158.6491 C   0  0  1  0  0  0  0  0  0  0  0  0
  149.9321  143.0031  158.9879 O   0  0  0  0  0  0  0  0  0  0  0  0
  151.3422  142.3830  157.1362 C   0  0  0  0  0  0  0  0  0  0  0  0
  150.3606  141.3963  156.7122 N   0  0  0  0  0  0  0  0  0  0  0  0
  149.3077  141.5954  155.8481 C   0  0  0  0  0  0  0  0  0  0  0  0
  148.5589  140.5488  155.6331 N   0  0  0  0  0  0  0  0  0  0  0  0
  149.1433  139.5473  156.4001 C   0  0  0  0  0  0  0  0  0  0  0  0
  148.8475  138.1725  156.6304 C   0  0  0  0  0  0  0  0  0  0  0  0
  147.7803  137.5417  156.0719 N   0  0  0  0  0  0  0  0  0  0  0  0
  147.3493  136.2928  156.6965 C   0  0  0  0  0  0  0  0  0  0  0  0
  146.8927  135.3706  155.5613 C   0  0  0  0  0  0  0  0  0  0  0  0
  146.5627  136.3546  154.4339 C   0  0  2  0  0  0  0  0  0  0  0  0
  146.5101  135.7772  153.0603 N   0  3  2  0  0  0  0  0  0  0  0  0
  145.6331  136.5631  152.1605 C   0  0  0  0  0  0  0  0  0  0  0  0
  146.2443  134.3145  152.9845 C   0  0  0  0  0  0  0  0  0  0  0  0
  146.6330  133.7369  151.6146 C   0  0  0  0  0  0  0  0  0  0  0  0
  146.6778  132.3269  151.6807 O   0  0  0  0  0  0  0  0  0  0  0  0
  147.6115  137.4599  154.6212 C   0  0  1  0  0  0  0  0  0  0  0  0
  147.1862  138.8014  153.9974 C   0  0  0  0  0  0  0  0  0  0  0  0
  149.6844  137.4870  157.4542 N   0  0  0  0  0  0  0  0  0  0  0  0
  150.7307  138.0964  158.0188 C   0  0  0  0  0  0  0  0  0  0  0  0
  151.1192  139.3667  157.9001 N   0  0  0  0  0  0  0  0  0  0  0  0
  150.2871  140.0624  157.0736 C   0  0  0  0  0  0  0  0  0  0  0  0
  145.5879  136.7949  154.6548 H   0  0  0  0  0  0  0  0  0  0  0  0
  148.5620  137.1529  154.1866 H   0  0  0  0  0  0  0  0  0  0  0  0
  151.0713  145.6011  158.4848 H   0  0  0  0  0  0  0  0  0  0  0  0
  152.3788  145.9578  159.6074 H   0  0  0  0  0  0  0  0  0  0  0  0
  150.9142  145.1805  160.1917 H   0  0  0  0  0  0  0  0  0  0  0  0
  153.0074  143.9782  158.3020 H   0  0  0  0  0  0  0  0  0  0  0  0
  153.8849  141.7923  159.3088 H   0  0  0  0  0  0  0  0  0  0  0  0
  153.3680  141.4799  160.9738 H   0  0  0  0  0  0  0  0  0  0  0  0
  151.7952  140.5875  158.9662 H   0  0  0  0  0  0  0  0  0  0  0  0
  151.0679  141.3786  160.3572 H   0  0  0  0  0  0  0  0  0  0  0  0
  149.9213  143.7621  159.5505 H   0  0  0  0  0  0  0  0  0  0  0  0
  151.1889  143.2894  156.5488 H   0  0  0  0  0  0  0  0  0  0  0  0
  152.3337  142.0142  156.8703 H   0  0  0  0  0  0  0  0  0  0  0  0
  149.1055  142.5494  155.3832 H   0  0  0  0  0  0  0  0  0  0  0  0
  148.1405  135.8245  157.2845 H   0  0  0  0  0  0  0  0  0  0  0  0
  146.5168  136.5107  157.3661 H   0  0  0  0  0  0  0  0  0  0  0  0
  147.7172  134.7104  155.2931 H   0  0  0  0  0  0  0  0  0  0  0  0
  146.0448  134.7465  155.8445 H   0  0  0  0  0  0  0  0  0  0  0  0
  144.5945  136.5206  152.4906 H   0  0  0  0  0  0  0  0  0  0  0  0
  145.6787  136.1899  151.1378 H   0  0  0  0  0  0  0  0  0  0  0  0
  145.9399  137.6091  152.1374 H   0  0  0  0  0  0  0  0  0  0  0  0
  146.7885  133.7645  153.7510 H   0  0  0  0  0  0  0  0  0  0  0  0
  145.1877  134.1285  153.1829 H   0  0  0  0  0  0  0  0  0  0  0  0
  145.8931  134.0210  150.8658 H   0  0  0  0  0  0  0  0  0  0  0  0
  147.5945  134.1179  151.2713 H   0  0  0  0  0  0  0  0  0  0  0  0
  147.4147  132.0217  151.1726 H   0  0  0  0  0  0  0  0  0  0  0  0
  147.0322  138.6989  152.9231 H   0  0  0  0  0  0  0  0  0  0  0  0
  147.9409  139.5737  154.1439 H   0  0  0  0  0  0  0  0  0  0  0  0
  146.2548  139.1641  154.4333 H   0  0  0  0  0  0  0  0  0  0  0  0
  151.3433  137.4783  158.6586 H   0  0  0  0  0  0  0  0  0  0  0  0
  147.4462  135.8956  152.6988 H   0  0  0  0  0  0  0  0  0  0  0  0
  1  2  1  0  0  0  0
  1 31  1  0  0  0  0
  1 32  1  0  0  0  0
  1 33  1  0  0  0  0
  2  6  1  0  0  0  0
  2  3  1  0  0  0  0
  2 34  1  0  0  0  0
  3  4  1  0  0  0  0
  4  5  1  0  0  0  0
  4 35  1  0  0  0  0
  4 36  1  0  0  0  0
  5  6  1  0  0  0  0
  5 37  1  0  0  0  0
  5 38  1  0  0  0  0
  6  7  1  0  0  0  0
  6  8  1  0  0  0  0
  7 39  1  0  0  0  0
  8  9  1  0  0  0  0
  8 40  1  0  0  0  0
  8 41  1  0  0  0  0
  9 28  1  0  0  0  0
  9 10  1  0  0  0  0
 10 11  2  0  0  0  0
 10 42  1  0  0  0  0
 11 12  1  0  0  0  0
 12 28  2  0  0  0  0
 12 13  1  0  0  0  0
 13 14  1  0  0  0  0
 13 25  2  0  0  0  0
 14 23  1  0  0  0  0
 14 15  1  0  0  0  0
 15 16  1  0  0  0  0
 15 43  1  0  0  0  0
 15 44  1  0  0  0  0
 16 17  1  0  0  0  0
 16 45  1  0  0  0  0
 16 46  1  0  0  0  0
 17 29  1  0  0  0  0
 17 18  1  0  0  0  0
 17 23  1  0  0  0  0
 18 19  1  0  0  0  0
 18 20  1  0  0  0  0
 18 59  1  0  0  0  0
 19 47  1  0  0  0  0
 19 48  1  0  0  0  0
 19 49  1  0  0  0  0
 20 21  1  0  0  0  0
 20 50  1  0  0  0  0
 20 51  1  0  0  0  0
 21 22  1  0  0  0  0
 21 52  1  0  0  0  0
 21 53  1  0  0  0  0
 22 54  1  0  0  0  0
 23 30  1  0  0  0  0
 23 24  1  0  0  0  0
 24 55  1  0  0  0  0
 24 56  1  0  0  0  0
 24 57  1  0  0  0  0
 25 26  1  0  0  0  0
 26 27  2  0  0  0  0
 26 58  1  0  0  0  0
 27 28  1  0  0  0  0
M  CHG  1  18   1
M  END
> <s_m_source_file>
AV-unprocessed.smi

> <i_m_source_file_index>
290

> <i_lp_mmshare_version>
43012

> <i_f3d_flags>
0

> <s_epik_input>
W0NIMl0xW0NIMl1PW0NAQEhdKFtDSDNdKVtDQEBdMShbT0hdKVtDSDJdbihbY0hdbjIpYyhjMjMpbltjSF1uYzNONFtDSDJdW0NIMl1bQ0BIXShbQ0BIXTRbQ0gzXSlOKFtDSDNdKVtDSDJdW0NIMl1bT0hd

> <s_epik_cmdline>
J2VwaWtfcHl0aG9uJywgJy1waCcsICc3LjAnLCAnLXRuJywgJzgnLCAnLW1hJywgJzIwMCcsICctbWV0YWxfYmluZGluZycsICctaW1hZScsICc8aW5maWxlLm1hZT4nLCAnLW9tYWUnLCAnPG91dGZpbGUubWFlPic=

> <r_lp_tautomer_probability>
1

> <r_epik_Ionization_Penalty>
0.0036983

> <r_epik_Ionization_Penalty_Charging>
0.0032725

> <r_epik_Ionization_Penalty_Neutral>
0.000425798

> <r_epik_State_Penalty>
-0

> <r_epik_Charging_Adjusted_Penalty>
0.0032725

> <i_epik_Tot_Q>
1

> <i_epik_Tot_abs_Q>
1

> <r_epik_Metal_State_Penalty>
-0

> <b_epik_Metal_Only>
0

> <s_lp_Force_Field>
OPLS_2005

> <r_lp_Energy>
60.2599

> <b_lp_Chiralities_Consistent>
1

> <s_lp_Variant>
AV-unprocessed.smi:290-14

> <Gold.Version>
5.8.1

> <Gold.Id.Protein>
6NUR|6NUR_protein|mol2

> <Gold.PLP.Fitness>
45.4545

> <Gold.PLP.PLP>
-35.3998

> <Gold.PLP.part.hbond>
-2.8165

> <Gold.PLP.part.metal>
0.0000

> <Gold.PLP.part.buried>
-6.5438

> <Gold.PLP.part.nonpolar>
-26.4209

> <Gold.PLP.part.repulsive>
0.0702

> <Gold.PLP.ligand.clash>
0.0000

> <Gold.PLP.ligand.torsion>
1.2742

> <Gold.PLP.Chemscore.Hbond>
3.0000

> <Gold.PLP.Chemscore.CHOScore>
1.0000

> <Gold.PLP.Chemscore.Metal>
0.0000

> <Gold.Chemscore.Hbonds>
donor molecule, donor type, donor heavy atom, donor atom, acceptor molecule, acceptor atom, score
      L1  H    18    59       P1  7948  2.00
      L1  H    22    54       P1 10747  0.71
      L1  C    10    42       P1  8028  1.00

> <Gold.PLP.Chemscore.Internal.Correction>
0.6031

> <Gold.Rescore>
     Score         DG    S(hbond)    S(metal)    S(lipo)     H(rot)  DE(clash)    DE(int)     intcor
      8.80     -12.90       1.99        0.00      86.78       3.67       0.08       4.01       ----

> <Gold.Chemscore.Fitness>
8.8023

> <Gold.Chemscore.DG>
-12.8954

> <Gold.Chemscore.ZeroCoef>
-5.4800

> <Gold.Chemscore.Hbond>
1.9901

> <Gold.Chemscore.Metal>
0.0000

> <Gold.Chemscore.Lipo>
86.7761

> <Gold.Chemscore.Internal_Hbond>
0.0000

> <Gold.Chemscore.DEClash>
0.0845

> <Gold.Chemscore.DEInternal>
4.0086

> <Gold.Chemscore.Rot>
3.6658

> <Gold.Chemscore.Internal.Correction>
   9.000000E+99

> <Gold.Chemscore.Hbonds>
donor molecule, donor type, donor heavy atom, donor atom, acceptor molecule, acceptor atom, score
      L1  H    18    59       P1  7948  1.00
      L1  H    22    54       P1 10747  0.71

> <Gold.Chemscore.Hbond.Weighted>
-6.6470

> <Gold.Chemscore.Metal.Weighted>
-0.0000

> <Gold.Chemscore.Lipo.Weighted>
-10.1528

> <Gold.Chemscore.Internal_Hbond.Weighted>
0.0000

> <Gold.Chemscore.DEClash.Weighted>
0.0845

> <Gold.Chemscore.DEInternal.Weighted>
4.0086

> <Gold.Chemscore.Rot.Weighted>
9.3844

> <Gold.Chemscore.Internal.Correction.Weighted>
   9.000000E+99

> <Gold.Protein.RotatedTorsions>
[ 6907 6896 6895 6894 ] final  179.51 input  -60.11 | X-H torsion
[ 7974 7965 7964 7962 ] final   30.95 input  175.53 | X-H torsion
[ 8008 7997 7996 7995 ] final -102.98 input   59.86 | X-H torsion
[ 10167 10162 10161 10158 ] final  118.32 input  -65.29 | X-H torsion
[ 10718 10713 10712 10709 ] final -116.88 input   66.30 | X-H torsion
[ 10763 10752 10751 10750 ] final -133.08 input  -60.55 | X-H torsion
[ 11005 11000 10999 10996 ] final    0.96 input  -57.11 | X-H torsion

> <Gold.Protein.ActiveResidues>
 VAL166  LYS551  ARG553  GLY616  TRP617  ASP618  TYR619  PRO620  LYS621  CYS622 
 ASP623  PHE694  ASN695  SER759  ASP760  ASP761  ALA762  ILE779  LEU786  VAL792 
 PHE793  MET794  SER795  GLU796  ALA797  LYS798  CYS799  TRP800  GLU811  SER814 

> <Gold.Protein.RotatedAtoms>
  151.6705  133.3314  159.3195 H   0  0  0  0  0  0  0  0  0  0  0  0  # atno 6907 bound_to 6896
  150.7870  134.6867  159.6483 H   0  0  0  0  0  0  0  0  0  0  0  0  # atno 6908 bound_to 6896
  152.3942  134.6396  160.0148 H   0  0  0  0  0  0  0  0  0  0  0  0  # atno 6909 bound_to 6896
  146.1580  139.6720  142.9053 H   0  0  0  0  0  0  0  0  0  0  0  0  # atno 7974 bound_to 7965
  154.8644  140.0425  157.1685 H   0  0  0  0  0  0  0  0  0  0  0  0  # atno 8008 bound_to 7997
  154.8806  140.2972  155.5407 H   0  0  0  0  0  0  0  0  0  0  0  0  # atno 8009 bound_to 7997
  156.2999  140.2412  156.3808 H   0  0  0  0  0  0  0  0  0  0  0  0  # atno 8010 bound_to 7997
  139.6119  144.7084  151.2824 H   0  0  0  0  0  0  0  0  0  0  0  0  # atno 10167 bound_to 10162
  156.0995  130.6160  150.9093 H   0  0  0  0  0  0  0  0  0  0  0  0  # atno 10718 bound_to 10713
  154.8736  135.3777  154.4515 H   0  0  0  0  0  0  0  0  0  0  0  0  # atno 10763 bound_to 10752
  153.5191  135.7029  153.5746 H   0  0  0  0  0  0  0  0  0  0  0  0  # atno 10764 bound_to 10752
  153.4001  135.3950  155.1947 H   0  0  0  0  0  0  0  0  0  0  0  0  # atno 10765 bound_to 10752
  140.6208  133.9663  155.8224 H   0  0  0  0  0  0  0  0  0  0  0  0  # atno 11005 bound_to 11000
  145.4660  141.0434  143.2725 LP  0  0  0  0  0  0  0  0  0  0  0  0  # atno 17320 bound_to 7965
  144.7989  139.6180  143.7080 LP  0  0  0  0  0  0  0  0  0  0  0  0  # atno 17321 bound_to 7965
  140.7325  143.6821  150.7992 LP  0  0  0  0  0  0  0  0  0  0  0  0  # atno 17342 bound_to 10162
  140.0417  143.5339  152.2714 LP  0  0  0  0  0  0  0  0  0  0  0  0  # atno 17343 bound_to 10162
  157.6162  131.0933  150.8706 LP  0  0  0  0  0  0  0  0  0  0  0  0  # atno 17370 bound_to 10713
  156.8837  130.5188  149.5289 LP  0  0  0  0  0  0  0  0  0  0  0  0  # atno 17371 bound_to 10713
  141.0744  134.0158  157.3480 LP  0  0  0  0  0  0  0  0  0  0  0  0  # atno 17394 bound_to 11000
  139.9154  135.0196  156.7860 LP  0  0  0  0  0  0  0  0  0  0  0  0  # atno 17395 bound_to 11000

$$$$
