AV-unprocessed.smi:290|AV-procd|sdf|2226|dock9
  -GOLD-   2262022 83D 1   1.00000     0.00000
 Structure written by MMmdl.
 59 62  0  0  0  0  0  0  0  0  2 V2000
  137.8607  141.9750  155.9992 C   0  0  0  0  0  0  0  0  0  0  0  0
  138.6957  142.1964  154.7282 C   0  0  1  0  0  0  0  0  0  0  0  0
  139.6674  143.1994  155.0104 O   0  0  0  0  0  0  0  0  0  0  0  0
  140.7933  142.9834  154.1790 C   0  0  0  0  0  0  0  0  0  0  0  0
  140.9425  141.4708  154.2255 C   0  0  0  0  0  0  0  0  0  0  0  0
  139.4972  140.9774  154.1885 C   0  0  2  0  0  0  0  0  0  0  0  0
  139.1375  140.7950  152.8294 O   0  0  0  0  0  0  0  0  0  0  0  0
  139.2847  139.6297  154.9270 C   0  0  0  0  0  0  0  0  0  0  0  0
  140.2506  138.6078  154.5530 N   0  0  0  0  0  0  0  0  0  0  0  0
  140.5188  138.1544  153.2800 C   0  0  0  0  0  0  0  0  0  0  0  0
  141.4315  137.2247  153.1987 N   0  0  0  0  0  0  0  0  0  0  0  0
  141.8280  137.0313  154.5151 C   0  0  0  0  0  0  0  0  0  0  0  0
  142.7770  136.1845  155.1420 C   0  0  0  0  0  0  0  0  0  0  0  0
  143.5344  135.3235  154.4272 N   0  0  0  0  0  0  0  0  0  0  0  0
  144.9327  135.7052  154.3071 C   0  0  0  0  0  0  0  0  0  0  0  0
  145.5120  134.8275  153.1907 C   0  0  0  0  0  0  0  0  0  0  0  0
  144.2837  134.3112  152.4092 C   0  0  1  0  0  0  0  0  0  0  0  0
  144.1583  132.8213  152.3403 N   0  3  2  0  0  0  0  0  0  0  0  0
  145.4387  132.0674  152.3474 C   0  0  0  0  0  0  0  0  0  0  0  0
  143.2402  132.3498  151.2719 C   0  0  0  0  0  0  0  0  0  0  0  0
  143.9008  132.3766  149.8828 C   0  0  0  0  0  0  0  0  0  0  0  0
  142.9510  132.0492  148.8907 O   0  0  0  0  0  0  0  0  0  0  0  0
  143.0850  135.0153  153.0766 C   0  0  1  0  0  0  0  0  0  0  0  0
  141.7233  134.2947  153.0096 C   0  0  0  0  0  0  0  0  0  0  0  0
  142.9120  136.2659  156.4921 N   0  0  0  0  0  0  0  0  0  0  0  0
  142.1609  137.1276  157.1852 C   0  0  0  0  0  0  0  0  0  0  0  0
  141.2363  137.9791  156.7347 N   0  0  0  0  0  0  0  0  0  0  0  0
  141.1012  137.8953  155.3800 C   0  0  0  0  0  0  0  0  0  0  0  0
  144.3343  134.6883  151.3881 H   0  0  0  0  0  0  0  0  0  0  0  0
  142.9620  135.9669  152.5561 H   0  0  0  0  0  0  0  0  0  0  0  0
  137.0913  141.2185  155.8441 H   0  0  0  0  0  0  0  0  0  0  0  0
  137.3570  142.8966  156.2911 H   0  0  0  0  0  0  0  0  0  0  0  0
  138.4820  141.6651  156.8398 H   0  0  0  0  0  0  0  0  0  0  0  0
  138.0376  142.5906  153.9511 H   0  0  0  0  0  0  0  0  0  0  0  0
  140.5806  143.3289  153.1663 H   0  0  0  0  0  0  0  0  0  0  0  0
  141.6750  143.5070  154.5484 H   0  0  0  0  0  0  0  0  0  0  0  0
  141.5668  141.0756  153.4229 H   0  0  0  0  0  0  0  0  0  0  0  0
  141.4087  141.1977  155.1729 H   0  0  0  0  0  0  0  0  0  0  0  0
  139.9225  140.8227  152.3039 H   0  0  0  0  0  0  0  0  0  0  0  0
  139.3624  139.7695  156.0054 H   0  0  0  0  0  0  0  0  0  0  0  0
  138.2828  139.2422  154.7368 H   0  0  0  0  0  0  0  0  0  0  0  0
  140.0090  138.5351  152.4067 H   0  0  0  0  0  0  0  0  0  0  0  0
  145.0212  136.7600  154.0419 H   0  0  0  0  0  0  0  0  0  0  0  0
  145.4597  135.5504  155.2491 H   0  0  0  0  0  0  0  0  0  0  0  0
  146.1703  135.4141  152.5493 H   0  0  0  0  0  0  0  0  0  0  0  0
  146.1218  134.0291  153.6087 H   0  0  0  0  0  0  0  0  0  0  0  0
  145.9272  132.0827  151.3735 H   0  0  0  0  0  0  0  0  0  0  0  0
  145.2485  131.0235  152.5982 H   0  0  0  0  0  0  0  0  0  0  0  0
  146.1403  132.4527  153.0859 H   0  0  0  0  0  0  0  0  0  0  0  0
  142.8899  131.3442  151.5095 H   0  0  0  0  0  0  0  0  0  0  0  0
  142.3490  132.9793  151.2385 H   0  0  0  0  0  0  0  0  0  0  0  0
  144.3473  133.3441  149.6559 H   0  0  0  0  0  0  0  0  0  0  0  0
  144.7039  131.6404  149.8421 H   0  0  0  0  0  0  0  0  0  0  0  0
  142.2487  132.6818  148.9240 H   0  0  0  0  0  0  0  0  0  0  0  0
  141.4691  134.0390  151.9807 H   0  0  0  0  0  0  0  0  0  0  0  0
  140.9253  134.9326  153.3910 H   0  0  0  0  0  0  0  0  0  0  0  0
  141.7102  133.3774  153.5971 H   0  0  0  0  0  0  0  0  0  0  0  0
  142.3241  137.1370  158.2529 H   0  0  0  0  0  0  0  0  0  0  0  0
  143.7006  132.5572  153.2015 H   0  0  0  0  0  0  0  0  0  0  0  0
  1  2  1  0  0  0  0
  1 31  1  0  0  0  0
  1 32  1  0  0  0  0
  1 33  1  0  0  0  0
  2  6  1  0  0  0  0
  2  3  1  0  0  0  0
  2 34  1  0  0  0  0
  3  4  1  0  0  0  0
  4  5  1  0  0  0  0
  4 35  1  0  0  0  0
  4 36  1  0  0  0  0
  5  6  1  0  0  0  0
  5 37  1  0  0  0  0
  5 38  1  0  0  0  0
  6  7  1  0  0  0  0
  6  8  1  0  0  0  0
  7 39  1  0  0  0  0
  8  9  1  0  0  0  0
  8 40  1  0  0  0  0
  8 41  1  0  0  0  0
  9 28  1  0  0  0  0
  9 10  1  0  0  0  0
 10 11  2  0  0  0  0
 10 42  1  0  0  0  0
 11 12  1  0  0  0  0
 12 28  2  0  0  0  0
 12 13  1  0  0  0  0
 13 14  1  0  0  0  0
 13 25  2  0  0  0  0
 14 23  1  0  0  0  0
 14 15  1  0  0  0  0
 15 16  1  0  0  0  0
 15 43  1  0  0  0  0
 15 44  1  0  0  0  0
 16 17  1  0  0  0  0
 16 45  1  0  0  0  0
 16 46  1  0  0  0  0
 17 29  1  0  0  0  0
 17 18  1  0  0  0  0
 17 23  1  0  0  0  0
 18 19  1  0  0  0  0
 18 20  1  0  0  0  0
 18 59  1  0  0  0  0
 19 47  1  0  0  0  0
 19 48  1  0  0  0  0
 19 49  1  0  0  0  0
 20 21  1  0  0  0  0
 20 50  1  0  0  0  0
 20 51  1  0  0  0  0
 21 22  1  0  0  0  0
 21 52  1  0  0  0  0
 21 53  1  0  0  0  0
 22 54  1  0  0  0  0
 23 30  1  0  0  0  0
 23 24  1  0  0  0  0
 24 55  1  0  0  0  0
 24 56  1  0  0  0  0
 24 57  1  0  0  0  0
 25 26  1  0  0  0  0
 26 27  2  0  0  0  0
 26 58  1  0  0  0  0
 27 28  1  0  0  0  0
M  CHG  1  18   1
M  END
> <s_m_source_file>
AV-unprocessed.smi

> <i_m_source_file_index>
290

> <i_lp_mmshare_version>
43012

> <i_f3d_flags>
0

> <s_epik_input>
W0NIMl0xW0NIMl1PW0NAQEhdKFtDSDNdKVtDQEBdMShbT0hdKVtDSDJdbihbY0hdbjIpYyhjMjMpbltjSF1uYzNONFtDSDJdW0NIMl1bQ0BIXShbQ0BIXTRbQ0gzXSlOKFtDSDNdKVtDSDJdW0NIMl1bT0hd

> <s_epik_cmdline>
J2VwaWtfcHl0aG9uJywgJy1waCcsICc3LjAnLCAnLXRuJywgJzgnLCAnLW1hJywgJzIwMCcsICctbWV0YWxfYmluZGluZycsICctaW1hZScsICc8aW5maWxlLm1hZT4nLCAnLW9tYWUnLCAnPG91dGZpbGUubWFlPic=

> <r_lp_tautomer_probability>
1

> <r_epik_Ionization_Penalty>
0.0036983

> <r_epik_Ionization_Penalty_Charging>
0.0032725

> <r_epik_Ionization_Penalty_Neutral>
0.000425798

> <r_epik_State_Penalty>
-0

> <r_epik_Charging_Adjusted_Penalty>
0.0032725

> <i_epik_Tot_Q>
1

> <i_epik_Tot_abs_Q>
1

> <r_epik_Metal_State_Penalty>
-0

> <b_epik_Metal_Only>
0

> <s_lp_Force_Field>
OPLS_2005

> <r_lp_Energy>
69.8612

> <b_lp_Chiralities_Consistent>
1

> <s_lp_Variant>
AV-unprocessed.smi:290-12

> <Gold.Version>
5.8.1

> <Gold.Id.Protein>
6NUR|6NUR_protein|mol2

> <Gold.PLP.Fitness>
42.9022

> <Gold.PLP.PLP>
-29.6694

> <Gold.PLP.part.hbond>
-5.0649

> <Gold.PLP.part.metal>
0.0000

> <Gold.PLP.part.buried>
-3.5568

> <Gold.PLP.part.nonpolar>
-21.7463

> <Gold.PLP.part.repulsive>
0.2941

> <Gold.PLP.ligand.clash>
0.0000

> <Gold.PLP.ligand.torsion>
1.0688

> <Gold.PLP.Chemscore.Hbond>
4.4958

> <Gold.PLP.Chemscore.CHOScore>
0.5533

> <Gold.PLP.Chemscore.Metal>
0.0000

> <Gold.Chemscore.Hbonds>
donor molecule, donor type, donor heavy atom, donor atom, acceptor molecule, acceptor atom, score
      L1  H     7    39       P1 10160  0.85
      L1  H    18    59       P1 10957  1.78
      L1  H    22    54       P1 10186  0.55
      P1  H 10785 10796       L1    22  1.00
      L1  C    10    42       P1 10160  0.98

> <Gold.PLP.Chemscore.Internal.Correction>
0.2235

> <Gold.Rescore>
     Score         DG    S(hbond)    S(metal)    S(lipo)     H(rot)  DE(clash)    DE(int)     intcor
      7.21     -11.02       2.13        0.00      66.84       3.67       0.07       3.75       ----

> <Gold.Chemscore.Fitness>
7.2067

> <Gold.Chemscore.DG>
-11.0222

> <Gold.Chemscore.ZeroCoef>
-5.4800

> <Gold.Chemscore.Hbond>
2.1277

> <Gold.Chemscore.Metal>
0.0000

> <Gold.Chemscore.Lipo>
66.8382

> <Gold.Chemscore.Internal_Hbond>
0.0000

> <Gold.Chemscore.DEClash>
0.0704

> <Gold.Chemscore.DEInternal>
3.7450

> <Gold.Chemscore.Rot>
3.6658

> <Gold.Chemscore.Internal.Correction>
   9.000000E+99

> <Gold.Chemscore.Hbonds>
donor molecule, donor type, donor heavy atom, donor atom, acceptor molecule, acceptor atom, score
      L1  H     7    39       P1 10160  0.80
      L1  H    18    59       P1 10957  0.17
      L1  H    22    54       P1 10186  0.54
      P1  H 10785 10796       L1    22  0.34

> <Gold.Chemscore.Hbond.Weighted>
-7.1065

> <Gold.Chemscore.Metal.Weighted>
-0.0000

> <Gold.Chemscore.Lipo.Weighted>
-7.8201

> <Gold.Chemscore.Internal_Hbond.Weighted>
0.0000

> <Gold.Chemscore.DEClash.Weighted>
0.0704

> <Gold.Chemscore.DEInternal.Weighted>
3.7450

> <Gold.Chemscore.Rot.Weighted>
9.3844

> <Gold.Chemscore.Internal.Correction.Weighted>
   9.000000E+99

> <Gold.Protein.RotatedTorsions>
[ 6907 6896 6895 6894 ] final  168.88 input  -60.11 | X-H torsion
[ 7974 7965 7964 7962 ] final  -80.30 input  175.53 | X-H torsion
[ 8008 7997 7996 7995 ] final -109.49 input   59.86 | X-H torsion
[ 10167 10162 10161 10158 ] final -150.82 input  -65.29 | X-H torsion
[ 10718 10713 10712 10709 ] final  -68.78 input   66.30 | X-H torsion
[ 10763 10752 10751 10750 ] final   40.26 input  -60.55 | X-H torsion
[ 11005 11000 10999 10996 ] final    9.85 input  -57.11 | X-H torsion

> <Gold.Protein.ActiveResidues>
 VAL166  LYS551  ARG553  GLY616  TRP617  ASP618  TYR619  PRO620  LYS621  CYS622 
 ASP623  PHE694  ASN695  SER759  ASP760  ASP761  ALA762  ILE779  LEU786  VAL792 
 PHE793  MET794  SER795  GLU796  ALA797  LYS798  CYS799  TRP800  GLU811  SER814 

> <Gold.Protein.RotatedAtoms>
  151.8407  133.3423  159.3641 H   0  0  0  0  0  0  0  0  0  0  0  0  # atno 6907 bound_to 6896
  150.7236  134.5394  159.5749 H   0  0  0  0  0  0  0  0  0  0  0  0  # atno 6908 bound_to 6896
  152.2867  134.7769  160.0437 H   0  0  0  0  0  0  0  0  0  0  0  0  # atno 6909 bound_to 6896
  145.5617  140.9481  143.1443 H   0  0  0  0  0  0  0  0  0  0  0  0  # atno 7974 bound_to 7965
  154.9602  140.0399  157.2186 H   0  0  0  0  0  0  0  0  0  0  0  0  # atno 8008 bound_to 7997
  154.7897  140.2833  155.5979 H   0  0  0  0  0  0  0  0  0  0  0  0  # atno 8009 bound_to 7997
  156.2948  140.2576  156.2741 H   0  0  0  0  0  0  0  0  0  0  0  0  # atno 8010 bound_to 7997
  139.7321  143.8792  152.2538 H   0  0  0  0  0  0  0  0  0  0  0  0  # atno 10167 bound_to 10162
  156.0488  130.4301  150.2051 H   0  0  0  0  0  0  0  0  0  0  0  0  # atno 10718 bound_to 10713
  152.9942  135.6196  154.2597 H   0  0  0  0  0  0  0  0  0  0  0  0  # atno 10763 bound_to 10752
  154.2333  135.2791  155.2883 H   0  0  0  0  0  0  0  0  0  0  0  0  # atno 10764 bound_to 10752
  154.5431  135.5755  153.6914 H   0  0  0  0  0  0  0  0  0  0  0  0  # atno 10765 bound_to 10752
  140.5211  134.0558  155.7845 H   0  0  0  0  0  0  0  0  0  0  0  0  # atno 11005 bound_to 11000
  144.7480  139.7270  143.7284 LP  0  0  0  0  0  0  0  0  0  0  0  0  # atno 17320 bound_to 7965
  146.1846  139.5055  142.9844 LP  0  0  0  0  0  0  0  0  0  0  0  0  # atno 17321 bound_to 7965
  139.8718  144.7064  150.8978 LP  0  0  0  0  0  0  0  0  0  0  0  0  # atno 17342 bound_to 10162
  140.7773  143.3732  151.1612 LP  0  0  0  0  0  0  0  0  0  0  0  0  # atno 17343 bound_to 10162
  157.0138  130.9959  151.3358 LP  0  0  0  0  0  0  0  0  0  0  0  0  # atno 17370 bound_to 10713
  157.5392  130.8108  149.8008 LP  0  0  0  0  0  0  0  0  0  0  0  0  # atno 17371 bound_to 10713
  141.1333  133.9264  157.2488 LP  0  0  0  0  0  0  0  0  0  0  0  0  # atno 17394 bound_to 11000
  139.9605  135.0155  156.9248 LP  0  0  0  0  0  0  0  0  0  0  0  0  # atno 17395 bound_to 11000

$$$$
