AV-unprocessed.smi:3196|AV-procd|sdf|12221|dock6
  -GOLD-   2272018 53D 1   1.00000     0.00000
 Structure written by MMmdl.
 33 34  0  0  0  0  0  0  0  0  1 V2000
  153.1021  142.6106  162.4164 C   0  0  0  0  0  0  0  0  0  0  0  0
  152.5368  143.1110  161.0827 C   0  0  0  0  0  0  0  0  0  0  0  0
  153.1383  142.3772  159.8765 C   0  0  0  0  0  0  0  0  0  0  0  0
  152.5774  142.8741  158.5592 C   0  0  2  0  0  0  0  0  0  0  0  0
  152.4052  144.3487  158.3112 C   0  0  0  0  0  0  0  0  0  0  0  0
  151.1863  143.4648  158.4803 C   0  0  1  0  0  0  0  0  0  0  0  0
  150.4078  143.2143  157.3048 N   0  0  0  0  0  0  0  0  0  0  0  0
  150.1039  142.0244  156.7558 C   0  0  0  0  0  0  0  0  0  0  0  0
  150.4689  140.9753  157.2817 O   0  0  0  0  0  0  0  0  0  0  0  0
  149.3485  142.1084  155.6423 N   0  0  0  0  0  0  0  0  0  0  0  0
  148.8252  141.0735  154.8188 C   0  0  0  0  0  0  0  0  0  0  0  0
  149.4425  139.8148  154.6167 C   0  0  0  0  0  0  0  0  0  0  0  0
  148.8151  138.8846  153.7636 C   0  0  0  0  0  0  0  0  0  0  0  0
  147.6547  139.1293  153.1190 N   0  0  0  0  0  0  0  0  0  0  0  0
  147.0745  140.3334  153.3055 C   0  0  0  0  0  0  0  0  0  0  0  0
  147.6176  141.3335  154.1366 C   0  0  0  0  0  0  0  0  0  0  0  0
  146.9842  142.5235  154.2761 F   0  0  0  0  0  0  0  0  0  0  0  0
  152.6523  143.1444  163.2537 H   0  0  0  0  0  0  0  0  0  0  0  0
  154.1808  142.7602  162.4673 H   0  0  0  0  0  0  0  0  0  0  0  0
  152.9039  141.5474  162.5540 H   0  0  0  0  0  0  0  0  0  0  0  0
  151.4533  142.9873  161.0825 H   0  0  0  0  0  0  0  0  0  0  0  0
  152.7259  144.1812  160.9911 H   0  0  0  0  0  0  0  0  0  0  0  0
  154.2205  142.5101  159.8610 H   0  0  0  0  0  0  0  0  0  0  0  0
  152.9554  141.3055  159.9641 H   0  0  0  0  0  0  0  0  0  0  0  0
  152.8927  142.2813  157.7020 H   0  0  0  0  0  0  0  0  0  0  0  0
  152.6451  145.0307  159.1244 H   0  0  0  0  0  0  0  0  0  0  0  0
  152.6362  144.7177  157.3136 H   0  0  0  0  0  0  0  0  0  0  0  0
  150.6518  143.6033  159.4190 H   0  0  0  0  0  0  0  0  0  0  0  0
  149.9919  144.0272  156.8738 H   0  0  0  0  0  0  0  0  0  0  0  0
  149.0780  143.0426  155.3712 H   0  0  0  0  0  0  0  0  0  0  0  0
  150.3767  139.5435  155.0818 H   0  0  0  0  0  0  0  0  0  0  0  0
  149.2620  137.9167  153.5912 H   0  0  0  0  0  0  0  0  0  0  0  0
  146.1492  140.5061  152.7757 H   0  0  0  0  0  0  0  0  0  0  0  0
  1  2  1  0  0  0  0
  1 18  1  0  0  0  0
  1 19  1  0  0  0  0
  1 20  1  0  0  0  0
  2  3  1  0  0  0  0
  2 21  1  0  0  0  0
  2 22  1  0  0  0  0
  3  4  1  0  0  0  0
  3 23  1  0  0  0  0
  3 24  1  0  0  0  0
  4  6  1  0  0  0  0
  4  5  1  0  0  0  0
  4 25  1  0  0  0  0
  5  6  1  0  0  0  0
  5 26  1  0  0  0  0
  5 27  1  0  0  0  0
  6  7  1  0  0  0  0
  6 28  1  0  0  0  0
  7  8  1  0  0  0  0
  7 29  1  0  0  0  0
  8  9  2  0  0  0  0
  8 10  1  0  0  0  0
 10 11  1  0  0  0  0
 10 30  1  0  0  0  0
 11 16  1  0  0  0  0
 11 12  2  0  0  0  0
 12 13  1  0  0  0  0
 12 31  1  0  0  0  0
 13 14  2  0  0  0  0
 13 32  1  0  0  0  0
 14 15  1  0  0  0  0
 15 16  2  0  0  0  0
 15 33  1  0  0  0  0
 16 17  1  0  0  0  0
M  END
> <s_m_source_file>
AV-unprocessed.smi

> <i_m_source_file_index>
3196

> <i_lp_mmshare_version>
43012

> <i_f3d_flags>
0

> <s_epik_input>
W0NIM11bQ0gyXVtDSDJdW0NAQEhdMVtDSDJdW0NASF0xW05IXUMoPU8pW05IXWMyW2NIXVtjSF1uW2NIXWMyRg==

> <s_epik_cmdline>
J2VwaWtfcHl0aG9uJywgJy1waCcsICc3LjAnLCAnLXRuJywgJzgnLCAnLW1hJywgJzIwMCcsICctbWV0YWxfYmluZGluZycsICctaW1hZScsICc8aW5maWxlLm1hZT4nLCAnLW9tYWUnLCAnPG91dGZpbGUubWFlPic=

> <r_epik_Ionization_Penalty>
0.00341997

> <r_epik_Ionization_Penalty_Charging>
0

> <r_epik_Ionization_Penalty_Neutral>
0.00341997

> <r_epik_State_Penalty>
0.00239198

> <r_epik_Charging_Adjusted_Penalty>
0.00239198

> <i_epik_Tot_Q>
0

> <i_epik_Tot_abs_Q>
0

> <r_epik_Metal_State_Penalty>
-0

> <b_epik_Metal_Only>
0

> <s_lp_Force_Field>
OPLS_2005

> <r_lp_Energy>
34.264

> <b_lp_Chiralities_Consistent>
1

> <s_lp_Variant>
AV-unprocessed.smi:3196-1

> <Gold.Version>
5.8.1

> <Gold.Id.Protein>
6NUR|6NUR_protein|mol2

> <Gold.PLP.Fitness>
53.3212

> <Gold.PLP.PLP>
-41.7181

> <Gold.PLP.part.hbond>
-2.0000

> <Gold.PLP.part.metal>
0.0000

> <Gold.PLP.part.buried>
-3.2863

> <Gold.PLP.part.nonpolar>
-37.6534

> <Gold.PLP.part.repulsive>
1.5332

> <Gold.PLP.ligand.clash>
0.0000

> <Gold.PLP.ligand.torsion>
0.4803

> <Gold.PLP.Chemscore.Hbond>
2.0000

> <Gold.PLP.Chemscore.CHOScore>
2.0000

> <Gold.PLP.Chemscore.Metal>
0.0000

> <Gold.Chemscore.Hbonds>
donor molecule, donor type, donor heavy atom, donor atom, acceptor molecule, acceptor atom, score
      L1  H     7    29       P1  8028  1.00
      L1  H    10    30       P1  8028  1.00
      L1  C    13    32       P1  7948  1.00
      L1  C    15    33       P1 10175  1.00

> <Gold.PLP.Chemscore.Internal.Correction>
0.5638

> <Gold.Rescore>
     Score         DG    S(hbond)    S(metal)    S(lipo)     H(rot)  DE(clash)    DE(int)     intcor
     19.94     -20.53       1.90        0.00     104.57       1.39       0.02       0.57       ----

> <Gold.Chemscore.Fitness>
19.9355

> <Gold.Chemscore.DG>
-20.5270

> <Gold.Chemscore.ZeroCoef>
-5.4800

> <Gold.Chemscore.Hbond>
1.9036

> <Gold.Chemscore.Metal>
0.0000

> <Gold.Chemscore.Lipo>
104.5723

> <Gold.Chemscore.Internal_Hbond>
0.0000

> <Gold.Chemscore.DEClash>
0.0234

> <Gold.Chemscore.DEInternal>
0.5681

> <Gold.Chemscore.Rot>
1.3852

> <Gold.Chemscore.Internal.Correction>
   9.000000E+99

> <Gold.Chemscore.Hbonds>
donor molecule, donor type, donor heavy atom, donor atom, acceptor molecule, acceptor atom, score
      L1  H     7    29       P1  8028  0.91
      L1  H    10    30       P1  8028  0.98

> <Gold.Chemscore.Hbond.Weighted>
-6.3581

> <Gold.Chemscore.Metal.Weighted>
-0.0000

> <Gold.Chemscore.Lipo.Weighted>
-12.2350

> <Gold.Chemscore.Internal_Hbond.Weighted>
0.0000

> <Gold.Chemscore.DEClash.Weighted>
0.0234

> <Gold.Chemscore.DEInternal.Weighted>
0.5681

> <Gold.Chemscore.Rot.Weighted>
3.5460

> <Gold.Chemscore.Internal.Correction.Weighted>
   9.000000E+99

> <Gold.Protein.RotatedTorsions>
[ 6907 6896 6895 6894 ] final  -17.78 input  -60.11 | X-H torsion
[ 7974 7965 7964 7962 ] final   16.28 input  175.53 | X-H torsion
[ 8008 7997 7996 7995 ] final   26.75 input   59.86 | X-H torsion
[ 10167 10162 10161 10158 ] final  -11.12 input  -65.29 | X-H torsion
[ 10718 10713 10712 10709 ] final  164.53 input   66.30 | X-H torsion
[ 10763 10752 10751 10750 ] final   45.64 input  -60.55 | X-H torsion
[ 11005 11000 10999 10996 ] final  168.19 input  -57.11 | X-H torsion

> <Gold.Protein.ActiveResidues>
 VAL166  LYS551  ARG553  GLY616  TRP617  ASP618  TYR619  PRO620  LYS621  CYS622 
 ASP623  PHE694  ASN695  SER759  ASP760  ASP761  ALA762  ILE779  LEU786  VAL792 
 PHE793  MET794  SER795  GLU796  ALA797  LYS798  CYS799  TRP800  GLU811  SER814 

> <Gold.Protein.RotatedAtoms>
  151.2882  135.0734  159.9194 H   0  0  0  0  0  0  0  0  0  0  0  0  # atno 6907 bound_to 6896
  152.5321  133.9959  159.7883 H   0  0  0  0  0  0  0  0  0  0  0  0  # atno 6908 bound_to 6896
  151.0225  133.5813  159.2700 H   0  0  0  0  0  0  0  0  0  0  0  0  # atno 6909 bound_to 6896
  146.2254  139.8770  142.8577 H   0  0  0  0  0  0  0  0  0  0  0  0  # atno 7974 bound_to 7965
  155.0322  140.3160  155.4754 H   0  0  0  0  0  0  0  0  0  0  0  0  # atno 8008 bound_to 7997
  156.2872  140.2178  156.5386 H   0  0  0  0  0  0  0  0  0  0  0  0  # atno 8009 bound_to 7997
  154.7361  140.0477  157.0757 H   0  0  0  0  0  0  0  0  0  0  0  0  # atno 8010 bound_to 7997
  140.7131  143.5673  150.9130 H   0  0  0  0  0  0  0  0  0  0  0  0  # atno 10167 bound_to 10162
  157.0930  131.0422  151.2529 H   0  0  0  0  0  0  0  0  0  0  0  0  # atno 10718 bound_to 10713
  152.9821  135.6033  154.3470 H   0  0  0  0  0  0  0  0  0  0  0  0  # atno 10763 bound_to 10752
  154.3163  135.2770  155.2543 H   0  0  0  0  0  0  0  0  0  0  0  0  # atno 10764 bound_to 10752
  154.4730  135.5937  153.6391 H   0  0  0  0  0  0  0  0  0  0  0  0  # atno 10765 bound_to 10752
  140.2846  134.7722  157.3787 H   0  0  0  0  0  0  0  0  0  0  0  0  # atno 11005 bound_to 11000
  145.2550  141.0057  143.3859 LP  0  0  0  0  0  0  0  0  0  0  0  0  # atno 17320 bound_to 7965
  144.9344  139.4261  143.6479 LP  0  0  0  0  0  0  0  0  0  0  0  0  # atno 17321 bound_to 7965
  139.9399  143.6394  152.3056 LP  0  0  0  0  0  0  0  0  0  0  0  0  # atno 17342 bound_to 10162
  139.6875  144.7650  151.1498 LP  0  0  0  0  0  0  0  0  0  0  0  0  # atno 17343 bound_to 10162
  157.4705  130.7706  149.7319 LP  0  0  0  0  0  0  0  0  0  0  0  0  # atno 17370 bound_to 10713
  155.9893  130.3953  150.3079 LP  0  0  0  0  0  0  0  0  0  0  0  0  # atno 17371 bound_to 10713
  140.1251  134.5168  155.8151 LP  0  0  0  0  0  0  0  0  0  0  0  0  # atno 17394 bound_to 11000
  141.2157  133.6770  156.6938 LP  0  0  0  0  0  0  0  0  0  0  0  0  # atno 17395 bound_to 11000

$$$$
