AV-unprocessed.smi:1933|AV-procd|sdf|7821|dock3
  -GOLD-   22720 9563D 1   1.00000     0.00000
 Structure written by MMmdl.
 48 50  0  0  0  0  0  0  0  0  2 V2000
  145.2085  135.0305  154.1223 O   0  0  0  0  0  0  0  0  0  0  0  0
  146.2354  135.2926  153.4957 C   0  0  0  0  0  0  0  0  0  0  0  0
  147.2002  136.0950  153.9653 N   0  0  0  0  0  0  0  0  0  0  0  0
  147.1757  136.7506  155.2670 C   0  0  0  0  0  0  0  0  0  0  0  0
  148.4742  136.5066  156.0809 C   0  0  2  0  0  0  0  0  0  0  0  0
  148.2457  136.3803  157.6146 C   0  0  1  0  0  0  0  0  0  0  0  0
  149.4945  136.3079  158.4791 C   0  0  0  0  0  0  0  0  0  0  0  0
  148.9693  136.6939  159.8584 C   0  0  0  0  0  0  0  0  0  0  0  0
  147.8709  137.5678  159.6275 O   0  0  0  0  0  0  0  0  0  0  0  0
  147.5662  137.6048  158.2391 C   0  0  0  0  0  0  0  0  0  0  0  0
  149.5011  137.5587  155.8135 N   0  3  0  0  0  0  0  0  0  0  0  0
  150.4044  137.2486  154.6788 C   0  0  0  0  0  0  0  0  0  0  0  0
  151.5401  138.2837  154.6120 C   0  0  0  0  0  0  0  0  0  0  0  0
  150.9918  139.5921  154.5036 O   0  0  0  0  0  0  0  0  0  0  0  0
  150.1851  139.9301  155.6260 C   0  0  0  0  0  0  0  0  0  0  0  0
  149.0007  138.9542  155.7203 C   0  0  0  0  0  0  0  0  0  0  0  0
  146.5433  134.8275  152.2722 N   0  0  0  0  0  0  0  0  0  0  0  0
  145.7910  133.9419  151.4551 C   0  0  0  0  0  0  0  0  0  0  0  0
  146.5590  133.1057  150.6134 C   0  0  0  0  0  0  0  0  0  0  0  0
  145.9066  132.1906  149.7647 C   0  0  0  0  0  0  0  0  0  0  0  0
  144.5016  132.1347  149.7801 C   0  0  0  0  0  0  0  0  0  0  0  0
  143.8130  133.0010  150.6486 C   0  0  0  0  0  0  0  0  0  0  0  0
  144.4361  133.8790  151.4628 N   0  0  0  0  0  0  0  0  0  0  0  0
  148.0080  136.2613  153.3832 H   0  0  0  0  0  0  0  0  0  0  0  0
  147.0244  137.8154  155.0892 H   0  0  0  0  0  0  0  0  0  0  0  0
  146.3121  136.3986  155.8336 H   0  0  0  0  0  0  0  0  0  0  0  0
  148.9015  135.5591  155.7484 H   0  0  0  0  0  0  0  0  0  0  0  0
  147.6391  135.4994  157.8291 H   0  0  0  0  0  0  0  0  0  0  0  0
  149.9610  135.3228  158.4885 H   0  0  0  0  0  0  0  0  0  0  0  0
  150.2348  137.0360  158.1446 H   0  0  0  0  0  0  0  0  0  0  0  0
  148.6044  135.8127  160.3875 H   0  0  0  0  0  0  0  0  0  0  0  0
  149.7330  137.1673  160.4760 H   0  0  0  0  0  0  0  0  0  0  0  0
  147.9758  138.5269  157.8242 H   0  0  0  0  0  0  0  0  0  0  0  0
  146.4879  137.6136  158.0775 H   0  0  0  0  0  0  0  0  0  0  0  0
  150.8286  136.2513  154.7989 H   0  0  0  0  0  0  0  0  0  0  0  0
  149.8474  137.2505  153.7415 H   0  0  0  0  0  0  0  0  0  0  0  0
  152.1794  138.2169  155.4939 H   0  0  0  0  0  0  0  0  0  0  0  0
  152.1726  138.0923  153.7451 H   0  0  0  0  0  0  0  0  0  0  0  0
  150.7818  139.9092  156.5395 H   0  0  0  0  0  0  0  0  0  0  0  0
  149.8220  140.9509  155.5055 H   0  0  0  0  0  0  0  0  0  0  0  0
  148.3686  139.0734  154.8395 H   0  0  0  0  0  0  0  0  0  0  0  0
  148.3935  139.2027  156.5901 H   0  0  0  0  0  0  0  0  0  0  0  0
  147.4185  135.1402  151.8791 H   0  0  0  0  0  0  0  0  0  0  0  0
  147.6378  133.1618  150.6136 H   0  0  0  0  0  0  0  0  0  0  0  0
  146.4751  131.5432  149.1134 H   0  0  0  0  0  0  0  0  0  0  0  0
  143.9657  131.4461  149.1436 H   0  0  0  0  0  0  0  0  0  0  0  0
  142.7340  132.9892  150.6917 H   0  0  0  0  0  0  0  0  0  0  0  0
  150.0997  137.5416  156.6269 H   0  0  0  0  0  0  0  0  0  0  0  0
  1  2  2  0  0  0  0
  2  3  1  0  0  0  0
  2 17  1  0  0  0  0
  3  4  1  0  0  0  0
  3 24  1  0  0  0  0
  4  5  1  0  0  0  0
  4 25  1  0  0  0  0
  4 26  1  0  0  0  0
  5  6  1  0  0  0  0
  5 11  1  0  0  0  0
  5 27  1  0  0  0  0
  6 10  1  0  0  0  0
  6  7  1  0  0  0  0
  6 28  1  0  0  0  0
  7  8  1  0  0  0  0
  7 29  1  0  0  0  0
  7 30  1  0  0  0  0
  8  9  1  0  0  0  0
  8 31  1  0  0  0  0
  8 32  1  0  0  0  0
  9 10  1  0  0  0  0
 10 33  1  0  0  0  0
 10 34  1  0  0  0  0
 11 16  1  0  0  0  0
 11 12  1  0  0  0  0
 11 48  1  0  0  0  0
 12 13  1  0  0  0  0
 12 35  1  0  0  0  0
 12 36  1  0  0  0  0
 13 14  1  0  0  0  0
 13 37  1  0  0  0  0
 13 38  1  0  0  0  0
 14 15  1  0  0  0  0
 15 16  1  0  0  0  0
 15 39  1  0  0  0  0
 15 40  1  0  0  0  0
 16 41  1  0  0  0  0
 16 42  1  0  0  0  0
 17 18  1  0  0  0  0
 17 43  1  0  0  0  0
 18 23  1  0  0  0  0
 18 19  2  0  0  0  0
 19 20  1  0  0  0  0
 19 44  1  0  0  0  0
 20 21  2  0  0  0  0
 20 45  1  0  0  0  0
 21 22  1  0  0  0  0
 21 46  1  0  0  0  0
 22 23  2  0  0  0  0
 22 47  1  0  0  0  0
M  CHG  1  11   1
M  END
> <s_m_source_file>
AV-unprocessed.smi

> <i_m_source_file_index>
1933

> <i_lp_mmshare_version>
43012

> <i_f3d_flags>
0

> <s_epik_input>
bjFbY0hdW2NIXVtjSF1bY0hdYzFbTkhdQyg9TylbTkhdW0NIMl1bQ0BIXShbQ0BASF0yW0NIMl1bQ0gyXU9bQ0gyXTIpTjNbQ0gyXVtDSDJdT1tDSDJdW0NIMl0z

> <s_epik_cmdline>
J2VwaWtfcHl0aG9uJywgJy1waCcsICc3LjAnLCAnLXRuJywgJzgnLCAnLW1hJywgJzIwMCcsICctbWV0YWxfYmluZGluZycsICctaW1hZScsICc8aW5maWxlLm1hZT4nLCAnLW9tYWUnLCAnPG91dGZpbGUubWFlPic=

> <r_epik_Ionization_Penalty>
0.983294

> <r_epik_Ionization_Penalty_Charging>
0.98326

> <r_epik_Ionization_Penalty_Neutral>
3.39688e-05

> <r_epik_State_Penalty>
1.0303

> <r_epik_Charging_Adjusted_Penalty>
2.01356

> <i_epik_Tot_Q>
1

> <i_epik_Tot_abs_Q>
1

> <r_epik_Metal_State_Penalty>
1.0303

> <b_epik_Metal_Only>
0

> <s_lp_Force_Field>
OPLS_2005

> <r_lp_Energy>
40.8927

> <b_lp_Chiralities_Consistent>
1

> <s_lp_Variant>
AV-unprocessed.smi:1933-7

> <Gold.Version>
5.8.1

> <Gold.Id.Protein>
6NUR|6NUR_protein|mol2

> <Gold.PLP.Fitness>
43.0812

> <Gold.PLP.PLP>
-31.8346

> <Gold.PLP.part.hbond>
-4.3084

> <Gold.PLP.part.metal>
0.0000

> <Gold.PLP.part.buried>
-5.4769

> <Gold.PLP.part.nonpolar>
-24.4790

> <Gold.PLP.part.repulsive>
0.3118

> <Gold.PLP.ligand.clash>
0.0000

> <Gold.PLP.ligand.torsion>
1.4017

> <Gold.PLP.Chemscore.Hbond>
3.6080

> <Gold.PLP.Chemscore.CHOScore>
1.0000

> <Gold.PLP.Chemscore.Metal>
0.0000

> <Gold.Chemscore.Hbonds>
donor molecule, donor type, donor heavy atom, donor atom, acceptor molecule, acceptor atom, score
      L1  H     3    24       P1  7948  1.00
      L1  H    17    43       P1  7948  1.00
      P1  H  6934  6947       L1     9  0.57
      P1  H  7989  7998       L1    14  1.00
      L1  C    22    47       P1 10186  1.00

> <Gold.PLP.Chemscore.Internal.Correction>
0.2259

> <Gold.Rescore>
     Score         DG    S(hbond)    S(metal)    S(lipo)     H(rot)  DE(clash)    DE(int)     intcor
     19.30     -21.43       3.57        0.00      73.16       1.77       0.04       2.09       ----

> <Gold.Chemscore.Fitness>
19.2977

> <Gold.Chemscore.DG>
-21.4263

> <Gold.Chemscore.ZeroCoef>
-5.4800

> <Gold.Chemscore.Hbond>
3.5660

> <Gold.Chemscore.Metal>
0.0000

> <Gold.Chemscore.Lipo>
73.1580

> <Gold.Chemscore.Internal_Hbond>
0.0000

> <Gold.Chemscore.DEClash>
0.0359

> <Gold.Chemscore.DEInternal>
2.0927

> <Gold.Chemscore.Rot>
1.7671

> <Gold.Chemscore.Internal.Correction>
   9.000000E+99

> <Gold.Chemscore.Hbonds>
donor molecule, donor type, donor heavy atom, donor atom, acceptor molecule, acceptor atom, score
      L1  H     3    24       P1  7948  0.98
      L1  H    17    43       P1  7948  0.93
      P1  H  6934  6947       L1     9  0.55
      P1  H  7989  7998       L1    14  0.97

> <Gold.Chemscore.Hbond.Weighted>
-11.9105

> <Gold.Chemscore.Metal.Weighted>
-0.0000

> <Gold.Chemscore.Lipo.Weighted>
-8.5595

> <Gold.Chemscore.Internal_Hbond.Weighted>
0.0000

> <Gold.Chemscore.DEClash.Weighted>
0.0359

> <Gold.Chemscore.DEInternal.Weighted>
2.0927

> <Gold.Chemscore.Rot.Weighted>
4.5238

> <Gold.Chemscore.Internal.Correction.Weighted>
   9.000000E+99

> <Gold.Protein.RotatedTorsions>
[ 6907 6896 6895 6894 ] final  105.17 input  -60.11 | X-H torsion
[ 7974 7965 7964 7962 ] final  -69.79 input  175.53 | X-H torsion
[ 8008 7997 7996 7995 ] final   42.97 input   59.86 | X-H torsion
[ 10167 10162 10161 10158 ] final  106.37 input  -65.29 | X-H torsion
[ 10718 10713 10712 10709 ] final  -58.18 input   66.30 | X-H torsion
[ 10763 10752 10751 10750 ] final  -76.56 input  -60.55 | X-H torsion
[ 11005 11000 10999 10996 ] final   49.95 input  -57.11 | X-H torsion

> <Gold.Protein.ActiveResidues>
 VAL166  LYS551  ARG553  GLY616  TRP617  ASP618  TYR619  PRO620  LYS621  CYS622 
 ASP623  PHE694  ASN695  SER759  ASP760  ASP761  ALA762  ILE779  LEU786  VAL792 
 PHE793  MET794  SER795  GLU796  ALA797  LYS798  CYS799  TRP800  GLU811  SER814 

> <Gold.Protein.RotatedAtoms>
  152.5240  133.9568  159.7697 H   0  0  0  0  0  0  0  0  0  0  0  0  # atno 6907 bound_to 6896
  150.9867  133.6182  159.2721 H   0  0  0  0  0  0  0  0  0  0  0  0  # atno 6908 bound_to 6896
  151.3340  135.0854  159.9401 H   0  0  0  0  0  0  0  0  0  0  0  0  # atno 6909 bound_to 6896
  145.6993  140.9123  143.0739 H   0  0  0  0  0  0  0  0  0  0  0  0  # atno 7974 bound_to 7965
  155.2949  140.3381  155.4250 H   0  0  0  0  0  0  0  0  0  0  0  0  # atno 8008 bound_to 7997
  156.2028  140.1739  156.7902 H   0  0  0  0  0  0  0  0  0  0  0  0  # atno 8009 bound_to 7997
  154.5582  140.0692  156.8761 H   0  0  0  0  0  0  0  0  0  0  0  0  # atno 8010 bound_to 7997
  139.7015  144.7093  151.1178 H   0  0  0  0  0  0  0  0  0  0  0  0  # atno 10167 bound_to 10162
  156.1154  130.4171  150.0542 H   0  0  0  0  0  0  0  0  0  0  0  0  # atno 10718 bound_to 10713
  154.5014  135.5793  153.6534 H   0  0  0  0  0  0  0  0  0  0  0  0  # atno 10763 bound_to 10752
  152.9879  135.6136  154.2997 H   0  0  0  0  0  0  0  0  0  0  0  0  # atno 10764 bound_to 10752
  154.2905  135.2849  155.2636 H   0  0  0  0  0  0  0  0  0  0  0  0  # atno 10765 bound_to 10752
  140.1059  134.5018  155.8720 H   0  0  0  0  0  0  0  0  0  0  0  0  # atno 11005 bound_to 11000
  144.6973  139.8926  143.7454 LP  0  0  0  0  0  0  0  0  0  0  0  0  # atno 17320 bound_to 7965
  146.0812  139.3800  143.0463 LP  0  0  0  0  0  0  0  0  0  0  0  0  # atno 17321 bound_to 7965
  140.7710  143.5418  150.9304 LP  0  0  0  0  0  0  0  0  0  0  0  0  # atno 17342 bound_to 10162
  139.9100  143.6732  152.3117 LP  0  0  0  0  0  0  0  0  0  0  0  0  # atno 17343 bound_to 10162
  156.8495  130.9454  151.3626 LP  0  0  0  0  0  0  0  0  0  0  0  0  # atno 17370 bound_to 10713
  157.6337  130.8750  149.9320 LP  0  0  0  0  0  0  0  0  0  0  0  0  # atno 17371 bound_to 10713
  141.2118  133.6711  156.6611 LP  0  0  0  0  0  0  0  0  0  0  0  0  # atno 17394 bound_to 11000
  140.3156  134.8050  157.4211 LP  0  0  0  0  0  0  0  0  0  0  0  0  # atno 17395 bound_to 11000

$$$$
