AV-unprocessed.smi:3330|AV-procd|sdf|12803|dock10
  -GOLD-   2272019163D 1   1.00000     0.00000
 Structure written by MMmdl.
 39 40  0  0  0  0  0  0  0  0  2 V2000
  146.3010  132.8772  153.9847 C   0  0  0  0  0  0  0  0  0  0  0  0
  146.7583  133.9622  152.9926 C   0  0  2  0  0  0  0  0  0  0  0  0
  147.3095  135.1031  153.7584 N   0  3  0  0  0  0  0  0  0  0  0  0
  148.0876  134.7291  154.9564 C   0  0  0  0  0  0  0  0  0  0  0  0
  149.5657  134.5063  154.6035 C   0  0  0  0  0  0  0  0  0  0  0  0
  149.9527  133.1065  154.7954 N   0  0  0  0  0  0  0  0  0  0  0  0
  149.7514  132.1364  153.8944 C   0  0  0  0  0  0  0  0  0  0  0  0
  149.2217  132.2410  152.7889 O   0  0  0  0  0  0  0  0  0  0  0  0
  150.3053  130.8430  154.4513 C   0  0  0  0  0  0  0  0  0  0  0  0
  150.8024  131.3284  155.7211 N   0  0  0  0  0  0  0  0  0  0  0  0
  150.5882  132.6400  155.8857 C   0  0  0  0  0  0  0  0  0  0  0  0
  150.9270  133.2978  156.8684 O   0  0  0  0  0  0  0  0  0  0  0  0
  145.6211  134.4375  152.0473 C   0  0  1  0  0  0  0  0  0  0  0  0
  145.7453  135.9207  151.6490 C   0  0  0  0  0  0  0  0  0  0  0  0
  145.5215  133.6089  150.8523 N   0  0  0  0  0  0  0  0  0  0  0  0
  144.4847  133.5400  149.9445 C   0  0  0  0  0  0  0  0  0  0  0  0
  144.8355  132.6273  148.9916 C   0  0  0  0  0  0  0  0  0  0  0  0
  146.1234  132.1859  149.4040 C   0  0  0  0  0  0  0  0  0  0  0  0
  146.5317  132.7746  150.5161 N   0  0  0  0  0  0  0  0  0  0  0  0
  145.9873  131.9663  153.4746 H   0  0  0  0  0  0  0  0  0  0  0  0
  145.4646  133.2231  154.5929 H   0  0  0  0  0  0  0  0  0  0  0  0
  147.1105  132.5999  154.6609 H   0  0  0  0  0  0  0  0  0  0  0  0
  147.5542  133.5233  152.3880 H   0  0  0  0  0  0  0  0  0  0  0  0
  147.8973  135.6470  153.1429 H   0  0  0  0  0  0  0  0  0  0  0  0
  147.9944  135.5200  155.7022 H   0  0  0  0  0  0  0  0  0  0  0  0
  147.6679  133.8229  155.3944 H   0  0  0  0  0  0  0  0  0  0  0  0
  149.7509  134.8008  153.5687 H   0  0  0  0  0  0  0  0  0  0  0  0
  150.1976  135.1552  155.2126 H   0  0  0  0  0  0  0  0  0  0  0  0
  149.5247  130.0932  154.5834 H   0  0  0  0  0  0  0  0  0  0  0  0
  151.1086  130.4471  153.8290 H   0  0  0  0  0  0  0  0  0  0  0  0
  151.2653  130.7344  156.3941 H   0  0  0  0  0  0  0  0  0  0  0  0
  144.6760  134.3233  152.5806 H   0  0  0  0  0  0  0  0  0  0  0  0
  145.6558  136.5772  152.5145 H   0  0  0  0  0  0  0  0  0  0  0  0
  144.9575  136.2045  150.9503 H   0  0  0  0  0  0  0  0  0  0  0  0
  146.7027  136.1287  151.1702 H   0  0  0  0  0  0  0  0  0  0  0  0
  143.5918  134.1384  150.0513 H   0  0  0  0  0  0  0  0  0  0  0  0
  144.2606  132.3221  148.1299 H   0  0  0  0  0  0  0  0  0  0  0  0
  146.7691  131.4605  148.9310 H   0  0  0  0  0  0  0  0  0  0  0  0
  146.5386  135.6822  154.0590 H   0  0  0  0  0  0  0  0  0  0  0  0
  1  2  1  0  0  0  0
  1 20  1  0  0  0  0
  1 21  1  0  0  0  0
  1 22  1  0  0  0  0
  2  3  1  0  0  0  0
  2 13  1  0  0  0  0
  2 23  1  0  0  0  0
  3  4  1  0  0  0  0
  3 24  1  0  0  0  0
  3 39  1  0  0  0  0
  4  5  1  0  0  0  0
  4 25  1  0  0  0  0
  4 26  1  0  0  0  0
  5  6  1  0  0  0  0
  5 27  1  0  0  0  0
  5 28  1  0  0  0  0
  6 11  1  0  0  0  0
  6  7  1  0  0  0  0
  7  8  2  0  0  0  0
  7  9  1  0  0  0  0
  9 10  1  0  0  0  0
  9 29  1  0  0  0  0
  9 30  1  0  0  0  0
 10 11  1  0  0  0  0
 10 31  1  0  0  0  0
 11 12  2  0  0  0  0
 13 14  1  0  0  0  0
 13 15  1  0  0  0  0
 13 32  1  0  0  0  0
 14 33  1  0  0  0  0
 14 34  1  0  0  0  0
 14 35  1  0  0  0  0
 15 19  1  0  0  0  0
 15 16  1  0  0  0  0
 16 17  2  0  0  0  0
 16 36  1  0  0  0  0
 17 18  1  0  0  0  0
 17 37  1  0  0  0  0
 18 19  2  0  0  0  0
 18 38  1  0  0  0  0
M  CHG  1   3   1
M  END
> <s_m_source_file>
AV-unprocessed.smi

> <i_m_source_file_index>
3330

> <i_lp_mmshare_version>
43012

> <i_f3d_flags>
0

> <s_epik_input>
bjFbY0hdW2NIXVtjSF1uMVtDQEBIXShbQ0gzXSlbQ0BIXShbQ0gzXSlbTkhdW0NIMl1bQ0gyXU4yQyg9TylbQ0gyXVtOSF1DMj1P

> <s_epik_cmdline>
J2VwaWtfcHl0aG9uJywgJy1waCcsICc3LjAnLCAnLXRuJywgJzgnLCAnLW1hJywgJzIwMCcsICctbWV0YWxfYmluZGluZycsICctaW1hZScsICc8aW5maWxlLm1hZT4nLCAnLW9tYWUnLCAnPG91dGZpbGUubWFlPic=

> <r_lp_tautomer_probability>
1

> <r_epik_Ionization_Penalty>
0.0124905

> <r_epik_Ionization_Penalty_Charging>
0.0123685

> <r_epik_Ionization_Penalty_Neutral>
0.000122059

> <r_epik_State_Penalty>
0.00957041

> <r_epik_Charging_Adjusted_Penalty>
0.0219389

> <i_epik_Tot_Q>
1

> <i_epik_Tot_abs_Q>
1

> <r_epik_Metal_State_Penalty>
0.0858301

> <b_epik_Metal_Only>
0

> <s_lp_Force_Field>
OPLS_2005

> <r_lp_Energy>
25.3738

> <b_lp_Chiralities_Consistent>
1

> <s_lp_Variant>
AV-unprocessed.smi:3330-3

> <Gold.Version>
5.8.1

> <Gold.Id.Protein>
6NUR|6NUR_protein|mol2

> <Gold.PLP.Fitness>
41.0764

> <Gold.PLP.PLP>
-31.7640

> <Gold.PLP.part.hbond>
-2.0000

> <Gold.PLP.part.metal>
0.0000

> <Gold.PLP.part.buried>
-4.9937

> <Gold.PLP.part.nonpolar>
-25.5647

> <Gold.PLP.part.repulsive>
0.3508

> <Gold.PLP.ligand.clash>
0.0000

> <Gold.PLP.ligand.torsion>
2.0865

> <Gold.PLP.Chemscore.Hbond>
2.7823

> <Gold.PLP.Chemscore.CHOScore>
1.6807

> <Gold.PLP.Chemscore.Metal>
0.0000

> <Gold.Chemscore.Hbonds>
donor molecule, donor type, donor heavy atom, donor atom, acceptor molecule, acceptor atom, score
      L1  H     3    24       P1  7948  2.00
      P1  H  6896  6907       L1    12  0.17
      L1  C    16    36       P1 10186  0.72
      L1  C    18    38       P1 10747  0.57

> <Gold.PLP.Chemscore.Internal.Correction>
0.0962

> <Gold.Rescore>
     Score         DG    S(hbond)    S(metal)    S(lipo)     H(rot)  DE(clash)    DE(int)     intcor
     10.26     -12.31       1.97        0.00      60.59       2.67       0.00       2.04       ----

> <Gold.Chemscore.Fitness>
10.2607

> <Gold.Chemscore.DG>
-12.3074

> <Gold.Chemscore.ZeroCoef>
-5.4800

> <Gold.Chemscore.Hbond>
1.9656

> <Gold.Chemscore.Metal>
0.0000

> <Gold.Chemscore.Lipo>
60.5869

> <Gold.Chemscore.Internal_Hbond>
0.0000

> <Gold.Chemscore.DEClash>
0.0021

> <Gold.Chemscore.DEInternal>
2.0445

> <Gold.Chemscore.Rot>
2.6666

> <Gold.Chemscore.Internal.Correction>
   9.000000E+99

> <Gold.Chemscore.Hbonds>
donor molecule, donor type, donor heavy atom, donor atom, acceptor molecule, acceptor atom, score
      L1  H     3    24       P1  7948  1.00
      P1  H  6896  6907       L1    12  0.18

> <Gold.Chemscore.Hbond.Weighted>
-6.5652

> <Gold.Chemscore.Metal.Weighted>
-0.0000

> <Gold.Chemscore.Lipo.Weighted>
-7.0887

> <Gold.Chemscore.Internal_Hbond.Weighted>
0.0000

> <Gold.Chemscore.DEClash.Weighted>
0.0021

> <Gold.Chemscore.DEInternal.Weighted>
2.0445

> <Gold.Chemscore.Rot.Weighted>
6.8265

> <Gold.Chemscore.Internal.Correction.Weighted>
   9.000000E+99

> <Gold.Protein.RotatedTorsions>
[ 6907 6896 6895 6894 ] final -139.13 input  -60.11 | X-H torsion
[ 7974 7965 7964 7962 ] final   20.89 input  175.53 | X-H torsion
[ 8008 7997 7996 7995 ] final    1.33 input   59.86 | X-H torsion
[ 10167 10162 10161 10158 ] final  100.00 input  -65.29 | X-H torsion
[ 10718 10713 10712 10709 ] final   52.24 input   66.30 | X-H torsion
[ 10763 10752 10751 10750 ] final   21.62 input  -60.55 | X-H torsion
[ 11005 11000 10999 10996 ] final -121.98 input  -57.11 | X-H torsion

> <Gold.Protein.ActiveResidues>
 VAL166  LYS551  ARG553  GLY616  TRP617  ASP618  TYR619  PRO620  LYS621  CYS622 
 ASP623  PHE694  ASN695  SER759  ASP760  ASP761  ALA762  ILE779  LEU786  VAL792 
 PHE793  MET794  SER795  GLU796  ALA797  LYS798  CYS799  TRP800  GLU811  SER814 

> <Gold.Protein.RotatedAtoms>
  151.0438  133.5683  159.2648 H   0  0  0  0  0  0  0  0  0  0  0  0  # atno 6907 bound_to 6896
  151.2719  135.0686  159.9147 H   0  0  0  0  0  0  0  0  0  0  0  0  # atno 6908 bound_to 6896
  152.5369  134.0167  159.8017 H   0  0  0  0  0  0  0  0  0  0  0  0  # atno 6909 bound_to 6896
  146.2093  139.8105  142.8701 H   0  0  0  0  0  0  0  0  0  0  0  0  # atno 7974 bound_to 7965
  154.6785  140.2627  155.6933 H   0  0  0  0  0  0  0  0  0  0  0  0  # atno 8008 bound_to 7997
  156.2687  140.2815  156.1243 H   0  0  0  0  0  0  0  0  0  0  0  0  # atno 8009 bound_to 7997
  155.1066  140.0375  157.2702 H   0  0  0  0  0  0  0  0  0  0  0  0  # atno 8010 bound_to 7997
  139.7566  144.6967  151.0353 H   0  0  0  0  0  0  0  0  0  0  0  0  # atno 10167 bound_to 10162
  157.5056  130.8467  149.8371 H   0  0  0  0  0  0  0  0  0  0  0  0  # atno 10718 bound_to 10713
  153.0981  135.6665  153.9725 H   0  0  0  0  0  0  0  0  0  0  0  0  # atno 10763 bound_to 10752
  153.9304  135.3005  155.3447 H   0  0  0  0  0  0  0  0  0  0  0  0  # atno 10764 bound_to 10752
  154.7400  135.5084  153.9181 H   0  0  0  0  0  0  0  0  0  0  0  0  # atno 10765 bound_to 10752
  141.0029  134.0376  157.3514 H   0  0  0  0  0  0  0  0  0  0  0  0  # atno 11005 bound_to 11000
  145.3201  141.0242  143.3505 LP  0  0  0  0  0  0  0  0  0  0  0  0  # atno 17320 bound_to 7965
  144.8873  139.4822  143.6694 LP  0  0  0  0  0  0  0  0  0  0  0  0  # atno 17321 bound_to 7965
  140.7803  143.4746  151.0100 LP  0  0  0  0  0  0  0  0  0  0  0  0  # atno 17342 bound_to 10162
  139.8433  143.7535  152.3180 LP  0  0  0  0  0  0  0  0  0  0  0  0  # atno 17343 bound_to 10162
  156.0256  130.3780  150.1832 LP  0  0  0  0  0  0  0  0  0  0  0  0  # atno 17370 bound_to 10713
  157.0022  130.9926  151.3388 LP  0  0  0  0  0  0  0  0  0  0  0  0  # atno 17371 bound_to 10713
  139.9048  135.0176  156.7436 LP  0  0  0  0  0  0  0  0  0  0  0  0  # atno 17394 bound_to 11000
  140.6859  133.9433  155.7938 LP  0  0  0  0  0  0  0  0  0  0  0  0  # atno 17395 bound_to 11000

$$$$
