AV-unprocessed.smi:1952|AV-procd|sdf|7887|dock7
  -GOLD-   2272010 43D 1   1.00000     0.00000
 Structure written by MMmdl.
 38 39  0  0  0  0  0  0  0  0  2 V2000
  144.1027  132.9519  149.7526 C   0  0  0  0  0  0  0  0  0  0  0  0
  144.2047  134.0621  150.7420 C   0  0  0  0  0  0  0  0  0  0  0  0
  144.3582  135.4127  150.6072 C   0  0  0  0  0  0  0  0  0  0  0  0
  144.3881  135.8726  151.9522 C   0  0  0  0  0  0  0  0  0  0  0  0
  144.5132  137.1490  152.3468 N   0  5  0  0  0  0  0  0  0  0  0  0
  145.5418  137.5169  153.1455 C   0  0  0  0  0  0  0  0  0  0  0  0
  146.2785  136.7601  153.7823 O   0  0  0  0  0  0  0  0  0  0  0  0
  145.7285  138.8434  153.2080 N   0  0  0  0  0  0  0  0  0  0  0  0
  146.7715  139.5361  153.9634 C   0  0  2  0  0  0  0  0  0  0  0  0
  146.6810  141.0493  153.7157 C   0  0  0  0  0  0  0  0  0  0  0  0
  148.1588  138.9863  153.5716 C   0  0  0  0  0  0  0  0  0  0  0  0
  149.2353  139.2352  154.5323 N   0  0  0  0  0  0  0  0  0  0  0  0
  149.4976  140.6580  154.7361 C   0  0  0  0  0  0  0  0  0  0  0  0
  150.6448  140.8916  155.7347 C   0  0  0  0  0  0  0  0  0  0  0  0
  151.8156  140.2144  155.2888 O   0  0  0  0  0  0  0  0  0  0  0  0
  151.6096  138.8150  155.1262 C   0  0  0  0  0  0  0  0  0  0  0  0
  150.4700  138.5771  154.1209 C   0  0  0  0  0  0  0  0  0  0  0  0
  144.2471  134.8895  152.8256 N   0  0  0  0  0  0  0  0  0  0  0  0
  144.1365  133.7241  152.0577 O   0  0  0  0  0  0  0  0  0  0  0  0
  143.2718  133.1217  149.0678 H   0  0  0  0  0  0  0  0  0  0  0  0
  143.9406  131.9948  150.2491 H   0  0  0  0  0  0  0  0  0  0  0  0
  145.0167  132.8760  149.1636 H   0  0  0  0  0  0  0  0  0  0  0  0
  144.4418  135.9818  149.6938 H   0  0  0  0  0  0  0  0  0  0  0  0
  145.1036  139.4222  152.6663 H   0  0  0  0  0  0  0  0  0  0  0  0
  146.6218  139.3708  155.0308 H   0  0  0  0  0  0  0  0  0  0  0  0
  147.4482  141.5837  154.2765 H   0  0  0  0  0  0  0  0  0  0  0  0
  145.7127  141.4424  154.0276 H   0  0  0  0  0  0  0  0  0  0  0  0
  146.8124  141.2880  152.6598 H   0  0  0  0  0  0  0  0  0  0  0  0
  148.0609  137.9088  153.4308 H   0  0  0  0  0  0  0  0  0  0  0  0
  148.4416  139.3876  152.5973 H   0  0  0  0  0  0  0  0  0  0  0  0
  149.7438  141.1295  153.7836 H   0  0  0  0  0  0  0  0  0  0  0  0
  148.6060  141.1577  155.1137 H   0  0  0  0  0  0  0  0  0  0  0  0
  150.8596  141.9565  155.8233 H   0  0  0  0  0  0  0  0  0  0  0  0
  150.3675  140.5367  156.7285 H   0  0  0  0  0  0  0  0  0  0  0  0
  152.5321  138.3568  154.7697 H   0  0  0  0  0  0  0  0  0  0  0  0
  151.3761  138.3596  156.0900 H   0  0  0  0  0  0  0  0  0  0  0  0
  150.3009  137.5048  154.0164 H   0  0  0  0  0  0  0  0  0  0  0  0
  150.7745  138.9423  153.1387 H   0  0  0  0  0  0  0  0  0  0  0  0
  1  2  1  0  0  0  0
  1 20  1  0  0  0  0
  1 21  1  0  0  0  0
  1 22  1  0  0  0  0
  2 19  1  0  0  0  0
  2  3  2  0  0  0  0
  3  4  1  0  0  0  0
  3 23  1  0  0  0  0
  4  5  1  0  0  0  0
  4 18  2  0  0  0  0
  5  6  1  0  0  0  0
  6  7  2  0  0  0  0
  6  8  1  0  0  0  0
  8  9  1  0  0  0  0
  8 24  1  0  0  0  0
  9 10  1  0  0  0  0
  9 11  1  0  0  0  0
  9 25  1  0  0  0  0
 10 26  1  0  0  0  0
 10 27  1  0  0  0  0
 10 28  1  0  0  0  0
 11 12  1  0  0  0  0
 11 29  1  0  0  0  0
 11 30  1  0  0  0  0
 12 17  1  0  0  0  0
 12 13  1  0  0  0  0
 13 14  1  0  0  0  0
 13 31  1  0  0  0  0
 13 32  1  0  0  0  0
 14 15  1  0  0  0  0
 14 33  1  0  0  0  0
 14 34  1  0  0  0  0
 15 16  1  0  0  0  0
 16 17  1  0  0  0  0
 16 35  1  0  0  0  0
 16 36  1  0  0  0  0
 17 37  1  0  0  0  0
 17 38  1  0  0  0  0
 18 19  1  0  0  0  0
M  CHG  1   5  -1
M  END
> <s_m_source_file>
AV-unprocessed.smi

> <i_m_source_file_index>
1952

> <i_lp_mmshare_version>
43012

> <i_f3d_flags>
0

> <s_epik_input>
W0NIM11jMVtjSF1jKG5vMSlbTkhdQyg9TylbTkhdW0NASF0oW0NIM10pW0NIMl1OMltDSDJdW0NIMl1PW0NIMl1bQ0gyXTI=

> <s_epik_cmdline>
J2VwaWtfcHl0aG9uJywgJy1waCcsICc3LjAnLCAnLXRuJywgJzgnLCAnLW1hJywgJzIwMCcsICctbWV0YWxfYmluZGluZycsICctaW1hZScsICc8aW5maWxlLm1hZT4nLCAnLW9tYWUnLCAnPG91dGZpbGUubWFlPic=

> <r_epik_Ionization_Penalty>
6.81701

> <r_epik_Ionization_Penalty_Charging>
6.50532

> <r_epik_Ionization_Penalty_Neutral>
0.311686

> <r_epik_State_Penalty>
6.70952

> <r_epik_Charging_Adjusted_Penalty>
13.2148

> <i_epik_Tot_Q>
-1

> <i_epik_Tot_abs_Q>
1

> <r_epik_Metal_State_Penalty>
2.64135

> <b_epik_Metal_Only>
1

> <s_lp_Force_Field>
OPLS_2005

> <r_lp_Energy>
18.9741

> <b_lp_Chiralities_Consistent>
1

> <s_lp_Variant>
AV-unprocessed.smi:1952-5

> <Gold.Version>
5.8.1

> <Gold.Id.Protein>
6NUR|6NUR_protein|mol2

> <Gold.PLP.Fitness>
33.2862

> <Gold.PLP.PLP>
-29.9496

> <Gold.PLP.part.hbond>
-2.0000

> <Gold.PLP.part.metal>
0.0000

> <Gold.PLP.part.buried>
-4.1448

> <Gold.PLP.part.nonpolar>
-25.9180

> <Gold.PLP.part.repulsive>
1.4845

> <Gold.PLP.ligand.clash>
0.0000

> <Gold.PLP.ligand.torsion>
0.7957

> <Gold.PLP.Chemscore.Hbond>
1.6240

> <Gold.PLP.Chemscore.CHOScore>
0.0000

> <Gold.PLP.Chemscore.Metal>
0.0000

> <Gold.Chemscore.Hbonds>
donor molecule, donor type, donor heavy atom, donor atom, acceptor molecule, acceptor atom, score
      L1  H     8    24       P1 10175  1.00
      P1  H  7989  7998       L1    15  0.59

> <Gold.PLP.Chemscore.Internal.Correction>
0.0559

> <Gold.Rescore>
     Score         DG    S(hbond)    S(metal)    S(lipo)     H(rot)  DE(clash)    DE(int)     intcor
      9.60     -13.18       1.03        0.00      69.90       1.53       0.26       3.32       ----

> <Gold.Chemscore.Fitness>
9.6017

> <Gold.Chemscore.DG>
-13.1843

> <Gold.Chemscore.ZeroCoef>
-5.4800

> <Gold.Chemscore.Hbond>
1.0320

> <Gold.Chemscore.Metal>
0.0000

> <Gold.Chemscore.Lipo>
69.9029

> <Gold.Chemscore.Internal_Hbond>
0.0000

> <Gold.Chemscore.DEClash>
0.2644

> <Gold.Chemscore.DEInternal>
3.3182

> <Gold.Chemscore.Rot>
1.5317

> <Gold.Chemscore.Internal.Correction>
   9.000000E+99

> <Gold.Chemscore.Hbonds>
donor molecule, donor type, donor heavy atom, donor atom, acceptor molecule, acceptor atom, score
      L1  H     8    24       P1 10175  0.98
      P1  H  7989  7998       L1    15  0.02

> <Gold.Chemscore.Hbond.Weighted>
-3.4468

> <Gold.Chemscore.Metal.Weighted>
-0.0000

> <Gold.Chemscore.Lipo.Weighted>
-8.1786

> <Gold.Chemscore.Internal_Hbond.Weighted>
0.0000

> <Gold.Chemscore.DEClash.Weighted>
0.2644

> <Gold.Chemscore.DEInternal.Weighted>
3.3182

> <Gold.Chemscore.Rot.Weighted>
3.9211

> <Gold.Chemscore.Internal.Correction.Weighted>
   9.000000E+99

> <Gold.Protein.RotatedTorsions>
[ 6907 6896 6895 6894 ] final  -46.04 input  -60.11 | X-H torsion
[ 7974 7965 7964 7962 ] final -113.82 input  175.53 | X-H torsion
[ 8008 7997 7996 7995 ] final   79.95 input   59.86 | X-H torsion
[ 10167 10162 10161 10158 ] final   44.54 input  -65.29 | X-H torsion
[ 10718 10713 10712 10709 ] final -113.55 input   66.30 | X-H torsion
[ 10763 10752 10751 10750 ] final  148.66 input  -60.55 | X-H torsion
[ 11005 11000 10999 10996 ] final   77.37 input  -57.11 | X-H torsion

> <Gold.Protein.ActiveResidues>
 VAL166  LYS551  ARG553  GLY616  TRP617  ASP618  TYR619  PRO620  LYS621  CYS622 
 ASP623  PHE694  ASN695  SER759  ASP760  ASP761  ALA762  ILE779  LEU786  VAL792 
 PHE793  MET794  SER795  GLU796  ALA797  LYS798  CYS799  TRP800  GLU811  SER814 

> <Gold.Protein.RotatedAtoms>
  150.9155  134.8573  159.7453 H   0  0  0  0  0  0  0  0  0  0  0  0  # atno 6907 bound_to 6896
  152.4966  134.4295  159.9517 H   0  0  0  0  0  0  0  0  0  0  0  0  # atno 6908 bound_to 6896
  151.4334  133.3624  159.2807 H   0  0  0  0  0  0  0  0  0  0  0  0  # atno 6909 bound_to 6896
  145.1275  140.8705  143.3777 H   0  0  0  0  0  0  0  0  0  0  0  0  # atno 7974 bound_to 7965
  155.8768  140.3446  155.5859 H   0  0  0  0  0  0  0  0  0  0  0  0  # atno 8008 bound_to 7997
  155.7765  140.0852  157.2100 H   0  0  0  0  0  0  0  0  0  0  0  0  # atno 8009 bound_to 7997
  154.4021  140.1508  156.2990 H   0  0  0  0  0  0  0  0  0  0  0  0  # atno 8010 bound_to 7997
  140.3332  144.2562  150.6165 H   0  0  0  0  0  0  0  0  0  0  0  0  # atno 10167 bound_to 10162
  156.0773  130.5979  150.8657 H   0  0  0  0  0  0  0  0  0  0  0  0  # atno 10718 bound_to 10713
  154.0584  135.2876  155.3329 H   0  0  0  0  0  0  0  0  0  0  0  0  # atno 10763 bound_to 10752
  154.6824  135.5258  153.8284 H   0  0  0  0  0  0  0  0  0  0  0  0  # atno 10764 bound_to 10752
  153.0532  135.6585  154.0775 H   0  0  0  0  0  0  0  0  0  0  0  0  # atno 10765 bound_to 10752
  139.9257  134.7677  156.1514 H   0  0  0  0  0  0  0  0  0  0  0  0  # atno 11005 bound_to 11000
  145.0672  139.3060  143.5850 LP  0  0  0  0  0  0  0  0  0  0  0  0  # atno 17320 bound_to 7965
  146.3516  140.0134  142.8665 LP  0  0  0  0  0  0  0  0  0  0  0  0  # atno 17321 bound_to 7965
  140.5378  143.2230  151.8135 LP  0  0  0  0  0  0  0  0  0  0  0  0  # atno 17342 bound_to 10162
  139.4853  144.4639  151.9507 LP  0  0  0  0  0  0  0  0  0  0  0  0  # atno 17343 bound_to 10162
  157.5875  131.0945  150.9173 LP  0  0  0  0  0  0  0  0  0  0  0  0  # atno 17370 bound_to 10713
  156.9356  130.5365  149.5279 LP  0  0  0  0  0  0  0  0  0  0  0  0  # atno 17371 bound_to 10713
  141.0813  133.6753  156.2342 LP  0  0  0  0  0  0  0  0  0  0  0  0  # atno 17394 bound_to 11000
  140.6343  134.5232  157.5563 LP  0  0  0  0  0  0  0  0  0  0  0  0  # atno 17395 bound_to 11000

$$$$
