AV-unprocessed.smi:1644|AV-procd|sdf|6589|dock9
  -GOLD-   22720 7283D 1   1.00000     0.00000
 Structure written by MMmdl.
 50 52  0  0  0  0  0  0  0  0  2 V2000
  146.9152  135.4199  162.5976 C   0  0  0  0  0  0  0  0  0  0  0  0
  147.7429  135.7333  161.3466 C   0  0  0  0  0  0  0  0  0  0  0  0
  146.8608  136.1220  160.1426 C   0  0  0  0  0  0  0  0  0  0  0  0
  147.5886  136.2389  158.7836 C   0  0  1  0  0  0  0  0  0  0  0  0
  146.8663  137.0377  157.8134 N   0  0  0  0  0  0  0  0  0  0  0  0
  147.5862  138.0755  157.3667 C   0  0  0  0  0  0  0  0  0  0  0  0
  147.2100  138.8905  156.5255 O   0  0  0  0  0  0  0  0  0  0  0  0
  148.7804  138.0630  157.9874 N   0  0  0  0  0  0  0  0  0  0  0  0
  149.8432  139.0449  157.7522 C   0  0  0  0  0  0  0  0  0  0  0  0
  150.9910  138.4523  156.9103 C   0  0  2  0  0  0  0  0  0  0  0  0
  151.7105  137.5275  157.7024 O   0  0  0  0  0  0  0  0  0  0  0  0
  151.9707  139.5423  156.4343 C   0  0  0  0  0  0  0  0  0  0  0  0
  151.4466  140.8991  156.6330 N   0  0  0  0  0  0  0  0  0  0  0  0
  150.6482  141.6576  155.8345 C   0  0  0  0  0  0  0  0  0  0  0  0
  150.4418  142.8443  156.4707 N   0  3  0  0  0  0  0  0  0  0  0  0
  151.1182  142.8415  157.6932 C   0  0  0  0  0  0  0  0  0  0  0  0
  151.2104  143.8084  158.6874 C   0  0  0  0  0  0  0  0  0  0  0  0
  151.9858  143.4911  159.8259 C   0  0  0  0  0  0  0  0  0  0  0  0
  152.1078  144.5258  160.9319 C   0  0  0  0  0  0  0  0  0  0  0  0
  152.6377  142.2355  159.9393 C   0  0  0  0  0  0  0  0  0  0  0  0
  153.4662  141.9031  161.1686 C   0  0  0  0  0  0  0  0  0  0  0  0
  152.5335  141.2663  158.9162 C   0  0  0  0  0  0  0  0  0  0  0  0
  151.7654  141.5959  157.8024 C   0  0  0  0  0  0  0  0  0  0  0  0
  148.8832  137.0298  158.8328 C   0  0  0  0  0  0  0  0  0  0  0  0
  149.8463  136.7351  159.5400 O   0  0  0  0  0  0  0  0  0  0  0  0
  147.5609  135.1494  163.4331 H   0  0  0  0  0  0  0  0  0  0  0  0
  146.2344  134.5869  162.4199 H   0  0  0  0  0  0  0  0  0  0  0  0
  146.3199  136.2810  162.9024 H   0  0  0  0  0  0  0  0  0  0  0  0
  148.4376  136.5414  161.5765 H   0  0  0  0  0  0  0  0  0  0  0  0
  148.3523  134.8629  161.1024 H   0  0  0  0  0  0  0  0  0  0  0  0
  146.0491  135.3996  160.0464 H   0  0  0  0  0  0  0  0  0  0  0  0
  146.3791  137.0768  160.3564 H   0  0  0  0  0  0  0  0  0  0  0  0
  147.7853  135.2501  158.3675 H   0  0  0  0  0  0  0  0  0  0  0  0
  145.9311  136.8142  157.5047 H   0  0  0  0  0  0  0  0  0  0  0  0
  149.4006  139.8909  157.2235 H   0  0  0  0  0  0  0  0  0  0  0  0
  150.2180  139.4627  158.6886 H   0  0  0  0  0  0  0  0  0  0  0  0
  150.5903  137.9292  156.0412 H   0  0  0  0  0  0  0  0  0  0  0  0
  151.1136  137.1309  158.3189 H   0  0  0  0  0  0  0  0  0  0  0  0
  152.9238  139.4675  156.9594 H   0  0  0  0  0  0  0  0  0  0  0  0
  152.1910  139.4226  155.3724 H   0  0  0  0  0  0  0  0  0  0  0  0
  150.2480  141.3681  154.8733 H   0  0  0  0  0  0  0  0  0  0  0  0
  150.7103  144.7615  158.5952 H   0  0  0  0  0  0  0  0  0  0  0  0
  153.1521  144.7958  161.0907 H   0  0  0  0  0  0  0  0  0  0  0  0
  151.7046  144.1355  161.8666 H   0  0  0  0  0  0  0  0  0  0  0  0
  151.5619  145.4377  160.6881 H   0  0  0  0  0  0  0  0  0  0  0  0
  153.8922  140.9013  161.1038 H   0  0  0  0  0  0  0  0  0  0  0  0
  152.8515  141.9454  162.0680 H   0  0  0  0  0  0  0  0  0  0  0  0
  154.2899  142.6091  161.2773 H   0  0  0  0  0  0  0  0  0  0  0  0
  153.0285  140.3098  159.0011 H   0  0  0  0  0  0  0  0  0  0  0  0
  149.8789  143.5974  156.0963 H   0  0  0  0  0  0  0  0  0  0  0  0
  1  2  1  0  0  0  0
  1 26  1  0  0  0  0
  1 27  1  0  0  0  0
  1 28  1  0  0  0  0
  2  3  1  0  0  0  0
  2 29  1  0  0  0  0
  2 30  1  0  0  0  0
  3  4  1  0  0  0  0
  3 31  1  0  0  0  0
  3 32  1  0  0  0  0
  4 24  1  0  0  0  0
  4  5  1  0  0  0  0
  4 33  1  0  0  0  0
  5  6  1  0  0  0  0
  5 34  1  0  0  0  0
  6  7  2  0  0  0  0
  6  8  1  0  0  0  0
  8  9  1  0  0  0  0
  8 24  1  0  0  0  0
  9 10  1  0  0  0  0
  9 35  1  0  0  0  0
  9 36  1  0  0  0  0
 10 11  1  0  0  0  0
 10 12  1  0  0  0  0
 10 37  1  0  0  0  0
 11 38  1  0  0  0  0
 12 13  1  0  0  0  0
 12 39  1  0  0  0  0
 12 40  1  0  0  0  0
 13 23  1  0  0  0  0
 13 14  1  0  0  0  0
 14 15  2  0  0  0  0
 14 41  1  0  0  0  0
 15 16  1  0  0  0  0
 15 50  1  0  0  0  0
 16 23  2  0  0  0  0
 16 17  1  0  0  0  0
 17 18  2  0  0  0  0
 17 42  1  0  0  0  0
 18 19  1  0  0  0  0
 18 20  1  0  0  0  0
 19 43  1  0  0  0  0
 19 44  1  0  0  0  0
 19 45  1  0  0  0  0
 20 21  1  0  0  0  0
 20 22  2  0  0  0  0
 21 46  1  0  0  0  0
 21 47  1  0  0  0  0
 21 48  1  0  0  0  0
 22 23  1  0  0  0  0
 22 49  1  0  0  0  0
 24 25  2  0  0  0  0
M  CHG  1  15   1
M  END
> <s_m_source_file>
AV-unprocessed.smi

> <i_m_source_file_index>
1644

> <i_lp_mmshare_version>
43012

> <i_f3d_flags>
0

> <s_epik_input>
W0NIM11bQ0gyXVtDSDJdW0NAQEhdMVtOSF1DKD1PKU4oQzE9TylbQ0gyXVtDQEhdKFtPSF0pW0NIMl1uKFtjSF1uMiljKGMyMylbY0hdYyhbQ0gzXSljKFtjSF0zKVtDSDNd

> <s_epik_cmdline>
J2VwaWtfcHl0aG9uJywgJy1waCcsICc3LjAnLCAnLXRuJywgJzgnLCAnLW1hJywgJzIwMCcsICctbWV0YWxfYmluZGluZycsICctaW1hZScsICc8aW5maWxlLm1hZT4nLCAnLW9tYWUnLCAnPG91dGZpbGUubWFlPic=

> <r_lp_tautomer_probability>
1

> <r_epik_Ionization_Penalty>
1.06742

> <r_epik_Ionization_Penalty_Charging>
1.06736

> <r_epik_Ionization_Penalty_Neutral>
5.56132e-05

> <r_epik_State_Penalty>
1.12163

> <r_epik_Charging_Adjusted_Penalty>
2.18899

> <i_epik_Tot_Q>
1

> <i_epik_Tot_abs_Q>
1

> <r_epik_Metal_State_Penalty>
1.26636

> <b_epik_Metal_Only>
0

> <s_lp_Force_Field>
OPLS_2005

> <r_lp_Energy>
29.5638

> <b_lp_Chiralities_Consistent>
1

> <s_lp_Variant>
AV-unprocessed.smi:1644-6

> <Gold.Version>
5.8.1

> <Gold.Id.Protein>
6NUR|6NUR_protein|mol2

> <Gold.PLP.Fitness>
52.9449

> <Gold.PLP.PLP>
-46.7426

> <Gold.PLP.part.hbond>
-2.0000

> <Gold.PLP.part.metal>
0.0000

> <Gold.PLP.part.buried>
-7.4557

> <Gold.PLP.part.nonpolar>
-36.5042

> <Gold.PLP.part.repulsive>
0.1070

> <Gold.PLP.ligand.clash>
0.0000

> <Gold.PLP.ligand.torsion>
1.4321

> <Gold.PLP.Chemscore.Hbond>
3.0000

> <Gold.PLP.Chemscore.CHOScore>
0.0000

> <Gold.PLP.Chemscore.Metal>
0.0000

> <Gold.Chemscore.Hbonds>
donor molecule, donor type, donor heavy atom, donor atom, acceptor molecule, acceptor atom, score
      L1  H    15    50       P1  8028  2.00
      P1  H  6896  6908       L1    25  0.83

> <Gold.PLP.Chemscore.Internal.Correction>
0.0664

> <Gold.Rescore>
     Score         DG    S(hbond)    S(metal)    S(lipo)     H(rot)  DE(clash)    DE(int)     intcor
     16.54     -19.43       2.00        0.00     123.48       2.80       0.16       2.73       ----

> <Gold.Chemscore.Fitness>
16.5407

> <Gold.Chemscore.DG>
-19.4337

> <Gold.Chemscore.ZeroCoef>
-5.4800

> <Gold.Chemscore.Hbond>
1.9954

> <Gold.Chemscore.Metal>
0.0000

> <Gold.Chemscore.Lipo>
123.4791

> <Gold.Chemscore.Internal_Hbond>
0.0000

> <Gold.Chemscore.DEClash>
0.1586

> <Gold.Chemscore.DEInternal>
2.7344

> <Gold.Chemscore.Rot>
2.7961

> <Gold.Chemscore.Internal.Correction>
   9.000000E+99

> <Gold.Chemscore.Hbonds>
donor molecule, donor type, donor heavy atom, donor atom, acceptor molecule, acceptor atom, score
      L1  H    15    50       P1  8028  0.96
      P1  H  6896  6908       L1    25  0.82

> <Gold.Chemscore.Hbond.Weighted>
-6.6647

> <Gold.Chemscore.Metal.Weighted>
-0.0000

> <Gold.Chemscore.Lipo.Weighted>
-14.4471

> <Gold.Chemscore.Internal_Hbond.Weighted>
0.0000

> <Gold.Chemscore.DEClash.Weighted>
0.1586

> <Gold.Chemscore.DEInternal.Weighted>
2.7344

> <Gold.Chemscore.Rot.Weighted>
7.1580

> <Gold.Chemscore.Internal.Correction.Weighted>
   9.000000E+99

> <Gold.Protein.RotatedTorsions>
[ 6907 6896 6895 6894 ] final -165.13 input  -60.11 | X-H torsion
[ 7974 7965 7964 7962 ] final -110.22 input  175.53 | X-H torsion
[ 8008 7997 7996 7995 ] final -153.12 input   59.86 | X-H torsion
[ 10167 10162 10161 10158 ] final -128.26 input  -65.29 | X-H torsion
[ 10718 10713 10712 10709 ] final  108.31 input   66.30 | X-H torsion
[ 10763 10752 10751 10750 ] final  -41.80 input  -60.55 | X-H torsion
[ 11005 11000 10999 10996 ] final  152.97 input  -57.11 | X-H torsion

> <Gold.Protein.ActiveResidues>
 VAL166  LYS551  ARG553  GLY616  TRP617  ASP618  TYR619  PRO620  LYS621  CYS622 
 ASP623  PHE694  ASN695  SER759  ASP760  ASP761  ALA762  ILE779  LEU786  VAL792 
 PHE793  MET794  SER795  GLU796  ALA797  LYS798  CYS799  TRP800  GLU811  SER814 

> <Gold.Protein.RotatedAtoms>
  151.4227  133.3693  159.2758 H   0  0  0  0  0  0  0  0  0  0  0  0  # atno 6907 bound_to 6896
  150.9282  134.8699  159.7544 H   0  0  0  0  0  0  0  0  0  0  0  0  # atno 6908 bound_to 6896
  152.5015  134.4170  159.9520 H   0  0  0  0  0  0  0  0  0  0  0  0  # atno 6909 bound_to 6896
  145.1709  140.8925  143.3536 H   0  0  0  0  0  0  0  0  0  0  0  0  # atno 7974 bound_to 7965
  155.6658  140.0727  157.2538 H   0  0  0  0  0  0  0  0  0  0  0  0  # atno 8008 bound_to 7997
  154.4133  140.1708  156.1876 H   0  0  0  0  0  0  0  0  0  0  0  0  # atno 8009 bound_to 7997
  155.9659  140.3366  155.6535 H   0  0  0  0  0  0  0  0  0  0  0  0  # atno 8010 bound_to 7997
  139.9522  143.6043  152.2472 H   0  0  0  0  0  0  0  0  0  0  0  0  # atno 10167 bound_to 10162
  157.6592  131.0891  150.6286 H   0  0  0  0  0  0  0  0  0  0  0  0  # atno 10718 bound_to 10713
  153.9685  135.6731  153.4746 H   0  0  0  0  0  0  0  0  0  0  0  0  # atno 10763 bound_to 10752
  153.0804  135.4926  154.8488 H   0  0  0  0  0  0  0  0  0  0  0  0  # atno 10764 bound_to 10752
  154.7233  135.3122  154.8973 H   0  0  0  0  0  0  0  0  0  0  0  0  # atno 10765 bound_to 10752
  140.1356  134.8773  157.2262 H   0  0  0  0  0  0  0  0  0  0  0  0  # atno 11005 bound_to 11000
  145.0234  139.3404  143.6061 LP  0  0  0  0  0  0  0  0  0  0  0  0  # atno 17320 bound_to 7965
  146.3469  139.9543  142.8725 LP  0  0  0  0  0  0  0  0  0  0  0  0  # atno 17321 bound_to 7965
  139.6619  144.7662  151.1946 LP  0  0  0  0  0  0  0  0  0  0  0  0  # atno 17342 bound_to 10162
  140.7579  143.5996  150.8713 LP  0  0  0  0  0  0  0  0  0  0  0  0  # atno 17343 bound_to 10162
  156.6590  130.4507  149.5694 LP  0  0  0  0  0  0  0  0  0  0  0  0  # atno 17370 bound_to 10713
  156.2081  130.6662  151.1240 LP  0  0  0  0  0  0  0  0  0  0  0  0  # atno 17371 bound_to 10713
  140.2787  134.3375  155.7350 LP  0  0  0  0  0  0  0  0  0  0  0  0  # atno 17394 bound_to 11000
  141.2177  133.7465  156.9331 LP  0  0  0  0  0  0  0  0  0  0  0  0  # atno 17395 bound_to 11000

$$$$
