AV-unprocessed.smi:1433|AV-procd|sdf|5843|dock4
  -GOLD-   22720 5503D 1   1.00000     0.00000
 Structure written by MMmdl.
 45 46  0  0  0  0  0  0  0  0  2 V2000
  145.9769  132.0260  149.8392 C   0  0  0  0  0  0  0  0  0  0  0  0
  146.2754  133.3223  150.6011 C   0  0  2  0  0  0  0  0  0  0  0  0
  146.8527  133.0492  152.0001 C   0  0  0  0  0  0  0  0  0  0  0  0
  147.0718  134.3174  152.7448 N   0  3  2  0  0  0  0  0  0  0  0  0
  147.7798  134.0987  154.0487 C   0  0  1  0  0  0  0  0  0  0  0  0
  149.2243  133.6112  153.7905 C   0  0  0  0  0  0  0  0  0  0  0  0
  147.7887  135.3442  154.9802 C   0  0  0  0  0  0  0  0  0  0  0  0
  148.6433  136.4167  154.4821 N   0  0  0  0  0  0  0  0  0  0  0  0
  149.2076  137.3697  155.2400 C   0  0  0  0  0  0  0  0  0  0  0  0
  149.0158  137.4751  156.4512 O   0  0  0  0  0  0  0  0  0  0  0  0
  150.1475  138.3398  154.5241 C   0  0  0  0  0  0  0  0  0  0  0  0
  150.1454  139.6371  155.1771 N   0  0  0  0  0  0  0  0  0  0  0  0
  150.5212  139.9466  156.4676 C   0  0  0  0  0  0  0  0  0  0  0  0
  150.3622  141.2936  156.6250 C   0  0  0  0  0  0  0  0  0  0  0  0
  149.8772  141.7273  155.3595 C   0  0  0  0  0  0  0  0  0  0  0  0
  149.7518  140.7346  154.4937 N   0  0  0  0  0  0  0  0  0  0  0  0
  145.7914  135.0738  152.8173 C   0  0  0  0  0  0  0  0  0  0  0  0
  145.1699  135.2833  151.4212 C   0  0  1  0  0  0  0  0  0  0  0  0
  145.8930  136.3506  150.5796 C   0  0  0  0  0  0  0  0  0  0  0  0
  145.0544  134.0414  150.7314 O   0  0  0  0  0  0  0  0  0  0  0  0
  146.8820  131.4341  149.7008 H   0  0  0  0  0  0  0  0  0  0  0  0
  145.5669  132.2401  148.8519 H   0  0  0  0  0  0  0  0  0  0  0  0
  145.2527  131.4106  150.3739 H   0  0  0  0  0  0  0  0  0  0  0  0
  146.9891  133.9011  150.0147 H   0  0  0  0  0  0  0  0  0  0  0  0
  146.1738  132.4092  152.5666 H   0  0  0  0  0  0  0  0  0  0  0  0
  147.7838  132.4964  151.8898 H   0  0  0  0  0  0  0  0  0  0  0  0
  147.2440  133.3088  154.5778 H   0  0  0  0  0  0  0  0  0  0  0  0
  149.7474  133.3814  154.7189 H   0  0  0  0  0  0  0  0  0  0  0  0
  149.8054  134.3700  153.2656 H   0  0  0  0  0  0  0  0  0  0  0  0
  149.2604  132.7006  153.1951 H   0  0  0  0  0  0  0  0  0  0  0  0
  146.7790  135.7429  155.0842 H   0  0  0  0  0  0  0  0  0  0  0  0
  148.1347  135.0915  155.9834 H   0  0  0  0  0  0  0  0  0  0  0  0
  148.8581  136.4107  153.4948 H   0  0  0  0  0  0  0  0  0  0  0  0
  151.1622  137.9389  154.5084 H   0  0  0  0  0  0  0  0  0  0  0  0
  149.8354  138.4681  153.4867 H   0  0  0  0  0  0  0  0  0  0  0  0
  150.8680  139.1911  157.1573 H   0  0  0  0  0  0  0  0  0  0  0  0
  150.5607  141.8797  157.5100 H   0  0  0  0  0  0  0  0  0  0  0  0
  149.6156  142.7272  155.0464 H   0  0  0  0  0  0  0  0  0  0  0  0
  145.0928  134.5282  153.4538 H   0  0  0  0  0  0  0  0  0  0  0  0
  145.9369  136.0564  153.2650 H   0  0  0  0  0  0  0  0  0  0  0  0
  144.1497  135.6402  151.5659 H   0  0  0  0  0  0  0  0  0  0  0  0
  145.8421  137.3256  151.0648 H   0  0  0  0  0  0  0  0  0  0  0  0
  145.4306  136.4489  149.5971 H   0  0  0  0  0  0  0  0  0  0  0  0
  146.9474  136.1192  150.4317 H   0  0  0  0  0  0  0  0  0  0  0  0
  147.6912  134.8848  152.1841 H   0  0  0  0  0  0  0  0  0  0  0  0
  1  2  1  0  0  0  0
  1 21  1  0  0  0  0
  1 22  1  0  0  0  0
  1 23  1  0  0  0  0
  2 20  1  0  0  0  0
  2  3  1  0  0  0  0
  2 24  1  0  0  0  0
  3  4  1  0  0  0  0
  3 25  1  0  0  0  0
  3 26  1  0  0  0  0
  4  5  1  0  0  0  0
  4 17  1  0  0  0  0
  4 45  1  0  0  0  0
  5  6  1  0  0  0  0
  5  7  1  0  0  0  0
  5 27  1  0  0  0  0
  6 28  1  0  0  0  0
  6 29  1  0  0  0  0
  6 30  1  0  0  0  0
  7  8  1  0  0  0  0
  7 31  1  0  0  0  0
  7 32  1  0  0  0  0
  8  9  1  0  0  0  0
  8 33  1  0  0  0  0
  9 10  2  0  0  0  0
  9 11  1  0  0  0  0
 11 12  1  0  0  0  0
 11 34  1  0  0  0  0
 11 35  1  0  0  0  0
 12 16  1  0  0  0  0
 12 13  1  0  0  0  0
 13 14  2  0  0  0  0
 13 36  1  0  0  0  0
 14 15  1  0  0  0  0
 14 37  1  0  0  0  0
 15 16  2  0  0  0  0
 15 38  1  0  0  0  0
 17 18  1  0  0  0  0
 17 39  1  0  0  0  0
 17 40  1  0  0  0  0
 18 19  1  0  0  0  0
 18 20  1  0  0  0  0
 18 41  1  0  0  0  0
 19 42  1  0  0  0  0
 19 43  1  0  0  0  0
 19 44  1  0  0  0  0
M  CHG  1   4   1
M  END
> <s_m_source_file>
AV-unprocessed.smi

> <i_m_source_file_index>
1433

> <i_lp_mmshare_version>
43012

> <i_f3d_flags>
0

> <s_epik_input>
W0NIM11bQ0BASF0xW0NIMl1OKFtDSDJdW0NASF0oTzEpW0NIM10pW0NASF0oW0NIM10pW0NIMl1bTkhdQyg9TylbQ0gyXW4yW2NIXVtjSF1bY0hdbjI=

> <s_epik_cmdline>
J2VwaWtfcHl0aG9uJywgJy1waCcsICc3LjAnLCAnLXRuJywgJzgnLCAnLW1hJywgJzIwMCcsICctbWV0YWxfYmluZGluZycsICctaW1hZScsICc8aW5maWxlLm1hZT4nLCAnLW9tYWUnLCAnPG91dGZpbGUubWFlPic=

> <r_lp_tautomer_probability>
1

> <r_epik_Ionization_Penalty>
0.748405

> <r_epik_Ionization_Penalty_Charging>
0.748396

> <r_epik_Ionization_Penalty_Neutral>
8.54426e-06

> <r_epik_State_Penalty>
0.775162

> <r_epik_Charging_Adjusted_Penalty>
1.52356

> <i_epik_Tot_Q>
1

> <i_epik_Tot_abs_Q>
1

> <r_epik_Metal_State_Penalty>
0.775167

> <b_epik_Metal_Only>
0

> <s_lp_Force_Field>
OPLS_2005

> <r_lp_Energy>
20.9037

> <b_lp_Chiralities_Consistent>
1

> <s_lp_Variant>
AV-unprocessed.smi:1433-9

> <Gold.Version>
5.8.1

> <Gold.Id.Protein>
6NUR|6NUR_protein|mol2

> <Gold.PLP.Fitness>
47.1898

> <Gold.PLP.PLP>
-33.9247

> <Gold.PLP.part.hbond>
-3.0000

> <Gold.PLP.part.metal>
0.0000

> <Gold.PLP.part.buried>
-3.2584

> <Gold.PLP.part.nonpolar>
-27.5923

> <Gold.PLP.part.repulsive>
0.2522

> <Gold.PLP.ligand.clash>
0.0000

> <Gold.PLP.ligand.torsion>
0.7472

> <Gold.PLP.Chemscore.Hbond>
3.9120

> <Gold.PLP.Chemscore.CHOScore>
0.9775

> <Gold.PLP.Chemscore.Metal>
0.0000

> <Gold.Chemscore.Hbonds>
donor molecule, donor type, donor heavy atom, donor atom, acceptor molecule, acceptor atom, score
      L1  H     4    45       P1  7948  2.00
      L1  H     8    33       P1  7948  1.00
      P1  H  7989  7998       L1    16  0.36
      L1  C    15    38       P1  8028  1.00

> <Gold.PLP.Chemscore.Internal.Correction>
0.0909

> <Gold.Rescore>
     Score         DG    S(hbond)    S(metal)    S(lipo)     H(rot)  DE(clash)    DE(int)     intcor
     15.96     -18.32       2.64        0.00      75.05       1.87       0.19       2.16       ----

> <Gold.Chemscore.Fitness>
15.9633

> <Gold.Chemscore.DG>
-18.3169

> <Gold.Chemscore.ZeroCoef>
-5.4800

> <Gold.Chemscore.Hbond>
2.6445

> <Gold.Chemscore.Metal>
0.0000

> <Gold.Chemscore.Lipo>
75.0472

> <Gold.Chemscore.Internal_Hbond>
0.0000

> <Gold.Chemscore.DEClash>
0.1902

> <Gold.Chemscore.DEInternal>
2.1634

> <Gold.Chemscore.Rot>
1.8657

> <Gold.Chemscore.Internal.Correction>
   9.000000E+99

> <Gold.Chemscore.Hbonds>
donor molecule, donor type, donor heavy atom, donor atom, acceptor molecule, acceptor atom, score
      L1  H     4    45       P1  7948  0.81
      L1  H     8    33       P1  7948  1.00
      P1  H  7989  7998       L1    16  0.01

> <Gold.Chemscore.Hbond.Weighted>
-8.8325

> <Gold.Chemscore.Metal.Weighted>
-0.0000

> <Gold.Chemscore.Lipo.Weighted>
-8.7805

> <Gold.Chemscore.Internal_Hbond.Weighted>
0.0000

> <Gold.Chemscore.DEClash.Weighted>
0.1902

> <Gold.Chemscore.DEInternal.Weighted>
2.1634

> <Gold.Chemscore.Rot.Weighted>
4.7761

> <Gold.Chemscore.Internal.Correction.Weighted>
   9.000000E+99

> <Gold.Protein.RotatedTorsions>
[ 6907 6896 6895 6894 ] final  -50.44 input  -60.11 | X-H torsion
[ 7974 7965 7964 7962 ] final  -36.14 input  175.53 | X-H torsion
[ 8008 7997 7996 7995 ] final   88.29 input   59.86 | X-H torsion
[ 10167 10162 10161 10158 ] final   39.45 input  -65.29 | X-H torsion
[ 10718 10713 10712 10709 ] final -136.51 input   66.30 | X-H torsion
[ 10763 10752 10751 10750 ] final   34.35 input  -60.55 | X-H torsion
[ 11005 11000 10999 10996 ] final  -91.78 input  -57.11 | X-H torsion

> <Gold.Protein.ActiveResidues>
 VAL166  LYS551  ARG553  GLY616  TRP617  ASP618  TYR619  PRO620  LYS621  CYS622 
 ASP623  PHE694  ASN695  SER759  ASP760  ASP761  ALA762  ILE779  LEU786  VAL792 
 PHE793  MET794  SER795  GLU796  ALA797  LYS798  CYS799  TRP800  GLU811  SER814 

> <Gold.Protein.RotatedAtoms>
  150.8707  134.8080  159.7152 H   0  0  0  0  0  0  0  0  0  0  0  0  # atno 6907 bound_to 6896
  152.4712  134.4951  159.9717 H   0  0  0  0  0  0  0  0  0  0  0  0  # atno 6908 bound_to 6896
  151.5040  133.3460  159.2909 H   0  0  0  0  0  0  0  0  0  0  0  0  # atno 6909 bound_to 6896
  146.0687  140.6243  142.8963 H   0  0  0  0  0  0  0  0  0  0  0  0  # atno 7974 bound_to 7965
  155.9859  140.3373  155.6707 H   0  0  0  0  0  0  0  0  0  0  0  0  # atno 8008 bound_to 7997
  155.6486  140.0703  157.2612 H   0  0  0  0  0  0  0  0  0  0  0  0  # atno 8009 bound_to 7997
  154.4205  140.1729  156.1638 H   0  0  0  0  0  0  0  0  0  0  0  0  # atno 8010 bound_to 7997
  140.3838  144.1944  150.6130 H   0  0  0  0  0  0  0  0  0  0  0  0  # atno 10167 bound_to 10162
  156.2779  130.7303  151.1291 H   0  0  0  0  0  0  0  0  0  0  0  0  # atno 10718 bound_to 10713
  153.0168  135.6362  154.1655 H   0  0  0  0  0  0  0  0  0  0  0  0  # atno 10763 bound_to 10752
  154.1393  135.2835  155.3166 H   0  0  0  0  0  0  0  0  0  0  0  0  # atno 10764 bound_to 10752
  154.6136  135.5548  153.7561 H   0  0  0  0  0  0  0  0  0  0  0  0  # atno 10765 bound_to 10752
  141.1537  133.7778  156.9927 H   0  0  0  0  0  0  0  0  0  0  0  0  # atno 11005 bound_to 11000
  144.7218  140.4397  143.7002 LP  0  0  0  0  0  0  0  0  0  0  0  0  # atno 17320 bound_to 7965
  145.6431  139.1553  143.2904 LP  0  0  0  0  0  0  0  0  0  0  0  0  # atno 17321 bound_to 7965
  140.4910  143.2347  151.8818 LP  0  0  0  0  0  0  0  0  0  0  0  0  # atno 17342 bound_to 10162
  139.4793  144.5166  151.8860 LP  0  0  0  0  0  0  0  0  0  0  0  0  # atno 17343 bound_to 10162
  157.7305  131.0616  150.5723 LP  0  0  0  0  0  0  0  0  0  0  0  0  # atno 17370 bound_to 10713
  156.5826  130.4308  149.5971 LP  0  0  0  0  0  0  0  0  0  0  0  0  # atno 17371 bound_to 10713
  140.0992  134.9546  157.1897 LP  0  0  0  0  0  0  0  0  0  0  0  0  # atno 17394 bound_to 11000
  140.3341  134.2777  155.7223 LP  0  0  0  0  0  0  0  0  0  0  0  0  # atno 17395 bound_to 11000

$$$$
