AV-unprocessed.smi:1795|AV-procd|sdf|7242|dock1
  -GOLD-   22720 8493D 1   1.00000     0.00000
 Structure written by MMmdl.
 47 48  0  0  0  0  0  0  0  0  1 V2000
  152.0154  145.2814  158.8179 C   0  0  0  0  0  0  0  0  0  0  0  0
  151.9864  143.8678  159.4084 C   0  0  1  0  0  0  0  0  0  0  0  0
  151.1695  142.8942  158.5392 C   0  0  0  0  0  0  0  0  0  0  0  0
  151.2012  141.5175  159.0422 N   0  0  0  0  0  0  0  0  0  0  0  0
  150.3971  140.5837  158.2185 C   0  0  1  0  0  0  0  0  0  0  0  0
  150.4288  140.9380  156.7090 C   0  0  0  0  0  0  0  0  0  0  0  0
  150.8174  139.0974  158.3907 C   0  0  0  0  0  0  0  0  0  0  0  0
  149.6766  138.1870  158.3525 N   0  0  0  0  0  0  0  0  0  0  0  0
  149.4411  137.2050  159.2347 C   0  0  0  0  0  0  0  0  0  0  0  0
  150.1742  136.9722  160.1969 O   0  0  0  0  0  0  0  0  0  0  0  0
  148.1864  136.3596  158.9692 C   0  0  0  0  0  0  0  0  0  0  0  0
  147.7436  135.5752  160.1342 N   0  0  0  0  0  0  0  0  0  0  0  0
  147.5484  134.1935  159.9374 C   0  0  0  0  0  0  0  0  0  0  0  0
  147.1469  133.3842  160.9302 C   0  0  0  0  0  0  0  0  0  0  0  0
  146.9136  133.9647  162.2314 C   0  0  0  0  0  0  0  0  0  0  0  0
  147.1015  135.2842  162.4319 C   0  0  0  0  0  0  0  0  0  0  0  0
  147.5428  136.1722  161.3497 C   0  0  0  0  0  0  0  0  0  0  0  0
  147.7204  137.3778  161.5253 O   0  0  0  0  0  0  0  0  0  0  0  0
  152.6070  141.1097  159.1490 C   0  0  0  0  0  0  0  0  0  0  0  0
  153.4675  142.0726  159.9910 C   0  0  2  0  0  0  0  0  0  0  0  0
  153.1945  141.9726  161.5019 C   0  0  0  0  0  0  0  0  0  0  0  0
  153.3296  143.4077  159.5110 O   0  0  0  0  0  0  0  0  0  0  0  0
  151.0088  145.6902  158.7261 H   0  0  0  0  0  0  0  0  0  0  0  0
  152.4710  145.2855  157.8273 H   0  0  0  0  0  0  0  0  0  0  0  0
  152.5914  145.9558  159.4520 H   0  0  0  0  0  0  0  0  0  0  0  0
  151.5444  143.9235  160.4034 H   0  0  0  0  0  0  0  0  0  0  0  0
  150.1506  143.2746  158.5201 H   0  0  0  0  0  0  0  0  0  0  0  0
  151.5374  142.9200  157.5124 H   0  0  0  0  0  0  0  0  0  0  0  0
  149.3576  140.6602  158.5417 H   0  0  0  0  0  0  0  0  0  0  0  0
  149.8803  140.2217  156.0987 H   0  0  0  0  0  0  0  0  0  0  0  0
  151.4524  140.9693  156.3341 H   0  0  0  0  0  0  0  0  0  0  0  0
  149.9622  141.8991  156.4986 H   0  0  0  0  0  0  0  0  0  0  0  0
  151.5491  138.8365  157.6238 H   0  0  0  0  0  0  0  0  0  0  0  0
  151.2907  138.9203  159.3548 H   0  0  0  0  0  0  0  0  0  0  0  0
  149.0241  138.3075  157.5914 H   0  0  0  0  0  0  0  0  0  0  0  0
  147.3840  137.0155  158.6261 H   0  0  0  0  0  0  0  0  0  0  0  0
  148.3913  135.6975  158.1264 H   0  0  0  0  0  0  0  0  0  0  0  0
  147.7512  133.8381  158.9374 H   0  0  0  0  0  0  0  0  0  0  0  0
  147.0060  132.3269  160.7610 H   0  0  0  0  0  0  0  0  0  0  0  0
  146.5884  133.3374  163.0483 H   0  0  0  0  0  0  0  0  0  0  0  0
  146.9230  135.7007  163.4123 H   0  0  0  0  0  0  0  0  0  0  0  0
  152.6934  140.1237  159.6014 H   0  0  0  0  0  0  0  0  0  0  0  0
  153.0374  141.0339  158.1491 H   0  0  0  0  0  0  0  0  0  0  0  0
  154.5132  141.8029  159.8410 H   0  0  0  0  0  0  0  0  0  0  0  0
  153.4232  140.9726  161.8710 H   0  0  0  0  0  0  0  0  0  0  0  0
  152.1523  142.1776  161.7463 H   0  0  0  0  0  0  0  0  0  0  0  0
  153.8135  142.6781  162.0564 H   0  0  0  0  0  0  0  0  0  0  0  0
  1  2  1  0  0  0  0
  1 23  1  0  0  0  0
  1 24  1  0  0  0  0
  1 25  1  0  0  0  0
  2 22  1  0  0  0  0
  2  3  1  0  0  0  0
  2 26  1  0  0  0  0
  3  4  1  0  0  0  0
  3 27  1  0  0  0  0
  3 28  1  0  0  0  0
  4  5  1  0  0  0  0
  4 19  1  0  0  0  0
  5  6  1  0  0  0  0
  5  7  1  0  0  0  0
  5 29  1  0  0  0  0
  6 30  1  0  0  0  0
  6 31  1  0  0  0  0
  6 32  1  0  0  0  0
  7  8  1  0  0  0  0
  7 33  1  0  0  0  0
  7 34  1  0  0  0  0
  8  9  1  0  0  0  0
  8 35  1  0  0  0  0
  9 10  2  0  0  0  0
  9 11  1  0  0  0  0
 11 12  1  0  0  0  0
 11 36  1  0  0  0  0
 11 37  1  0  0  0  0
 12 17  1  0  0  0  0
 12 13  1  0  0  0  0
 13 14  2  0  0  0  0
 13 38  1  0  0  0  0
 14 15  1  0  0  0  0
 14 39  1  0  0  0  0
 15 16  2  0  0  0  0
 15 40  1  0  0  0  0
 16 17  1  0  0  0  0
 16 41  1  0  0  0  0
 17 18  2  0  0  0  0
 19 20  1  0  0  0  0
 19 42  1  0  0  0  0
 19 43  1  0  0  0  0
 20 21  1  0  0  0  0
 20 22  1  0  0  0  0
 20 44  1  0  0  0  0
 21 45  1  0  0  0  0
 21 46  1  0  0  0  0
 21 47  1  0  0  0  0
M  END
> <s_m_source_file>
AV-unprocessed.smi

> <i_m_source_file_index>
1795

> <i_lp_mmshare_version>
43012

> <i_f3d_flags>
0

> <s_epik_input>
W0NIM11bQ0BASF0xW0NIMl1OKFtDSDJdW0NASF0oTzEpW0NIM10pW0NASF0oW0NIM10pW0NIMl1bTkhdQyg9TylbQ0gyXW4yW2NIXVtjSF1bY0hdW2NIXWMyPU8=

> <s_epik_cmdline>
J2VwaWtfcHl0aG9uJywgJy1waCcsICc3LjAnLCAnLXRuJywgJzgnLCAnLW1hJywgJzIwMCcsICctbWV0YWxfYmluZGluZycsICctaW1hZScsICc8aW5maWxlLm1hZT4nLCAnLW9tYWUnLCAnPG91dGZpbGUubWFlPic=

> <r_lp_tautomer_probability>
1

> <r_epik_Ionization_Penalty>
0.237383

> <r_epik_Ionization_Penalty_Charging>
3.58805e-07

> <r_epik_Ionization_Penalty_Neutral>
0.237382

> <r_epik_State_Penalty>
0.228245

> <r_epik_Charging_Adjusted_Penalty>
0.228245

> <i_epik_Tot_Q>
0

> <i_epik_Tot_abs_Q>
0

> <r_epik_Metal_State_Penalty>
0.228221

> <b_epik_Metal_Only>
0

> <s_lp_Force_Field>
OPLS_2005

> <r_lp_Energy>
40.9254

> <b_lp_Chiralities_Consistent>
1

> <s_lp_Variant>
AV-unprocessed.smi:1795-6

> <Gold.Version>
5.8.1

> <Gold.Id.Protein>
6NUR|6NUR_protein|mol2

> <Gold.PLP.Fitness>
52.4800

> <Gold.PLP.PLP>
-47.0474

> <Gold.PLP.part.hbond>
-3.9478

> <Gold.PLP.part.metal>
0.0000

> <Gold.PLP.part.buried>
-5.1942

> <Gold.PLP.part.nonpolar>
-38.2776

> <Gold.PLP.part.repulsive>
0.1419

> <Gold.PLP.ligand.clash>
0.0000

> <Gold.PLP.ligand.torsion>
1.3351

> <Gold.PLP.Chemscore.Hbond>
2.6720

> <Gold.PLP.Chemscore.CHOScore>
0.0000

> <Gold.PLP.Chemscore.Metal>
0.0000

> <Gold.Chemscore.Hbonds>
donor molecule, donor type, donor heavy atom, donor atom, acceptor molecule, acceptor atom, score
      P1  H  6896  6907       L1    10  0.73
      P1  H  6931  6943       L1    18  0.91
      P1  H  6934  6947       L1    18  0.70

> <Gold.PLP.Chemscore.Internal.Correction>
0.0868

> <Gold.Rescore>
     Score         DG    S(hbond)    S(metal)    S(lipo)     H(rot)  DE(clash)    DE(int)     intcor
     20.00     -22.38       2.75        0.00     105.77       1.83       0.00       2.38       ----

> <Gold.Chemscore.Fitness>
19.9950

> <Gold.Chemscore.DG>
-22.3779

> <Gold.Chemscore.ZeroCoef>
-5.4800

> <Gold.Chemscore.Hbond>
2.7531

> <Gold.Chemscore.Metal>
0.0000

> <Gold.Chemscore.Lipo>
105.7699

> <Gold.Chemscore.Internal_Hbond>
0.0000

> <Gold.Chemscore.DEClash>
0.0048

> <Gold.Chemscore.DEInternal>
2.3781

> <Gold.Chemscore.Rot>
1.8251

> <Gold.Chemscore.Internal.Correction>
   9.000000E+99

> <Gold.Chemscore.Hbonds>
donor molecule, donor type, donor heavy atom, donor atom, acceptor molecule, acceptor atom, score
      P1  H  6896  6907       L1    10  0.44
      P1  H  6931  6943       L1    18  0.89
      P1  H  6934  6947       L1    18  0.72

> <Gold.Chemscore.Hbond.Weighted>
-9.1952

> <Gold.Chemscore.Metal.Weighted>
-0.0000

> <Gold.Chemscore.Lipo.Weighted>
-12.3751

> <Gold.Chemscore.Internal_Hbond.Weighted>
0.0000

> <Gold.Chemscore.DEClash.Weighted>
0.0048

> <Gold.Chemscore.DEInternal.Weighted>
2.3781

> <Gold.Chemscore.Rot.Weighted>
4.6724

> <Gold.Chemscore.Internal.Correction.Weighted>
   9.000000E+99

> <Gold.Protein.RotatedTorsions>
[ 6907 6896 6895 6894 ] final  -30.51 input  -60.11 | X-H torsion
[ 7974 7965 7964 7962 ] final  147.72 input  175.53 | X-H torsion
[ 8008 7997 7996 7995 ] final  -99.96 input   59.86 | X-H torsion
[ 10167 10162 10161 10158 ] final  -23.25 input  -65.29 | X-H torsion
[ 10718 10713 10712 10709 ] final  -99.56 input   66.30 | X-H torsion
[ 10763 10752 10751 10750 ] final -140.98 input  -60.55 | X-H torsion
[ 11005 11000 10999 10996 ] final  -34.55 input  -57.11 | X-H torsion

> <Gold.Protein.ActiveResidues>
 VAL166  LYS551  ARG553  GLY616  TRP617  ASP618  TYR619  PRO620  LYS621  CYS622 
 ASP623  PHE694  ASN695  SER759  ASP760  ASP761  ALA762  ILE779  LEU786  VAL792 
 PHE793  MET794  SER795  GLU796  ALA797  LYS798  CYS799  TRP800  GLU811  SER814 

> <Gold.Protein.RotatedAtoms>
  151.1046  134.9992  159.8464 H   0  0  0  0  0  0  0  0  0  0  0  0  # atno 6907 bound_to 6896
  152.5439  134.1909  159.8684 H   0  0  0  0  0  0  0  0  0  0  0  0  # atno 6908 bound_to 6896
  151.1955  133.4597  159.2628 H   0  0  0  0  0  0  0  0  0  0  0  0  # atno 6909 bound_to 6896
  144.8569  139.6064  143.5948 H   0  0  0  0  0  0  0  0  0  0  0  0  # atno 7974 bound_to 7965
  154.8220  140.0444  157.1417 H   0  0  0  0  0  0  0  0  0  0  0  0  # atno 8008 bound_to 7997
  154.9249  140.3032  155.5177 H   0  0  0  0  0  0  0  0  0  0  0  0  # atno 8009 bound_to 7997
  156.2981  140.2333  156.4303 H   0  0  0  0  0  0  0  0  0  0  0  0  # atno 8010 bound_to 7997
  140.7287  143.4460  151.0587 H   0  0  0  0  0  0  0  0  0  0  0  0  # atno 10167 bound_to 10162
  156.0137  130.5288  150.6688 H   0  0  0  0  0  0  0  0  0  0  0  0  # atno 10718 bound_to 10713
  154.8560  135.3537  154.5795 H   0  0  0  0  0  0  0  0  0  0  0  0  # atno 10763 bound_to 10752
  153.6406  135.6998  153.5247 H   0  0  0  0  0  0  0  0  0  0  0  0  # atno 10764 bound_to 10752
  153.2974  135.4216  155.1181 H   0  0  0  0  0  0  0  0  0  0  0  0  # atno 10765 bound_to 10752
  140.9725  133.7101  156.1548 H   0  0  0  0  0  0  0  0  0  0  0  0  # atno 11005 bound_to 11000
  146.2830  139.6928  142.9215 LP  0  0  0  0  0  0  0  0  0  0  0  0  # atno 17320 bound_to 7965
  145.4388  141.0421  143.2869 LP  0  0  0  0  0  0  0  0  0  0  0  0  # atno 17321 bound_to 7965
  139.8131  143.7923  152.3172 LP  0  0  0  0  0  0  0  0  0  0  0  0  # atno 17342 bound_to 10162
  139.7979  144.7385  150.9864 LP  0  0  0  0  0  0  0  0  0  0  0  0  # atno 17343 bound_to 10162
  157.4415  131.0862  151.0939 LP  0  0  0  0  0  0  0  0  0  0  0  0  # atno 17370 bound_to 10713
  157.1481  130.6172  149.5574 LP  0  0  0  0  0  0  0  0  0  0  0  0  # atno 17371 bound_to 10713
  140.7307  134.4257  157.5566 LP  0  0  0  0  0  0  0  0  0  0  0  0  # atno 17394 bound_to 11000
  139.8918  134.8771  156.2303 LP  0  0  0  0  0  0  0  0  0  0  0  0  # atno 17395 bound_to 11000

$$$$
