AV-unprocessed.smi:169|AV-procd|sdf|1398|dock2
  -GOLD-   2262019143D 1   1.00000     0.00000
 Structure written by MMmdl.
 56 60  0  0  0  0  0  0  0  0  2 V2000
  151.0473  143.0866  157.8819 C   0  0  0  0  0  0  0  0  0  0  0  0
  150.9363  142.1043  156.7025 C   0  0  0  0  0  0  0  0  0  0  0  0
  149.5374  141.7736  156.3239 N   0  3  2  0  0  0  0  0  0  0  0  0
  148.6203  141.6800  157.4885 C   0  0  0  0  0  0  0  0  0  0  0  0
  147.2181  142.2453  157.1880 C   0  0  0  0  0  0  0  0  0  0  0  0
  146.5806  141.7955  155.8553 C   0  0  1  0  0  0  0  0  0  0  0  0
  147.0116  142.6540  154.6460 C   0  0  0  0  0  0  0  0  0  0  0  0
  147.8257  141.7186  153.7460 C   0  0  0  0  0  0  0  0  0  0  0  0
  148.1046  140.4990  154.6292 C   0  0  1  0  0  0  0  0  0  0  0  0
  149.4437  140.6088  155.3984 C   0  0  0  0  0  0  0  0  0  0  0  0
  146.9461  140.4220  155.5182 N   0  0  0  0  0  0  0  0  0  0  0  0
  145.9074  139.5903  155.2406 C   0  0  0  0  0  0  0  0  0  0  0  0
  144.8253  139.5356  156.0621 N   0  0  0  0  0  0  0  0  0  0  0  0
  143.8127  138.7062  155.7926 C   0  0  0  0  0  0  0  0  0  0  0  0
  143.6774  137.8597  154.7702 N   0  0  0  0  0  0  0  0  0  0  0  0
  144.7558  137.9142  153.9374 C   0  0  0  0  0  0  0  0  0  0  0  0
  145.9015  138.7434  154.0968 C   0  0  0  0  0  0  0  0  0  0  0  0
  146.7892  138.5300  153.0491 N   0  0  0  0  0  0  0  0  0  0  0  0
  146.2057  137.6209  152.3169 C   0  0  0  0  0  0  0  0  0  0  0  0
  144.9763  137.1998  152.7721 N   0  0  0  0  0  0  0  0  0  0  0  0
  144.1137  136.2019  152.1576 C   0  0  0  0  0  0  0  0  0  0  0  0
  144.7844  134.8280  151.9699 C   0  0  0  0  0  0  0  0  0  0  0  0
  145.5855  134.4938  153.2449 C   0  0  0  0  0  0  0  0  0  0  0  0
  146.9002  134.0579  152.9606 O   0  0  0  0  0  0  0  0  0  0  0  0
  143.8905  133.7059  151.4217 C   0  0  0  0  0  0  0  0  0  0  0  0
  144.7938  133.4392  150.3262 O   0  0  0  0  0  0  0  0  0  0  0  0
  145.5229  134.6476  150.6357 C   0  0  0  0  0  0  0  0  0  0  0  0
  152.0932  143.3111  158.0920 H   0  0  0  0  0  0  0  0  0  0  0  0
  150.6169  142.6748  158.7946 H   0  0  0  0  0  0  0  0  0  0  0  0
  150.5488  144.0326  157.6707 H   0  0  0  0  0  0  0  0  0  0  0  0
  151.4472  142.5190  155.8326 H   0  0  0  0  0  0  0  0  0  0  0  0
  151.4654  141.1818  156.9442 H   0  0  0  0  0  0  0  0  0  0  0  0
  148.5530  140.6442  157.8253 H   0  0  0  0  0  0  0  0  0  0  0  0
  149.0246  142.2387  158.3336 H   0  0  0  0  0  0  0  0  0  0  0  0
  146.5626  141.9413  158.0048 H   0  0  0  0  0  0  0  0  0  0  0  0
  147.2397  143.3348  157.2321 H   0  0  0  0  0  0  0  0  0  0  0  0
  145.4986  141.8996  155.9530 H   0  0  0  0  0  0  0  0  0  0  0  0
  146.1442  143.0387  154.1082 H   0  0  0  0  0  0  0  0  0  0  0  0
  147.6068  143.5153  154.9510 H   0  0  0  0  0  0  0  0  0  0  0  0
  147.2171  141.4182  152.8921 H   0  0  0  0  0  0  0  0  0  0  0  0
  148.7311  142.1842  153.3552 H   0  0  0  0  0  0  0  0  0  0  0  0
  148.1859  139.6132  153.9988 H   0  0  0  0  0  0  0  0  0  0  0  0
  150.2490  140.6734  154.6655 H   0  0  0  0  0  0  0  0  0  0  0  0
  149.6169  139.6862  155.9537 H   0  0  0  0  0  0  0  0  0  0  0  0
  142.9940  138.7229  156.4972 H   0  0  0  0  0  0  0  0  0  0  0  0
  146.6608  137.2310  151.4184 H   0  0  0  0  0  0  0  0  0  0  0  0
  143.2234  136.1100  152.7812 H   0  0  0  0  0  0  0  0  0  0  0  0
  143.7619  136.5903  151.2010 H   0  0  0  0  0  0  0  0  0  0  0  0
  145.6526  135.3632  153.8998 H   0  0  0  0  0  0  0  0  0  0  0  0
  145.1026  133.7022  153.8177 H   0  0  0  0  0  0  0  0  0  0  0  0
  147.4053  134.7992  152.6631 H   0  0  0  0  0  0  0  0  0  0  0  0
  143.7804  132.8528  152.0923 H   0  0  0  0  0  0  0  0  0  0  0  0
  142.9179  134.0435  151.0622 H   0  0  0  0  0  0  0  0  0  0  0  0
  145.3234  135.4354  149.9076 H   0  0  0  0  0  0  0  0  0  0  0  0
  146.5958  134.4779  150.7322 H   0  0  0  0  0  0  0  0  0  0  0  0
  149.2234  142.5737  155.7933 H   0  0  0  0  0  0  0  0  0  0  0  0
  1  2  1  0  0  0  0
  1 28  1  0  0  0  0
  1 29  1  0  0  0  0
  1 30  1  0  0  0  0
  2  3  1  0  0  0  0
  2 31  1  0  0  0  0
  2 32  1  0  0  0  0
  3 10  1  0  0  0  0
  3  4  1  0  0  0  0
  3 56  1  0  0  0  0
  4  5  1  0  0  0  0
  4 33  1  0  0  0  0
  4 34  1  0  0  0  0
  5  6  1  0  0  0  0
  5 35  1  0  0  0  0
  5 36  1  0  0  0  0
  6 11  1  0  0  0  0
  6  7  1  0  0  0  0
  6 37  1  0  0  0  0
  7  8  1  0  0  0  0
  7 38  1  0  0  0  0
  7 39  1  0  0  0  0
  8  9  1  0  0  0  0
  8 40  1  0  0  0  0
  8 41  1  0  0  0  0
  9 10  1  0  0  0  0
  9 11  1  0  0  0  0
  9 42  1  0  0  0  0
 10 43  1  0  0  0  0
 10 44  1  0  0  0  0
 11 12  1  0  0  0  0
 12 17  1  0  0  0  0
 12 13  2  0  0  0  0
 13 14  1  0  0  0  0
 14 15  2  0  0  0  0
 14 45  1  0  0  0  0
 15 16  1  0  0  0  0
 16 20  1  0  0  0  0
 16 17  2  0  0  0  0
 17 18  1  0  0  0  0
 18 19  2  0  0  0  0
 19 20  1  0  0  0  0
 19 46  1  0  0  0  0
 20 21  1  0  0  0  0
 21 22  1  0  0  0  0
 21 47  1  0  0  0  0
 21 48  1  0  0  0  0
 22 27  1  0  0  0  0
 22 23  1  0  0  0  0
 22 25  1  0  0  0  0
 23 24  1  0  0  0  0
 23 49  1  0  0  0  0
 23 50  1  0  0  0  0
 24 51  1  0  0  0  0
 25 26  1  0  0  0  0
 25 52  1  0  0  0  0
 25 53  1  0  0  0  0
 26 27  1  0  0  0  0
 27 54  1  0  0  0  0
 27 55  1  0  0  0  0
M  CHG  1   3   1
M  END
> <s_m_source_file>
AV-unprocessed.smi

> <i_m_source_file_index>
169

> <i_lp_mmshare_version>
43012

> <i_f3d_flags>
0

> <s_epik_input>
W0NASF0xMltDSDJdW0NIMl1OKFtDSDJdW0NIM10pW0NIMl1bQ0BIXShbQ0gyXVtDSDJdMSlOMmMobltjSF1uMyljKGMzNCluW2NIXW40W0NIMl1DNShbQ0gyXVtPSF0pW0NIMl1PW0NIMl01

> <s_epik_cmdline>
J2VwaWtfcHl0aG9uJywgJy1waCcsICc3LjAnLCAnLXRuJywgJzgnLCAnLW1hJywgJzIwMCcsICctbWV0YWxfYmluZGluZycsICctaW1hZScsICc8aW5maWxlLm1hZT4nLCAnLW9tYWUnLCAnPG91dGZpbGUubWFlPic=

> <r_lp_tautomer_probability>
1

> <r_epik_Ionization_Penalty>
0.00274162

> <r_epik_Ionization_Penalty_Charging>
0.00243722

> <r_epik_Ionization_Penalty_Neutral>
0.000304399

> <r_epik_State_Penalty>
-0

> <r_epik_Charging_Adjusted_Penalty>
0.00243722

> <i_epik_Tot_Q>
1

> <i_epik_Tot_abs_Q>
1

> <r_epik_Metal_State_Penalty>
-0

> <b_epik_Metal_Only>
0

> <s_lp_Force_Field>
OPLS_2005

> <r_lp_Energy>
78.5453

> <b_lp_Chiralities_Consistent>
1

> <s_lp_Variant>
AV-unprocessed.smi:169-1

> <Gold.Version>
5.8.1

> <Gold.Id.Protein>
6NUR|6NUR_protein|mol2

> <Gold.PLP.Fitness>
39.4990

> <Gold.PLP.PLP>
-31.9048

> <Gold.PLP.part.hbond>
-2.0000

> <Gold.PLP.part.metal>
0.0000

> <Gold.PLP.part.buried>
-2.4660

> <Gold.PLP.part.nonpolar>
-27.5243

> <Gold.PLP.part.repulsive>
0.6265

> <Gold.PLP.ligand.clash>
0.0000

> <Gold.PLP.ligand.torsion>
1.5244

> <Gold.PLP.Chemscore.Hbond>
2.9825

> <Gold.PLP.Chemscore.CHOScore>
0.3856

> <Gold.PLP.Chemscore.Metal>
0.0000

> <Gold.Chemscore.Hbonds>
donor molecule, donor type, donor heavy atom, donor atom, acceptor molecule, acceptor atom, score
      L1  H     3    56       P1  8028  1.26
      L1  H    24    51       P1  7948  0.52
      L1  C    19    46       P1  7948  0.67

> <Gold.PLP.Chemscore.Internal.Correction>
0.5387

> <Gold.Rescore>
     Score         DG    S(hbond)    S(metal)    S(lipo)     H(rot)  DE(clash)    DE(int)     intcor
     10.32     -13.45       1.79        0.00      74.48       2.62       0.13       3.00       ----

> <Gold.Chemscore.Fitness>
10.3203

> <Gold.Chemscore.DG>
-13.4468

> <Gold.Chemscore.ZeroCoef>
-5.4800

> <Gold.Chemscore.Hbond>
1.7854

> <Gold.Chemscore.Metal>
0.0000

> <Gold.Chemscore.Lipo>
74.4754

> <Gold.Chemscore.Internal_Hbond>
0.0000

> <Gold.Chemscore.DEClash>
0.1311

> <Gold.Chemscore.DEInternal>
2.9954

> <Gold.Chemscore.Rot>
2.6212

> <Gold.Chemscore.Internal.Correction>
   9.000000E+99

> <Gold.Chemscore.Hbonds>
donor molecule, donor type, donor heavy atom, donor atom, acceptor molecule, acceptor atom, score
      L1  H     3    56       P1  8028  0.61
      L1  H    24    51       P1  7948  0.51

> <Gold.Chemscore.Hbond.Weighted>
-5.9633

> <Gold.Chemscore.Metal.Weighted>
-0.0000

> <Gold.Chemscore.Lipo.Weighted>
-8.7136

> <Gold.Chemscore.Internal_Hbond.Weighted>
0.0000

> <Gold.Chemscore.DEClash.Weighted>
0.1311

> <Gold.Chemscore.DEInternal.Weighted>
2.9954

> <Gold.Chemscore.Rot.Weighted>
6.7102

> <Gold.Chemscore.Internal.Correction.Weighted>
   9.000000E+99

> <Gold.Protein.RotatedTorsions>
[ 6907 6896 6895 6894 ] final  114.48 input  -60.11 | X-H torsion
[ 7974 7965 7964 7962 ] final -104.43 input  175.53 | X-H torsion
[ 8008 7997 7996 7995 ] final  173.28 input   59.86 | X-H torsion
[ 10167 10162 10161 10158 ] final  -33.33 input  -65.29 | X-H torsion
[ 10718 10713 10712 10709 ] final    2.29 input   66.30 | X-H torsion
[ 10763 10752 10751 10750 ] final   61.56 input  -60.55 | X-H torsion
[ 11005 11000 10999 10996 ] final  -31.39 input  -57.11 | X-H torsion

> <Gold.Protein.ActiveResidues>
 VAL166  LYS551  ARG553  GLY616  TRP617  ASP618  TYR619  PRO620  LYS621  CYS622 
 ASP623  PHE694  ASN695  SER759  ASP760  ASP761  ALA762  ILE779  LEU786  VAL792 
 PHE793  MET794  SER795  GLU796  ALA797  LYS798  CYS799  TRP800  GLU811  SER814 

> <Gold.Protein.RotatedAtoms>
  152.4800  133.8231  159.7063 H   0  0  0  0  0  0  0  0  0  0  0  0  # atno 6907 bound_to 6896
  150.8843  133.7320  159.2929 H   0  0  0  0  0  0  0  0  0  0  0  0  # atno 6908 bound_to 6896
  151.4813  135.1056  159.9831 H   0  0  0  0  0  0  0  0  0  0  0  0  # atno 6909 bound_to 6896
  145.2433  140.9213  143.3137 H   0  0  0  0  0  0  0  0  0  0  0  0  # atno 7974 bound_to 7965
  156.1091  140.1464  156.9363 H   0  0  0  0  0  0  0  0  0  0  0  0  # atno 8008 bound_to 7997
  154.4754  140.0896  156.7293 H   0  0  0  0  0  0  0  0  0  0  0  0  # atno 8009 bound_to 7997
  155.4628  140.3439  155.4317 H   0  0  0  0  0  0  0  0  0  0  0  0  # atno 8010 bound_to 7997
  140.7206  143.3628  151.1929 H   0  0  0  0  0  0  0  0  0  0  0  0  # atno 10167 bound_to 10162
  156.8609  130.5586  149.5663 H   0  0  0  0  0  0  0  0  0  0  0  0  # atno 10718 bound_to 10713
  152.9954  135.5496  154.6053 H   0  0  0  0  0  0  0  0  0  0  0  0  # atno 10763 bound_to 10752
  154.5385  135.2818  155.1118 H   0  0  0  0  0  0  0  0  0  0  0  0  # atno 10764 bound_to 10752
  154.2405  135.6417  153.5258 H   0  0  0  0  0  0  0  0  0  0  0  0  # atno 10765 bound_to 10752
  140.9464  133.7247  156.1153 H   0  0  0  0  0  0  0  0  0  0  0  0  # atno 11005 bound_to 11000
  144.9569  139.4021  143.6375 LP  0  0  0  0  0  0  0  0  0  0  0  0  # atno 17320 bound_to 7965
  146.3322  139.8604  142.8857 LP  0  0  0  0  0  0  0  0  0  0  0  0  # atno 17321 bound_to 7965
  139.7184  143.9263  152.2976 LP  0  0  0  0  0  0  0  0  0  0  0  0  # atno 17342 bound_to 10162
  139.9012  144.6911  150.8663 LP  0  0  0  0  0  0  0  0  0  0  0  0  # atno 17343 bound_to 10162
  156.0777  130.5795  150.9505 LP  0  0  0  0  0  0  0  0  0  0  0  0  # atno 17370 bound_to 10713
  157.6251  131.0926  150.8550 LP  0  0  0  0  0  0  0  0  0  0  0  0  # atno 17371 bound_to 10713
  140.7663  134.3883  157.5516 LP  0  0  0  0  0  0  0  0  0  0  0  0  # atno 17394 bound_to 11000
  139.8834  134.8994  156.2765 LP  0  0  0  0  0  0  0  0  0  0  0  0  # atno 17395 bound_to 11000

$$$$
