AV-unprocessed.smi:72|AV-procd|sdf|664|dock10
  -GOLD-   2262016563D 1   1.00000     0.00000
 Structure written by MMmdl.
 29 30  0  0  0  0  0  0  0  0  1 V2000
  143.7886  146.3023  154.0210 N   0  0  0  0  0  0  0  0  0  0  0  0
  144.4246  145.1921  154.1415 C   0  0  0  0  0  0  0  0  0  0  0  0
  145.0264  144.4848  153.0897 N   0  0  0  0  0  0  0  0  0  0  0  0
  145.6383  143.3725  153.3569 C   0  0  0  0  0  0  0  0  0  0  0  0
  145.7171  142.8358  154.7083 N   0  0  0  0  0  0  0  0  0  0  0  0
  146.4348  141.5362  155.0223 C   0  0  1  0  0  0  0  0  0  0  0  0
  146.0328  140.5444  154.1185 O   0  0  0  0  0  0  0  0  0  0  0  0
  147.1298  140.1786  153.2896 C   0  0  2  0  0  0  0  0  0  0  0  0
  146.9171  138.7773  152.6892 C   0  0  0  0  0  0  0  0  0  0  0  0
  147.6919  138.5732  151.5256 O   0  0  0  0  0  0  0  0  0  0  0  0
  148.3495  140.3783  154.1896 C   0  0  1  0  0  0  0  0  0  0  0  0
  149.5643  140.4736  153.4693 O   0  0  0  0  0  0  0  0  0  0  0  0
  147.9788  141.6538  154.9413 C   0  0  1  0  0  0  0  0  0  0  0  0
  148.4241  142.8233  154.2697 O   0  0  0  0  0  0  0  0  0  0  0  0
  145.1231  143.5428  155.7814 C   0  0  0  0  0  0  0  0  0  0  0  0
  145.1800  143.1444  156.9445 O   0  0  0  0  0  0  0  0  0  0  0  0
  144.4949  144.6910  155.4483 N   0  0  0  0  0  0  0  0  0  0  0  0
  146.0813  141.2331  156.0093 H   0  0  0  0  0  0  0  0  0  0  0  0
  147.1680  140.9013  152.4726 H   0  0  0  0  0  0  0  0  0  0  0  0
  148.4293  139.5632  154.9094 H   0  0  0  0  0  0  0  0  0  0  0  0
  148.3977  141.6587  155.9481 H   0  0  0  0  0  0  0  0  0  0  0  0
  143.4479  146.6155  154.9181 H   0  0  0  0  0  0  0  0  0  0  0  0
  146.1296  142.7777  152.5872 H   0  0  0  0  0  0  0  0  0  0  0  0
  147.1499  138.0068  153.4245 H   0  0  0  0  0  0  0  0  0  0  0  0
  145.8690  138.6507  152.4168 H   0  0  0  0  0  0  0  0  0  0  0  0
  148.3333  139.2647  151.4661 H   0  0  0  0  0  0  0  0  0  0  0  0
  149.4039  140.2112  152.5760 H   0  0  0  0  0  0  0  0  0  0  0  0
  148.7093  143.4498  154.9169 H   0  0  0  0  0  0  0  0  0  0  0  0
  144.0588  145.2152  156.1926 H   0  0  0  0  0  0  0  0  0  0  0  0
  1  2  2  0  0  0  0
  1 22  1  0  0  0  0
  2 17  1  0  0  0  0
  2  3  1  0  0  0  0
  3  4  2  0  0  0  0
  4  5  1  0  0  0  0
  4 23  1  0  0  0  0
  5  6  1  0  0  0  0
  5 15  1  0  0  0  0
  6 18  1  0  0  0  0
  6 13  1  0  0  0  0
  6  7  1  0  0  0  0
  7  8  1  0  0  0  0
  8 19  1  0  0  0  0
  8  9  1  0  0  0  0
  8 11  1  0  0  0  0
  9 10  1  0  0  0  0
  9 24  1  0  0  0  0
  9 25  1  0  0  0  0
 10 26  1  0  0  0  0
 11 20  1  0  0  0  0
 11 12  1  0  0  0  0
 11 13  1  0  0  0  0
 12 27  1  0  0  0  0
 13 21  1  0  0  0  0
 13 14  1  0  0  0  0
 14 28  1  0  0  0  0
 15 16  2  0  0  0  0
 15 17  1  0  0  0  0
 17 29  1  0  0  0  0
M  END
> <s_m_source_file>
AV-unprocessed.smi

> <i_m_source_file_index>
72

> <i_lp_mmshare_version>
43012

> <i_f3d_flags>
0

> <s_epik_input>
W05IMl1jMW5bY0hdbihjKD1PKW4xKVtDQEBIXTJPW0NASF0oW0NIMl1bT0hdKVtDQEBIXShbT0hdKVtDQEhdMltPSF0=

> <s_epik_cmdline>
J2VwaWtfcHl0aG9uJywgJy1waCcsICc3LjAnLCAnLXRuJywgJzgnLCAnLW1hJywgJzIwMCcsICctbWV0YWxfYmluZGluZycsICctaW1hZScsICc8aW5maWxlLm1hZT4nLCAnLW9tYWUnLCAnPG91dGZpbGUubWFlPic=

> <r_lp_tautomer_probability>
7.17554e-07

> <r_epik_Ionization_Penalty>
0.0066451

> <r_epik_Ionization_Penalty_Charging>
0.00663793

> <r_epik_Ionization_Penalty_Neutral>
7.17052e-06

> <r_epik_State_Penalty>
0.419231

> <r_epik_Charging_Adjusted_Penalty>
0.425868

> <i_epik_Tot_Q>
0

> <i_epik_Tot_abs_Q>
0

> <r_epik_Metal_State_Penalty>
1.44144

> <b_epik_Metal_Only>
0

> <s_epik_Chemistry_Notes>
This compound contains an acetal/aminal-like group ( X-CH(R)-Y where X, Y are N, S, or O) that may be acid/base labile, releasing an aldehyde.

> <s_lp_Force_Field>
OPLS_2005

> <r_lp_Energy>
49.4302

> <b_lp_Chiralities_Consistent>
1

> <s_lp_Variant>
AV-unprocessed.smi:72-2

> <Gold.Version>
5.8.1

> <Gold.Id.Protein>
6NUR|6NUR_protein|mol2

> <Gold.PLP.Fitness>
37.5005

> <Gold.PLP.PLP>
-27.8017

> <Gold.PLP.part.hbond>
-9.0881

> <Gold.PLP.part.metal>
0.0000

> <Gold.PLP.part.buried>
-3.8786

> <Gold.PLP.part.nonpolar>
-17.7774

> <Gold.PLP.part.repulsive>
2.8733

> <Gold.PLP.ligand.clash>
0.5825

> <Gold.PLP.ligand.torsion>
0.5076

> <Gold.PLP.Chemscore.Hbond>
3.7493

> <Gold.PLP.Chemscore.CHOScore>
0.0000

> <Gold.PLP.Chemscore.Metal>
0.0000

> <Gold.Chemscore.Hbonds>
donor molecule, donor type, donor heavy atom, donor atom, acceptor molecule, acceptor atom, score
      L1  H    10    26       P1  7957  0.88
      L1  H    12    27       P1  7957  0.78
      L1  H    14    28       P1  8028  0.81
      P1  H  7954  7966       L1    10  0.57
      P1  H  7989  7998       L1    12  0.40

> <Gold.PLP.Chemscore.Internal.Correction>
0.0484

> <Gold.Rescore>
     Score         DG    S(hbond)    S(metal)    S(lipo)     H(rot)  DE(clash)    DE(int)     intcor
      6.17      -7.79       2.96        0.00      23.97       4.06       0.18       1.44       ----

> <Gold.Chemscore.Fitness>
6.1670

> <Gold.Chemscore.DG>
-7.7895

> <Gold.Chemscore.ZeroCoef>
-5.4800

> <Gold.Chemscore.Hbond>
2.9635

> <Gold.Chemscore.Metal>
0.0000

> <Gold.Chemscore.Lipo>
23.9745

> <Gold.Chemscore.Internal_Hbond>
0.0000

> <Gold.Chemscore.DEClash>
0.1808

> <Gold.Chemscore.DEInternal>
1.4417

> <Gold.Chemscore.Rot>
4.0600

> <Gold.Chemscore.Internal.Correction>
   9.000000E+99

> <Gold.Chemscore.Hbonds>
donor molecule, donor type, donor heavy atom, donor atom, acceptor molecule, acceptor atom, score
      L1  H    10    26       P1  7957  0.75
      L1  H    12    27       P1  7957  0.76
      L1  H    14    28       P1  8028  0.80
      P1  H  7954  7966       L1    10  0.04
      P1  H  7989  7998       L1    12  0.14
      P1  H  8011  8017       L1    14  0.01

> <Gold.Chemscore.Hbond.Weighted>
-9.8981

> <Gold.Chemscore.Metal.Weighted>
-0.0000

> <Gold.Chemscore.Lipo.Weighted>
-2.8050

> <Gold.Chemscore.Internal_Hbond.Weighted>
0.0000

> <Gold.Chemscore.DEClash.Weighted>
0.1808

> <Gold.Chemscore.DEInternal.Weighted>
1.4417

> <Gold.Chemscore.Rot.Weighted>
10.3936

> <Gold.Chemscore.Internal.Correction.Weighted>
   9.000000E+99

> <Gold.Protein.RotatedTorsions>
[ 6907 6896 6895 6894 ] final   83.79 input  -60.11 | X-H torsion
[ 7974 7965 7964 7962 ] final  -91.00 input  175.53 | X-H torsion
[ 8008 7997 7996 7995 ] final  153.89 input   59.86 | X-H torsion
[ 10167 10162 10161 10158 ] final   36.36 input  -65.29 | X-H torsion
[ 10718 10713 10712 10709 ] final  102.74 input   66.30 | X-H torsion
[ 10763 10752 10751 10750 ] final  -59.89 input  -60.55 | X-H torsion
[ 11005 11000 10999 10996 ] final   74.45 input  -57.11 | X-H torsion

> <Gold.Protein.ActiveResidues>
 VAL166  LYS551  ARG553  GLY616  TRP617  ASP618  TYR619  PRO620  LYS621  CYS622 
 ASP623  PHE694  ASN695  SER759  ASP760  ASP761  ALA762  ILE779  LEU786  VAL792 
 PHE793  MET794  SER795  GLU796  ALA797  LYS798  CYS799  TRP800  GLU811  SER814 

> <Gold.Protein.RotatedAtoms>
  152.5336  134.2842  159.9018 H   0  0  0  0  0  0  0  0  0  0  0  0  # atno 6907 bound_to 6896
  151.2795  133.4210  159.2633 H   0  0  0  0  0  0  0  0  0  0  0  0  # atno 6908 bound_to 6896
  151.0296  134.9545  159.8160 H   0  0  0  0  0  0  0  0  0  0  0  0  # atno 6909 bound_to 6896
  145.4189  140.9550  143.2192 H   0  0  0  0  0  0  0  0  0  0  0  0  # atno 7974 bound_to 7965
  156.2559  140.1981  156.6561 H   0  0  0  0  0  0  0  0  0  0  0  0  # atno 8008 bound_to 7997
  154.6499  140.0573  156.9969 H   0  0  0  0  0  0  0  0  0  0  0  0  # atno 8009 bound_to 7997
  155.1433  140.3244  155.4450 H   0  0  0  0  0  0  0  0  0  0  0  0  # atno 8010 bound_to 7997
  140.4134  144.1560  150.6141 H   0  0  0  0  0  0  0  0  0  0  0  0  # atno 10167 bound_to 10162
  157.6793  131.0761  150.5449 H   0  0  0  0  0  0  0  0  0  0  0  0  # atno 10718 bound_to 10713
  154.2607  135.6309  153.5273 H   0  0  0  0  0  0  0  0  0  0  0  0  # atno 10763 bound_to 10752
  152.9896  135.5587  154.5707 H   0  0  0  0  0  0  0  0  0  0  0  0  # atno 10764 bound_to 10752
  154.5256  135.2885  155.1200 H   0  0  0  0  0  0  0  0  0  0  0  0  # atno 10765 bound_to 10752
  139.9390  134.7434  156.1149 H   0  0  0  0  0  0  0  0  0  0  0  0  # atno 11005 bound_to 11000
  144.8258  139.5712  143.6966 LP  0  0  0  0  0  0  0  0  0  0  0  0  # atno 17320 bound_to 7965
  146.2667  139.6536  142.9325 LP  0  0  0  0  0  0  0  0  0  0  0  0  # atno 17321 bound_to 7965
  140.4612  143.2448  151.9217 LP  0  0  0  0  0  0  0  0  0  0  0  0  # atno 17342 bound_to 10162
  139.4782  144.5465  151.8450 LP  0  0  0  0  0  0  0  0  0  0  0  0  # atno 17343 bound_to 10162
  156.5755  130.4291  149.6000 LP  0  0  0  0  0  0  0  0  0  0  0  0  # atno 17370 bound_to 10713
  156.2705  130.7014  151.1810 LP  0  0  0  0  0  0  0  0  0  0  0  0  # atno 17371 bound_to 10713
  141.1017  133.6675  156.2770 LP  0  0  0  0  0  0  0  0  0  0  0  0  # atno 17394 bound_to 11000
  140.5999  134.5565  157.5515 LP  0  0  0  0  0  0  0  0  0  0  0  0  # atno 17395 bound_to 11000

$$$$
