AV-unprocessed.smi:1572|AV-procd|sdf|6329|dock1
  -GOLD-   22720 6543D 1   1.00000     0.00000
 Structure written by MMmdl.
 42 43  0  0  0  0  0  0  0  0  1 V2000
  152.4948  139.9384  155.6601 C   0  0  0  0  0  0  0  0  0  0  0  0
  151.2186  140.0344  154.9684 N   0  0  0  0  0  0  0  0  0  0  0  0
  150.5080  138.7593  154.9702 C   0  0  0  0  0  0  0  0  0  0  0  0
  149.1655  138.8613  154.2227 C   0  0  0  0  0  0  0  0  0  0  0  0
  148.2863  139.8842  154.8124 N   0  0  0  0  0  0  0  0  0  0  0  0
  146.9200  139.9510  154.2209 C   0  0  0  0  0  0  0  0  0  0  0  0
  146.0229  141.0220  154.8876 C   0  0  0  0  0  0  0  0  0  0  0  0
  146.9832  140.2879  152.7091 C   0  0  0  0  0  0  0  0  0  0  0  0
  146.1753  138.5888  154.3419 C   0  0  0  0  0  0  0  0  0  0  0  0
  144.7719  138.6743  153.9371 N   0  0  0  0  0  0  0  0  0  0  0  0
  143.7973  137.8311  154.3069 C   0  0  0  0  0  0  0  0  0  0  0  0
  143.9826  136.8491  155.0262 O   0  0  0  0  0  0  0  0  0  0  0  0
  142.6114  138.2090  153.7981 N   0  0  0  0  0  0  0  0  0  0  0  0
  141.3450  137.5880  153.9628 C   0  0  0  0  0  0  0  0  0  0  0  0
  141.1592  136.4426  154.6380 N   0  0  0  0  0  0  0  0  0  0  0  0
  139.8258  136.0539  154.6453 N   0  0  0  0  0  0  0  0  0  0  0  0
  139.0595  136.9204  153.9768 C   0  0  0  0  0  0  0  0  0  0  0  0
  139.8917  138.2957  153.2717 S   0  0  0  0  0  0  0  0  0  0  0  0
  149.0173  141.1625  154.8215 C   0  0  0  0  0  0  0  0  0  0  0  0
  150.3589  141.0500  155.5675 C   0  0  0  0  0  0  0  0  0  0  0  0
  153.1348  139.1924  155.1878 H   0  0  0  0  0  0  0  0  0  0  0  0
  152.3574  139.6565  156.7049 H   0  0  0  0  0  0  0  0  0  0  0  0
  153.0215  140.8928  155.6320 H   0  0  0  0  0  0  0  0  0  0  0  0
  151.1250  137.9937  154.4983 H   0  0  0  0  0  0  0  0  0  0  0  0
  150.3318  138.4295  155.9955 H   0  0  0  0  0  0  0  0  0  0  0  0
  149.3576  139.0823  153.1727 H   0  0  0  0  0  0  0  0  0  0  0  0
  148.6961  137.8800  154.2585 H   0  0  0  0  0  0  0  0  0  0  0  0
  145.0367  141.0493  154.4227 H   0  0  0  0  0  0  0  0  0  0  0  0
  146.4395  142.0247  154.7963 H   0  0  0  0  0  0  0  0  0  0  0  0
  145.8635  140.8246  155.9475 H   0  0  0  0  0  0  0  0  0  0  0  0
  146.0126  140.1558  152.2292 H   0  0  0  0  0  0  0  0  0  0  0  0
  147.6948  139.6510  152.1824 H   0  0  0  0  0  0  0  0  0  0  0  0
  147.2727  141.3230  152.5282 H   0  0  0  0  0  0  0  0  0  0  0  0
  146.6524  137.8250  153.7286 H   0  0  0  0  0  0  0  0  0  0  0  0
  146.2585  138.2045  155.3602 H   0  0  0  0  0  0  0  0  0  0  0  0
  144.5227  139.4589  153.3530 H   0  0  0  0  0  0  0  0  0  0  0  0
  142.6135  139.0432  153.2303 H   0  0  0  0  0  0  0  0  0  0  0  0
  137.9963  136.7480  153.8980 H   0  0  0  0  0  0  0  0  0  0  0  0
  149.2045  141.5015  153.8024 H   0  0  0  0  0  0  0  0  0  0  0  0
  148.4350  141.9402  155.3114 H   0  0  0  0  0  0  0  0  0  0  0  0
  150.1759  140.8154  156.6173 H   0  0  0  0  0  0  0  0  0  0  0  0
  150.8632  142.0167  155.5473 H   0  0  0  0  0  0  0  0  0  0  0  0
  1  2  1  0  0  0  0
  1 21  1  0  0  0  0
  1 22  1  0  0  0  0
  1 23  1  0  0  0  0
  2 20  1  0  0  0  0
  2  3  1  0  0  0  0
  3  4  1  0  0  0  0
  3 24  1  0  0  0  0
  3 25  1  0  0  0  0
  4  5  1  0  0  0  0
  4 26  1  0  0  0  0
  4 27  1  0  0  0  0
  5  6  1  0  0  0  0
  5 19  1  0  0  0  0
  6  7  1  0  0  0  0
  6  8  1  0  0  0  0
  6  9  1  0  0  0  0
  7 28  1  0  0  0  0
  7 29  1  0  0  0  0
  7 30  1  0  0  0  0
  8 31  1  0  0  0  0
  8 32  1  0  0  0  0
  8 33  1  0  0  0  0
  9 10  1  0  0  0  0
  9 34  1  0  0  0  0
  9 35  1  0  0  0  0
 10 11  1  0  0  0  0
 10 36  1  0  0  0  0
 11 12  2  0  0  0  0
 11 13  1  0  0  0  0
 13 14  1  0  0  0  0
 13 37  1  0  0  0  0
 14 18  1  0  0  0  0
 14 15  2  0  0  0  0
 15 16  1  0  0  0  0
 16 17  2  0  0  0  0
 17 18  1  0  0  0  0
 17 38  1  0  0  0  0
 19 20  1  0  0  0  0
 19 39  1  0  0  0  0
 19 40  1  0  0  0  0
 20 41  1  0  0  0  0
 20 42  1  0  0  0  0
M  END
> <s_m_source_file>
AV-unprocessed.smi

> <i_m_source_file_index>
1572

> <i_lp_mmshare_version>
43012

> <i_f3d_flags>
0

> <s_epik_input>
W0NIM11OMVtDSDJdW0NIMl1OKFtDSDJdW0NIMl0xKUMoW0NIM10pKFtDSDNdKVtDSDJdW05IXUMoPU8pW05IXWMybm5bY0hdczI=

> <s_epik_cmdline>
J2VwaWtfcHl0aG9uJywgJy1waCcsICc3LjAnLCAnLXRuJywgJzgnLCAnLW1hJywgJzIwMCcsICctbWV0YWxfYmluZGluZycsICctaW1hZScsICc8aW5maWxlLm1hZT4nLCAnLW9tYWUnLCAnPG91dGZpbGUubWFlPic=

> <r_lp_tautomer_probability>
1

> <r_epik_Ionization_Penalty>
3.01909

> <r_epik_Ionization_Penalty_Charging>
0

> <r_epik_Ionization_Penalty_Neutral>
3.01909

> <r_epik_State_Penalty>
2.1369

> <r_epik_Charging_Adjusted_Penalty>
2.1369

> <i_epik_Tot_Q>
0

> <i_epik_Tot_abs_Q>
0

> <r_epik_Metal_State_Penalty>
2.47072

> <b_epik_Metal_Only>
0

> <s_lp_Force_Field>
OPLS_2005

> <r_lp_Energy>
48.823

> <b_lp_Chiralities_Consistent>
1

> <s_lp_Variant>
AV-unprocessed.smi:1572-3

> <Gold.Version>
5.8.1

> <Gold.Id.Protein>
6NUR|6NUR_protein|mol2

> <Gold.PLP.Fitness>
41.3300

> <Gold.PLP.PLP>
-30.1422

> <Gold.PLP.part.hbond>
-4.4914

> <Gold.PLP.part.metal>
0.0000

> <Gold.PLP.part.buried>
-0.4719

> <Gold.PLP.part.nonpolar>
-23.8031

> <Gold.PLP.part.repulsive>
0.3104

> <Gold.PLP.ligand.clash>
0.0000

> <Gold.PLP.ligand.torsion>
0.2418

> <Gold.PLP.Chemscore.Hbond>
3.8600

> <Gold.PLP.Chemscore.CHOScore>
0.0000

> <Gold.PLP.Chemscore.Metal>
0.0000

> <Gold.Chemscore.Hbonds>
donor molecule, donor type, donor heavy atom, donor atom, acceptor molecule, acceptor atom, score
      L1  H    10    36       P1 10175  1.00
      L1  H    13    37       P1 10175  0.96
      P1  H  7989  7998       L1     2  0.95
      P1  H 11000 11005       L1    16  0.90

> <Gold.PLP.Chemscore.Internal.Correction>
0.0912

> <Gold.Rescore>
     Score         DG    S(hbond)    S(metal)    S(lipo)     H(rot)  DE(clash)    DE(int)     intcor
     14.99     -17.51       2.42        0.00      69.89       1.66       0.95       1.57       ----

> <Gold.Chemscore.Fitness>
14.9874

> <Gold.Chemscore.DG>
-17.5069

> <Gold.Chemscore.ZeroCoef>
-5.4800

> <Gold.Chemscore.Hbond>
2.4242

> <Gold.Chemscore.Metal>
0.0000

> <Gold.Chemscore.Lipo>
69.8880

> <Gold.Chemscore.Internal_Hbond>
0.0000

> <Gold.Chemscore.DEClash>
0.9486

> <Gold.Chemscore.DEInternal>
1.5708

> <Gold.Chemscore.Rot>
1.6590

> <Gold.Chemscore.Internal.Correction>
   9.000000E+99

> <Gold.Chemscore.Hbonds>
donor molecule, donor type, donor heavy atom, donor atom, acceptor molecule, acceptor atom, score
      L1  H    10    36       P1 10175  0.97
      L1  H    13    37       P1 10175  0.92
      P1  H  7989  7998       L1     2  0.07
      P1  H 11000 11005       L1    16  0.18

> <Gold.Chemscore.Hbond.Weighted>
-8.0969

> <Gold.Chemscore.Metal.Weighted>
-0.0000

> <Gold.Chemscore.Lipo.Weighted>
-8.1769

> <Gold.Chemscore.Internal_Hbond.Weighted>
0.0000

> <Gold.Chemscore.DEClash.Weighted>
0.9486

> <Gold.Chemscore.DEInternal.Weighted>
1.5708

> <Gold.Chemscore.Rot.Weighted>
4.2469

> <Gold.Chemscore.Internal.Correction.Weighted>
   9.000000E+99

> <Gold.Protein.RotatedTorsions>
[ 6907 6896 6895 6894 ] final  109.29 input  -60.11 | X-H torsion
[ 7974 7965 7964 7962 ] final -146.88 input  175.53 | X-H torsion
[ 8008 7997 7996 7995 ] final  118.25 input   59.86 | X-H torsion
[ 10167 10162 10161 10158 ] final   -1.40 input  -65.29 | X-H torsion
[ 10718 10713 10712 10709 ] final  -66.74 input   66.30 | X-H torsion
[ 10763 10752 10751 10750 ] final  -86.70 input  -60.55 | X-H torsion
[ 11005 11000 10999 10996 ] final   74.98 input  -57.11 | X-H torsion

> <Gold.Protein.ActiveResidues>
 VAL166  LYS551  ARG553  GLY616  TRP617  ASP618  TYR619  PRO620  LYS621  CYS622 
 ASP623  PHE694  ASN695  SER759  ASP760  ASP761  ALA762  ILE779  LEU786  VAL792 
 PHE793  MET794  SER795  GLU796  ALA797  LYS798  CYS799  TRP800  GLU811  SER814 

> <Gold.Protein.RotatedAtoms>
  152.5074  133.8965  159.7419 H   0  0  0  0  0  0  0  0  0  0  0  0  # atno 6907 bound_to 6896
  150.9391  133.6668  159.2801 H   0  0  0  0  0  0  0  0  0  0  0  0  # atno 6908 bound_to 6896
  151.3986  135.0972  159.9601 H   0  0  0  0  0  0  0  0  0  0  0  0  # atno 6909 bound_to 6896
  144.8130  140.5399  143.5629 H   0  0  0  0  0  0  0  0  0  0  0  0  # atno 7974 bound_to 7965
  156.2537  140.2878  156.0806 H   0  0  0  0  0  0  0  0  0  0  0  0  # atno 8008 bound_to 7997
  155.1571  140.0398  157.2851 H   0  0  0  0  0  0  0  0  0  0  0  0  # atno 8009 bound_to 7997
  154.6419  140.2524  155.7319 H   0  0  0  0  0  0  0  0  0  0  0  0  # atno 8010 bound_to 7997
  140.6808  143.6780  150.8129 H   0  0  0  0  0  0  0  0  0  0  0  0  # atno 10167 bound_to 10162
  156.0596  130.4267  150.1752 H   0  0  0  0  0  0  0  0  0  0  0  0  # atno 10718 bound_to 10713
  154.6253  135.5440  153.7621 H   0  0  0  0  0  0  0  0  0  0  0  0  # atno 10763 bound_to 10752
  153.0258  135.6423  154.1380 H   0  0  0  0  0  0  0  0  0  0  0  0  # atno 10764 bound_to 10752
  154.1313  135.2914  155.3164 H   0  0  0  0  0  0  0  0  0  0  0  0  # atno 10765 bound_to 10752
  139.9365  134.7479  156.1215 H   0  0  0  0  0  0  0  0  0  0  0  0  # atno 11005 bound_to 11000
  145.5279  139.1475  143.3516 LP  0  0  0  0  0  0  0  0  0  0  0  0  # atno 17320 bound_to 7965
  146.2431  140.5420  142.8925 LP  0  0  0  0  0  0  0  0  0  0  0  0  # atno 17321 bound_to 7965
  140.0480  143.5278  152.2687 LP  0  0  0  0  0  0  0  0  0  0  0  0  # atno 17342 bound_to 10162
  139.6130  144.7613  151.2909 LP  0  0  0  0  0  0  0  0  0  0  0  0  # atno 17343 bound_to 10162
  156.9823  130.9868  151.3434 LP  0  0  0  0  0  0  0  0  0  0  0  0  # atno 17370 bound_to 10713
  157.5594  130.8235  149.8246 LP  0  0  0  0  0  0  0  0  0  0  0  0  # atno 17371 bound_to 10713
  141.0981  133.6688  156.2691 LP  0  0  0  0  0  0  0  0  0  0  0  0  # atno 17394 bound_to 11000
  140.6062  134.5504  157.5526 LP  0  0  0  0  0  0  0  0  0  0  0  0  # atno 17395 bound_to 11000

$$$$
