AV-unprocessed.smi:3149|AV-procd|sdf|12005|dock3
  -GOLD-   2272017413D 1   1.00000     0.00000
 Structure written by MMmdl.
 37 38  0  0  0  0  0  0  0  0  1 V2000
  149.4034  139.4204  157.1647 C   0  0  0  0  0  0  0  0  0  0  0  0
  150.5321  139.9742  156.2675 C   0  0  2  0  0  0  0  0  0  0  0  0
  150.7094  141.4000  156.5325 N   0  0  0  0  0  0  0  0  0  0  0  0
  150.9455  141.7080  157.9496 C   0  0  0  0  0  0  0  0  0  0  0  0
  152.1799  140.9782  158.4893 C   0  0  0  0  0  0  0  0  0  0  0  0
  152.8372  140.2459  157.7503 O   0  0  0  0  0  0  0  0  0  0  0  0
  152.5769  141.2454  159.8033 N   0  0  0  0  0  0  0  0  0  0  0  0
  153.9615  141.0893  160.2205 C   0  0  0  0  0  0  0  0  0  0  0  0
  153.6584  142.1858  161.2473 C   0  0  0  0  0  0  0  0  0  0  0  0
  152.4458  142.5692  160.3930 C   0  0  0  0  0  0  0  0  0  0  0  0
  150.2473  139.7947  154.7509 C   0  0  1  0  0  0  0  0  0  0  0  0
  150.3892  138.3309  154.2883 C   0  0  0  0  0  0  0  0  0  0  0  0
  148.9365  140.3099  154.3732 N   0  0  0  0  0  0  0  0  0  0  0  0
  148.4533  141.5950  154.5107 C   0  0  0  0  0  0  0  0  0  0  0  0
  147.1775  141.6071  154.0245 C   0  0  0  0  0  0  0  0  0  0  0  0
  146.9644  140.2659  153.6014 C   0  0  0  0  0  0  0  0  0  0  0  0
  148.0172  139.4926  153.8099 N   0  0  0  0  0  0  0  0  0  0  0  0
  149.2589  138.3505  157.0146 H   0  0  0  0  0  0  0  0  0  0  0  0
  148.4536  139.9134  156.9562 H   0  0  0  0  0  0  0  0  0  0  0  0
  149.6211  139.5517  158.2239 H   0  0  0  0  0  0  0  0  0  0  0  0
  151.4576  139.4454  156.5014 H   0  0  0  0  0  0  0  0  0  0  0  0
  149.9303  141.9217  156.1571 H   0  0  0  0  0  0  0  0  0  0  0  0
  151.0881  142.7808  158.0786 H   0  0  0  0  0  0  0  0  0  0  0  0
  150.0779  141.4296  158.5483 H   0  0  0  0  0  0  0  0  0  0  0  0
  154.1893  140.1130  160.6491 H   0  0  0  0  0  0  0  0  0  0  0  0
  154.6843  141.3980  159.4624 H   0  0  0  0  0  0  0  0  0  0  0  0
  153.3888  141.7959  162.2306 H   0  0  0  0  0  0  0  0  0  0  0  0
  154.4223  142.9611  161.3138 H   0  0  0  0  0  0  0  0  0  0  0  0
  152.6559  143.3835  159.6967 H   0  0  0  0  0  0  0  0  0  0  0  0
  151.5229  142.7192  160.9537 H   0  0  0  0  0  0  0  0  0  0  0  0
  150.9800  140.3853  154.1979 H   0  0  0  0  0  0  0  0  0  0  0  0
  151.4069  137.9656  154.4254 H   0  0  0  0  0  0  0  0  0  0  0  0
  150.1517  138.2305  153.2289 H   0  0  0  0  0  0  0  0  0  0  0  0
  149.7233  137.6687  154.8425 H   0  0  0  0  0  0  0  0  0  0  0  0
  149.0506  142.3854  154.9411 H   0  0  0  0  0  0  0  0  0  0  0  0
  146.4996  142.4465  153.9774 H   0  0  0  0  0  0  0  0  0  0  0  0
  146.0822  139.8344  153.1520 H   0  0  0  0  0  0  0  0  0  0  0  0
  1  2  1  0  0  0  0
  1 18  1  0  0  0  0
  1 19  1  0  0  0  0
  1 20  1  0  0  0  0
  2  3  1  0  0  0  0
  2 11  1  0  0  0  0
  2 21  1  0  0  0  0
  3  4  1  0  0  0  0
  3 22  1  0  0  0  0
  4  5  1  0  0  0  0
  4 23  1  0  0  0  0
  4 24  1  0  0  0  0
  5  6  2  0  0  0  0
  5  7  1  0  0  0  0
  7 10  1  0  0  0  0
  7  8  1  0  0  0  0
  8  9  1  0  0  0  0
  8 25  1  0  0  0  0
  8 26  1  0  0  0  0
  9 10  1  0  0  0  0
  9 27  1  0  0  0  0
  9 28  1  0  0  0  0
 10 29  1  0  0  0  0
 10 30  1  0  0  0  0
 11 12  1  0  0  0  0
 11 13  1  0  0  0  0
 11 31  1  0  0  0  0
 12 32  1  0  0  0  0
 12 33  1  0  0  0  0
 12 34  1  0  0  0  0
 13 17  1  0  0  0  0
 13 14  1  0  0  0  0
 14 15  2  0  0  0  0
 14 35  1  0  0  0  0
 15 16  1  0  0  0  0
 15 36  1  0  0  0  0
 16 17  2  0  0  0  0
 16 37  1  0  0  0  0
M  END
> <s_m_source_file>
AV-unprocessed.smi

> <i_m_source_file_index>
3149

> <i_lp_mmshare_version>
43012

> <i_f3d_flags>
0

> <s_epik_input>
bjFbY0hdW2NIXVtjSF1uMVtDQEBIXShbQ0gzXSlbQ0BIXShbQ0gzXSlbTkhdW0NIMl1DKD1PKU4yW0NIMl1bQ0gyXVtDSDJdMg==

> <s_epik_cmdline>
J2VwaWtfcHl0aG9uJywgJy1waCcsICc3LjAnLCAnLXRuJywgJzgnLCAnLW1hJywgJzIwMCcsICctbWV0YWxfYmluZGluZycsICctaW1hZScsICc8aW5maWxlLm1hZT4nLCAnLW9tYWUnLCAnPG91dGZpbGUubWFlPic=

> <r_lp_tautomer_probability>
1

> <r_epik_Ionization_Penalty>
0.918674

> <r_epik_Ionization_Penalty_Charging>
0

> <r_epik_Ionization_Penalty_Neutral>
0.918674

> <r_epik_State_Penalty>
0.958258

> <r_epik_Charging_Adjusted_Penalty>
0.958258

> <i_epik_Tot_Q>
0

> <i_epik_Tot_abs_Q>
0

> <r_epik_Metal_State_Penalty>
0.956881

> <b_epik_Metal_Only>
0

> <s_lp_Force_Field>
OPLS_2005

> <r_lp_Energy>
23.4504

> <b_lp_Chiralities_Consistent>
1

> <s_lp_Variant>
AV-unprocessed.smi:3149-7

> <Gold.Version>
5.8.1

> <Gold.Id.Protein>
6NUR|6NUR_protein|mol2

> <Gold.PLP.Fitness>
45.5615

> <Gold.PLP.PLP>
-36.7997

> <Gold.PLP.part.hbond>
-1.0000

> <Gold.PLP.part.metal>
0.0000

> <Gold.PLP.part.buried>
-2.8169

> <Gold.PLP.part.nonpolar>
-32.4696

> <Gold.PLP.part.repulsive>
0.2328

> <Gold.PLP.ligand.clash>
0.0000

> <Gold.PLP.ligand.torsion>
0.5858

> <Gold.PLP.Chemscore.Hbond>
1.0000

> <Gold.PLP.Chemscore.CHOScore>
2.0000

> <Gold.PLP.Chemscore.Metal>
0.0000

> <Gold.Chemscore.Hbonds>
donor molecule, donor type, donor heavy atom, donor atom, acceptor molecule, acceptor atom, score
      P1  H  7997  8009       L1     6  0.98
      L1  C    14    35       P1  8028  1.00
      L1  C    16    37       P1 10175  0.89

> <Gold.PLP.Chemscore.Internal.Correction>
0.9335

> <Gold.Rescore>
     Score         DG    S(hbond)    S(metal)    S(lipo)     H(rot)  DE(clash)    DE(int)     intcor
     11.38     -13.56       0.94        0.00      81.20       1.79       0.04       2.14       ----

> <Gold.Chemscore.Fitness>
11.3807

> <Gold.Chemscore.DG>
-13.5580

> <Gold.Chemscore.ZeroCoef>
-5.4800

> <Gold.Chemscore.Hbond>
0.9443

> <Gold.Chemscore.Metal>
0.0000

> <Gold.Chemscore.Lipo>
81.1968

> <Gold.Chemscore.Internal_Hbond>
0.0000

> <Gold.Chemscore.DEClash>
0.0351

> <Gold.Chemscore.DEInternal>
2.1422

> <Gold.Chemscore.Rot>
1.7874

> <Gold.Chemscore.Internal.Correction>
   9.000000E+99

> <Gold.Chemscore.Hbonds>
donor molecule, donor type, donor heavy atom, donor atom, acceptor molecule, acceptor atom, score
      P1  H  7997  8009       L1     6  0.92

> <Gold.Chemscore.Hbond.Weighted>
-3.1538

> <Gold.Chemscore.Metal.Weighted>
-0.0000

> <Gold.Chemscore.Lipo.Weighted>
-9.5000

> <Gold.Chemscore.Internal_Hbond.Weighted>
0.0000

> <Gold.Chemscore.DEClash.Weighted>
0.0351

> <Gold.Chemscore.DEInternal.Weighted>
2.1422

> <Gold.Chemscore.Rot.Weighted>
4.5758

> <Gold.Chemscore.Internal.Correction.Weighted>
   9.000000E+99

> <Gold.Protein.RotatedTorsions>
[ 6907 6896 6895 6894 ] final  -50.59 input  -60.11 | X-H torsion
[ 7974 7965 7964 7962 ] final  136.94 input  175.53 | X-H torsion
[ 8008 7997 7996 7995 ] final  165.49 input   59.86 | X-H torsion
[ 10167 10162 10161 10158 ] final   42.78 input  -65.29 | X-H torsion
[ 10718 10713 10712 10709 ] final   98.49 input   66.30 | X-H torsion
[ 10763 10752 10751 10750 ] final   59.26 input  -60.55 | X-H torsion
[ 11005 11000 10999 10996 ] final   10.10 input  -57.11 | X-H torsion

> <Gold.Protein.ActiveResidues>
 VAL166  LYS551  ARG553  GLY616  TRP617  ASP618  TYR619  PRO620  LYS621  CYS622 
 ASP623  PHE694  ASN695  SER759  ASP760  ASP761  ALA762  ILE779  LEU786  VAL792 
 PHE793  MET794  SER795  GLU796  ALA797  LYS798  CYS799  TRP800  GLU811  SER814 

> <Gold.Protein.RotatedAtoms>
  150.8693  134.8063  159.7141 H   0  0  0  0  0  0  0  0  0  0  0  0  # atno 6907 bound_to 6896
  152.4703  134.4973  159.9724 H   0  0  0  0  0  0  0  0  0  0  0  0  # atno 6908 bound_to 6896
  151.5064  133.3455  159.2913 H   0  0  0  0  0  0  0  0  0  0  0  0  # atno 6909 bound_to 6896
  144.9516  139.4812  143.5523 H   0  0  0  0  0  0  0  0  0  0  0  0  # atno 7974 bound_to 7965
  156.1796  140.1668  156.8299 H   0  0  0  0  0  0  0  0  0  0  0  0  # atno 8008 bound_to 7997
  154.5345  140.0750  156.8436 H   0  0  0  0  0  0  0  0  0  0  0  0  # atno 8009 bound_to 7997
  155.3339  140.3381  155.4241 H   0  0  0  0  0  0  0  0  0  0  0  0  # atno 8010 bound_to 7997
  140.3509  144.2351  150.6146 H   0  0  0  0  0  0  0  0  0  0  0  0  # atno 10167 bound_to 10162
  157.6894  131.0641  150.4805 H   0  0  0  0  0  0  0  0  0  0  0  0  # atno 10718 bound_to 10713
  152.9890  135.5578  154.5684 H   0  0  0  0  0  0  0  0  0  0  0  0  # atno 10763 bound_to 10752
  154.5089  135.2801  155.1361 H   0  0  0  0  0  0  0  0  0  0  0  0  # atno 10764 bound_to 10752
  154.2761  135.6354  153.5382 H   0  0  0  0  0  0  0  0  0  0  0  0  # atno 10765 bound_to 10752
  140.5183  134.0584  155.7837 H   0  0  0  0  0  0  0  0  0  0  0  0  # atno 11005 bound_to 11000
  146.3323  139.8605  142.8857 LP  0  0  0  0  0  0  0  0  0  0  0  0  # atno 17320 bound_to 7965
  145.2835  141.0146  143.3704 LP  0  0  0  0  0  0  0  0  0  0  0  0  # atno 17321 bound_to 7965
  140.5219  143.2263  151.8375 LP  0  0  0  0  0  0  0  0  0  0  0  0  # atno 17342 bound_to 10162
  139.4826  144.4826  151.9287 LP  0  0  0  0  0  0  0  0  0  0  0  0  # atno 17343 bound_to 10162
  156.5137  130.4145  149.6287 LP  0  0  0  0  0  0  0  0  0  0  0  0  # atno 17370 bound_to 10713
  156.3217  130.7284  151.2197 LP  0  0  0  0  0  0  0  0  0  0  0  0  # atno 17371 bound_to 10713
  141.1348  133.9240  157.2457 LP  0  0  0  0  0  0  0  0  0  0  0  0  # atno 17394 bound_to 11000
  139.9620  135.0152  156.9287 LP  0  0  0  0  0  0  0  0  0  0  0  0  # atno 17395 bound_to 11000

$$$$
