AV-unprocessed.smi:1286|AV-procd|sdf|5377|dock9
  -GOLD-   22720 4523D 1   1.00000     0.00000
 Structure written by MMmdl.
 36 37  0  0  0  0  0  0  0  0  1 V2000
  152.1469  139.2588  155.9975 C   0  0  0  0  0  0  0  0  0  0  0  0
  150.7494  139.8809  155.8530 C   0  0  2  0  0  0  0  0  0  0  0  0
  150.2298  139.7705  154.4063 C   0  0  0  0  0  0  0  0  0  0  0  0
  148.8794  140.2848  154.2617 N   0  0  0  0  0  0  0  0  0  0  0  0
  148.4328  141.5794  154.4253 C   0  0  0  0  0  0  0  0  0  0  0  0
  147.0874  141.5772  154.1921 C   0  0  0  0  0  0  0  0  0  0  0  0
  146.7996  140.2174  153.8873 C   0  0  0  0  0  0  0  0  0  0  0  0
  147.8743  139.4465  153.9286 N   0  0  0  0  0  0  0  0  0  0  0  0
  150.7840  141.2825  156.2659 N   0  0  0  0  0  0  0  0  0  0  0  0
  151.4331  141.7641  157.3370 C   0  0  0  0  0  0  0  0  0  0  0  0
  152.0937  141.0613  158.1017 O   0  0  0  0  0  0  0  0  0  0  0  0
  151.3154  143.2726  157.5815 C   0  0  0  0  0  0  0  0  0  0  0  0
  152.2751  143.8027  158.6694 C   0  0  1  0  0  0  0  0  0  0  0  0
  152.0314  145.2461  159.0400 C   0  0  0  0  0  0  0  0  0  0  0  0
  151.8363  145.4170  160.3455 C   0  0  0  0  0  0  0  0  0  0  0  0
  151.9072  144.1258  161.1122 C   0  0  0  0  0  0  0  0  0  0  0  0
  152.1336  143.0556  160.0206 C   0  0  0  0  0  0  0  0  0  0  0  0
  152.1388  138.2075  155.7089 H   0  0  0  0  0  0  0  0  0  0  0  0
  152.4986  139.3117  157.0284 H   0  0  0  0  0  0  0  0  0  0  0  0
  152.8769  139.7709  155.3696 H   0  0  0  0  0  0  0  0  0  0  0  0
  150.0657  139.3298  156.5017 H   0  0  0  0  0  0  0  0  0  0  0  0
  150.8850  140.3087  153.7197 H   0  0  0  0  0  0  0  0  0  0  0  0
  150.2318  138.7282  154.0838 H   0  0  0  0  0  0  0  0  0  0  0  0
  149.1012  142.3839  154.6943 H   0  0  0  0  0  0  0  0  0  0  0  0
  146.4117  142.4185  154.2333 H   0  0  0  0  0  0  0  0  0  0  0  0
  145.8481  139.7705  153.6386 H   0  0  0  0  0  0  0  0  0  0  0  0
  150.2683  141.9363  155.6951 H   0  0  0  0  0  0  0  0  0  0  0  0
  151.4901  143.8079  156.6463 H   0  0  0  0  0  0  0  0  0  0  0  0
  150.2850  143.4854  157.8684 H   0  0  0  0  0  0  0  0  0  0  0  0
  153.3064  143.7225  158.3216 H   0  0  0  0  0  0  0  0  0  0  0  0
  152.0358  146.0397  158.3070 H   0  0  0  0  0  0  0  0  0  0  0  0
  151.6553  146.3655  160.8293 H   0  0  0  0  0  0  0  0  0  0  0  0
  152.7329  144.1586  161.8236 H   0  0  0  0  0  0  0  0  0  0  0  0
  150.9801  143.9560  161.6604 H   0  0  0  0  0  0  0  0  0  0  0  0
  151.2909  142.3632  160.0013 H   0  0  0  0  0  0  0  0  0  0  0  0
  153.0246  142.4633  160.2332 H   0  0  0  0  0  0  0  0  0  0  0  0
  1  2  1  0  0  0  0
  1 18  1  0  0  0  0
  1 19  1  0  0  0  0
  1 20  1  0  0  0  0
  2  3  1  0  0  0  0
  2  9  1  0  0  0  0
  2 21  1  0  0  0  0
  3  4  1  0  0  0  0
  3 22  1  0  0  0  0
  3 23  1  0  0  0  0
  4  8  1  0  0  0  0
  4  5  1  0  0  0  0
  5  6  2  0  0  0  0
  5 24  1  0  0  0  0
  6  7  1  0  0  0  0
  6 25  1  0  0  0  0
  7  8  2  0  0  0  0
  7 26  1  0  0  0  0
  9 10  1  0  0  0  0
  9 27  1  0  0  0  0
 10 11  2  0  0  0  0
 10 12  1  0  0  0  0
 12 13  1  0  0  0  0
 12 28  1  0  0  0  0
 12 29  1  0  0  0  0
 13 17  1  0  0  0  0
 13 14  1  0  0  0  0
 13 30  1  0  0  0  0
 14 15  2  0  0  0  0
 14 31  1  0  0  0  0
 15 16  1  0  0  0  0
 15 32  1  0  0  0  0
 16 17  1  0  0  0  0
 16 33  1  0  0  0  0
 16 34  1  0  0  0  0
 17 35  1  0  0  0  0
 17 36  1  0  0  0  0
M  END
> <s_m_source_file>
AV-unprocessed.smi

> <i_m_source_file_index>
1286

> <i_lp_mmshare_version>
43012

> <i_f3d_flags>
0

> <s_epik_input>
bjFbY0hdW2NIXVtjSF1uMVtDSDJdW0NAQEhdKFtDSDNdKVtOSF1DKD1PKVtDSDJdW0NAQEhdMltDSF09W0NIXVtDSDJdW0NIMl0y

> <s_epik_cmdline>
J2VwaWtfcHl0aG9uJywgJy1waCcsICc3LjAnLCAnLXRuJywgJzgnLCAnLW1hJywgJzIwMCcsICctbWV0YWxfYmluZGluZycsICctaW1hZScsICc8aW5maWxlLm1hZT4nLCAnLW9tYWUnLCAnPG91dGZpbGUubWFlPic=

> <r_lp_tautomer_probability>
1

> <r_epik_Ionization_Penalty>
0.000301761

> <r_epik_Ionization_Penalty_Charging>
0

> <r_epik_Ionization_Penalty_Neutral>
0.000301761

> <r_epik_State_Penalty>
-0

> <r_epik_Charging_Adjusted_Penalty>
0

> <i_epik_Tot_Q>
0

> <i_epik_Tot_abs_Q>
0

> <r_epik_Metal_State_Penalty>
-0

> <b_epik_Metal_Only>
0

> <s_lp_Force_Field>
OPLS_2005

> <r_lp_Energy>
17.4811

> <b_lp_Chiralities_Consistent>
1

> <s_lp_Variant>
AV-unprocessed.smi:1286-3

> <Gold.Version>
5.8.1

> <Gold.Id.Protein>
6NUR|6NUR_protein|mol2

> <Gold.PLP.Fitness>
48.2290

> <Gold.PLP.PLP>
-42.9318

> <Gold.PLP.part.hbond>
0.0000

> <Gold.PLP.part.metal>
0.0000

> <Gold.PLP.part.buried>
-2.4396

> <Gold.PLP.part.nonpolar>
-40.9131

> <Gold.PLP.part.repulsive>
0.2723

> <Gold.PLP.ligand.clash>
0.0000

> <Gold.PLP.ligand.torsion>
0.3616

> <Gold.PLP.Chemscore.Hbond>
0.0000

> <Gold.PLP.Chemscore.CHOScore>
2.0000

> <Gold.PLP.Chemscore.Metal>
0.0000

> <Gold.Chemscore.Hbonds>
donor molecule, donor type, donor heavy atom, donor atom, acceptor molecule, acceptor atom, score
      L1  C     5    24       P1  8028  1.00
      L1  C     7    26       P1 10175  0.93

> <Gold.PLP.Chemscore.Internal.Correction>
0.0204

> <Gold.Rescore>
     Score         DG    S(hbond)    S(metal)    S(lipo)     H(rot)  DE(clash)    DE(int)     intcor
     11.26     -14.45       0.00        0.00     112.57       1.64       0.04       3.15       ----

> <Gold.Chemscore.Fitness>
11.2595

> <Gold.Chemscore.DG>
-14.4538

> <Gold.Chemscore.ZeroCoef>
-5.4800

> <Gold.Chemscore.Hbond>
0.0000

> <Gold.Chemscore.Metal>
0.0000

> <Gold.Chemscore.Lipo>
112.5703

> <Gold.Chemscore.Internal_Hbond>
0.0000

> <Gold.Chemscore.DEClash>
0.0402

> <Gold.Chemscore.DEInternal>
3.1541

> <Gold.Chemscore.Rot>
1.6394

> <Gold.Chemscore.Internal.Correction>
   9.000000E+99

> <Gold.Chemscore.Hbond.Weighted>
-0.0000

> <Gold.Chemscore.Metal.Weighted>
-0.0000

> <Gold.Chemscore.Lipo.Weighted>
-13.1707

> <Gold.Chemscore.Internal_Hbond.Weighted>
0.0000

> <Gold.Chemscore.DEClash.Weighted>
0.0402

> <Gold.Chemscore.DEInternal.Weighted>
3.1541

> <Gold.Chemscore.Rot.Weighted>
4.1969

> <Gold.Chemscore.Internal.Correction.Weighted>
   9.000000E+99

> <Gold.Protein.RotatedTorsions>
[ 6907 6896 6895 6894 ] final   50.33 input  -60.11 | X-H torsion
[ 7974 7965 7964 7962 ] final -163.01 input  175.53 | X-H torsion
[ 8008 7997 7996 7995 ] final  132.77 input   59.86 | X-H torsion
[ 10167 10162 10161 10158 ] final  120.01 input  -65.29 | X-H torsion
[ 10718 10713 10712 10709 ] final -117.97 input   66.30 | X-H torsion
[ 10763 10752 10751 10750 ] final   94.40 input  -60.55 | X-H torsion
[ 11005 11000 10999 10996 ] final  134.95 input  -57.11 | X-H torsion

> <Gold.Protein.ActiveResidues>
 VAL166  LYS551  ARG553  GLY616  TRP617  ASP618  TYR619  PRO620  LYS621  CYS622 
 ASP623  PHE694  ASN695  SER759  ASP760  ASP761  ALA762  ILE779  LEU786  VAL792 
 PHE793  MET794  SER795  GLU796  ALA797  LYS798  CYS799  TRP800  GLU811  SER814 

> <Gold.Protein.RotatedAtoms>
  152.3007  134.7615  160.0358 H   0  0  0  0  0  0  0  0  0  0  0  0  # atno 6907 bound_to 6896
  151.8129  133.3379  159.3569 H   0  0  0  0  0  0  0  0  0  0  0  0  # atno 6908 bound_to 6896
  150.7272  134.5576  159.5870 H   0  0  0  0  0  0  0  0  0  0  0  0  # atno 6909 bound_to 6896
  144.7339  140.3169  143.6178 H   0  0  0  0  0  0  0  0  0  0  0  0  # atno 7974 bound_to 7965
  156.2986  140.2538  156.3144 H   0  0  0  0  0  0  0  0  0  0  0  0  # atno 8008 bound_to 7997
  154.9295  140.0398  157.2059 H   0  0  0  0  0  0  0  0  0  0  0  0  # atno 8009 bound_to 7997
  154.8232  140.2863  155.5777 H   0  0  0  0  0  0  0  0  0  0  0  0  # atno 8010 bound_to 7997
  139.6009  144.7056  151.3064 H   0  0  0  0  0  0  0  0  0  0  0  0  # atno 10167 bound_to 10162
  156.1072  130.6220  150.9231 H   0  0  0  0  0  0  0  0  0  0  0  0  # atno 10718 bound_to 10713
  153.2412  135.4291  155.0700 H   0  0  0  0  0  0  0  0  0  0  0  0  # atno 10763 bound_to 10752
  154.8341  135.3403  154.6646 H   0  0  0  0  0  0  0  0  0  0  0  0  # atno 10764 bound_to 10752
  153.7069  135.7025  153.5104 H   0  0  0  0  0  0  0  0  0  0  0  0  # atno 10765 bound_to 10752
  139.9948  134.9501  156.9939 H   0  0  0  0  0  0  0  0  0  0  0  0  # atno 11005 bound_to 11000
  145.7608  139.1824  143.2268 LP  0  0  0  0  0  0  0  0  0  0  0  0  # atno 17320 bound_to 7965
  146.0988  140.7569  142.9559 LP  0  0  0  0  0  0  0  0  0  0  0  0  # atno 17321 bound_to 7965
  140.7249  143.7032  150.7828 LP  0  0  0  0  0  0  0  0  0  0  0  0  # atno 17342 bound_to 10162
  140.0608  143.5156  152.2628 LP  0  0  0  0  0  0  0  0  0  0  0  0  # atno 17343 bound_to 10162
  157.6250  131.0926  150.8551 LP  0  0  0  0  0  0  0  0  0  0  0  0  # atno 17370 bound_to 10713
  156.8668  130.5132  149.5299 LP  0  0  0  0  0  0  0  0  0  0  0  0  # atno 17371 bound_to 10713
  140.4839  134.1261  155.7221 LP  0  0  0  0  0  0  0  0  0  0  0  0  # atno 17394 bound_to 11000
  141.1595  133.8819  157.1886 LP  0  0  0  0  0  0  0  0  0  0  0  0  # atno 17395 bound_to 11000

$$$$
