AV-unprocessed.smi:14|AV-procd|sdf|77|dock3
  -GOLD-   2262015203D 1   1.00000     0.00000
 Structure written by MMmdl.
 57 60  0  0  0  0  0  0  0  0  1 V2000
  147.3934  143.8445  161.1897 N   0  0  0  0  0  0  0  0  0  0  0  0
  146.2500  143.9449  161.3342 C   0  0  0  0  0  0  0  0  0  0  0  0
  144.7962  144.0729  161.5178 C   0  0  0  0  0  0  0  0  0  0  0  0
  143.9643  143.4870  160.3634 C   0  0  0  0  0  0  0  0  0  0  0  0
  144.5699  143.6773  159.0459 N   0  0  0  0  0  0  0  0  0  0  0  0
  144.0480  144.7519  158.1982 C   0  0  0  0  0  0  0  0  0  0  0  0
  144.9974  145.1345  157.0402 C   0  0  2  0  0  0  0  0  0  0  0  0
  144.6812  146.4865  156.4232 C   0  0  0  0  0  0  0  0  0  0  0  0
  143.5734  146.1626  155.4225 C   0  0  0  0  0  0  0  0  0  0  0  0
  143.7261  144.7849  155.0923 O   0  0  0  0  0  0  0  0  0  0  0  0
  144.8095  144.2258  155.8264 C   0  0  0  0  0  0  0  0  0  0  0  0
  144.9848  142.5292  158.4524 C   0  0  0  0  0  0  0  0  0  0  0  0
  144.0890  141.5411  158.1871 N   0  0  0  0  0  0  0  0  0  0  0  0
  144.4916  140.4026  157.6153 C   0  0  0  0  0  0  0  0  0  0  0  0
  145.7213  140.0482  157.2373 N   0  0  0  0  0  0  0  0  0  0  0  0
  146.6248  141.0348  157.5029 C   0  0  0  0  0  0  0  0  0  0  0  0
  146.3429  142.2956  158.1003 C   0  0  0  0  0  0  0  0  0  0  0  0
  147.5077  143.0468  158.1932 N   0  0  0  0  0  0  0  0  0  0  0  0
  148.4266  142.2723  157.6854 C   0  0  0  0  0  0  0  0  0  0  0  0
  147.9886  141.0371  157.2623 N   0  0  0  0  0  0  0  0  0  0  0  0
  148.7953  139.9870  156.6562 C   0  0  0  0  0  0  0  0  0  0  0  0
  149.6466  140.4309  155.4245 C   0  0  0  0  0  0  0  0  0  0  0  0
  148.6983  141.0834  154.3802 C   0  0  0  0  0  0  0  0  0  0  0  0
  149.3274  141.3616  153.1447 O   0  0  0  0  0  0  0  0  0  0  0  0
  150.7145  141.4538  155.8918 C   0  0  0  0  0  0  0  0  0  0  0  0
  151.8360  140.8044  156.7260 C   0  0  0  0  0  0  0  0  0  0  0  0
  152.4344  139.7376  155.9997 O   0  0  0  0  0  0  0  0  0  0  0  0
  151.5196  138.6953  155.6840 C   0  0  0  0  0  0  0  0  0  0  0  0
  150.4011  139.2402  154.7780 C   0  0  0  0  0  0  0  0  0  0  0  0
  144.5490  143.5519  162.4429 H   0  0  0  0  0  0  0  0  0  0  0  0
  144.5609  145.1252  161.6785 H   0  0  0  0  0  0  0  0  0  0  0  0
  143.8091  142.4206  160.5302 H   0  0  0  0  0  0  0  0  0  0  0  0
  142.9694  143.9308  160.3763 H   0  0  0  0  0  0  0  0  0  0  0  0
  143.0793  144.4558  157.7942 H   0  0  0  0  0  0  0  0  0  0  0  0
  143.8551  145.6285  158.8176 H   0  0  0  0  0  0  0  0  0  0  0  0
  146.0328  145.0942  157.3787 H   0  0  0  0  0  0  0  0  0  0  0  0
  144.3910  147.2477  157.1480 H   0  0  0  0  0  0  0  0  0  0  0  0
  145.5583  146.8565  155.8905 H   0  0  0  0  0  0  0  0  0  0  0  0
  142.5918  146.3042  155.8758 H   0  0  0  0  0  0  0  0  0  0  0  0
  143.6282  146.7913  154.5335 H   0  0  0  0  0  0  0  0  0  0  0  0
  145.7004  144.2505  155.1975 H   0  0  0  0  0  0  0  0  0  0  0  0
  144.6187  143.1860  156.0936 H   0  0  0  0  0  0  0  0  0  0  0  0
  143.7176  139.6709  157.4364 H   0  0  0  0  0  0  0  0  0  0  0  0
  149.4582  142.5831  157.6093 H   0  0  0  0  0  0  0  0  0  0  0  0
  149.4501  139.5814  157.4288 H   0  0  0  0  0  0  0  0  0  0  0  0
  148.1186  139.1735  156.4001 H   0  0  0  0  0  0  0  0  0  0  0  0
  147.8497  140.4334  154.1680 H   0  0  0  0  0  0  0  0  0  0  0  0
  148.2923  142.0179  154.7687 H   0  0  0  0  0  0  0  0  0  0  0  0
  149.2072  140.6193  152.5723 H   0  0  0  0  0  0  0  0  0  0  0  0
  151.1860  141.9270  155.0301 H   0  0  0  0  0  0  0  0  0  0  0  0
  150.2485  142.2612  156.4577 H   0  0  0  0  0  0  0  0  0  0  0  0
  152.6051  141.5444  156.9475 H   0  0  0  0  0  0  0  0  0  0  0  0
  151.4702  140.4453  157.6878 H   0  0  0  0  0  0  0  0  0  0  0  0
  152.0616  137.9039  155.1662 H   0  0  0  0  0  0  0  0  0  0  0  0
  151.1209  138.2529  156.5971 H   0  0  0  0  0  0  0  0  0  0  0  0
  149.7153  138.4415  154.4983 H   0  0  0  0  0  0  0  0  0  0  0  0
  150.8664  139.5609  153.8455 H   0  0  0  0  0  0  0  0  0  0  0  0
  1  2  3  0  0  0  0
  2  3  1  0  0  0  0
  3  4  1  0  0  0  0
  3 30  1  0  0  0  0
  3 31  1  0  0  0  0
  4  5  1  0  0  0  0
  4 32  1  0  0  0  0
  4 33  1  0  0  0  0
  5  6  1  0  0  0  0
  5 12  1  0  0  0  0
  6  7  1  0  0  0  0
  6 34  1  0  0  0  0
  6 35  1  0  0  0  0
  7 11  1  0  0  0  0
  7  8  1  0  0  0  0
  7 36  1  0  0  0  0
  8  9  1  0  0  0  0
  8 37  1  0  0  0  0
  8 38  1  0  0  0  0
  9 10  1  0  0  0  0
  9 39  1  0  0  0  0
  9 40  1  0  0  0  0
 10 11  1  0  0  0  0
 11 41  1  0  0  0  0
 11 42  1  0  0  0  0
 12 17  1  0  0  0  0
 12 13  2  0  0  0  0
 13 14  1  0  0  0  0
 14 15  2  0  0  0  0
 14 43  1  0  0  0  0
 15 16  1  0  0  0  0
 16 20  1  0  0  0  0
 16 17  2  0  0  0  0
 17 18  1  0  0  0  0
 18 19  2  0  0  0  0
 19 20  1  0  0  0  0
 19 44  1  0  0  0  0
 20 21  1  0  0  0  0
 21 22  1  0  0  0  0
 21 45  1  0  0  0  0
 21 46  1  0  0  0  0
 22 29  1  0  0  0  0
 22 23  1  0  0  0  0
 22 25  1  0  0  0  0
 23 24  1  0  0  0  0
 23 47  1  0  0  0  0
 23 48  1  0  0  0  0
 24 49  1  0  0  0  0
 25 26  1  0  0  0  0
 25 50  1  0  0  0  0
 25 51  1  0  0  0  0
 26 27  1  0  0  0  0
 26 52  1  0  0  0  0
 26 53  1  0  0  0  0
 27 28  1  0  0  0  0
 28 29  1  0  0  0  0
 28 54  1  0  0  0  0
 28 55  1  0  0  0  0
 29 56  1  0  0  0  0
 29 57  1  0  0  0  0
M  END
> <s_m_source_file>
AV-unprocessed.smi

> <i_m_source_file_index>
14

> <i_lp_mmshare_version>
43012

> <i_f3d_flags>
0

> <s_epik_input>
W0NIMl0xT1tDSDJdW0NIMl1bQ0BIXTFbQ0gyXU4oW0NIMl1bQ0gyXUMjTiljKG5bY0hdbjIpYyhjMjMpbltjSF1uM1tDSDJdQzQoW0NIMl1bT0hdKVtDSDJdW0NIMl1PW0NIMl1bQ0gyXTQ=

> <s_epik_cmdline>
J2VwaWtfcHl0aG9uJywgJy1waCcsICc3LjAnLCAnLXRuJywgJzgnLCAnLW1hJywgJzIwMCcsICctbWV0YWxfYmluZGluZycsICctaW1hZScsICc8aW5maWxlLm1hZT4nLCAnLW9tYWUnLCAnPG91dGZpbGUubWFlPic=

> <r_lp_tautomer_probability>
1

> <r_epik_Ionization_Penalty>
0.000542547

> <r_epik_Ionization_Penalty_Charging>
0

> <r_epik_Ionization_Penalty_Neutral>
0.000542547

> <r_epik_State_Penalty>
0.000265709

> <r_epik_Charging_Adjusted_Penalty>
0.000265709

> <i_epik_Tot_Q>
0

> <i_epik_Tot_abs_Q>
0

> <r_epik_Metal_State_Penalty>
-0

> <b_epik_Metal_Only>
0

> <s_lp_Force_Field>
OPLS_2005

> <r_lp_Energy>
44.4286

> <b_lp_Chiralities_Consistent>
1

> <s_lp_Variant>
AV-unprocessed.smi:14-1

> <Gold.Version>
5.8.1

> <Gold.Id.Protein>
6NUR|6NUR_protein|mol2

> <Gold.PLP.Fitness>
46.9350

> <Gold.PLP.PLP>
-38.2640

> <Gold.PLP.part.hbond>
-4.6959

> <Gold.PLP.part.metal>
0.0000

> <Gold.PLP.part.buried>
-6.6052

> <Gold.PLP.part.nonpolar>
-25.7844

> <Gold.PLP.part.repulsive>
0.2948

> <Gold.PLP.ligand.clash>
0.0000

> <Gold.PLP.ligand.torsion>
2.0678

> <Gold.PLP.Chemscore.Hbond>
3.8228

> <Gold.PLP.Chemscore.CHOScore>
0.0000

> <Gold.PLP.Chemscore.Metal>
0.0000

> <Gold.Chemscore.Hbonds>
donor molecule, donor type, donor heavy atom, donor atom, acceptor molecule, acceptor atom, score
      L1  H    24    49       P1  7957  0.85
      P1  H  6933  6944       L1     1  1.00
      P1  H  7997  8008       L1    27  1.00
      P1  H  8011  8017       L1    24  0.70

> <Gold.PLP.Chemscore.Internal.Correction>
1.3384

> <Gold.Rescore>
     Score         DG    S(hbond)    S(metal)    S(lipo)     H(rot)  DE(clash)    DE(int)     intcor
     12.96     -16.85       3.40        0.00      71.31       3.26       0.12       3.77       ----

> <Gold.Chemscore.Fitness>
12.9581

> <Gold.Chemscore.DG>
-16.8470

> <Gold.Chemscore.ZeroCoef>
-5.4800

> <Gold.Chemscore.Hbond>
3.4003

> <Gold.Chemscore.Metal>
0.0000

> <Gold.Chemscore.Lipo>
71.3130

> <Gold.Chemscore.Internal_Hbond>
0.0000

> <Gold.Chemscore.DEClash>
0.1182

> <Gold.Chemscore.DEInternal>
3.7707

> <Gold.Chemscore.Rot>
3.2553

> <Gold.Chemscore.Internal.Correction>
   9.000000E+99

> <Gold.Chemscore.Hbonds>
donor molecule, donor type, donor heavy atom, donor atom, acceptor molecule, acceptor atom, score
      L1  H    24    49       P1  7957  0.81
      P1  H  6933  6944       L1     1  1.00
      P1  H  7997  8008       L1    27  0.38
      P1  H  8011  8017       L1    24  0.37

> <Gold.Chemscore.Hbond.Weighted>
-11.3569

> <Gold.Chemscore.Metal.Weighted>
-0.0000

> <Gold.Chemscore.Lipo.Weighted>
-8.3436

> <Gold.Chemscore.Internal_Hbond.Weighted>
0.0000

> <Gold.Chemscore.DEClash.Weighted>
0.1182

> <Gold.Chemscore.DEInternal.Weighted>
3.7707

> <Gold.Chemscore.Rot.Weighted>
8.3336

> <Gold.Chemscore.Internal.Correction.Weighted>
   9.000000E+99

> <Gold.Protein.RotatedTorsions>
[ 6907 6896 6895 6894 ] final   48.25 input  -60.11 | X-H torsion
[ 7974 7965 7964 7962 ] final  163.84 input  175.53 | X-H torsion
[ 8008 7997 7996 7995 ] final  -25.68 input   59.86 | X-H torsion
[ 10167 10162 10161 10158 ] final   58.52 input  -65.29 | X-H torsion
[ 10718 10713 10712 10709 ] final  -84.86 input   66.30 | X-H torsion
[ 10763 10752 10751 10750 ] final  142.99 input  -60.55 | X-H torsion
[ 11005 11000 10999 10996 ] final -118.64 input  -57.11 | X-H torsion

> <Gold.Protein.ActiveResidues>
 VAL166  LYS551  ARG553  GLY616  TRP617  ASP618  TYR619  PRO620  LYS621  CYS622 
 ASP623  PHE694  ASN695  SER759  ASP760  ASP761  ALA762  ILE779  LEU786  VAL792 
 PHE793  MET794  SER795  GLU796  ALA797  LYS798  CYS799  TRP800  GLU811  SER814 

> <Gold.Protein.RotatedAtoms>
  152.2774  134.7866  160.0402 H   0  0  0  0  0  0  0  0  0  0  0  0  # atno 6907 bound_to 6896
  151.8458  133.3426  159.3665 H   0  0  0  0  0  0  0  0  0  0  0  0  # atno 6908 bound_to 6896
  150.7176  134.5275  159.5728 H   0  0  0  0  0  0  0  0  0  0  0  0  # atno 6909 bound_to 6896
  144.7571  139.8240  143.6346 H   0  0  0  0  0  0  0  0  0  0  0  0  # atno 7974 bound_to 7965
  154.4463  140.1920  156.0656 H   0  0  0  0  0  0  0  0  0  0  0  0  # atno 8008 bound_to 7997
  156.0550  140.3304  155.7367 H   0  0  0  0  0  0  0  0  0  0  0  0  # atno 8009 bound_to 7997
  155.5500  140.0594  157.2843 H   0  0  0  0  0  0  0  0  0  0  0  0  # atno 8010 bound_to 7997
  140.1863  144.4130  150.6591 H   0  0  0  0  0  0  0  0  0  0  0  0  # atno 10167 bound_to 10162
  156.0002  130.4712  150.4474 H   0  0  0  0  0  0  0  0  0  0  0  0  # atno 10718 bound_to 10713
  153.9650  135.2956  155.3431 H   0  0  0  0  0  0  0  0  0  0  0  0  # atno 10763 bound_to 10752
  154.7354  135.5049  153.9036 H   0  0  0  0  0  0  0  0  0  0  0  0  # atno 10764 bound_to 10752
  153.0928  135.6712  153.9932 H   0  0  0  0  0  0  0  0  0  0  0  0  # atno 10765 bound_to 10752
  141.0272  134.0036  157.3197 H   0  0  0  0  0  0  0  0  0  0  0  0  # atno 11005 bound_to 11000
  146.1594  139.4704  142.9998 LP  0  0  0  0  0  0  0  0  0  0  0  0  # atno 17320 bound_to 7965
  145.6741  141.0209  143.1642 LP  0  0  0  0  0  0  0  0  0  0  0  0  # atno 17321 bound_to 7965
  140.6486  143.2219  151.6130 LP  0  0  0  0  0  0  0  0  0  0  0  0  # atno 17342 bound_to 10162
  139.5274  144.3017  152.1068 LP  0  0  0  0  0  0  0  0  0  0  0  0  # atno 17343 bound_to 10162
  157.2510  131.0546  151.2379 LP  0  0  0  0  0  0  0  0  0  0  0  0  # atno 17370 bound_to 10713
  157.3529  130.7091  149.6452 LP  0  0  0  0  0  0  0  0  0  0  0  0  # atno 17371 bound_to 10713
  139.9183  135.0199  156.7968 LP  0  0  0  0  0  0  0  0  0  0  0  0  # atno 17394 bound_to 11000
  140.6471  133.9765  155.7736 LP  0  0  0  0  0  0  0  0  0  0  0  0  # atno 17395 bound_to 11000

$$$$
