AV-unprocessed.smi:283|AV-procd|sdf|2136|dock5
  -GOLD-   2262021453D 1   1.00000     0.00000
 Structure written by MMmdl.
 48 51  0  0  0  0  0  0  0  0  1 V2000
  151.8854  140.2229  159.0449 C   0  0  0  0  0  0  0  0  0  0  0  0
  152.2844  141.1060  157.8550 C   0  0  1  0  0  0  0  0  0  0  0  0
  151.4666  140.7634  156.6935 N   0  0  0  0  0  0  0  0  0  0  0  0
  151.5969  139.5728  156.0675 C   0  0  0  0  0  0  0  0  0  0  0  0
  152.1011  139.6287  154.8122 N   0  0  0  0  0  0  0  0  0  0  0  0
  152.2851  138.5060  154.1134 C   0  0  0  0  0  0  0  0  0  0  0  0
  152.0304  137.2487  154.4762 N   0  0  0  0  0  0  0  0  0  0  0  0
  151.5075  137.1798  155.7343 C   0  0  0  0  0  0  0  0  0  0  0  0
  151.2575  138.2904  156.5922 C   0  0  0  0  0  0  0  0  0  0  0  0
  150.7120  137.8330  157.7857 N   0  0  0  0  0  0  0  0  0  0  0  0
  150.6591  136.5379  157.6442 C   0  0  0  0  0  0  0  0  0  0  0  0
  151.1202  136.0563  156.4408 N   0  0  0  0  0  0  0  0  0  0  0  0
  151.1806  134.6193  156.0132 C   0  0  1  0  0  0  0  0  0  0  0  0
  150.8385  133.7896  157.0842 O   0  0  0  0  0  0  0  0  0  0  0  0
  149.6589  133.0452  156.7834 C   0  0  2  0  0  0  0  0  0  0  0  0
  149.6387  131.7066  157.5407 C   0  0  0  0  0  0  0  0  0  0  0  0
  148.4781  130.9790  157.2008 O   0  0  0  0  0  0  0  0  0  0  0  0
  149.6719  132.9436  155.2527 C   0  0  2  0  0  0  0  0  0  0  0  0
  150.5189  131.8958  154.8153 O   0  0  0  0  0  0  0  0  0  0  0  0
  150.2338  134.2949  154.8398 C   0  0  1  0  0  0  0  0  0  0  0  0
  149.1887  135.2366  154.6688 O   0  0  0  0  0  0  0  0  0  0  0  0
  152.2442  142.5839  158.2547 C   0  0  0  0  0  0  0  0  0  0  0  0
  151.4471  143.4929  157.5200 C   0  0  0  0  0  0  0  0  0  0  0  0
  151.3951  144.8534  157.8758 C   0  0  0  0  0  0  0  0  0  0  0  0
  152.1337  145.3203  158.9775 C   0  0  0  0  0  0  0  0  0  0  0  0
  152.9192  144.4234  159.7245 C   0  0  0  0  0  0  0  0  0  0  0  0
  152.9755  143.0599  159.3723 C   0  0  0  0  0  0  0  0  0  0  0  0
  153.9462  142.0019  160.3357 Cl  0  0  0  0  0  0  0  0  0  0  0  0
  152.2295  134.4529  155.7652 H   0  0  0  0  0  0  0  0  0  0  0  0
  148.7865  133.6371  157.0632 H   0  0  0  0  0  0  0  0  0  0  0  0
  148.6755  132.7628  154.8471 H   0  0  0  0  0  0  0  0  0  0  0  0
  150.8018  134.2465  153.9098 H   0  0  0  0  0  0  0  0  0  0  0  0
  152.5389  140.3973  159.9002 H   0  0  0  0  0  0  0  0  0  0  0  0
  151.9548  139.1650  158.7902 H   0  0  0  0  0  0  0  0  0  0  0  0
  150.8616  140.4233  159.3630 H   0  0  0  0  0  0  0  0  0  0  0  0
  153.3062  140.8359  157.5944 H   0  0  0  0  0  0  0  0  0  0  0  0
  151.0237  141.5521  156.2450 H   0  0  0  0  0  0  0  0  0  0  0  0
  152.6957  138.6327  153.1224 H   0  0  0  0  0  0  0  0  0  0  0  0
  150.2804  135.8919  158.4229 H   0  0  0  0  0  0  0  0  0  0  0  0
  150.4990  131.1000  157.2556 H   0  0  0  0  0  0  0  0  0  0  0  0
  149.6878  131.8569  158.6195 H   0  0  0  0  0  0  0  0  0  0  0  0
  148.5611  130.1040  157.5484 H   0  0  0  0  0  0  0  0  0  0  0  0
  151.2019  132.2665  154.2776 H   0  0  0  0  0  0  0  0  0  0  0  0
  149.1531  135.4820  153.7569 H   0  0  0  0  0  0  0  0  0  0  0  0
  150.8681  143.1517  156.6745 H   0  0  0  0  0  0  0  0  0  0  0  0
  150.7856  145.5380  157.3044 H   0  0  0  0  0  0  0  0  0  0  0  0
  152.0933  146.3636  159.2534 H   0  0  0  0  0  0  0  0  0  0  0  0
  153.4788  144.7836  160.5751 H   0  0  0  0  0  0  0  0  0  0  0  0
  1  2  1  0  0  0  0
  1 33  1  0  0  0  0
  1 34  1  0  0  0  0
  1 35  1  0  0  0  0
  2  3  1  0  0  0  0
  2 22  1  0  0  0  0
  2 36  1  0  0  0  0
  3  4  1  0  0  0  0
  3 37  1  0  0  0  0
  4  9  1  0  0  0  0
  4  5  2  0  0  0  0
  5  6  1  0  0  0  0
  6  7  2  0  0  0  0
  6 38  1  0  0  0  0
  7  8  1  0  0  0  0
  8 12  1  0  0  0  0
  8  9  2  0  0  0  0
  9 10  1  0  0  0  0
 10 11  2  0  0  0  0
 11 12  1  0  0  0  0
 11 39  1  0  0  0  0
 12 13  1  0  0  0  0
 13 29  1  0  0  0  0
 13 20  1  0  0  0  0
 13 14  1  0  0  0  0
 14 15  1  0  0  0  0
 15 30  1  0  0  0  0
 15 16  1  0  0  0  0
 15 18  1  0  0  0  0
 16 17  1  0  0  0  0
 16 40  1  0  0  0  0
 16 41  1  0  0  0  0
 17 42  1  0  0  0  0
 18 31  1  0  0  0  0
 18 19  1  0  0  0  0
 18 20  1  0  0  0  0
 19 43  1  0  0  0  0
 20 32  1  0  0  0  0
 20 21  1  0  0  0  0
 21 44  1  0  0  0  0
 22 27  1  0  0  0  0
 22 23  2  0  0  0  0
 23 24  1  0  0  0  0
 23 45  1  0  0  0  0
 24 25  2  0  0  0  0
 24 46  1  0  0  0  0
 25 26  1  0  0  0  0
 25 47  1  0  0  0  0
 26 27  2  0  0  0  0
 26 48  1  0  0  0  0
 27 28  1  0  0  0  0
M  END
> <s_m_source_file>
AV-unprocessed.smi

> <i_m_source_file_index>
283

> <i_lp_mmshare_version>
43012

> <i_f3d_flags>
0

> <s_epik_input>
Q2xjMVtjSF1bY0hdW2NIXVtjSF1jMVtDQEhdKFtDSDNdKVtOSF1jKG5bY0hdbjIpYyhjMjMpbltjSF1uM1tDQEBIXTRPW0NASF0oW0NIMl1bT0hdKVtDQEBIXShbT0hdKVtDQEhdNFtPSF0=

> <s_epik_cmdline>
J2VwaWtfcHl0aG9uJywgJy1waCcsICc3LjAnLCAnLXRuJywgJzgnLCAnLW1hJywgJzIwMCcsICctbWV0YWxfYmluZGluZycsICctaW1hZScsICc8aW5maWxlLm1hZT4nLCAnLW9tYWUnLCAnPG91dGZpbGUubWFlPic=

> <r_lp_tautomer_probability>
1

> <r_epik_Ionization_Penalty>
0.000266407

> <r_epik_Ionization_Penalty_Charging>
0

> <r_epik_Ionization_Penalty_Neutral>
0.000266407

> <r_epik_State_Penalty>
-0

> <r_epik_Charging_Adjusted_Penalty>
0

> <i_epik_Tot_Q>
0

> <i_epik_Tot_abs_Q>
0

> <r_epik_Metal_State_Penalty>
-0

> <b_epik_Metal_Only>
0

> <s_epik_Chemistry_Notes>
This compound contains an acetal/aminal-like group ( X-CH(R)-Y where X, Y are N, S, or O) that may be acid/base labile, releasing an aldehyde.

> <s_lp_Force_Field>
OPLS_2005

> <r_lp_Energy>
46.6605

> <b_lp_Chiralities_Consistent>
1

> <s_lp_Variant>
AV-unprocessed.smi:283-12

> <Gold.Version>
5.8.1

> <Gold.Id.Protein>
6NUR|6NUR_protein|mol2

> <Gold.PLP.Fitness>
55.6592

> <Gold.PLP.PLP>
-46.5985

> <Gold.PLP.part.hbond>
-4.0000

> <Gold.PLP.part.metal>
0.0000

> <Gold.PLP.part.buried>
-8.5274

> <Gold.PLP.part.nonpolar>
-34.5714

> <Gold.PLP.part.repulsive>
0.2606

> <Gold.PLP.ligand.clash>
0.0000

> <Gold.PLP.ligand.torsion>
0.8561

> <Gold.PLP.Chemscore.Hbond>
3.5634

> <Gold.PLP.Chemscore.CHOScore>
0.0000

> <Gold.PLP.Chemscore.Metal>
0.0000

> <Gold.Chemscore.Hbonds>
donor molecule, donor type, donor heavy atom, donor atom, acceptor molecule, acceptor atom, score
      L1  H    21    44       P1  7948  1.00
      P1  H  6896  6909       L1    14  0.47
      P1  H  7989  7998       L1     5  0.85
      P1  H 10752 10764       L1     7  0.84

> <Gold.PLP.Chemscore.Internal.Correction>
0.0826

> <Gold.Rescore>
     Score         DG    S(hbond)    S(metal)    S(lipo)     H(rot)  DE(clash)    DE(int)     intcor
     15.67     -16.85       2.59        0.00     112.78       4.10       0.12       1.05       ----

> <Gold.Chemscore.Fitness>
15.6714

> <Gold.Chemscore.DG>
-16.8491

> <Gold.Chemscore.ZeroCoef>
-5.4800

> <Gold.Chemscore.Hbond>
2.5934

> <Gold.Chemscore.Metal>
0.0000

> <Gold.Chemscore.Lipo>
112.7784

> <Gold.Chemscore.Internal_Hbond>
0.0000

> <Gold.Chemscore.DEClash>
0.1235

> <Gold.Chemscore.DEInternal>
1.0542

> <Gold.Chemscore.Rot>
4.0968

> <Gold.Chemscore.Internal.Correction>
   9.000000E+99

> <Gold.Chemscore.Hbonds>
donor molecule, donor type, donor heavy atom, donor atom, acceptor molecule, acceptor atom, score
      L1  H    21    44       P1  7948  0.57
      P1  H  6896  6909       L1    14  0.16
      P1  H  7989  7998       L1     5  0.34
      P1  H 10752 10764       L1     7  0.19

> <Gold.Chemscore.Hbond.Weighted>
-8.6620

> <Gold.Chemscore.Metal.Weighted>
-0.0000

> <Gold.Chemscore.Lipo.Weighted>
-13.1951

> <Gold.Chemscore.Internal_Hbond.Weighted>
0.0000

> <Gold.Chemscore.DEClash.Weighted>
0.1235

> <Gold.Chemscore.DEInternal.Weighted>
1.0542

> <Gold.Chemscore.Rot.Weighted>
10.4879

> <Gold.Chemscore.Internal.Correction.Weighted>
   9.000000E+99

> <Gold.Protein.RotatedTorsions>
[ 6907 6896 6895 6894 ] final   -8.13 input  -60.11 | X-H torsion
[ 7974 7965 7964 7962 ] final -177.84 input  175.53 | X-H torsion
[ 8008 7997 7996 7995 ] final   12.21 input   59.86 | X-H torsion
[ 10167 10162 10161 10158 ] final   62.97 input  -65.29 | X-H torsion
[ 10718 10713 10712 10709 ] final  -35.24 input   66.30 | X-H torsion
[ 10763 10752 10751 10750 ] final  -67.77 input  -60.55 | X-H torsion
[ 11005 11000 10999 10996 ] final   97.93 input  -57.11 | X-H torsion

> <Gold.Protein.ActiveResidues>
 VAL166  LYS551  ARG553  GLY616  TRP617  ASP618  TYR619  PRO620  LYS621  CYS622 
 ASP623  PHE694  ASN695  SER759  ASP760  ASP761  ALA762  ILE779  LEU786  VAL792 
 PHE793  MET794  SER795  GLU796  ALA797  LYS798  CYS799  TRP800  GLU811  SER814 

> <Gold.Protein.RotatedAtoms>
  151.4385  135.1017  159.9662 H   0  0  0  0  0  0  0  0  0  0  0  0  # atno 6907 bound_to 6896
  152.4931  133.8551  159.7232 H   0  0  0  0  0  0  0  0  0  0  0  0  # atno 6908 bound_to 6896
  150.9105  133.6945  159.2883 H   0  0  0  0  0  0  0  0  0  0  0  0  # atno 6909 bound_to 6896
  144.7129  140.0959  143.6419 H   0  0  0  0  0  0  0  0  0  0  0  0  # atno 7974 bound_to 7965
  154.8175  140.2878  155.5810 H   0  0  0  0  0  0  0  0  0  0  0  0  # atno 8008 bound_to 7997
  156.2994  140.2556  156.3006 H   0  0  0  0  0  0  0  0  0  0  0  0  # atno 8009 bound_to 7997
  154.9377  140.0382  157.2070 H   0  0  0  0  0  0  0  0  0  0  0  0  # atno 8010 bound_to 7997
  140.1381  144.4580  150.6826 H   0  0  0  0  0  0  0  0  0  0  0  0  # atno 10167 bound_to 10162
  156.3410  130.4293  149.7787 H   0  0  0  0  0  0  0  0  0  0  0  0  # atno 10718 bound_to 10713
  154.3794  135.6077  153.5782 H   0  0  0  0  0  0  0  0  0  0  0  0  # atno 10763 bound_to 10752
  152.9788  135.5857  154.4428 H   0  0  0  0  0  0  0  0  0  0  0  0  # atno 10764 bound_to 10752
  154.4195  135.2845  155.1962 H   0  0  0  0  0  0  0  0  0  0  0  0  # atno 10765 bound_to 10752
  139.8774  134.9025  156.4381 H   0  0  0  0  0  0  0  0  0  0  0  0  # atno 11005 bound_to 11000
  145.9580  139.2780  143.1173 LP  0  0  0  0  0  0  0  0  0  0  0  0  # atno 17320 bound_to 7965
  145.9252  140.9087  143.0385 LP  0  0  0  0  0  0  0  0  0  0  0  0  # atno 17321 bound_to 7965
  140.6777  143.2312  151.5465 LP  0  0  0  0  0  0  0  0  0  0  0  0  # atno 17342 bound_to 10162
  139.5486  144.2456  152.1488 LP  0  0  0  0  0  0  0  0  0  0  0  0  # atno 17343 bound_to 10162
  156.5024  130.8134  151.3137 LP  0  0  0  0  0  0  0  0  0  0  0  0  # atno 17370 bound_to 10713
  157.7447  130.9940  150.2693 LP  0  0  0  0  0  0  0  0  0  0  0  0  # atno 17371 bound_to 10713
  140.9019  133.7773  155.9690 LP  0  0  0  0  0  0  0  0  0  0  0  0  # atno 17394 bound_to 11000
  140.8642  134.2804  157.5221 LP  0  0  0  0  0  0  0  0  0  0  0  0  # atno 17395 bound_to 11000

$$$$
