AV-unprocessed.smi:1860|AV-procd|sdf|7547|dock5
  -GOLD-   22720 9263D 1   1.00000     0.00000
 Structure written by MMmdl.
 31 32  0  0  0  0  0  0  0  0  1 V2000
  148.2784  145.2470  161.2653 C   0  0  0  0  0  0  0  0  0  0  0  0
  147.0148  144.5362  160.7634 C   0  0  0  0  0  0  0  0  0  0  0  0
  147.1846  144.0435  159.4020 N   0  0  0  0  0  0  0  0  0  0  0  0
  146.7765  142.8442  158.9580 C   0  0  0  0  0  0  0  0  0  0  0  0
  146.2201  142.0098  159.6717 O   0  0  0  0  0  0  0  0  0  0  0  0
  147.0307  142.5402  157.4810 C   0  0  0  0  0  0  0  0  0  0  0  0
  148.4123  141.9822  157.2991 C   0  0  0  0  0  0  0  0  0  0  0  0
  149.5463  142.3501  157.9818 C   0  0  0  0  0  0  0  0  0  0  0  0
  150.9451  141.4538  157.4574 S   0  0  0  0  0  0  0  0  0  0  0  0
  149.9178  140.5867  156.3120 C   0  0  0  0  0  0  0  0  0  0  0  0
  150.3343  139.5677  155.4048 N   0  0  0  0  0  0  0  0  0  0  0  0
  151.7150  139.0961  155.3622 C   0  0  0  0  0  0  0  0  0  0  0  0
  151.7049  138.0320  154.2693 C   0  0  0  0  0  0  0  0  0  0  0  0
  150.3250  138.0456  153.8448 N   0  0  0  0  0  0  0  0  0  0  0  0
  149.5661  138.9250  154.5027 C   0  0  0  0  0  0  0  0  0  0  0  0
  148.3664  139.0912  154.2902 O   0  0  0  0  0  0  0  0  0  0  0  0
  148.6387  140.9743  156.3558 N   0  0  0  0  0  0  0  0  0  0  0  0
  148.1508  145.5816  162.2950 H   0  0  0  0  0  0  0  0  0  0  0  0
  148.5087  146.1236  160.6591 H   0  0  0  0  0  0  0  0  0  0  0  0
  149.1428  144.5831  161.2363 H   0  0  0  0  0  0  0  0  0  0  0  0
  146.7915  143.6855  161.4074 H   0  0  0  0  0  0  0  0  0  0  0  0
  146.1538  145.2038  160.8212 H   0  0  0  0  0  0  0  0  0  0  0  0
  147.6331  144.6649  158.7447 H   0  0  0  0  0  0  0  0  0  0  0  0
  146.2801  141.8375  157.1171 H   0  0  0  0  0  0  0  0  0  0  0  0
  146.9008  143.4547  156.9004 H   0  0  0  0  0  0  0  0  0  0  0  0
  149.6443  143.0959  158.7564 H   0  0  0  0  0  0  0  0  0  0  0  0
  152.3945  139.9134  155.1162 H   0  0  0  0  0  0  0  0  0  0  0  0
  152.0089  138.6759  156.3250 H   0  0  0  0  0  0  0  0  0  0  0  0
  152.3643  138.2893  153.4398 H   0  0  0  0  0  0  0  0  0  0  0  0
  151.9796  137.0483  154.6515 H   0  0  0  0  0  0  0  0  0  0  0  0
  149.9778  137.4405  153.1148 H   0  0  0  0  0  0  0  0  0  0  0  0
  1  2  1  0  0  0  0
  1 18  1  0  0  0  0
  1 19  1  0  0  0  0
  1 20  1  0  0  0  0
  2  3  1  0  0  0  0
  2 21  1  0  0  0  0
  2 22  1  0  0  0  0
  3  4  1  0  0  0  0
  3 23  1  0  0  0  0
  4  5  2  0  0  0  0
  4  6  1  0  0  0  0
  6  7  1  0  0  0  0
  6 24  1  0  0  0  0
  6 25  1  0  0  0  0
  7 17  1  0  0  0  0
  7  8  2  0  0  0  0
  8  9  1  0  0  0  0
  8 26  1  0  0  0  0
  9 10  1  0  0  0  0
 10 11  1  0  0  0  0
 10 17  2  0  0  0  0
 11 15  1  0  0  0  0
 11 12  1  0  0  0  0
 12 13  1  0  0  0  0
 12 27  1  0  0  0  0
 12 28  1  0  0  0  0
 13 14  1  0  0  0  0
 13 29  1  0  0  0  0
 13 30  1  0  0  0  0
 14 15  1  0  0  0  0
 14 31  1  0  0  0  0
 15 16  2  0  0  0  0
M  END
> <s_m_source_file>
AV-unprocessed.smi

> <i_m_source_file_index>
1860

> <i_lp_mmshare_version>
43012

> <i_f3d_flags>
0

> <s_epik_input>
W0NIM11bQ0gyXVtOSF1DKD1PKVtDSDJdYzFbY0hdc2MobjEpTjJbQ0gyXVtDSDJdW05IXUMyPU8=

> <s_epik_cmdline>
J2VwaWtfcHl0aG9uJywgJy1waCcsICc3LjAnLCAnLXRuJywgJzgnLCAnLW1hJywgJzIwMCcsICctbWV0YWxfYmluZGluZycsICctaW1hZScsICc8aW5maWxlLm1hZT4nLCAnLW9tYWUnLCAnPG91dGZpbGUubWFlPic=

> <r_lp_tautomer_probability>
1

> <r_epik_Ionization_Penalty>
0.000119829

> <r_epik_Ionization_Penalty_Charging>
0

> <r_epik_Ionization_Penalty_Neutral>
0.000119829

> <r_epik_State_Penalty>
-0

> <r_epik_Charging_Adjusted_Penalty>
0

> <i_epik_Tot_Q>
0

> <i_epik_Tot_abs_Q>
0

> <r_epik_Metal_State_Penalty>
-0

> <b_epik_Metal_Only>
0

> <s_lp_Force_Field>
OPLS_2005

> <r_lp_Energy>
29.5586

> <b_lp_Chiralities_Consistent>
1

> <s_lp_Variant>
AV-unprocessed.smi:1860-1

> <Gold.Version>
5.8.1

> <Gold.Id.Protein>
6NUR|6NUR_protein|mol2

> <Gold.PLP.Fitness>
36.4907

> <Gold.PLP.PLP>
-29.1006

> <Gold.PLP.part.hbond>
-3.4538

> <Gold.PLP.part.metal>
0.0000

> <Gold.PLP.part.buried>
-5.3916

> <Gold.PLP.part.nonpolar>
-20.7830

> <Gold.PLP.part.repulsive>
0.3903

> <Gold.PLP.ligand.clash>
0.0000

> <Gold.PLP.ligand.torsion>
0.8064

> <Gold.PLP.Chemscore.Hbond>
3.0000

> <Gold.PLP.Chemscore.CHOScore>
0.0000

> <Gold.PLP.Chemscore.Metal>
0.0000

> <Gold.Chemscore.Hbonds>
donor molecule, donor type, donor heavy atom, donor atom, acceptor molecule, acceptor atom, score
      L1  H     3    23       P1  8029  1.00
      L1  H    14    31       P1  7948  1.00
      P1  H  6934  6946       L1     5  1.00

> <Gold.PLP.Chemscore.Internal.Correction>
0.0029

> <Gold.Rescore>
     Score         DG    S(hbond)    S(metal)    S(lipo)     H(rot)  DE(clash)    DE(int)     intcor
     13.85     -16.02       2.93        0.00      41.79       1.62       0.02       2.14       ----

> <Gold.Chemscore.Fitness>
13.8547

> <Gold.Chemscore.DG>
-16.0151

> <Gold.Chemscore.ZeroCoef>
-5.4800

> <Gold.Chemscore.Hbond>
2.9345

> <Gold.Chemscore.Metal>
0.0000

> <Gold.Chemscore.Lipo>
41.7876

> <Gold.Chemscore.Internal_Hbond>
0.0000

> <Gold.Chemscore.DEClash>
0.0202

> <Gold.Chemscore.DEInternal>
2.1401

> <Gold.Chemscore.Rot>
1.6231

> <Gold.Chemscore.Internal.Correction>
   9.000000E+99

> <Gold.Chemscore.Hbonds>
donor molecule, donor type, donor heavy atom, donor atom, acceptor molecule, acceptor atom, score
      L1  H     3    23       P1  8029  0.98
      L1  H    14    31       P1  7948  0.25
      P1  H  6934  6946       L1     5  1.00

> <Gold.Chemscore.Hbond.Weighted>
-9.8012

> <Gold.Chemscore.Metal.Weighted>
-0.0000

> <Gold.Chemscore.Lipo.Weighted>
-4.8891

> <Gold.Chemscore.Internal_Hbond.Weighted>
0.0000

> <Gold.Chemscore.DEClash.Weighted>
0.0202

> <Gold.Chemscore.DEInternal.Weighted>
2.1401

> <Gold.Chemscore.Rot.Weighted>
4.1553

> <Gold.Chemscore.Internal.Correction.Weighted>
   9.000000E+99

> <Gold.Protein.RotatedTorsions>
[ 6907 6896 6895 6894 ] final  -98.82 input  -60.11 | X-H torsion
[ 7974 7965 7964 7962 ] final  140.39 input  175.53 | X-H torsion
[ 8008 7997 7996 7995 ] final   47.23 input   59.86 | X-H torsion
[ 10167 10162 10161 10158 ] final  -14.68 input  -65.29 | X-H torsion
[ 10718 10713 10712 10709 ] final -113.96 input   66.30 | X-H torsion
[ 10763 10752 10751 10750 ] final  128.98 input  -60.55 | X-H torsion
[ 11005 11000 10999 10996 ] final  -92.27 input  -57.11 | X-H torsion

> <Gold.Protein.ActiveResidues>
 VAL166  LYS551  ARG553  GLY616  TRP617  ASP618  TYR619  PRO620  LYS621  CYS622 
 ASP623  PHE694  ASN695  SER759  ASP760  ASP761  ALA762  ILE779  LEU786  VAL792 
 PHE793  MET794  SER795  GLU796  ALA797  LYS798  CYS799  TRP800  GLU811  SER814 

> <Gold.Protein.RotatedAtoms>
  150.7059  134.1135  159.4008 H   0  0  0  0  0  0  0  0  0  0  0  0  # atno 6907 bound_to 6896
  151.9122  135.0332  160.0524 H   0  0  0  0  0  0  0  0  0  0  0  0  # atno 6908 bound_to 6896
  152.2326  133.5035  159.5261 H   0  0  0  0  0  0  0  0  0  0  0  0  # atno 6909 bound_to 6896
  144.9191  139.5191  143.5672 H   0  0  0  0  0  0  0  0  0  0  0  0  # atno 7974 bound_to 7965
  155.3656  140.3421  155.4242 H   0  0  0  0  0  0  0  0  0  0  0  0  # atno 8008 bound_to 7997
  156.1690  140.1625  156.8515 H   0  0  0  0  0  0  0  0  0  0  0  0  # atno 8009 bound_to 7997
  154.5214  140.0766  156.8161 H   0  0  0  0  0  0  0  0  0  0  0  0  # atno 8010 bound_to 7997
  140.7205  143.5296  150.9536 H   0  0  0  0  0  0  0  0  0  0  0  0  # atno 10167 bound_to 10162
  156.0799  130.6001  150.8711 H   0  0  0  0  0  0  0  0  0  0  0  0  # atno 10718 bound_to 10713
  153.7343  135.3234  155.3292 H   0  0  0  0  0  0  0  0  0  0  0  0  # atno 10763 bound_to 10752
  154.8316  135.4529  154.1090 H   0  0  0  0  0  0  0  0  0  0  0  0  # atno 10764 bound_to 10752
  153.2247  135.6952  153.8040 H   0  0  0  0  0  0  0  0  0  0  0  0  # atno 10765 bound_to 10752
  141.1526  133.7809  156.9996 H   0  0  0  0  0  0  0  0  0  0  0  0  # atno 11005 bound_to 11000
  146.3196  139.8057  142.8956 LP  0  0  0  0  0  0  0  0  0  0  0  0  # atno 17320 bound_to 7965
  145.3326  141.0270  143.3438 LP  0  0  0  0  0  0  0  0  0  0  0  0  # atno 17321 bound_to 7965
  139.9016  143.6829  152.3130 LP  0  0  0  0  0  0  0  0  0  0  0  0  # atno 17342 bound_to 10162
  139.7181  144.7608  151.1001 LP  0  0  0  0  0  0  0  0  0  0  0  0  # atno 17343 bound_to 10162
  157.5911  131.0944  150.9116 LP  0  0  0  0  0  0  0  0  0  0  0  0  # atno 17370 bound_to 10713
  156.9292  130.5343  149.5279 LP  0  0  0  0  0  0  0  0  0  0  0  0  # atno 17371 bound_to 10713
  140.0949  134.9570  157.1834 LP  0  0  0  0  0  0  0  0  0  0  0  0  # atno 17394 bound_to 11000
  140.3396  134.2719  155.7214 LP  0  0  0  0  0  0  0  0  0  0  0  0  # atno 17395 bound_to 11000

$$$$
