AV-unprocessed.smi:3183|AV-procd|sdf|12160|dock10
  -GOLD-   2272017593D 1   1.00000     0.00000
 Structure written by MMmdl.
 43 44  0  0  0  0  0  0  0  0  2 V2000
  152.7724  143.2029  161.6731 C   0  0  0  0  0  0  0  0  0  0  0  0
  152.5545  143.2212  160.1497 C   0  0  1  0  0  0  0  0  0  0  0  0
  152.1391  141.8179  159.6637 C   0  0  0  0  0  0  0  0  0  0  0  0
  151.9225  141.7706  158.1447 C   0  0  0  0  0  0  0  0  0  0  0  0
  150.8783  142.8119  157.6994 C   0  0  2  0  0  0  0  0  0  0  0  0
  150.7018  142.8143  156.2301 N   0  3  0  0  0  0  0  0  0  0  0  0
  150.3295  141.5138  155.6347 C   0  0  0  0  0  0  0  0  0  0  0  0
  148.8167  141.2725  155.7453 C   0  0  0  0  0  0  0  0  0  0  0  0
  148.2267  140.5155  154.5937 C   0  0  0  0  0  0  0  0  0  0  0  0
  148.4796  139.2537  154.1278 C   0  0  0  0  0  0  0  0  0  0  0  0
  147.6094  139.1113  153.0126 C   0  0  0  0  0  0  0  0  0  0  0  0
  146.8767  140.1897  152.8019 N   0  0  0  0  0  0  0  0  0  0  0  0
  147.2510  141.0522  153.7697 N   0  0  0  0  0  0  0  0  0  0  0  0
  146.6193  142.3578  153.8122 C   0  0  0  0  0  0  0  0  0  0  0  0
  151.3016  144.2137  158.1719 C   0  0  0  0  0  0  0  0  0  0  0  0
  151.5162  144.2819  159.6982 C   0  0  2  0  0  0  0  0  0  0  0  0
  151.9035  145.7139  160.1094 C   0  0  0  0  0  0  0  0  0  0  0  0
  151.8346  143.0440  162.2061 H   0  0  0  0  0  0  0  0  0  0  0  0
  153.2094  144.1346  162.0314 H   0  0  0  0  0  0  0  0  0  0  0  0
  153.4558  142.4033  161.9604 H   0  0  0  0  0  0  0  0  0  0  0  0
  153.5119  143.4630  159.6851 H   0  0  0  0  0  0  0  0  0  0  0  0
  152.9009  141.0881  159.9406 H   0  0  0  0  0  0  0  0  0  0  0  0
  151.2226  141.5098  160.1694 H   0  0  0  0  0  0  0  0  0  0  0  0
  152.8702  141.9514  157.6357 H   0  0  0  0  0  0  0  0  0  0  0  0
  151.6087  140.7647  157.8662 H   0  0  0  0  0  0  0  0  0  0  0  0
  149.9167  142.5763  158.1587 H   0  0  0  0  0  0  0  0  0  0  0  0
  149.9596  143.4648  156.0150 H   0  0  0  0  0  0  0  0  0  0  0  0
  150.6294  141.4886  154.5870 H   0  0  0  0  0  0  0  0  0  0  0  0
  150.8702  140.7175  156.1481 H   0  0  0  0  0  0  0  0  0  0  0  0
  148.6099  140.7301  156.6686 H   0  0  0  0  0  0  0  0  0  0  0  0
  148.3073  142.2329  155.8345 H   0  0  0  0  0  0  0  0  0  0  0  0
  149.1823  138.5345  154.5213 H   0  0  0  0  0  0  0  0  0  0  0  0
  147.4900  138.2626  152.3556 H   0  0  0  0  0  0  0  0  0  0  0  0
  146.8887  142.8922  154.7226 H   0  0  0  0  0  0  0  0  0  0  0  0
  145.5351  142.2439  153.7844 H   0  0  0  0  0  0  0  0  0  0  0  0
  146.9368  142.9460  152.9508 H   0  0  0  0  0  0  0  0  0  0  0  0
  152.2202  144.5097  157.6626 H   0  0  0  0  0  0  0  0  0  0  0  0
  150.5418  144.9393  157.8777 H   0  0  0  0  0  0  0  0  0  0  0  0
  150.5636  144.0508  160.1778 H   0  0  0  0  0  0  0  0  0  0  0  0
  152.8855  145.9872  159.7222 H   0  0  0  0  0  0  0  0  0  0  0  0
  151.9251  145.8321  161.1924 H   0  0  0  0  0  0  0  0  0  0  0  0
  151.1835  146.4391  159.7288 H   0  0  0  0  0  0  0  0  0  0  0  0
  151.5528  143.1478  155.8002 H   0  0  0  0  0  0  0  0  0  0  0  0
  1  2  1  0  0  0  0
  1 18  1  0  0  0  0
  1 19  1  0  0  0  0
  1 20  1  0  0  0  0
  2 16  1  0  0  0  0
  2  3  1  0  0  0  0
  2 21  1  0  0  0  0
  3  4  1  0  0  0  0
  3 22  1  0  0  0  0
  3 23  1  0  0  0  0
  4  5  1  0  0  0  0
  4 24  1  0  0  0  0
  4 25  1  0  0  0  0
  5  6  1  0  0  0  0
  5 15  1  0  0  0  0
  5 26  1  0  0  0  0
  6  7  1  0  0  0  0
  6 27  1  0  0  0  0
  6 43  1  0  0  0  0
  7  8  1  0  0  0  0
  7 28  1  0  0  0  0
  7 29  1  0  0  0  0
  8  9  1  0  0  0  0
  8 30  1  0  0  0  0
  8 31  1  0  0  0  0
  9 13  1  0  0  0  0
  9 10  2  0  0  0  0
 10 11  1  0  0  0  0
 10 32  1  0  0  0  0
 11 12  2  0  0  0  0
 11 33  1  0  0  0  0
 12 13  1  0  0  0  0
 13 14  1  0  0  0  0
 14 34  1  0  0  0  0
 14 35  1  0  0  0  0
 14 36  1  0  0  0  0
 15 16  1  0  0  0  0
 15 37  1  0  0  0  0
 15 38  1  0  0  0  0
 16 17  1  0  0  0  0
 16 39  1  0  0  0  0
 17 40  1  0  0  0  0
 17 41  1  0  0  0  0
 17 42  1  0  0  0  0
M  CHG  1   6   1
M  END
> <s_m_source_file>
AV-unprocessed.smi

> <i_m_source_file_index>
3183

> <i_lp_mmshare_version>
43012

> <i_f3d_flags>
0

> <s_epik_input>
W0NIM11bQ0BASF0xW0NIMl1bQ0gyXVtDQEhdKFtDSDJdW0NASF0xW0NIM10pW05IXVtDSDJdW0NIMl1jMltjSF1bY0hdbm4yW0NIM10=

> <s_epik_cmdline>
J2VwaWtfcHl0aG9uJywgJy1waCcsICc3LjAnLCAnLXRuJywgJzgnLCAnLW1hJywgJzIwMCcsICctbWV0YWxfYmluZGluZycsICctaW1hZScsICc8aW5maWxlLm1hZT4nLCAnLW9tYWUnLCAnPG91dGZpbGUubWFlPic=

> <r_lp_tautomer_probability>
1

> <r_epik_Ionization_Penalty>
0.000327718

> <r_epik_Ionization_Penalty_Charging>
0.000294043

> <r_epik_Ionization_Penalty_Neutral>
3.36755e-05

> <r_epik_State_Penalty>
-0

> <r_epik_Charging_Adjusted_Penalty>
0.000294043

> <i_epik_Tot_Q>
1

> <i_epik_Tot_abs_Q>
1

> <r_epik_Metal_State_Penalty>
-0

> <b_epik_Metal_Only>
0

> <s_lp_Force_Field>
OPLS_2005

> <r_lp_Energy>
12.5672

> <b_lp_Chiralities_Consistent>
1

> <s_lp_Variant>
AV-unprocessed.smi:3183-8

> <Gold.Version>
5.8.1

> <Gold.Id.Protein>
6NUR|6NUR_protein|mol2

> <Gold.PLP.Fitness>
50.4663

> <Gold.PLP.PLP>
-42.1522

> <Gold.PLP.part.hbond>
-1.0000

> <Gold.PLP.part.metal>
0.0000

> <Gold.PLP.part.buried>
-3.9908

> <Gold.PLP.part.nonpolar>
-37.0251

> <Gold.PLP.part.repulsive>
0.3544

> <Gold.PLP.ligand.clash>
0.0000

> <Gold.PLP.ligand.torsion>
0.3500

> <Gold.PLP.Chemscore.Hbond>
2.0000

> <Gold.PLP.Chemscore.CHOScore>
1.0000

> <Gold.PLP.Chemscore.Metal>
0.0000

> <Gold.Chemscore.Hbonds>
donor molecule, donor type, donor heavy atom, donor atom, acceptor molecule, acceptor atom, score
      L1  H     6    27       P1  8028  2.00
      L1  C    11    33       P1  7948  1.00

> <Gold.PLP.Chemscore.Internal.Correction>
0.0140

> <Gold.Rescore>
     Score         DG    S(hbond)    S(metal)    S(lipo)     H(rot)  DE(clash)    DE(int)     intcor
     19.07     -19.44       1.00        0.00     120.93       1.38       0.05       0.33       ----

> <Gold.Chemscore.Fitness>
19.0680

> <Gold.Chemscore.DG>
-19.4419

> <Gold.Chemscore.ZeroCoef>
-5.4800

> <Gold.Chemscore.Hbond>
0.9994

> <Gold.Chemscore.Metal>
0.0000

> <Gold.Chemscore.Lipo>
120.9296

> <Gold.Chemscore.Internal_Hbond>
0.0000

> <Gold.Chemscore.DEClash>
0.0469

> <Gold.Chemscore.DEInternal>
0.3271

> <Gold.Chemscore.Rot>
1.3768

> <Gold.Chemscore.Internal.Correction>
   9.000000E+99

> <Gold.Chemscore.Hbonds>
donor molecule, donor type, donor heavy atom, donor atom, acceptor molecule, acceptor atom, score
      L1  H     6    27       P1  8028  1.00

> <Gold.Chemscore.Hbond.Weighted>
-3.3379

> <Gold.Chemscore.Metal.Weighted>
-0.0000

> <Gold.Chemscore.Lipo.Weighted>
-14.1488

> <Gold.Chemscore.Internal_Hbond.Weighted>
0.0000

> <Gold.Chemscore.DEClash.Weighted>
0.0469

> <Gold.Chemscore.DEInternal.Weighted>
0.3271

> <Gold.Chemscore.Rot.Weighted>
3.5247

> <Gold.Chemscore.Internal.Correction.Weighted>
   9.000000E+99

> <Gold.Protein.RotatedTorsions>
[ 6907 6896 6895 6894 ] final -118.06 input  -60.11 | X-H torsion
[ 7974 7965 7964 7962 ] final -169.67 input  175.53 | X-H torsion
[ 8008 7997 7996 7995 ] final  126.66 input   59.86 | X-H torsion
[ 10167 10162 10161 10158 ] final  173.31 input  -65.29 | X-H torsion
[ 10718 10713 10712 10709 ] final   40.30 input   66.30 | X-H torsion
[ 10763 10752 10751 10750 ] final   26.66 input  -60.55 | X-H torsion
[ 11005 11000 10999 10996 ] final -138.77 input  -57.11 | X-H torsion

> <Gold.Protein.ActiveResidues>
 VAL166  LYS551  ARG553  GLY616  TRP617  ASP618  TYR619  PRO620  LYS621  CYS622 
 ASP623  PHE694  ASN695  SER759  ASP760  ASP761  ALA762  ILE779  LEU786  VAL792 
 PHE793  MET794  SER795  GLU796  ALA797  LYS798  CYS799  TRP800  GLU811  SER814 

> <Gold.Protein.RotatedAtoms>
  150.8188  133.8290  159.3148 H   0  0  0  0  0  0  0  0  0  0  0  0  # atno 6907 bound_to 6896
  151.6054  135.1042  160.0079 H   0  0  0  0  0  0  0  0  0  0  0  0  # atno 6908 bound_to 6896
  152.4278  133.7184  159.6576 H   0  0  0  0  0  0  0  0  0  0  0  0  # atno 6909 bound_to 6896
  144.7182  140.2187  143.6318 H   0  0  0  0  0  0  0  0  0  0  0  0  # atno 7974 bound_to 7965
  156.2870  140.2687  156.2148 H   0  0  0  0  0  0  0  0  0  0  0  0  # atno 8008 bound_to 7997
  155.0228  140.0386  157.2462 H   0  0  0  0  0  0  0  0  0  0  0  0  # atno 8009 bound_to 7997
  154.7421  140.2727  155.6369 H   0  0  0  0  0  0  0  0  0  0  0  0  # atno 8010 bound_to 7997
  139.5104  144.3275  152.0143 H   0  0  0  0  0  0  0  0  0  0  0  0  # atno 10167 bound_to 10162
  157.3806  130.7751  149.7190 H   0  0  0  0  0  0  0  0  0  0  0  0  # atno 10718 bound_to 10713
  153.0608  135.6555  154.0468 H   0  0  0  0  0  0  0  0  0  0  0  0  # atno 10763 bound_to 10752
  154.0137  135.2926  155.3391 H   0  0  0  0  0  0  0  0  0  0  0  0  # atno 10764 bound_to 10752
  154.6945  135.5269  153.8506 H   0  0  0  0  0  0  0  0  0  0  0  0  # atno 10765 bound_to 10752
  140.8584  134.2200  157.4721 H   0  0  0  0  0  0  0  0  0  0  0  0  # atno 11005 bound_to 11000
  145.8522  139.2181  143.1766 LP  0  0  0  0  0  0  0  0  0  0  0  0  # atno 17320 bound_to 7965
  146.0250  140.8312  142.9904 LP  0  0  0  0  0  0  0  0  0  0  0  0  # atno 17321 bound_to 7965
  140.2716  144.3958  150.6149 LP  0  0  0  0  0  0  0  0  0  0  0  0  # atno 17342 bound_to 10162
  140.6084  143.2168  151.6934 LP  0  0  0  0  0  0  0  0  0  0  0  0  # atno 17343 bound_to 10162
  155.9775  130.4062  150.3709 LP  0  0  0  0  0  0  0  0  0  0  0  0  # atno 17370 bound_to 10713
  157.1812  131.0392  151.2747 LP  0  0  0  0  0  0  0  0  0  0  0  0  # atno 17371 bound_to 10713
  139.8706  134.9717  156.4747 LP  0  0  0  0  0  0  0  0  0  0  0  0  # atno 17394 bound_to 11000
  140.8711  133.7987  155.9366 LP  0  0  0  0  0  0  0  0  0  0  0  0  # atno 17395 bound_to 11000

$$$$
