AV-unprocessed.smi:653|AV-procd|sdf|3206|dock2
  -GOLD-   22720 0143D 1   1.00000     0.00000
 Structure written by MMmdl.
 44 45  0  0  0  0  0  0  0  0  1 V2000
  141.3949  143.1545  160.7214 C   0  0  0  0  0  0  0  0  0  0  0  0
  142.8056  143.6972  160.8199 C   0  0  0  0  0  0  0  0  0  0  0  0
  143.6319  143.3538  161.9102 C   0  0  0  0  0  0  0  0  0  0  0  0
  144.9349  143.8853  161.9579 C   0  0  0  0  0  0  0  0  0  0  0  0
  145.3603  144.7389  160.9190 C   0  0  0  0  0  0  0  0  0  0  0  0
  146.7556  145.3384  160.9236 C   0  0  0  0  0  0  0  0  0  0  0  0
  147.8025  144.2882  160.5434 C   0  0  0  0  0  0  0  0  0  0  0  0
  147.4694  143.1167  160.3623 O   0  0  0  0  0  0  0  0  0  0  0  0
  149.0673  144.7208  160.4288 N   0  0  0  0  0  0  0  0  0  0  0  0
  150.2107  143.8865  160.0745 C   0  0  0  0  0  0  0  0  0  0  0  0
  151.5614  144.6243  160.2554 C   0  0  2  0  0  0  0  0  0  0  0  0
  151.8778  145.5559  159.0930 C   0  0  0  0  0  0  0  0  0  0  0  0
  152.6014  144.6495  158.0934 C   0  0  0  0  0  0  0  0  0  0  0  0
  152.9590  143.4734  158.8140 O   0  0  0  0  0  0  0  0  0  0  0  0
  152.7980  143.7106  160.2062 C   0  0  2  0  0  0  0  0  0  0  0  0
  152.7409  142.3898  161.0077 C   0  0  0  0  0  0  0  0  0  0  0  0
  152.8365  142.6378  162.5232 C   0  0  0  0  0  0  0  0  0  0  0  0
  153.8547  141.4276  160.5641 C   0  0  0  0  0  0  0  0  0  0  0  0
  144.4540  145.0212  159.8746 C   0  0  0  0  0  0  0  0  0  0  0  0
  143.2030  144.5157  159.8203 N   0  0  0  0  0  0  0  0  0  0  0  0
  141.3231  142.1748  161.1947 H   0  0  0  0  0  0  0  0  0  0  0  0
  141.0868  143.0489  159.6805 H   0  0  0  0  0  0  0  0  0  0  0  0
  140.6975  143.8280  161.2198 H   0  0  0  0  0  0  0  0  0  0  0  0
  143.2776  142.6984  162.6920 H   0  0  0  0  0  0  0  0  0  0  0  0
  145.5947  143.6401  162.7772 H   0  0  0  0  0  0  0  0  0  0  0  0
  146.7876  146.1815  160.2317 H   0  0  0  0  0  0  0  0  0  0  0  0
  146.9905  145.7326  161.9130 H   0  0  0  0  0  0  0  0  0  0  0  0
  149.2516  145.6994  160.5957 H   0  0  0  0  0  0  0  0  0  0  0  0
  150.1757  142.9791  160.6778 H   0  0  0  0  0  0  0  0  0  0  0  0
  150.0885  143.5681  159.0389 H   0  0  0  0  0  0  0  0  0  0  0  0
  151.5439  145.1802  161.1937 H   0  0  0  0  0  0  0  0  0  0  0  0
  151.0048  146.0474  158.6630 H   0  0  0  0  0  0  0  0  0  0  0  0
  152.5572  146.3398  159.4305 H   0  0  0  0  0  0  0  0  0  0  0  0
  151.9522  144.3738  157.2620 H   0  0  0  0  0  0  0  0  0  0  0  0
  153.4875  145.1366  157.6854 H   0  0  0  0  0  0  0  0  0  0  0  0
  153.6656  144.2838  160.5400 H   0  0  0  0  0  0  0  0  0  0  0  0
  151.7921  141.8936  160.8034 H   0  0  0  0  0  0  0  0  0  0  0  0
  153.7770  143.1236  162.7849 H   0  0  0  0  0  0  0  0  0  0  0  0
  152.7821  141.7005  163.0778 H   0  0  0  0  0  0  0  0  0  0  0  0
  152.0259  143.2716  162.8827 H   0  0  0  0  0  0  0  0  0  0  0  0
  154.8421  141.8603  160.7282 H   0  0  0  0  0  0  0  0  0  0  0  0
  153.7704  141.1840  159.5047 H   0  0  0  0  0  0  0  0  0  0  0  0
  153.8073  140.4895  161.1179 H   0  0  0  0  0  0  0  0  0  0  0  0
  144.7410  145.6694  159.0594 H   0  0  0  0  0  0  0  0  0  0  0  0
  1  2  1  0  0  0  0
  1 21  1  0  0  0  0
  1 22  1  0  0  0  0
  1 23  1  0  0  0  0
  2 20  1  0  0  0  0
  2  3  2  0  0  0  0
  3  4  1  0  0  0  0
  3 24  1  0  0  0  0
  4  5  2  0  0  0  0
  4 25  1  0  0  0  0
  5  6  1  0  0  0  0
  5 19  1  0  0  0  0
  6  7  1  0  0  0  0
  6 26  1  0  0  0  0
  6 27  1  0  0  0  0
  7  8  2  0  0  0  0
  7  9  1  0  0  0  0
  9 10  1  0  0  0  0
  9 28  1  0  0  0  0
 10 11  1  0  0  0  0
 10 29  1  0  0  0  0
 10 30  1  0  0  0  0
 11 15  1  0  0  0  0
 11 12  1  0  0  0  0
 11 31  1  0  0  0  0
 12 13  1  0  0  0  0
 12 32  1  0  0  0  0
 12 33  1  0  0  0  0
 13 14  1  0  0  0  0
 13 34  1  0  0  0  0
 13 35  1  0  0  0  0
 14 15  1  0  0  0  0
 15 16  1  0  0  0  0
 15 36  1  0  0  0  0
 16 17  1  0  0  0  0
 16 18  1  0  0  0  0
 16 37  1  0  0  0  0
 17 38  1  0  0  0  0
 17 39  1  0  0  0  0
 17 40  1  0  0  0  0
 18 41  1  0  0  0  0
 18 42  1  0  0  0  0
 18 43  1  0  0  0  0
 19 20  2  0  0  0  0
 19 44  1  0  0  0  0
M  END
> <s_m_source_file>
AV-unprocessed.smi

> <i_m_source_file_index>
653

> <i_lp_mmshare_version>
43012

> <i_f3d_flags>
0

> <s_epik_input>
W0NIM11jMVtjSF1bY0hdYyhbY0hdbjEpW0NIMl1DKD1PKVtOSF1bQ0gyXVtDQEBIXTJbQ0gyXVtDSDJdT1tDQEhdMltDSF0oW0NIM10pW0NIM10=

> <s_epik_cmdline>
J2VwaWtfcHl0aG9uJywgJy1waCcsICc3LjAnLCAnLXRuJywgJzgnLCAnLW1hJywgJzIwMCcsICctbWV0YWxfYmluZGluZycsICctaW1hZScsICc8aW5maWxlLm1hZT4nLCAnLW9tYWUnLCAnPG91dGZpbGUubWFlPic=

> <r_epik_Ionization_Penalty>
0.0166429

> <r_epik_Ionization_Penalty_Charging>
0

> <r_epik_Ionization_Penalty_Neutral>
0.0166429

> <r_epik_State_Penalty>
0.0131478

> <r_epik_Charging_Adjusted_Penalty>
0.0131478

> <i_epik_Tot_Q>
0

> <i_epik_Tot_abs_Q>
0

> <r_epik_Metal_State_Penalty>
0.012786

> <b_epik_Metal_Only>
0

> <s_lp_Force_Field>
OPLS_2005

> <r_lp_Energy>
20.8525

> <b_lp_Chiralities_Consistent>
1

> <s_lp_Variant>
AV-unprocessed.smi:653-3

> <Gold.Version>
5.8.1

> <Gold.Id.Protein>
6NUR|6NUR_protein|mol2

> <Gold.PLP.Fitness>
47.6094

> <Gold.PLP.PLP>
-45.2032

> <Gold.PLP.part.hbond>
-1.7994

> <Gold.PLP.part.metal>
0.0000

> <Gold.PLP.part.buried>
-4.3851

> <Gold.PLP.part.nonpolar>
-40.4885

> <Gold.PLP.part.repulsive>
0.2734

> <Gold.PLP.ligand.clash>
0.0000

> <Gold.PLP.ligand.torsion>
0.5617

> <Gold.PLP.Chemscore.Hbond>
1.1521

> <Gold.PLP.Chemscore.CHOScore>
0.0000

> <Gold.PLP.Chemscore.Metal>
0.0000

> <Gold.Chemscore.Hbonds>
donor molecule, donor type, donor heavy atom, donor atom, acceptor molecule, acceptor atom, score
      P1  H  6933  6944       L1     8  1.00
      P1  H  6934  6946       L1     8  0.15

> <Gold.PLP.Chemscore.Internal.Correction>
0.0732

> <Gold.Rescore>
     Score         DG    S(hbond)    S(metal)    S(lipo)     H(rot)  DE(clash)    DE(int)     intcor
     19.73     -20.61       1.02        0.00     132.81       1.48       0.23       0.65       ----

> <Gold.Chemscore.Fitness>
19.7349

> <Gold.Chemscore.DG>
-20.6081

> <Gold.Chemscore.ZeroCoef>
-5.4800

> <Gold.Chemscore.Hbond>
1.0153

> <Gold.Chemscore.Metal>
0.0000

> <Gold.Chemscore.Lipo>
132.8093

> <Gold.Chemscore.Internal_Hbond>
0.0000

> <Gold.Chemscore.DEClash>
0.2282

> <Gold.Chemscore.DEInternal>
0.6450

> <Gold.Chemscore.Rot>
1.4850

> <Gold.Chemscore.Internal.Correction>
   9.000000E+99

> <Gold.Chemscore.Hbonds>
donor molecule, donor type, donor heavy atom, donor atom, acceptor molecule, acceptor atom, score
      P1  H  6933  6944       L1     8  0.25
      P1  H  6934  6946       L1     8  0.15

> <Gold.Chemscore.Hbond.Weighted>
-3.3910

> <Gold.Chemscore.Metal.Weighted>
-0.0000

> <Gold.Chemscore.Lipo.Weighted>
-15.5387

> <Gold.Chemscore.Internal_Hbond.Weighted>
0.0000

> <Gold.Chemscore.DEClash.Weighted>
0.2282

> <Gold.Chemscore.DEInternal.Weighted>
0.6450

> <Gold.Chemscore.Rot.Weighted>
3.8015

> <Gold.Chemscore.Internal.Correction.Weighted>
   9.000000E+99

> <Gold.Protein.RotatedTorsions>
[ 6907 6896 6895 6894 ] final   63.87 input  -60.11 | X-H torsion
[ 7974 7965 7964 7962 ] final   58.07 input  175.53 | X-H torsion
[ 8008 7997 7996 7995 ] final  -45.47 input   59.86 | X-H torsion
[ 10167 10162 10161 10158 ] final   19.35 input  -65.29 | X-H torsion
[ 10718 10713 10712 10709 ] final -168.76 input   66.30 | X-H torsion
[ 10763 10752 10751 10750 ] final  100.19 input  -60.55 | X-H torsion
[ 11005 11000 10999 10996 ] final  104.63 input  -57.11 | X-H torsion

> <Gold.Protein.ActiveResidues>
 VAL166  LYS551  ARG553  GLY616  TRP617  ASP618  TYR619  PRO620  LYS621  CYS622 
 ASP623  PHE694  ASN695  SER759  ASP760  ASP761  ALA762  ILE779  LEU786  VAL792 
 PHE793  MET794  SER795  GLU796  ALA797  LYS798  CYS799  TRP800  GLU811  SER814 

> <Gold.Protein.RotatedAtoms>
  152.4287  134.5818  159.9949 H   0  0  0  0  0  0  0  0  0  0  0  0  # atno 6907 bound_to 6896
  151.5948  133.3357  159.3043 H   0  0  0  0  0  0  0  0  0  0  0  0  # atno 6908 bound_to 6896
  150.8179  134.7407  159.6811 H   0  0  0  0  0  0  0  0  0  0  0  0  # atno 6909 bound_to 6896
  145.9222  139.3738  143.0472 H   0  0  0  0  0  0  0  0  0  0  0  0  # atno 7974 bound_to 7965
  154.4001  140.1396  156.3852 H   0  0  0  0  0  0  0  0  0  0  0  0  # atno 8008 bound_to 7997
  155.7966  140.3477  155.5358 H   0  0  0  0  0  0  0  0  0  0  0  0  # atno 8009 bound_to 7997
  155.8526  140.0944  157.1655 H   0  0  0  0  0  0  0  0  0  0  0  0  # atno 8010 bound_to 7997
  140.5586  143.9379  150.6626 H   0  0  0  0  0  0  0  0  0  0  0  0  # atno 10167 bound_to 10162
  156.7016  130.9198  151.3080 H   0  0  0  0  0  0  0  0  0  0  0  0  # atno 10718 bound_to 10713
  153.3108  135.4087  155.1334 H   0  0  0  0  0  0  0  0  0  0  0  0  # atno 10763 bound_to 10752
  154.8575  135.3564  154.5726 H   0  0  0  0  0  0  0  0  0  0  0  0  # atno 10764 bound_to 10752
  153.6155  135.7066  153.5389 H   0  0  0  0  0  0  0  0  0  0  0  0  # atno 10765 bound_to 10752
  139.8794  134.9307  156.5391 H   0  0  0  0  0  0  0  0  0  0  0  0  # atno 11005 bound_to 11000
  145.8536  140.9515  143.0737 LP  0  0  0  0  0  0  0  0  0  0  0  0  # atno 17320 bound_to 7965
  144.6754  140.0438  143.7480 LP  0  0  0  0  0  0  0  0  0  0  0  0  # atno 17321 bound_to 7965
  140.2824  143.3380  152.1139 LP  0  0  0  0  0  0  0  0  0  0  0  0  # atno 17342 bound_to 10162
  139.5059  144.6804  151.6023 LP  0  0  0  0  0  0  0  0  0  0  0  0  # atno 17343 bound_to 10162
  157.6971  130.9293  150.0676 LP  0  0  0  0  0  0  0  0  0  0  0  0  # atno 17370 bound_to 10713
  156.1725  130.3647  149.9146 LP  0  0  0  0  0  0  0  0  0  0  0  0  # atno 17371 bound_to 10713
  140.8324  133.8269  155.8996 LP  0  0  0  0  0  0  0  0  0  0  0  0  # atno 17394 bound_to 11000
  140.9316  134.2014  157.4860 LP  0  0  0  0  0  0  0  0  0  0  0  0  # atno 17395 bound_to 11000

$$$$
