AV-unprocessed.smi:2975|AV-procd|sdf|11358|dock7
  -GOLD-   2272016273D 1   1.00000     0.00000
 Structure written by MMmdl.
 40 42  0  0  0  0  0  0  0  0  2 V2000
  152.0250  137.4910  156.2384 C   0  0  0  0  0  0  0  0  0  0  0  0
  151.8121  137.7083  154.7346 C   0  0  1  0  0  0  0  0  0  0  0  0
  151.5848  136.4538  154.1270 O   0  0  0  0  0  0  0  0  0  0  0  0
  150.6828  138.6616  154.4906 C   0  0  0  0  0  0  0  0  0  0  0  0
  149.6041  138.4203  153.6919 N   0  3  0  0  0  0  0  0  0  0  0  0
  148.7339  139.5094  153.7259 C   0  0  0  0  0  0  0  0  0  0  0  0
  147.5176  139.7233  153.0851 C   0  0  0  0  0  0  0  0  0  0  0  0
  146.8732  140.9506  153.3445 C   0  0  0  0  0  0  0  0  0  0  0  0
  147.4388  141.9072  154.2123 C   0  0  0  0  0  0  0  0  0  0  0  0
  148.6736  141.6789  154.8554 C   0  0  0  0  0  0  0  0  0  0  0  0
  149.3063  140.4641  154.5907 C   0  0  0  0  0  0  0  0  0  0  0  0
  150.5104  139.9031  155.0338 N   0  0  0  0  0  0  0  0  0  0  0  0
  151.3517  140.6662  155.9675 C   0  0  0  0  0  0  0  0  0  0  0  0
  150.5873  141.0540  157.2385 C   0  0  0  0  0  0  0  0  0  0  0  0
  151.5149  141.1592  158.3087 O   0  0  0  0  0  0  0  0  0  0  0  0
  151.6994  142.3940  158.8944 C   0  0  0  0  0  0  0  0  0  0  0  0
  151.0944  143.5911  158.4331 C   0  0  0  0  0  0  0  0  0  0  0  0
  151.3328  144.8121  159.0939 C   0  0  0  0  0  0  0  0  0  0  0  0
  152.1774  144.8544  160.2181 C   0  0  0  0  0  0  0  0  0  0  0  0
  152.7850  143.6730  160.6811 C   0  0  0  0  0  0  0  0  0  0  0  0
  152.5464  142.4513  160.0222 C   0  0  0  0  0  0  0  0  0  0  0  0
  153.1370  141.3211  160.4792 F   0  0  0  0  0  0  0  0  0  0  0  0
  152.2471  138.4310  156.7439 H   0  0  0  0  0  0  0  0  0  0  0  0
  152.8593  136.8139  156.4241 H   0  0  0  0  0  0  0  0  0  0  0  0
  151.1388  137.0636  156.7088 H   0  0  0  0  0  0  0  0  0  0  0  0
  152.7265  138.1135  154.3028 H   0  0  0  0  0  0  0  0  0  0  0  0
  151.3826  136.5938  153.2144 H   0  0  0  0  0  0  0  0  0  0  0  0
  147.0812  138.9901  152.4225 H   0  0  0  0  0  0  0  0  0  0  0  0
  145.9257  141.1617  152.8699 H   0  0  0  0  0  0  0  0  0  0  0  0
  146.9148  142.8353  154.3892 H   0  0  0  0  0  0  0  0  0  0  0  0
  149.0947  142.4183  155.5201 H   0  0  0  0  0  0  0  0  0  0  0  0
  152.2193  140.0569  156.2190 H   0  0  0  0  0  0  0  0  0  0  0  0
  151.7406  141.5490  155.4597 H   0  0  0  0  0  0  0  0  0  0  0  0
  150.0750  142.0058  157.0892 H   0  0  0  0  0  0  0  0  0  0  0  0
  149.8386  140.2930  157.4625 H   0  0  0  0  0  0  0  0  0  0  0  0
  150.4418  143.6007  157.5734 H   0  0  0  0  0  0  0  0  0  0  0  0
  150.8659  145.7184  158.7369 H   0  0  0  0  0  0  0  0  0  0  0  0
  152.3597  145.7912  160.7239 H   0  0  0  0  0  0  0  0  0  0  0  0
  153.4345  143.7028  161.5434 H   0  0  0  0  0  0  0  0  0  0  0  0
  149.4767  137.5653  153.1657 H   0  0  0  0  0  0  0  0  0  0  0  0
  1  2  1  0  0  0  0
  1 23  1  0  0  0  0
  1 24  1  0  0  0  0
  1 25  1  0  0  0  0
  2  3  1  0  0  0  0
  2  4  1  0  0  0  0
  2 26  1  0  0  0  0
  3 27  1  0  0  0  0
  4 12  1  0  0  0  0
  4  5  2  0  0  0  0
  5  6  1  0  0  0  0
  5 40  1  0  0  0  0
  6 11  2  0  0  0  0
  6  7  1  0  0  0  0
  7  8  2  0  0  0  0
  7 28  1  0  0  0  0
  8  9  1  0  0  0  0
  8 29  1  0  0  0  0
  9 10  2  0  0  0  0
  9 30  1  0  0  0  0
 10 11  1  0  0  0  0
 10 31  1  0  0  0  0
 11 12  1  0  0  0  0
 12 13  1  0  0  0  0
 13 14  1  0  0  0  0
 13 32  1  0  0  0  0
 13 33  1  0  0  0  0
 14 15  1  0  0  0  0
 14 34  1  0  0  0  0
 14 35  1  0  0  0  0
 15 16  1  0  0  0  0
 16 21  1  0  0  0  0
 16 17  2  0  0  0  0
 17 18  1  0  0  0  0
 17 36  1  0  0  0  0
 18 19  2  0  0  0  0
 18 37  1  0  0  0  0
 19 20  1  0  0  0  0
 19 38  1  0  0  0  0
 20 21  2  0  0  0  0
 20 39  1  0  0  0  0
 21 22  1  0  0  0  0
M  CHG  1   5   1
M  END
> <s_m_source_file>
AV-unprocessed.smi

> <i_m_source_file_index>
2975

> <i_lp_mmshare_version>
43012

> <i_f3d_flags>
0

> <s_epik_input>
W2NIXTFbY0hdW2NIXVtjSF1jKGMxMiluKGMobjIpW0NASF0oW0NIM10pW09IXSlbQ0gyXVtDSDJdT2MzW2NIXVtjSF1bY0hdW2NIXWMzRg==

> <s_epik_cmdline>
J2VwaWtfcHl0aG9uJywgJy1waCcsICc3LjAnLCAnLXRuJywgJzgnLCAnLW1hJywgJzIwMCcsICctbWV0YWxfYmluZGluZycsICctaW1hZScsICc8aW5maWxlLm1hZT4nLCAnLW9tYWUnLCAnPG91dGZpbGUubWFlPic=

> <r_lp_tautomer_probability>
1

> <r_epik_Ionization_Penalty>
1.61121

> <r_epik_Ionization_Penalty_Charging>
1.61119

> <r_epik_Ionization_Penalty_Neutral>
2.92192e-05

> <r_epik_State_Penalty>
1.71016

> <r_epik_Charging_Adjusted_Penalty>
3.32134

> <i_epik_Tot_Q>
1

> <i_epik_Tot_abs_Q>
1

> <r_epik_Metal_State_Penalty>
5.76893

> <b_epik_Metal_Only>
0

> <s_lp_Force_Field>
OPLS_2005

> <r_lp_Energy>
20.882

> <b_lp_Chiralities_Consistent>
1

> <s_lp_Variant>
AV-unprocessed.smi:2975-4

> <Gold.Version>
5.8.1

> <Gold.Id.Protein>
6NUR|6NUR_protein|mol2

> <Gold.PLP.Fitness>
63.8711

> <Gold.PLP.PLP>
-53.1814

> <Gold.PLP.part.hbond>
-4.0000

> <Gold.PLP.part.metal>
0.0000

> <Gold.PLP.part.buried>
0.1758

> <Gold.PLP.part.nonpolar>
-49.7893

> <Gold.PLP.part.repulsive>
0.0701

> <Gold.PLP.ligand.clash>
0.0000

> <Gold.PLP.ligand.torsion>
0.6684

> <Gold.PLP.Chemscore.Hbond>
4.0000

> <Gold.PLP.Chemscore.CHOScore>
0.0000

> <Gold.PLP.Chemscore.Metal>
0.0000

> <Gold.Chemscore.Hbonds>
donor molecule, donor type, donor heavy atom, donor atom, acceptor molecule, acceptor atom, score
      L1  H     3    27       P1  7949  1.00
      L1  H     5    40       P1  7948  2.00
      P1  H 10752 10763       L1     3  1.00

> <Gold.PLP.Chemscore.Internal.Correction>
0.0266

> <Gold.Rescore>
     Score         DG    S(hbond)    S(metal)    S(lipo)     H(rot)  DE(clash)    DE(int)     intcor
     21.59     -23.89       2.56        0.00     134.11       2.28       1.70       0.60       ----

> <Gold.Chemscore.Fitness>
21.5912

> <Gold.Chemscore.DG>
-23.8904

> <Gold.Chemscore.ZeroCoef>
-5.4800

> <Gold.Chemscore.Hbond>
2.5597

> <Gold.Chemscore.Metal>
0.0000

> <Gold.Chemscore.Lipo>
134.1146

> <Gold.Chemscore.Internal_Hbond>
0.0000

> <Gold.Chemscore.DEClash>
1.6981

> <Gold.Chemscore.DEInternal>
0.6012

> <Gold.Chemscore.Rot>
2.2774

> <Gold.Chemscore.Internal.Correction>
   9.000000E+99

> <Gold.Chemscore.Hbonds>
donor molecule, donor type, donor heavy atom, donor atom, acceptor molecule, acceptor atom, score
      L1  H     3    27       P1  7949  0.75
      L1  H     5    40       P1  7948  0.90
      P1  H 10752 10763       L1     3  0.40

> <Gold.Chemscore.Hbond.Weighted>
-8.5492

> <Gold.Chemscore.Metal.Weighted>
-0.0000

> <Gold.Chemscore.Lipo.Weighted>
-15.6914

> <Gold.Chemscore.Internal_Hbond.Weighted>
0.0000

> <Gold.Chemscore.DEClash.Weighted>
1.6981

> <Gold.Chemscore.DEInternal.Weighted>
0.6012

> <Gold.Chemscore.Rot.Weighted>
5.8302

> <Gold.Chemscore.Internal.Correction.Weighted>
   9.000000E+99

> <Gold.Protein.RotatedTorsions>
[ 6907 6896 6895 6894 ] final  -78.11 input  -60.11 | X-H torsion
[ 7974 7965 7964 7962 ] final   16.88 input  175.53 | X-H torsion
[ 8008 7997 7996 7995 ] final -172.61 input   59.86 | X-H torsion
[ 10167 10162 10161 10158 ] final   73.93 input  -65.29 | X-H torsion
[ 10718 10713 10712 10709 ] final -108.88 input   66.30 | X-H torsion
[ 10763 10752 10751 10750 ] final   40.16 input  -60.55 | X-H torsion
[ 11005 11000 10999 10996 ] final  177.96 input  -57.11 | X-H torsion

> <Gold.Protein.ActiveResidues>
 VAL166  LYS551  ARG553  GLY616  TRP617  ASP618  TYR619  PRO620  LYS621  CYS622 
 ASP623  PHE694  ASN695  SER759  ASP760  ASP761  ALA762  ILE779  LEU786  VAL792 
 PHE793  MET794  SER795  GLU796  ALA797  LYS798  CYS799  TRP800  GLU811  SER814 

> <Gold.Protein.RotatedAtoms>
  150.6981  134.4321  159.5252 H   0  0  0  0  0  0  0  0  0  0  0  0  # atno 6907 bound_to 6896
  152.2046  134.8554  160.0513 H   0  0  0  0  0  0  0  0  0  0  0  0  # atno 6908 bound_to 6896
  151.9462  133.3617  159.4020 H   0  0  0  0  0  0  0  0  0  0  0  0  # atno 6909 bound_to 6896
  146.2236  139.8683  142.8592 H   0  0  0  0  0  0  0  0  0  0  0  0  # atno 7974 bound_to 7965
  155.9467  140.1119  157.1010 H   0  0  0  0  0  0  0  0  0  0  0  0  # atno 8008 bound_to 7997
  154.4101  140.1208  156.5065 H   0  0  0  0  0  0  0  0  0  0  0  0  # atno 8009 bound_to 7997
  155.6893  140.3472  155.4889 H   0  0  0  0  0  0  0  0  0  0  0  0  # atno 8010 bound_to 7997
  140.0192  144.5554  150.7596 H   0  0  0  0  0  0  0  0  0  0  0  0  # atno 10167 bound_to 10162
  156.0508  130.5735  150.8023 H   0  0  0  0  0  0  0  0  0  0  0  0  # atno 10718 bound_to 10713
  152.9945  135.6199  154.2581 H   0  0  0  0  0  0  0  0  0  0  0  0  # atno 10763 bound_to 10752
  154.2318  135.2792  155.2889 H   0  0  0  0  0  0  0  0  0  0  0  0  # atno 10764 bound_to 10752
  154.5443  135.5752  153.6924 H   0  0  0  0  0  0  0  0  0  0  0  0  # atno 10765 bound_to 10752
  140.3898  134.6872  157.4501 H   0  0  0  0  0  0  0  0  0  0  0  0  # atno 11005 bound_to 11000
  145.2634  141.0085  143.3813 LP  0  0  0  0  0  0  0  0  0  0  0  0  # atno 17320 bound_to 7965
  144.9280  139.4332  143.6509 LP  0  0  0  0  0  0  0  0  0  0  0  0  # atno 17321 bound_to 7965
  140.7350  143.2735  151.3814 LP  0  0  0  0  0  0  0  0  0  0  0  0  # atno 17342 bound_to 10162
  139.6152  144.1018  152.2338 LP  0  0  0  0  0  0  0  0  0  0  0  0  # atno 17343 bound_to 10162
  157.5432  131.0941  150.9798 LP  0  0  0  0  0  0  0  0  0  0  0  0  # atno 17370 bound_to 10713
  157.0076  130.5624  149.5317 LP  0  0  0  0  0  0  0  0  0  0  0  0  # atno 17371 bound_to 10713
  140.0415  134.6260  155.8975 LP  0  0  0  0  0  0  0  0  0  0  0  0  # atno 17394 bound_to 11000
  141.1895  133.6565  156.5369 LP  0  0  0  0  0  0  0  0  0  0  0  0  # atno 17395 bound_to 11000

$$$$
