AV-unprocessed.smi:2655|AV-procd|sdf|10299|dock8
  -GOLD-   2272014313D 1   1.00000     0.00000
 Structure written by MMmdl.
 34 35  0  0  0  0  0  0  0  0  1 V2000
  146.1646  142.4558  154.1524 C   0  0  0  0  0  0  0  0  0  0  0  0
  147.5265  141.8443  154.4019 C   0  0  0  0  0  0  0  0  0  0  0  0
  148.4029  142.3887  155.2950 N   0  0  0  0  0  0  0  0  0  0  0  0
  149.5555  141.6448  155.2852 N   0  0  0  0  0  0  0  0  0  0  0  0
  149.4332  140.6285  154.4153 C   0  0  0  0  0  0  0  0  0  0  0  0
  150.2860  139.7760  154.1765 O   0  0  0  0  0  0  0  0  0  0  0  0
  148.1018  140.7745  153.8377 C   0  0  0  0  0  0  0  0  0  0  0  0
  147.5201  139.8401  152.7945 C   0  0  0  0  0  0  0  0  0  0  0  0
  146.0547  139.4850  153.0929 C   0  0  0  0  0  0  0  0  0  0  0  0
  145.5444  138.4889  152.1589 N   0  0  0  0  0  0  0  0  0  0  0  0
  145.6558  137.1617  152.3148 C   0  0  0  0  0  0  0  0  0  0  0  0
  146.2127  136.6375  153.2796 O   0  0  0  0  0  0  0  0  0  0  0  0
  145.0864  136.5027  151.2915 N   0  0  0  0  0  0  0  0  0  0  0  0
  144.9797  135.1016  151.0947 C   0  0  0  0  0  0  0  0  0  0  0  0
  146.0475  134.2073  150.7918 C   0  0  0  0  0  0  0  0  0  0  0  0
  145.4189  132.9973  150.7066 C   0  0  0  0  0  0  0  0  0  0  0  0
  145.9077  131.6190  150.4200 C   0  0  0  0  0  0  0  0  0  0  0  0
  144.0856  133.1385  150.9348 O   0  0  0  0  0  0  0  0  0  0  0  0
  143.8131  134.4892  151.1815 N   0  0  0  0  0  0  0  0  0  0  0  0
  146.0563  142.7140  153.0986 H   0  0  0  0  0  0  0  0  0  0  0  0
  146.0250  143.3610  154.7443 H   0  0  0  0  0  0  0  0  0  0  0  0
  145.3788  141.7473  154.4154 H   0  0  0  0  0  0  0  0  0  0  0  0
  150.3249  141.8974  155.8885 H   0  0  0  0  0  0  0  0  0  0  0  0
  148.1254  138.9335  152.7629 H   0  0  0  0  0  0  0  0  0  0  0  0
  147.6077  140.3035  151.8110 H   0  0  0  0  0  0  0  0  0  0  0  0
  145.9506  139.1251  154.1182 H   0  0  0  0  0  0  0  0  0  0  0  0
  145.4303  140.3754  153.0127 H   0  0  0  0  0  0  0  0  0  0  0  0
  145.0718  138.8360  151.3370 H   0  0  0  0  0  0  0  0  0  0  0  0
  144.6686  137.0716  150.5701 H   0  0  0  0  0  0  0  0  0  0  0  0
  147.1006  134.4018  150.6566 H   0  0  0  0  0  0  0  0  0  0  0  0
  146.9950  131.5707  150.4821 H   0  0  0  0  0  0  0  0  0  0  0  0
  145.6114  131.3052  149.4192 H   0  0  0  0  0  0  0  0  0  0  0  0
  145.4968  130.9053  151.1344 H   0  0  0  0  0  0  0  0  0  0  0  0
  148.3081  143.2478  155.8177 H   0  0  0  0  0  0  0  0  0  0  0  0
  1 20  1  0  0  0  0
  1 21  1  0  0  0  0
  1 22  1  0  0  0  0
  1  2  1  0  0  0  0
  2  7  2  0  0  0  0
  2  3  1  0  0  0  0
  3  4  1  0  0  0  0
  3 34  1  0  0  0  0
  4 23  1  0  0  0  0
  4  5  1  0  0  0  0
  5  7  1  0  0  0  0
  5  6  2  0  0  0  0
  7  8  1  0  0  0  0
  8  9  1  0  0  0  0
  8 24  1  0  0  0  0
  8 25  1  0  0  0  0
  9 10  1  0  0  0  0
  9 26  1  0  0  0  0
  9 27  1  0  0  0  0
 10 11  1  0  0  0  0
 10 28  1  0  0  0  0
 11 12  2  0  0  0  0
 11 13  1  0  0  0  0
 13 14  1  0  0  0  0
 13 29  1  0  0  0  0
 14 19  2  0  0  0  0
 14 15  1  0  0  0  0
 15 16  2  0  0  0  0
 15 30  1  0  0  0  0
 16 17  1  0  0  0  0
 16 18  1  0  0  0  0
 17 31  1  0  0  0  0
 17 32  1  0  0  0  0
 17 33  1  0  0  0  0
 18 19  1  0  0  0  0
M  END
> <s_m_source_file>
AV-unprocessed.smi

> <i_m_source_file_index>
2655

> <i_lp_mmshare_version>
43012

> <i_f3d_flags>
0

> <s_epik_input>
W0NIM11DMT1OW05IXUMoPU8pW0NASF0xW0NIMl1bQ0gyXVtOSF1DKD1PKVtOSF1jMltjSF1jKFtDSDNdKW9uMg==

> <s_epik_cmdline>
J2VwaWtfcHl0aG9uJywgJy1waCcsICc3LjAnLCAnLXRuJywgJzgnLCAnLW1hJywgJzIwMCcsICctbWV0YWxfYmluZGluZycsICctaW1hZScsICc8aW5maWxlLm1hZT4nLCAnLW9tYWUnLCAnPG91dGZpbGUubWFlPic=

> <r_lp_tautomer_probability>
0.00220696

> <r_epik_Ionization_Penalty>
0.0273702

> <r_epik_Ionization_Penalty_Charging>
8.84748e-06

> <r_epik_Ionization_Penalty_Neutral>
0.0273613

> <r_epik_State_Penalty>
0.626781

> <r_epik_Charging_Adjusted_Penalty>
0.626789

> <i_epik_Tot_Q>
0

> <i_epik_Tot_abs_Q>
0

> <r_epik_Metal_State_Penalty>
2.03048

> <b_epik_Metal_Only>
0

> <s_lp_Force_Field>
OPLS_2005

> <r_lp_Energy>
17.132

> <b_lp_Chiralities_Consistent>
1

> <s_lp_Variant>
AV-unprocessed.smi:2655-2

> <Gold.Version>
5.8.1

> <Gold.Id.Protein>
6NUR|6NUR_protein|mol2

> <Gold.PLP.Fitness>
38.9860

> <Gold.PLP.PLP>
-29.9354

> <Gold.PLP.part.hbond>
-5.0966

> <Gold.PLP.part.metal>
0.0000

> <Gold.PLP.part.buried>
2.6597

> <Gold.PLP.part.nonpolar>
-28.2779

> <Gold.PLP.part.repulsive>
1.3974

> <Gold.PLP.ligand.clash>
0.0000

> <Gold.PLP.ligand.torsion>
1.0834

> <Gold.PLP.Chemscore.Hbond>
3.7360

> <Gold.PLP.Chemscore.CHOScore>
0.0000

> <Gold.PLP.Chemscore.Metal>
0.0000

> <Gold.Chemscore.Hbonds>
donor molecule, donor type, donor heavy atom, donor atom, acceptor molecule, acceptor atom, score
      L1  H     3    34       P1  8028  0.70
      L1  H    10    28       P1 10171  1.00
      L1  H    13    29       P1 10171  1.00
      P1  H  7989  7998       L1     6  0.95

> <Gold.PLP.Chemscore.Internal.Correction>
0.0094

> <Gold.Rescore>
     Score         DG    S(hbond)    S(metal)    S(lipo)     H(rot)  DE(clash)    DE(int)     intcor
     13.01     -17.20       2.93        0.00      57.85       1.89       3.09       1.09       ----

> <Gold.Chemscore.Fitness>
13.0129

> <Gold.Chemscore.DG>
-17.1988

> <Gold.Chemscore.ZeroCoef>
-5.4800

> <Gold.Chemscore.Hbond>
2.9330

> <Gold.Chemscore.Metal>
0.0000

> <Gold.Chemscore.Lipo>
57.8499

> <Gold.Chemscore.Internal_Hbond>
0.0000

> <Gold.Chemscore.DEClash>
3.0920

> <Gold.Chemscore.DEInternal>
1.0939

> <Gold.Chemscore.Rot>
1.8929

> <Gold.Chemscore.Internal.Correction>
   9.000000E+99

> <Gold.Chemscore.Hbonds>
donor molecule, donor type, donor heavy atom, donor atom, acceptor molecule, acceptor atom, score
      L1  H     3    34       P1  8028  0.60
      L1  H    10    28       P1 10171  0.96
      L1  H    13    29       P1 10171  0.99
      P1  H  7989  7998       L1     6  0.21

> <Gold.Chemscore.Hbond.Weighted>
-9.7961

> <Gold.Chemscore.Metal.Weighted>
-0.0000

> <Gold.Chemscore.Lipo.Weighted>
-6.7684

> <Gold.Chemscore.Internal_Hbond.Weighted>
0.0000

> <Gold.Chemscore.DEClash.Weighted>
3.0920

> <Gold.Chemscore.DEInternal.Weighted>
1.0939

> <Gold.Chemscore.Rot.Weighted>
4.8457

> <Gold.Chemscore.Internal.Correction.Weighted>
   9.000000E+99

> <Gold.Protein.RotatedTorsions>
[ 6907 6896 6895 6894 ] final  -47.83 input  -60.11 | X-H torsion
[ 7974 7965 7964 7962 ] final  -85.86 input  175.53 | X-H torsion
[ 8008 7997 7996 7995 ] final -171.82 input   59.86 | X-H torsion
[ 10167 10162 10161 10158 ] final  -45.40 input  -65.29 | X-H torsion
[ 10718 10713 10712 10709 ] final  129.06 input   66.30 | X-H torsion
[ 10763 10752 10751 10750 ] final   42.00 input  -60.55 | X-H torsion
[ 11005 11000 10999 10996 ] final  153.50 input  -57.11 | X-H torsion

> <Gold.Protein.ActiveResidues>
 VAL166  LYS551  ARG553  GLY616  TRP617  ASP618  TYR619  PRO620  LYS621  CYS622 
 ASP623  PHE694  ASN695  SER759  ASP760  ASP761  ALA762  ILE779  LEU786  VAL792 
 PHE793  MET794  SER795  GLU796  ALA797  LYS798  CYS799  TRP800  GLU811  SER814 

> <Gold.Protein.RotatedAtoms>
  150.8967  134.8376  159.7331 H   0  0  0  0  0  0  0  0  0  0  0  0  # atno 6907 bound_to 6896
  152.4869  134.4564  159.9601 H   0  0  0  0  0  0  0  0  0  0  0  0  # atno 6908 bound_to 6896
  151.4621  133.3551  159.2846 H   0  0  0  0  0  0  0  0  0  0  0  0  # atno 6909 bound_to 6896
  145.4876  140.9554  143.1830 H   0  0  0  0  0  0  0  0  0  0  0  0  # atno 7974 bound_to 7965
  155.9366  140.1101  157.1090 H   0  0  0  0  0  0  0  0  0  0  0  0  # atno 8008 bound_to 7997
  154.4081  140.1227  156.4938 H   0  0  0  0  0  0  0  0  0  0  0  0  # atno 8009 bound_to 7997
  155.7014  140.3472  155.4937 H   0  0  0  0  0  0  0  0  0  0  0  0  # atno 8010 bound_to 7997
  140.6859  143.2881  151.3634 H   0  0  0  0  0  0  0  0  0  0  0  0  # atno 10167 bound_to 10162
  157.5188  131.1098  150.9184 H   0  0  0  0  0  0  0  0  0  0  0  0  # atno 10718 bound_to 10713
  152.9894  135.6145  154.2878 H   0  0  0  0  0  0  0  0  0  0  0  0  # atno 10763 bound_to 10752
  154.2605  135.2782  155.2782 H   0  0  0  0  0  0  0  0  0  0  0  0  # atno 10764 bound_to 10752
  154.5210  135.5815  153.6738 H   0  0  0  0  0  0  0  0  0  0  0  0  # atno 10765 bound_to 10752
  140.1403  134.8743  157.2322 H   0  0  0  0  0  0  0  0  0  0  0  0  # atno 11005 bound_to 11000
  144.7852  139.6441  143.7137 LP  0  0  0  0  0  0  0  0  0  0  0  0  # atno 17320 bound_to 7965
  146.2303  139.5802  142.9559 LP  0  0  0  0  0  0  0  0  0  0  0  0  # atno 17321 bound_to 7965
  139.6218  144.0893  152.2398 LP  0  0  0  0  0  0  0  0  0  0  0  0  # atno 17342 bound_to 10162
  140.0339  144.6059  150.7465 LP  0  0  0  0  0  0  0  0  0  0  0  0  # atno 17343 bound_to 10162
  156.9801  130.5524  149.5296 LP  0  0  0  0  0  0  0  0  0  0  0  0  # atno 17370 bound_to 10713
  156.0339  130.5428  150.8604 LP  0  0  0  0  0  0  0  0  0  0  0  0  # atno 17371 bound_to 10713
  140.2730  134.3438  155.7367 LP  0  0  0  0  0  0  0  0  0  0  0  0  # atno 17394 bound_to 11000
  141.2185  133.7434  156.9251 LP  0  0  0  0  0  0  0  0  0  0  0  0  # atno 17395 bound_to 11000

$$$$
