AV-unprocessed.smi:1047|AV-procd|sdf|4568|dock10
  -GOLD-   22720 3 23D 1   1.00000     0.00000
 Structure written by MMmdl.
 56 58  0  0  0  0  0  0  0  0  2 V2000
  143.1013  146.2987  156.4764 C   0  0  0  0  0  0  0  0  0  0  0  0
  144.1069  146.6082  155.3581 C   0  0  0  0  0  0  0  0  0  0  0  0
  144.7251  145.4341  154.7441 N   0  0  0  0  0  0  0  0  0  0  0  0
  145.5918  145.7810  153.6203 C   0  0  0  0  0  0  0  0  0  0  0  0
  146.2608  144.5387  153.0076 C   0  0  0  0  0  0  0  0  0  0  0  0
  146.9731  143.8301  154.0166 O   0  0  0  0  0  0  0  0  0  0  0  0
  146.1427  143.4215  155.1007 C   0  0  1  0  0  0  0  0  0  0  0  0
  147.0108  142.6584  156.1100 C   0  0  0  0  0  0  0  0  0  0  0  0
  148.3949  142.5146  155.6169 N   0  3  0  0  0  0  0  0  0  0  0  0
  149.3452  142.0190  156.6322 C   0  0  0  0  0  0  0  0  0  0  0  0
  150.7867  141.9678  156.0869 C   0  0  2  0  0  0  0  0  0  0  0  0
  150.8779  140.9498  155.1102 O   0  0  0  0  0  0  0  0  0  0  0  0
  151.8437  141.6616  157.1668 C   0  0  0  0  0  0  0  0  0  0  0  0
  151.7024  142.4988  158.3443 N   0  0  0  0  0  0  0  0  0  0  0  0
  151.1261  143.7143  158.4073 C   0  0  0  0  0  0  0  0  0  0  0  0
  151.0959  144.3127  159.5944 N   0  0  0  0  0  0  0  0  0  0  0  0
  151.7332  143.3800  160.3942 C   0  0  0  0  0  0  0  0  0  0  0  0
  152.0262  143.4034  161.7753 C   0  0  0  0  0  0  0  0  0  0  0  0
  152.6897  142.3200  162.3939 C   0  0  0  0  0  0  0  0  0  0  0  0
  152.9824  142.3864  163.8826 C   0  0  0  0  0  0  0  0  0  0  0  0
  153.0720  141.1895  161.6277 C   0  0  0  0  0  0  0  0  0  0  0  0
  153.7852  140.0138  162.2717 C   0  0  0  0  0  0  0  0  0  0  0  0
  152.7893  141.1508  160.2464 C   0  0  0  0  0  0  0  0  0  0  0  0
  152.1273  142.2347  159.6424 C   0  0  0  0  0  0  0  0  0  0  0  0
  145.4976  144.6761  155.7222 C   0  0  0  0  0  0  0  0  0  0  0  0
  142.7660  147.2192  156.9544 H   0  0  0  0  0  0  0  0  0  0  0  0
  143.5510  145.6713  157.2467 H   0  0  0  0  0  0  0  0  0  0  0  0
  142.2147  145.7894  156.0995 H   0  0  0  0  0  0  0  0  0  0  0  0
  143.6240  147.2178  154.5929 H   0  0  0  0  0  0  0  0  0  0  0  0
  144.8901  147.2332  155.7889 H   0  0  0  0  0  0  0  0  0  0  0  0
  145.0196  146.2870  152.8431 H   0  0  0  0  0  0  0  0  0  0  0  0
  146.3617  146.4810  153.9483 H   0  0  0  0  0  0  0  0  0  0  0  0
  145.5159  143.8843  152.5519 H   0  0  0  0  0  0  0  0  0  0  0  0
  146.9548  144.8315  152.2197 H   0  0  0  0  0  0  0  0  0  0  0  0
  145.3583  142.7601  154.7274 H   0  0  0  0  0  0  0  0  0  0  0  0
  147.0119  143.1715  157.0727 H   0  0  0  0  0  0  0  0  0  0  0  0
  146.5959  141.6632  156.2752 H   0  0  0  0  0  0  0  0  0  0  0  0
  148.3931  141.8717  154.8380 H   0  0  0  0  0  0  0  0  0  0  0  0
  149.2894  142.6919  157.4878 H   0  0  0  0  0  0  0  0  0  0  0  0
  149.0348  141.0331  156.9818 H   0  0  0  0  0  0  0  0  0  0  0  0
  151.0335  142.9181  155.6111 H   0  0  0  0  0  0  0  0  0  0  0  0
  150.7889  140.1093  155.5322 H   0  0  0  0  0  0  0  0  0  0  0  0
  151.7866  140.6164  157.4737 H   0  0  0  0  0  0  0  0  0  0  0  0
  152.8469  141.8111  156.7646 H   0  0  0  0  0  0  0  0  0  0  0  0
  150.7003  144.1846  157.5327 H   0  0  0  0  0  0  0  0  0  0  0  0
  151.7344  144.2642  162.3590 H   0  0  0  0  0  0  0  0  0  0  0  0
  154.0521  142.2858  164.0679 H   0  0  0  0  0  0  0  0  0  0  0  0
  152.4619  141.5864  164.4096 H   0  0  0  0  0  0  0  0  0  0  0  0
  152.6579  143.3355  164.3105 H   0  0  0  0  0  0  0  0  0  0  0  0
  153.9725  139.2180  161.5502 H   0  0  0  0  0  0  0  0  0  0  0  0
  153.1846  139.5971  163.0804 H   0  0  0  0  0  0  0  0  0  0  0  0
  154.7460  140.3281  162.6801 H   0  0  0  0  0  0  0  0  0  0  0  0
  153.0751  140.2957  159.6521 H   0  0  0  0  0  0  0  0  0  0  0  0
  146.2745  145.3110  156.1511 H   0  0  0  0  0  0  0  0  0  0  0  0
  144.8503  144.3764  156.5475 H   0  0  0  0  0  0  0  0  0  0  0  0
  148.7119  143.4170  155.2915 H   0  0  0  0  0  0  0  0  0  0  0  0
  1  2  1  0  0  0  0
  1 26  1  0  0  0  0
  1 27  1  0  0  0  0
  1 28  1  0  0  0  0
  2  3  1  0  0  0  0
  2 29  1  0  0  0  0
  2 30  1  0  0  0  0
  3 25  1  0  0  0  0
  3  4  1  0  0  0  0
  4  5  1  0  0  0  0
  4 31  1  0  0  0  0
  4 32  1  0  0  0  0
  5  6  1  0  0  0  0
  5 33  1  0  0  0  0
  5 34  1  0  0  0  0
  6  7  1  0  0  0  0
  7  8  1  0  0  0  0
  7 25  1  0  0  0  0
  7 35  1  0  0  0  0
  8  9  1  0  0  0  0
  8 36  1  0  0  0  0
  8 37  1  0  0  0  0
  9 10  1  0  0  0  0
  9 38  1  0  0  0  0
  9 56  1  0  0  0  0
 10 11  1  0  0  0  0
 10 39  1  0  0  0  0
 10 40  1  0  0  0  0
 11 12  1  0  0  0  0
 11 13  1  0  0  0  0
 11 41  1  0  0  0  0
 12 42  1  0  0  0  0
 13 14  1  0  0  0  0
 13 43  1  0  0  0  0
 13 44  1  0  0  0  0
 14 24  1  0  0  0  0
 14 15  1  0  0  0  0
 15 16  2  0  0  0  0
 15 45  1  0  0  0  0
 16 17  1  0  0  0  0
 17 24  2  0  0  0  0
 17 18  1  0  0  0  0
 18 19  2  0  0  0  0
 18 46  1  0  0  0  0
 19 20  1  0  0  0  0
 19 21  1  0  0  0  0
 20 47  1  0  0  0  0
 20 48  1  0  0  0  0
 20 49  1  0  0  0  0
 21 22  1  0  0  0  0
 21 23  2  0  0  0  0
 22 50  1  0  0  0  0
 22 51  1  0  0  0  0
 22 52  1  0  0  0  0
 23 24  1  0  0  0  0
 23 53  1  0  0  0  0
 25 54  1  0  0  0  0
 25 55  1  0  0  0  0
M  CHG  1   9   1
M  END
> <s_m_source_file>
AV-unprocessed.smi

> <i_m_source_file_index>
1047

> <i_lp_mmshare_version>
43012

> <i_f3d_flags>
0

> <s_epik_input>
W0NIM11bQ0gyXU4xW0NIMl1bQ0gyXU9bQ0BIXShbQ0gyXTEpW0NIMl1bTkhdW0NIMl1bQ0BIXShbT0hdKVtDSDJdbihbY0hdbjIpYyhjMjMpW2NIXWMoW0NIM10pYyhbY0hdMylbQ0gzXQ==

> <s_epik_cmdline>
J2VwaWtfcHl0aG9uJywgJy1waCcsICc3LjAnLCAnLXRuJywgJzgnLCAnLW1hJywgJzIwMCcsICctbWV0YWxfYmluZGluZycsICctaW1hZScsICc8aW5maWxlLm1hZT4nLCAnLW9tYWUnLCAnPG91dGZpbGUubWFlPic=

> <r_epik_Ionization_Penalty>
0.692425

> <r_epik_Ionization_Penalty_Charging>
0.0243549

> <r_epik_Ionization_Penalty_Neutral>
0.66807

> <r_epik_State_Penalty>
0.592789

> <r_epik_Charging_Adjusted_Penalty>
0.617144

> <i_epik_Tot_Q>
1

> <i_epik_Tot_abs_Q>
1

> <r_epik_Metal_State_Penalty>
0.508021

> <b_epik_Metal_Only>
0

> <s_lp_Force_Field>
OPLS_2005

> <r_lp_Energy>
31.7658

> <b_lp_Chiralities_Consistent>
1

> <s_lp_Variant>
AV-unprocessed.smi:1047-9

> <Gold.Version>
5.8.1

> <Gold.Id.Protein>
6NUR|6NUR_protein|mol2

> <Gold.PLP.Fitness>
61.6898

> <Gold.PLP.PLP>
-52.3543

> <Gold.PLP.part.hbond>
-2.0000

> <Gold.PLP.part.metal>
0.0000

> <Gold.PLP.part.buried>
-8.4695

> <Gold.PLP.part.nonpolar>
-41.4036

> <Gold.PLP.part.repulsive>
0.4679

> <Gold.PLP.ligand.clash>
0.0000

> <Gold.PLP.ligand.torsion>
1.2196

> <Gold.PLP.Chemscore.Hbond>
2.8640

> <Gold.PLP.Chemscore.CHOScore>
1.0000

> <Gold.PLP.Chemscore.Metal>
0.0000

> <Gold.Chemscore.Hbonds>
donor molecule, donor type, donor heavy atom, donor atom, acceptor molecule, acceptor atom, score
      L1  H     9    56       P1  8028  0.99
      P1  H  7989  7998       L1    12  0.74
      P1  H  8022  8030       L1     6  0.12
      L1  C    15    45       P1  8028  0.74

> <Gold.PLP.Chemscore.Internal.Correction>
0.1827

> <Gold.Rescore>
     Score         DG    S(hbond)    S(metal)    S(lipo)     H(rot)  DE(clash)    DE(int)     intcor
     17.55     -20.04       1.72        0.00     132.48       2.60       1.54       0.95       ----

> <Gold.Chemscore.Fitness>
17.5504

> <Gold.Chemscore.DG>
-20.0409

> <Gold.Chemscore.ZeroCoef>
-5.4800

> <Gold.Chemscore.Hbond>
1.7153

> <Gold.Chemscore.Metal>
0.0000

> <Gold.Chemscore.Lipo>
132.4809

> <Gold.Chemscore.Internal_Hbond>
0.0000

> <Gold.Chemscore.DEClash>
1.5390

> <Gold.Chemscore.DEInternal>
0.9515

> <Gold.Chemscore.Rot>
2.6049

> <Gold.Chemscore.Internal.Correction>
   9.000000E+99

> <Gold.Chemscore.Hbonds>
donor molecule, donor type, donor heavy atom, donor atom, acceptor molecule, acceptor atom, score
      L1  H     9    56       P1  8028  0.47
      P1  H  7989  7998       L1    12  0.67
      P1  H  8022  8030       L1     6  0.01

> <Gold.Chemscore.Hbond.Weighted>
-5.7291

> <Gold.Chemscore.Metal.Weighted>
-0.0000

> <Gold.Chemscore.Lipo.Weighted>
-15.5003

> <Gold.Chemscore.Internal_Hbond.Weighted>
0.0000

> <Gold.Chemscore.DEClash.Weighted>
1.5390

> <Gold.Chemscore.DEInternal.Weighted>
0.9515

> <Gold.Chemscore.Rot.Weighted>
6.6685

> <Gold.Chemscore.Internal.Correction.Weighted>
   9.000000E+99

> <Gold.Protein.RotatedTorsions>
[ 6907 6896 6895 6894 ] final  -28.56 input  -60.11 | X-H torsion
[ 7974 7965 7964 7962 ] final -123.87 input  175.53 | X-H torsion
[ 8008 7997 7996 7995 ] final  -29.16 input   59.86 | X-H torsion
[ 10167 10162 10161 10158 ] final -113.21 input  -65.29 | X-H torsion
[ 10718 10713 10712 10709 ] final  -81.10 input   66.30 | X-H torsion
[ 10763 10752 10751 10750 ] final   37.24 input  -60.55 | X-H torsion
[ 11005 11000 10999 10996 ] final   13.13 input  -57.11 | X-H torsion

> <Gold.Protein.ActiveResidues>
 VAL166  LYS551  ARG553  GLY616  TRP617  ASP618  TYR619  PRO620  LYS621  CYS622 
 ASP623  PHE694  ASN695  SER759  ASP760  ASP761  ALA762  ILE779  LEU786  VAL792 
 PHE793  MET794  SER795  GLU796  ALA797  LYS798  CYS799  TRP800  GLU811  SER814 

> <Gold.Protein.RotatedAtoms>
  151.1313  135.0131  159.8583 H   0  0  0  0  0  0  0  0  0  0  0  0  # atno 6907 bound_to 6896
  152.5451  134.1607  159.8566 H   0  0  0  0  0  0  0  0  0  0  0  0  # atno 6908 bound_to 6896
  151.1674  133.4761  159.2627 H   0  0  0  0  0  0  0  0  0  0  0  0  # atno 6909 bound_to 6896
  145.0140  140.7931  143.4421 H   0  0  0  0  0  0  0  0  0  0  0  0  # atno 7974 bound_to 7965
  154.4301  140.1825  156.1205 H   0  0  0  0  0  0  0  0  0  0  0  0  # atno 8008 bound_to 7997
  156.0147  140.3347  155.6951 H   0  0  0  0  0  0  0  0  0  0  0  0  # atno 8009 bound_to 7997
  155.6061  140.0645  157.2710 H   0  0  0  0  0  0  0  0  0  0  0  0  # atno 8010 bound_to 7997
  140.1144  143.4499  152.1732 H   0  0  0  0  0  0  0  0  0  0  0  0  # atno 10167 bound_to 10162
  156.0057  130.4594  150.3902 H   0  0  0  0  0  0  0  0  0  0  0  0  # atno 10718 bound_to 10713
  153.0045  135.6283  154.2113 H   0  0  0  0  0  0  0  0  0  0  0  0  # atno 10763 bound_to 10752
  154.1856  135.2811  155.3040 H   0  0  0  0  0  0  0  0  0  0  0  0  # atno 10764 bound_to 10752
  154.5800  135.5650  153.7236 H   0  0  0  0  0  0  0  0  0  0  0  0  # atno 10765 bound_to 10752
  140.4841  134.0905  155.7757 H   0  0  0  0  0  0  0  0  0  0  0  0  # atno 11005 bound_to 11000
  145.1984  139.2264  143.5206 LP  0  0  0  0  0  0  0  0  0  0  0  0  # atno 17320 bound_to 7965
  146.3475  140.1796  142.8589 LP  0  0  0  0  0  0  0  0  0  0  0  0  # atno 17321 bound_to 7965
  139.5602  144.7400  151.4177 LP  0  0  0  0  0  0  0  0  0  0  0  0  # atno 17342 bound_to 10162
  140.6908  143.7867  150.7252 LP  0  0  0  0  0  0  0  0  0  0  0  0  # atno 17343 bound_to 10162
  157.1977  131.0430  151.2667 LP  0  0  0  0  0  0  0  0  0  0  0  0  # atno 17370 bound_to 10713
  157.4004  130.7330  149.6763 LP  0  0  0  0  0  0  0  0  0  0  0  0  # atno 17371 bound_to 10713
  141.1516  133.8958  157.2082 LP  0  0  0  0  0  0  0  0  0  0  0  0  # atno 17394 bound_to 11000
  139.9808  135.0099  156.9745 LP  0  0  0  0  0  0  0  0  0  0  0  0  # atno 17395 bound_to 11000

$$$$
