AV-unprocessed.smi:985|AV-procd|sdf|4318|dock9
  -GOLD-   22720 2223D 1   1.00000     0.00000
 Structure written by MMmdl.
 26 27  0  0  0  0  0  0  0  0  2 V2000
  146.7990  138.8125  152.7716 C   0  0  0  0  0  0  0  0  0  0  0  0
  145.9767  137.5719  152.6988 C   0  0  0  0  0  0  0  0  0  0  0  0
  145.6248  136.9009  151.6047 N   0  0  0  0  0  0  0  0  0  0  0  0
  144.9002  135.8806  152.1438 C   0  0  0  0  0  0  0  0  0  0  0  0
  144.2563  134.8104  151.3162 C   0  0  2  0  0  0  0  0  0  0  0  0
  144.7319  133.4007  151.7161 C   0  0  0  0  0  0  0  0  0  0  0  0
  144.0571  132.3374  150.8357 C   0  0  0  0  0  0  0  0  0  0  0  0
  144.2684  132.6425  149.3430 C   0  0  0  0  0  0  0  0  0  0  0  0
  143.7774  133.9979  149.0113 N   0  3  0  0  0  0  0  0  0  0  0  0
  144.4320  135.0620  149.8048 C   0  0  0  0  0  0  0  0  0  0  0  0
  144.7850  135.8904  153.4666 N   0  0  0  0  0  0  0  0  0  0  0  0
  145.5104  137.0284  153.8481 O   0  0  0  0  0  0  0  0  0  0  0  0
  147.0927  139.1340  151.7719 H   0  0  0  0  0  0  0  0  0  0  0  0
  147.6989  138.6303  153.3593 H   0  0  0  0  0  0  0  0  0  0  0  0
  146.2278  139.6122  153.2431 H   0  0  0  0  0  0  0  0  0  0  0  0
  143.1840  134.8493  151.5190 H   0  0  0  0  0  0  0  0  0  0  0  0
  145.8148  133.3269  151.6059 H   0  0  0  0  0  0  0  0  0  0  0  0
  144.5112  133.2098  152.7670 H   0  0  0  0  0  0  0  0  0  0  0  0
  144.4528  131.3500  151.0749 H   0  0  0  0  0  0  0  0  0  0  0  0
  142.9890  132.3038  151.0547 H   0  0  0  0  0  0  0  0  0  0  0  0
  145.3258  132.5683  149.0851 H   0  0  0  0  0  0  0  0  0  0  0  0
  143.7388  131.9130  148.7299 H   0  0  0  0  0  0  0  0  0  0  0  0
  143.9395  134.1744  148.0300 H   0  0  0  0  0  0  0  0  0  0  0  0
  144.0012  136.0243  149.5258 H   0  0  0  0  0  0  0  0  0  0  0  0
  145.4903  135.0980  149.5420 H   0  0  0  0  0  0  0  0  0  0  0  0
  142.7834  134.0302  149.1880 H   0  0  0  0  0  0  0  0  0  0  0  0
  1  2  1  0  0  0  0
  1 13  1  0  0  0  0
  1 14  1  0  0  0  0
  1 15  1  0  0  0  0
  2 12  1  0  0  0  0
  2  3  2  0  0  0  0
  3  4  1  0  0  0  0
  4  5  1  0  0  0  0
  4 11  2  0  0  0  0
  5 10  1  0  0  0  0
  5  6  1  0  0  0  0
  5 16  1  0  0  0  0
  6  7  1  0  0  0  0
  6 17  1  0  0  0  0
  6 18  1  0  0  0  0
  7  8  1  0  0  0  0
  7 19  1  0  0  0  0
  7 20  1  0  0  0  0
  8  9  1  0  0  0  0
  8 21  1  0  0  0  0
  8 22  1  0  0  0  0
  9 10  1  0  0  0  0
  9 23  1  0  0  0  0
  9 26  1  0  0  0  0
 10 24  1  0  0  0  0
 10 25  1  0  0  0  0
 11 12  1  0  0  0  0
M  CHG  1   9   1
M  END
> <s_m_source_file>
AV-unprocessed.smi

> <i_m_source_file_index>
985

> <i_lp_mmshare_version>
43012

> <i_f3d_flags>
0

> <s_epik_input>
W0NIM11jMW5jKG5vMSlbQ0BASF0yW0NIMl1bQ0gyXVtDSDJdW05IXVtDSDJdMg==

> <s_epik_cmdline>
J2VwaWtfcHl0aG9uJywgJy1waCcsICc3LjAnLCAnLXRuJywgJzgnLCAnLW1hJywgJzIwMCcsICctbWV0YWxfYmluZGluZycsICctaW1hZScsICc8aW5maWxlLm1hZT4nLCAnLW9tYWUnLCAnPG91dGZpbGUubWFlPic=

> <r_lp_tautomer_probability>
1

> <r_epik_Ionization_Penalty>
0.000532935

> <r_epik_Ionization_Penalty_Charging>
0.000532935

> <r_epik_Ionization_Penalty_Neutral>
3.88228e-13

> <r_epik_State_Penalty>
0.000332992

> <r_epik_Charging_Adjusted_Penalty>
0.000865928

> <i_epik_Tot_Q>
1

> <i_epik_Tot_abs_Q>
1

> <r_epik_Metal_State_Penalty>
-0

> <b_epik_Metal_Only>
0

> <s_lp_Force_Field>
OPLS_2005

> <r_lp_Energy>
6.62541

> <b_lp_Chiralities_Consistent>
1

> <s_lp_Variant>
AV-unprocessed.smi:985-1

> <Gold.Version>
5.8.1

> <Gold.Id.Protein>
6NUR|6NUR_protein|mol2

> <Gold.PLP.Fitness>
26.3076

> <Gold.PLP.PLP>
-20.0486

> <Gold.PLP.part.hbond>
-2.0000

> <Gold.PLP.part.metal>
0.0000

> <Gold.PLP.part.buried>
-2.1989

> <Gold.PLP.part.nonpolar>
-17.2923

> <Gold.PLP.part.repulsive>
1.2289

> <Gold.PLP.ligand.clash>
0.0000

> <Gold.PLP.ligand.torsion>
0.0232

> <Gold.PLP.Chemscore.Hbond>
2.0874

> <Gold.PLP.Chemscore.CHOScore>
0.0000

> <Gold.PLP.Chemscore.Metal>
0.0000

> <Gold.Chemscore.Hbonds>
donor molecule, donor type, donor heavy atom, donor atom, acceptor molecule, acceptor atom, score
      L1  H     9    23       P1  7921  0.09
      L1  H     9    26       P1 10186  2.00

> <Gold.PLP.Chemscore.Internal.Correction>
0.0432

> <Gold.Rescore>
     Score         DG    S(hbond)    S(metal)    S(lipo)     H(rot)  DE(clash)    DE(int)     intcor
     12.58     -12.61       1.54        0.00      38.79       1.00       0.01       0.02       ----

> <Gold.Chemscore.Fitness>
12.5788

> <Gold.Chemscore.DG>
-12.6150

> <Gold.Chemscore.ZeroCoef>
-5.4800

> <Gold.Chemscore.Hbond>
1.5440

> <Gold.Chemscore.Metal>
0.0000

> <Gold.Chemscore.Lipo>
38.7861

> <Gold.Chemscore.Internal_Hbond>
0.0000

> <Gold.Chemscore.DEClash>
0.0126

> <Gold.Chemscore.DEInternal>
0.0236

> <Gold.Chemscore.Rot>
1.0000

> <Gold.Chemscore.Internal.Correction>
   9.000000E+99

> <Gold.Chemscore.Hbonds>
donor molecule, donor type, donor heavy atom, donor atom, acceptor molecule, acceptor atom, score
      L1  H     9    23       P1  7921  0.09
      L1  H     9    26       P1 10186  1.00

> <Gold.Chemscore.Hbond.Weighted>
-5.1570

> <Gold.Chemscore.Metal.Weighted>
-0.0000

> <Gold.Chemscore.Lipo.Weighted>
-4.5380

> <Gold.Chemscore.Internal_Hbond.Weighted>
0.0000

> <Gold.Chemscore.DEClash.Weighted>
0.0126

> <Gold.Chemscore.DEInternal.Weighted>
0.0236

> <Gold.Chemscore.Rot.Weighted>
2.5600

> <Gold.Chemscore.Internal.Correction.Weighted>
   9.000000E+99

> <Gold.Protein.RotatedTorsions>
[ 6907 6896 6895 6894 ] final  136.17 input  -60.11 | X-H torsion
[ 7974 7965 7964 7962 ] final   83.07 input  175.53 | X-H torsion
[ 8008 7997 7996 7995 ] final  118.75 input   59.86 | X-H torsion
[ 10167 10162 10161 10158 ] final   63.15 input  -65.29 | X-H torsion
[ 10718 10713 10712 10709 ] final  -44.96 input   66.30 | X-H torsion
[ 10763 10752 10751 10750 ] final -104.50 input  -60.55 | X-H torsion
[ 11005 11000 10999 10996 ] final  -69.09 input  -57.11 | X-H torsion

> <Gold.Protein.ActiveResidues>
 VAL166  LYS551  ARG553  GLY616  TRP617  ASP618  TYR619  PRO620  LYS621  CYS622 
 ASP623  PHE694  ASN695  SER759  ASP760  ASP761  ALA762  ILE779  LEU786  VAL792 
 PHE793  MET794  SER795  GLU796  ALA797  LYS798  CYS799  TRP800  GLU811  SER814 

> <Gold.Protein.RotatedAtoms>
  152.2923  133.5573  159.5565 H   0  0  0  0  0  0  0  0  0  0  0  0  # atno 6907 bound_to 6896
  150.7241  134.0411  159.3775 H   0  0  0  0  0  0  0  0  0  0  0  0  # atno 6908 bound_to 6896
  151.8316  135.0620  160.0488 H   0  0  0  0  0  0  0  0  0  0  0  0  # atno 6909 bound_to 6896
  145.6167  139.2378  143.2161 H   0  0  0  0  0  0  0  0  0  0  0  0  # atno 7974 bound_to 7965
  156.2562  140.2868  156.0884 H   0  0  0  0  0  0  0  0  0  0  0  0  # atno 8008 bound_to 7997
  155.1490  140.0397  157.2834 H   0  0  0  0  0  0  0  0  0  0  0  0  # atno 8009 bound_to 7997
  154.6475  140.2537  155.7258 H   0  0  0  0  0  0  0  0  0  0  0  0  # atno 8010 bound_to 7997
  140.1362  144.4596  150.6836 H   0  0  0  0  0  0  0  0  0  0  0  0  # atno 10167 bound_to 10162
  156.2332  130.4174  149.8850 H   0  0  0  0  0  0  0  0  0  0  0  0  # atno 10718 bound_to 10713
  154.7883  135.4784  153.9994 H   0  0  0  0  0  0  0  0  0  0  0  0  # atno 10763 bound_to 10752
  153.1592  135.6805  153.8774 H   0  0  0  0  0  0  0  0  0  0  0  0  # atno 10764 bound_to 10752
  153.8394  135.3181  155.3403 H   0  0  0  0  0  0  0  0  0  0  0  0  # atno 10765 bound_to 10752
  141.1546  133.6756  156.6545 H   0  0  0  0  0  0  0  0  0  0  0  0  # atno 11005 bound_to 11000
  146.1463  140.6988  142.9343 LP  0  0  0  0  0  0  0  0  0  0  0  0  # atno 17320 bound_to 7965
  144.7247  140.4488  143.6981 LP  0  0  0  0  0  0  0  0  0  0  0  0  # atno 17321 bound_to 7965
  140.6788  143.2317  151.5439 LP  0  0  0  0  0  0  0  0  0  0  0  0  # atno 17342 bound_to 10162
  139.5495  144.2434  152.1504 LP  0  0  0  0  0  0  0  0  0  0  0  0  # atno 17343 bound_to 10162
  156.6457  130.8723  151.3522 LP  0  0  0  0  0  0  0  0  0  0  0  0  # atno 17370 bound_to 10713
  157.7142  130.9477  150.1196 LP  0  0  0  0  0  0  0  0  0  0  0  0  # atno 17371 bound_to 10713
  140.3294  134.7941  157.4315 LP  0  0  0  0  0  0  0  0  0  0  0  0  # atno 17394 bound_to 11000
  140.1029  134.5448  155.8336 LP  0  0  0  0  0  0  0  0  0  0  0  0  # atno 17395 bound_to 11000

$$$$
