AV-unprocessed.smi:2083|AV-procd|sdf|8508|dock1
  -GOLD-   2272011223D 1   1.00000     0.00000
 Structure written by MMmdl.
 44 45  0  0  0  0  0  0  0  0  3 V2000
  153.2997  142.5348  160.9649 C   0  0  0  0  0  0  0  0  0  0  0  0
  152.4441  142.2168  159.7871 C   0  0  0  0  0  0  0  0  0  0  0  0
  152.6526  141.4743  158.6592 C   0  0  0  0  0  0  0  0  0  0  0  0
  151.4205  141.5944  157.9629 C   0  0  0  0  0  0  0  0  0  0  0  0
  151.2290  140.9470  156.7136 N   0  0  0  0  0  0  0  0  0  0  0  0
  150.2692  141.1576  155.7940 C   0  0  0  0  0  0  0  0  0  0  0  0
  149.4154  142.0345  155.9728 O   0  0  0  0  0  0  0  0  0  0  0  0
  150.3840  140.3184  154.7282 N   0  5  0  0  0  0  0  0  0  0  0  0
  149.4531  139.2329  154.4196 C   0  0  0  0  0  0  0  0  0  0  0  0
  148.4699  139.6643  153.2996 C   0  0  2  0  0  0  0  0  0  0  0  0
  147.7910  141.0366  153.5398 C   0  0  0  0  0  0  0  0  0  0  0  0
  147.4882  138.5712  153.0150 N   0  3  2  0  0  0  0  0  0  0  0  0
  146.8253  138.7052  151.6905 C   0  0  0  0  0  0  0  0  0  0  0  0
  146.0616  137.4215  151.3268 C   0  0  0  0  0  0  0  0  0  0  0  0
  145.0509  137.0458  152.4203 C   0  0  0  0  0  0  0  0  0  0  0  0
  145.7225  136.9744  153.8048 C   0  0  1  0  0  0  0  0  0  0  0  0
  146.6027  135.7244  153.9806 C   0  0  0  0  0  0  0  0  0  0  0  0
  146.4972  138.2760  154.0932 C   0  0  0  0  0  0  0  0  0  0  0  0
  150.5393  142.3432  158.6096 N   0  0  0  0  0  0  0  0  0  0  0  0
  151.1909  142.7461  159.7813 O   0  0  0  0  0  0  0  0  0  0  0  0
  154.3147  142.1643  160.8205 H   0  0  0  0  0  0  0  0  0  0  0  0
  152.8977  142.0765  161.8685 H   0  0  0  0  0  0  0  0  0  0  0  0
  153.3525  143.6116  161.1251 H   0  0  0  0  0  0  0  0  0  0  0  0
  153.5434  140.9321  158.3792 H   0  0  0  0  0  0  0  0  0  0  0  0
  151.8952  140.2223  156.4922 H   0  0  0  0  0  0  0  0  0  0  0  0
  149.9783  138.3376  154.0824 H   0  0  0  0  0  0  0  0  0  0  0  0
  148.8855  138.9237  155.2977 H   0  0  0  0  0  0  0  0  0  0  0  0
  149.0821  139.7745  152.4028 H   0  0  0  0  0  0  0  0  0  0  0  0
  148.5207  141.8466  153.5925 H   0  0  0  0  0  0  0  0  0  0  0  0
  147.2096  141.0657  154.4630 H   0  0  0  0  0  0  0  0  0  0  0  0
  147.1160  141.2832  152.7202 H   0  0  0  0  0  0  0  0  0  0  0  0
  146.1484  139.5607  151.7038 H   0  0  0  0  0  0  0  0  0  0  0  0
  147.5672  138.8985  150.9149 H   0  0  0  0  0  0  0  0  0  0  0  0
  145.5459  137.5542  150.3753 H   0  0  0  0  0  0  0  0  0  0  0  0
  146.7686  136.6046  151.1777 H   0  0  0  0  0  0  0  0  0  0  0  0
  144.2594  137.7960  152.4443 H   0  0  0  0  0  0  0  0  0  0  0  0
  144.5660  136.0991  152.1795 H   0  0  0  0  0  0  0  0  0  0  0  0
  144.9269  136.8960  154.5470 H   0  0  0  0  0  0  0  0  0  0  0  0
  147.4481  135.7196  153.2925 H   0  0  0  0  0  0  0  0  0  0  0  0
  146.0286  134.8140  153.8075 H   0  0  0  0  0  0  0  0  0  0  0  0
  147.0047  135.6699  154.9927 H   0  0  0  0  0  0  0  0  0  0  0  0
  146.9897  138.1958  155.0629 H   0  0  0  0  0  0  0  0  0  0  0  0
  145.7891  139.1023  154.1723 H   0  0  0  0  0  0  0  0  0  0  0  0
  148.0616  137.7432  152.9356 H   0  0  0  0  0  0  0  0  0  0  0  0
  1  2  1  0  0  0  0
  1 21  1  0  0  0  0
  1 22  1  0  0  0  0
  1 23  1  0  0  0  0
  2 20  1  0  0  0  0
  2  3  2  0  0  0  0
  3  4  1  0  0  0  0
  3 24  1  0  0  0  0
  4  5  1  0  0  0  0
  4 19  2  0  0  0  0
  5  6  1  0  0  0  0
  5 25  1  0  0  0  0
  6  7  2  0  0  0  0
  6  8  1  0  0  0  0
  8  9  1  0  0  0  0
  9 10  1  0  0  0  0
  9 26  1  0  0  0  0
  9 27  1  0  0  0  0
 10 11  1  0  0  0  0
 10 12  1  0  0  0  0
 10 28  1  0  0  0  0
 11 29  1  0  0  0  0
 11 30  1  0  0  0  0
 11 31  1  0  0  0  0
 12 18  1  0  0  0  0
 12 13  1  0  0  0  0
 12 44  1  0  0  0  0
 13 14  1  0  0  0  0
 13 32  1  0  0  0  0
 13 33  1  0  0  0  0
 14 15  1  0  0  0  0
 14 34  1  0  0  0  0
 14 35  1  0  0  0  0
 15 16  1  0  0  0  0
 15 36  1  0  0  0  0
 15 37  1  0  0  0  0
 16 17  1  0  0  0  0
 16 18  1  0  0  0  0
 16 38  1  0  0  0  0
 17 39  1  0  0  0  0
 17 40  1  0  0  0  0
 17 41  1  0  0  0  0
 18 42  1  0  0  0  0
 18 43  1  0  0  0  0
 19 20  1  0  0  0  0
M  CHG  1   8  -1
M  CHG  1  12   1
M  END
> <s_m_source_file>
AV-unprocessed.smi

> <i_m_source_file_index>
2083

> <i_lp_mmshare_version>
43012

> <i_f3d_flags>
0

> <s_epik_input>
W0NIM11jMVtjSF1jKG5vMSlbTkhdQyg9TylbTkhdW0NIMl1bQ0BIXShbQ0gzXSlOMltDSDJdW0NIMl1bQ0gyXVtDQEBIXShbQ0gzXSlbQ0gyXTI=

> <s_epik_cmdline>
J2VwaWtfcHl0aG9uJywgJy1waCcsICc3LjAnLCAnLXRuJywgJzgnLCAnLW1hJywgJzIwMCcsICctbWV0YWxfYmluZGluZycsICctaW1hZScsICc8aW5maWxlLm1hZT4nLCAnLW9tYWUnLCAnPG91dGZpbGUubWFlPic=

> <r_epik_Ionization_Penalty>
6.76934

> <r_epik_Ionization_Penalty_Charging>
6.76934

> <r_epik_Ionization_Penalty_Neutral>
5.77849e-06

> <r_epik_State_Penalty>
6.79457

> <r_epik_Charging_Adjusted_Penalty>
13.5639

> <i_epik_Tot_Q>
0

> <i_epik_Tot_abs_Q>
2

> <r_epik_Metal_State_Penalty>
2.72837

> <b_epik_Metal_Only>
1

> <s_lp_Force_Field>
OPLS_2005

> <r_lp_Energy>
20.5905

> <b_lp_Chiralities_Consistent>
1

> <s_lp_Variant>
AV-unprocessed.smi:2083-19

> <Gold.Version>
5.8.1

> <Gold.Id.Protein>
6NUR|6NUR_protein|mol2

> <Gold.PLP.Fitness>
37.8606

> <Gold.PLP.PLP>
-30.4260

> <Gold.PLP.part.hbond>
-3.4529

> <Gold.PLP.part.metal>
0.0000

> <Gold.PLP.part.buried>
4.6366

> <Gold.PLP.part.nonpolar>
-32.2925

> <Gold.PLP.part.repulsive>
1.1821

> <Gold.PLP.ligand.clash>
0.0000

> <Gold.PLP.ligand.torsion>
1.0020

> <Gold.PLP.Chemscore.Hbond>
3.0000

> <Gold.PLP.Chemscore.CHOScore>
0.0000

> <Gold.PLP.Chemscore.Metal>
0.0000

> <Gold.Chemscore.Hbonds>
donor molecule, donor type, donor heavy atom, donor atom, acceptor molecule, acceptor atom, score
      L1  H    12    44       P1  7948  1.92
      P1  H  7989  7998       L1     8  1.00

> <Gold.PLP.Chemscore.Internal.Correction>
0.4386

> <Gold.Rescore>
     Score         DG    S(hbond)    S(metal)    S(lipo)     H(rot)  DE(clash)    DE(int)     intcor
     12.07     -17.18       1.86        0.00      80.14       1.52       2.89       2.22       ----

> <Gold.Chemscore.Fitness>
12.0734

> <Gold.Chemscore.DG>
-17.1828

> <Gold.Chemscore.ZeroCoef>
-5.4800

> <Gold.Chemscore.Hbond>
1.8608

> <Gold.Chemscore.Metal>
0.0000

> <Gold.Chemscore.Lipo>
80.1398

> <Gold.Chemscore.Internal_Hbond>
0.0000

> <Gold.Chemscore.DEClash>
2.8851

> <Gold.Chemscore.DEInternal>
2.2243

> <Gold.Chemscore.Rot>
1.5190

> <Gold.Chemscore.Internal.Correction>
   9.000000E+99

> <Gold.Chemscore.Hbonds>
donor molecule, donor type, donor heavy atom, donor atom, acceptor molecule, acceptor atom, score
      L1  H    12    44       P1  7948  0.88
      P1  H  7989  7998       L1     8  0.82

> <Gold.Chemscore.Hbond.Weighted>
-6.2151

> <Gold.Chemscore.Metal.Weighted>
-0.0000

> <Gold.Chemscore.Lipo.Weighted>
-9.3764

> <Gold.Chemscore.Internal_Hbond.Weighted>
0.0000

> <Gold.Chemscore.DEClash.Weighted>
2.8851

> <Gold.Chemscore.DEInternal.Weighted>
2.2243

> <Gold.Chemscore.Rot.Weighted>
3.8886

> <Gold.Chemscore.Internal.Correction.Weighted>
   9.000000E+99

> <Gold.Protein.RotatedTorsions>
[ 6907 6896 6895 6894 ] final  143.39 input  -60.11 | X-H torsion
[ 7974 7965 7964 7962 ] final  -43.29 input  175.53 | X-H torsion
[ 8008 7997 7996 7995 ] final -106.57 input   59.86 | X-H torsion
[ 10167 10162 10161 10158 ] final -179.61 input  -65.29 | X-H torsion
[ 10718 10713 10712 10709 ] final  -70.66 input   66.30 | X-H torsion
[ 10763 10752 10751 10750 ] final   45.14 input  -60.55 | X-H torsion
[ 11005 11000 10999 10996 ] final  -63.45 input  -57.11 | X-H torsion

> <Gold.Protein.ActiveResidues>
 VAL166  LYS551  ARG553  GLY616  TRP617  ASP618  TYR619  PRO620  LYS621  CYS622 
 ASP623  PHE694  ASN695  SER759  ASP760  ASP761  ALA762  ILE779  LEU786  VAL792 
 PHE793  MET794  SER795  GLU796  ALA797  LYS798  CYS799  TRP800  GLU811  SER814 

> <Gold.Protein.RotatedAtoms>
  152.2069  133.4882  159.5088 H   0  0  0  0  0  0  0  0  0  0  0  0  # atno 6907 bound_to 6896
  150.6981  134.1518  159.4152 H   0  0  0  0  0  0  0  0  0  0  0  0  # atno 6908 bound_to 6896
  151.9436  135.0201  160.0588 H   0  0  0  0  0  0  0  0  0  0  0  0  # atno 6909 bound_to 6896
  146.0033  140.7049  142.9260 H   0  0  0  0  0  0  0  0  0  0  0  0  # atno 7974 bound_to 7965
  154.9165  140.0408  157.1975 H   0  0  0  0  0  0  0  0  0  0  0  0  # atno 8008 bound_to 7997
  154.8296  140.2897  155.5710 H   0  0  0  0  0  0  0  0  0  0  0  0  # atno 8009 bound_to 7997
  156.2986  140.2503  156.3219 H   0  0  0  0  0  0  0  0  0  0  0  0  # atno 8010 bound_to 7997
  139.5378  144.2447  152.0832 H   0  0  0  0  0  0  0  0  0  0  0  0  # atno 10167 bound_to 10162
  156.0398  130.4336  150.2328 H   0  0  0  0  0  0  0  0  0  0  0  0  # atno 10718 bound_to 10713
  152.9829  135.6049  154.3388 H   0  0  0  0  0  0  0  0  0  0  0  0  # atno 10763 bound_to 10752
  154.3086  135.2771  155.2578 H   0  0  0  0  0  0  0  0  0  0  0  0  # atno 10764 bound_to 10752
  154.4798  135.5920  153.6437 H   0  0  0  0  0  0  0  0  0  0  0  0  # atno 10765 bound_to 10752
  141.1393  133.6652  156.5682 H   0  0  0  0  0  0  0  0  0  0  0  0  # atno 11005 bound_to 11000
  144.6927  140.3271  143.7222 LP  0  0  0  0  0  0  0  0  0  0  0  0  # atno 17320 bound_to 7965
  145.7454  139.1777  143.2352 LP  0  0  0  0  0  0  0  0  0  0  0  0  # atno 17321 bound_to 7965
  140.1920  144.4742  150.6474 LP  0  0  0  0  0  0  0  0  0  0  0  0  # atno 17342 bound_to 10162
  140.6594  143.2247  151.5892 LP  0  0  0  0  0  0  0  0  0  0  0  0  # atno 17343 bound_to 10162
  157.0424  131.0039  151.3279 LP  0  0  0  0  0  0  0  0  0  0  0  0  # atno 17370 bound_to 10713
  157.5200  130.7992  149.7798 LP  0  0  0  0  0  0  0  0  0  0  0  0  # atno 17371 bound_to 10713
  140.3934  134.7421  157.4735 LP  0  0  0  0  0  0  0  0  0  0  0  0  # atno 17394 bound_to 11000
  140.0550  134.6077  155.8816 LP  0  0  0  0  0  0  0  0  0  0  0  0  # atno 17395 bound_to 11000

$$$$
