AV-unprocessed.smi:1274|AV-procd|sdf|5340|dock4
  -GOLD-   22720 4473D 1   1.00000     0.00000
 Structure written by MMmdl.
 37 38  0  0  0  0  0  0  0  0  1 V2000
  152.6654  140.3338  155.2265 O   0  0  0  0  0  0  0  0  0  0  0  0
  151.8300  139.1294  155.1064 S   0  0  0  0  0  0  0  0  0  0  0  0
  152.2161  138.0276  154.2114 O   0  0  0  0  0  0  0  0  0  0  0  0
  151.5606  138.4659  156.6764 N   0  0  0  0  0  0  0  0  0  0  0  0
  151.0877  139.3257  157.7634 C   0  0  0  0  0  0  0  0  0  0  0  0
  152.2551  139.8894  158.5933 C   0  0  0  0  0  0  0  0  0  0  0  0
  152.0807  141.3589  158.9346 C   0  0  0  0  0  0  0  0  0  0  0  0
  152.9162  141.9860  159.8814 C   0  0  0  0  0  0  0  0  0  0  0  0
  152.7029  143.3459  160.1787 C   0  0  0  0  0  0  0  0  0  0  0  0
  151.6598  144.0219  159.5145 C   0  0  0  0  0  0  0  0  0  0  0  0
  150.8544  143.4324  158.6049 N   0  0  0  0  0  0  0  0  0  0  0  0
  151.0675  142.1290  158.3240 C   0  0  0  0  0  0  0  0  0  0  0  0
  150.2126  139.6233  154.7305 N   0  0  0  0  0  0  0  0  0  0  0  0
  149.2214  138.5527  154.4849 C   0  0  0  0  0  0  0  0  0  0  0  0
  147.9444  139.1020  153.8287 C   0  0  0  0  0  0  0  0  0  0  0  0
  147.3444  140.2420  154.6556 C   0  0  0  0  0  0  0  0  0  0  0  0
  148.3999  141.3343  154.8468 C   0  0  0  0  0  0  0  0  0  0  0  0
  149.6785  140.7713  155.4905 C   0  0  0  0  0  0  0  0  0  0  0  0
  152.3168  137.8451  156.9639 H   0  0  0  0  0  0  0  0  0  0  0  0
  150.5169  140.1464  157.3281 H   0  0  0  0  0  0  0  0  0  0  0  0
  150.3999  138.7641  158.3962 H   0  0  0  0  0  0  0  0  0  0  0  0
  152.3426  139.3258  159.5229 H   0  0  0  0  0  0  0  0  0  0  0  0
  153.2015  139.7465  158.0721 H   0  0  0  0  0  0  0  0  0  0  0  0
  153.7031  141.4346  160.3749 H   0  0  0  0  0  0  0  0  0  0  0  0
  153.3219  143.8585  160.9000 H   0  0  0  0  0  0  0  0  0  0  0  0
  151.4669  145.0645  159.7198 H   0  0  0  0  0  0  0  0  0  0  0  0
  150.4021  141.6868  157.5972 H   0  0  0  0  0  0  0  0  0  0  0  0
  149.6506  137.7840  153.8434 H   0  0  0  0  0  0  0  0  0  0  0  0
  148.9811  138.0696  155.4329 H   0  0  0  0  0  0  0  0  0  0  0  0
  148.1738  139.4578  152.8234 H   0  0  0  0  0  0  0  0  0  0  0  0
  147.2137  138.3013  153.7135 H   0  0  0  0  0  0  0  0  0  0  0  0
  146.4642  140.6488  154.1571 H   0  0  0  0  0  0  0  0  0  0  0  0
  147.0146  139.8669  155.6252 H   0  0  0  0  0  0  0  0  0  0  0  0
  148.6434  141.7810  153.8820 H   0  0  0  0  0  0  0  0  0  0  0  0
  147.9964  142.1363  155.4655 H   0  0  0  0  0  0  0  0  0  0  0  0
  149.4808  140.4550  156.5157 H   0  0  0  0  0  0  0  0  0  0  0  0
  150.4311  141.5582  155.5429 H   0  0  0  0  0  0  0  0  0  0  0  0
  1  2  2  0  0  0  0
  2  3  2  0  0  0  0
  2  4  1  0  0  0  0
  2 13  1  0  0  0  0
  4  5  1  0  0  0  0
  4 19  1  0  0  0  0
  5  6  1  0  0  0  0
  5 20  1  0  0  0  0
  5 21  1  0  0  0  0
  6  7  1  0  0  0  0
  6 22  1  0  0  0  0
  6 23  1  0  0  0  0
  7 12  1  0  0  0  0
  7  8  2  0  0  0  0
  8  9  1  0  0  0  0
  8 24  1  0  0  0  0
  9 10  2  0  0  0  0
  9 25  1  0  0  0  0
 10 11  1  0  0  0  0
 10 26  1  0  0  0  0
 11 12  2  0  0  0  0
 12 27  1  0  0  0  0
 13 18  1  0  0  0  0
 13 14  1  0  0  0  0
 14 15  1  0  0  0  0
 14 28  1  0  0  0  0
 14 29  1  0  0  0  0
 15 16  1  0  0  0  0
 15 30  1  0  0  0  0
 15 31  1  0  0  0  0
 16 17  1  0  0  0  0
 16 32  1  0  0  0  0
 16 33  1  0  0  0  0
 17 18  1  0  0  0  0
 17 34  1  0  0  0  0
 17 35  1  0  0  0  0
 18 36  1  0  0  0  0
 18 37  1  0  0  0  0
M  END
> <s_m_source_file>
AV-unprocessed.smi

> <i_m_source_file_index>
1274

> <i_lp_mmshare_version>
43012

> <i_f3d_flags>
0

> <s_epik_input>
W0NIMl0xW0NIMl1bQ0gyXVtDSDJdW0NIMl1OMVMoPU8pKD1PKVtOSF1bQ0gyXVtDSDJdYzJbY0hdW2NIXVtjSF1uW2NIXTI=

> <s_epik_cmdline>
J2VwaWtfcHl0aG9uJywgJy1waCcsICc3LjAnLCAnLXRuJywgJzgnLCAnLW1hJywgJzIwMCcsICctbWV0YWxfYmluZGluZycsICctaW1hZScsICc8aW5maWxlLm1hZT4nLCAnLW9tYWUnLCAnPG91dGZpbGUubWFlPic=

> <r_epik_Ionization_Penalty>
0.0259724

> <r_epik_Ionization_Penalty_Charging>
0

> <r_epik_Ionization_Penalty_Neutral>
0.0259724

> <r_epik_State_Penalty>
0.0167858

> <r_epik_Charging_Adjusted_Penalty>
0.0167858

> <i_epik_Tot_Q>
0

> <i_epik_Tot_abs_Q>
0

> <r_epik_Metal_State_Penalty>
0.268382

> <b_epik_Metal_Only>
0

> <s_lp_Force_Field>
OPLS_2005

> <r_lp_Energy>
7.33886

> <b_lp_Chiralities_Consistent>
1

> <s_lp_Variant>
AV-unprocessed.smi:1274-1

> <Gold.Version>
5.8.1

> <Gold.Id.Protein>
6NUR|6NUR_protein|mol2

> <Gold.PLP.Fitness>
43.0766

> <Gold.PLP.PLP>
-37.5713

> <Gold.PLP.part.hbond>
-3.1304

> <Gold.PLP.part.metal>
0.0000

> <Gold.PLP.part.buried>
-4.0579

> <Gold.PLP.part.nonpolar>
-30.4655

> <Gold.PLP.part.repulsive>
0.4528

> <Gold.PLP.ligand.clash>
0.0000

> <Gold.PLP.ligand.torsion>
1.0185

> <Gold.PLP.Chemscore.Hbond>
2.2609

> <Gold.PLP.Chemscore.CHOScore>
0.0000

> <Gold.PLP.Chemscore.Metal>
0.0000

> <Gold.Chemscore.Hbonds>
donor molecule, donor type, donor heavy atom, donor atom, acceptor molecule, acceptor atom, score
      P1  H  7989  7998       L1     1  0.06
      P1  H  7997  8010       L1     1  1.00

> <Gold.PLP.Chemscore.Internal.Correction>
0.7595

> <Gold.Rescore>
     Score         DG    S(hbond)    S(metal)    S(lipo)     H(rot)  DE(clash)    DE(int)     intcor
     17.89     -18.76       1.96        0.00      94.58       1.69       0.05       0.82       ----

> <Gold.Chemscore.Fitness>
17.8929

> <Gold.Chemscore.DG>
-18.7608

> <Gold.Chemscore.ZeroCoef>
-5.4800

> <Gold.Chemscore.Hbond>
1.9577

> <Gold.Chemscore.Metal>
0.0000

> <Gold.Chemscore.Lipo>
94.5816

> <Gold.Chemscore.Internal_Hbond>
0.0000

> <Gold.Chemscore.DEClash>
0.0456

> <Gold.Chemscore.DEInternal>
0.8222

> <Gold.Chemscore.Rot>
1.6891

> <Gold.Chemscore.Internal.Correction>
   9.000000E+99

> <Gold.Chemscore.Hbonds>
donor molecule, donor type, donor heavy atom, donor atom, acceptor molecule, acceptor atom, score
      P1  H  7997  8010       L1     1  0.96
      P1  H 10752 10764       L1     3  0.02

> <Gold.Chemscore.Hbond.Weighted>
-6.5388

> <Gold.Chemscore.Metal.Weighted>
-0.0000

> <Gold.Chemscore.Lipo.Weighted>
-11.0660

> <Gold.Chemscore.Internal_Hbond.Weighted>
0.0000

> <Gold.Chemscore.DEClash.Weighted>
0.0456

> <Gold.Chemscore.DEInternal.Weighted>
0.8222

> <Gold.Chemscore.Rot.Weighted>
4.3241

> <Gold.Chemscore.Internal.Correction.Weighted>
   9.000000E+99

> <Gold.Protein.RotatedTorsions>
[ 6907 6896 6895 6894 ] final  129.63 input  -60.11 | X-H torsion
[ 7974 7965 7964 7962 ] final -155.55 input  175.53 | X-H torsion
[ 8008 7997 7996 7995 ] final   99.20 input   59.86 | X-H torsion
[ 10167 10162 10161 10158 ] final   51.45 input  -65.29 | X-H torsion
[ 10718 10713 10712 10709 ] final   28.84 input   66.30 | X-H torsion
[ 10763 10752 10751 10750 ] final  -72.91 input  -60.55 | X-H torsion
[ 11005 11000 10999 10996 ] final   95.13 input  -57.11 | X-H torsion

> <Gold.Protein.ActiveResidues>
 VAL166  LYS551  ARG553  GLY616  TRP617  ASP618  TYR619  PRO620  LYS621  CYS622 
 ASP623  PHE694  ASN695  SER759  ASP760  ASP761  ALA762  ILE779  LEU786  VAL792 
 PHE793  MET794  SER795  GLU796  ALA797  LYS798  CYS799  TRP800  GLU811  SER814 

> <Gold.Protein.RotatedAtoms>
  152.3605  133.6291  159.6011 H   0  0  0  0  0  0  0  0  0  0  0  0  # atno 6907 bound_to 6896
  150.7598  133.9431  159.3471 H   0  0  0  0  0  0  0  0  0  0  0  0  # atno 6908 bound_to 6896
  151.7269  135.0884  160.0345 H   0  0  0  0  0  0  0  0  0  0  0  0  # atno 6909 bound_to 6896
  144.7635  140.4234  143.5959 H   0  0  0  0  0  0  0  0  0  0  0  0  # atno 7974 bound_to 7965
  156.1081  140.3232  155.8035 H   0  0  0  0  0  0  0  0  0  0  0  0  # atno 8008 bound_to 7997
  155.4720  140.0547  157.2995 H   0  0  0  0  0  0  0  0  0  0  0  0  # atno 8009 bound_to 7997
  154.4741  140.2024  155.9935 H   0  0  0  0  0  0  0  0  0  0  0  0  # atno 8010 bound_to 7997
  140.2618  144.3364  150.6316 H   0  0  0  0  0  0  0  0  0  0  0  0  # atno 10167 bound_to 10162
  157.2388  130.7059  149.6348 H   0  0  0  0  0  0  0  0  0  0  0  0  # atno 10718 bound_to 10713
  154.4522  135.5914  153.6199 H   0  0  0  0  0  0  0  0  0  0  0  0  # atno 10763 bound_to 10752
  152.9815  135.6024  154.3590 H   0  0  0  0  0  0  0  0  0  0  0  0  # atno 10764 bound_to 10752
  154.3453  135.2841  155.2380 H   0  0  0  0  0  0  0  0  0  0  0  0  # atno 10765 bound_to 10752
  139.8792  134.8882  156.3966 H   0  0  0  0  0  0  0  0  0  0  0  0  # atno 11005 bound_to 11000
  145.6544  139.1570  143.2844 LP  0  0  0  0  0  0  0  0  0  0  0  0  # atno 17320 bound_to 7965
  146.1721  140.6630  142.9228 LP  0  0  0  0  0  0  0  0  0  0  0  0  # atno 17321 bound_to 7965
  140.5960  143.2167  151.7164 LP  0  0  0  0  0  0  0  0  0  0  0  0  # atno 17342 bound_to 10162
  139.5014  144.3867  152.0321 LP  0  0  0  0  0  0  0  0  0  0  0  0  # atno 17343 bound_to 10162
  155.9671  130.4465  150.5542 LP  0  0  0  0  0  0  0  0  0  0  0  0  # atno 17370 bound_to 10713
  157.3401  131.0715  151.1795 LP  0  0  0  0  0  0  0  0  0  0  0  0  # atno 17371 bound_to 10713
  140.9296  133.7588  156.0008 LP  0  0  0  0  0  0  0  0  0  0  0  0  # atno 17394 bound_to 11000
  140.8346  134.3138  157.5336 LP  0  0  0  0  0  0  0  0  0  0  0  0  # atno 17395 bound_to 11000

$$$$
