AV-unprocessed.smi:2789|AV-procd|sdf|10764|dock6
  -GOLD-   2272015193D 1   1.00000     0.00000
 Structure written by MMmdl.
 35 36  0  0  0  0  0  0  0  0  1 V2000
  151.6842  140.3778  159.0910 C   0  0  0  0  0  0  0  0  0  0  0  0
  151.2923  141.7400  159.0423 O   0  0  0  0  0  0  0  0  0  0  0  0
  152.3780  142.6429  158.8486 C   0  0  2  0  0  0  0  0  0  0  0  0
  152.5985  143.3567  160.1844 C   0  0  0  0  0  0  0  0  0  0  0  0
  151.6000  144.5095  160.1671 C   0  0  0  0  0  0  0  0  0  0  0  0
  151.6006  144.9883  158.7149 C   0  0  0  0  0  0  0  0  0  0  0  0
  152.0055  143.7732  157.8573 C   0  0  2  0  0  0  0  0  0  0  0  0
  150.9249  143.4007  156.9464 N   0  0  0  0  0  0  0  0  0  0  0  0
  150.7935  142.2077  156.3500 C   0  0  0  0  0  0  0  0  0  0  0  0
  151.5940  141.2838  156.4960 O   0  0  0  0  0  0  0  0  0  0  0  0
  149.6783  142.1637  155.6009 N   0  0  0  0  0  0  0  0  0  0  0  0
  149.2011  141.1396  154.8445 C   0  0  0  0  0  0  0  0  0  0  0  0
  149.7981  139.9452  154.5450 C   0  0  0  0  0  0  0  0  0  0  0  0
  148.8234  139.3103  153.7235 C   0  0  0  0  0  0  0  0  0  0  0  0
  147.7371  140.0497  153.5396 N   0  0  0  0  0  0  0  0  0  0  0  0
  147.9668  141.1873  154.2304 N   0  0  0  0  0  0  0  0  0  0  0  0
  146.9571  142.2285  154.2400 C   0  0  0  0  0  0  0  0  0  0  0  0
  150.8026  139.7465  159.1997 H   0  0  0  0  0  0  0  0  0  0  0  0
  152.3393  140.1904  159.9427 H   0  0  0  0  0  0  0  0  0  0  0  0
  152.2030  140.0788  158.1801 H   0  0  0  0  0  0  0  0  0  0  0  0
  153.2865  142.1214  158.5403 H   0  0  0  0  0  0  0  0  0  0  0  0
  152.4704  142.6989  161.0448 H   0  0  0  0  0  0  0  0  0  0  0  0
  153.6126  143.7568  160.2232 H   0  0  0  0  0  0  0  0  0  0  0  0
  150.6091  144.1390  160.4320 H   0  0  0  0  0  0  0  0  0  0  0  0
  151.8590  145.3013  160.8705 H   0  0  0  0  0  0  0  0  0  0  0  0
  150.6357  145.4124  158.4343 H   0  0  0  0  0  0  0  0  0  0  0  0
  152.3425  145.7787  158.5937 H   0  0  0  0  0  0  0  0  0  0  0  0
  152.8924  144.0535  157.2854 H   0  0  0  0  0  0  0  0  0  0  0  0
  150.2156  144.0987  156.7783 H   0  0  0  0  0  0  0  0  0  0  0  0
  149.1079  142.9963  155.6057 H   0  0  0  0  0  0  0  0  0  0  0  0
  150.7641  139.5707  154.8483 H   0  0  0  0  0  0  0  0  0  0  0  0
  148.8721  138.3379  153.2556 H   0  0  0  0  0  0  0  0  0  0  0  0
  147.3470  143.1396  154.6936 H   0  0  0  0  0  0  0  0  0  0  0  0
  146.0911  141.8924  154.8107 H   0  0  0  0  0  0  0  0  0  0  0  0
  146.6466  142.4520  153.2190 H   0  0  0  0  0  0  0  0  0  0  0  0
  1  2  1  0  0  0  0
  1 18  1  0  0  0  0
  1 19  1  0  0  0  0
  1 20  1  0  0  0  0
  2  3  1  0  0  0  0
  3  7  1  0  0  0  0
  3  4  1  0  0  0  0
  3 21  1  0  0  0  0
  4  5  1  0  0  0  0
  4 22  1  0  0  0  0
  4 23  1  0  0  0  0
  5  6  1  0  0  0  0
  5 24  1  0  0  0  0
  5 25  1  0  0  0  0
  6  7  1  0  0  0  0
  6 26  1  0  0  0  0
  6 27  1  0  0  0  0
  7  8  1  0  0  0  0
  7 28  1  0  0  0  0
  8  9  1  0  0  0  0
  8 29  1  0  0  0  0
  9 10  2  0  0  0  0
  9 11  1  0  0  0  0
 11 12  1  0  0  0  0
 11 30  1  0  0  0  0
 12 16  1  0  0  0  0
 12 13  2  0  0  0  0
 13 14  1  0  0  0  0
 13 31  1  0  0  0  0
 14 15  2  0  0  0  0
 14 32  1  0  0  0  0
 15 16  1  0  0  0  0
 16 17  1  0  0  0  0
 17 33  1  0  0  0  0
 17 34  1  0  0  0  0
 17 35  1  0  0  0  0
M  END
> <s_m_source_file>
AV-unprocessed.smi

> <i_m_source_file_index>
2789

> <i_lp_mmshare_version>
43012

> <i_f3d_flags>
0

> <s_epik_input>
W0NIM11PW0NAQEhdMVtDSDJdW0NIMl1bQ0gyXVtDQEhdMVtOSF1DKD1PKVtOSF1jMltjSF1bY0hdbm4yW0NIM10=

> <s_epik_cmdline>
J2VwaWtfcHl0aG9uJywgJy1waCcsICc3LjAnLCAnLXRuJywgJzgnLCAnLW1hJywgJzIwMCcsICctbWV0YWxfYmluZGluZycsICctaW1hZScsICc8aW5maWxlLm1hZT4nLCAnLW9tYWUnLCAnPG91dGZpbGUubWFlPic=

> <r_lp_tautomer_probability>
1

> <r_epik_Ionization_Penalty>
4.40608e-05

> <r_epik_Ionization_Penalty_Charging>
0

> <r_epik_Ionization_Penalty_Neutral>
4.40608e-05

> <r_epik_State_Penalty>
-0

> <r_epik_Charging_Adjusted_Penalty>
0

> <i_epik_Tot_Q>
0

> <i_epik_Tot_abs_Q>
0

> <r_epik_Metal_State_Penalty>
-0

> <b_epik_Metal_Only>
0

> <s_lp_Force_Field>
OPLS_2005

> <r_lp_Energy>
23.3685

> <b_lp_Chiralities_Consistent>
1

> <s_lp_Variant>
AV-unprocessed.smi:2789-3

> <Gold.Version>
5.8.1

> <Gold.Id.Protein>
6NUR|6NUR_protein|mol2

> <Gold.PLP.Fitness>
45.7927

> <Gold.PLP.PLP>
-38.5900

> <Gold.PLP.part.hbond>
-2.0000

> <Gold.PLP.part.metal>
0.0000

> <Gold.PLP.part.buried>
-3.4901

> <Gold.PLP.part.nonpolar>
-33.8665

> <Gold.PLP.part.repulsive>
0.9414

> <Gold.PLP.ligand.clash>
0.0000

> <Gold.PLP.ligand.torsion>
0.9043

> <Gold.PLP.Chemscore.Hbond>
2.0000

> <Gold.PLP.Chemscore.CHOScore>
1.0000

> <Gold.PLP.Chemscore.Metal>
0.0000

> <Gold.Chemscore.Hbonds>
donor molecule, donor type, donor heavy atom, donor atom, acceptor molecule, acceptor atom, score
      L1  H     8    29       P1  8028  0.98
      L1  H    11    30       P1  8028  1.00
      L1  C    14    32       P1  7948  1.00

> <Gold.PLP.Chemscore.Internal.Correction>
0.0113

> <Gold.Rescore>
     Score         DG    S(hbond)    S(metal)    S(lipo)     H(rot)  DE(clash)    DE(int)     intcor
     12.56     -18.69       1.90        0.00      86.41       1.27       0.06       6.07       ----

> <Gold.Chemscore.Fitness>
12.5628

> <Gold.Chemscore.DG>
-18.6891

> <Gold.Chemscore.ZeroCoef>
-5.4800

> <Gold.Chemscore.Hbond>
1.9023

> <Gold.Chemscore.Metal>
0.0000

> <Gold.Chemscore.Lipo>
86.4074

> <Gold.Chemscore.Internal_Hbond>
0.0000

> <Gold.Chemscore.DEClash>
0.0582

> <Gold.Chemscore.DEInternal>
6.0680

> <Gold.Chemscore.Rot>
1.2712

> <Gold.Chemscore.Internal.Correction>
   9.000000E+99

> <Gold.Chemscore.Hbonds>
donor molecule, donor type, donor heavy atom, donor atom, acceptor molecule, acceptor atom, score
      L1  H     8    29       P1  8028  0.91
      L1  H    11    30       P1  8028  0.97

> <Gold.Chemscore.Hbond.Weighted>
-6.3538

> <Gold.Chemscore.Metal.Weighted>
-0.0000

> <Gold.Chemscore.Lipo.Weighted>
-10.1097

> <Gold.Chemscore.Internal_Hbond.Weighted>
0.0000

> <Gold.Chemscore.DEClash.Weighted>
0.0582

> <Gold.Chemscore.DEInternal.Weighted>
6.0680

> <Gold.Chemscore.Rot.Weighted>
3.2544

> <Gold.Chemscore.Internal.Correction.Weighted>
   9.000000E+99

> <Gold.Protein.RotatedTorsions>
[ 6907 6896 6895 6894 ] final  100.18 input  -60.11 | X-H torsion
[ 7974 7965 7964 7962 ] final  138.99 input  175.53 | X-H torsion
[ 8008 7997 7996 7995 ] final   50.65 input   59.86 | X-H torsion
[ 10167 10162 10161 10158 ] final  146.09 input  -65.29 | X-H torsion
[ 10718 10713 10712 10709 ] final  -14.26 input   66.30 | X-H torsion
[ 10763 10752 10751 10750 ] final  -43.14 input  -60.55 | X-H torsion
[ 11005 11000 10999 10996 ] final  -32.34 input  -57.11 | X-H torsion

> <Gold.Protein.ActiveResidues>
 VAL166  LYS551  ARG553  GLY616  TRP617  ASP618  TYR619  PRO620  LYS621  CYS622 
 ASP623  PHE694  ASN695  SER759  ASP760  ASP761  ALA762  ILE779  LEU786  VAL792 
 PHE793  MET794  SER795  GLU796  ALA797  LYS798  CYS799  TRP800  GLU811  SER814 

> <Gold.Protein.RotatedAtoms>
  152.5377  134.0315  159.8026 H   0  0  0  0  0  0  0  0  0  0  0  0  # atno 6907 bound_to 6896
  151.0485  133.5636  159.2651 H   0  0  0  0  0  0  0  0  0  0  0  0  # atno 6908 bound_to 6896
  151.2579  135.0652  159.9141 H   0  0  0  0  0  0  0  0  0  0  0  0  # atno 6909 bound_to 6896
  144.9320  139.5035  143.5613 H   0  0  0  0  0  0  0  0  0  0  0  0  # atno 7974 bound_to 7965
  155.4223  140.3447  155.4272 H   0  0  0  0  0  0  0  0  0  0  0  0  # atno 8008 bound_to 7997
  156.1386  140.1535  156.8988 H   0  0  0  0  0  0  0  0  0  0  0  0  # atno 8009 bound_to 7997
  154.4952  140.0830  156.7661 H   0  0  0  0  0  0  0  0  0  0  0  0  # atno 8010 bound_to 7997
  139.4913  144.5854  151.6788 H   0  0  0  0  0  0  0  0  0  0  0  0  # atno 10167 bound_to 10162
  156.6186  130.4869  149.6173 H   0  0  0  0  0  0  0  0  0  0  0  0  # atno 10718 bound_to 10713
  153.9907  135.6705  153.4754 H   0  0  0  0  0  0  0  0  0  0  0  0  # atno 10763 bound_to 10752
  153.0706  135.4976  154.8293 H   0  0  0  0  0  0  0  0  0  0  0  0  # atno 10764 bound_to 10752
  154.7111  135.3097  154.9158 H   0  0  0  0  0  0  0  0  0  0  0  0  # atno 10765 bound_to 10752
  140.9544  133.7201  156.1270 H   0  0  0  0  0  0  0  0  0  0  0  0  # atno 11005 bound_to 11000
  146.3251  139.8278  142.8914 LP  0  0  0  0  0  0  0  0  0  0  0  0  # atno 17320 bound_to 7965
  145.3126  141.0223  143.3546 LP  0  0  0  0  0  0  0  0  0  0  0  0  # atno 17321 bound_to 7965
  140.5470  144.0488  150.6111 LP  0  0  0  0  0  0  0  0  0  0  0  0  # atno 17342 bound_to 10162
  140.3529  143.2952  152.0467 LP  0  0  0  0  0  0  0  0  0  0  0  0  # atno 17343 bound_to 10162
  156.2330  130.6806  151.1482 LP  0  0  0  0  0  0  0  0  0  0  0  0  # atno 17370 bound_to 10713
  157.7234  131.0666  150.6038 LP  0  0  0  0  0  0  0  0  0  0  0  0  # atno 17371 bound_to 10713
  140.7557  134.3995  157.5534 LP  0  0  0  0  0  0  0  0  0  0  0  0  # atno 17394 bound_to 11000
  139.8857  134.8928  156.2625 LP  0  0  0  0  0  0  0  0  0  0  0  0  # atno 17395 bound_to 11000

$$$$
