AV-unprocessed.smi:2032|AV-procd|sdf|8258|dock8
  -GOLD-   2272010533D 1   1.00000     0.00000
 Structure written by MMmdl.
 42 43  0  0  0  0  0  0  0  0  3 V2000
  146.8496  138.7569  151.9158 C   0  0  0  0  0  0  0  0  0  0  0  0
  146.6665  138.9139  153.4361 C   0  0  1  0  0  0  0  0  0  0  0  0
  146.7203  137.5771  154.2035 C   0  0  0  0  0  0  0  0  0  0  0  0
  148.1108  137.0545  154.2987 N   0  3  2  0  0  0  0  0  0  0  0  0
  148.2705  135.7305  154.9826 C   0  0  1  0  0  0  0  0  0  0  0  0
  149.7044  135.4629  155.5007 C   0  0  0  0  0  0  0  0  0  0  0  0
  147.2505  135.6121  156.1450 C   0  0  0  0  0  0  0  0  0  0  0  0
  147.8044  136.0243  157.4309 N   0  0  0  0  0  0  0  0  0  0  0  0
  148.5005  135.2409  158.2666 C   0  0  0  0  0  0  0  0  0  0  0  0
  148.6998  134.0586  157.9770 O   0  0  0  0  0  0  0  0  0  0  0  0
  148.9270  135.8781  159.3796 N   0  5  0  0  0  0  0  0  0  0  0  0
  148.1845  135.8456  160.4982 C   0  0  0  0  0  0  0  0  0  0  0  0
  148.2180  136.8107  161.4241 N   0  0  0  0  0  0  0  0  0  0  0  0
  147.3710  136.5704  162.5074 C   0  0  0  0  0  0  0  0  0  0  0  0
  146.6827  135.3904  162.4080 C   0  0  0  0  0  0  0  0  0  0  0  0
  147.0804  134.5407  160.9419 S   0  0  0  0  0  0  0  0  0  0  0  0
  148.9899  138.1008  154.8837 C   0  0  0  0  0  0  0  0  0  0  0  0
  148.9309  139.3957  154.0561 C   0  0  2  0  0  0  0  0  0  0  0  0
  149.7764  140.5134  154.6770 C   0  0  0  0  0  0  0  0  0  0  0  0
  147.5840  139.8514  153.9946 O   0  0  0  0  0  0  0  0  0  0  0  0
  146.0480  138.1523  151.4907 H   0  0  0  0  0  0  0  0  0  0  0  0
  147.7905  138.2708  151.6593 H   0  0  0  0  0  0  0  0  0  0  0  0
  146.8272  139.7271  151.4192 H   0  0  0  0  0  0  0  0  0  0  0  0
  145.6746  139.3410  153.5878 H   0  0  0  0  0  0  0  0  0  0  0  0
  146.3226  137.7135  155.2104 H   0  0  0  0  0  0  0  0  0  0  0  0
  146.0663  136.8723  153.6910 H   0  0  0  0  0  0  0  0  0  0  0  0
  148.0591  134.9550  154.2447 H   0  0  0  0  0  0  0  0  0  0  0  0
  149.7752  134.5006  156.0076 H   0  0  0  0  0  0  0  0  0  0  0  0
  150.0228  136.2276  156.2100 H   0  0  0  0  0  0  0  0  0  0  0  0
  150.4313  135.4214  154.6894 H   0  0  0  0  0  0  0  0  0  0  0  0
  146.3847  136.2421  155.9389 H   0  0  0  0  0  0  0  0  0  0  0  0
  146.8638  134.5989  156.2506 H   0  0  0  0  0  0  0  0  0  0  0  0
  147.6592  136.9843  157.7080 H   0  0  0  0  0  0  0  0  0  0  0  0
  147.3212  137.2943  163.3070 H   0  0  0  0  0  0  0  0  0  0  0  0
  145.9715  134.9708  163.1032 H   0  0  0  0  0  0  0  0  0  0  0  0
  148.6813  138.2990  155.9119 H   0  0  0  0  0  0  0  0  0  0  0  0
  150.0234  137.7612  154.9301 H   0  0  0  0  0  0  0  0  0  0  0  0
  149.3073  139.2074  153.0505 H   0  0  0  0  0  0  0  0  0  0  0  0
  150.8242  140.2207  154.7469 H   0  0  0  0  0  0  0  0  0  0  0  0
  149.4300  140.7598  155.6811 H   0  0  0  0  0  0  0  0  0  0  0  0
  149.7252  141.4212  154.0751 H   0  0  0  0  0  0  0  0  0  0  0  0
  148.4153  136.9120  153.3465 H   0  0  0  0  0  0  0  0  0  0  0  0
  1  2  1  0  0  0  0
  1 21  1  0  0  0  0
  1 22  1  0  0  0  0
  1 23  1  0  0  0  0
  2 20  1  0  0  0  0
  2  3  1  0  0  0  0
  2 24  1  0  0  0  0
  3  4  1  0  0  0  0
  3 25  1  0  0  0  0
  3 26  1  0  0  0  0
  4  5  1  0  0  0  0
  4 17  1  0  0  0  0
  4 42  1  0  0  0  0
  5  6  1  0  0  0  0
  5  7  1  0  0  0  0
  5 27  1  0  0  0  0
  6 28  1  0  0  0  0
  6 29  1  0  0  0  0
  6 30  1  0  0  0  0
  7  8  1  0  0  0  0
  7 31  1  0  0  0  0
  7 32  1  0  0  0  0
  8  9  1  0  0  0  0
  8 33  1  0  0  0  0
  9 10  2  0  0  0  0
  9 11  1  0  0  0  0
 11 12  1  0  0  0  0
 12 16  1  0  0  0  0
 12 13  2  0  0  0  0
 13 14  1  0  0  0  0
 14 15  2  0  0  0  0
 14 34  1  0  0  0  0
 15 16  1  0  0  0  0
 15 35  1  0  0  0  0
 17 18  1  0  0  0  0
 17 36  1  0  0  0  0
 17 37  1  0  0  0  0
 18 19  1  0  0  0  0
 18 20  1  0  0  0  0
 18 38  1  0  0  0  0
 19 39  1  0  0  0  0
 19 40  1  0  0  0  0
 19 41  1  0  0  0  0
M  CHG  1   4   1
M  CHG  1  11  -1
M  END
> <s_m_source_file>
AV-unprocessed.smi

> <i_m_source_file_index>
2032

> <i_lp_mmshare_version>
43012

> <i_f3d_flags>
0

> <s_epik_input>
W0NIM11bQ0BASF0xW0NIMl1OKFtDSDJdW0NASF0oTzEpW0NIM10pW0NASF0oW0NIM10pW0NIMl1bTkhdQyg9TylbTkhdYzJuW2NIXVtjSF1zMg==

> <s_epik_cmdline>
J2VwaWtfcHl0aG9uJywgJy1waCcsICc3LjAnLCAnLXRuJywgJzgnLCAnLW1hJywgJzIwMCcsICctbWV0YWxfYmluZGluZycsICctaW1hZScsICc8aW5maWxlLm1hZT4nLCAnLW9tYWUnLCAnPG91dGZpbGUubWFlPic=

> <r_lp_tautomer_probability>
0.999

> <r_epik_Ionization_Penalty>
6.71699

> <r_epik_Ionization_Penalty_Charging>
5.88592

> <r_epik_Ionization_Penalty_Neutral>
0.831074

> <r_epik_State_Penalty>
6.08365

> <r_epik_Charging_Adjusted_Penalty>
11.9696

> <i_epik_Tot_Q>
0

> <i_epik_Tot_abs_Q>
2

> <r_epik_Metal_State_Penalty>
2.0947

> <b_epik_Metal_Only>
1

> <s_lp_Force_Field>
OPLS_2005

> <r_lp_Energy>
13.797

> <b_lp_Chiralities_Consistent>
1

> <s_lp_Variant>
AV-unprocessed.smi:2032-28

> <Gold.Version>
5.8.1

> <Gold.Id.Protein>
6NUR|6NUR_protein|mol2

> <Gold.PLP.Fitness>
40.7593

> <Gold.PLP.PLP>
-29.8483

> <Gold.PLP.part.hbond>
-3.2617

> <Gold.PLP.part.metal>
0.0000

> <Gold.PLP.part.buried>
-1.4636

> <Gold.PLP.part.nonpolar>
-24.4976

> <Gold.PLP.part.repulsive>
0.1551

> <Gold.PLP.ligand.clash>
0.0000

> <Gold.PLP.ligand.torsion>
2.0787

> <Gold.PLP.Chemscore.Hbond>
5.0000

> <Gold.PLP.Chemscore.CHOScore>
0.0000

> <Gold.PLP.Chemscore.Metal>
0.0000

> <Gold.Chemscore.Hbonds>
donor molecule, donor type, donor heavy atom, donor atom, acceptor molecule, acceptor atom, score
      L1  H     4    42       P1  7948  2.00
      P1  H  6896  6908       L1    11  1.27
      P1  H  6931  6943       L1    13  1.00

> <Gold.PLP.Chemscore.Internal.Correction>
0.0684

> <Gold.Rescore>
     Score         DG    S(hbond)    S(metal)    S(lipo)     H(rot)  DE(clash)    DE(int)     intcor
     15.12     -16.96       2.57        0.00      59.31       1.58       0.03       1.81       ----

> <Gold.Chemscore.Fitness>
15.1221

> <Gold.Chemscore.DG>
-16.9572

> <Gold.Chemscore.ZeroCoef>
-5.4800

> <Gold.Chemscore.Hbond>
2.5689

> <Gold.Chemscore.Metal>
0.0000

> <Gold.Chemscore.Lipo>
59.3118

> <Gold.Chemscore.Internal_Hbond>
0.0000

> <Gold.Chemscore.DEClash>
0.0282

> <Gold.Chemscore.DEInternal>
1.8069

> <Gold.Chemscore.Rot>
1.5791

> <Gold.Chemscore.Internal.Correction>
   9.000000E+99

> <Gold.Chemscore.Hbonds>
donor molecule, donor type, donor heavy atom, donor atom, acceptor molecule, acceptor atom, score
      L1  H     4    42       P1  7948  1.00
      P1  H  6896  6908       L1    11  0.12
      P1  H  6931  6943       L1    13  0.35

> <Gold.Chemscore.Hbond.Weighted>
-8.5802

> <Gold.Chemscore.Metal.Weighted>
-0.0000

> <Gold.Chemscore.Lipo.Weighted>
-6.9395

> <Gold.Chemscore.Internal_Hbond.Weighted>
0.0000

> <Gold.Chemscore.DEClash.Weighted>
0.0282

> <Gold.Chemscore.DEInternal.Weighted>
1.8069

> <Gold.Chemscore.Rot.Weighted>
4.0425

> <Gold.Chemscore.Internal.Correction.Weighted>
   9.000000E+99

> <Gold.Protein.RotatedTorsions>
[ 6907 6896 6895 6894 ] final -170.75 input  -60.11 | X-H torsion
[ 7974 7965 7964 7962 ] final -123.01 input  175.53 | X-H torsion
[ 8008 7997 7996 7995 ] final   85.57 input   59.86 | X-H torsion
[ 10167 10162 10161 10158 ] final  -49.76 input  -65.29 | X-H torsion
[ 10718 10713 10712 10709 ] final  118.48 input   66.30 | X-H torsion
[ 10763 10752 10751 10750 ] final -126.96 input  -60.55 | X-H torsion
[ 11005 11000 10999 10996 ] final  -71.94 input  -57.11 | X-H torsion

> <Gold.Protein.ActiveResidues>
 VAL166  LYS551  ARG553  GLY616  TRP617  ASP618  TYR619  PRO620  LYS621  CYS622 
 ASP623  PHE694  ASN695  SER759  ASP760  ASP761  ALA762  ILE779  LEU786  VAL792 
 PHE793  MET794  SER795  GLU796  ALA797  LYS798  CYS799  TRP800  GLU811  SER814 

> <Gold.Protein.RotatedAtoms>
  151.5127  133.3482  159.2887 H   0  0  0  0  0  0  0  0  0  0  0  0  # atno 6907 bound_to 6896
  150.8702  134.8076  159.7160 H   0  0  0  0  0  0  0  0  0  0  0  0  # atno 6908 bound_to 6896
  152.4693  134.5010  159.9776 H   0  0  0  0  0  0  0  0  0  0  0  0  # atno 6909 bound_to 6896
  145.0232  140.8006  143.4368 H   0  0  0  0  0  0  0  0  0  0  0  0  # atno 7974 bound_to 7965
  155.9517  140.3400  155.6414 H   0  0  0  0  0  0  0  0  0  0  0  0  # atno 8008 bound_to 7997
  155.6911  140.0749  157.2466 H   0  0  0  0  0  0  0  0  0  0  0  0  # atno 8009 bound_to 7997
  154.4123  140.1657  156.2075 H   0  0  0  0  0  0  0  0  0  0  0  0  # atno 8010 bound_to 7997
  140.6670  143.2684  151.4262 H   0  0  0  0  0  0  0  0  0  0  0  0  # atno 10167 bound_to 10162
  157.6027  131.1048  150.7763 H   0  0  0  0  0  0  0  0  0  0  0  0  # atno 10718 bound_to 10713
  154.8749  135.3978  154.3516 H   0  0  0  0  0  0  0  0  0  0  0  0  # atno 10763 bound_to 10752
  153.4301  135.7025  153.6242 H   0  0  0  0  0  0  0  0  0  0  0  0  # atno 10764 bound_to 10752
  153.4867  135.3757  155.2440 H   0  0  0  0  0  0  0  0  0  0  0  0  # atno 10765 bound_to 10752
  141.1600  133.6832  156.6983 H   0  0  0  0  0  0  0  0  0  0  0  0  # atno 11005 bound_to 11000
  145.1868  139.2322  143.5264 LP  0  0  0  0  0  0  0  0  0  0  0  0  # atno 17320 bound_to 7965
  146.3488  140.1654  142.8590 LP  0  0  0  0  0  0  0  0  0  0  0  0  # atno 17321 bound_to 7965
  139.5922  144.1474  152.2102 LP  0  0  0  0  0  0  0  0  0  0  0  0  # atno 17342 bound_to 10162
  140.0832  144.5683  150.7107 LP  0  0  0  0  0  0  0  0  0  0  0  0  # atno 17343 bound_to 10162
  156.8158  130.4967  149.5349 LP  0  0  0  0  0  0  0  0  0  0  0  0  # atno 17370 bound_to 10713
  156.1104  130.6036  151.0038 LP  0  0  0  0  0  0  0  0  0  0  0  0  # atno 17371 bound_to 10713
  140.2978  134.8188  157.4072 LP  0  0  0  0  0  0  0  0  0  0  0  0  # atno 17394 bound_to 11000
  140.1289  134.5122  155.8122 LP  0  0  0  0  0  0  0  0  0  0  0  0  # atno 17395 bound_to 11000

$$$$
