AV-unprocessed.smi:798|AV-procd|sdf|3778|dock2
  -GOLD-   22720 1213D 1   1.00000     0.00000
 Structure written by MMmdl.
 33 35  0  0  0  0  0  0  0  0  2 V2000
  151.3085  139.1905  158.4406 O   0  0  0  0  0  0  0  0  0  0  0  0
  152.2626  139.6931  157.8426 C   0  0  0  0  0  0  0  0  0  0  0  0
  152.9006  139.1720  156.7700 N   0  5  0  0  0  0  0  0  0  0  0  0
  152.1918  138.6482  155.7566 C   0  0  0  0  0  0  0  0  0  0  0  0
  152.2979  137.3587  155.3972 N   0  0  0  0  0  0  0  0  0  0  0  0
  151.4768  137.0200  154.3302 N   0  0  0  0  0  0  0  0  0  0  0  0
  150.7623  138.0662  153.9160 C   0  0  0  0  0  0  0  0  0  0  0  0
  151.0259  139.5587  154.7924 S   0  0  0  0  0  0  0  0  0  0  0  0
  152.7558  140.8746  158.2402 N   0  0  0  0  0  0  0  0  0  0  0  0
  152.2751  141.6787  159.3656 C   0  0  1  0  0  0  0  0  0  0  0  0
  153.3153  142.7608  159.7284 C   0  0  2  0  0  0  0  0  0  0  0  0
  152.9894  143.3252  161.1230 C   0  0  0  0  0  0  0  0  0  0  0  0
  151.7187  144.1553  160.8580 C   0  0  0  0  0  0  0  0  0  0  0  0
  151.4888  143.9589  159.3459 C   0  0  1  0  0  0  0  0  0  0  0  0
  152.9196  143.9221  158.8247 C   0  0  0  0  0  0  0  0  0  0  0  0
  150.9899  142.5162  159.0836 C   0  0  1  0  0  0  0  0  0  0  0  0
  150.3494  142.3354  157.6880 C   0  0  0  0  0  0  0  0  0  0  0  0
  149.0839  142.9605  157.6380 O   0  0  0  0  0  0  0  0  0  0  0  0
  150.0737  137.9573  153.0914 H   0  0  0  0  0  0  0  0  0  0  0  0
  153.5359  141.2463  157.7186 H   0  0  0  0  0  0  0  0  0  0  0  0
  152.1204  141.0237  160.2252 H   0  0  0  0  0  0  0  0  0  0  0  0
  154.3507  142.4319  159.6303 H   0  0  0  0  0  0  0  0  0  0  0  0
  152.8309  142.5415  161.8647 H   0  0  0  0  0  0  0  0  0  0  0  0
  153.7968  143.9651  161.4808 H   0  0  0  0  0  0  0  0  0  0  0  0
  150.8694  143.8207  161.4548 H   0  0  0  0  0  0  0  0  0  0  0  0
  151.8945  145.2066  161.0893 H   0  0  0  0  0  0  0  0  0  0  0  0
  150.8622  144.7354  158.9064 H   0  0  0  0  0  0  0  0  0  0  0  0
  153.4780  144.8377  159.0272 H   0  0  0  0  0  0  0  0  0  0  0  0
  152.9927  143.6903  157.7613 H   0  0  0  0  0  0  0  0  0  0  0  0
  150.2312  142.2531  159.8223 H   0  0  0  0  0  0  0  0  0  0  0  0
  150.9817  142.7441  156.8997 H   0  0  0  0  0  0  0  0  0  0  0  0
  150.2008  141.2778  157.4700 H   0  0  0  0  0  0  0  0  0  0  0  0
  149.1032  143.6171  156.9589 H   0  0  0  0  0  0  0  0  0  0  0  0
  1  2  2  0  0  0  0
  2  3  1  0  0  0  0
  2  9  1  0  0  0  0
  3  4  1  0  0  0  0
  4  8  1  0  0  0  0
  4  5  2  0  0  0  0
  5  6  1  0  0  0  0
  6  7  2  0  0  0  0
  7  8  1  0  0  0  0
  7 19  1  0  0  0  0
  9 10  1  0  0  0  0
  9 20  1  0  0  0  0
 10 16  1  0  0  0  0
 10 11  1  0  0  0  0
 10 21  1  0  0  0  0
 11 15  1  0  0  0  0
 11 12  1  0  0  0  0
 11 22  1  0  0  0  0
 12 13  1  0  0  0  0
 12 23  1  0  0  0  0
 12 24  1  0  0  0  0
 13 14  1  0  0  0  0
 13 25  1  0  0  0  0
 13 26  1  0  0  0  0
 14 15  1  0  0  0  0
 14 16  1  0  0  0  0
 14 27  1  0  0  0  0
 15 28  1  0  0  0  0
 15 29  1  0  0  0  0
 16 17  1  0  0  0  0
 16 30  1  0  0  0  0
 17 18  1  0  0  0  0
 17 31  1  0  0  0  0
 17 32  1  0  0  0  0
 18 33  1  0  0  0  0
M  CHG  1   3  -1
M  END
> <s_m_source_file>
AV-unprocessed.smi

> <i_m_source_file_index>
798

> <i_lp_mmshare_version>
43012

> <i_f3d_flags>
0

> <s_epik_input>
W0NIMl0xW0NIMl1bQ0BASF0oW0NIMl0yKVtDQEBIXShbQ0gyXVtPSF0pW0NAQEhdKFtDQEhdMTIpW05IXUMoPU8pW05IXWMzbm5bY0hdczM=

> <s_epik_cmdline>
J2VwaWtfcHl0aG9uJywgJy1waCcsICc3LjAnLCAnLXRuJywgJzgnLCAnLW1hJywgJzIwMCcsICctbWV0YWxfYmluZGluZycsICctaW1hZScsICc8aW5maWxlLm1hZT4nLCAnLW9tYWUnLCAnPG91dGZpbGUubWFlPic=

> <r_lp_tautomer_probability>
1

> <r_epik_Ionization_Penalty>
4.53732

> <r_epik_Ionization_Penalty_Charging>
4.48632

> <r_epik_Ionization_Penalty_Neutral>
0.0510007

> <r_epik_State_Penalty>
4.48602

> <r_epik_Charging_Adjusted_Penalty>
8.97234

> <i_epik_Tot_Q>
-1

> <i_epik_Tot_abs_Q>
1

> <r_epik_Metal_State_Penalty>
0.812492

> <b_epik_Metal_Only>
1

> <s_lp_Force_Field>
OPLS_2005

> <r_lp_Energy>
47.4454

> <b_lp_Chiralities_Consistent>
1

> <s_lp_Variant>
AV-unprocessed.smi:798-10

> <Gold.Version>
5.8.1

> <Gold.Id.Protein>
6NUR|6NUR_protein|mol2

> <Gold.PLP.Fitness>
49.9146

> <Gold.PLP.PLP>
-36.8725

> <Gold.PLP.part.hbond>
-3.7108

> <Gold.PLP.part.metal>
0.0000

> <Gold.PLP.part.buried>
-4.5925

> <Gold.PLP.part.nonpolar>
-29.2945

> <Gold.PLP.part.repulsive>
0.2067

> <Gold.PLP.ligand.clash>
0.0000

> <Gold.PLP.ligand.torsion>
1.2347

> <Gold.PLP.Chemscore.Hbond>
4.0000

> <Gold.PLP.Chemscore.CHOScore>
1.1588

> <Gold.PLP.Chemscore.Metal>
0.0000

> <Gold.Chemscore.Hbonds>
donor molecule, donor type, donor heavy atom, donor atom, acceptor molecule, acceptor atom, score
      L1  H    18    33       P1  8028  1.00
      P1  H  7997  8008       L1     3  2.00
      L1  C     7    19       P1  7948  1.00
      L1  C     7    19       P1  7949  0.02
      L1  C     7    19       P1  7957  0.17

> <Gold.PLP.Chemscore.Internal.Correction>
0.0352

> <Gold.Rescore>
     Score         DG    S(hbond)    S(metal)    S(lipo)     H(rot)  DE(clash)    DE(int)     intcor
     18.24     -19.58       2.31        0.00      96.63       1.92       0.06       1.28       ----

> <Gold.Chemscore.Fitness>
18.2435

> <Gold.Chemscore.DG>
-19.5843

> <Gold.Chemscore.ZeroCoef>
-5.4800

> <Gold.Chemscore.Hbond>
2.3101

> <Gold.Chemscore.Metal>
0.0000

> <Gold.Chemscore.Lipo>
96.6267

> <Gold.Chemscore.Internal_Hbond>
0.0000

> <Gold.Chemscore.DEClash>
0.0641

> <Gold.Chemscore.DEInternal>
1.2767

> <Gold.Chemscore.Rot>
1.9207

> <Gold.Chemscore.Internal.Correction>
   9.000000E+99

> <Gold.Chemscore.Hbonds>
donor molecule, donor type, donor heavy atom, donor atom, acceptor molecule, acceptor atom, score
      L1  H    18    33       P1  8028  0.70
      P1  H  7997  8008       L1     3  0.65

> <Gold.Chemscore.Hbond.Weighted>
-7.7159

> <Gold.Chemscore.Metal.Weighted>
-0.0000

> <Gold.Chemscore.Lipo.Weighted>
-11.3053

> <Gold.Chemscore.Internal_Hbond.Weighted>
0.0000

> <Gold.Chemscore.DEClash.Weighted>
0.0641

> <Gold.Chemscore.DEInternal.Weighted>
1.2767

> <Gold.Chemscore.Rot.Weighted>
4.9169

> <Gold.Chemscore.Internal.Correction.Weighted>
   9.000000E+99

> <Gold.Protein.RotatedTorsions>
[ 6907 6896 6895 6894 ] final  172.91 input  -60.11 | X-H torsion
[ 7974 7965 7964 7962 ] final  150.49 input  175.53 | X-H torsion
[ 8008 7997 7996 7995 ] final  -52.48 input   59.86 | X-H torsion
[ 10167 10162 10161 10158 ] final   56.69 input  -65.29 | X-H torsion
[ 10718 10713 10712 10709 ] final -168.64 input   66.30 | X-H torsion
[ 10763 10752 10751 10750 ] final   44.23 input  -60.55 | X-H torsion
[ 11005 11000 10999 10996 ] final  178.94 input  -57.11 | X-H torsion

> <Gold.Protein.ActiveResidues>
 VAL166  LYS551  ARG553  GLY616  TRP617  ASP618  TYR619  PRO620  LYS621  CYS622 
 ASP623  PHE694  ASN695  SER759  ASP760  ASP761  ALA762  ILE779  LEU786  VAL792 
 PHE793  MET794  SER795  GLU796  ALA797  LYS798  CYS799  TRP800  GLU811  SER814 

> <Gold.Protein.RotatedAtoms>
  151.7768  133.3346  159.3459 H   0  0  0  0  0  0  0  0  0  0  0  0  # atno 6907 bound_to 6896
  150.7441  134.5967  159.6025 H   0  0  0  0  0  0  0  0  0  0  0  0  # atno 6908 bound_to 6896
  152.3303  134.7269  160.0342 H   0  0  0  0  0  0  0  0  0  0  0  0  # atno 6909 bound_to 6896
  144.8361  139.6415  143.6037 H   0  0  0  0  0  0  0  0  0  0  0  0  # atno 7974 bound_to 7965
  154.4108  140.1223  156.4998 H   0  0  0  0  0  0  0  0  0  0  0  0  # atno 8008 bound_to 7997
  155.6906  140.3495  155.4872 H   0  0  0  0  0  0  0  0  0  0  0  0  # atno 8009 bound_to 7997
  155.9472  140.1098  157.0997 H   0  0  0  0  0  0  0  0  0  0  0  0  # atno 8010 bound_to 7997
  140.2060  144.3938  150.6508 H   0  0  0  0  0  0  0  0  0  0  0  0  # atno 10167 bound_to 10162
  156.6999  130.9192  151.3078 H   0  0  0  0  0  0  0  0  0  0  0  0  # atno 10718 bound_to 10713
  152.9845  135.6077  154.3240 H   0  0  0  0  0  0  0  0  0  0  0  0  # atno 10763 bound_to 10752
  154.2947  135.2774  155.2640 H   0  0  0  0  0  0  0  0  0  0  0  0  # atno 10764 bound_to 10752
  154.4919  135.5890  153.6522 H   0  0  0  0  0  0  0  0  0  0  0  0  # atno 10765 bound_to 10752
  140.4006  134.6781  157.4560 H   0  0  0  0  0  0  0  0  0  0  0  0  # atno 11005 bound_to 11000
  146.2659  139.6519  142.9330 LP  0  0  0  0  0  0  0  0  0  0  0  0  # atno 17320 bound_to 7965
  145.4793  141.0437  143.2655 LP  0  0  0  0  0  0  0  0  0  0  0  0  # atno 17321 bound_to 7965
  140.6357  143.2194  151.6400 LP  0  0  0  0  0  0  0  0  0  0  0  0  # atno 17342 bound_to 10162
  139.5198  144.3242  152.0884 LP  0  0  0  0  0  0  0  0  0  0  0  0  # atno 17343 bound_to 10162
  157.6977  130.9299  150.0692 LP  0  0  0  0  0  0  0  0  0  0  0  0  # atno 17370 bound_to 10713
  156.1736  130.3647  149.9131 LP  0  0  0  0  0  0  0  0  0  0  0  0  # atno 17371 bound_to 10713
  140.0339  134.6366  155.9069 LP  0  0  0  0  0  0  0  0  0  0  0  0  # atno 17394 bound_to 11000
  141.1858  133.6556  156.5213 LP  0  0  0  0  0  0  0  0  0  0  0  0  # atno 17395 bound_to 11000

$$$$
