AV-unprocessed.smi:1893|AV-procd|sdf|7678|dock7
  -GOLD-   22720 9423D 1   1.00000     0.00000
 Structure written by MMmdl.
 43 44  0  0  0  0  0  0  0  0  2 V2000
  145.0703  135.6953  150.7505 C   0  0  0  0  0  0  0  0  0  0  0  0
  145.4781  134.5542  151.7068 C   0  0  1  0  0  0  0  0  0  0  0  0
  146.0510  133.3937  150.8617 C   0  0  0  0  0  0  0  0  0  0  0  0
  146.4903  132.2102  151.7263 C   0  0  0  0  0  0  0  0  0  0  0  0
  147.4964  132.6953  152.7686 C   0  0  0  0  0  0  0  0  0  0  0  0
  146.8949  133.8326  153.6046 C   0  0  0  0  0  0  0  0  0  0  0  0
  146.4589  134.9827  152.7594 N   0  3  2  0  0  0  0  0  0  0  0  0
  146.0006  136.1306  153.5949 C   0  0  0  0  0  0  0  0  0  0  0  0
  146.9966  136.4946  154.7110 C   0  0  0  0  0  0  0  0  0  0  0  0
  147.9703  137.4650  154.2308 N   0  0  0  0  0  0  0  0  0  0  0  0
  148.1591  138.6789  154.7702 C   0  0  0  0  0  0  0  0  0  0  0  0
  147.5052  139.0953  155.7271 O   0  0  0  0  0  0  0  0  0  0  0  0
  149.2580  139.5417  154.1308 C   0  0  1  0  0  0  0  0  0  0  0  0
  149.2147  141.0098  154.5941 C   0  0  0  0  0  0  0  0  0  0  0  0
  150.5667  138.9529  154.3799 N   0  0  0  0  0  0  0  0  0  0  0  0
  150.9986  137.6941  154.2604 C   0  0  0  0  0  0  0  0  0  0  0  0
  152.2781  137.5343  154.5677 N   0  0  0  0  0  0  0  0  0  0  0  0
  152.5974  138.8224  154.8916 C   0  0  0  0  0  0  0  0  0  0  0  0
  151.6102  139.7125  154.7907 N   0  0  0  0  0  0  0  0  0  0  0  0
  144.5126  135.3068  149.8977 H   0  0  0  0  0  0  0  0  0  0  0  0
  145.9429  136.2188  150.3585 H   0  0  0  0  0  0  0  0  0  0  0  0
  144.4156  136.4253  151.2245 H   0  0  0  0  0  0  0  0  0  0  0  0
  144.5788  134.1968  152.2114 H   0  0  0  0  0  0  0  0  0  0  0  0
  145.3069  133.0517  150.1412 H   0  0  0  0  0  0  0  0  0  0  0  0
  146.9017  133.7489  150.2775 H   0  0  0  0  0  0  0  0  0  0  0  0
  145.6251  131.7652  152.2195 H   0  0  0  0  0  0  0  0  0  0  0  0
  146.9343  131.4316  151.1053 H   0  0  0  0  0  0  0  0  0  0  0  0
  147.7874  131.8686  153.4175 H   0  0  0  0  0  0  0  0  0  0  0  0
  148.4072  133.0388  152.2758 H   0  0  0  0  0  0  0  0  0  0  0  0
  146.0448  133.4614  154.1793 H   0  0  0  0  0  0  0  0  0  0  0  0
  147.6464  134.1447  154.3271 H   0  0  0  0  0  0  0  0  0  0  0  0
  145.8839  137.0279  152.9923 H   0  0  0  0  0  0  0  0  0  0  0  0
  145.0154  135.9122  154.0104 H   0  0  0  0  0  0  0  0  0  0  0  0
  146.4950  136.9299  155.5746 H   0  0  0  0  0  0  0  0  0  0  0  0
  147.5129  135.5960  155.0531 H   0  0  0  0  0  0  0  0  0  0  0  0
  148.5470  137.1969  153.4461 H   0  0  0  0  0  0  0  0  0  0  0  0
  149.0852  139.5361  153.0528 H   0  0  0  0  0  0  0  0  0  0  0  0
  148.2428  141.4605  154.3896 H   0  0  0  0  0  0  0  0  0  0  0  0
  149.9654  141.6030  154.0714 H   0  0  0  0  0  0  0  0  0  0  0  0
  149.4073  141.1044  155.6637 H   0  0  0  0  0  0  0  0  0  0  0  0
  150.3651  136.8799  153.9393 H   0  0  0  0  0  0  0  0  0  0  0  0
  153.5887  139.1141  155.2066 H   0  0  0  0  0  0  0  0  0  0  0  0
  147.2762  135.3041  152.2604 H   0  0  0  0  0  0  0  0  0  0  0  0
  1  2  1  0  0  0  0
  1 20  1  0  0  0  0
  1 21  1  0  0  0  0
  1 22  1  0  0  0  0
  2  7  1  0  0  0  0
  2  3  1  0  0  0  0
  2 23  1  0  0  0  0
  3  4  1  0  0  0  0
  3 24  1  0  0  0  0
  3 25  1  0  0  0  0
  4  5  1  0  0  0  0
  4 26  1  0  0  0  0
  4 27  1  0  0  0  0
  5  6  1  0  0  0  0
  5 28  1  0  0  0  0
  5 29  1  0  0  0  0
  6  7  1  0  0  0  0
  6 30  1  0  0  0  0
  6 31  1  0  0  0  0
  7  8  1  0  0  0  0
  7 43  1  0  0  0  0
  8  9  1  0  0  0  0
  8 32  1  0  0  0  0
  8 33  1  0  0  0  0
  9 10  1  0  0  0  0
  9 34  1  0  0  0  0
  9 35  1  0  0  0  0
 10 11  1  0  0  0  0
 10 36  1  0  0  0  0
 11 12  2  0  0  0  0
 11 13  1  0  0  0  0
 13 14  1  0  0  0  0
 13 15  1  0  0  0  0
 13 37  1  0  0  0  0
 14 38  1  0  0  0  0
 14 39  1  0  0  0  0
 14 40  1  0  0  0  0
 15 19  1  0  0  0  0
 15 16  1  0  0  0  0
 16 17  2  0  0  0  0
 16 41  1  0  0  0  0
 17 18  1  0  0  0  0
 18 19  2  0  0  0  0
 18 42  1  0  0  0  0
M  CHG  1   7   1
M  END
> <s_m_source_file>
AV-unprocessed.smi

> <i_m_source_file_index>
1893

> <i_lp_mmshare_version>
43012

> <i_f3d_flags>
0

> <s_epik_input>
W0NIM11bQ0BASF0xW0NIMl1bQ0gyXVtDSDJdW0NIMl1OMVtDSDJdW0NIMl1bTkhdQyg9TylbQ0BIXShbQ0gzXSluMltjSF1uW2NIXW4y

> <s_epik_cmdline>
J2VwaWtfcHl0aG9uJywgJy1waCcsICc3LjAnLCAnLXRuJywgJzgnLCAnLW1hJywgJzIwMCcsICctbWV0YWxfYmluZGluZycsICctaW1hZScsICc8aW5maWxlLm1hZT4nLCAnLW9tYWUnLCAnPG91dGZpbGUubWFlPic=

> <r_lp_tautomer_probability>
1

> <r_epik_Ionization_Penalty>
0.00266409

> <r_epik_Ionization_Penalty_Charging>
0.00265606

> <r_epik_Ionization_Penalty_Neutral>
8.02794e-06

> <r_epik_State_Penalty>
0.00184955

> <r_epik_Charging_Adjusted_Penalty>
0.00450561

> <i_epik_Tot_Q>
1

> <i_epik_Tot_abs_Q>
1

> <r_epik_Metal_State_Penalty>
-0

> <b_epik_Metal_Only>
0

> <s_lp_Force_Field>
OPLS_2005

> <r_lp_Energy>
26.1161

> <b_lp_Chiralities_Consistent>
1

> <s_lp_Variant>
AV-unprocessed.smi:1893-8

> <Gold.Version>
5.8.1

> <Gold.Id.Protein>
6NUR|6NUR_protein|mol2

> <Gold.PLP.Fitness>
49.6671

> <Gold.PLP.PLP>
-33.8532

> <Gold.PLP.part.hbond>
-4.0000

> <Gold.PLP.part.metal>
0.0000

> <Gold.PLP.part.buried>
-2.4247

> <Gold.PLP.part.nonpolar>
-28.5934

> <Gold.PLP.part.repulsive>
0.1636

> <Gold.PLP.ligand.clash>
0.0000

> <Gold.PLP.ligand.torsion>
0.6350

> <Gold.PLP.Chemscore.Hbond>
4.7200

> <Gold.PLP.Chemscore.CHOScore>
0.9352

> <Gold.PLP.Chemscore.Metal>
0.0000

> <Gold.Chemscore.Hbonds>
donor molecule, donor type, donor heavy atom, donor atom, acceptor molecule, acceptor atom, score
      L1  H     7    43       P1  7948  2.00
      L1  H    10    36       P1  7948  1.00
      P1  H  7989  7998       L1    19  1.00
      P1  H 10752 10765       L1    17  0.72
      L1  C    16    41       P1  7948  0.78
      L1  C    16    41       P1  7949  0.13

> <Gold.PLP.Chemscore.Internal.Correction>
0.1182

> <Gold.Rescore>
     Score         DG    S(hbond)    S(metal)    S(lipo)     H(rot)  DE(clash)    DE(int)     intcor
     14.16     -15.84       3.18        0.00      53.16       2.54       0.15       1.53       ----

> <Gold.Chemscore.Fitness>
14.1583

> <Gold.Chemscore.DG>
-15.8392

> <Gold.Chemscore.ZeroCoef>
-5.4800

> <Gold.Chemscore.Hbond>
3.1845

> <Gold.Chemscore.Metal>
0.0000

> <Gold.Chemscore.Lipo>
53.1594

> <Gold.Chemscore.Internal_Hbond>
0.0000

> <Gold.Chemscore.DEClash>
0.1547

> <Gold.Chemscore.DEInternal>
1.5262

> <Gold.Chemscore.Rot>
2.5377

> <Gold.Chemscore.Internal.Correction>
   9.000000E+99

> <Gold.Chemscore.Hbonds>
donor molecule, donor type, donor heavy atom, donor atom, acceptor molecule, acceptor atom, score
      L1  H     7    43       P1  7948  0.99
      L1  H    10    36       P1  7948  0.98
      P1  H  7989  7998       L1    19  0.25
      P1  H 10752 10765       L1    17  0.61

> <Gold.Chemscore.Hbond.Weighted>
-10.6361

> <Gold.Chemscore.Metal.Weighted>
-0.0000

> <Gold.Chemscore.Lipo.Weighted>
-6.2197

> <Gold.Chemscore.Internal_Hbond.Weighted>
0.0000

> <Gold.Chemscore.DEClash.Weighted>
0.1547

> <Gold.Chemscore.DEInternal.Weighted>
1.5262

> <Gold.Chemscore.Rot.Weighted>
6.4966

> <Gold.Chemscore.Internal.Correction.Weighted>
   9.000000E+99

> <Gold.Protein.RotatedTorsions>
[ 6907 6896 6895 6894 ] final  -52.15 input  -60.11 | X-H torsion
[ 7974 7965 7964 7962 ] final   29.58 input  175.53 | X-H torsion
[ 8008 7997 7996 7995 ] final  -17.84 input   59.86 | X-H torsion
[ 10167 10162 10161 10158 ] final   39.15 input  -65.29 | X-H torsion
[ 10718 10713 10712 10709 ] final -137.09 input   66.30 | X-H torsion
[ 10763 10752 10751 10750 ] final  157.52 input  -60.55 | X-H torsion
[ 11005 11000 10999 10996 ] final   58.27 input  -57.11 | X-H torsion

> <Gold.Protein.ActiveResidues>
 VAL166  LYS551  ARG553  GLY616  TRP617  ASP618  TYR619  PRO620  LYS621  CYS622 
 ASP623  PHE694  ASN695  SER759  ASP760  ASP761  ALA762  ILE779  LEU786  VAL792 
 PHE793  MET794  SER795  GLU796  ALA797  LYS798  CYS799  TRP800  GLU811  SER814 

> <Gold.Protein.RotatedAtoms>
  150.8545  134.7879  159.7034 H   0  0  0  0  0  0  0  0  0  0  0  0  # atno 6907 bound_to 6896
  152.4600  134.5202  159.9790 H   0  0  0  0  0  0  0  0  0  0  0  0  # atno 6908 bound_to 6896
  151.5317  133.3410  159.2955 H   0  0  0  0  0  0  0  0  0  0  0  0  # atno 6909 bound_to 6896
  146.1663  139.6903  142.8998 H   0  0  0  0  0  0  0  0  0  0  0  0  # atno 7974 bound_to 7965
  154.4949  140.2132  155.9469 H   0  0  0  0  0  0  0  0  0  0  0  0  # atno 8008 bound_to 7997
  156.1356  140.3189  155.8384 H   0  0  0  0  0  0  0  0  0  0  0  0  # atno 8009 bound_to 7997
  155.4216  140.0497  157.3016 H   0  0  0  0  0  0  0  0  0  0  0  0  # atno 8010 bound_to 7997
  140.3867  144.1907  150.6130 H   0  0  0  0  0  0  0  0  0  0  0  0  # atno 10167 bound_to 10162
  156.2842  130.7338  151.1345 H   0  0  0  0  0  0  0  0  0  0  0  0  # atno 10718 bound_to 10713
  154.2016  135.2790  155.2989 H   0  0  0  0  0  0  0  0  0  0  0  0  # atno 10763 bound_to 10752
  154.5850  135.5578  153.7225 H   0  0  0  0  0  0  0  0  0  0  0  0  # atno 10764 bound_to 10752
  153.0086  135.6354  154.2155 H   0  0  0  0  0  0  0  0  0  0  0  0  # atno 10765 bound_to 10752
  140.0390  134.5902  155.9407 H   0  0  0  0  0  0  0  0  0  0  0  0  # atno 11005 bound_to 11000
  145.4458  141.0425  143.2832 LP  0  0  0  0  0  0  0  0  0  0  0  0  # atno 17320 bound_to 7965
  144.8097  139.5984  143.7035 LP  0  0  0  0  0  0  0  0  0  0  0  0  # atno 17321 bound_to 7965
  140.4882  143.2356  151.8857 LP  0  0  0  0  0  0  0  0  0  0  0  0  # atno 17342 bound_to 10162
  139.4791  144.5195  151.8821 LP  0  0  0  0  0  0  0  0  0  0  0  0  # atno 17343 bound_to 10162
  157.7323  131.0600  150.5632 LP  0  0  0  0  0  0  0  0  0  0  0  0  # atno 17370 bound_to 10713
  156.5741  130.4287  149.6006 LP  0  0  0  0  0  0  0  0  0  0  0  0  # atno 17371 bound_to 10713
  141.1873  133.6559  156.5274 LP  0  0  0  0  0  0  0  0  0  0  0  0  # atno 17394 bound_to 11000
  140.4101  134.7280  157.4831 LP  0  0  0  0  0  0  0  0  0  0  0  0  # atno 17395 bound_to 11000

$$$$
