AV-unprocessed.smi:333|AV-procd|sdf|2360|dock8
  -GOLD-   2262022273D 1   1.00000     0.00000
 Structure written by MMmdl.
 25 25  0  0  0  0  0  0  0  0  2 V2000
  150.1514  138.7969  154.4313 N   0  0  0  0  0  0  0  0  0  0  0  0
  151.2285  138.2704  155.0276 C   0  0  0  0  0  0  0  0  0  0  0  0
  151.6991  137.2231  154.5828 O   0  0  0  0  0  0  0  0  0  0  0  0
  151.7198  139.0520  156.1858 C   0  0  0  0  0  0  0  0  0  0  0  0
  151.1072  140.1748  156.6398 C   0  0  0  0  0  0  0  0  0  0  0  0
  151.6013  140.9334  157.7798 C   0  0  0  0  0  0  0  0  0  0  0  0
  150.8711  142.1928  158.2305 C   0  0  0  0  0  0  0  0  0  0  0  0
  151.4302  143.4728  157.5881 C   0  0  0  0  0  0  0  0  0  0  0  0
  150.6416  144.5933  157.9283 O   0  0  0  0  0  0  0  0  0  0  0  0
  152.7687  140.4296  158.3633 C   0  0  0  0  0  0  0  0  0  0  0  0
  153.4270  141.1316  159.5636 C   0  0  0  0  0  0  0  0  0  0  0  0
  153.6753  142.4106  159.2783 F   0  0  0  0  0  0  0  0  0  0  0  0
  152.6367  141.0834  160.6361 F   0  0  0  0  0  0  0  0  0  0  0  0
  154.5898  140.5677  159.9026 F   0  0  0  0  0  0  0  0  0  0  0  0
  153.3974  139.3025  157.9281 N   0  5  0  0  0  0  0  0  0  0  0  0
  152.9447  138.5755  156.8694 C   0  0  0  0  0  0  0  0  0  0  0  0
  153.5490  137.5628  156.5139 O   0  0  0  0  0  0  0  0  0  0  0  0
  149.7429  138.3321  153.6340 H   0  0  0  0  0  0  0  0  0  0  0  0
  149.7521  139.6541  154.7842 H   0  0  0  0  0  0  0  0  0  0  0  0
  150.2166  140.5532  156.1612 H   0  0  0  0  0  0  0  0  0  0  0  0
  149.8000  142.1288  158.0507 H   0  0  0  0  0  0  0  0  0  0  0  0
  150.9796  142.2635  159.3132 H   0  0  0  0  0  0  0  0  0  0  0  0
  152.4497  143.6488  157.9317 H   0  0  0  0  0  0  0  0  0  0  0  0
  151.4714  143.3791  156.5026 H   0  0  0  0  0  0  0  0  0  0  0  0
  150.2124  144.9075  157.1476 H   0  0  0  0  0  0  0  0  0  0  0  0
  1  2  1  0  0  0  0
  1 18  1  0  0  0  0
  1 19  1  0  0  0  0
  2  3  2  0  0  0  0
  2  4  1  0  0  0  0
  4 16  1  0  0  0  0
  4  5  2  0  0  0  0
  5  6  1  0  0  0  0
  5 20  1  0  0  0  0
  6  7  1  0  0  0  0
  6 10  2  0  0  0  0
  7  8  1  0  0  0  0
  7 21  1  0  0  0  0
  7 22  1  0  0  0  0
  8  9  1  0  0  0  0
  8 23  1  0  0  0  0
  8 24  1  0  0  0  0
  9 25  1  0  0  0  0
 10 11  1  0  0  0  0
 10 15  1  0  0  0  0
 11 12  1  0  0  0  0
 11 13  1  0  0  0  0
 11 14  1  0  0  0  0
 15 16  1  0  0  0  0
 16 17  2  0  0  0  0
M  CHG  1  15  -1
M  END
> <s_m_source_file>
AV-unprocessed.smi

> <i_m_source_file_index>
333

> <i_lp_mmshare_version>
43012

> <i_f3d_flags>
0

> <s_epik_input>
W05IMl1DKD1PKWMxW2NIXWMoW0NIMl1bQ0gyXVtPSF0pYyhDKEYpKEYpRilbbkhdYzE9Tw==

> <s_epik_cmdline>
J2VwaWtfcHl0aG9uJywgJy1waCcsICc3LjAnLCAnLXRuJywgJzgnLCAnLW1hJywgJzIwMCcsICctbWV0YWxfYmluZGluZycsICctaW1hZScsICc8aW5maWxlLm1hZT4nLCAnLW9tYWUnLCAnPG91dGZpbGUubWFlPic=

> <r_epik_Ionization_Penalty>
0.0673264

> <r_epik_Ionization_Penalty_Charging>
0.00196754

> <r_epik_Ionization_Penalty_Neutral>
0.0653589

> <r_epik_State_Penalty>
0.0569931

> <r_epik_Charging_Adjusted_Penalty>
0.0589607

> <i_epik_Tot_Q>
-1

> <i_epik_Tot_abs_Q>
1

> <r_epik_Metal_State_Penalty>
0.0511714

> <b_epik_Metal_Only>
0

> <s_lp_Force_Field>
OPLS_2005

> <r_lp_Energy>
33.2875

> <b_lp_Chiralities_Consistent>
1

> <s_lp_Variant>
AV-unprocessed.smi:333-1

> <Gold.Version>
5.8.1

> <Gold.Id.Protein>
6NUR|6NUR_protein|mol2

> <Gold.PLP.Fitness>
37.9603

> <Gold.PLP.PLP>
-27.1002

> <Gold.PLP.part.hbond>
-4.2861

> <Gold.PLP.part.metal>
0.0000

> <Gold.PLP.part.buried>
-2.5953

> <Gold.PLP.part.nonpolar>
-20.8119

> <Gold.PLP.part.repulsive>
0.2324

> <Gold.PLP.ligand.clash>
4.2377

> <Gold.PLP.ligand.torsion>
0.4629

> <Gold.PLP.Chemscore.Hbond>
3.8940

> <Gold.PLP.Chemscore.CHOScore>
0.0000

> <Gold.PLP.Chemscore.Metal>
0.0000

> <Gold.Chemscore.Hbonds>
donor molecule, donor type, donor heavy atom, donor atom, acceptor molecule, acceptor atom, score
      L1  H     9    25       P1  8028  0.95
      P1  H  7997  8008       L1    15  2.00
      P1  H 10752 10765       L1     3  0.89

> <Gold.PLP.Chemscore.Internal.Correction>
4.3417

> <Gold.Rescore>
     Score         DG    S(hbond)    S(metal)    S(lipo)     H(rot)  DE(clash)    DE(int)     intcor
      9.20     -12.58       2.01        0.00      49.62       2.11       0.70       2.69       ----

> <Gold.Chemscore.Fitness>
9.1952

> <Gold.Chemscore.DG>
-12.5844

> <Gold.Chemscore.ZeroCoef>
-5.4800

> <Gold.Chemscore.Hbond>
2.0050

> <Gold.Chemscore.Metal>
0.0000

> <Gold.Chemscore.Lipo>
49.6172

> <Gold.Chemscore.Internal_Hbond>
0.0000

> <Gold.Chemscore.DEClash>
0.6987

> <Gold.Chemscore.DEInternal>
2.6906

> <Gold.Chemscore.Rot>
2.1084

> <Gold.Chemscore.Internal.Correction>
   9.000000E+99

> <Gold.Chemscore.Hbonds>
donor molecule, donor type, donor heavy atom, donor atom, acceptor molecule, acceptor atom, score
      L1  H     9    25       P1  8028  0.21
      P1  H  7997  8008       L1    15  0.06
      P1  H 10752 10765       L1     3  0.82

> <Gold.Chemscore.Hbond.Weighted>
-6.6968

> <Gold.Chemscore.Metal.Weighted>
-0.0000

> <Gold.Chemscore.Lipo.Weighted>
-5.8052

> <Gold.Chemscore.Internal_Hbond.Weighted>
0.0000

> <Gold.Chemscore.DEClash.Weighted>
0.6987

> <Gold.Chemscore.DEInternal.Weighted>
2.6906

> <Gold.Chemscore.Rot.Weighted>
5.3976

> <Gold.Chemscore.Internal.Correction.Weighted>
   9.000000E+99

> <Gold.Protein.RotatedTorsions>
[ 6907 6896 6895 6894 ] final  -59.02 input  -60.11 | X-H torsion
[ 7974 7965 7964 7962 ] final  -82.92 input  175.53 | X-H torsion
[ 8008 7997 7996 7995 ] final -104.20 input   59.86 | X-H torsion
[ 10167 10162 10161 10158 ] final  149.69 input  -65.29 | X-H torsion
[ 10718 10713 10712 10709 ] final -138.37 input   66.30 | X-H torsion
[ 10763 10752 10751 10750 ] final  150.30 input  -60.55 | X-H torsion
[ 11005 11000 10999 10996 ] final  -44.92 input  -57.11 | X-H torsion

> <Gold.Protein.ActiveResidues>
 VAL166  LYS551  ARG553  GLY616  TRP617  ASP618  TYR619  PRO620  LYS621  CYS622 
 ASP623  PHE694  ASN695  SER759  ASP760  ASP761  ALA762  ILE779  LEU786  VAL792 
 PHE793  MET794  SER795  GLU796  ALA797  LYS798  CYS799  TRP800  GLU811  SER814 

> <Gold.Protein.RotatedAtoms>
  150.7962  134.7023  159.6556 H   0  0  0  0  0  0  0  0  0  0  0  0  # atno 6907 bound_to 6896
  152.4074  134.6179  160.0053 H   0  0  0  0  0  0  0  0  0  0  0  0  # atno 6908 bound_to 6896
  151.6433  133.3288  159.3171 H   0  0  0  0  0  0  0  0  0  0  0  0  # atno 6909 bound_to 6896
  145.5269  140.9525  143.1624 H   0  0  0  0  0  0  0  0  0  0  0  0  # atno 7974 bound_to 7965
  154.8819  140.0419  157.1787 H   0  0  0  0  0  0  0  0  0  0  0  0  # atno 8008 bound_to 7997
  154.8631  140.2947  155.5506 H   0  0  0  0  0  0  0  0  0  0  0  0  # atno 8009 bound_to 7997
  156.2998  140.2443  156.3608 H   0  0  0  0  0  0  0  0  0  0  0  0  # atno 8010 bound_to 7997
  139.4858  144.5581  151.7280 H   0  0  0  0  0  0  0  0  0  0  0  0  # atno 10167 bound_to 10162
  156.2986  130.7416  151.1461 H   0  0  0  0  0  0  0  0  0  0  0  0  # atno 10718 bound_to 10713
  154.0853  135.2856  155.3282 H   0  0  0  0  0  0  0  0  0  0  0  0  # atno 10763 bound_to 10752
  154.6656  135.5318  153.8076 H   0  0  0  0  0  0  0  0  0  0  0  0  # atno 10764 bound_to 10752
  153.0433  135.6545  154.1025 H   0  0  0  0  0  0  0  0  0  0  0  0  # atno 10765 bound_to 10752
  141.0482  133.6753  156.2941 H   0  0  0  0  0  0  0  0  0  0  0  0  # atno 11005 bound_to 11000
  144.7646  139.6875  143.7220 LP  0  0  0  0  0  0  0  0  0  0  0  0  # atno 17320 bound_to 7965
  146.2069  139.5400  142.9706 LP  0  0  0  0  0  0  0  0  0  0  0  0  # atno 17321 bound_to 7965
  140.5147  144.0972  150.6005 LP  0  0  0  0  0  0  0  0  0  0  0  0  # atno 17342 bound_to 10162
  140.3909  143.2753  152.0061 LP  0  0  0  0  0  0  0  0  0  0  0  0  # atno 17343 bound_to 10162
  157.7362  131.0565  150.5428 LP  0  0  0  0  0  0  0  0  0  0  0  0  # atno 17370 bound_to 10713
  156.5553  130.4242  149.6088 LP  0  0  0  0  0  0  0  0  0  0  0  0  # atno 17371 bound_to 10713
  140.6106  134.5462  157.5533 LP  0  0  0  0  0  0  0  0  0  0  0  0  # atno 17394 bound_to 11000
  139.9329  134.7930  156.0882 LP  0  0  0  0  0  0  0  0  0  0  0  0  # atno 17395 bound_to 11000

$$$$
