AV-unprocessed.smi:3241|AV-procd|sdf|12385|dock7
  -GOLD-   2272018253D 1   1.00000     0.00000
 Structure written by MMmdl.
 44 45  0  0  0  0  0  0  0  0  2 V2000
  149.9943  136.1362  154.9927 C   0  0  0  0  0  0  0  0  0  0  0  0
  150.4162  137.5941  154.7467 C   0  0  2  0  0  0  0  0  0  0  0  0
  151.8471  137.8397  155.2665 C   0  0  0  0  0  0  0  0  0  0  0  0
  152.2957  139.2906  155.0376 C   0  0  0  0  0  0  0  0  0  0  0  0
  151.3117  140.2786  155.6786 C   0  0  0  0  0  0  0  0  0  0  0  0
  149.8847  140.0506  155.1591 C   0  0  0  0  0  0  0  0  0  0  0  0
  149.4239  138.5940  155.3836 C   0  0  1  0  0  0  0  0  0  0  0  0
  148.1537  138.3927  154.7749 O   0  0  0  0  0  0  0  0  0  0  0  0
  148.0466  138.8892  153.4488 C   0  0  0  0  0  0  0  0  0  0  0  0
  146.6112  138.6672  152.9620 C   0  0  0  0  0  0  0  0  0  0  0  0
  146.5720  137.6921  151.8546 N   0  3  0  0  0  0  0  0  0  0  0  0
  145.5527  136.6382  152.0188 C   0  0  0  0  0  0  0  0  0  0  0  0
  145.2497  135.9514  150.6794 C   0  0  0  0  0  0  0  0  0  0  0  0
  145.3692  134.5095  150.7753 N   0  0  0  0  0  0  0  0  0  0  0  0
  144.4054  133.5505  150.5441 C   0  0  0  0  0  0  0  0  0  0  0  0
  144.9837  132.3330  150.7634 C   0  0  0  0  0  0  0  0  0  0  0  0
  146.3197  132.6546  151.1324 C   0  0  0  0  0  0  0  0  0  0  0  0
  146.5469  133.9586  151.1396 N   0  0  0  0  0  0  0  0  0  0  0  0
  149.9558  135.9093  156.0586 H   0  0  0  0  0  0  0  0  0  0  0  0
  150.6964  135.4420  154.5303 H   0  0  0  0  0  0  0  0  0  0  0  0
  149.0096  135.9298  154.5729 H   0  0  0  0  0  0  0  0  0  0  0  0
  150.4203  137.7602  153.6683 H   0  0  0  0  0  0  0  0  0  0  0  0
  151.8970  137.6094  156.3318 H   0  0  0  0  0  0  0  0  0  0  0  0
  152.5449  137.1624  154.7729 H   0  0  0  0  0  0  0  0  0  0  0  0
  153.2943  139.4404  155.4490 H   0  0  0  0  0  0  0  0  0  0  0  0
  152.3693  139.4875  153.9673 H   0  0  0  0  0  0  0  0  0  0  0  0
  151.3299  140.1628  156.7630 H   0  0  0  0  0  0  0  0  0  0  0  0
  151.6245  141.3023  155.4706 H   0  0  0  0  0  0  0  0  0  0  0  0
  149.2108  140.7493  155.6542 H   0  0  0  0  0  0  0  0  0  0  0  0
  149.8455  140.2863  154.0948 H   0  0  0  0  0  0  0  0  0  0  0  0
  149.3658  138.3880  156.4542 H   0  0  0  0  0  0  0  0  0  0  0  0
  148.2712  139.9568  153.4394 H   0  0  0  0  0  0  0  0  0  0  0  0
  148.7538  138.3994  152.7792 H   0  0  0  0  0  0  0  0  0  0  0  0
  145.9853  138.3213  153.7857 H   0  0  0  0  0  0  0  0  0  0  0  0
  146.1921  139.6121  152.6138 H   0  0  0  0  0  0  0  0  0  0  0  0
  146.3886  138.1879  150.9939 H   0  0  0  0  0  0  0  0  0  0  0  0
  145.9094  135.9026  152.7412 H   0  0  0  0  0  0  0  0  0  0  0  0
  144.6448  137.0815  152.4300 H   0  0  0  0  0  0  0  0  0  0  0  0
  144.2407  136.1938  150.3426 H   0  0  0  0  0  0  0  0  0  0  0  0
  145.9352  136.3049  149.9080 H   0  0  0  0  0  0  0  0  0  0  0  0
  143.4002  133.8097  150.2461 H   0  0  0  0  0  0  0  0  0  0  0  0
  144.5224  131.3606  150.6755 H   0  0  0  0  0  0  0  0  0  0  0  0
  147.1249  131.9841  151.3942 H   0  0  0  0  0  0  0  0  0  0  0  0
  147.4793  137.2530  151.7878 H   0  0  0  0  0  0  0  0  0  0  0  0
  1  2  1  0  0  0  0
  1 19  1  0  0  0  0
  1 20  1  0  0  0  0
  1 21  1  0  0  0  0
  2  7  1  0  0  0  0
  2  3  1  0  0  0  0
  2 22  1  0  0  0  0
  3  4  1  0  0  0  0
  3 23  1  0  0  0  0
  3 24  1  0  0  0  0
  4  5  1  0  0  0  0
  4 25  1  0  0  0  0
  4 26  1  0  0  0  0
  5  6  1  0  0  0  0
  5 27  1  0  0  0  0
  5 28  1  0  0  0  0
  6  7  1  0  0  0  0
  6 29  1  0  0  0  0
  6 30  1  0  0  0  0
  7  8  1  0  0  0  0
  7 31  1  0  0  0  0
  8  9  1  0  0  0  0
  9 10  1  0  0  0  0
  9 32  1  0  0  0  0
  9 33  1  0  0  0  0
 10 11  1  0  0  0  0
 10 34  1  0  0  0  0
 10 35  1  0  0  0  0
 11 12  1  0  0  0  0
 11 36  1  0  0  0  0
 11 44  1  0  0  0  0
 12 13  1  0  0  0  0
 12 37  1  0  0  0  0
 12 38  1  0  0  0  0
 13 14  1  0  0  0  0
 13 39  1  0  0  0  0
 13 40  1  0  0  0  0
 14 18  1  0  0  0  0
 14 15  1  0  0  0  0
 15 16  2  0  0  0  0
 15 41  1  0  0  0  0
 16 17  1  0  0  0  0
 16 42  1  0  0  0  0
 17 18  2  0  0  0  0
 17 43  1  0  0  0  0
M  CHG  1  11   1
M  END
> <s_m_source_file>
AV-unprocessed.smi

> <i_m_source_file_index>
3241

> <i_lp_mmshare_version>
43012

> <i_f3d_flags>
0

> <s_epik_input>
W0NIM11bQ0BASF0xW0NIMl1bQ0gyXVtDSDJdW0NIMl1bQ0BIXTFPW0NIMl1bQ0gyXVtOSF1bQ0gyXVtDSDJdbjJbY0hdW2NIXVtjSF1uMg==

> <s_epik_cmdline>
J2VwaWtfcHl0aG9uJywgJy1waCcsICc3LjAnLCAnLXRuJywgJzgnLCAnLW1hJywgJzIwMCcsICctbWV0YWxfYmluZGluZycsICctaW1hZScsICc8aW5maWxlLm1hZT4nLCAnLW9tYWUnLCAnPG91dGZpbGUubWFlPic=

> <r_lp_tautomer_probability>
1

> <r_epik_Ionization_Penalty>
0.00924946

> <r_epik_Ionization_Penalty_Charging>
0.00924645

> <r_epik_Ionization_Penalty_Neutral>
3.00629e-06

> <r_epik_State_Penalty>
0.0070118

> <r_epik_Charging_Adjusted_Penalty>
0.0162583

> <i_epik_Tot_Q>
1

> <i_epik_Tot_abs_Q>
1

> <r_epik_Metal_State_Penalty>
0.00702523

> <b_epik_Metal_Only>
0

> <s_lp_Force_Field>
OPLS_2005

> <r_lp_Energy>
13.7412

> <b_lp_Chiralities_Consistent>
1

> <s_lp_Variant>
AV-unprocessed.smi:3241-1

> <Gold.Version>
5.8.1

> <Gold.Id.Protein>
6NUR|6NUR_protein|mol2

> <Gold.PLP.Fitness>
42.5760

> <Gold.PLP.PLP>
-32.9711

> <Gold.PLP.part.hbond>
-1.0000

> <Gold.PLP.part.metal>
0.0000

> <Gold.PLP.part.buried>
-0.2537

> <Gold.PLP.part.nonpolar>
-31.6276

> <Gold.PLP.part.repulsive>
0.3907

> <Gold.PLP.ligand.clash>
0.0000

> <Gold.PLP.ligand.torsion>
1.2399

> <Gold.PLP.Chemscore.Hbond>
2.0000

> <Gold.PLP.Chemscore.CHOScore>
2.0000

> <Gold.PLP.Chemscore.Metal>
0.0000

> <Gold.Chemscore.Hbonds>
donor molecule, donor type, donor heavy atom, donor atom, acceptor molecule, acceptor atom, score
      L1  H    11    44       P1  7948  2.00
      L1  C    15    41       P1 10186  0.91
      L1  C    17    43       P1 10747  1.00

> <Gold.PLP.Chemscore.Internal.Correction>
0.0848

> <Gold.Rescore>
     Score         DG    S(hbond)    S(metal)    S(lipo)     H(rot)  DE(clash)    DE(int)     intcor
     13.09     -14.48       1.00        0.00      89.74       1.89       0.18       1.20       ----

> <Gold.Chemscore.Fitness>
13.0920

> <Gold.Chemscore.DG>
-14.4791

> <Gold.Chemscore.ZeroCoef>
-5.4800

> <Gold.Chemscore.Hbond>
1.0000

> <Gold.Chemscore.Metal>
0.0000

> <Gold.Chemscore.Lipo>
89.7359

> <Gold.Chemscore.Internal_Hbond>
0.0000

> <Gold.Chemscore.DEClash>
0.1835

> <Gold.Chemscore.DEInternal>
1.2036

> <Gold.Chemscore.Rot>
1.8906

> <Gold.Chemscore.Internal.Correction>
   9.000000E+99

> <Gold.Chemscore.Hbonds>
donor molecule, donor type, donor heavy atom, donor atom, acceptor molecule, acceptor atom, score
      L1  H    11    44       P1  7948  1.00

> <Gold.Chemscore.Hbond.Weighted>
-3.3400

> <Gold.Chemscore.Metal.Weighted>
-0.0000

> <Gold.Chemscore.Lipo.Weighted>
-10.4991

> <Gold.Chemscore.Internal_Hbond.Weighted>
0.0000

> <Gold.Chemscore.DEClash.Weighted>
0.1835

> <Gold.Chemscore.DEInternal.Weighted>
1.2036

> <Gold.Chemscore.Rot.Weighted>
4.8400

> <Gold.Chemscore.Internal.Correction.Weighted>
   9.000000E+99

> <Gold.Protein.RotatedTorsions>
[ 6907 6896 6895 6894 ] final -123.72 input  -60.11 | X-H torsion
[ 7974 7965 7964 7962 ] final  144.37 input  175.53 | X-H torsion
[ 8008 7997 7996 7995 ] final  108.30 input   59.86 | X-H torsion
[ 10167 10162 10161 10158 ] final   57.65 input  -65.29 | X-H torsion
[ 10718 10713 10712 10709 ] final -170.07 input   66.30 | X-H torsion
[ 10763 10752 10751 10750 ] final -102.57 input  -60.55 | X-H torsion
[ 11005 11000 10999 10996 ] final  -36.13 input  -57.11 | X-H torsion

> <Gold.Protein.ActiveResidues>
 VAL166  LYS551  ARG553  GLY616  TRP617  ASP618  TYR619  PRO620  LYS621  CYS622 
 ASP623  PHE694  ASN695  SER759  ASP760  ASP761  ALA762  ILE779  LEU786  VAL792 
 PHE793  MET794  SER795  GLU796  ALA797  LYS798  CYS799  TRP800  GLU811  SER814 

> <Gold.Protein.RotatedAtoms>
  150.8698  133.7522  159.2964 H   0  0  0  0  0  0  0  0  0  0  0  0  # atno 6907 bound_to 6896
  151.5137  135.1064  159.9870 H   0  0  0  0  0  0  0  0  0  0  0  0  # atno 6908 bound_to 6896
  152.4687  133.7935  159.6970 H   0  0  0  0  0  0  0  0  0  0  0  0  # atno 6909 bound_to 6896
  144.8841  139.5655  143.5829 H   0  0  0  0  0  0  0  0  0  0  0  0  # atno 7974 bound_to 7965
  156.1892  140.3079  155.9299 H   0  0  0  0  0  0  0  0  0  0  0  0  # atno 8008 bound_to 7997
  155.3211  140.0456  157.3056 H   0  0  0  0  0  0  0  0  0  0  0  0  # atno 8009 bound_to 7997
  154.5432  140.2268  155.8615 H   0  0  0  0  0  0  0  0  0  0  0  0  # atno 8010 bound_to 7997
  140.1957  144.4040  150.6551 H   0  0  0  0  0  0  0  0  0  0  0  0  # atno 10167 bound_to 10162
  156.7208  130.9269  151.3097 H   0  0  0  0  0  0  0  0  0  0  0  0  # atno 10718 bound_to 10713
  154.7743  135.4856  153.9713 H   0  0  0  0  0  0  0  0  0  0  0  0  # atno 10763 bound_to 10752
  153.1409  135.6772  153.9037 H   0  0  0  0  0  0  0  0  0  0  0  0  # atno 10764 bound_to 10752
  153.8711  135.3143  155.3420 H   0  0  0  0  0  0  0  0  0  0  0  0  # atno 10765 bound_to 10752
  140.9851  133.7035  156.1751 H   0  0  0  0  0  0  0  0  0  0  0  0  # atno 11005 bound_to 11000
  146.3013  139.7436  142.9089 LP  0  0  0  0  0  0  0  0  0  0  0  0  # atno 17320 bound_to 7965
  145.3901  141.0371  143.3129 LP  0  0  0  0  0  0  0  0  0  0  0  0  # atno 17321 bound_to 7965
  140.6425  143.2206  151.6258 LP  0  0  0  0  0  0  0  0  0  0  0  0  # atno 17342 bound_to 10162
  139.5238  144.3123  152.0982 LP  0  0  0  0  0  0  0  0  0  0  0  0  # atno 17343 bound_to 10162
  157.6898  130.9222  150.0484 LP  0  0  0  0  0  0  0  0  0  0  0  0  # atno 17370 bound_to 10713
  156.1595  130.3643  149.9319 LP  0  0  0  0  0  0  0  0  0  0  0  0  # atno 17371 bound_to 10713
  140.7127  134.4444  157.5580 LP  0  0  0  0  0  0  0  0  0  0  0  0  # atno 17394 bound_to 11000
  139.8967  134.8654  156.2077 LP  0  0  0  0  0  0  0  0  0  0  0  0  # atno 17395 bound_to 11000

$$$$
