AV-unprocessed.smi:2438|AV-procd|sdf|9600|dock4
  -GOLD-   2272013233D 1   1.00000     0.00000
 Structure written by MMmdl.
 44 45  0  0  0  0  0  0  0  0  2 V2000
  146.6628  133.1770  152.4640 C   0  0  0  0  0  0  0  0  0  0  0  0
  145.2267  133.4150  152.5115 N   0  0  0  0  0  0  0  0  0  0  0  0
  144.4058  132.5689  151.6540 C   0  0  0  0  0  0  0  0  0  0  0  0
  144.8845  134.7812  152.5609 C   0  0  0  0  0  0  0  0  0  0  0  0
  145.1814  135.5490  151.4872 N   0  0  0  0  0  0  0  0  0  0  0  0
  144.8882  136.8528  151.5005 C   0  0  0  0  0  0  0  0  0  0  0  0
  144.2999  137.4544  152.5420 N   0  3  0  0  0  0  0  0  0  0  0  0
  143.9787  136.7307  153.6408 C   0  0  0  0  0  0  0  0  0  0  0  0
  144.2644  135.3453  153.7024 C   0  0  0  0  0  0  0  0  0  0  0  0
  143.9226  134.5110  154.8068 N   0  0  0  0  0  0  0  0  0  0  0  0
  143.8805  134.8105  156.1159 C   0  0  0  0  0  0  0  0  0  0  0  0
  144.1522  135.9071  156.6029 O   0  0  0  0  0  0  0  0  0  0  0  0
  143.5088  133.7450  156.8398 N   0  0  0  0  0  0  0  0  0  0  0  0
  143.3485  133.7080  158.2913 C   0  0  1  0  0  0  0  0  0  0  0  0
  142.6605  132.3946  158.7049 C   0  0  0  0  0  0  0  0  0  0  0  0
  142.5487  132.2821  160.2324 C   0  0  0  0  0  0  0  0  0  0  0  0
  143.9238  132.4222  160.9040 C   0  0  0  0  0  0  0  0  0  0  0  0
  144.6200  133.7417  160.5084 C   0  0  1  0  0  0  0  0  0  0  0  0
  145.9935  133.8986  161.1930 C   0  0  0  0  0  0  0  0  0  0  0  0
  145.8650  133.9018  162.5201 F   0  0  0  0  0  0  0  0  0  0  0  0
  146.7971  132.8952  160.8403 F   0  0  0  0  0  0  0  0  0  0  0  0
  146.5652  135.0413  160.8131 F   0  0  0  0  0  0  0  0  0  0  0  0
  144.7239  133.8464  158.9712 C   0  0  0  0  0  0  0  0  0  0  0  0
  147.1921  133.7282  153.2413 H   0  0  0  0  0  0  0  0  0  0  0  0
  147.0668  133.4791  151.4971 H   0  0  0  0  0  0  0  0  0  0  0  0
  146.8759  132.1169  152.6045 H   0  0  0  0  0  0  0  0  0  0  0  0
  143.3450  132.7749  151.8040 H   0  0  0  0  0  0  0  0  0  0  0  0
  144.5775  131.5177  151.8863 H   0  0  0  0  0  0  0  0  0  0  0  0
  144.6460  132.7279  150.6019 H   0  0  0  0  0  0  0  0  0  0  0  0
  145.1203  137.4727  150.6469 H   0  0  0  0  0  0  0  0  0  0  0  0
  143.4902  137.3013  154.4149 H   0  0  0  0  0  0  0  0  0  0  0  0
  143.7192  133.5508  154.5682 H   0  0  0  0  0  0  0  0  0  0  0  0
  143.3122  132.8864  156.3463 H   0  0  0  0  0  0  0  0  0  0  0  0
  142.7235  134.5382  158.6255 H   0  0  0  0  0  0  0  0  0  0  0  0
  141.6672  132.3349  158.2584 H   0  0  0  0  0  0  0  0  0  0  0  0
  143.2242  131.5431  158.3205 H   0  0  0  0  0  0  0  0  0  0  0  0
  141.8773  133.0553  160.6081 H   0  0  0  0  0  0  0  0  0  0  0  0
  142.0997  131.3257  160.5019 H   0  0  0  0  0  0  0  0  0  0  0  0
  143.8027  132.3713  161.9864 H   0  0  0  0  0  0  0  0  0  0  0  0
  144.5512  131.5747  160.6251 H   0  0  0  0  0  0  0  0  0  0  0  0
  143.9905  134.5637  160.8533 H   0  0  0  0  0  0  0  0  0  0  0  0
  145.3979  133.0739  158.5978 H   0  0  0  0  0  0  0  0  0  0  0  0
  145.1697  134.8027  158.6949 H   0  0  0  0  0  0  0  0  0  0  0  0
  144.0848  138.4516  152.5149 H   0  0  0  0  0  0  0  0  0  0  0  0
  1  2  1  0  0  0  0
  1 24  1  0  0  0  0
  1 25  1  0  0  0  0
  1 26  1  0  0  0  0
  2  3  1  0  0  0  0
  2  4  1  0  0  0  0
  3 27  1  0  0  0  0
  3 28  1  0  0  0  0
  3 29  1  0  0  0  0
  4  9  1  0  0  0  0
  4  5  2  0  0  0  0
  5  6  1  0  0  0  0
  6  7  2  0  0  0  0
  6 30  1  0  0  0  0
  7  8  1  0  0  0  0
  7 44  1  0  0  0  0
  8  9  2  0  0  0  0
  8 31  1  0  0  0  0
  9 10  1  0  0  0  0
 10 11  1  0  0  0  0
 10 32  1  0  0  0  0
 11 12  2  0  0  0  0
 11 13  1  0  0  0  0
 13 14  1  0  0  0  0
 13 33  1  0  0  0  0
 14 23  1  0  0  0  0
 14 15  1  0  0  0  0
 14 34  1  0  0  0  0
 15 16  1  0  0  0  0
 15 35  1  0  0  0  0
 15 36  1  0  0  0  0
 16 17  1  0  0  0  0
 16 37  1  0  0  0  0
 16 38  1  0  0  0  0
 17 18  1  0  0  0  0
 17 39  1  0  0  0  0
 17 40  1  0  0  0  0
 18 19  1  0  0  0  0
 18 23  1  0  0  0  0
 18 41  1  0  0  0  0
 19 20  1  0  0  0  0
 19 21  1  0  0  0  0
 19 22  1  0  0  0  0
 23 42  1  0  0  0  0
 23 43  1  0  0  0  0
M  CHG  1   7   1
M  END
> <s_m_source_file>
AV-unprocessed.smi

> <i_m_source_file_index>
2438

> <i_lp_mmshare_version>
43012

> <i_f3d_flags>
0

> <s_epik_input>
W0NIM11OKFtDSDNdKWMxbltjSF1uW2NIXWMxW05IXUMoPU8pW05IXVtDQEBIXTJbQ0gyXVtDSDJdW0NIMl1bQ0BASF0oQyhGKShGKUYpW0NIMl0y

> <s_epik_cmdline>
J2VwaWtfcHl0aG9uJywgJy1waCcsICc3LjAnLCAnLXRuJywgJzgnLCAnLW1hJywgJzIwMCcsICctbWV0YWxfYmluZGluZycsICctaW1hZScsICc8aW5maWxlLm1hZT4nLCAnLW9tYWUnLCAnPG91dGZpbGUubWFlPic=

> <r_lp_tautomer_probability>
0.999336

> <r_epik_Ionization_Penalty>
2.11643

> <r_epik_Ionization_Penalty_Charging>
2.11639

> <r_epik_Ionization_Penalty_Neutral>
4.47523e-05

> <r_epik_State_Penalty>
2.25369

> <r_epik_Charging_Adjusted_Penalty>
4.37008

> <i_epik_Tot_Q>
1

> <i_epik_Tot_abs_Q>
1

> <r_epik_Metal_State_Penalty>
2.27019

> <b_epik_Metal_Only>
0

> <s_lp_Force_Field>
OPLS_2005

> <r_lp_Energy>
18.5988

> <b_lp_Chiralities_Consistent>
1

> <s_lp_Variant>
AV-unprocessed.smi:2438-6

> <Gold.Version>
5.8.1

> <Gold.Id.Protein>
6NUR|6NUR_protein|mol2

> <Gold.PLP.Fitness>
35.8449

> <Gold.PLP.PLP>
-23.4391

> <Gold.PLP.part.hbond>
-4.3312

> <Gold.PLP.part.metal>
0.0000

> <Gold.PLP.part.buried>
-1.6158

> <Gold.PLP.part.nonpolar>
-17.8883

> <Gold.PLP.part.repulsive>
0.2989

> <Gold.PLP.ligand.clash>
0.0000

> <Gold.PLP.ligand.torsion>
0.5079

> <Gold.PLP.Chemscore.Hbond>
3.8275

> <Gold.PLP.Chemscore.CHOScore>
0.5250

> <Gold.PLP.Chemscore.Metal>
0.0000

> <Gold.Chemscore.Hbonds>
donor molecule, donor type, donor heavy atom, donor atom, acceptor molecule, acceptor atom, score
      L1  H     7    44       P1 10175  1.98
      L1  H    10    32       P1 10957  0.86
      L1  H    13    33       P1 10957  1.00
      L1  C     6    30       P1 10171  0.52

> <Gold.PLP.Chemscore.Internal.Correction>
0.3643

> <Gold.Rescore>
     Score         DG    S(hbond)    S(metal)    S(lipo)     H(rot)  DE(clash)    DE(int)     intcor
     14.52     -16.58       2.94        0.00      39.58       1.31       1.52       0.54       ----

> <Gold.Chemscore.Fitness>
14.5190

> <Gold.Chemscore.DG>
-16.5756

> <Gold.Chemscore.ZeroCoef>
-5.4800

> <Gold.Chemscore.Hbond>
2.9380

> <Gold.Chemscore.Metal>
0.0000

> <Gold.Chemscore.Lipo>
39.5791

> <Gold.Chemscore.Internal_Hbond>
0.0000

> <Gold.Chemscore.DEClash>
1.5171

> <Gold.Chemscore.DEInternal>
0.5395

> <Gold.Chemscore.Rot>
1.3078

> <Gold.Chemscore.Internal.Correction>
   9.000000E+99

> <Gold.Chemscore.Hbonds>
donor molecule, donor type, donor heavy atom, donor atom, acceptor molecule, acceptor atom, score
      L1  H     7    44       P1 10175  0.92
      L1  H    10    32       P1 10957  0.81
      L1  H    13    33       P1 10957  0.96

> <Gold.Chemscore.Hbond.Weighted>
-9.8129

> <Gold.Chemscore.Metal.Weighted>
-0.0000

> <Gold.Chemscore.Lipo.Weighted>
-4.6308

> <Gold.Chemscore.Internal_Hbond.Weighted>
0.0000

> <Gold.Chemscore.DEClash.Weighted>
1.5171

> <Gold.Chemscore.DEInternal.Weighted>
0.5395

> <Gold.Chemscore.Rot.Weighted>
3.3481

> <Gold.Chemscore.Internal.Correction.Weighted>
   9.000000E+99

> <Gold.Protein.RotatedTorsions>
[ 6907 6896 6895 6894 ] final  129.97 input  -60.11 | X-H torsion
[ 7974 7965 7964 7962 ] final   46.96 input  175.53 | X-H torsion
[ 8008 7997 7996 7995 ] final   46.38 input   59.86 | X-H torsion
[ 10167 10162 10161 10158 ] final   67.45 input  -65.29 | X-H torsion
[ 10718 10713 10712 10709 ] final -172.73 input   66.30 | X-H torsion
[ 10763 10752 10751 10750 ] final  -78.21 input  -60.55 | X-H torsion
[ 11005 11000 10999 10996 ] final   11.33 input  -57.11 | X-H torsion

> <Gold.Protein.ActiveResidues>
 VAL166  LYS551  ARG553  GLY616  TRP617  ASP618  TYR619  PRO620  LYS621  CYS622 
 ASP623  PHE694  ASN695  SER759  ASP760  ASP761  ALA762  ILE779  LEU786  VAL792 
 PHE793  MET794  SER795  GLU796  ALA797  LYS798  CYS799  TRP800  GLU811  SER814 

> <Gold.Protein.RotatedAtoms>
  152.3572  133.6252  159.5987 H   0  0  0  0  0  0  0  0  0  0  0  0  # atno 6907 bound_to 6896
  150.7577  133.9481  159.3486 H   0  0  0  0  0  0  0  0  0  0  0  0  # atno 6908 bound_to 6896
  151.7324  135.0873  160.0353 H   0  0  0  0  0  0  0  0  0  0  0  0  # atno 6909 bound_to 6896
  146.0341  139.4799  142.9819 H   0  0  0  0  0  0  0  0  0  0  0  0  # atno 7974 bound_to 7965
  155.3515  140.3413  155.4239 H   0  0  0  0  0  0  0  0  0  0  0  0  # atno 8008 bound_to 7997
  156.1761  140.1648  156.8394 H   0  0  0  0  0  0  0  0  0  0  0  0  # atno 8009 bound_to 7997
  154.5284  140.0751  156.8283 H   0  0  0  0  0  0  0  0  0  0  0  0  # atno 8010 bound_to 7997
  140.0894  144.5001  150.7108 H   0  0  0  0  0  0  0  0  0  0  0  0  # atno 10167 bound_to 10162
  156.7598  130.9409  151.3117 H   0  0  0  0  0  0  0  0  0  0  0  0  # atno 10718 bound_to 10713
  154.5229  135.5737  153.6696 H   0  0  0  0  0  0  0  0  0  0  0  0  # atno 10763 bound_to 10752
  152.9921  135.6186  154.2730 H   0  0  0  0  0  0  0  0  0  0  0  0  # atno 10764 bound_to 10752
  154.2652  135.2855  155.2741 H   0  0  0  0  0  0  0  0  0  0  0  0  # atno 10765 bound_to 10752
  140.5044  134.0714  155.7802 H   0  0  0  0  0  0  0  0  0  0  0  0  # atno 11005 bound_to 11000
  145.6992  141.0141  143.1513 LP  0  0  0  0  0  0  0  0  0  0  0  0  # atno 17320 bound_to 7965
  144.7044  139.8624  143.7434 LP  0  0  0  0  0  0  0  0  0  0  0  0  # atno 17321 bound_to 7965
  140.7036  143.2452  151.4792 LP  0  0  0  0  0  0  0  0  0  0  0  0  # atno 17342 bound_to 10162
  139.5733  144.1877  152.1868 LP  0  0  0  0  0  0  0  0  0  0  0  0  # atno 17343 bound_to 10162
  157.6739  130.9077  150.0105 LP  0  0  0  0  0  0  0  0  0  0  0  0  # atno 17370 bound_to 10713
  156.1346  130.3643  149.9677 LP  0  0  0  0  0  0  0  0  0  0  0  0  # atno 17371 bound_to 10713
  141.1418  133.9124  157.2307 LP  0  0  0  0  0  0  0  0  0  0  0  0  # atno 17394 bound_to 11000
  139.9694  135.0132  156.9474 LP  0  0  0  0  0  0  0  0  0  0  0  0  # atno 17395 bound_to 11000

$$$$
