AV-unprocessed.smi:1867|AV-procd|sdf|7565|dock3
  -GOLD-   22720 9283D 1   1.00000     0.00000
 Structure written by MMmdl.
 52 55  0  0  0  0  0  0  0  0  2 V2000
  149.1721  135.1447  156.1310 O   0  0  0  0  0  0  0  0  0  0  0  0
  149.2278  135.5525  154.9734 C   0  0  0  0  0  0  0  0  0  0  0  0
  149.7213  136.7507  154.6058 N   0  0  0  0  0  0  0  0  0  0  0  0
  150.2841  137.7656  155.4236 C   0  0  0  0  0  0  0  0  0  0  0  0
  150.4130  139.0579  154.8796 C   0  0  0  0  0  0  0  0  0  0  0  0
  150.9881  140.0789  155.6590 C   0  0  0  0  0  0  0  0  0  0  0  0
  151.4308  139.7763  156.9684 C   0  0  0  0  0  0  0  0  0  0  0  0
  152.0211  140.7649  157.7800 N   0  0  0  0  0  0  0  0  0  0  0  0
  152.6284  140.4453  159.0625 C   0  0  0  0  0  0  0  0  0  0  0  0
  153.0197  141.7995  159.6515 C   0  0  0  0  0  0  0  0  0  0  0  0
  151.9381  142.7366  159.1139 C   0  0  0  0  0  0  0  0  0  0  0  0
  151.5888  142.1550  157.7389 C   0  0  0  0  0  0  0  0  0  0  0  0
  151.3249  138.5291  157.4850 N   0  0  0  0  0  0  0  0  0  0  0  0
  150.7689  137.5539  156.7358 C   0  0  0  0  0  0  0  0  0  0  0  0
  148.7568  134.8110  153.9543 N   0  0  0  0  0  0  0  0  0  0  0  0
  148.1571  133.4752  153.9923 C   0  0  1  0  0  0  0  0  0  0  0  0
  147.1636  133.2429  152.8598 C   0  0  0  0  0  0  0  0  0  0  0  0
  147.0822  131.7166  152.8061 C   0  0  0  0  0  0  0  0  0  0  0  0
  148.4306  131.2243  153.1694 N   0  3  2  0  0  0  0  0  0  0  0  0
  148.4358  129.9615  153.9478 C   0  0  0  0  0  0  0  0  0  0  0  0
  149.8772  129.5179  154.2584 C   0  0  0  0  0  0  0  0  0  0  0  0
  150.7441  130.6483  154.8514 C   0  0  0  0  0  0  0  0  0  0  0  0
  149.9520  131.9485  155.0579 C   0  0  0  0  0  0  0  0  0  0  0  0
  149.1905  132.3551  153.7752 C   0  0  2  0  0  0  0  0  0  0  0  0
  149.6272  136.9872  153.6295 H   0  0  0  0  0  0  0  0  0  0  0  0
  150.0738  139.2690  153.8759 H   0  0  0  0  0  0  0  0  0  0  0  0
  151.0901  141.0697  155.2420 H   0  0  0  0  0  0  0  0  0  0  0  0
  151.8963  139.9456  159.6981 H   0  0  0  0  0  0  0  0  0  0  0  0
  153.4926  139.7904  158.9479 H   0  0  0  0  0  0  0  0  0  0  0  0
  153.0751  141.7886  160.7403 H   0  0  0  0  0  0  0  0  0  0  0  0
  153.9940  142.1022  159.2658 H   0  0  0  0  0  0  0  0  0  0  0  0
  151.0626  142.6898  159.7629 H   0  0  0  0  0  0  0  0  0  0  0  0
  152.2620  143.7764  159.0638 H   0  0  0  0  0  0  0  0  0  0  0  0
  152.1376  142.6707  156.9505 H   0  0  0  0  0  0  0  0  0  0  0  0
  150.5219  142.2502  157.5345 H   0  0  0  0  0  0  0  0  0  0  0  0
  150.7418  136.5836  157.2062 H   0  0  0  0  0  0  0  0  0  0  0  0
  148.8164  135.2341  153.0391 H   0  0  0  0  0  0  0  0  0  0  0  0
  147.6206  133.3105  154.9290 H   0  0  0  0  0  0  0  0  0  0  0  0
  146.1956  133.7117  153.0396 H   0  0  0  0  0  0  0  0  0  0  0  0
  147.5581  133.6285  151.9183 H   0  0  0  0  0  0  0  0  0  0  0  0
  146.3497  131.3707  153.5374 H   0  0  0  0  0  0  0  0  0  0  0  0
  146.7741  131.3482  151.8274 H   0  0  0  0  0  0  0  0  0  0  0  0
  147.8779  130.0993  154.8754 H   0  0  0  0  0  0  0  0  0  0  0  0
  147.9187  129.1842  153.3841 H   0  0  0  0  0  0  0  0  0  0  0  0
  149.8549  128.6690  154.9425 H   0  0  0  0  0  0  0  0  0  0  0  0
  150.3467  129.1522  153.3442 H   0  0  0  0  0  0  0  0  0  0  0  0
  151.1845  130.3286  155.7962 H   0  0  0  0  0  0  0  0  0  0  0  0
  151.5810  130.8452  154.1805 H   0  0  0  0  0  0  0  0  0  0  0  0
  149.2523  131.8159  155.8843 H   0  0  0  0  0  0  0  0  0  0  0  0
  150.6302  132.7463  155.3617 H   0  0  0  0  0  0  0  0  0  0  0  0
  149.9119  132.6700  153.0192 H   0  0  0  0  0  0  0  0  0  0  0  0
  148.9039  131.0200  152.3006 H   0  0  0  0  0  0  0  0  0  0  0  0
  1  2  2  0  0  0  0
  2  3  1  0  0  0  0
  2 15  1  0  0  0  0
  3  4  1  0  0  0  0
  3 25  1  0  0  0  0
  4 14  1  0  0  0  0
  4  5  2  0  0  0  0
  5  6  1  0  0  0  0
  5 26  1  0  0  0  0
  6  7  2  0  0  0  0
  6 27  1  0  0  0  0
  7  8  1  0  0  0  0
  7 13  1  0  0  0  0
  8 12  1  0  0  0  0
  8  9  1  0  0  0  0
  9 10  1  0  0  0  0
  9 28  1  0  0  0  0
  9 29  1  0  0  0  0
 10 11  1  0  0  0  0
 10 30  1  0  0  0  0
 10 31  1  0  0  0  0
 11 12  1  0  0  0  0
 11 32  1  0  0  0  0
 11 33  1  0  0  0  0
 12 34  1  0  0  0  0
 12 35  1  0  0  0  0
 13 14  2  0  0  0  0
 14 36  1  0  0  0  0
 15 16  1  0  0  0  0
 15 37  1  0  0  0  0
 16 24  1  0  0  0  0
 16 17  1  0  0  0  0
 16 38  1  0  0  0  0
 17 18  1  0  0  0  0
 17 39  1  0  0  0  0
 17 40  1  0  0  0  0
 18 19  1  0  0  0  0
 18 41  1  0  0  0  0
 18 42  1  0  0  0  0
 19 24  1  0  0  0  0
 19 20  1  0  0  0  0
 19 52  1  0  0  0  0
 20 21  1  0  0  0  0
 20 43  1  0  0  0  0
 20 44  1  0  0  0  0
 21 22  1  0  0  0  0
 21 45  1  0  0  0  0
 21 46  1  0  0  0  0
 22 23  1  0  0  0  0
 22 47  1  0  0  0  0
 22 48  1  0  0  0  0
 23 24  1  0  0  0  0
 23 49  1  0  0  0  0
 23 50  1  0  0  0  0
 24 51  1  0  0  0  0
M  CHG  1  19   1
M  END
> <s_m_source_file>
AV-unprocessed.smi

> <i_m_source_file_index>
1867

> <i_lp_mmshare_version>
43012

> <i_f3d_flags>
0

> <s_epik_input>
W0NIMl0xW0NIMl1bQ0gyXVtDSDJdW0NASF0oTjEyKVtDQEBIXShbQ0gyXVtDSDJdMilbTkhdQyg9TylbTkhdYzNbY0hdW2NIXWMobltjSF0zKU40W0NIMl1bQ0gyXVtDSDJdW0NIMl00

> <s_epik_cmdline>
J2VwaWtfcHl0aG9uJywgJy1waCcsICc3LjAnLCAnLXRuJywgJzgnLCAnLW1hJywgJzIwMCcsICctbWV0YWxfYmluZGluZycsICctaW1hZScsICc8aW5maWxlLm1hZT4nLCAnLW9tYWUnLCAnPG91dGZpbGUubWFlPic=

> <r_lp_tautomer_probability>
1

> <r_epik_Ionization_Penalty>
0.0751123

> <r_epik_Ionization_Penalty_Charging>
0.000974069

> <r_epik_Ionization_Penalty_Neutral>
0.0741382

> <r_epik_State_Penalty>
0.0647261

> <r_epik_Charging_Adjusted_Penalty>
0.0657002

> <i_epik_Tot_Q>
1

> <i_epik_Tot_abs_Q>
1

> <r_epik_Metal_State_Penalty>
0.0580571

> <b_epik_Metal_Only>
0

> <s_lp_Force_Field>
OPLS_2005

> <r_lp_Energy>
75.5013

> <b_lp_Chiralities_Consistent>
1

> <s_lp_Variant>
AV-unprocessed.smi:1867-6

> <Gold.Version>
5.8.1

> <Gold.Id.Protein>
6NUR|6NUR_protein|mol2

> <Gold.PLP.Fitness>
47.3960

> <Gold.PLP.PLP>
-40.0015

> <Gold.PLP.part.hbond>
-3.0000

> <Gold.PLP.part.metal>
0.0000

> <Gold.PLP.part.buried>
-4.0876

> <Gold.PLP.part.nonpolar>
-32.3002

> <Gold.PLP.part.repulsive>
0.0632

> <Gold.PLP.ligand.clash>
0.0000

> <Gold.PLP.ligand.torsion>
0.6898

> <Gold.PLP.Chemscore.Hbond>
2.8640

> <Gold.PLP.Chemscore.CHOScore>
0.0000

> <Gold.PLP.Chemscore.Metal>
0.0000

> <Gold.Chemscore.Hbonds>
donor molecule, donor type, donor heavy atom, donor atom, acceptor molecule, acceptor atom, score
      L1  H     3    25       P1  7948  0.85
      L1  H    15    37       P1  7948  0.96
      L1  H    19    52       P1 10747  1.00

> <Gold.PLP.Chemscore.Internal.Correction>
0.1820

> <Gold.Rescore>
     Score         DG    S(hbond)    S(metal)    S(lipo)     H(rot)  DE(clash)    DE(int)     intcor
     21.37     -23.22       2.68        0.00      96.98       1.00       0.06       1.79       ----

> <Gold.Chemscore.Fitness>
21.3684

> <Gold.Chemscore.DG>
-23.2198

> <Gold.Chemscore.ZeroCoef>
-5.4800

> <Gold.Chemscore.Hbond>
2.6806

> <Gold.Chemscore.Metal>
0.0000

> <Gold.Chemscore.Lipo>
96.9805

> <Gold.Chemscore.Internal_Hbond>
0.0000

> <Gold.Chemscore.DEClash>
0.0605

> <Gold.Chemscore.DEInternal>
1.7909

> <Gold.Chemscore.Rot>
1.0000

> <Gold.Chemscore.Internal.Correction>
   9.000000E+99

> <Gold.Chemscore.Hbonds>
donor molecule, donor type, donor heavy atom, donor atom, acceptor molecule, acceptor atom, score
      L1  H     3    25       P1  7948  0.62
      L1  H    15    37       P1  7948  0.46
      L1  H    19    52       P1 10747  0.57

> <Gold.Chemscore.Hbond.Weighted>
-8.9531

> <Gold.Chemscore.Metal.Weighted>
-0.0000

> <Gold.Chemscore.Lipo.Weighted>
-11.3467

> <Gold.Chemscore.Internal_Hbond.Weighted>
0.0000

> <Gold.Chemscore.DEClash.Weighted>
0.0605

> <Gold.Chemscore.DEInternal.Weighted>
1.7909

> <Gold.Chemscore.Rot.Weighted>
2.5600

> <Gold.Chemscore.Internal.Correction.Weighted>
   9.000000E+99

> <Gold.Protein.RotatedTorsions>
[ 6907 6896 6895 6894 ] final  107.49 input  -60.11 | X-H torsion
[ 7974 7965 7964 7962 ] final  -44.73 input  175.53 | X-H torsion
[ 8008 7997 7996 7995 ] final  -77.85 input   59.86 | X-H torsion
[ 10167 10162 10161 10158 ] final  172.37 input  -65.29 | X-H torsion
[ 10718 10713 10712 10709 ] final   19.66 input   66.30 | X-H torsion
[ 10763 10752 10751 10750 ] final    6.50 input  -60.55 | X-H torsion
[ 11005 11000 10999 10996 ] final  111.16 input  -57.11 | X-H torsion

> <Gold.Protein.ActiveResidues>
 VAL166  LYS551  ARG553  GLY616  TRP617  ASP618  TYR619  PRO620  LYS621  CYS622 
 ASP623  PHE694  ASN695  SER759  ASP760  ASP761  ALA762  ILE779  LEU786  VAL792 
 PHE793  MET794  SER795  GLU796  ALA797  LYS798  CYS799  TRP800  GLU811  SER814 

> <Gold.Protein.RotatedAtoms>
  152.5152  133.9226  159.7541 H   0  0  0  0  0  0  0  0  0  0  0  0  # atno 6907 bound_to 6896
  150.9595  133.6453  159.2764 H   0  0  0  0  0  0  0  0  0  0  0  0  # atno 6908 bound_to 6896
  151.3703  135.0926  159.9516 H   0  0  0  0  0  0  0  0  0  0  0  0  # atno 6909 bound_to 6896
  145.9891  140.7200  142.9326 H   0  0  0  0  0  0  0  0  0  0  0  0  # atno 7974 bound_to 7965
  154.5634  140.0704  156.8854 H   0  0  0  0  0  0  0  0  0  0  0  0  # atno 8008 bound_to 7997
  155.2768  140.3369  155.4243 H   0  0  0  0  0  0  0  0  0  0  0  0  # atno 8009 bound_to 7997
  156.2061  140.1740  156.7782 H   0  0  0  0  0  0  0  0  0  0  0  0  # atno 8010 bound_to 7997
  139.5074  144.3381  152.0045 H   0  0  0  0  0  0  0  0  0  0  0  0  # atno 10167 bound_to 10162
  157.1136  130.6519  149.5904 H   0  0  0  0  0  0  0  0  0  0  0  0  # atno 10718 bound_to 10713
  153.2470  135.6909  153.7720 H   0  0  0  0  0  0  0  0  0  0  0  0  # atno 10763 bound_to 10752
  153.6829  135.3325  155.3183 H   0  0  0  0  0  0  0  0  0  0  0  0  # atno 10764 bound_to 10752
  154.8379  135.4526  154.1413 H   0  0  0  0  0  0  0  0  0  0  0  0  # atno 10765 bound_to 10752
  139.8897  134.9501  156.6389 H   0  0  0  0  0  0  0  0  0  0  0  0  # atno 11005 bound_to 11000
  144.6883  140.3039  143.7259 LP  0  0  0  0  0  0  0  0  0  0  0  0  # atno 17320 bound_to 7965
  145.7657  139.1840  143.2241 LP  0  0  0  0  0  0  0  0  0  0  0  0  # atno 17321 bound_to 7965
  140.2820  144.3849  150.6116 LP  0  0  0  0  0  0  0  0  0  0  0  0  # atno 17342 bound_to 10162
  140.6011  143.2167  151.7070 LP  0  0  0  0  0  0  0  0  0  0  0  0  # atno 17343 bound_to 10162
  155.9845  130.4870  150.6984 LP  0  0  0  0  0  0  0  0  0  0  0  0  # atno 17370 bound_to 10713
  157.4538  131.0875  151.0818 LP  0  0  0  0  0  0  0  0  0  0  0  0  # atno 17371 bound_to 10713
  140.7609  133.8818  155.8417 LP  0  0  0  0  0  0  0  0  0  0  0  0  # atno 17394 bound_to 11000
  140.9923  134.1262  157.4396 LP  0  0  0  0  0  0  0  0  0  0  0  0  # atno 17395 bound_to 11000

$$$$
