AV-unprocessed.smi:2027|AV-procd|sdf|8217|dock7
  -GOLD-   2272010483D 1   1.00000     0.00000
 Structure written by MMmdl.
 51 53  0  0  0  0  0  0  0  0  3 V2000
  151.9648  143.7319  160.7932 C   0  0  0  0  0  0  0  0  0  0  0  0
  151.8422  142.8763  159.5440 C   0  0  0  0  0  0  0  0  0  0  0  0
  150.9848  143.3132  158.5088 C   0  0  0  0  0  0  0  0  0  0  0  0
  150.8955  142.5103  157.3780 C   0  0  0  0  0  0  0  0  0  0  0  0
  150.1571  142.6626  156.2023 N   0  3  0  0  0  0  0  0  0  0  0  0
  150.4007  141.6105  155.3725 C   0  0  0  0  0  0  0  0  0  0  0  0
  151.2753  140.7823  156.0067 N   0  0  0  0  0  0  0  0  0  0  0  0
  151.8743  139.5181  155.5613 C   0  0  0  0  0  0  0  0  0  0  0  0
  150.8339  138.4801  155.0929 C   0  0  2  0  0  0  0  0  0  0  0  0
  151.5127  137.2575  154.8903 O   0  0  0  0  0  0  0  0  0  0  0  0
  150.1119  138.8692  153.7864 C   0  0  0  0  0  0  0  0  0  0  0  0
  148.8999  138.0368  153.5611 N   0  3  1  0  0  0  0  0  0  0  0  0
  148.2635  137.6037  154.8268 C   0  0  0  0  0  0  0  0  0  0  0  0
  147.9213  138.6474  152.6269 C   0  0  0  0  0  0  0  0  0  0  0  0
  147.3286  139.9055  153.2038 C   0  0  0  0  0  0  0  0  0  0  0  0
  146.5415  140.0427  154.3831 C   0  0  0  0  0  0  0  0  0  0  0  0
  146.1922  141.2947  154.6254 N   0  0  0  0  0  0  0  0  0  0  0  0
  146.7301  141.9971  153.6080 N   0  0  0  0  0  0  0  0  0  0  0  0
  146.5425  143.4310  153.5539 C   0  0  0  0  0  0  0  0  0  0  0  0
  147.4170  141.1851  152.7321 C   0  0  0  0  0  0  0  0  0  0  0  0
  151.6204  141.3091  157.2559 C   0  0  0  0  0  0  0  0  0  0  0  0
  152.4726  140.8657  158.2642 C   0  0  0  0  0  0  0  0  0  0  0  0
  152.5773  141.6686  159.4224 C   0  0  0  0  0  0  0  0  0  0  0  0
  153.5000  141.2114  160.5395 C   0  0  0  0  0  0  0  0  0  0  0  0
  151.3216  144.6107  160.7401 H   0  0  0  0  0  0  0  0  0  0  0  0
  152.9910  144.0773  160.9202 H   0  0  0  0  0  0  0  0  0  0  0  0
  151.6780  143.1633  161.6778 H   0  0  0  0  0  0  0  0  0  0  0  0
  150.4259  144.2340  158.5929 H   0  0  0  0  0  0  0  0  0  0  0  0
  149.9760  141.4612  154.3900 H   0  0  0  0  0  0  0  0  0  0  0  0
  152.5641  139.7547  154.7497 H   0  0  0  0  0  0  0  0  0  0  0  0
  152.4806  139.1235  156.3782 H   0  0  0  0  0  0  0  0  0  0  0  0
  150.1049  138.3246  155.8873 H   0  0  0  0  0  0  0  0  0  0  0  0
  151.1970  136.6252  155.5186 H   0  0  0  0  0  0  0  0  0  0  0  0
  149.8204  139.9200  153.7948 H   0  0  0  0  0  0  0  0  0  0  0  0
  150.8180  138.7681  152.9622 H   0  0  0  0  0  0  0  0  0  0  0  0
  147.8482  138.4558  155.3664 H   0  0  0  0  0  0  0  0  0  0  0  0
  148.9787  137.1034  155.4794 H   0  0  0  0  0  0  0  0  0  0  0  0
  147.4549  136.8990  154.6301 H   0  0  0  0  0  0  0  0  0  0  0  0
  148.4220  138.8803  151.6862 H   0  0  0  0  0  0  0  0  0  0  0  0
  147.1507  137.9145  152.3832 H   0  0  0  0  0  0  0  0  0  0  0  0
  146.2239  139.2736  155.0718 H   0  0  0  0  0  0  0  0  0  0  0  0
  146.9714  143.8307  152.6345 H   0  0  0  0  0  0  0  0  0  0  0  0
  147.0341  143.8992  154.4073 H   0  0  0  0  0  0  0  0  0  0  0  0
  145.4782  143.6669  153.5793 H   0  0  0  0  0  0  0  0  0  0  0  0
  147.9144  141.5819  151.8593 H   0  0  0  0  0  0  0  0  0  0  0  0
  153.0360  139.9490  158.1699 H   0  0  0  0  0  0  0  0  0  0  0  0
  153.9825  140.2643  160.2968 H   0  0  0  0  0  0  0  0  0  0  0  0
  152.9427  141.0719  161.4661 H   0  0  0  0  0  0  0  0  0  0  0  0
  154.2837  141.9488  160.7140 H   0  0  0  0  0  0  0  0  0  0  0  0
  149.2210  137.1956  153.1021 H   0  0  0  0  0  0  0  0  0  0  0  0
  149.5384  143.4315  155.9771 H   0  0  0  0  0  0  0  0  0  0  0  0
  1  2  1  0  0  0  0
  1 25  1  0  0  0  0
  1 26  1  0  0  0  0
  1 27  1  0  0  0  0
  2 23  1  0  0  0  0
  2  3  2  0  0  0  0
  3  4  1  0  0  0  0
  3 28  1  0  0  0  0
  4 21  2  0  0  0  0
  4  5  1  0  0  0  0
  5  6  2  0  0  0  0
  5 51  1  0  0  0  0
  6  7  1  0  0  0  0
  6 29  1  0  0  0  0
  7  8  1  0  0  0  0
  7 21  1  0  0  0  0
  8  9  1  0  0  0  0
  8 30  1  0  0  0  0
  8 31  1  0  0  0  0
  9 10  1  0  0  0  0
  9 11  1  0  0  0  0
  9 32  1  0  0  0  0
 10 33  1  0  0  0  0
 11 12  1  0  0  0  0
 11 34  1  0  0  0  0
 11 35  1  0  0  0  0
 12 13  1  0  0  0  0
 12 14  1  0  0  0  0
 12 50  1  0  0  0  0
 13 36  1  0  0  0  0
 13 37  1  0  0  0  0
 13 38  1  0  0  0  0
 14 15  1  0  0  0  0
 14 39  1  0  0  0  0
 14 40  1  0  0  0  0
 15 20  2  0  0  0  0
 15 16  1  0  0  0  0
 16 17  2  0  0  0  0
 16 41  1  0  0  0  0
 17 18  1  0  0  0  0
 18 19  1  0  0  0  0
 18 20  1  0  0  0  0
 19 42  1  0  0  0  0
 19 43  1  0  0  0  0
 19 44  1  0  0  0  0
 20 45  1  0  0  0  0
 21 22  1  0  0  0  0
 22 23  2  0  0  0  0
 22 46  1  0  0  0  0
 23 24  1  0  0  0  0
 24 47  1  0  0  0  0
 24 48  1  0  0  0  0
 24 49  1  0  0  0  0
M  CHG  1   5   1
M  CHG  1  12   1
M  END
> <s_m_source_file>
AV-unprocessed.smi

> <i_m_source_file_index>
2027

> <i_lp_mmshare_version>
43012

> <i_f3d_flags>
0

> <s_epik_input>
W0NIM11jKFtjSF0xKWMoW0NIM10pW2NIXWMoYzEyKW4oW2NIXW4yKVtDSDJdW0NASF0oW09IXSlbQ0gyXU4oW0NIM10pW0NIMl1jM1tjSF1ubihbQ0gzXSlbY0hdMw==

> <s_epik_cmdline>
J2VwaWtfcHl0aG9uJywgJy1waCcsICc3LjAnLCAnLXRuJywgJzgnLCAnLW1hJywgJzIwMCcsICctbWV0YWxfYmluZGluZycsICctaW1hZScsICc8aW5maWxlLm1hZT4nLCAnLW9tYWUnLCAnPG91dGZpbGUubWFlPic=

> <r_lp_tautomer_probability>
1

> <r_epik_Ionization_Penalty>
1.77469

> <r_epik_Ionization_Penalty_Charging>
1.77463

> <r_epik_Ionization_Penalty_Neutral>
6.41153e-05

> <r_epik_State_Penalty>
1.85225

> <r_epik_Charging_Adjusted_Penalty>
3.62688

> <i_epik_Tot_Q>
2

> <i_epik_Tot_abs_Q>
2

> <r_epik_Metal_State_Penalty>
1.92669

> <b_epik_Metal_Only>
0

> <s_lp_Force_Field>
OPLS_2005

> <r_lp_Energy>
21.1473

> <b_lp_Chiralities_Consistent>
1

> <s_lp_Variant>
AV-unprocessed.smi:2027-9

> <Gold.Version>
5.8.1

> <Gold.Id.Protein>
6NUR|6NUR_protein|mol2

> <Gold.PLP.Fitness>
58.8143

> <Gold.PLP.PLP>
-46.7792

> <Gold.PLP.part.hbond>
-2.6598

> <Gold.PLP.part.metal>
0.0000

> <Gold.PLP.part.buried>
-1.9217

> <Gold.PLP.part.nonpolar>
-41.6869

> <Gold.PLP.part.repulsive>
0.1822

> <Gold.PLP.ligand.clash>
0.7719

> <Gold.PLP.ligand.torsion>
0.4966

> <Gold.PLP.Chemscore.Hbond>
3.7426

> <Gold.PLP.Chemscore.CHOScore>
0.8080

> <Gold.PLP.Chemscore.Metal>
0.0000

> <Gold.Chemscore.Hbonds>
donor molecule, donor type, donor heavy atom, donor atom, acceptor molecule, acceptor atom, score
      L1  H     5    51       P1  8028  1.76
      L1  H    12    50       P1  7948  1.76
      P1  H 10752 10763       L1    10  0.06
      L1  C    20    45       P1  7957  0.61

> <Gold.PLP.Chemscore.Internal.Correction>
0.1485

> <Gold.Rescore>
     Score         DG    S(hbond)    S(metal)    S(lipo)     H(rot)  DE(clash)    DE(int)     intcor
     17.57     -19.80       1.94        0.00     123.47       2.58       0.69       1.53       ----

> <Gold.Chemscore.Fitness>
17.5734

> <Gold.Chemscore.DG>
-19.7964

> <Gold.Chemscore.ZeroCoef>
-5.4800

> <Gold.Chemscore.Hbond>
1.9414

> <Gold.Chemscore.Metal>
0.0000

> <Gold.Chemscore.Lipo>
123.4687

> <Gold.Chemscore.Internal_Hbond>
0.0000

> <Gold.Chemscore.DEClash>
0.6946

> <Gold.Chemscore.DEInternal>
1.5283

> <Gold.Chemscore.Rot>
2.5836

> <Gold.Chemscore.Internal.Correction>
   9.000000E+99

> <Gold.Chemscore.Hbonds>
donor molecule, donor type, donor heavy atom, donor atom, acceptor molecule, acceptor atom, score
      L1  H     5    51       P1  8028  0.84
      L1  H    12    50       P1  7948  0.82

> <Gold.Chemscore.Hbond.Weighted>
-6.4844

> <Gold.Chemscore.Metal.Weighted>
-0.0000

> <Gold.Chemscore.Lipo.Weighted>
-14.4458

> <Gold.Chemscore.Internal_Hbond.Weighted>
0.0000

> <Gold.Chemscore.DEClash.Weighted>
0.6946

> <Gold.Chemscore.DEInternal.Weighted>
1.5283

> <Gold.Chemscore.Rot.Weighted>
6.6139

> <Gold.Chemscore.Internal.Correction.Weighted>
   9.000000E+99

> <Gold.Protein.RotatedTorsions>
[ 6907 6896 6895 6894 ] final  107.61 input  -60.11 | X-H torsion
[ 7974 7965 7964 7962 ] final    9.64 input  175.53 | X-H torsion
[ 8008 7997 7996 7995 ] final -118.85 input   59.86 | X-H torsion
[ 10167 10162 10161 10158 ] final  -11.70 input  -65.29 | X-H torsion
[ 10718 10713 10712 10709 ] final  -74.99 input   66.30 | X-H torsion
[ 10763 10752 10751 10750 ] final   51.10 input  -60.55 | X-H torsion
[ 11005 11000 10999 10996 ] final  -18.12 input  -57.11 | X-H torsion

> <Gold.Protein.ActiveResidues>
 VAL166  LYS551  ARG553  GLY616  TRP617  ASP618  TYR619  PRO620  LYS621  CYS622 
 ASP623  PHE694  ASN695  SER759  ASP760  ASP761  ALA762  ILE779  LEU786  VAL792 
 PHE793  MET794  SER795  GLU796  ALA797  LYS798  CYS799  TRP800  GLU811  SER814 

> <Gold.Protein.RotatedAtoms>
  152.5147  133.9209  159.7533 H   0  0  0  0  0  0  0  0  0  0  0  0  # atno 6907 bound_to 6896
  150.9581  133.6467  159.2766 H   0  0  0  0  0  0  0  0  0  0  0  0  # atno 6908 bound_to 6896
  151.3722  135.0930  159.9522 H   0  0  0  0  0  0  0  0  0  0  0  0  # atno 6909 bound_to 6896
  146.2400  139.9753  142.8442 H   0  0  0  0  0  0  0  0  0  0  0  0  # atno 7974 bound_to 7965
  155.1063  140.0396  157.2711 H   0  0  0  0  0  0  0  0  0  0  0  0  # atno 8008 bound_to 7997
  154.6719  140.2614  155.6972 H   0  0  0  0  0  0  0  0  0  0  0  0  # atno 8009 bound_to 7997
  156.2661  140.2796  156.1231 H   0  0  0  0  0  0  0  0  0  0  0  0  # atno 8010 bound_to 7997
  140.7144  143.5611  150.9194 H   0  0  0  0  0  0  0  0  0  0  0  0  # atno 10167 bound_to 10162
  156.0223  130.4430  150.2976 H   0  0  0  0  0  0  0  0  0  0  0  0  # atno 10718 bound_to 10713
  152.9785  135.5857  154.4360 H   0  0  0  0  0  0  0  0  0  0  0  0  # atno 10763 bound_to 10752
  154.3967  135.2768  155.2123 H   0  0  0  0  0  0  0  0  0  0  0  0  # atno 10764 bound_to 10752
  154.3972  135.6112  153.5931 H   0  0  0  0  0  0  0  0  0  0  0  0  # atno 10765 bound_to 10752
  140.8237  133.8049  155.9685 H   0  0  0  0  0  0  0  0  0  0  0  0  # atno 11005 bound_to 11000
  145.1643  140.9688  143.4359 LP  0  0  0  0  0  0  0  0  0  0  0  0  # atno 17320 bound_to 7965
  145.0087  139.3530  143.6131 LP  0  0  0  0  0  0  0  0  0  0  0  0  # atno 17321 bound_to 7965
  139.9336  143.6464  152.3070 LP  0  0  0  0  0  0  0  0  0  0  0  0  # atno 17342 bound_to 10162
  139.6923  144.7645  151.1416 LP  0  0  0  0  0  0  0  0  0  0  0  0  # atno 17343 bound_to 10162
  157.1079  131.0213  151.3060 LP  0  0  0  0  0  0  0  0  0  0  0  0  # atno 17370 bound_to 10713
  157.4728  130.7719  149.7339 LP  0  0  0  0  0  0  0  0  0  0  0  0  # atno 17371 bound_to 10713
  140.9072  134.2305  157.5007 LP  0  0  0  0  0  0  0  0  0  0  0  0  # atno 17394 bound_to 11000
  139.8707  134.9734  156.4807 LP  0  0  0  0  0  0  0  0  0  0  0  0  # atno 17395 bound_to 11000

$$$$
