AV-unprocessed.smi:1362|AV-procd|sdf|5563|dock5
  -GOLD-   22720 5153D 1   1.00000     0.00000
 Structure written by MMmdl.
 38 38  0  0  0  0  0  0  0  0  2 V2000
  155.1791  140.2501  160.3661 C   0  0  0  0  0  0  0  0  0  0  0  0
  154.0208  140.8300  159.5829 C   0  0  0  0  0  0  0  0  0  0  0  0
  153.6231  142.0170  159.8423 N   0  0  0  0  0  0  0  0  0  0  0  0
  152.5475  142.5593  159.1185 C   0  0  0  0  0  0  0  0  0  0  0  0
  152.1389  143.9732  159.4953 C   0  0  0  0  0  0  0  0  0  0  0  0
  151.9214  141.8424  158.1415 C   0  0  0  0  0  0  0  0  0  0  0  0
  150.7456  142.3870  157.3308 C   0  0  0  0  0  0  0  0  0  0  0  0
  149.5023  141.4962  157.2720 C   0  0  0  0  0  0  0  0  0  0  0  0
  149.4957  140.3931  157.8190 O   0  0  0  0  0  0  0  0  0  0  0  0
  148.4540  141.9913  156.5961 N   0  0  0  0  0  0  0  0  0  0  0  0
  147.1802  141.3076  156.3765 C   0  0  1  0  0  0  0  0  0  0  0  0
  146.0777  142.0433  157.1620 C   0  0  0  0  0  0  0  0  0  0  0  0
  146.8874  141.2036  154.8561 C   0  0  0  0  0  0  0  0  0  0  0  0
  148.0744  140.6208  154.0678 C   0  0  0  0  0  0  0  0  0  0  0  0
  146.4839  142.5602  154.2447 C   0  0  0  0  0  0  0  0  0  0  0  0
  152.4143  140.4803  157.8697 C   0  0  0  0  0  0  0  0  0  0  0  0
  151.8949  139.7955  156.9890 O   0  0  0  0  0  0  0  0  0  0  0  0
  153.4553  140.0224  158.6220 N   0  5  0  0  0  0  0  0  0  0  0  0
  155.6976  141.0256  160.9314 H   0  0  0  0  0  0  0  0  0  0  0  0
  155.8986  139.7818  159.6936 H   0  0  0  0  0  0  0  0  0  0  0  0
  154.8186  139.4965  161.0667 H   0  0  0  0  0  0  0  0  0  0  0  0
  151.1222  143.9855  159.8881 H   0  0  0  0  0  0  0  0  0  0  0  0
  152.1851  144.6318  158.6277 H   0  0  0  0  0  0  0  0  0  0  0  0
  152.7988  144.3834  160.2607 H   0  0  0  0  0  0  0  0  0  0  0  0
  150.4437  143.3690  157.6957 H   0  0  0  0  0  0  0  0  0  0  0  0
  151.0924  142.5667  156.3127 H   0  0  0  0  0  0  0  0  0  0  0  0
  148.5534  142.9068  156.1825 H   0  0  0  0  0  0  0  0  0  0  0  0
  147.2582  140.2922  156.7703 H   0  0  0  0  0  0  0  0  0  0  0  0
  145.1307  141.5055  157.1303 H   0  0  0  0  0  0  0  0  0  0  0  0
  145.9094  143.0456  156.7666 H   0  0  0  0  0  0  0  0  0  0  0  0
  146.3445  142.1439  158.2145 H   0  0  0  0  0  0  0  0  0  0  0  0
  146.0434  140.5256  154.7206 H   0  0  0  0  0  0  0  0  0  0  0  0
  148.9772  141.2148  154.2139 H   0  0  0  0  0  0  0  0  0  0  0  0
  147.8622  140.6001  152.9984 H   0  0  0  0  0  0  0  0  0  0  0  0
  148.2951  139.5956  154.3632 H   0  0  0  0  0  0  0  0  0  0  0  0
  147.2699  143.3035  154.3814 H   0  0  0  0  0  0  0  0  0  0  0  0
  145.5716  142.9559  154.6914 H   0  0  0  0  0  0  0  0  0  0  0  0
  146.2976  142.4680  153.1743 H   0  0  0  0  0  0  0  0  0  0  0  0
  1  2  1  0  0  0  0
  1 19  1  0  0  0  0
  1 20  1  0  0  0  0
  1 21  1  0  0  0  0
  2 18  1  0  0  0  0
  2  3  2  0  0  0  0
  3  4  1  0  0  0  0
  4  5  1  0  0  0  0
  4  6  2  0  0  0  0
  5 22  1  0  0  0  0
  5 23  1  0  0  0  0
  5 24  1  0  0  0  0
  6  7  1  0  0  0  0
  6 16  1  0  0  0  0
  7  8  1  0  0  0  0
  7 25  1  0  0  0  0
  7 26  1  0  0  0  0
  8  9  2  0  0  0  0
  8 10  1  0  0  0  0
 10 11  1  0  0  0  0
 10 27  1  0  0  0  0
 11 12  1  0  0  0  0
 11 13  1  0  0  0  0
 11 28  1  0  0  0  0
 12 29  1  0  0  0  0
 12 30  1  0  0  0  0
 12 31  1  0  0  0  0
 13 14  1  0  0  0  0
 13 15  1  0  0  0  0
 13 32  1  0  0  0  0
 14 33  1  0  0  0  0
 14 34  1  0  0  0  0
 14 35  1  0  0  0  0
 15 36  1  0  0  0  0
 15 37  1  0  0  0  0
 15 38  1  0  0  0  0
 16 17  2  0  0  0  0
 16 18  1  0  0  0  0
M  CHG  1  18  -1
M  END
> <s_m_source_file>
AV-unprocessed.smi

> <i_m_source_file_index>
1362

> <i_lp_mmshare_version>
43012

> <i_f3d_flags>
0

> <s_epik_input>
W0NIM11jMW5jKFtDSDNdKWMoYyg9TylbbkhdMSlbQ0gyXUMoPU8pW05IXVtDQEhdKFtDSDNdKVtDSF0oW0NIM10pW0NIM10=

> <s_epik_cmdline>
J2VwaWtfcHl0aG9uJywgJy1waCcsICc3LjAnLCAnLXRuJywgJzgnLCAnLW1hJywgJzIwMCcsICctbWV0YWxfYmluZGluZycsICctaW1hZScsICc8aW5maWxlLm1hZT4nLCAnLW9tYWUnLCAnPG91dGZpbGUubWFlPic=

> <r_lp_tautomer_probability>
0.839158

> <r_epik_Ionization_Penalty>
6.62204

> <r_epik_Ionization_Penalty_Charging>
7.30593e-08

> <r_epik_Ionization_Penalty_Neutral>
6.62204

> <r_epik_State_Penalty>
4.44062

> <r_epik_Charging_Adjusted_Penalty>
4.44062

> <i_epik_Tot_Q>
-1

> <i_epik_Tot_abs_Q>
1

> <r_epik_Metal_State_Penalty>
0.802984

> <b_epik_Metal_Only>
1

> <s_lp_Force_Field>
OPLS_2005

> <r_lp_Energy>
10.9313

> <b_lp_Chiralities_Consistent>
1

> <s_lp_Variant>
AV-unprocessed.smi:1362-6

> <Gold.Version>
5.8.1

> <Gold.Id.Protein>
6NUR|6NUR_protein|mol2

> <Gold.PLP.Fitness>
40.3464

> <Gold.PLP.PLP>
-31.7841

> <Gold.PLP.part.hbond>
-2.0000

> <Gold.PLP.part.metal>
0.0000

> <Gold.PLP.part.buried>
-4.6068

> <Gold.PLP.part.nonpolar>
-25.4591

> <Gold.PLP.part.repulsive>
0.0196

> <Gold.PLP.ligand.clash>
0.0000

> <Gold.PLP.ligand.torsion>
0.2128

> <Gold.PLP.Chemscore.Hbond>
2.9840

> <Gold.PLP.Chemscore.CHOScore>
0.0000

> <Gold.PLP.Chemscore.Metal>
0.0000

> <Gold.Chemscore.Hbonds>
donor molecule, donor type, donor heavy atom, donor atom, acceptor molecule, acceptor atom, score
      L1  H    10    27       P1  8028  1.00
      P1  H  7997  8010       L1    18  1.69

> <Gold.PLP.Chemscore.Internal.Correction>
0.0359

> <Gold.Rescore>
     Score         DG    S(hbond)    S(metal)    S(lipo)     H(rot)  DE(clash)    DE(int)     intcor
     12.13     -13.37       1.19        0.00      69.49       1.64       0.08       1.16       ----

> <Gold.Chemscore.Fitness>
12.1310

> <Gold.Chemscore.DG>
-13.3703

> <Gold.Chemscore.ZeroCoef>
-5.4800

> <Gold.Chemscore.Hbond>
1.1876

> <Gold.Chemscore.Metal>
0.0000

> <Gold.Chemscore.Lipo>
69.4929

> <Gold.Chemscore.Internal_Hbond>
0.0000

> <Gold.Chemscore.DEClash>
0.0837

> <Gold.Chemscore.DEInternal>
1.1555

> <Gold.Chemscore.Rot>
1.6433

> <Gold.Chemscore.Internal.Correction>
   9.000000E+99

> <Gold.Chemscore.Hbonds>
donor molecule, donor type, donor heavy atom, donor atom, acceptor molecule, acceptor atom, score
      L1  H    10    27       P1  8028  0.97
      P1  H  7997  8010       L1    18  0.05

> <Gold.Chemscore.Hbond.Weighted>
-3.9665

> <Gold.Chemscore.Metal.Weighted>
-0.0000

> <Gold.Chemscore.Lipo.Weighted>
-8.1307

> <Gold.Chemscore.Internal_Hbond.Weighted>
0.0000

> <Gold.Chemscore.DEClash.Weighted>
0.0837

> <Gold.Chemscore.DEInternal.Weighted>
1.1555

> <Gold.Chemscore.Rot.Weighted>
4.2069

> <Gold.Chemscore.Internal.Correction.Weighted>
   9.000000E+99

> <Gold.Protein.RotatedTorsions>
[ 6907 6896 6895 6894 ] final -160.03 input  -60.11 | X-H torsion
[ 7974 7965 7964 7962 ] final -179.88 input  175.53 | X-H torsion
[ 8008 7997 7996 7995 ] final   17.95 input   59.86 | X-H torsion
[ 10167 10162 10161 10158 ] final  -68.57 input  -65.29 | X-H torsion
[ 10718 10713 10712 10709 ] final    1.99 input   66.30 | X-H torsion
[ 10763 10752 10751 10750 ] final  148.50 input  -60.55 | X-H torsion
[ 11005 11000 10999 10996 ] final   64.10 input  -57.11 | X-H torsion

> <Gold.Protein.ActiveResidues>
 VAL166  LYS551  ARG553  GLY616  TRP617  ASP618  TYR619  PRO620  LYS621  CYS622 
 ASP623  PHE694  ASN695  SER759  ASP760  ASP761  ALA762  ILE779  LEU786  VAL792 
 PHE793  MET794  SER795  GLU796  ALA797  LYS798  CYS799  TRP800  GLU811  SER814 

> <Gold.Protein.RotatedAtoms>
  151.3427  133.3956  159.2672 H   0  0  0  0  0  0  0  0  0  0  0  0  # atno 6907 bound_to 6896
  150.9864  134.9210  159.7885 H   0  0  0  0  0  0  0  0  0  0  0  0  # atno 6908 bound_to 6896
  152.5233  134.3392  159.9263 H   0  0  0  0  0  0  0  0  0  0  0  0  # atno 6909 bound_to 6896
  144.7140  140.0650  143.6431 H   0  0  0  0  0  0  0  0  0  0  0  0  # atno 7974 bound_to 7965
  154.8989  140.2997  155.5329 H   0  0  0  0  0  0  0  0  0  0  0  0  # atno 8008 bound_to 7997
  156.3019  140.2410  156.3949 H   0  0  0  0  0  0  0  0  0  0  0  0  # atno 8009 bound_to 7997
  154.8542  140.0408  157.1612 H   0  0  0  0  0  0  0  0  0  0  0  0  # atno 8010 bound_to 7997
  140.5497  143.2312  151.6935 H   0  0  0  0  0  0  0  0  0  0  0  0  # atno 10167 bound_to 10162
  156.8564  130.5571  149.5666 H   0  0  0  0  0  0  0  0  0  0  0  0  # atno 10718 bound_to 10713
  154.0557  135.2878  155.3333 H   0  0  0  0  0  0  0  0  0  0  0  0  # atno 10763 bound_to 10752
  154.6840  135.5252  153.8305 H   0  0  0  0  0  0  0  0  0  0  0  0  # atno 10764 bound_to 10752
  153.0542  135.6589  154.0750 H   0  0  0  0  0  0  0  0  0  0  0  0  # atno 10765 bound_to 10752
  139.9981  134.6486  155.9977 H   0  0  0  0  0  0  0  0  0  0  0  0  # atno 11005 bound_to 11000
  145.9831  139.2957  143.1030 LP  0  0  0  0  0  0  0  0  0  0  0  0  # atno 17320 bound_to 7965
  145.8988  140.9256  143.0514 LP  0  0  0  0  0  0  0  0  0  0  0  0  # atno 17321 bound_to 7965
  139.5022  144.3838  152.0349 LP  0  0  0  0  0  0  0  0  0  0  0  0  # atno 17342 bound_to 10162
  140.2954  144.3707  150.6076 LP  0  0  0  0  0  0  0  0  0  0  0  0  # atno 17343 bound_to 10162
  156.0800  130.5813  150.9545 LP  0  0  0  0  0  0  0  0  0  0  0  0  # atno 17370 bound_to 10713
  157.6274  131.0924  150.8507 LP  0  0  0  0  0  0  0  0  0  0  0  0  # atno 17371 bound_to 10713
  141.1620  133.6538  156.4351 LP  0  0  0  0  0  0  0  0  0  0  0  0  # atno 17394 bound_to 11000
  140.4780  134.6691  157.5159 LP  0  0  0  0  0  0  0  0  0  0  0  0  # atno 17395 bound_to 11000

$$$$
