AV-unprocessed.smi:258|AV-procd|sdf|1972|dock7
  -GOLD-   2262021133D 1   1.00000     0.00000
 Structure written by MMmdl.
 57 60  0  0  0  0  0  0  0  0  1 V2000
  143.4145  131.8151  149.5341 O   0  0  0  0  0  0  0  0  0  0  0  0
  143.4492  132.6470  150.6744 C   0  0  0  0  0  0  0  0  0  0  0  0
  144.5649  132.1976  151.6265 C   0  0  0  0  0  0  0  0  0  0  0  0
  145.0117  130.9052  151.2414 O   0  0  0  0  0  0  0  0  0  0  0  0
  145.6220  130.1555  152.2842 C   0  0  1  0  0  0  0  0  0  0  0  0
  145.8878  128.7038  151.8363 C   0  0  0  0  0  0  0  0  0  0  0  0
  146.6928  127.9526  152.9073 C   0  0  0  0  0  0  0  0  0  0  0  0
  147.9886  128.7038  153.2508 C   0  0  0  0  0  0  0  0  0  0  0  0
  147.7018  130.0884  153.6295 N   0  0  0  0  0  0  0  0  0  0  0  0
  148.6877  130.7870  154.2475 C   0  0  0  0  0  0  0  0  0  0  0  0
  149.6508  130.1297  154.9484 N   0  0  0  0  0  0  0  0  0  0  0  0
  150.6326  130.8093  155.5487 C   0  0  0  0  0  0  0  0  0  0  0  0
  150.8377  132.1273  155.5791 N   0  0  0  0  0  0  0  0  0  0  0  0
  149.8692  132.7925  154.8869 C   0  0  0  0  0  0  0  0  0  0  0  0
  148.7701  132.2074  154.1971 C   0  0  0  0  0  0  0  0  0  0  0  0
  147.9918  133.2038  153.6183 N   0  0  0  0  0  0  0  0  0  0  0  0
  148.6011  134.3127  153.9400 C   0  0  0  0  0  0  0  0  0  0  0  0
  149.7368  134.1562  154.7010 N   0  0  0  0  0  0  0  0  0  0  0  0
  150.6096  135.2046  155.1943 C   0  0  0  0  0  0  0  0  0  0  0  0
  149.8100  136.4123  155.7467 C   0  0  1  0  0  0  0  0  0  0  0  0
  150.0977  136.6431  157.2489 C   0  0  0  0  0  0  0  0  0  0  0  0
  149.7242  135.5102  158.0046 O   0  0  0  0  0  0  0  0  0  0  0  0
  150.0246  137.6709  154.8673 C   0  0  1  0  0  0  0  0  0  0  0  0
  149.0927  138.8485  155.1562 C   0  0  0  0  0  0  0  0  0  0  0  0
  150.0190  140.0664  155.1684 C   0  0  0  0  0  0  0  0  0  0  0  0
  151.1884  139.6316  154.4926 O   0  0  0  0  0  0  0  0  0  0  0  0
  151.4235  138.2966  154.9063 C   0  0  0  0  0  0  0  0  0  0  0  0
  146.9458  130.8562  152.6403 C   0  0  0  0  0  0  0  0  0  0  0  0
  143.4055  132.3616  148.7633 H   0  0  0  0  0  0  0  0  0  0  0  0
  143.5710  133.6910  150.3835 H   0  0  0  0  0  0  0  0  0  0  0  0
  142.4833  132.5611  151.1725 H   0  0  0  0  0  0  0  0  0  0  0  0
  145.4025  132.8912  151.5416 H   0  0  0  0  0  0  0  0  0  0  0  0
  144.2259  132.2269  152.6624 H   0  0  0  0  0  0  0  0  0  0  0  0
  144.9848  130.1597  153.1710 H   0  0  0  0  0  0  0  0  0  0  0  0
  144.9536  128.1757  151.6479 H   0  0  0  0  0  0  0  0  0  0  0  0
  146.4417  128.7044  150.8967 H   0  0  0  0  0  0  0  0  0  0  0  0
  146.0866  127.8420  153.8073 H   0  0  0  0  0  0  0  0  0  0  0  0
  146.9260  126.9444  152.5637 H   0  0  0  0  0  0  0  0  0  0  0  0
  148.5000  128.1901  154.0662 H   0  0  0  0  0  0  0  0  0  0  0  0
  148.6609  128.6964  152.3916 H   0  0  0  0  0  0  0  0  0  0  0  0
  151.3574  130.2110  156.0810 H   0  0  0  0  0  0  0  0  0  0  0  0
  148.2379  135.2809  153.6277 H   0  0  0  0  0  0  0  0  0  0  0  0
  151.2645  134.7788  155.9557 H   0  0  0  0  0  0  0  0  0  0  0  0
  151.2677  135.5015  154.3768 H   0  0  0  0  0  0  0  0  0  0  0  0
  148.7456  136.1840  155.6616 H   0  0  0  0  0  0  0  0  0  0  0  0
  151.1545  136.8455  157.4240 H   0  0  0  0  0  0  0  0  0  0  0  0
  149.5428  137.4967  157.6358 H   0  0  0  0  0  0  0  0  0  0  0  0
  148.8750  135.6706  158.3874 H   0  0  0  0  0  0  0  0  0  0  0  0
  149.8326  137.3868  153.8308 H   0  0  0  0  0  0  0  0  0  0  0  0
  148.3501  138.9373  154.3623 H   0  0  0  0  0  0  0  0  0  0  0  0
  148.5480  138.7597  156.0958 H   0  0  0  0  0  0  0  0  0  0  0  0
  149.5767  140.9373  154.6841 H   0  0  0  0  0  0  0  0  0  0  0  0
  150.2787  140.3402  156.1921 H   0  0  0  0  0  0  0  0  0  0  0  0
  151.8469  138.3107  155.9106 H   0  0  0  0  0  0  0  0  0  0  0  0
  152.1288  137.7928  154.2451 H   0  0  0  0  0  0  0  0  0  0  0  0
  147.5593  130.9665  151.7450 H   0  0  0  0  0  0  0  0  0  0  0  0
  146.7342  131.8638  152.9974 H   0  0  0  0  0  0  0  0  0  0  0  0
  1  2  1  0  0  0  0
  1 29  1  0  0  0  0
  2  3  1  0  0  0  0
  2 30  1  0  0  0  0
  2 31  1  0  0  0  0
  3  4  1  0  0  0  0
  3 32  1  0  0  0  0
  3 33  1  0  0  0  0
  4  5  1  0  0  0  0
  5 28  1  0  0  0  0
  5  6  1  0  0  0  0
  5 34  1  0  0  0  0
  6  7  1  0  0  0  0
  6 35  1  0  0  0  0
  6 36  1  0  0  0  0
  7  8  1  0  0  0  0
  7 37  1  0  0  0  0
  7 38  1  0  0  0  0
  8  9  1  0  0  0  0
  8 39  1  0  0  0  0
  8 40  1  0  0  0  0
  9 10  1  0  0  0  0
  9 28  1  0  0  0  0
 10 15  1  0  0  0  0
 10 11  2  0  0  0  0
 11 12  1  0  0  0  0
 12 13  2  0  0  0  0
 12 41  1  0  0  0  0
 13 14  1  0  0  0  0
 14 18  1  0  0  0  0
 14 15  2  0  0  0  0
 15 16  1  0  0  0  0
 16 17  2  0  0  0  0
 17 18  1  0  0  0  0
 17 42  1  0  0  0  0
 18 19  1  0  0  0  0
 19 20  1  0  0  0  0
 19 43  1  0  0  0  0
 19 44  1  0  0  0  0
 20 21  1  0  0  0  0
 20 23  1  0  0  0  0
 20 45  1  0  0  0  0
 21 22  1  0  0  0  0
 21 46  1  0  0  0  0
 21 47  1  0  0  0  0
 22 48  1  0  0  0  0
 23 27  1  0  0  0  0
 23 24  1  0  0  0  0
 23 49  1  0  0  0  0
 24 25  1  0  0  0  0
 24 50  1  0  0  0  0
 24 51  1  0  0  0  0
 25 26  1  0  0  0  0
 25 52  1  0  0  0  0
 25 53  1  0  0  0  0
 26 27  1  0  0  0  0
 27 54  1  0  0  0  0
 27 55  1  0  0  0  0
 28 56  1  0  0  0  0
 28 57  1  0  0  0  0
M  END
> <s_m_source_file>
AV-unprocessed.smi

> <i_m_source_file_index>
258

> <i_lp_mmshare_version>
43012

> <i_f3d_flags>
0

> <s_epik_input>
W09IXVtDSDJdW0NIMl1PW0NAQEhdMVtDSDJdW0NIMl1bQ0gyXU4oW0NIMl0xKWMobltjSF1uMiljKGMyMyluW2NIXW4zW0NIMl1bQ0BIXShbQ0gyXVtPSF0pW0NAQEhdNFtDSDJdW0NIMl1PW0NIMl00

> <s_epik_cmdline>
J2VwaWtfcHl0aG9uJywgJy1waCcsICc3LjAnLCAnLXRuJywgJzgnLCAnLW1hJywgJzIwMCcsICctbWV0YWxfYmluZGluZycsICctaW1hZScsICc8aW5maWxlLm1hZT4nLCAnLW9tYWUnLCAnPG91dGZpbGUubWFlPic=

> <r_lp_tautomer_probability>
1

> <r_epik_Ionization_Penalty>
0.00349036

> <r_epik_Ionization_Penalty_Charging>
0

> <r_epik_Ionization_Penalty_Neutral>
0.00349036

> <r_epik_State_Penalty>
0.00229798

> <r_epik_Charging_Adjusted_Penalty>
0.00229798

> <i_epik_Tot_Q>
0

> <i_epik_Tot_abs_Q>
0

> <r_epik_Metal_State_Penalty>
-0

> <b_epik_Metal_Only>
0

> <s_lp_Force_Field>
OPLS_2005

> <r_lp_Energy>
51.0481

> <b_lp_Chiralities_Consistent>
1

> <s_lp_Variant>
AV-unprocessed.smi:258-8

> <Gold.Version>
5.8.1

> <Gold.Id.Protein>
6NUR|6NUR_protein|mol2

> <Gold.PLP.Fitness>
52.0635

> <Gold.PLP.PLP>
-43.9897

> <Gold.PLP.part.hbond>
-3.9407

> <Gold.PLP.part.metal>
0.0000

> <Gold.PLP.part.buried>
-3.7096

> <Gold.PLP.part.nonpolar>
-36.5842

> <Gold.PLP.part.repulsive>
0.5079

> <Gold.PLP.ligand.clash>
0.0039

> <Gold.PLP.ligand.torsion>
2.0722

> <Gold.PLP.Chemscore.Hbond>
2.9920

> <Gold.PLP.Chemscore.CHOScore>
0.8824

> <Gold.PLP.Chemscore.Metal>
0.0000

> <Gold.Chemscore.Hbonds>
donor molecule, donor type, donor heavy atom, donor atom, acceptor molecule, acceptor atom, score
      P1  H  6896  6907       L1    22  1.00
      P1  H  7989  7998       L1    26  1.00
      P1  H 10785 10796       L1     1  1.00
      L1  C    17    42       P1  7948  0.81

> <Gold.PLP.Chemscore.Internal.Correction>
0.5989

> <Gold.Rescore>
     Score         DG    S(hbond)    S(metal)    S(lipo)     H(rot)  DE(clash)    DE(int)     intcor
      9.62     -14.58       2.72        0.00      92.64       4.22       1.48       3.48       ----

> <Gold.Chemscore.Fitness>
9.6194

> <Gold.Chemscore.DG>
-14.5762

> <Gold.Chemscore.ZeroCoef>
-5.4800

> <Gold.Chemscore.Hbond>
2.7161

> <Gold.Chemscore.Metal>
0.0000

> <Gold.Chemscore.Lipo>
92.6428

> <Gold.Chemscore.Internal_Hbond>
0.0000

> <Gold.Chemscore.DEClash>
1.4814

> <Gold.Chemscore.DEInternal>
3.4754

> <Gold.Chemscore.Rot>
4.2246

> <Gold.Chemscore.Internal.Correction>
   9.000000E+99

> <Gold.Chemscore.Hbonds>
donor molecule, donor type, donor heavy atom, donor atom, acceptor molecule, acceptor atom, score
      P1  H  6896  6907       L1    22  0.31
      P1  H  7989  7998       L1    26  0.60
      P1  H 10785 10796       L1     1  0.25

> <Gold.Chemscore.Hbond.Weighted>
-9.0718

> <Gold.Chemscore.Metal.Weighted>
-0.0000

> <Gold.Chemscore.Lipo.Weighted>
-10.8392

> <Gold.Chemscore.Internal_Hbond.Weighted>
0.0000

> <Gold.Chemscore.DEClash.Weighted>
1.4814

> <Gold.Chemscore.DEInternal.Weighted>
3.4754

> <Gold.Chemscore.Rot.Weighted>
10.8149

> <Gold.Chemscore.Internal.Correction.Weighted>
   9.000000E+99

> <Gold.Protein.RotatedTorsions>
[ 6907 6896 6895 6894 ] final  -75.78 input  -60.11 | X-H torsion
[ 7974 7965 7964 7962 ] final  152.38 input  175.53 | X-H torsion
[ 8008 7997 7996 7995 ] final -138.30 input   59.86 | X-H torsion
[ 10167 10162 10161 10158 ] final  176.27 input  -65.29 | X-H torsion
[ 10718 10713 10712 10709 ] final  131.36 input   66.30 | X-H torsion
[ 10763 10752 10751 10750 ] final  109.48 input  -60.55 | X-H torsion
[ 11005 11000 10999 10996 ] final -108.15 input  -57.11 | X-H torsion

> <Gold.Protein.ActiveResidues>
 VAL166  LYS551  ARG553  GLY616  TRP617  ASP618  TYR619  PRO620  LYS621  CYS622 
 ASP623  PHE694  ASN695  SER759  ASP760  ASP761  ALA762  ILE779  LEU786  VAL792 
 PHE793  MET794  SER795  GLU796  ALA797  LYS798  CYS799  TRP800  GLU811  SER814 

> <Gold.Protein.RotatedAtoms>
  150.7048  134.4670  159.5406 H   0  0  0  0  0  0  0  0  0  0  0  0  # atno 6907 bound_to 6896
  152.2333  134.8297  160.0479 H   0  0  0  0  0  0  0  0  0  0  0  0  # atno 6908 bound_to 6896
  151.9105  133.3525  159.3899 H   0  0  0  0  0  0  0  0  0  0  0  0  # atno 6909 bound_to 6896
  144.8226  139.6661  143.6093 H   0  0  0  0  0  0  0  0  0  0  0  0  # atno 7974 bound_to 7965
  155.4261  140.0522  157.3022 H   0  0  0  0  0  0  0  0  0  0  0  0  # atno 8008 bound_to 7997
  154.4880  140.2109  155.9569 H   0  0  0  0  0  0  0  0  0  0  0  0  # atno 8009 bound_to 7997
  156.1303  140.3173  155.8344 H   0  0  0  0  0  0  0  0  0  0  0  0  # atno 8010 bound_to 7997
  139.5208  144.2934  152.0443 H   0  0  0  0  0  0  0  0  0  0  0  0  # atno 10167 bound_to 10162
  157.4974  131.1093  150.9473 H   0  0  0  0  0  0  0  0  0  0  0  0  # atno 10718 bound_to 10713
  153.4353  135.3779  155.2195 H   0  0  0  0  0  0  0  0  0  0  0  0  # atno 10763 bound_to 10752
  154.8752  135.3850  154.4218 H   0  0  0  0  0  0  0  0  0  0  0  0  # atno 10764 bound_to 10752
  153.4756  135.7087  153.6031 H   0  0  0  0  0  0  0  0  0  0  0  0  # atno 10765 bound_to 10752
  141.0917  133.9043  157.2060 H   0  0  0  0  0  0  0  0  0  0  0  0  # atno 11005 bound_to 11000
  146.2532  139.6245  142.9413 LP  0  0  0  0  0  0  0  0  0  0  0  0  # atno 17320 bound_to 7965
  145.5070  141.0436  143.2509 LP  0  0  0  0  0  0  0  0  0  0  0  0  # atno 17321 bound_to 7965
  140.2385  144.4295  150.6270 LP  0  0  0  0  0  0  0  0  0  0  0  0  # atno 17342 bound_to 10162
  140.6307  143.2187  151.6501 LP  0  0  0  0  0  0  0  0  0  0  0  0  # atno 17343 bound_to 10162
  157.0155  130.5653  149.5325 LP  0  0  0  0  0  0  0  0  0  0  0  0  # atno 17370 bound_to 10713
  156.0209  130.5304  150.8272 LP  0  0  0  0  0  0  0  0  0  0  0  0  # atno 17371 bound_to 10713
  139.9744  135.0118  156.9594 LP  0  0  0  0  0  0  0  0  0  0  0  0  # atno 17394 bound_to 11000
  140.5237  134.0882  155.7298 LP  0  0  0  0  0  0  0  0  0  0  0  0  # atno 17395 bound_to 11000

$$$$
