AV-unprocessed.smi:753|AV-procd|sdf|3601|dock4
  -GOLD-   22720 0593D 1   1.00000     0.00000
 Structure written by MMmdl.
 43 45  0  0  0  0  0  0  0  0  1 V2000
  152.8962  138.7690  155.1176 C   0  0  0  0  0  0  0  0  0  0  0  0
  151.4105  138.9252  154.8696 C   0  0  0  0  0  0  0  0  0  0  0  0
  150.6041  137.8027  154.5867 C   0  0  0  0  0  0  0  0  0  0  0  0
  149.2290  138.0048  154.3618 C   0  0  0  0  0  0  0  0  0  0  0  0
  148.7145  139.3161  154.4277 C   0  0  0  0  0  0  0  0  0  0  0  0
  147.2444  139.5944  154.1679 C   0  0  0  0  0  0  0  0  0  0  0  0
  146.8191  139.3505  152.7077 C   0  0  0  0  0  0  0  0  0  0  0  0
  146.8132  137.9312  152.3630 N   0  0  0  0  0  0  0  0  0  0  0  0
  145.7219  137.1510  152.2753 C   0  0  0  0  0  0  0  0  0  0  0  0
  144.5795  137.5512  152.4905 O   0  0  0  0  0  0  0  0  0  0  0  0
  145.9707  135.8792  151.9181 N   0  0  0  0  0  0  0  0  0  0  0  0
  145.0061  134.7914  151.7369 C   0  0  2  0  0  0  0  0  0  0  0  0
  144.9916  133.8512  152.9626 C   0  0  0  0  0  0  0  0  0  0  0  0
  145.3383  132.4793  152.3554 C   0  0  2  0  0  0  0  0  0  0  0  0
  146.8207  132.4590  151.9353 C   0  0  0  0  0  0  0  0  0  0  0  0
  146.8307  133.3477  150.6773 C   0  0  0  0  0  0  0  0  0  0  0  0
  145.3623  133.8159  150.5841 C   0  0  1  0  0  0  0  0  0  0  0  0
  144.6280  132.5492  151.0106 C   0  0  0  0  0  0  0  0  0  0  0  0
  149.6064  140.3689  154.7224 C   0  0  0  0  0  0  0  0  0  0  0  0
  150.9260  140.1847  154.9409 N   0  0  0  0  0  0  0  0  0  0  0  0
  153.2560  137.8074  154.7504 H   0  0  0  0  0  0  0  0  0  0  0  0
  153.1084  138.8297  156.1850 H   0  0  0  0  0  0  0  0  0  0  0  0
  153.4570  139.5545  154.6099 H   0  0  0  0  0  0  0  0  0  0  0  0
  151.0267  136.8099  154.5396 H   0  0  0  0  0  0  0  0  0  0  0  0
  148.5851  137.1681  154.1342 H   0  0  0  0  0  0  0  0  0  0  0  0
  146.6403  138.9763  154.8335 H   0  0  0  0  0  0  0  0  0  0  0  0
  147.0330  140.6286  154.4418 H   0  0  0  0  0  0  0  0  0  0  0  0
  145.8130  139.7401  152.5518 H   0  0  0  0  0  0  0  0  0  0  0  0
  147.4671  139.9086  152.0298 H   0  0  0  0  0  0  0  0  0  0  0  0
  147.7088  137.5092  152.1657 H   0  0  0  0  0  0  0  0  0  0  0  0
  146.9358  135.6440  151.7367 H   0  0  0  0  0  0  0  0  0  0  0  0
  144.0045  135.2013  151.5919 H   0  0  0  0  0  0  0  0  0  0  0  0
  145.6983  134.1420  153.7416 H   0  0  0  0  0  0  0  0  0  0  0  0
  143.9983  133.8316  153.4131 H   0  0  0  0  0  0  0  0  0  0  0  0
  145.0509  131.6381  152.9865 H   0  0  0  0  0  0  0  0  0  0  0  0
  147.4753  132.8418  152.7192 H   0  0  0  0  0  0  0  0  0  0  0  0
  147.1458  131.4467  151.6919 H   0  0  0  0  0  0  0  0  0  0  0  0
  147.5484  134.1652  150.7444 H   0  0  0  0  0  0  0  0  0  0  0  0
  147.0970  132.7567  149.7999 H   0  0  0  0  0  0  0  0  0  0  0  0
  145.0880  134.1872  149.5962 H   0  0  0  0  0  0  0  0  0  0  0  0
  144.8320  131.6911  150.3675 H   0  0  0  0  0  0  0  0  0  0  0  0
  143.5482  132.6826  151.0971 H   0  0  0  0  0  0  0  0  0  0  0  0
  149.2531  141.3882  154.7760 H   0  0  0  0  0  0  0  0  0  0  0  0
  1  2  1  0  0  0  0
  1 21  1  0  0  0  0
  1 22  1  0  0  0  0
  1 23  1  0  0  0  0
  2 20  1  0  0  0  0
  2  3  2  0  0  0  0
  3  4  1  0  0  0  0
  3 24  1  0  0  0  0
  4  5  2  0  0  0  0
  4 25  1  0  0  0  0
  5  6  1  0  0  0  0
  5 19  1  0  0  0  0
  6  7  1  0  0  0  0
  6 26  1  0  0  0  0
  6 27  1  0  0  0  0
  7  8  1  0  0  0  0
  7 28  1  0  0  0  0
  7 29  1  0  0  0  0
  8  9  1  0  0  0  0
  8 30  1  0  0  0  0
  9 10  2  0  0  0  0
  9 11  1  0  0  0  0
 11 12  1  0  0  0  0
 11 31  1  0  0  0  0
 12 17  1  0  0  0  0
 12 13  1  0  0  0  0
 12 32  1  0  0  0  0
 13 14  1  0  0  0  0
 13 33  1  0  0  0  0
 13 34  1  0  0  0  0
 14 18  1  0  0  0  0
 14 15  1  0  0  0  0
 14 35  1  0  0  0  0
 15 16  1  0  0  0  0
 15 36  1  0  0  0  0
 15 37  1  0  0  0  0
 16 17  1  0  0  0  0
 16 38  1  0  0  0  0
 16 39  1  0  0  0  0
 17 18  1  0  0  0  0
 17 40  1  0  0  0  0
 18 41  1  0  0  0  0
 18 42  1  0  0  0  0
 19 20  2  0  0  0  0
 19 43  1  0  0  0  0
M  END
> <s_m_source_file>
AV-unprocessed.smi

> <i_m_source_file_index>
753

> <i_lp_mmshare_version>
43012

> <i_f3d_flags>
0

> <s_epik_input>
W0NIM11jMVtjSF1bY0hdYyhbY0hdbjEpW0NIMl1bQ0gyXVtOSF1DKD1PKVtOSF1bQ0BIXShbQ0gyXVtDQEBIXTIzKVtDQEBIXShbQ0gyXTMpW0NIMl1bQ0gyXTI=

> <s_epik_cmdline>
J2VwaWtfcHl0aG9uJywgJy1waCcsICc3LjAnLCAnLXRuJywgJzgnLCAnLW1hJywgJzIwMCcsICctbWV0YWxfYmluZGluZycsICctaW1hZScsICc8aW5maWxlLm1hZT4nLCAnLW9tYWUnLCAnPG91dGZpbGUubWFlPic=

> <r_epik_Ionization_Penalty>
0.0569047

> <r_epik_Ionization_Penalty_Charging>
0

> <r_epik_Ionization_Penalty_Neutral>
0.0569047

> <r_epik_State_Penalty>
0.0490541

> <r_epik_Charging_Adjusted_Penalty>
0.0490541

> <i_epik_Tot_Q>
0

> <i_epik_Tot_abs_Q>
0

> <r_epik_Metal_State_Penalty>
0.0447357

> <b_epik_Metal_Only>
0

> <s_lp_Force_Field>
OPLS_2005

> <r_lp_Energy>
52.9013

> <b_lp_Chiralities_Consistent>
1

> <s_lp_Variant>
AV-unprocessed.smi:753-3

> <Gold.Version>
5.8.1

> <Gold.Id.Protein>
6NUR|6NUR_protein|mol2

> <Gold.PLP.Fitness>
42.8515

> <Gold.PLP.PLP>
-35.3367

> <Gold.PLP.part.hbond>
-3.0000

> <Gold.PLP.part.metal>
0.0000

> <Gold.PLP.part.buried>
-2.7813

> <Gold.PLP.part.nonpolar>
-30.5202

> <Gold.PLP.part.repulsive>
1.3116

> <Gold.PLP.ligand.clash>
0.0000

> <Gold.PLP.ligand.torsion>
0.5131

> <Gold.PLP.Chemscore.Hbond>
2.8406

> <Gold.PLP.Chemscore.CHOScore>
0.0000

> <Gold.PLP.Chemscore.Metal>
0.0000

> <Gold.Chemscore.Hbonds>
donor molecule, donor type, donor heavy atom, donor atom, acceptor molecule, acceptor atom, score
      L1  H     8    30       P1  7948  1.00
      L1  H    11    31       P1  7948  0.87
      P1  H  7989  7998       L1    20  1.00

> <Gold.PLP.Chemscore.Internal.Correction>
0.0193

> <Gold.Rescore>
     Score         DG    S(hbond)    S(metal)    S(lipo)     H(rot)  DE(clash)    DE(int)     intcor
     18.94     -19.69       2.13        0.00      91.87       1.43       0.15       0.61       ----

> <Gold.Chemscore.Fitness>
18.9365

> <Gold.Chemscore.DG>
-19.6907

> <Gold.Chemscore.ZeroCoef>
-5.4800

> <Gold.Chemscore.Hbond>
2.1317

> <Gold.Chemscore.Metal>
0.0000

> <Gold.Chemscore.Lipo>
91.8741

> <Gold.Chemscore.Internal_Hbond>
0.0000

> <Gold.Chemscore.DEClash>
0.1479

> <Gold.Chemscore.DEInternal>
0.6064

> <Gold.Chemscore.Rot>
1.4291

> <Gold.Chemscore.Internal.Correction>
   9.000000E+99

> <Gold.Chemscore.Hbonds>
donor molecule, donor type, donor heavy atom, donor atom, acceptor molecule, acceptor atom, score
      L1  H     8    30       P1  7948  1.00
      L1  H    11    31       P1  7948  0.80
      P1  H  7989  7998       L1    20  0.09

> <Gold.Chemscore.Hbond.Weighted>
-7.1200

> <Gold.Chemscore.Metal.Weighted>
-0.0000

> <Gold.Chemscore.Lipo.Weighted>
-10.7493

> <Gold.Chemscore.Internal_Hbond.Weighted>
0.0000

> <Gold.Chemscore.DEClash.Weighted>
0.1479

> <Gold.Chemscore.DEInternal.Weighted>
0.6064

> <Gold.Chemscore.Rot.Weighted>
3.6585

> <Gold.Chemscore.Internal.Correction.Weighted>
   9.000000E+99

> <Gold.Protein.RotatedTorsions>
[ 6907 6896 6895 6894 ] final  151.62 input  -60.11 | X-H torsion
[ 7974 7965 7964 7962 ] final  141.29 input  175.53 | X-H torsion
[ 8008 7997 7996 7995 ] final -127.83 input   59.86 | X-H torsion
[ 10167 10162 10161 10158 ] final  -74.42 input  -65.29 | X-H torsion
[ 10718 10713 10712 10709 ] final -144.57 input   66.30 | X-H torsion
[ 10763 10752 10751 10750 ] final  -64.85 input  -60.55 | X-H torsion
[ 11005 11000 10999 10996 ] final -158.01 input  -57.11 | X-H torsion

> <Gold.Protein.ActiveResidues>
 VAL166  LYS551  ARG553  GLY616  TRP617  ASP618  TYR619  PRO620  LYS621  CYS622 
 ASP623  PHE694  ASN695  SER759  ASP760  ASP761  ALA762  ILE779  LEU786  VAL792 
 PHE793  MET794  SER795  GLU796  ALA797  LYS798  CYS799  TRP800  GLU811  SER814 

> <Gold.Protein.RotatedAtoms>
  152.0981  133.4235  159.4574 H   0  0  0  0  0  0  0  0  0  0  0  0  # atno 6907 bound_to 6896
  150.6863  134.2793  159.4629 H   0  0  0  0  0  0  0  0  0  0  0  0  # atno 6908 bound_to 6896
  152.0650  134.9569  160.0625 H   0  0  0  0  0  0  0  0  0  0  0  0  # atno 6909 bound_to 6896
  144.9110  139.5293  143.5709 H   0  0  0  0  0  0  0  0  0  0  0  0  # atno 7974 bound_to 7965
  155.2527  140.0433  157.2988 H   0  0  0  0  0  0  0  0  0  0  0  0  # atno 8008 bound_to 7997
  154.5759  140.2387  155.8093 H   0  0  0  0  0  0  0  0  0  0  0  0  # atno 8009 bound_to 7997
  156.2157  140.2985  155.9843 H   0  0  0  0  0  0  0  0  0  0  0  0  # atno 8010 bound_to 7997
  140.5028  143.2358  151.7723 H   0  0  0  0  0  0  0  0  0  0  0  0  # atno 10167 bound_to 10162
  156.3717  130.7791  151.1973 H   0  0  0  0  0  0  0  0  0  0  0  0  # atno 10718 bound_to 10713
  154.3363  135.6166  153.5575 H   0  0  0  0  0  0  0  0  0  0  0  0  # atno 10763 bound_to 10752
  152.9807  135.5759  154.4904 H   0  0  0  0  0  0  0  0  0  0  0  0  # atno 10764 bound_to 10752
  154.4600  135.2855  155.1697 H   0  0  0  0  0  0  0  0  0  0  0  0  # atno 10765 bound_to 10752
  140.6584  134.4376  157.5234 H   0  0  0  0  0  0  0  0  0  0  0  0  # atno 11005 bound_to 11000
  146.3158  139.7916  142.8984 LP  0  0  0  0  0  0  0  0  0  0  0  0  # atno 17320 bound_to 7965
  145.3454  141.0296  143.3368 LP  0  0  0  0  0  0  0  0  0  0  0  0  # atno 17321 bound_to 7965
  139.4876  144.4498  151.9667 LP  0  0  0  0  0  0  0  0  0  0  0  0  # atno 17342 bound_to 10162
  140.3587  144.2999  150.5937 LP  0  0  0  0  0  0  0  0  0  0  0  0  # atno 17343 bound_to 10162
  157.7484  131.0370  150.4436 LP  0  0  0  0  0  0  0  0  0  0  0  0  # atno 17370 bound_to 10713
  156.4664  130.4043  149.6544 LP  0  0  0  0  0  0  0  0  0  0  0  0  # atno 17371 bound_to 10713
  139.9021  134.8531  156.1851 LP  0  0  0  0  0  0  0  0  0  0  0  0  # atno 17394 bound_to 11000
  141.0484  133.6901  156.1726 LP  0  0  0  0  0  0  0  0  0  0  0  0  # atno 17395 bound_to 11000

$$$$
