AV-unprocessed.smi:773|AV-procd|sdf|3690|dock6
  -GOLD-   22720 1103D 1   1.00000     0.00000
 Structure written by MMmdl.
 39 40  0  0  0  0  0  0  0  0  1 V2000
  145.8076  142.2658  156.6234 C   0  0  0  0  0  0  0  0  0  0  0  0
  145.7209  143.0963  155.3756 C   0  0  0  0  0  0  0  0  0  0  0  0
  144.8896  144.1236  155.3311 N   0  0  0  0  0  0  0  0  0  0  0  0
  145.0236  144.6687  154.0505 O   0  0  0  0  0  0  0  0  0  0  0  0
  145.9424  143.9398  153.3674 C   0  0  0  0  0  0  0  0  0  0  0  0
  146.2144  144.3513  151.9605 C   0  0  0  0  0  0  0  0  0  0  0  0
  146.4278  142.9290  154.1501 C   0  0  0  0  0  0  0  0  0  0  0  0
  147.4419  141.8681  153.7971 C   0  0  0  0  0  0  0  0  0  0  0  0
  148.1567  141.2735  155.0317 C   0  0  1  0  0  0  0  0  0  0  0  0
  148.9018  139.9770  154.6868 C   0  0  0  0  0  0  0  0  0  0  0  0
  149.0981  142.2328  155.6107 N   0  0  0  0  0  0  0  0  0  0  0  0
  149.9608  141.9782  156.6059 C   0  0  0  0  0  0  0  0  0  0  0  0
  150.1314  140.8677  157.1097 O   0  0  0  0  0  0  0  0  0  0  0  0
  150.5820  143.0898  157.0193 N   0  0  0  0  0  0  0  0  0  0  0  0
  151.4772  143.1447  158.1676 C   0  0  0  0  0  0  0  0  0  0  0  0
  150.9915  144.0903  159.2775 C   0  0  0  0  0  0  0  0  0  0  0  0
  152.4477  144.5497  159.4181 C   0  0  0  0  0  0  0  0  0  0  0  0
  152.6540  144.1077  157.9636 C   0  0  0  0  0  0  0  0  0  0  0  0
  145.7612  141.2027  156.3872 H   0  0  0  0  0  0  0  0  0  0  0  0
  144.9910  142.4845  157.3124 H   0  0  0  0  0  0  0  0  0  0  0  0
  146.7451  142.4494  157.1482 H   0  0  0  0  0  0  0  0  0  0  0  0
  147.2867  144.3820  151.7670 H   0  0  0  0  0  0  0  0  0  0  0  0
  145.8050  145.3401  151.7532 H   0  0  0  0  0  0  0  0  0  0  0  0
  145.7644  143.6464  151.2615 H   0  0  0  0  0  0  0  0  0  0  0  0
  146.9644  141.0602  153.2416 H   0  0  0  0  0  0  0  0  0  0  0  0
  148.1905  142.2775  153.1179 H   0  0  0  0  0  0  0  0  0  0  0  0
  147.3963  141.0233  155.7735 H   0  0  0  0  0  0  0  0  0  0  0  0
  148.2211  139.2322  154.2739 H   0  0  0  0  0  0  0  0  0  0  0  0
  149.3651  139.5430  155.5735 H   0  0  0  0  0  0  0  0  0  0  0  0
  149.6884  140.1528  153.9521 H   0  0  0  0  0  0  0  0  0  0  0  0
  149.0421  143.1806  155.2685 H   0  0  0  0  0  0  0  0  0  0  0  0
  150.3822  143.9597  156.5480 H   0  0  0  0  0  0  0  0  0  0  0  0
  151.7936  142.1714  158.5484 H   0  0  0  0  0  0  0  0  0  0  0  0
  150.3310  144.8833  158.9203 H   0  0  0  0  0  0  0  0  0  0  0  0
  150.5821  143.5898  160.1554 H   0  0  0  0  0  0  0  0  0  0  0  0
  152.5750  145.6179  159.5950 H   0  0  0  0  0  0  0  0  0  0  0  0
  153.0158  143.9488  160.1304 H   0  0  0  0  0  0  0  0  0  0  0  0
  153.6114  143.6246  157.7658 H   0  0  0  0  0  0  0  0  0  0  0  0
  152.4480  144.9070  157.2490 H   0  0  0  0  0  0  0  0  0  0  0  0
  1  2  1  0  0  0  0
  1 19  1  0  0  0  0
  1 20  1  0  0  0  0
  1 21  1  0  0  0  0
  2  7  1  0  0  0  0
  2  3  2  0  0  0  0
  3  4  1  0  0  0  0
  4  5  1  0  0  0  0
  5  6  1  0  0  0  0
  5  7  2  0  0  0  0
  6 22  1  0  0  0  0
  6 23  1  0  0  0  0
  6 24  1  0  0  0  0
  7  8  1  0  0  0  0
  8  9  1  0  0  0  0
  8 25  1  0  0  0  0
  8 26  1  0  0  0  0
  9 10  1  0  0  0  0
  9 11  1  0  0  0  0
  9 27  1  0  0  0  0
 10 28  1  0  0  0  0
 10 29  1  0  0  0  0
 10 30  1  0  0  0  0
 11 12  1  0  0  0  0
 11 31  1  0  0  0  0
 12 13  2  0  0  0  0
 12 14  1  0  0  0  0
 14 15  1  0  0  0  0
 14 32  1  0  0  0  0
 15 18  1  0  0  0  0
 15 16  1  0  0  0  0
 15 33  1  0  0  0  0
 16 17  1  0  0  0  0
 16 34  1  0  0  0  0
 16 35  1  0  0  0  0
 17 18  1  0  0  0  0
 17 36  1  0  0  0  0
 17 37  1  0  0  0  0
 18 38  1  0  0  0  0
 18 39  1  0  0  0  0
M  END
> <s_m_source_file>
AV-unprocessed.smi

> <i_m_source_file_index>
773

> <i_lp_mmshare_version>
43012

> <i_f3d_flags>
0

> <s_epik_input>
W0NIM11jMW5vYyhbQ0gzXSljMVtDSDJdW0NASF0oW0NIM10pW05IXUMoPU8pW05IXVtDSF0yW0NIMl1bQ0gyXVtDSDJdMg==

> <s_epik_cmdline>
J2VwaWtfcHl0aG9uJywgJy1waCcsICc3LjAnLCAnLXRuJywgJzgnLCAnLW1hJywgJzIwMCcsICctbWV0YWxfYmluZGluZycsICctaW1hZScsICc8aW5maWxlLm1hZT4nLCAnLW9tYWUnLCAnPG91dGZpbGUubWFlPic=

> <r_lp_tautomer_probability>
1

> <r_epik_Ionization_Penalty>
6.63278e-05

> <r_epik_Ionization_Penalty_Charging>
0

> <r_epik_Ionization_Penalty_Neutral>
6.63278e-05

> <r_epik_State_Penalty>
-0

> <r_epik_Charging_Adjusted_Penalty>
0

> <i_epik_Tot_Q>
0

> <i_epik_Tot_abs_Q>
0

> <r_epik_Metal_State_Penalty>
-0

> <b_epik_Metal_Only>
0

> <s_lp_Force_Field>
OPLS_2005

> <r_lp_Energy>
6.89309

> <b_lp_Chiralities_Consistent>
1

> <s_lp_Variant>
AV-unprocessed.smi:773-2

> <Gold.Version>
5.8.1

> <Gold.Id.Protein>
6NUR|6NUR_protein|mol2

> <Gold.PLP.Fitness>
42.1485

> <Gold.PLP.PLP>
-38.1041

> <Gold.PLP.part.hbond>
-1.6439

> <Gold.PLP.part.metal>
0.0000

> <Gold.PLP.part.buried>
-5.1958

> <Gold.PLP.part.nonpolar>
-33.2742

> <Gold.PLP.part.repulsive>
0.4136

> <Gold.PLP.ligand.clash>
0.0000

> <Gold.PLP.ligand.torsion>
0.6689

> <Gold.PLP.Chemscore.Hbond>
1.7093

> <Gold.PLP.Chemscore.CHOScore>
0.0000

> <Gold.PLP.Chemscore.Metal>
0.0000

> <Gold.Chemscore.Hbonds>
donor molecule, donor type, donor heavy atom, donor atom, acceptor molecule, acceptor atom, score
      L1  H    11    31       P1  8028  0.94
      L1  H    14    32       P1  8028  0.75

> <Gold.PLP.Chemscore.Internal.Correction>
0.2544

> <Gold.Rescore>
     Score         DG    S(hbond)    S(metal)    S(lipo)     H(rot)  DE(clash)    DE(int)     intcor
     14.78     -18.66       1.87        0.00      93.39       1.56       1.59       2.29       ----

> <Gold.Chemscore.Fitness>
14.7787

> <Gold.Chemscore.DG>
-18.6577

> <Gold.Chemscore.ZeroCoef>
-5.4800

> <Gold.Chemscore.Hbond>
1.8717

> <Gold.Chemscore.Metal>
0.0000

> <Gold.Chemscore.Lipo>
93.3860

> <Gold.Chemscore.Internal_Hbond>
0.0000

> <Gold.Chemscore.DEClash>
1.5900

> <Gold.Chemscore.DEInternal>
2.2891

> <Gold.Chemscore.Rot>
1.5625

> <Gold.Chemscore.Internal.Correction>
   9.000000E+99

> <Gold.Chemscore.Hbonds>
donor molecule, donor type, donor heavy atom, donor atom, acceptor molecule, acceptor atom, score
      L1  H    11    31       P1  8028  0.89
      L1  H    14    32       P1  8028  0.74

> <Gold.Chemscore.Hbond.Weighted>
-6.2516

> <Gold.Chemscore.Metal.Weighted>
-0.0000

> <Gold.Chemscore.Lipo.Weighted>
-10.9262

> <Gold.Chemscore.Internal_Hbond.Weighted>
0.0000

> <Gold.Chemscore.DEClash.Weighted>
1.5900

> <Gold.Chemscore.DEInternal.Weighted>
2.2891

> <Gold.Chemscore.Rot.Weighted>
4.0000

> <Gold.Chemscore.Internal.Correction.Weighted>
   9.000000E+99

> <Gold.Protein.RotatedTorsions>
[ 6907 6896 6895 6894 ] final  178.42 input  -60.11 | X-H torsion
[ 7974 7965 7964 7962 ] final -162.05 input  175.53 | X-H torsion
[ 8008 7997 7996 7995 ] final  -16.70 input   59.86 | X-H torsion
[ 10167 10162 10161 10158 ] final  104.85 input  -65.29 | X-H torsion
[ 10718 10713 10712 10709 ] final   -5.31 input   66.30 | X-H torsion
[ 10763 10752 10751 10750 ] final   48.32 input  -60.55 | X-H torsion
[ 11005 11000 10999 10996 ] final  -18.63 input  -57.11 | X-H torsion

> <Gold.Protein.ActiveResidues>
 VAL166  LYS551  ARG553  GLY616  TRP617  ASP618  TYR619  PRO620  LYS621  CYS622 
 ASP623  PHE694  ASN695  SER759  ASP760  ASP761  ALA762  ILE779  LEU786  VAL792 
 PHE793  MET794  SER795  GLU796  ALA797  LYS798  CYS799  TRP800  GLU811  SER814 

> <Gold.Protein.RotatedAtoms>
  151.6880  133.3311  159.3235 H   0  0  0  0  0  0  0  0  0  0  0  0  # atno 6907 bound_to 6896
  150.7792  134.6723  159.6407 H   0  0  0  0  0  0  0  0  0  0  0  0  # atno 6908 bound_to 6896
  152.3844  134.6544  160.0183 H   0  0  0  0  0  0  0  0  0  0  0  0  # atno 6909 bound_to 6896
  144.7370  140.3308  143.6153 H   0  0  0  0  0  0  0  0  0  0  0  0  # atno 7974 bound_to 7965
  154.5033  140.2162  155.9302 H   0  0  0  0  0  0  0  0  0  0  0  0  # atno 8008 bound_to 7997
  156.1462  140.3170  155.8541 H   0  0  0  0  0  0  0  0  0  0  0  0  # atno 8009 bound_to 7997
  155.4026  140.0485  157.3026 H   0  0  0  0  0  0  0  0  0  0  0  0  # atno 8010 bound_to 7997
  139.7142  144.7071  151.0977 H   0  0  0  0  0  0  0  0  0  0  0  0  # atno 10167 bound_to 10162
  156.7485  130.5232  149.5809 H   0  0  0  0  0  0  0  0  0  0  0  0  # atno 10718 bound_to 10713
  152.9793  135.5948  154.3907 H   0  0  0  0  0  0  0  0  0  0  0  0  # atno 10763 bound_to 10752
  154.3563  135.2767  155.2346 H   0  0  0  0  0  0  0  0  0  0  0  0  # atno 10764 bound_to 10752
  154.4364  135.6024  153.6156 H   0  0  0  0  0  0  0  0  0  0  0  0  # atno 10765 bound_to 10752
  140.8287  133.8013  155.9735 H   0  0  0  0  0  0  0  0  0  0  0  0  # atno 11005 bound_to 11000
  145.7473  139.1783  143.2341 LP  0  0  0  0  0  0  0  0  0  0  0  0  # atno 17320 bound_to 7965
  146.1088  140.7454  142.9513 LP  0  0  0  0  0  0  0  0  0  0  0  0  # atno 17321 bound_to 7965
  140.7740  143.5252  150.9488 LP  0  0  0  0  0  0  0  0  0  0  0  0  # atno 17342 bound_to 10162
  139.8938  143.6921  152.3141 LP  0  0  0  0  0  0  0  0  0  0  0  0  # atno 17343 bound_to 10162
  156.1417  130.6249  151.0476 LP  0  0  0  0  0  0  0  0  0  0  0  0  # atno 17370 bound_to 10713
  157.6787  131.0843  150.7426 LP  0  0  0  0  0  0  0  0  0  0  0  0  # atno 17371 bound_to 10713
  140.9022  134.2364  157.5035 LP  0  0  0  0  0  0  0  0  0  0  0  0  # atno 17394 bound_to 11000
  139.8705  134.9711  156.4727 LP  0  0  0  0  0  0  0  0  0  0  0  0  # atno 17395 bound_to 11000

$$$$
