AV-unprocessed.smi:109|AV-procd|sdf|1031|dock2
  -GOLD-   2262018 33D 1   1.00000     0.00000
 Structure written by MMmdl.
 58 61  0  0  0  0  0  0  0  0  1 V2000
  152.5467  136.9002  159.6487 O   0  0  0  0  0  0  0  0  0  0  0  0
  152.0065  138.1961  159.5051 C   0  0  0  0  0  0  0  0  0  0  0  0
  152.5494  138.8503  158.2229 C   0  0  0  0  0  0  0  0  0  0  0  0
  151.8624  140.1883  157.8540 C   0  0  2  0  0  0  0  0  0  0  0  0
  151.9102  140.3760  156.4021 N   0  0  0  0  0  0  0  0  0  0  0  0
  150.8336  140.1701  155.6101 C   0  0  0  0  0  0  0  0  0  0  0  0
  150.8628  139.2754  154.5884 N   0  0  0  0  0  0  0  0  0  0  0  0
  149.7828  139.0977  153.8225 C   0  0  0  0  0  0  0  0  0  0  0  0
  148.5952  139.7009  153.9036 N   0  0  0  0  0  0  0  0  0  0  0  0
  148.5589  140.6017  154.9279 C   0  0  0  0  0  0  0  0  0  0  0  0
  149.6294  140.8904  155.8195 C   0  0  0  0  0  0  0  0  0  0  0  0
  149.2327  141.8572  156.7338 N   0  0  0  0  0  0  0  0  0  0  0  0
  147.9978  142.1201  156.3993 C   0  0  0  0  0  0  0  0  0  0  0  0
  147.5136  141.4125  155.3214 N   0  0  0  0  0  0  0  0  0  0  0  0
  146.1513  141.4984  154.7130 C   0  0  2  0  0  0  0  0  0  0  0  0
  145.9402  142.8162  154.3086 O   0  0  0  0  0  0  0  0  0  0  0  0
  144.6115  143.2093  154.6309 C   0  0  2  0  0  0  0  0  0  0  0  0
  144.5371  144.7391  154.7519 C   0  0  0  0  0  0  0  0  0  0  0  0
  144.3517  145.3167  153.4772 O   0  0  0  0  0  0  0  0  0  0  0  0
  144.3629  142.4778  155.9511 C   0  0  1  0  0  0  0  0  0  0  0  0
  142.9869  142.3508  156.2584 O   0  0  0  0  0  0  0  0  0  0  0  0
  145.0652  141.1377  155.7403 C   0  0  1  0  0  0  0  0  0  0  0  0
  144.1921  140.1504  155.2225 O   0  0  0  0  0  0  0  0  0  0  0  0
  152.4916  141.4260  158.5569 C   0  0  0  0  0  0  0  0  0  0  0  0
  152.5163  141.3004  160.1013 C   0  0  0  0  0  0  0  0  0  0  0  0
  153.0978  142.5492  160.7849 C   0  0  0  0  0  0  0  0  0  0  0  0
  152.3394  143.8173  160.3755 C   0  0  0  0  0  0  0  0  0  0  0  0
  152.3365  143.9729  158.8505 C   0  0  0  0  0  0  0  0  0  0  0  0
  151.7452  142.7292  158.1689 C   0  0  0  0  0  0  0  0  0  0  0  0
  146.1857  140.8276  153.8530 H   0  0  0  0  0  0  0  0  0  0  0  0
  143.9272  142.8348  153.8665 H   0  0  0  0  0  0  0  0  0  0  0  0
  144.8499  143.0143  156.7653 H   0  0  0  0  0  0  0  0  0  0  0  0
  145.5047  140.7642  156.6664 H   0  0  0  0  0  0  0  0  0  0  0  0
  153.4089  136.9746  160.0280 H   0  0  0  0  0  0  0  0  0  0  0  0
  150.9197  138.1159  159.4799 H   0  0  0  0  0  0  0  0  0  0  0  0
  152.2720  138.7889  160.3810 H   0  0  0  0  0  0  0  0  0  0  0  0
  153.6142  139.0124  158.3811 H   0  0  0  0  0  0  0  0  0  0  0  0
  152.4652  138.1516  157.3894 H   0  0  0  0  0  0  0  0  0  0  0  0
  150.8305  140.1331  158.1998 H   0  0  0  0  0  0  0  0  0  0  0  0
  152.7942  140.7019  156.0380 H   0  0  0  0  0  0  0  0  0  0  0  0
  149.8844  138.3684  153.0325 H   0  0  0  0  0  0  0  0  0  0  0  0
  147.4024  142.8467  156.9330 H   0  0  0  0  0  0  0  0  0  0  0  0
  143.6843  145.0266  155.3673 H   0  0  0  0  0  0  0  0  0  0  0  0
  145.4308  145.1435  155.2282 H   0  0  0  0  0  0  0  0  0  0  0  0
  144.3847  146.2570  153.5655 H   0  0  0  0  0  0  0  0  0  0  0  0
  142.7205  143.1098  156.7546 H   0  0  0  0  0  0  0  0  0  0  0  0
  143.9445  140.4015  154.3456 H   0  0  0  0  0  0  0  0  0  0  0  0
  153.5242  141.5176  158.2159 H   0  0  0  0  0  0  0  0  0  0  0  0
  151.5062  141.1200  160.4715 H   0  0  0  0  0  0  0  0  0  0  0  0
  153.1186  140.4486  160.4132 H   0  0  0  0  0  0  0  0  0  0  0  0
  153.0607  142.4293  161.8680 H   0  0  0  0  0  0  0  0  0  0  0  0
  154.1514  142.6526  160.5220 H   0  0  0  0  0  0  0  0  0  0  0  0
  151.3134  143.7677  160.7428 H   0  0  0  0  0  0  0  0  0  0  0  0
  152.7944  144.6927  160.8397 H   0  0  0  0  0  0  0  0  0  0  0  0
  151.7643  144.8574  158.5691 H   0  0  0  0  0  0  0  0  0  0  0  0
  153.3546  144.1365  158.4951 H   0  0  0  0  0  0  0  0  0  0  0  0
  151.7751  142.8872  157.0908 H   0  0  0  0  0  0  0  0  0  0  0  0
  150.6906  142.6392  158.4340 H   0  0  0  0  0  0  0  0  0  0  0  0
  1  2  1  0  0  0  0
  1 34  1  0  0  0  0
  2  3  1  0  0  0  0
  2 35  1  0  0  0  0
  2 36  1  0  0  0  0
  3  4  1  0  0  0  0
  3 37  1  0  0  0  0
  3 38  1  0  0  0  0
  4  5  1  0  0  0  0
  4 24  1  0  0  0  0
  4 39  1  0  0  0  0
  5  6  1  0  0  0  0
  5 40  1  0  0  0  0
  6 11  1  0  0  0  0
  6  7  2  0  0  0  0
  7  8  1  0  0  0  0
  8  9  2  0  0  0  0
  8 41  1  0  0  0  0
  9 10  1  0  0  0  0
 10 14  1  0  0  0  0
 10 11  2  0  0  0  0
 11 12  1  0  0  0  0
 12 13  2  0  0  0  0
 13 14  1  0  0  0  0
 13 42  1  0  0  0  0
 14 15  1  0  0  0  0
 15 30  1  0  0  0  0
 15 22  1  0  0  0  0
 15 16  1  0  0  0  0
 16 17  1  0  0  0  0
 17 31  1  0  0  0  0
 17 18  1  0  0  0  0
 17 20  1  0  0  0  0
 18 19  1  0  0  0  0
 18 43  1  0  0  0  0
 18 44  1  0  0  0  0
 19 45  1  0  0  0  0
 20 32  1  0  0  0  0
 20 21  1  0  0  0  0
 20 22  1  0  0  0  0
 21 46  1  0  0  0  0
 22 33  1  0  0  0  0
 22 23  1  0  0  0  0
 23 47  1  0  0  0  0
 24 29  1  0  0  0  0
 24 25  1  0  0  0  0
 24 48  1  0  0  0  0
 25 26  1  0  0  0  0
 25 49  1  0  0  0  0
 25 50  1  0  0  0  0
 26 27  1  0  0  0  0
 26 51  1  0  0  0  0
 26 52  1  0  0  0  0
 27 28  1  0  0  0  0
 27 53  1  0  0  0  0
 27 54  1  0  0  0  0
 28 29  1  0  0  0  0
 28 55  1  0  0  0  0
 28 56  1  0  0  0  0
 29 57  1  0  0  0  0
 29 58  1  0  0  0  0
M  END
> <s_m_source_file>
AV-unprocessed.smi

> <i_m_source_file_index>
109

> <i_lp_mmshare_version>
43012

> <i_f3d_flags>
0

> <s_epik_input>
W0NIMl0xW0NIMl1bQ0gyXVtDSDJdW0NIMl1bQ0hdMVtDQEhdKFtDSDJdW0NIMl1bT0hdKVtOSF1jKG5bY0hdbjIpYyhjMjMpbltjSF1uM1tDQEBIXTRPW0NASF0oW0NIMl1bT0hdKVtDQEBIXShbT0hdKVtDQEhdNFtPSF0=

> <s_epik_cmdline>
J2VwaWtfcHl0aG9uJywgJy1waCcsICc3LjAnLCAnLXRuJywgJzgnLCAnLW1hJywgJzIwMCcsICctbWV0YWxfYmluZGluZycsICctaW1hZScsICc8aW5maWxlLm1hZT4nLCAnLW9tYWUnLCAnPG91dGZpbGUubWFlPic=

> <r_lp_tautomer_probability>
1

> <r_epik_Ionization_Penalty>
0.000793976

> <r_epik_Ionization_Penalty_Charging>
0

> <r_epik_Ionization_Penalty_Neutral>
0.000793976

> <r_epik_State_Penalty>
-0

> <r_epik_Charging_Adjusted_Penalty>
0

> <i_epik_Tot_Q>
0

> <i_epik_Tot_abs_Q>
0

> <r_epik_Metal_State_Penalty>
-0

> <b_epik_Metal_Only>
0

> <s_epik_Chemistry_Notes>
This compound contains an acetal/aminal-like group ( X-CH(R)-Y where X, Y are N, S, or O) that may be acid/base labile, releasing an aldehyde.

> <s_lp_Force_Field>
OPLS_2005

> <r_lp_Energy>
54.5538

> <b_lp_Chiralities_Consistent>
1

> <s_lp_Variant>
AV-unprocessed.smi:109-1

> <Gold.Version>
5.8.1

> <Gold.Id.Protein>
6NUR|6NUR_protein|mol2

> <Gold.PLP.Fitness>
48.8461

> <Gold.PLP.PLP>
-40.6195

> <Gold.PLP.part.hbond>
-2.9647

> <Gold.PLP.part.metal>
0.0000

> <Gold.PLP.part.buried>
-4.0593

> <Gold.PLP.part.nonpolar>
-36.0468

> <Gold.PLP.part.repulsive>
1.8712

> <Gold.PLP.ligand.clash>
0.0000

> <Gold.PLP.ligand.torsion>
1.2760

> <Gold.PLP.Chemscore.Hbond>
2.1865

> <Gold.PLP.Chemscore.CHOScore>
1.2865

> <Gold.PLP.Chemscore.Metal>
0.0000

> <Gold.Chemscore.Hbonds>
donor molecule, donor type, donor heavy atom, donor atom, acceptor molecule, acceptor atom, score
      L1  H    23    47       P1 10175  1.00
      P1  H  6896  6908       L1     1  1.00
      P1  H  7989  7998       L1     7  0.18
      L1  C     8    41       P1  7948  0.92
      L1  C     8    41       P1  7957  0.32
      L1  C    13    42       P1  8028  0.05

> <Gold.PLP.Chemscore.Internal.Correction>
0.3597

> <Gold.Rescore>
     Score         DG    S(hbond)    S(metal)    S(lipo)     H(rot)  DE(clash)    DE(int)     intcor
      6.93      -9.63       1.89        0.00     101.01       5.47       1.54       1.16       ----

> <Gold.Chemscore.Fitness>
6.9348

> <Gold.Chemscore.DG>
-9.6317

> <Gold.Chemscore.ZeroCoef>
-5.4800

> <Gold.Chemscore.Hbond>
1.8942

> <Gold.Chemscore.Metal>
0.0000

> <Gold.Chemscore.Lipo>
101.0122

> <Gold.Chemscore.Internal_Hbond>
0.0000

> <Gold.Chemscore.DEClash>
1.5352

> <Gold.Chemscore.DEInternal>
1.1616

> <Gold.Chemscore.Rot>
5.4662

> <Gold.Chemscore.Internal.Correction>
   9.000000E+99

> <Gold.Chemscore.Hbonds>
donor molecule, donor type, donor heavy atom, donor atom, acceptor molecule, acceptor atom, score
      L1  H    23    47       P1 10175  1.00
      P1  H  6896  6908       L1     1  0.77

> <Gold.Chemscore.Hbond.Weighted>
-6.3268

> <Gold.Chemscore.Metal.Weighted>
-0.0000

> <Gold.Chemscore.Lipo.Weighted>
-11.8184

> <Gold.Chemscore.Internal_Hbond.Weighted>
0.0000

> <Gold.Chemscore.DEClash.Weighted>
1.5352

> <Gold.Chemscore.DEInternal.Weighted>
1.1616

> <Gold.Chemscore.Rot.Weighted>
13.9935

> <Gold.Chemscore.Internal.Correction.Weighted>
   9.000000E+99

> <Gold.Protein.RotatedTorsions>
[ 6907 6896 6895 6894 ] final -110.56 input  -60.11 | X-H torsion
[ 7974 7965 7964 7962 ] final  109.75 input  175.53 | X-H torsion
[ 8008 7997 7996 7995 ] final -102.69 input   59.86 | X-H torsion
[ 10167 10162 10161 10158 ] final  168.19 input  -65.29 | X-H torsion
[ 10718 10713 10712 10709 ] final -161.76 input   66.30 | X-H torsion
[ 10763 10752 10751 10750 ] final  127.48 input  -60.55 | X-H torsion
[ 11005 11000 10999 10996 ] final   71.16 input  -57.11 | X-H torsion

> <Gold.Protein.ActiveResidues>
 VAL166  LYS551  ARG553  GLY616  TRP617  ASP618  TYR619  PRO620  LYS621  CYS622 
 ASP623  PHE694  ASN695  SER759  ASP760  ASP761  ALA762  ILE779  LEU786  VAL792 
 PHE793  MET794  SER795  GLU796  ALA797  LYS798  CYS799  TRP800  GLU811  SER814 

> <Gold.Protein.RotatedAtoms>
  150.7633  133.9364  159.3442 H   0  0  0  0  0  0  0  0  0  0  0  0  # atno 6907 bound_to 6896
  151.7268  135.0881  160.0303 H   0  0  0  0  0  0  0  0  0  0  0  0  # atno 6908 bound_to 6896
  152.3615  133.6265  159.6054 H   0  0  0  0  0  0  0  0  0  0  0  0  # atno 6909 bound_to 6896
  145.2637  139.2692  143.4003 H   0  0  0  0  0  0  0  0  0  0  0  0  # atno 7974 bound_to 7965
  154.8603  140.0427  157.1661 H   0  0  0  0  0  0  0  0  0  0  0  0  # atno 8008 bound_to 7997
  154.8847  140.2978  155.5384 H   0  0  0  0  0  0  0  0  0  0  0  0  # atno 8009 bound_to 7997
  156.2998  140.2404  156.3855 H   0  0  0  0  0  0  0  0  0  0  0  0  # atno 8010 bound_to 7997
  139.4962  144.3841  151.9589 H   0  0  0  0  0  0  0  0  0  0  0  0  # atno 10167 bound_to 10162
  156.6008  130.8809  151.2913 H   0  0  0  0  0  0  0  0  0  0  0  0  # atno 10718 bound_to 10713
  153.7100  135.3270  155.3244 H   0  0  0  0  0  0  0  0  0  0  0  0  # atno 10763 bound_to 10752
  154.8387  135.4474  154.1323 H   0  0  0  0  0  0  0  0  0  0  0  0  # atno 10764 bound_to 10752
  153.2414  135.6971  153.7858 H   0  0  0  0  0  0  0  0  0  0  0  0  # atno 10765 bound_to 10752
  139.9558  134.7146  156.0756 H   0  0  0  0  0  0  0  0  0  0  0  0  # atno 11005 bound_to 11000
  146.3267  140.3061  142.8624 LP  0  0  0  0  0  0  0  0  0  0  0  0  # atno 17320 bound_to 7965
  144.9395  140.8063  143.5639 LP  0  0  0  0  0  0  0  0  0  0  0  0  # atno 17321 bound_to 7965
  140.3278  144.3352  150.5994 LP  0  0  0  0  0  0  0  0  0  0  0  0  # atno 17342 bound_to 10162
  140.5670  143.2185  151.7666 LP  0  0  0  0  0  0  0  0  0  0  0  0  # atno 17343 bound_to 10162
  157.7280  130.9651  150.1723 LP  0  0  0  0  0  0  0  0  0  0  0  0  # atno 17370 bound_to 10713
  156.2471  130.3696  149.8273 LP  0  0  0  0  0  0  0  0  0  0  0  0  # atno 17371 bound_to 10713
  141.1229  133.6607  156.3261 LP  0  0  0  0  0  0  0  0  0  0  0  0  # atno 17394 bound_to 11000
  140.5612  134.5932  157.5434 LP  0  0  0  0  0  0  0  0  0  0  0  0  # atno 17395 bound_to 11000

$$$$
