AV-unprocessed.smi:1834|AV-procd|sdf|7471|dock7
  -GOLD-   22720 9163D 1   1.00000     0.00000
 Structure written by MMmdl.
 46 47  0  0  0  0  0  0  0  0  2 V2000
  146.5361  137.9799  157.7915 C   0  0  0  0  0  0  0  0  0  0  0  0
  146.4524  139.4759  157.4566 C   0  0  0  0  0  0  0  0  0  0  0  0
  147.1023  139.8124  156.1638 N   0  3  1  0  0  0  0  0  0  0  0  0
  146.5006  139.0650  155.0287 C   0  0  0  0  0  0  0  0  0  0  0  0
  147.2525  139.3322  153.7144 C   0  0  0  0  0  0  0  0  0  0  0  0
  147.3358  140.8370  153.4172 C   0  0  0  0  0  0  0  0  0  0  0  0
  147.9322  141.6086  154.6094 C   0  0  2  0  0  0  0  0  0  0  0  0
  149.4602  141.3927  154.7307 C   0  0  0  0  0  0  0  0  0  0  0  0
  150.0718  142.2525  155.7403 N   0  0  0  0  0  0  0  0  0  0  0  0
  150.7755  141.8202  156.7968 C   0  0  0  0  0  0  0  0  0  0  0  0
  150.9913  140.6292  157.0219 O   0  0  0  0  0  0  0  0  0  0  0  0
  151.1919  142.8453  157.5598 N   0  0  0  0  0  0  0  0  0  0  0  0
  151.8617  142.8029  158.7422 C   0  0  0  0  0  0  0  0  0  0  0  0
  152.3537  141.7167  159.4132 C   0  0  0  0  0  0  0  0  0  0  0  0
  152.9317  142.3027  160.5769 C   0  0  0  0  0  0  0  0  0  0  0  0
  153.6364  141.6117  161.7068 C   0  0  0  0  0  0  0  0  0  0  0  0
  152.7961  143.6236  160.6065 N   0  0  0  0  0  0  0  0  0  0  0  0
  152.1320  143.9380  159.4733 N   0  0  0  0  0  0  0  0  0  0  0  0
  151.8077  145.3209  159.1813 C   0  0  0  0  0  0  0  0  0  0  0  0
  147.1343  141.2752  155.8927 C   0  0  0  0  0  0  0  0  0  0  0  0
  146.0171  137.7684  158.7266 H   0  0  0  0  0  0  0  0  0  0  0  0
  147.5639  137.6381  157.9086 H   0  0  0  0  0  0  0  0  0  0  0  0
  146.0660  137.3768  157.0148 H   0  0  0  0  0  0  0  0  0  0  0  0
  145.3956  139.7425  157.4100 H   0  0  0  0  0  0  0  0  0  0  0  0
  146.8848  140.0748  158.2592 H   0  0  0  0  0  0  0  0  0  0  0  0
  146.5204  137.9949  155.2384 H   0  0  0  0  0  0  0  0  0  0  0  0
  145.4518  139.3479  154.9236 H   0  0  0  0  0  0  0  0  0  0  0  0
  148.2534  138.9035  153.7694 H   0  0  0  0  0  0  0  0  0  0  0  0
  146.7508  138.8215  152.8919 H   0  0  0  0  0  0  0  0  0  0  0  0
  147.9205  141.0133  152.5137 H   0  0  0  0  0  0  0  0  0  0  0  0
  146.3336  141.2147  153.2095 H   0  0  0  0  0  0  0  0  0  0  0  0
  147.7862  142.6709  154.4084 H   0  0  0  0  0  0  0  0  0  0  0  0
  149.6924  140.3454  154.9273 H   0  0  0  0  0  0  0  0  0  0  0  0
  149.9353  141.6265  153.7775 H   0  0  0  0  0  0  0  0  0  0  0  0
  149.9473  143.2481  155.6260 H   0  0  0  0  0  0  0  0  0  0  0  0
  150.9685  143.7713  157.2258 H   0  0  0  0  0  0  0  0  0  0  0  0
  152.3169  140.6734  159.1392 H   0  0  0  0  0  0  0  0  0  0  0  0
  153.6357  140.5302  161.5693 H   0  0  0  0  0  0  0  0  0  0  0  0
  153.1532  141.8245  162.6608 H   0  0  0  0  0  0  0  0  0  0  0  0
  154.6748  141.9357  161.7782 H   0  0  0  0  0  0  0  0  0  0  0  0
  150.7287  145.4276  159.0662 H   0  0  0  0  0  0  0  0  0  0  0  0
  152.2974  145.6240  158.2554 H   0  0  0  0  0  0  0  0  0  0  0  0
  152.1429  145.9734  159.9888 H   0  0  0  0  0  0  0  0  0  0  0  0
  146.1090  141.6320  155.7830 H   0  0  0  0  0  0  0  0  0  0  0  0
  147.5444  141.8176  156.7427 H   0  0  0  0  0  0  0  0  0  0  0  0
  148.0613  139.5022  156.2350 H   0  0  0  0  0  0  0  0  0  0  0  0
  1  2  1  0  0  0  0
  1 21  1  0  0  0  0
  1 22  1  0  0  0  0
  1 23  1  0  0  0  0
  2  3  1  0  0  0  0
  2 24  1  0  0  0  0
  2 25  1  0  0  0  0
  3 20  1  0  0  0  0
  3  4  1  0  0  0  0
  3 46  1  0  0  0  0
  4  5  1  0  0  0  0
  4 26  1  0  0  0  0
  4 27  1  0  0  0  0
  5  6  1  0  0  0  0
  5 28  1  0  0  0  0
  5 29  1  0  0  0  0
  6  7  1  0  0  0  0
  6 30  1  0  0  0  0
  6 31  1  0  0  0  0
  7  8  1  0  0  0  0
  7 20  1  0  0  0  0
  7 32  1  0  0  0  0
  8  9  1  0  0  0  0
  8 33  1  0  0  0  0
  8 34  1  0  0  0  0
  9 10  1  0  0  0  0
  9 35  1  0  0  0  0
 10 11  2  0  0  0  0
 10 12  1  0  0  0  0
 12 13  1  0  0  0  0
 12 36  1  0  0  0  0
 13 18  1  0  0  0  0
 13 14  2  0  0  0  0
 14 15  1  0  0  0  0
 14 37  1  0  0  0  0
 15 16  1  0  0  0  0
 15 17  2  0  0  0  0
 16 38  1  0  0  0  0
 16 39  1  0  0  0  0
 16 40  1  0  0  0  0
 17 18  1  0  0  0  0
 18 19  1  0  0  0  0
 19 41  1  0  0  0  0
 19 42  1  0  0  0  0
 19 43  1  0  0  0  0
 20 44  1  0  0  0  0
 20 45  1  0  0  0  0
M  CHG  1   3   1
M  END
> <s_m_source_file>
AV-unprocessed.smi

> <i_m_source_file_index>
1834

> <i_lp_mmshare_version>
43012

> <i_f3d_flags>
0

> <s_epik_input>
W0NIM11bQ0gyXU4xW0NIMl1bQ0gyXVtDSDJdW0NASF0oW0NIMl0xKVtDSDJdW05IXUMoPU8pW05IXWMyW2NIXWMoW0NIM10pbm4yW0NIM10=

> <s_epik_cmdline>
J2VwaWtfcHl0aG9uJywgJy1waCcsICc3LjAnLCAnLXRuJywgJzgnLCAnLW1hJywgJzIwMCcsICctbWV0YWxfYmluZGluZycsICctaW1hZScsICc8aW5maWxlLm1hZT4nLCAnLW9tYWUnLCAnPG91dGZpbGUubWFlPic=

> <r_lp_tautomer_probability>
1

> <r_epik_Ionization_Penalty>
0.000466842

> <r_epik_Ionization_Penalty_Charging>
0.000378984

> <r_epik_Ionization_Penalty_Neutral>
8.78572e-05

> <r_epik_State_Penalty>
0.000231434

> <r_epik_Charging_Adjusted_Penalty>
0.000610418

> <i_epik_Tot_Q>
1

> <i_epik_Tot_abs_Q>
1

> <r_epik_Metal_State_Penalty>
-0

> <b_epik_Metal_Only>
0

> <s_lp_Force_Field>
OPLS_2005

> <r_lp_Energy>
21.0152

> <b_lp_Chiralities_Consistent>
1

> <s_lp_Variant>
AV-unprocessed.smi:1834-3

> <Gold.Version>
5.8.1

> <Gold.Id.Protein>
6NUR|6NUR_protein|mol2

> <Gold.PLP.Fitness>
40.9337

> <Gold.PLP.PLP>
-37.9683

> <Gold.PLP.part.hbond>
-1.0000

> <Gold.PLP.part.metal>
0.0000

> <Gold.PLP.part.buried>
-4.0715

> <Gold.PLP.part.nonpolar>
-33.1992

> <Gold.PLP.part.repulsive>
0.2230

> <Gold.PLP.ligand.clash>
0.0000

> <Gold.PLP.ligand.torsion>
0.0319

> <Gold.PLP.Chemscore.Hbond>
1.0000

> <Gold.PLP.Chemscore.CHOScore>
0.0000

> <Gold.PLP.Chemscore.Metal>
0.0000

> <Gold.Chemscore.Hbonds>
donor molecule, donor type, donor heavy atom, donor atom, acceptor molecule, acceptor atom, score
      L1  H     9    35       P1  8028  1.00

> <Gold.PLP.Chemscore.Internal.Correction>
0.0291

> <Gold.Rescore>
     Score         DG    S(hbond)    S(metal)    S(lipo)     H(rot)  DE(clash)    DE(int)     intcor
     16.09     -17.41       1.94        0.00      77.83       1.43       0.09       1.23       ----

> <Gold.Chemscore.Fitness>
16.0905

> <Gold.Chemscore.DG>
-17.4113

> <Gold.Chemscore.ZeroCoef>
-5.4800

> <Gold.Chemscore.Hbond>
1.9413

> <Gold.Chemscore.Metal>
0.0000

> <Gold.Chemscore.Lipo>
77.8264

> <Gold.Chemscore.Internal_Hbond>
0.0000

> <Gold.Chemscore.DEClash>
0.0917

> <Gold.Chemscore.DEInternal>
1.2291

> <Gold.Chemscore.Rot>
1.4291

> <Gold.Chemscore.Internal.Correction>
   9.000000E+99

> <Gold.Chemscore.Hbonds>
donor molecule, donor type, donor heavy atom, donor atom, acceptor molecule, acceptor atom, score
      L1  H     9    35       P1  8028  0.95

> <Gold.Chemscore.Hbond.Weighted>
-6.4841

> <Gold.Chemscore.Metal.Weighted>
-0.0000

> <Gold.Chemscore.Lipo.Weighted>
-9.1057

> <Gold.Chemscore.Internal_Hbond.Weighted>
0.0000

> <Gold.Chemscore.DEClash.Weighted>
0.0917

> <Gold.Chemscore.DEInternal.Weighted>
1.2291

> <Gold.Chemscore.Rot.Weighted>
3.6584

> <Gold.Chemscore.Internal.Correction.Weighted>
   9.000000E+99

> <Gold.Protein.RotatedTorsions>
[ 6907 6896 6895 6894 ] final -129.68 input  -60.11 | X-H torsion
[ 7974 7965 7964 7962 ] final   83.54 input  175.53 | X-H torsion
[ 8008 7997 7996 7995 ] final -175.62 input   59.86 | X-H torsion
[ 10167 10162 10161 10158 ] final    7.06 input  -65.29 | X-H torsion
[ 10718 10713 10712 10709 ] final  144.50 input   66.30 | X-H torsion
[ 10763 10752 10751 10750 ] final   47.10 input  -60.55 | X-H torsion
[ 11005 11000 10999 10996 ] final  165.56 input  -57.11 | X-H torsion

> <Gold.Protein.ActiveResidues>
 VAL166  LYS551  ARG553  GLY616  TRP617  ASP618  TYR619  PRO620  LYS621  CYS622 
 ASP623  PHE694  ASN695  SER759  ASP760  ASP761  ALA762  ILE779  LEU786  VAL792 
 PHE793  MET794  SER795  GLU796  ALA797  LYS798  CYS799  TRP800  GLU811  SER814 

> <Gold.Protein.RotatedAtoms>
  150.9314  133.6763  159.2809 H   0  0  0  0  0  0  0  0  0  0  0  0  # atno 6907 bound_to 6896
  151.4183  135.0993  159.9616 H   0  0  0  0  0  0  0  0  0  0  0  0  # atno 6908 bound_to 6896
  152.5027  133.8771  159.7382 H   0  0  0  0  0  0  0  0  0  0  0  0  # atno 6909 bound_to 6896
  145.6105  139.2367  143.2195 H   0  0  0  0  0  0  0  0  0  0  0  0  # atno 7974 bound_to 7965
  155.9848  140.1189  157.0693 H   0  0  0  0  0  0  0  0  0  0  0  0  # atno 8008 bound_to 7997
  154.4193  140.1137  156.5553 H   0  0  0  0  0  0  0  0  0  0  0  0  # atno 8009 bound_to 7997
  155.6422  140.3473  155.4721 H   0  0  0  0  0  0  0  0  0  0  0  0  # atno 8010 bound_to 7997
  140.6393  143.7813  150.7404 H   0  0  0  0  0  0  0  0  0  0  0  0  # atno 10167 bound_to 10162
  157.3564  131.0958  151.0954 H   0  0  0  0  0  0  0  0  0  0  0  0  # atno 10718 bound_to 10713
  152.9803  135.5987  154.3707 H   0  0  0  0  0  0  0  0  0  0  0  0  # atno 10763 bound_to 10752
  154.3381  135.2768  155.2439 H   0  0  0  0  0  0  0  0  0  0  0  0  # atno 10764 bound_to 10752
  154.4532  135.5984  153.6261 H   0  0  0  0  0  0  0  0  0  0  0  0  # atno 10765 bound_to 10752
  140.2574  134.7929  157.3558 H   0  0  0  0  0  0  0  0  0  0  0  0  # atno 11005 bound_to 11000
  146.1508  140.6928  142.9323 LP  0  0  0  0  0  0  0  0  0  0  0  0  # atno 17320 bound_to 7965
  144.7272  140.4560  143.6964 LP  0  0  0  0  0  0  0  0  0  0  0  0  # atno 17321 bound_to 7965
  140.1441  143.4415  152.2175 LP  0  0  0  0  0  0  0  0  0  0  0  0  # atno 17342 bound_to 10162
  139.5602  144.7400  151.4177 LP  0  0  0  0  0  0  0  0  0  0  0  0  # atno 17343 bound_to 10162
  157.2111  130.6438  149.5774 LP  0  0  0  0  0  0  0  0  0  0  0  0  # atno 17370 bound_to 10713
  155.9730  130.4660  150.6272 LP  0  0  0  0  0  0  0  0  0  0  0  0  # atno 17371 bound_to 10713
  140.1498  134.4864  155.7970 LP  0  0  0  0  0  0  0  0  0  0  0  0  # atno 17394 bound_to 11000
  141.2194  133.6858  156.7358 LP  0  0  0  0  0  0  0  0  0  0  0  0  # atno 17395 bound_to 11000

$$$$
