AV-unprocessed.smi:1880|AV-procd|sdf|7638|dock1
  -GOLD-   22720 9363D 1   1.00000     0.00000
 Structure written by MMmdl.
 37 39  0  0  0  0  0  0  0  0  2 V2000
  149.3331  142.4799  157.3280 O   0  0  0  0  0  0  0  0  0  0  0  0
  150.6393  141.9468  157.2295 C   0  0  1  0  0  0  0  0  0  0  0  0
  150.7683  141.2215  155.8814 C   0  0  0  0  0  0  0  0  0  0  0  0
  149.9288  140.0795  155.8990 O   0  0  0  0  0  0  0  0  0  0  0  0
  149.4689  139.7116  154.6083 C   0  0  0  0  0  0  0  0  0  0  0  0
  148.3131  140.5971  154.2675 C   0  0  0  0  0  0  0  0  0  0  0  0
  146.9883  140.3501  154.0322 C   0  0  0  0  0  0  0  0  0  0  0  0
  146.3830  141.6102  153.7697 C   0  0  0  0  0  0  0  0  0  0  0  0
  147.3817  142.5359  153.8723 C   0  0  0  0  0  0  0  0  0  0  0  0
  148.5639  141.9360  154.1786 O   0  0  0  0  0  0  0  0  0  0  0  0
  151.6568  143.0964  157.3683 C   0  0  0  0  0  0  0  0  0  0  0  0
  151.5214  143.8242  158.6372 N   0  0  0  0  0  0  0  0  0  0  0  0
  150.8074  144.9448  158.9306 C   0  0  0  0  0  0  0  0  0  0  0  0
  150.9984  145.2194  160.2509 N   0  3  0  0  0  0  0  0  0  0  0  0
  151.8467  144.2599  160.8089 C   0  0  0  0  0  0  0  0  0  0  0  0
  152.3302  144.1117  162.1048 C   0  0  0  0  0  0  0  0  0  0  0  0
  153.1819  143.0130  162.3434 C   0  0  0  0  0  0  0  0  0  0  0  0
  153.6808  142.8223  163.5876 F   0  0  0  0  0  0  0  0  0  0  0  0
  153.5230  142.1111  161.3131 C   0  0  0  0  0  0  0  0  0  0  0  0
  154.3432  141.0689  161.5854 F   0  0  0  0  0  0  0  0  0  0  0  0
  153.0263  142.2715  160.0025 C   0  0  0  0  0  0  0  0  0  0  0  0
  152.1863  143.3606  159.7767 C   0  0  0  0  0  0  0  0  0  0  0  0
  149.3460  143.3626  156.9892 H   0  0  0  0  0  0  0  0  0  0  0  0
  150.7909  141.2346  158.0415 H   0  0  0  0  0  0  0  0  0  0  0  0
  150.5251  141.8859  155.0500 H   0  0  0  0  0  0  0  0  0  0  0  0
  151.7971  140.8867  155.7389 H   0  0  0  0  0  0  0  0  0  0  0  0
  150.2646  139.8321  153.8718 H   0  0  0  0  0  0  0  0  0  0  0  0
  149.1543  138.6674  154.5971 H   0  0  0  0  0  0  0  0  0  0  0  0
  146.5133  139.3801  154.0450 H   0  0  0  0  0  0  0  0  0  0  0  0
  145.3479  141.8138  153.5383 H   0  0  0  0  0  0  0  0  0  0  0  0
  147.4237  143.6099  153.7658 H   0  0  0  0  0  0  0  0  0  0  0  0
  152.6801  142.7269  157.2904 H   0  0  0  0  0  0  0  0  0  0  0  0
  151.5262  143.8186  156.5609 H   0  0  0  0  0  0  0  0  0  0  0  0
  150.1950  145.5091  158.2418 H   0  0  0  0  0  0  0  0  0  0  0  0
  152.0711  144.7989  162.8967 H   0  0  0  0  0  0  0  0  0  0  0  0
  153.2917  141.5751  159.2211 H   0  0  0  0  0  0  0  0  0  0  0  0
  150.5764  146.0031  160.7327 H   0  0  0  0  0  0  0  0  0  0  0  0
  1  2  1  0  0  0  0
  1 23  1  0  0  0  0
  2  3  1  0  0  0  0
  2 11  1  0  0  0  0
  2 24  1  0  0  0  0
  3  4  1  0  0  0  0
  3 25  1  0  0  0  0
  3 26  1  0  0  0  0
  4  5  1  0  0  0  0
  5  6  1  0  0  0  0
  5 27  1  0  0  0  0
  5 28  1  0  0  0  0
  6 10  1  0  0  0  0
  6  7  2  0  0  0  0
  7  8  1  0  0  0  0
  7 29  1  0  0  0  0
  8  9  2  0  0  0  0
  8 30  1  0  0  0  0
  9 10  1  0  0  0  0
  9 31  1  0  0  0  0
 11 12  1  0  0  0  0
 11 32  1  0  0  0  0
 11 33  1  0  0  0  0
 12 22  1  0  0  0  0
 12 13  1  0  0  0  0
 13 14  2  0  0  0  0
 13 34  1  0  0  0  0
 14 15  1  0  0  0  0
 14 37  1  0  0  0  0
 15 22  2  0  0  0  0
 15 16  1  0  0  0  0
 16 17  2  0  0  0  0
 16 35  1  0  0  0  0
 17 18  1  0  0  0  0
 17 19  1  0  0  0  0
 19 20  1  0  0  0  0
 19 21  2  0  0  0  0
 21 22  1  0  0  0  0
 21 36  1  0  0  0  0
M  CHG  1  14   1
M  END
> <s_m_source_file>
AV-unprocessed.smi

> <i_m_source_file_index>
1880

> <i_lp_mmshare_version>
43012

> <i_f3d_flags>
0

> <s_epik_input>
W2NIXTFjKEYpYyhGKVtjSF1jKGMxMiluKFtjSF1uMilbQ0gyXVtDQEhdKFtPSF0pW0NIMl1PW0NIMl1jM1tjSF1bY0hdW2NIXW8z

> <s_epik_cmdline>
J2VwaWtfcHl0aG9uJywgJy1waCcsICc3LjAnLCAnLXRuJywgJzgnLCAnLW1hJywgJzIwMCcsICctbWV0YWxfYmluZGluZycsICctaW1hZScsICc8aW5maWxlLm1hZT4nLCAnLW9tYWUnLCAnPG91dGZpbGUubWFlPic=

> <r_epik_Ionization_Penalty>
2.17656

> <r_epik_Ionization_Penalty_Charging>
2.17656

> <r_epik_Ionization_Penalty_Neutral>
9.34185e-07

> <r_epik_State_Penalty>
2.31826

> <r_epik_Charging_Adjusted_Penalty>
4.49482

> <i_epik_Tot_Q>
1

> <i_epik_Tot_abs_Q>
1

> <r_epik_Metal_State_Penalty>
6.39906

> <b_epik_Metal_Only>
0

> <s_lp_Force_Field>
OPLS_2005

> <r_lp_Energy>
11.8532

> <b_lp_Chiralities_Consistent>
1

> <s_lp_Variant>
AV-unprocessed.smi:1880-4

> <Gold.Version>
5.8.1

> <Gold.Id.Protein>
6NUR|6NUR_protein|mol2

> <Gold.PLP.Fitness>
61.9144

> <Gold.PLP.PLP>
-54.5358

> <Gold.PLP.part.hbond>
-2.0253

> <Gold.PLP.part.metal>
0.0000

> <Gold.PLP.part.buried>
-3.6076

> <Gold.PLP.part.nonpolar>
-48.1959

> <Gold.PLP.part.repulsive>
0.5543

> <Gold.PLP.ligand.clash>
0.0000

> <Gold.PLP.ligand.torsion>
0.6734

> <Gold.PLP.Chemscore.Hbond>
1.2405

> <Gold.PLP.Chemscore.CHOScore>
1.6482

> <Gold.PLP.Chemscore.Metal>
0.0000

> <Gold.Chemscore.Hbonds>
donor molecule, donor type, donor heavy atom, donor atom, acceptor molecule, acceptor atom, score
      L1  H     1    23       P1  8028  1.00
      P1  H  8011  8017       L1    10  0.18
      L1  C     9    31       P1  8028  0.60
      L1  C    13    34       P1  8029  1.00

> <Gold.PLP.Chemscore.Internal.Correction>
0.0591

> <Gold.Rescore>
     Score         DG    S(hbond)    S(metal)    S(lipo)     H(rot)  DE(clash)    DE(int)     intcor
     13.49     -15.94       0.92        0.00     127.48       2.94       0.57       1.88       ----

> <Gold.Chemscore.Fitness>
13.4882

> <Gold.Chemscore.DG>
-15.9424

> <Gold.Chemscore.ZeroCoef>
-5.4800

> <Gold.Chemscore.Hbond>
0.9179

> <Gold.Chemscore.Metal>
0.0000

> <Gold.Chemscore.Lipo>
127.4788

> <Gold.Chemscore.Internal_Hbond>
0.0000

> <Gold.Chemscore.DEClash>
0.5702

> <Gold.Chemscore.DEInternal>
1.8841

> <Gold.Chemscore.Rot>
2.9369

> <Gold.Chemscore.Internal.Correction>
   9.000000E+99

> <Gold.Chemscore.Hbonds>
donor molecule, donor type, donor heavy atom, donor atom, acceptor molecule, acceptor atom, score
      L1  H     1    23       P1  8028  0.89
      P1  H  8011  8017       L1    10  0.04

> <Gold.Chemscore.Hbond.Weighted>
-3.0659

> <Gold.Chemscore.Metal.Weighted>
-0.0000

> <Gold.Chemscore.Lipo.Weighted>
-14.9150

> <Gold.Chemscore.Internal_Hbond.Weighted>
0.0000

> <Gold.Chemscore.DEClash.Weighted>
0.5702

> <Gold.Chemscore.DEInternal.Weighted>
1.8841

> <Gold.Chemscore.Rot.Weighted>
7.5185

> <Gold.Chemscore.Internal.Correction.Weighted>
   9.000000E+99

> <Gold.Protein.RotatedTorsions>
[ 6907 6896 6895 6894 ] final   23.64 input  -60.11 | X-H torsion
[ 7974 7965 7964 7962 ] final   16.22 input  175.53 | X-H torsion
[ 8008 7997 7996 7995 ] final  156.17 input   59.86 | X-H torsion
[ 10167 10162 10161 10158 ] final  170.51 input  -65.29 | X-H torsion
[ 10718 10713 10712 10709 ] final   41.01 input   66.30 | X-H torsion
[ 10763 10752 10751 10750 ] final  -30.98 input  -60.55 | X-H torsion
[ 11005 11000 10999 10996 ] final  -71.43 input  -57.11 | X-H torsion

> <Gold.Protein.ActiveResidues>
 VAL166  LYS551  ARG553  GLY616  TRP617  ASP618  TYR619  PRO620  LYS621  CYS622 
 ASP623  PHE694  ASN695  SER759  ASP760  ASP761  ALA762  ILE779  LEU786  VAL792 
 PHE793  MET794  SER795  GLU796  ALA797  LYS798  CYS799  TRP800  GLU811  SER814 

> <Gold.Protein.RotatedAtoms>
  151.9455  135.0193  160.0538 H   0  0  0  0  0  0  0  0  0  0  0  0  # atno 6907 bound_to 6896
  152.1999  133.4829  159.5061 H   0  0  0  0  0  0  0  0  0  0  0  0  # atno 6908 bound_to 6896
  150.6952  134.1521  159.4187 H   0  0  0  0  0  0  0  0  0  0  0  0  # atno 6909 bound_to 6896
  146.2256  139.8779  142.8576 H   0  0  0  0  0  0  0  0  0  0  0  0  # atno 7974 bound_to 7965
  156.2438  140.1920  156.6913 H   0  0  0  0  0  0  0  0  0  0  0  0  # atno 8008 bound_to 7997
  154.6249  140.0603  156.9687 H   0  0  0  0  0  0  0  0  0  0  0  0  # atno 8009 bound_to 7997
  155.1802  140.3276  155.4379 H   0  0  0  0  0  0  0  0  0  0  0  0  # atno 8010 bound_to 7997
  139.5020  144.3588  151.9846 H   0  0  0  0  0  0  0  0  0  0  0  0  # atno 10167 bound_to 10162
  157.3887  130.7794  149.7252 H   0  0  0  0  0  0  0  0  0  0  0  0  # atno 10718 bound_to 10713
  153.7899  135.6898  153.4873 H   0  0  0  0  0  0  0  0  0  0  0  0  # atno 10763 bound_to 10752
  153.1756  135.4526  154.9959 H   0  0  0  0  0  0  0  0  0  0  0  0  # atno 10764 bound_to 10752
  154.8048  135.3352  154.7396 H   0  0  0  0  0  0  0  0  0  0  0  0  # atno 10765 bound_to 10752
  141.1592  133.6817  156.6904 H   0  0  0  0  0  0  0  0  0  0  0  0  # atno 11005 bound_to 11000
  145.2542  141.0054  143.3864 LP  0  0  0  0  0  0  0  0  0  0  0  0  # atno 17320 bound_to 7965
  144.9350  139.4254  143.6476 LP  0  0  0  0  0  0  0  0  0  0  0  0  # atno 17321 bound_to 7965
  140.3024  144.3631  150.6056 LP  0  0  0  0  0  0  0  0  0  0  0  0  # atno 17342 bound_to 10162
  140.5863  143.2170  151.7337 LP  0  0  0  0  0  0  0  0  0  0  0  0  # atno 17343 bound_to 10162
  155.9793  130.4041  150.3596 LP  0  0  0  0  0  0  0  0  0  0  0  0  # atno 17370 bound_to 10713
  157.1709  131.0368  151.2796 LP  0  0  0  0  0  0  0  0  0  0  0  0  # atno 17371 bound_to 10713
  140.3035  134.8144  157.4117 LP  0  0  0  0  0  0  0  0  0  0  0  0  # atno 17394 bound_to 11000
  140.1241  134.5181  155.8159 LP  0  0  0  0  0  0  0  0  0  0  0  0  # atno 17395 bound_to 11000

$$$$
