AV-unprocessed.smi:437|AV-procd|sdf|2560|dock7
  -GOLD-   2262022533D 1   1.00000     0.00000
 Structure written by MMmdl.
 48 49  0  0  0  0  0  0  0  0  1 V2000
  149.0433  140.4321  154.1807 C   0  0  0  0  0  0  0  0  0  0  0  0
  149.8524  139.3696  154.8746 C   0  0  0  0  0  0  0  0  0  0  0  0
  149.5809  138.1425  154.5727 N   0  0  0  0  0  0  0  0  0  0  0  0
  150.2625  137.0908  155.1537 N   0  0  0  0  0  0  0  0  0  0  0  0
  149.8110  135.7646  154.7056 C   0  0  0  0  0  0  0  0  0  0  0  0
  148.3218  135.5018  154.9810 C   0  0  0  0  0  0  0  0  0  0  0  0
  147.8439  135.7323  156.0951 O   0  0  0  0  0  0  0  0  0  0  0  0
  147.6271  135.0269  153.9272 N   0  0  0  0  0  0  0  0  0  0  0  0
  146.3188  134.7099  153.8820 C   0  0  0  0  0  0  0  0  0  0  0  0
  145.5215  134.8075  154.8174 O   0  0  0  0  0  0  0  0  0  0  0  0
  145.9743  134.2673  152.6639 N   0  0  0  0  0  0  0  0  0  0  0  0
  144.7688  133.4994  152.3470 C   0  0  1  0  0  0  0  0  0  0  0  0
  143.7855  134.3348  151.4974 C   0  0  0  0  0  0  0  0  0  0  0  0
  144.3100  134.5748  150.0718 C   0  0  0  0  0  0  0  0  0  0  0  0
  144.6487  133.2488  149.3751 C   0  0  0  0  0  0  0  0  0  0  0  0
  145.6428  132.4193  150.2034 C   0  0  0  0  0  0  0  0  0  0  0  0
  145.1230  132.1701  151.6350 C   0  0  1  0  0  0  0  0  0  0  0  0
  146.0971  131.2986  152.4466 C   0  0  0  0  0  0  0  0  0  0  0  0
  151.2705  137.2263  156.0632 C   0  0  0  0  0  0  0  0  0  0  0  0
  151.8612  136.2588  156.5457 O   0  0  0  0  0  0  0  0  0  0  0  0
  151.5693  138.6189  156.4044 C   0  0  0  0  0  0  0  0  0  0  0  0
  152.6093  138.8053  157.3641 C   0  0  0  0  0  0  0  0  0  0  0  0
  153.4527  138.9765  158.1384 N   0  0  0  0  0  0  0  0  0  0  0  0
  150.9014  139.6597  155.8468 C   0  0  0  0  0  0  0  0  0  0  0  0
  151.1735  141.1234  156.1649 C   0  0  0  0  0  0  0  0  0  0  0  0
  149.6880  141.0894  153.5971 H   0  0  0  0  0  0  0  0  0  0  0  0
  148.5031  141.0424  154.9048 H   0  0  0  0  0  0  0  0  0  0  0  0
  148.3078  140.0032  153.4982 H   0  0  0  0  0  0  0  0  0  0  0  0
  149.9809  135.6546  153.6328 H   0  0  0  0  0  0  0  0  0  0  0  0
  150.4097  134.9832  155.1773 H   0  0  0  0  0  0  0  0  0  0  0  0
  148.1483  134.8980  153.0727 H   0  0  0  0  0  0  0  0  0  0  0  0
  146.5885  134.4772  151.8909 H   0  0  0  0  0  0  0  0  0  0  0  0
  144.2751  133.2483  153.2877 H   0  0  0  0  0  0  0  0  0  0  0  0
  142.8315  133.8095  151.4398 H   0  0  0  0  0  0  0  0  0  0  0  0
  143.5724  135.2881  151.9823 H   0  0  0  0  0  0  0  0  0  0  0  0
  143.5657  135.1193  149.4901 H   0  0  0  0  0  0  0  0  0  0  0  0
  145.1967  135.2089  150.1059 H   0  0  0  0  0  0  0  0  0  0  0  0
  143.7345  132.6746  149.2201 H   0  0  0  0  0  0  0  0  0  0  0  0
  145.0619  133.4443  148.3851 H   0  0  0  0  0  0  0  0  0  0  0  0
  145.8236  131.4673  149.7033 H   0  0  0  0  0  0  0  0  0  0  0  0
  146.6044  132.9329  150.2394 H   0  0  0  0  0  0  0  0  0  0  0  0
  144.1964  131.6010  151.5448 H   0  0  0  0  0  0  0  0  0  0  0  0
  147.0766  131.7675  152.5434 H   0  0  0  0  0  0  0  0  0  0  0  0
  146.2430  130.3294  151.9692 H   0  0  0  0  0  0  0  0  0  0  0  0
  145.7144  131.1155  153.4510 H   0  0  0  0  0  0  0  0  0  0  0  0
  151.9786  141.2466  156.8882 H   0  0  0  0  0  0  0  0  0  0  0  0
  150.2833  141.5952  156.5818 H   0  0  0  0  0  0  0  0  0  0  0  0
  151.4591  141.6644  155.2625 H   0  0  0  0  0  0  0  0  0  0  0  0
  1  2  1  0  0  0  0
  1 26  1  0  0  0  0
  1 27  1  0  0  0  0
  1 28  1  0  0  0  0
  2 24  1  0  0  0  0
  2  3  2  0  0  0  0
  3  4  1  0  0  0  0
  4  5  1  0  0  0  0
  4 19  1  0  0  0  0
  5  6  1  0  0  0  0
  5 29  1  0  0  0  0
  5 30  1  0  0  0  0
  6  7  2  0  0  0  0
  6  8  1  0  0  0  0
  8  9  1  0  0  0  0
  8 31  1  0  0  0  0
  9 10  2  0  0  0  0
  9 11  1  0  0  0  0
 11 12  1  0  0  0  0
 11 32  1  0  0  0  0
 12 17  1  0  0  0  0
 12 13  1  0  0  0  0
 12 33  1  0  0  0  0
 13 14  1  0  0  0  0
 13 34  1  0  0  0  0
 13 35  1  0  0  0  0
 14 15  1  0  0  0  0
 14 36  1  0  0  0  0
 14 37  1  0  0  0  0
 15 16  1  0  0  0  0
 15 38  1  0  0  0  0
 15 39  1  0  0  0  0
 16 17  1  0  0  0  0
 16 40  1  0  0  0  0
 16 41  1  0  0  0  0
 17 18  1  0  0  0  0
 17 42  1  0  0  0  0
 18 43  1  0  0  0  0
 18 44  1  0  0  0  0
 18 45  1  0  0  0  0
 19 20  2  0  0  0  0
 19 21  1  0  0  0  0
 21 22  1  0  0  0  0
 21 24  2  0  0  0  0
 22 23  3  0  0  0  0
 24 25  1  0  0  0  0
 25 46  1  0  0  0  0
 25 47  1  0  0  0  0
 25 48  1  0  0  0  0
M  END
> <s_m_source_file>
AV-unprocessed.smi

> <i_m_source_file_index>
437

> <i_lp_mmshare_version>
43012

> <i_f3d_flags>
0

> <s_epik_input>
TiNDYyhjMVtDSDNdKWMoPU8pbihuYzFbQ0gzXSlbQ0gyXUMoPU8pW05IXUMoPU8pW05IXVtDQEBIXTJbQ0gyXVtDSDJdW0NIMl1bQ0gyXVtDQEhdMltDSDNd

> <s_epik_cmdline>
J2VwaWtfcHl0aG9uJywgJy1waCcsICc3LjAnLCAnLXRuJywgJzgnLCAnLW1hJywgJzIwMCcsICctbWV0YWxfYmluZGluZycsICctaW1hZScsICc8aW5maWxlLm1hZT4nLCAnLW9tYWUnLCAnPG91dGZpbGUubWFlPic=

> <r_lp_tautomer_probability>
1

> <r_epik_Ionization_Penalty>
3.27035e-05

> <r_epik_Ionization_Penalty_Charging>
1.6965e-11

> <r_epik_Ionization_Penalty_Neutral>
3.27035e-05

> <r_epik_State_Penalty>
-0

> <r_epik_Charging_Adjusted_Penalty>
1.6965e-11

> <i_epik_Tot_Q>
0

> <i_epik_Tot_abs_Q>
0

> <r_epik_Metal_State_Penalty>
-0

> <b_epik_Metal_Only>
0

> <s_lp_Force_Field>
OPLS_2005

> <r_lp_Energy>
26.066

> <b_lp_Chiralities_Consistent>
1

> <s_lp_Variant>
AV-unprocessed.smi:437-2

> <Gold.Version>
5.8.1

> <Gold.Id.Protein>
6NUR|6NUR_protein|mol2

> <Gold.PLP.Fitness>
40.6461

> <Gold.PLP.PLP>
-33.4354

> <Gold.PLP.part.hbond>
-3.0000

> <Gold.PLP.part.metal>
0.0000

> <Gold.PLP.part.buried>
0.3630

> <Gold.PLP.part.nonpolar>
-29.8316

> <Gold.PLP.part.repulsive>
0.2892

> <Gold.PLP.ligand.clash>
0.0000

> <Gold.PLP.ligand.torsion>
0.2404

> <Gold.PLP.Chemscore.Hbond>
2.5551

> <Gold.PLP.Chemscore.CHOScore>
0.0000

> <Gold.PLP.Chemscore.Metal>
0.0000

> <Gold.Chemscore.Hbonds>
donor molecule, donor type, donor heavy atom, donor atom, acceptor molecule, acceptor atom, score
      L1  H     8    31       P1  7948  0.64
      P1  H  7997  8009       L1    23  0.75
      P1  H 10752 10764       L1    20  0.78

> <Gold.PLP.Chemscore.Internal.Correction>
0.0262

> <Gold.Rescore>
     Score         DG    S(hbond)    S(metal)    S(lipo)     H(rot)  DE(clash)    DE(int)     intcor
     16.47     -19.34       2.28        0.00      87.74       1.57       1.21       1.65       ----

> <Gold.Chemscore.Fitness>
16.4726

> <Gold.Chemscore.DG>
-19.3361

> <Gold.Chemscore.ZeroCoef>
-5.4800

> <Gold.Chemscore.Hbond>
2.2750

> <Gold.Chemscore.Metal>
0.0000

> <Gold.Chemscore.Lipo>
87.7376

> <Gold.Chemscore.Internal_Hbond>
0.0000

> <Gold.Chemscore.DEClash>
1.2135

> <Gold.Chemscore.DEInternal>
1.6499

> <Gold.Chemscore.Rot>
1.5656

> <Gold.Chemscore.Internal.Correction>
   9.000000E+99

> <Gold.Chemscore.Hbonds>
donor molecule, donor type, donor heavy atom, donor atom, acceptor molecule, acceptor atom, score
      L1  H     8    31       P1  7948  0.56
      P1  H  7997  8009       L1    23  0.09
      P1  H 10752 10764       L1    20  0.46

> <Gold.Chemscore.Hbond.Weighted>
-7.5986

> <Gold.Chemscore.Metal.Weighted>
-0.0000

> <Gold.Chemscore.Lipo.Weighted>
-10.2653

> <Gold.Chemscore.Internal_Hbond.Weighted>
0.0000

> <Gold.Chemscore.DEClash.Weighted>
1.2135

> <Gold.Chemscore.DEInternal.Weighted>
1.6499

> <Gold.Chemscore.Rot.Weighted>
4.0079

> <Gold.Chemscore.Internal.Correction.Weighted>
   9.000000E+99

> <Gold.Protein.RotatedTorsions>
[ 6907 6896 6895 6894 ] final   41.94 input  -60.11 | X-H torsion
[ 7974 7965 7964 7962 ] final -170.91 input  175.53 | X-H torsion
[ 8008 7997 7996 7995 ] final  160.27 input   59.86 | X-H torsion
[ 10167 10162 10161 10158 ] final  -13.22 input  -65.29 | X-H torsion
[ 10718 10713 10712 10709 ] final -110.27 input   66.30 | X-H torsion
[ 10763 10752 10751 10750 ] final  -31.59 input  -60.55 | X-H torsion
[ 11005 11000 10999 10996 ] final  167.24 input  -57.11 | X-H torsion

> <Gold.Protein.ActiveResidues>
 VAL166  LYS551  ARG553  GLY616  TRP617  ASP618  TYR619  PRO620  LYS621  CYS622 
 ASP623  PHE694  ASN695  SER759  ASP760  ASP761  ALA762  ILE779  LEU786  VAL792 
 PHE793  MET794  SER795  GLU796  ALA797  LYS798  CYS799  TRP800  GLU811  SER814 

> <Gold.Protein.RotatedAtoms>
  152.2016  134.8582  160.0507 H   0  0  0  0  0  0  0  0  0  0  0  0  # atno 6907 bound_to 6896
  151.9434  133.3639  159.3981 H   0  0  0  0  0  0  0  0  0  0  0  0  # atno 6908 bound_to 6896
  150.6956  134.4340  159.5305 H   0  0  0  0  0  0  0  0  0  0  0  0  # atno 6909 bound_to 6896
  144.7163  140.2001  143.6339 H   0  0  0  0  0  0  0  0  0  0  0  0  # atno 7974 bound_to 7965
  156.2183  140.1808  156.7536 H   0  0  0  0  0  0  0  0  0  0  0  0  # atno 8008 bound_to 7997
  154.5826  140.0664  156.9154 H   0  0  0  0  0  0  0  0  0  0  0  0  # atno 8009 bound_to 7997
  155.2476  140.3326  155.4288 H   0  0  0  0  0  0  0  0  0  0  0  0  # atno 8010 bound_to 7997
  140.7178  143.5449  150.9367 H   0  0  0  0  0  0  0  0  0  0  0  0  # atno 10167 bound_to 10162
  156.0582  130.5807  150.8214 H   0  0  0  0  0  0  0  0  0  0  0  0  # atno 10718 bound_to 10713
  153.7999  135.6891  153.4857 H   0  0  0  0  0  0  0  0  0  0  0  0  # atno 10763 bound_to 10752
  153.1695  135.4548  154.9882 H   0  0  0  0  0  0  0  0  0  0  0  0  # atno 10764 bound_to 10752
  154.8011  135.3338  154.7488 H   0  0  0  0  0  0  0  0  0  0  0  0  # atno 10765 bound_to 10752
  140.2747  134.7798  157.3706 H   0  0  0  0  0  0  0  0  0  0  0  0  # atno 11005 bound_to 11000
  145.8688  139.2261  143.1673 LP  0  0  0  0  0  0  0  0  0  0  0  0  # atno 17320 bound_to 7965
  146.0104  140.8440  142.9973 LP  0  0  0  0  0  0  0  0  0  0  0  0  # atno 17321 bound_to 7965
  139.9172  143.6649  152.3104 LP  0  0  0  0  0  0  0  0  0  0  0  0  # atno 17342 bound_to 10162
  139.7053  144.7629  151.1204 LP  0  0  0  0  0  0  0  0  0  0  0  0  # atno 17343 bound_to 10162
  157.5569  131.0945  150.9616 LP  0  0  0  0  0  0  0  0  0  0  0  0  # atno 17370 bound_to 10713
  156.9863  130.5546  149.5300 LP  0  0  0  0  0  0  0  0  0  0  0  0  # atno 17371 bound_to 10713
  140.1339  134.5059  155.8083 LP  0  0  0  0  0  0  0  0  0  0  0  0  # atno 17394 bound_to 11000
  141.2172  133.6800  156.7090 LP  0  0  0  0  0  0  0  0  0  0  0  0  # atno 17395 bound_to 11000

$$$$
