AV-unprocessed.smi:1778|AV-procd|sdf|7180|dock1
  -GOLD-   22720 8413D 1   1.00000     0.00000
 Structure written by MMmdl.
 34 35  0  0  0  0  0  0  0  0  1 V2000
  146.1821  137.8773  158.1130 C   0  0  0  0  0  0  0  0  0  0  0  0
  146.4686  137.1391  159.3893 C   0  0  0  0  0  0  0  0  0  0  0  0
  146.1685  137.7081  160.5445 N   0  0  0  0  0  0  0  0  0  0  0  0
  146.5577  136.7992  161.5330 O   0  0  0  0  0  0  0  0  0  0  0  0
  147.0848  135.7054  160.9265 C   0  0  0  0  0  0  0  0  0  0  0  0
  147.5721  134.6122  161.8161 C   0  0  0  0  0  0  0  0  0  0  0  0
  147.0588  135.8536  159.5671 C   0  0  0  0  0  0  0  0  0  0  0  0
  147.5454  134.8916  158.5134 C   0  0  0  0  0  0  0  0  0  0  0  0
  148.9233  135.3274  158.0162 C   0  0  0  0  0  0  0  0  0  0  0  0
  149.8578  134.5268  158.0091 O   0  0  0  0  0  0  0  0  0  0  0  0
  149.0346  136.6000  157.6056 N   0  0  0  0  0  0  0  0  0  0  0  0
  150.2603  137.2211  157.1170 C   0  0  1  0  0  0  0  0  0  0  0  0
  150.7450  136.5888  155.7966 C   0  0  0  0  0  0  0  0  0  0  0  0
  151.7857  137.5183  155.1605 C   0  0  0  0  0  0  0  0  0  0  0  0
  151.3181  139.2200  155.6559 S   0  0  0  0  0  0  0  0  0  0  0  0
  152.4513  139.8410  156.3584 O   0  0  0  0  0  0  0  0  0  0  0  0
  150.6622  139.8993  154.5285 O   0  0  0  0  0  0  0  0  0  0  0  0
  150.0438  138.7212  156.8744 C   0  0  0  0  0  0  0  0  0  0  0  0
  146.9483  138.6276  157.9180 H   0  0  0  0  0  0  0  0  0  0  0  0
  145.2193  138.3872  158.1573 H   0  0  0  0  0  0  0  0  0  0  0  0
  146.1554  137.2022  157.2581 H   0  0  0  0  0  0  0  0  0  0  0  0
  148.6470  134.4726  161.6993 H   0  0  0  0  0  0  0  0  0  0  0  0
  147.0808  133.6701  161.5740 H   0  0  0  0  0  0  0  0  0  0  0  0
  147.3719  134.8374  162.8639 H   0  0  0  0  0  0  0  0  0  0  0  0
  147.6161  133.8768  158.9068 H   0  0  0  0  0  0  0  0  0  0  0  0
  146.8582  134.8370  157.6686 H   0  0  0  0  0  0  0  0  0  0  0  0
  148.2111  137.1830  157.6456 H   0  0  0  0  0  0  0  0  0  0  0  0
  151.0497  137.1121  157.8634 H   0  0  0  0  0  0  0  0  0  0  0  0
  151.1463  135.5861  155.9477 H   0  0  0  0  0  0  0  0  0  0  0  0
  149.8998  136.4931  155.1134 H   0  0  0  0  0  0  0  0  0  0  0  0
  152.7797  137.3137  155.5590 H   0  0  0  0  0  0  0  0  0  0  0  0
  151.8225  137.4371  154.0740 H   0  0  0  0  0  0  0  0  0  0  0  0
  149.0677  138.9156  156.4285 H   0  0  0  0  0  0  0  0  0  0  0  0
  150.1366  139.3181  157.7820 H   0  0  0  0  0  0  0  0  0  0  0  0
  1  2  1  0  0  0  0
  1 19  1  0  0  0  0
  1 20  1  0  0  0  0
  1 21  1  0  0  0  0
  2  7  1  0  0  0  0
  2  3  2  0  0  0  0
  3  4  1  0  0  0  0
  4  5  1  0  0  0  0
  5  6  1  0  0  0  0
  5  7  2  0  0  0  0
  6 22  1  0  0  0  0
  6 23  1  0  0  0  0
  6 24  1  0  0  0  0
  7  8  1  0  0  0  0
  8  9  1  0  0  0  0
  8 25  1  0  0  0  0
  8 26  1  0  0  0  0
  9 10  2  0  0  0  0
  9 11  1  0  0  0  0
 11 12  1  0  0  0  0
 11 27  1  0  0  0  0
 12 18  1  0  0  0  0
 12 13  1  0  0  0  0
 12 28  1  0  0  0  0
 13 14  1  0  0  0  0
 13 29  1  0  0  0  0
 13 30  1  0  0  0  0
 14 15  1  0  0  0  0
 14 31  1  0  0  0  0
 14 32  1  0  0  0  0
 15 16  2  0  0  0  0
 15 17  2  0  0  0  0
 15 18  1  0  0  0  0
 18 33  1  0  0  0  0
 18 34  1  0  0  0  0
M  END
> <s_m_source_file>
AV-unprocessed.smi

> <i_m_source_file_index>
1778

> <i_lp_mmshare_version>
43012

> <i_f3d_flags>
0

> <s_epik_input>
W0NIM11jMW5vYyhbQ0gzXSljMVtDSDJdQyg9TylbTkhdW0NAQEhdKFtDSDJdMilbQ0gyXVtDSDJdUzIoPU8pPU8=

> <s_epik_cmdline>
J2VwaWtfcHl0aG9uJywgJy1waCcsICc3LjAnLCAnLXRuJywgJzgnLCAnLW1hJywgJzIwMCcsICctbWV0YWxfYmluZGluZycsICctaW1hZScsICc8aW5maWxlLm1hZT4nLCAnLW9tYWUnLCAnPG91dGZpbGUubWFlPic=

> <r_lp_tautomer_probability>
1

> <r_epik_Ionization_Penalty>
1.26334e-07

> <r_epik_Ionization_Penalty_Charging>
0

> <r_epik_Ionization_Penalty_Neutral>
1.26334e-07

> <r_epik_State_Penalty>
-0

> <r_epik_Charging_Adjusted_Penalty>
0

> <i_epik_Tot_Q>
0

> <i_epik_Tot_abs_Q>
0

> <r_epik_Metal_State_Penalty>
-0

> <b_epik_Metal_Only>
0

> <s_lp_Force_Field>
OPLS_2005

> <r_lp_Energy>
-2.84578

> <b_lp_Chiralities_Consistent>
1

> <s_lp_Variant>
AV-unprocessed.smi:1778-2

> <Gold.Version>
5.8.1

> <Gold.Id.Protein>
6NUR|6NUR_protein|mol2

> <Gold.PLP.Fitness>
31.0030

> <Gold.PLP.PLP>
-19.7277

> <Gold.PLP.part.hbond>
-3.9914

> <Gold.PLP.part.metal>
0.0000

> <Gold.PLP.part.buried>
-3.8718

> <Gold.PLP.part.nonpolar>
-11.8963

> <Gold.PLP.part.repulsive>
0.1146

> <Gold.PLP.ligand.clash>
0.0000

> <Gold.PLP.ligand.torsion>
0.3634

> <Gold.PLP.Chemscore.Hbond>
4.0000

> <Gold.PLP.Chemscore.CHOScore>
0.0000

> <Gold.PLP.Chemscore.Metal>
0.0000

> <Gold.Chemscore.Hbonds>
donor molecule, donor type, donor heavy atom, donor atom, acceptor molecule, acceptor atom, score
      P1  H  6896  6909       L1    10  0.99
      P1  H  6934  6947       L1     3  1.00
      P1  H  7989  7998       L1    17  1.00
      P1  H  7997  8010       L1    16  1.00

> <Gold.PLP.Chemscore.Internal.Correction>
0.0022

> <Gold.Rescore>
     Score         DG    S(hbond)    S(metal)    S(lipo)     H(rot)  DE(clash)    DE(int)     intcor
     17.52     -17.83       3.55        0.00      37.04       1.51       0.01       0.30       ----

> <Gold.Chemscore.Fitness>
17.5242

> <Gold.Chemscore.DG>
-17.8313

> <Gold.Chemscore.ZeroCoef>
-5.4800

> <Gold.Chemscore.Hbond>
3.5542

> <Gold.Chemscore.Metal>
0.0000

> <Gold.Chemscore.Lipo>
37.0371

> <Gold.Chemscore.Internal_Hbond>
0.0000

> <Gold.Chemscore.DEClash>
0.0110

> <Gold.Chemscore.DEInternal>
0.2961

> <Gold.Chemscore.Rot>
1.5051

> <Gold.Chemscore.Internal.Correction>
   9.000000E+99

> <Gold.Chemscore.Hbonds>
donor molecule, donor type, donor heavy atom, donor atom, acceptor molecule, acceptor atom, score
      P1  H  6896  6909       L1    10  0.93
      P1  H  6934  6947       L1     3  0.26
      P1  H  7989  7998       L1    17  0.96
      P1  H  7997  8010       L1    16  0.99

> <Gold.Chemscore.Hbond.Weighted>
-11.8711

> <Gold.Chemscore.Metal.Weighted>
-0.0000

> <Gold.Chemscore.Lipo.Weighted>
-4.3333

> <Gold.Chemscore.Internal_Hbond.Weighted>
0.0000

> <Gold.Chemscore.DEClash.Weighted>
0.0110

> <Gold.Chemscore.DEInternal.Weighted>
0.2961

> <Gold.Chemscore.Rot.Weighted>
3.8531

> <Gold.Chemscore.Internal.Correction.Weighted>
   9.000000E+99

> <Gold.Protein.RotatedTorsions>
[ 6907 6896 6895 6894 ] final   14.84 input  -60.11 | X-H torsion
[ 7974 7965 7964 7962 ] final -170.31 input  175.53 | X-H torsion
[ 8008 7997 7996 7995 ] final   64.20 input   59.86 | X-H torsion
[ 10167 10162 10161 10158 ] final  140.71 input  -65.29 | X-H torsion
[ 10718 10713 10712 10709 ] final  132.84 input   66.30 | X-H torsion
[ 10763 10752 10751 10750 ] final -143.40 input  -60.55 | X-H torsion
[ 11005 11000 10999 10996 ] final   14.47 input  -57.11 | X-H torsion

> <Gold.Protein.ActiveResidues>
 VAL166  LYS551  ARG553  GLY616  TRP617  ASP618  TYR619  PRO620  LYS621  CYS622 
 ASP623  PHE694  ASN695  SER759  ASP760  ASP761  ALA762  ILE779  LEU786  VAL792 
 PHE793  MET794  SER795  GLU796  ALA797  LYS798  CYS799  TRP800  GLU811  SER814 

> <Gold.Protein.RotatedAtoms>
  151.8087  135.0687  160.0409 H   0  0  0  0  0  0  0  0  0  0  0  0  # atno 6907 bound_to 6896
  152.3036  133.5676  159.5643 H   0  0  0  0  0  0  0  0  0  0  0  0  # atno 6908 bound_to 6896
  150.7285  134.0171  159.3731 H   0  0  0  0  0  0  0  0  0  0  0  0  # atno 6909 bound_to 6896
  144.7172  140.2091  143.6329 H   0  0  0  0  0  0  0  0  0  0  0  0  # atno 7974 bound_to 7965
  155.6423  140.3497  155.4719 H   0  0  0  0  0  0  0  0  0  0  0  0  # atno 8008 bound_to 7997
  155.9915  140.1195  157.0657 H   0  0  0  0  0  0  0  0  0  0  0  0  # atno 8009 bound_to 7997
  154.4220  140.1118  156.5559 H   0  0  0  0  0  0  0  0  0  0  0  0  # atno 8010 bound_to 7997
  139.5041  144.6217  151.6035 H   0  0  0  0  0  0  0  0  0  0  0  0  # atno 10167 bound_to 10162
  157.4832  131.1087  150.9654 H   0  0  0  0  0  0  0  0  0  0  0  0  # atno 10718 bound_to 10713
  154.8471  135.3469  154.6181 H   0  0  0  0  0  0  0  0  0  0  0  0  # atno 10763 bound_to 10752
  153.6789  135.6981  153.5128 H   0  0  0  0  0  0  0  0  0  0  0  0  # atno 10764 bound_to 10752
  153.2683  135.4301  155.0919 H   0  0  0  0  0  0  0  0  0  0  0  0  # atno 10765 bound_to 10752
  140.4691  134.1049  155.7729 H   0  0  0  0  0  0  0  0  0  0  0  0  # atno 11005 bound_to 11000
  145.8607  139.2221  143.1718 LP  0  0  0  0  0  0  0  0  0  0  0  0  # atno 17320 bound_to 7965
  146.0176  140.8378  142.9940 LP  0  0  0  0  0  0  0  0  0  0  0  0  # atno 17321 bound_to 7965
  140.5921  143.9761  150.6331 LP  0  0  0  0  0  0  0  0  0  0  0  0  # atno 17342 bound_to 10162
  140.2944  143.3302  152.1031 LP  0  0  0  0  0  0  0  0  0  0  0  0  # atno 17343 bound_to 10162
  157.0380  130.5738  149.5352 LP  0  0  0  0  0  0  0  0  0  0  0  0  # atno 17370 bound_to 10713
  156.0133  130.5226  150.8056 LP  0  0  0  0  0  0  0  0  0  0  0  0  # atno 17371 bound_to 10713
  141.1585  133.8837  157.1912 LP  0  0  0  0  0  0  0  0  0  0  0  0  # atno 17394 bound_to 11000
  139.9896  135.0069  156.9944 LP  0  0  0  0  0  0  0  0  0  0  0  0  # atno 17395 bound_to 11000

$$$$
