AV-unprocessed.smi:289|AV-procd|sdf|2214|dock9
  -GOLD-   2262022 53D 1   1.00000     0.00000
 Structure written by MMmdl.
 51 54  0  0  0  0  0  0  0  0  1 V2000
  153.2838  138.0341  160.0488 O   0  0  0  0  0  0  0  0  0  0  0  0
  154.3867  138.2700  160.5464 C   0  0  0  0  0  0  0  0  0  0  0  0
  155.0246  139.6585  160.3289 C   0  0  0  0  0  0  0  0  0  0  0  0
  154.1362  140.7847  160.6947 N   0  0  0  0  0  0  0  0  0  0  0  0
  154.1927  141.2932  162.0156 C   0  0  0  0  0  0  0  0  0  0  0  0
  154.9413  140.7982  162.8595 O   0  0  0  0  0  0  0  0  0  0  0  0
  153.3293  142.4358  162.2857 C   0  0  0  0  0  0  0  0  0  0  0  0
  153.3484  143.0121  163.4996 F   0  0  0  0  0  0  0  0  0  0  0  0
  152.5211  142.9382  161.3296 C   0  0  0  0  0  0  0  0  0  0  0  0
  152.4405  142.4059  160.0530 N   0  0  0  0  0  0  0  0  0  0  0  0
  151.5859  143.0250  158.9569 C   0  0  1  0  0  0  0  0  0  0  0  0
  150.4483  143.9185  159.4702 C   0  0  0  0  0  0  0  0  0  0  0  0
  151.0325  145.3250  159.3679 C   0  0  0  0  0  0  0  0  0  0  0  0
  152.4435  145.1229  158.8052 C   0  0  0  0  0  0  0  0  0  0  0  0
  152.3941  143.8486  158.1784 O   0  0  0  0  0  0  0  0  0  0  0  0
  153.2959  141.3382  159.6987 C   0  0  0  0  0  0  0  0  0  0  0  0
  153.3117  140.8996  158.5463 O   0  0  0  0  0  0  0  0  0  0  0  0
  155.0559  137.3478  161.2800 N   0  0  0  0  0  0  0  0  0  0  0  0
  156.3444  137.5540  161.9565 C   0  0  0  0  0  0  0  0  0  0  0  0
  156.1296  137.4768  163.4822 C   0  0  0  0  0  0  0  0  0  0  0  0
  155.5320  136.1731  163.8269 N   0  0  0  0  0  0  0  0  0  0  0  0
  156.1218  135.2021  164.5685 C   0  0  0  0  0  0  0  0  0  0  0  0
  157.0924  135.4195  165.2943 O   0  0  0  0  0  0  0  0  0  0  0  0
  155.5969  133.8213  164.5009 C   0  0  0  0  0  0  0  0  0  0  0  0
  155.5788  132.8364  165.4514 C   0  0  0  0  0  0  0  0  0  0  0  0
  155.0088  131.6874  164.8369 C   0  0  0  0  0  0  0  0  0  0  0  0
  154.7427  132.0447  163.5465 C   0  0  0  0  0  0  0  0  0  0  0  0
  155.1077  133.3360  163.3215 O   0  0  0  0  0  0  0  0  0  0  0  0
  154.2617  135.9496  163.1168 C   0  0  0  0  0  0  0  0  0  0  0  0
  154.5004  136.0253  161.5970 C   0  0  0  0  0  0  0  0  0  0  0  0
  155.9540  139.7144  160.8975 H   0  0  0  0  0  0  0  0  0  0  0  0
  155.3364  139.7406  159.2865 H   0  0  0  0  0  0  0  0  0  0  0  0
  151.9317  143.8020  161.5932 H   0  0  0  0  0  0  0  0  0  0  0  0
  151.1982  142.1828  158.3816 H   0  0  0  0  0  0  0  0  0  0  0  0
  149.6054  143.8221  158.7848 H   0  0  0  0  0  0  0  0  0  0  0  0
  150.0985  143.6316  160.4616 H   0  0  0  0  0  0  0  0  0  0  0  0
  150.4319  145.9277  158.6856 H   0  0  0  0  0  0  0  0  0  0  0  0
  151.0560  145.8362  160.3307 H   0  0  0  0  0  0  0  0  0  0  0  0
  152.7271  145.9021  158.0974 H   0  0  0  0  0  0  0  0  0  0  0  0
  153.1850  145.1112  159.6053 H   0  0  0  0  0  0  0  0  0  0  0  0
  157.0401  136.7757  161.6393 H   0  0  0  0  0  0  0  0  0  0  0  0
  156.8308  138.4942  161.7039 H   0  0  0  0  0  0  0  0  0  0  0  0
  157.0905  137.6577  163.9592 H   0  0  0  0  0  0  0  0  0  0  0  0
  155.4665  138.2765  163.8155 H   0  0  0  0  0  0  0  0  0  0  0  0
  155.9313  132.9329  166.4679 H   0  0  0  0  0  0  0  0  0  0  0  0
  154.8261  130.7196  165.2804 H   0  0  0  0  0  0  0  0  0  0  0  0
  154.3227  131.5285  162.6958 H   0  0  0  0  0  0  0  0  0  0  0  0
  153.7984  134.9946  163.3683 H   0  0  0  0  0  0  0  0  0  0  0  0
  153.5457  136.7143  163.4222 H   0  0  0  0  0  0  0  0  0  0  0  0
  153.5685  135.8179  161.0700 H   0  0  0  0  0  0  0  0  0  0  0  0
  155.2008  135.2501  161.2824 H   0  0  0  0  0  0  0  0  0  0  0  0
  1  2  2  0  0  0  0
  2  3  1  0  0  0  0
  2 18  1  0  0  0  0
  3  4  1  0  0  0  0
  3 31  1  0  0  0  0
  3 32  1  0  0  0  0
  4 16  1  0  0  0  0
  4  5  1  0  0  0  0
  5  6  2  0  0  0  0
  5  7  1  0  0  0  0
  7  8  1  0  0  0  0
  7  9  2  0  0  0  0
  9 10  1  0  0  0  0
  9 33  1  0  0  0  0
 10 11  1  0  0  0  0
 10 16  1  0  0  0  0
 11 15  1  0  0  0  0
 11 12  1  0  0  0  0
 11 34  1  0  0  0  0
 12 13  1  0  0  0  0
 12 35  1  0  0  0  0
 12 36  1  0  0  0  0
 13 14  1  0  0  0  0
 13 37  1  0  0  0  0
 13 38  1  0  0  0  0
 14 15  1  0  0  0  0
 14 39  1  0  0  0  0
 14 40  1  0  0  0  0
 16 17  2  0  0  0  0
 18 30  1  0  0  0  0
 18 19  1  0  0  0  0
 19 20  1  0  0  0  0
 19 41  1  0  0  0  0
 19 42  1  0  0  0  0
 20 21  1  0  0  0  0
 20 43  1  0  0  0  0
 20 44  1  0  0  0  0
 21 22  1  0  0  0  0
 21 29  1  0  0  0  0
 22 23  2  0  0  0  0
 22 24  1  0  0  0  0
 24 28  1  0  0  0  0
 24 25  2  0  0  0  0
 25 26  1  0  0  0  0
 25 45  1  0  0  0  0
 26 27  2  0  0  0  0
 26 46  1  0  0  0  0
 27 28  1  0  0  0  0
 27 47  1  0  0  0  0
 29 30  1  0  0  0  0
 29 48  1  0  0  0  0
 29 49  1  0  0  0  0
 30 50  1  0  0  0  0
 30 51  1  0  0  0  0
M  END
> <s_m_source_file>
AV-unprocessed.smi

> <i_m_source_file_index>
289

> <i_lp_mmshare_version>
43012

> <i_f3d_flags>
0

> <s_epik_input>
bzFbY0hdW2NIXVtjSF1jMUMoPU8pTihbQ0gyXVtDSDJdMilbQ0gyXVtDSDJdTjJDKD1PKVtDSDJdbjNjKD1PKWMoRilbY0hdbihjMz1PKVtDQEBIXTRbQ0gyXVtDSDJdW0NIMl1PNA==

> <s_epik_cmdline>
J2VwaWtfcHl0aG9uJywgJy1waCcsICc3LjAnLCAnLXRuJywgJzgnLCAnLW1hJywgJzIwMCcsICctbWV0YWxfYmluZGluZycsICctaW1hZScsICc8aW5maWxlLm1hZT4nLCAnLW9tYWUnLCAnPG91dGZpbGUubWFlPic=

> <r_lp_tautomer_probability>
1

> <r_epik_Ionization_Penalty>
6.38128e-09

> <r_epik_Ionization_Penalty_Charging>
4.20153e-09

> <r_epik_Ionization_Penalty_Neutral>
2.17976e-09

> <r_epik_State_Penalty>
-0

> <r_epik_Charging_Adjusted_Penalty>
4.20153e-09

> <i_epik_Tot_Q>
0

> <i_epik_Tot_abs_Q>
0

> <r_epik_Metal_State_Penalty>
-0

> <b_epik_Metal_Only>
0

> <s_epik_Chemistry_Notes>
This compound contains an acetal/aminal-like group ( X-CH(R)-Y where X, Y are N, S, or O) that may be acid/base labile, releasing an aldehyde.

> <s_lp_Force_Field>
OPLS_2005

> <r_lp_Energy>
67.9556

> <b_lp_Chiralities_Consistent>
1

> <s_lp_Variant>
AV-unprocessed.smi:289-2

> <Gold.Version>
5.8.1

> <Gold.Id.Protein>
6NUR|6NUR_protein|mol2

> <Gold.PLP.Fitness>
55.0067

> <Gold.PLP.PLP>
-56.2681

> <Gold.PLP.part.hbond>
-2.0000

> <Gold.PLP.part.metal>
0.0000

> <Gold.PLP.part.buried>
-3.6731

> <Gold.PLP.part.nonpolar>
-48.7497

> <Gold.PLP.part.repulsive>
0.1411

> <Gold.PLP.ligand.clash>
0.0000

> <Gold.PLP.ligand.torsion>
1.5007

> <Gold.PLP.Chemscore.Hbond>
0.3913

> <Gold.PLP.Chemscore.CHOScore>
0.0000

> <Gold.PLP.Chemscore.Metal>
0.0000

> <Gold.Chemscore.Hbonds>
donor molecule, donor type, donor heavy atom, donor atom, acceptor molecule, acceptor atom, score
      P1  H  7997  8009       L1    17  0.42

> <Gold.PLP.Chemscore.Internal.Correction>
0.5660

> <Gold.Rescore>
     Score         DG    S(hbond)    S(metal)    S(lipo)     H(rot)  DE(clash)    DE(int)     intcor
     13.00     -16.10       0.73        0.00     106.29       1.66       0.12       2.97       ----

> <Gold.Chemscore.Fitness>
13.0041

> <Gold.Chemscore.DG>
-16.0958

> <Gold.Chemscore.ZeroCoef>
-5.4800

> <Gold.Chemscore.Hbond>
0.7260

> <Gold.Chemscore.Metal>
0.0000

> <Gold.Chemscore.Lipo>
106.2853

> <Gold.Chemscore.Internal_Hbond>
0.0000

> <Gold.Chemscore.DEClash>
0.1233

> <Gold.Chemscore.DEInternal>
2.9684

> <Gold.Chemscore.Rot>
1.6580

> <Gold.Chemscore.Internal.Correction>
   9.000000E+99

> <Gold.Chemscore.Hbonds>
donor molecule, donor type, donor heavy atom, donor atom, acceptor molecule, acceptor atom, score
      P1  H  7997  8009       L1    17  0.41

> <Gold.Chemscore.Hbond.Weighted>
-2.4250

> <Gold.Chemscore.Metal.Weighted>
-0.0000

> <Gold.Chemscore.Lipo.Weighted>
-12.4354

> <Gold.Chemscore.Internal_Hbond.Weighted>
0.0000

> <Gold.Chemscore.DEClash.Weighted>
0.1233

> <Gold.Chemscore.DEInternal.Weighted>
2.9684

> <Gold.Chemscore.Rot.Weighted>
4.2446

> <Gold.Chemscore.Internal.Correction.Weighted>
   9.000000E+99

> <Gold.Protein.RotatedTorsions>
[ 6907 6896 6895 6894 ] final -147.59 input  -60.11 | X-H torsion
[ 7974 7965 7964 7962 ] final  -12.89 input  175.53 | X-H torsion
[ 8008 7997 7996 7995 ] final  148.43 input   59.86 | X-H torsion
[ 10167 10162 10161 10158 ] final   65.88 input  -65.29 | X-H torsion
[ 10718 10713 10712 10709 ] final  -73.14 input   66.30 | X-H torsion
[ 10763 10752 10751 10750 ] final  -59.23 input  -60.55 | X-H torsion
[ 11005 11000 10999 10996 ] final -145.87 input  -57.11 | X-H torsion

> <Gold.Protein.ActiveResidues>
 VAL166  LYS551  ARG553  GLY616  TRP617  ASP618  TYR619  PRO620  LYS621  CYS622 
 ASP623  PHE694  ASN695  SER759  ASP760  ASP761  ALA762  ILE779  LEU786  VAL792 
 PHE793  MET794  SER795  GLU796  ALA797  LYS798  CYS799  TRP800  GLU811  SER814 

> <Gold.Protein.RotatedAtoms>
  151.1578  133.4865  159.2594 H   0  0  0  0  0  0  0  0  0  0  0  0  # atno 6907 bound_to 6896
  151.1486  135.0215  159.8668 H   0  0  0  0  0  0  0  0  0  0  0  0  # atno 6908 bound_to 6896
  152.5463  134.1464  159.8553 H   0  0  0  0  0  0  0  0  0  0  0  0  # atno 6909 bound_to 6896
  146.2135  140.3123  142.8383 H   0  0  0  0  0  0  0  0  0  0  0  0  # atno 7974 bound_to 7965
  156.2791  140.2129  156.5697 H   0  0  0  0  0  0  0  0  0  0  0  0  # atno 8008 bound_to 7997
  154.7145  140.0509  157.0605 H   0  0  0  0  0  0  0  0  0  0  0  0  # atno 8009 bound_to 7997
  155.0560  140.3161  155.4679 H   0  0  0  0  0  0  0  0  0  0  0  0  # atno 8010 bound_to 7997
  140.1065  144.4856  150.7004 H   0  0  0  0  0  0  0  0  0  0  0  0  # atno 10167 bound_to 10162
  156.0292  130.4387  150.2698 H   0  0  0  0  0  0  0  0  0  0  0  0  # atno 10718 bound_to 10713
  154.2504  135.6327  153.5238 H   0  0  0  0  0  0  0  0  0  0  0  0  # atno 10763 bound_to 10752
  152.9913  135.5563  154.5813 H   0  0  0  0  0  0  0  0  0  0  0  0  # atno 10764 bound_to 10752
  154.5339  135.2890  155.1130 H   0  0  0  0  0  0  0  0  0  0  0  0  # atno 10765 bound_to 10752
  140.7878  134.3004  157.5024 H   0  0  0  0  0  0  0  0  0  0  0  0  # atno 11005 bound_to 11000
  144.8979  140.7606  143.5885 LP  0  0  0  0  0  0  0  0  0  0  0  0  # atno 17320 bound_to 7965
  145.3048  139.1838  143.4670 LP  0  0  0  0  0  0  0  0  0  0  0  0  # atno 17321 bound_to 7965
  140.6949  143.2398  151.5028 LP  0  0  0  0  0  0  0  0  0  0  0  0  # atno 17342 bound_to 10162
  139.5642  144.2082  152.1739 LP  0  0  0  0  0  0  0  0  0  0  0  0  # atno 17343 bound_to 10162
  157.0800  131.0141  151.3160 LP  0  0  0  0  0  0  0  0  0  0  0  0  # atno 17370 bound_to 10713
  157.4934  130.7836  149.7531 LP  0  0  0  0  0  0  0  0  0  0  0  0  # atno 17371 bound_to 10713
  139.8734  134.9357  156.3639 LP  0  0  0  0  0  0  0  0  0  0  0  0  # atno 17394 bound_to 11000
  140.9419  133.7508  156.0158 LP  0  0  0  0  0  0  0  0  0  0  0  0  # atno 17395 bound_to 11000

$$$$
