AV-unprocessed.smi:2405|AV-procd|sdf|9514|dock9
  -GOLD-   2272013143D 1   1.00000     0.00000
 Structure written by MMmdl.
 36 37  0  0  0  0  0  0  0  0  2 V2000
  153.9993  141.2398  160.8382 C   0  0  0  0  0  0  0  0  0  0  0  0
  153.2694  142.5871  160.8559 C   0  0  0  0  0  0  0  0  0  0  0  0
  152.3769  142.7708  159.6745 C   0  0  0  0  0  0  0  0  0  0  0  0
  151.3204  141.9940  159.4226 N   0  0  0  0  0  0  0  0  0  0  0  0
  150.6274  142.3813  158.2709 C   0  0  0  0  0  0  0  0  0  0  0  0
  149.4212  141.6068  157.8257 C   0  0  0  0  0  0  0  0  0  0  0  0
  149.6603  141.0112  156.4378 C   0  0  0  0  0  0  0  0  0  0  0  0
  150.0019  141.7388  155.5052 O   0  0  0  0  0  0  0  0  0  0  0  0
  149.4742  139.6885  156.3156 N   0  0  0  0  0  0  0  0  0  0  0  0
  149.6429  138.9214  155.0858 C   0  0  2  0  0  0  0  0  0  0  0  0
  149.5606  137.4029  155.3461 C   0  0  0  0  0  0  0  0  0  0  0  0
  150.8256  136.7950  154.7294 C   0  0  0  0  0  0  0  0  0  0  0  0
  151.8750  137.9151  154.7736 C   0  0  2  0  0  0  0  0  0  0  0  0
  152.5927  137.9499  156.1404 C   0  0  0  0  0  0  0  0  0  0  0  0
  152.9873  136.8521  156.5911 O   0  0  0  0  0  0  0  0  0  0  0  0
  152.7529  139.0515  156.7122 O   0  5  0  0  0  0  0  0  0  0  0  0
  151.0369  139.1742  154.4807 C   0  0  0  0  0  0  0  0  0  0  0  0
  151.1672  143.4885  157.6634 C   0  0  0  0  0  0  0  0  0  0  0  0
  152.5710  144.0764  158.5109 S   0  0  0  0  0  0  0  0  0  0  0  0
  154.6420  141.1347  161.7124 H   0  0  0  0  0  0  0  0  0  0  0  0
  154.6254  141.1439  159.9508 H   0  0  0  0  0  0  0  0  0  0  0  0
  153.2925  140.4098  160.8416 H   0  0  0  0  0  0  0  0  0  0  0  0
  152.6702  142.6731  161.7626 H   0  0  0  0  0  0  0  0  0  0  0  0
  153.9932  143.4025  160.8813 H   0  0  0  0  0  0  0  0  0  0  0  0
  149.1886  140.8045  158.5274 H   0  0  0  0  0  0  0  0  0  0  0  0
  148.5425  142.2520  157.7946 H   0  0  0  0  0  0  0  0  0  0  0  0
  149.1831  139.1703  157.1334 H   0  0  0  0  0  0  0  0  0  0  0  0
  148.8840  139.2257  154.3625 H   0  0  0  0  0  0  0  0  0  0  0  0
  149.5487  137.1936  156.4171 H   0  0  0  0  0  0  0  0  0  0  0  0
  148.6556  136.9645  154.9245 H   0  0  0  0  0  0  0  0  0  0  0  0
  151.1317  135.8816  155.2416 H   0  0  0  0  0  0  0  0  0  0  0  0
  150.6326  136.5264  153.6900 H   0  0  0  0  0  0  0  0  0  0  0  0
  152.6351  137.7690  154.0055 H   0  0  0  0  0  0  0  0  0  0  0  0
  150.9376  139.2765  153.3994 H   0  0  0  0  0  0  0  0  0  0  0  0
  151.4946  140.1031  154.8252 H   0  0  0  0  0  0  0  0  0  0  0  0
  150.8253  143.9894  156.7698 H   0  0  0  0  0  0  0  0  0  0  0  0
  1  2  1  0  0  0  0
  1 20  1  0  0  0  0
  1 21  1  0  0  0  0
  1 22  1  0  0  0  0
  2  3  1  0  0  0  0
  2 23  1  0  0  0  0
  2 24  1  0  0  0  0
  3 19  1  0  0  0  0
  3  4  2  0  0  0  0
  4  5  1  0  0  0  0
  5  6  1  0  0  0  0
  5 18  2  0  0  0  0
  6  7  1  0  0  0  0
  6 25  1  0  0  0  0
  6 26  1  0  0  0  0
  7  8  2  0  0  0  0
  7  9  1  0  0  0  0
  9 10  1  0  0  0  0
  9 27  1  0  0  0  0
 10 17  1  0  0  0  0
 10 11  1  0  0  0  0
 10 28  1  0  0  0  0
 11 12  1  0  0  0  0
 11 29  1  0  0  0  0
 11 30  1  0  0  0  0
 12 13  1  0  0  0  0
 12 31  1  0  0  0  0
 12 32  1  0  0  0  0
 13 14  1  0  0  0  0
 13 17  1  0  0  0  0
 13 33  1  0  0  0  0
 14 15  2  0  0  0  0
 14 16  1  0  0  0  0
 17 34  1  0  0  0  0
 17 35  1  0  0  0  0
 18 19  1  0  0  0  0
 18 36  1  0  0  0  0
M  CHG  1  16  -1
M  END
> <s_m_source_file>
AV-unprocessed.smi

> <i_m_source_file_index>
2405

> <i_lp_mmshare_version>
43012

> <i_f3d_flags>
0

> <s_epik_input>
W0NIM11bQ0gyXWMxbmMoW2NIXXMxKVtDSDJdQyg9TylbTkhdW0NAQEhdMltDSDJdW0NIMl1bQ0BIXShbQ0gyXTIpQyg9TylbT0hd

> <s_epik_cmdline>
J2VwaWtfcHl0aG9uJywgJy1waCcsICc3LjAnLCAnLXRuJywgJzgnLCAnLW1hJywgJzIwMCcsICctbWV0YWxfYmluZGluZycsICctaW1hZScsICc8aW5maWxlLm1hZT4nLCAnLW9tYWUnLCAnPG91dGZpbGUubWFlPic=

> <r_epik_Ionization_Penalty>
0.000544611

> <r_epik_Ionization_Penalty_Charging>
0.000481685

> <r_epik_Ionization_Penalty_Neutral>
6.29266e-05

> <r_epik_State_Penalty>
0.00029893

> <r_epik_Charging_Adjusted_Penalty>
0.000780614

> <i_epik_Tot_Q>
-1

> <i_epik_Tot_abs_Q>
1

> <r_epik_Metal_State_Penalty>
-0

> <b_epik_Metal_Only>
0

> <s_lp_Force_Field>
OPLS_2005

> <r_lp_Energy>
7.32439

> <b_lp_Chiralities_Consistent>
1

> <s_lp_Variant>
AV-unprocessed.smi:2405-3

> <Gold.Version>
5.8.1

> <Gold.Id.Protein>
6NUR|6NUR_protein|mol2

> <Gold.PLP.Fitness>
50.0520

> <Gold.PLP.PLP>
-36.1018

> <Gold.PLP.part.hbond>
-2.6955

> <Gold.PLP.part.metal>
0.0000

> <Gold.PLP.part.buried>
-3.4286

> <Gold.PLP.part.nonpolar>
-31.1147

> <Gold.PLP.part.repulsive>
0.1294

> <Gold.PLP.ligand.clash>
0.0000

> <Gold.PLP.ligand.torsion>
0.5210

> <Gold.PLP.Chemscore.Hbond>
3.9840

> <Gold.PLP.Chemscore.CHOScore>
1.0000

> <Gold.PLP.Chemscore.Metal>
0.0000

> <Gold.Chemscore.Hbonds>
donor molecule, donor type, donor heavy atom, donor atom, acceptor molecule, acceptor atom, score
      P1  H  7997  8008       L1    16  2.00
      P1  H 10752 10763       L1    15  1.82
      L1  C    18    36       P1  8028  1.00

> <Gold.PLP.Chemscore.Internal.Correction>
0.0402

> <Gold.Rescore>
     Score         DG    S(hbond)    S(metal)    S(lipo)     H(rot)  DE(clash)    DE(int)     intcor
     15.72     -17.80       1.84        0.00      98.08       2.06       0.06       2.02       ----

> <Gold.Chemscore.Fitness>
15.7177

> <Gold.Chemscore.DG>
-17.8030

> <Gold.Chemscore.ZeroCoef>
-5.4800

> <Gold.Chemscore.Hbond>
1.8355

> <Gold.Chemscore.Metal>
0.0000

> <Gold.Chemscore.Lipo>
98.0766

> <Gold.Chemscore.Internal_Hbond>
0.0000

> <Gold.Chemscore.DEClash>
0.0618

> <Gold.Chemscore.DEInternal>
2.0236

> <Gold.Chemscore.Rot>
2.0635

> <Gold.Chemscore.Internal.Correction>
   9.000000E+99

> <Gold.Chemscore.Hbonds>
donor molecule, donor type, donor heavy atom, donor atom, acceptor molecule, acceptor atom, score
      P1  H  7997  8008       L1    16  0.96
      P1  H 10752 10763       L1    15  0.82

> <Gold.Chemscore.Hbond.Weighted>
-6.1305

> <Gold.Chemscore.Metal.Weighted>
-0.0000

> <Gold.Chemscore.Lipo.Weighted>
-11.4750

> <Gold.Chemscore.Internal_Hbond.Weighted>
0.0000

> <Gold.Chemscore.DEClash.Weighted>
0.0618

> <Gold.Chemscore.DEInternal.Weighted>
2.0236

> <Gold.Chemscore.Rot.Weighted>
5.2825

> <Gold.Chemscore.Internal.Correction.Weighted>
   9.000000E+99

> <Gold.Protein.RotatedTorsions>
[ 6907 6896 6895 6894 ] final  -22.53 input  -60.11 | X-H torsion
[ 7974 7965 7964 7962 ] final  -78.30 input  175.53 | X-H torsion
[ 8008 7997 7996 7995 ] final  -71.54 input   59.86 | X-H torsion
[ 10167 10162 10161 10158 ] final  143.47 input  -65.29 | X-H torsion
[ 10718 10713 10712 10709 ] final -137.36 input   66.30 | X-H torsion
[ 10763 10752 10751 10750 ] final  113.82 input  -60.55 | X-H torsion
[ 11005 11000 10999 10996 ] final   81.08 input  -57.11 | X-H torsion

> <Gold.Protein.ActiveResidues>
 VAL166  LYS551  ARG553  GLY616  TRP617  ASP618  TYR619  PRO620  LYS621  CYS622 
 ASP623  PHE694  ASN695  SER759  ASP760  ASP761  ALA762  ILE779  LEU786  VAL792 
 PHE793  MET794  SER795  GLU796  ALA797  LYS798  CYS799  TRP800  GLU811  SER814 

> <Gold.Protein.RotatedAtoms>
  151.2173  135.0505  159.8935 H   0  0  0  0  0  0  0  0  0  0  0  0  # atno 6907 bound_to 6896
  152.5419  134.0679  159.8191 H   0  0  0  0  0  0  0  0  0  0  0  0  # atno 6908 bound_to 6896
  151.0841  133.5319  159.2650 H   0  0  0  0  0  0  0  0  0  0  0  0  # atno 6909 bound_to 6896
  145.5883  140.9434  143.1306 H   0  0  0  0  0  0  0  0  0  0  0  0  # atno 7974 bound_to 7965
  154.5096  140.0814  156.7962 H   0  0  0  0  0  0  0  0  0  0  0  0  # atno 8008 bound_to 7997
  155.3816  140.3428  155.4229 H   0  0  0  0  0  0  0  0  0  0  0  0  # atno 8009 bound_to 7997
  156.1557  140.1572  156.8684 H   0  0  0  0  0  0  0  0  0  0  0  0  # atno 8010 bound_to 7997
  139.4969  144.6038  151.6423 H   0  0  0  0  0  0  0  0  0  0  0  0  # atno 10167 bound_to 10162
  156.2872  130.7354  151.1370 H   0  0  0  0  0  0  0  0  0  0  0  0  # atno 10718 bound_to 10713
  153.4981  135.3644  155.2526 H   0  0  0  0  0  0  0  0  0  0  0  0  # atno 10763 bound_to 10752
  154.8749  135.3993  154.3511 H   0  0  0  0  0  0  0  0  0  0  0  0  # atno 10764 bound_to 10752
  153.4142  135.7078  153.6404 H   0  0  0  0  0  0  0  0  0  0  0  0  # atno 10765 bound_to 10752
  139.9111  134.7969  156.1994 H   0  0  0  0  0  0  0  0  0  0  0  0  # atno 11005 bound_to 11000
  144.7363  139.7577  143.7328 LP  0  0  0  0  0  0  0  0  0  0  0  0  # atno 17320 bound_to 7965
  146.1666  139.4799  142.9954 LP  0  0  0  0  0  0  0  0  0  0  0  0  # atno 17321 bound_to 7965
  140.5695  144.0133  150.6209 LP  0  0  0  0  0  0  0  0  0  0  0  0  # atno 17342 bound_to 10162
  140.3246  143.3115  152.0749 LP  0  0  0  0  0  0  0  0  0  0  0  0  # atno 17343 bound_to 10162
  157.7332  131.0593  150.5589 LP  0  0  0  0  0  0  0  0  0  0  0  0  # atno 17370 bound_to 10713
  156.5701  130.4277  149.6023 LP  0  0  0  0  0  0  0  0  0  0  0  0  # atno 17371 bound_to 10713
  141.0534  133.6877  156.1815 LP  0  0  0  0  0  0  0  0  0  0  0  0  # atno 17394 bound_to 11000
  140.6775  134.4803  157.5588 LP  0  0  0  0  0  0  0  0  0  0  0  0  # atno 17395 bound_to 11000

$$$$
