AV-unprocessed.smi:249|AV-procd|sdf|1909|dock4
  -GOLD-   2262020593D 1   1.00000     0.00000
 Structure written by MMmdl.
 64 67  0  0  0  0  0  0  0  0  2 V2000
  145.5129  135.1660  151.6509 C   0  0  0  0  0  0  0  0  0  0  0  0
  146.2900  133.8692  151.9216 C   0  0  0  0  0  0  0  0  0  0  0  0
  147.4268  134.0495  152.8642 N   0  3  1  0  0  0  0  0  0  0  0  0
  146.9807  134.5595  154.1887 C   0  0  0  0  0  0  0  0  0  0  0  0
  148.1749  134.9742  155.0620 C   0  0  0  0  0  0  0  0  0  0  0  0
  149.1705  133.8085  155.2211 C   0  0  2  0  0  0  0  0  0  0  0  0
  150.2991  134.1101  156.1140 N   0  0  0  0  0  0  0  0  0  0  0  0
  151.1019  132.9910  156.5967 C   0  0  0  0  0  0  0  0  0  0  0  0
  150.3159  135.1941  156.9353 C   0  0  0  0  0  0  0  0  0  0  0  0
  149.4887  135.2535  158.0116 N   0  0  0  0  0  0  0  0  0  0  0  0
  149.5135  136.3090  158.8302 C   0  0  0  0  0  0  0  0  0  0  0  0
  150.2819  137.3968  158.7641 N   0  0  0  0  0  0  0  0  0  0  0  0
  151.1220  137.3428  157.6921 C   0  0  0  0  0  0  0  0  0  0  0  0
  151.2022  136.2909  156.7358 C   0  0  0  0  0  0  0  0  0  0  0  0
  152.1622  136.5973  155.7785 N   0  0  0  0  0  0  0  0  0  0  0  0
  152.6273  137.7582  156.1508 C   0  0  0  0  0  0  0  0  0  0  0  0
  152.0739  138.2691  157.3031 N   0  0  0  0  0  0  0  0  0  0  0  0
  152.3994  139.5360  157.9344 C   0  0  0  0  0  0  0  0  0  0  0  0
  151.2608  140.5945  157.9054 C   0  0  2  0  0  0  0  0  0  0  0  0
  150.4828  140.4640  156.5733 C   0  0  0  0  0  0  0  0  0  0  0  0
  151.3607  140.4033  155.4678 O   0  0  0  0  0  0  0  0  0  0  0  0
  151.7707  142.0505  158.1271 C   0  0  1  0  0  0  0  0  0  0  0  0
  150.6785  143.1018  158.2646 C   0  0  0  0  0  0  0  0  0  0  0  0
  151.4186  144.2580  158.9198 C   0  0  0  0  0  0  0  0  0  0  0  0
  152.2952  143.6340  159.8433 O   0  0  0  0  0  0  0  0  0  0  0  0
  152.5537  142.2954  159.4296 C   0  0  0  0  0  0  0  0  0  0  0  0
  149.5880  133.2687  153.8352 C   0  0  0  0  0  0  0  0  0  0  0  0
  148.3675  132.8900  152.9707 C   0  0  1  0  0  0  0  0  0  0  0  0
  147.6941  131.5839  153.4447 C   0  0  0  0  0  0  0  0  0  0  0  0
  144.6120  134.9569  151.0739 H   0  0  0  0  0  0  0  0  0  0  0  0
  146.1002  135.8821  151.0767 H   0  0  0  0  0  0  0  0  0  0  0  0
  145.2048  135.6448  152.5808 H   0  0  0  0  0  0  0  0  0  0  0  0
  145.5923  133.1543  152.3595 H   0  0  0  0  0  0  0  0  0  0  0  0
  146.6291  133.4215  150.9873 H   0  0  0  0  0  0  0  0  0  0  0  0
  146.3351  135.4273  154.0483 H   0  0  0  0  0  0  0  0  0  0  0  0
  146.3780  133.8073  154.6982 H   0  0  0  0  0  0  0  0  0  0  0  0
  148.6559  135.8401  154.6087 H   0  0  0  0  0  0  0  0  0  0  0  0
  147.8136  135.3004  156.0377 H   0  0  0  0  0  0  0  0  0  0  0  0
  148.6332  133.0003  155.7182 H   0  0  0  0  0  0  0  0  0  0  0  0
  152.1414  133.1089  156.2903 H   0  0  0  0  0  0  0  0  0  0  0  0
  150.7456  132.0434  156.1917 H   0  0  0  0  0  0  0  0  0  0  0  0
  151.0690  132.9200  157.6850 H   0  0  0  0  0  0  0  0  0  0  0  0
  148.8207  136.2764  159.6581 H   0  0  0  0  0  0  0  0  0  0  0  0
  153.4012  138.2705  155.5977 H   0  0  0  0  0  0  0  0  0  0  0  0
  152.6982  139.3428  158.9655 H   0  0  0  0  0  0  0  0  0  0  0  0
  153.2877  139.9156  157.4290 H   0  0  0  0  0  0  0  0  0  0  0  0
  150.5552  140.3691  158.7062 H   0  0  0  0  0  0  0  0  0  0  0  0
  149.8896  139.5512  156.5430 H   0  0  0  0  0  0  0  0  0  0  0  0
  149.7938  141.2991  156.4427 H   0  0  0  0  0  0  0  0  0  0  0  0
  152.1053  139.8709  155.7031 H   0  0  0  0  0  0  0  0  0  0  0  0
  152.4020  142.3384  157.2847 H   0  0  0  0  0  0  0  0  0  0  0  0
  150.2341  143.3909  157.3118 H   0  0  0  0  0  0  0  0  0  0  0  0
  149.8843  142.7463  158.9229 H   0  0  0  0  0  0  0  0  0  0  0  0
  152.0085  144.8024  158.1815 H   0  0  0  0  0  0  0  0  0  0  0  0
  150.7497  144.9633  159.4134 H   0  0  0  0  0  0  0  0  0  0  0  0
  152.2194  141.6300  160.2261 H   0  0  0  0  0  0  0  0  0  0  0  0
  153.6250  142.1521  159.2956 H   0  0  0  0  0  0  0  0  0  0  0  0
  150.1653  134.0121  153.2873 H   0  0  0  0  0  0  0  0  0  0  0  0
  150.2452  132.4061  153.9528 H   0  0  0  0  0  0  0  0  0  0  0  0
  148.7644  132.6938  151.9753 H   0  0  0  0  0  0  0  0  0  0  0  0
  148.4277  130.7808  153.5202 H   0  0  0  0  0  0  0  0  0  0  0  0
  146.9314  131.2444  152.7444 H   0  0  0  0  0  0  0  0  0  0  0  0
  147.2261  131.6858  154.4230 H   0  0  0  0  0  0  0  0  0  0  0  0
  147.9765  134.7997  152.4700 H   0  0  0  0  0  0  0  0  0  0  0  0
  1  2  1  0  0  0  0
  1 30  1  0  0  0  0
  1 31  1  0  0  0  0
  1 32  1  0  0  0  0
  2  3  1  0  0  0  0
  2 33  1  0  0  0  0
  2 34  1  0  0  0  0
  3 28  1  0  0  0  0
  3  4  1  0  0  0  0
  3 64  1  0  0  0  0
  4  5  1  0  0  0  0
  4 35  1  0  0  0  0
  4 36  1  0  0  0  0
  5  6  1  0  0  0  0
  5 37  1  0  0  0  0
  5 38  1  0  0  0  0
  6  7  1  0  0  0  0
  6 27  1  0  0  0  0
  6 39  1  0  0  0  0
  7  8  1  0  0  0  0
  7  9  1  0  0  0  0
  8 40  1  0  0  0  0
  8 41  1  0  0  0  0
  8 42  1  0  0  0  0
  9 14  1  0  0  0  0
  9 10  2  0  0  0  0
 10 11  1  0  0  0  0
 11 12  2  0  0  0  0
 11 43  1  0  0  0  0
 12 13  1  0  0  0  0
 13 17  1  0  0  0  0
 13 14  2  0  0  0  0
 14 15  1  0  0  0  0
 15 16  2  0  0  0  0
 16 17  1  0  0  0  0
 16 44  1  0  0  0  0
 17 18  1  0  0  0  0
 18 19  1  0  0  0  0
 18 45  1  0  0  0  0
 18 46  1  0  0  0  0
 19 20  1  0  0  0  0
 19 22  1  0  0  0  0
 19 47  1  0  0  0  0
 20 21  1  0  0  0  0
 20 48  1  0  0  0  0
 20 49  1  0  0  0  0
 21 50  1  0  0  0  0
 22 26  1  0  0  0  0
 22 23  1  0  0  0  0
 22 51  1  0  0  0  0
 23 24  1  0  0  0  0
 23 52  1  0  0  0  0
 23 53  1  0  0  0  0
 24 25  1  0  0  0  0
 24 54  1  0  0  0  0
 24 55  1  0  0  0  0
 25 26  1  0  0  0  0
 26 56  1  0  0  0  0
 26 57  1  0  0  0  0
 27 28  1  0  0  0  0
 27 58  1  0  0  0  0
 27 59  1  0  0  0  0
 28 29  1  0  0  0  0
 28 60  1  0  0  0  0
 29 61  1  0  0  0  0
 29 62  1  0  0  0  0
 29 63  1  0  0  0  0
M  CHG  1   3   1
M  END
> <s_m_source_file>
AV-unprocessed.smi

> <i_m_source_file_index>
249

> <i_lp_mmshare_version>
43012

> <i_f3d_flags>
0

> <s_epik_input>
W0NIM11bQ0gyXU4xW0NIMl1bQ0gyXVtDQEhdKFtDSDJdW0NASF0xW0NIM10pTihbQ0gzXSljKG5bY0hdbjIpYyhjMjMpbltjSF1uM1tDSDJdW0NASF0oW0NIMl1bT0hdKVtDQEBIXTRbQ0gyXVtDSDJdT1tDSDJdNA==

> <s_epik_cmdline>
J2VwaWtfcHl0aG9uJywgJy1waCcsICc3LjAnLCAnLXRuJywgJzgnLCAnLW1hJywgJzIwMCcsICctbWV0YWxfYmluZGluZycsICctaW1hZScsICc8aW5maWxlLm1hZT4nLCAnLW9tYWUnLCAnPG91dGZpbGUubWFlPic=

> <r_lp_tautomer_probability>
1

> <r_epik_Ionization_Penalty>
0.00294688

> <r_epik_Ionization_Penalty_Charging>
0.00169971

> <r_epik_Ionization_Penalty_Neutral>
0.00124717

> <r_epik_State_Penalty>
-0

> <r_epik_Charging_Adjusted_Penalty>
0.00169971

> <i_epik_Tot_Q>
1

> <i_epik_Tot_abs_Q>
1

> <r_epik_Metal_State_Penalty>
-0

> <b_epik_Metal_Only>
0

> <s_lp_Force_Field>
OPLS_2005

> <r_lp_Energy>
54.5732

> <b_lp_Chiralities_Consistent>
1

> <s_lp_Variant>
AV-unprocessed.smi:249-12

> <Gold.Version>
5.8.1

> <Gold.Id.Protein>
6NUR|6NUR_protein|mol2

> <Gold.PLP.Fitness>
54.4312

> <Gold.PLP.PLP>
-45.3120

> <Gold.PLP.part.hbond>
-3.6486

> <Gold.PLP.part.metal>
0.0000

> <Gold.PLP.part.buried>
-7.4802

> <Gold.PLP.part.nonpolar>
-35.0022

> <Gold.PLP.part.repulsive>
0.0314

> <Gold.PLP.ligand.clash>
0.0000

> <Gold.PLP.ligand.torsion>
2.1626

> <Gold.PLP.Chemscore.Hbond>
4.1193

> <Gold.PLP.Chemscore.CHOScore>
0.0000

> <Gold.PLP.Chemscore.Metal>
0.0000

> <Gold.Chemscore.Hbonds>
donor molecule, donor type, donor heavy atom, donor atom, acceptor molecule, acceptor atom, score
      L1  H     3    64       P1  7948  2.00
      P1  H  6896  6907       L1    10  0.36
      P1  H  7989  7998       L1    21  0.90
      P1  H 10752 10765       L1    15  1.00

> <Gold.PLP.Chemscore.Internal.Correction>
1.0865

> <Gold.Rescore>
     Score         DG    S(hbond)    S(metal)    S(lipo)     H(rot)  DE(clash)    DE(int)     intcor
     15.87     -19.17       2.51        0.00     103.48       2.65       0.31       2.99       ----

> <Gold.Chemscore.Fitness>
15.8720

> <Gold.Chemscore.DG>
-19.1723

> <Gold.Chemscore.ZeroCoef>
-5.4800

> <Gold.Chemscore.Hbond>
2.5069

> <Gold.Chemscore.Metal>
0.0000

> <Gold.Chemscore.Lipo>
103.4811

> <Gold.Chemscore.Internal_Hbond>
0.0000

> <Gold.Chemscore.DEClash>
0.3091

> <Gold.Chemscore.DEInternal>
2.9912

> <Gold.Chemscore.Rot>
2.6515

> <Gold.Chemscore.Internal.Correction>
   9.000000E+99

> <Gold.Chemscore.Hbonds>
donor molecule, donor type, donor heavy atom, donor atom, acceptor molecule, acceptor atom, score
      L1  H     3    64       P1  7948  0.70
      P1  H  7989  7998       L1    21  0.41
      P1  H 10752 10765       L1    15  0.97

> <Gold.Chemscore.Hbond.Weighted>
-8.3730

> <Gold.Chemscore.Metal.Weighted>
-0.0000

> <Gold.Chemscore.Lipo.Weighted>
-12.1073

> <Gold.Chemscore.Internal_Hbond.Weighted>
0.0000

> <Gold.Chemscore.DEClash.Weighted>
0.3091

> <Gold.Chemscore.DEInternal.Weighted>
2.9912

> <Gold.Chemscore.Rot.Weighted>
6.7880

> <Gold.Chemscore.Internal.Correction.Weighted>
   9.000000E+99

> <Gold.Protein.RotatedTorsions>
[ 6907 6896 6895 6894 ] final  -92.04 input  -60.11 | X-H torsion
[ 7974 7965 7964 7962 ] final -153.69 input  175.53 | X-H torsion
[ 8008 7997 7996 7995 ] final  170.04 input   59.86 | X-H torsion
[ 10167 10162 10161 10158 ] final  -99.76 input  -65.29 | X-H torsion
[ 10718 10713 10712 10709 ] final   63.32 input   66.30 | X-H torsion
[ 10763 10752 10751 10750 ] final -167.54 input  -60.55 | X-H torsion
[ 11005 11000 10999 10996 ] final  165.60 input  -57.11 | X-H torsion

> <Gold.Protein.ActiveResidues>
 VAL166  LYS551  ARG553  GLY616  TRP617  ASP618  TYR619  PRO620  LYS621  CYS622 
 ASP623  PHE694  ASN695  SER759  ASP760  ASP761  ALA762  ILE779  LEU786  VAL792 
 PHE793  MET794  SER795  GLU796  ALA797  LYS798  CYS799  TRP800  GLU811  SER814 

> <Gold.Protein.RotatedAtoms>
  150.6900  134.2183  159.4386 H   0  0  0  0  0  0  0  0  0  0  0  0  # atno 6907 bound_to 6896
  152.0141  134.9857  160.0578 H   0  0  0  0  0  0  0  0  0  0  0  0  # atno 6908 bound_to 6896
  152.1460  133.4458  159.4827 H   0  0  0  0  0  0  0  0  0  0  0  0  # atno 6909 bound_to 6896
  144.7727  140.4491  143.5895 H   0  0  0  0  0  0  0  0  0  0  0  0  # atno 7974 bound_to 7965
  156.1402  140.1548  156.8933 H   0  0  0  0  0  0  0  0  0  0  0  0  # atno 8008 bound_to 7997
  154.4981  140.0833  156.7778 H   0  0  0  0  0  0  0  0  0  0  0  0  # atno 8009 bound_to 7997
  155.4093  140.3418  155.4265 H   0  0  0  0  0  0  0  0  0  0  0  0  # atno 8010 bound_to 7997
  140.2591  143.3420  152.0643 H   0  0  0  0  0  0  0  0  0  0  0  0  # atno 10167 bound_to 10162
  157.5963  130.9099  149.9700 H   0  0  0  0  0  0  0  0  0  0  0  0  # atno 10718 bound_to 10713
  154.6721  135.2941  154.9728 H   0  0  0  0  0  0  0  0  0  0  0  0  # atno 10763 bound_to 10752
  154.0751  135.6612  153.4834 H   0  0  0  0  0  0  0  0  0  0  0  0  # atno 10764 bound_to 10752
  153.0493  135.5184  154.7722 H   0  0  0  0  0  0  0  0  0  0  0  0  # atno 10765 bound_to 10752
  140.2578  134.7926  157.3562 H   0  0  0  0  0  0  0  0  0  0  0  0  # atno 11005 bound_to 11000
  145.6275  139.1532  143.2988 LP  0  0  0  0  0  0  0  0  0  0  0  0  # atno 17320 bound_to 7965
  146.1886  140.6381  142.9156 LP  0  0  0  0  0  0  0  0  0  0  0  0  # atno 17321 bound_to 7965
  139.5022  144.6730  151.6196 LP  0  0  0  0  0  0  0  0  0  0  0  0  # atno 17342 bound_to 10162
  140.5980  143.9660  150.6367 LP  0  0  0  0  0  0  0  0  0  0  0  0  # atno 17343 bound_to 10162
  156.1026  130.3655  150.0191 LP  0  0  0  0  0  0  0  0  0  0  0  0  # atno 17370 bound_to 10713
  156.8303  130.9390  151.3637 LP  0  0  0  0  0  0  0  0  0  0  0  0  # atno 17371 bound_to 10713
  140.1494  134.4869  155.7972 LP  0  0  0  0  0  0  0  0  0  0  0  0  # atno 17394 bound_to 11000
  141.2194  133.6856  156.7352 LP  0  0  0  0  0  0  0  0  0  0  0  0  # atno 17395 bound_to 11000

$$$$
