AV-unprocessed.smi:694|AV-procd|sdf|3382|dock2
  -GOLD-   22720 0363D 1   1.00000     0.00000
 Structure written by MMmdl.
 42 43  0  0  0  0  0  0  0  0  1 V2000
  149.4320  142.0247  158.2167 C   0  0  0  0  0  0  0  0  0  0  0  0
  150.0275  141.7690  156.9090 N   0  0  0  0  0  0  0  0  0  0  0  0
  151.2176  142.5022  156.4955 C   0  0  0  0  0  0  0  0  0  0  0  0
  149.4377  140.8208  156.0421 C   0  0  0  0  0  0  0  0  0  0  0  0
  148.1472  140.2916  156.2909 C   0  0  0  0  0  0  0  0  0  0  0  0
  147.6077  139.3470  155.3970 C   0  0  0  0  0  0  0  0  0  0  0  0
  148.3606  138.9440  154.2775 C   0  0  0  0  0  0  0  0  0  0  0  0
  147.7757  138.0019  153.3872 N   0  0  0  0  0  0  0  0  0  0  0  0
  146.4837  137.6539  153.2556 C   0  0  0  0  0  0  0  0  0  0  0  0
  145.5438  138.1462  153.8788 O   0  0  0  0  0  0  0  0  0  0  0  0
  146.3321  136.6970  152.3292 N   0  0  0  0  0  0  0  0  0  0  0  0
  145.0576  136.0970  151.9465 C   0  0  0  0  0  0  0  0  0  0  0  0
  145.1497  134.5622  151.8053 C   0  0  2  0  0  0  0  0  0  0  0  0
  146.4662  134.0640  151.1982 C   0  0  0  0  0  0  0  0  0  0  0  0
  146.1658  132.6624  150.6455 C   0  0  0  0  0  0  0  0  0  0  0  0
  144.6383  132.4942  150.6798 C   0  0  0  0  0  0  0  0  0  0  0  0
  144.0643  133.8891  150.9499 C   0  0  2  0  0  0  0  0  0  0  0  0
  143.8863  134.5592  149.7154 O   0  0  0  0  0  0  0  0  0  0  0  0
  149.6347  139.5339  154.1024 C   0  0  0  0  0  0  0  0  0  0  0  0
  150.1556  140.4384  154.9580 N   0  0  0  0  0  0  0  0  0  0  0  0
  149.4189  141.1140  158.8164 H   0  0  0  0  0  0  0  0  0  0  0  0
  148.4072  142.3817  158.1067 H   0  0  0  0  0  0  0  0  0  0  0  0
  149.9905  142.7803  158.7693 H   0  0  0  0  0  0  0  0  0  0  0  0
  151.0125  143.0952  155.6037 H   0  0  0  0  0  0  0  0  0  0  0  0
  152.0356  141.8147  156.2786 H   0  0  0  0  0  0  0  0  0  0  0  0
  151.5558  143.1831  157.2765 H   0  0  0  0  0  0  0  0  0  0  0  0
  147.5613  140.5900  157.1470 H   0  0  0  0  0  0  0  0  0  0  0  0
  146.6247  138.9363  155.5746 H   0  0  0  0  0  0  0  0  0  0  0  0
  148.4197  137.5564  152.7504 H   0  0  0  0  0  0  0  0  0  0  0  0
  147.1574  136.3507  151.8622 H   0  0  0  0  0  0  0  0  0  0  0  0
  144.3164  136.3670  152.6989 H   0  0  0  0  0  0  0  0  0  0  0  0
  144.7112  136.5382  151.0104 H   0  0  0  0  0  0  0  0  0  0  0  0
  145.0816  134.1276  152.8042 H   0  0  0  0  0  0  0  0  0  0  0  0
  146.7717  134.7179  150.3804 H   0  0  0  0  0  0  0  0  0  0  0  0
  147.2760  134.0556  151.9285 H   0  0  0  0  0  0  0  0  0  0  0  0
  146.5464  132.5686  149.6279 H   0  0  0  0  0  0  0  0  0  0  0  0
  146.6486  131.8899  151.2450 H   0  0  0  0  0  0  0  0  0  0  0  0
  144.2448  132.0388  149.7701 H   0  0  0  0  0  0  0  0  0  0  0  0
  144.3735  131.8345  151.5072 H   0  0  0  0  0  0  0  0  0  0  0  0
  143.1054  133.8404  151.4672 H   0  0  0  0  0  0  0  0  0  0  0  0
  142.9647  134.5662  149.5080 H   0  0  0  0  0  0  0  0  0  0  0  0
  150.2645  139.3079  153.2569 H   0  0  0  0  0  0  0  0  0  0  0  0
  1  2  1  0  0  0  0
  1 21  1  0  0  0  0
  1 22  1  0  0  0  0
  1 23  1  0  0  0  0
  2  3  1  0  0  0  0
  2  4  1  0  0  0  0
  3 24  1  0  0  0  0
  3 25  1  0  0  0  0
  3 26  1  0  0  0  0
  4 20  1  0  0  0  0
  4  5  2  0  0  0  0
  5  6  1  0  0  0  0
  5 27  1  0  0  0  0
  6  7  2  0  0  0  0
  6 28  1  0  0  0  0
  7  8  1  0  0  0  0
  7 19  1  0  0  0  0
  8  9  1  0  0  0  0
  8 29  1  0  0  0  0
  9 10  2  0  0  0  0
  9 11  1  0  0  0  0
 11 12  1  0  0  0  0
 11 30  1  0  0  0  0
 12 13  1  0  0  0  0
 12 31  1  0  0  0  0
 12 32  1  0  0  0  0
 13 17  1  0  0  0  0
 13 14  1  0  0  0  0
 13 33  1  0  0  0  0
 14 15  1  0  0  0  0
 14 34  1  0  0  0  0
 14 35  1  0  0  0  0
 15 16  1  0  0  0  0
 15 36  1  0  0  0  0
 15 37  1  0  0  0  0
 16 17  1  0  0  0  0
 16 38  1  0  0  0  0
 16 39  1  0  0  0  0
 17 18  1  0  0  0  0
 17 40  1  0  0  0  0
 18 41  1  0  0  0  0
 19 20  2  0  0  0  0
 19 42  1  0  0  0  0
M  END
> <s_m_source_file>
AV-unprocessed.smi

> <i_m_source_file_index>
694

> <i_lp_mmshare_version>
43012

> <i_f3d_flags>
0

> <s_epik_input>
W0NIM11OKFtDSDNdKWMxW2NIXVtjSF1jKFtjSF1uMSlbTkhdQyg9TylbTkhdW0NIMl1bQ0BASF0yW0NIMl1bQ0gyXVtDSDJdW0NASF0yW09IXQ==

> <s_epik_cmdline>
J2VwaWtfcHl0aG9uJywgJy1waCcsICc3LjAnLCAnLXRuJywgJzgnLCAnLW1hJywgJzIwMCcsICctbWV0YWxfYmluZGluZycsICctaW1hZScsICc8aW5maWxlLm1hZT4nLCAnLW9tYWUnLCAnPG91dGZpbGUubWFlPic=

> <r_lp_tautomer_probability>
1

> <r_epik_Ionization_Penalty>
0.60335

> <r_epik_Ionization_Penalty_Charging>
0

> <r_epik_Ionization_Penalty_Neutral>
0.60335

> <r_epik_State_Penalty>
0.616805

> <r_epik_Charging_Adjusted_Penalty>
0.616805

> <i_epik_Tot_Q>
0

> <i_epik_Tot_abs_Q>
0

> <r_epik_Metal_State_Penalty>
0.301709

> <b_epik_Metal_Only>
0

> <s_lp_Force_Field>
OPLS_2005

> <r_lp_Energy>
30.3621

> <b_lp_Chiralities_Consistent>
1

> <s_lp_Variant>
AV-unprocessed.smi:694-7

> <Gold.Version>
5.8.1

> <Gold.Id.Protein>
6NUR|6NUR_protein|mol2

> <Gold.PLP.Fitness>
40.7037

> <Gold.PLP.PLP>
-29.5144

> <Gold.PLP.part.hbond>
-5.0000

> <Gold.PLP.part.metal>
0.0000

> <Gold.PLP.part.buried>
-4.5764

> <Gold.PLP.part.nonpolar>
-20.1346

> <Gold.PLP.part.repulsive>
0.3219

> <Gold.PLP.ligand.clash>
0.0000

> <Gold.PLP.ligand.torsion>
0.4697

> <Gold.PLP.Chemscore.Hbond>
3.2801

> <Gold.PLP.Chemscore.CHOScore>
0.7577

> <Gold.PLP.Chemscore.Metal>
0.0000

> <Gold.Chemscore.Hbonds>
donor molecule, donor type, donor heavy atom, donor atom, acceptor molecule, acceptor atom, score
      L1  H     8    29       P1  7948  1.00
      L1  H    11    30       P1  7948  0.98
      L1  H    18    41       P1 10186  1.00
      P1  H  7989  7998       L1    20  0.31
      L1  C    19    42       P1  7957  0.79

> <Gold.PLP.Chemscore.Internal.Correction>
0.0154

> <Gold.Rescore>
     Score         DG    S(hbond)    S(metal)    S(lipo)     H(rot)  DE(clash)    DE(int)     intcor
     16.05     -17.95       2.84        0.00      63.16       1.73       0.12       1.78       ----

> <Gold.Chemscore.Fitness>
16.0452

> <Gold.Chemscore.DG>
-17.9503

> <Gold.Chemscore.ZeroCoef>
-5.4800

> <Gold.Chemscore.Hbond>
2.8439

> <Gold.Chemscore.Metal>
0.0000

> <Gold.Chemscore.Lipo>
63.1621

> <Gold.Chemscore.Internal_Hbond>
0.0000

> <Gold.Chemscore.DEClash>
0.1236

> <Gold.Chemscore.DEInternal>
1.7816

> <Gold.Chemscore.Rot>
1.7259

> <Gold.Chemscore.Internal.Correction>
   9.000000E+99

> <Gold.Chemscore.Hbonds>
donor molecule, donor type, donor heavy atom, donor atom, acceptor molecule, acceptor atom, score
      L1  H     8    29       P1  7948  0.97
      L1  H    11    30       P1  7948  0.93
      L1  H    18    41       P1 10186  0.96
      P1  H  7989  7998       L1    20  0.01

> <Gold.Chemscore.Hbond.Weighted>
-9.4988

> <Gold.Chemscore.Metal.Weighted>
-0.0000

> <Gold.Chemscore.Lipo.Weighted>
-7.3900

> <Gold.Chemscore.Internal_Hbond.Weighted>
0.0000

> <Gold.Chemscore.DEClash.Weighted>
0.1236

> <Gold.Chemscore.DEInternal.Weighted>
1.7816

> <Gold.Chemscore.Rot.Weighted>
4.4184

> <Gold.Chemscore.Internal.Correction.Weighted>
   9.000000E+99

> <Gold.Protein.RotatedTorsions>
[ 6907 6896 6895 6894 ] final  134.36 input  -60.11 | X-H torsion
[ 7974 7965 7964 7962 ] final  159.56 input  175.53 | X-H torsion
[ 8008 7997 7996 7995 ] final  -20.73 input   59.86 | X-H torsion
[ 10167 10162 10161 10158 ] final  132.67 input  -65.29 | X-H torsion
[ 10718 10713 10712 10709 ] final   71.43 input   66.30 | X-H torsion
[ 10763 10752 10751 10750 ] final  165.15 input  -60.55 | X-H torsion
[ 11005 11000 10999 10996 ] final   84.58 input  -57.11 | X-H torsion

> <Gold.Protein.ActiveResidues>
 VAL166  LYS551  ARG553  GLY616  TRP617  ASP618  TYR619  PRO620  LYS621  CYS622 
 ASP623  PHE694  ASN695  SER759  ASP760  ASP761  ALA762  ILE779  LEU786  VAL792 
 PHE793  MET794  SER795  GLU796  ALA797  LYS798  CYS799  TRP800  GLU811  SER814 

> <Gold.Protein.RotatedAtoms>
  152.3121  133.5764  159.5687 H   0  0  0  0  0  0  0  0  0  0  0  0  # atno 6907 bound_to 6896
  150.7328  134.0136  159.3687 H   0  0  0  0  0  0  0  0  0  0  0  0  # atno 6908 bound_to 6896
  151.8028  135.0704  160.0453 H   0  0  0  0  0  0  0  0  0  0  0  0  # atno 6909 bound_to 6896
  144.7784  139.7634  143.6270 H   0  0  0  0  0  0  0  0  0  0  0  0  # atno 7974 bound_to 7965
  154.4751  140.2054  155.9899 H   0  0  0  0  0  0  0  0  0  0  0  0  # atno 8008 bound_to 7997
  156.1075  140.3234  155.7997 H   0  0  0  0  0  0  0  0  0  0  0  0  # atno 8009 bound_to 7997
  155.4692  140.0530  157.2972 H   0  0  0  0  0  0  0  0  0  0  0  0  # atno 8010 bound_to 7997
  139.5329  144.6651  151.4885 H   0  0  0  0  0  0  0  0  0  0  0  0  # atno 10167 bound_to 10162
  157.6451  130.9528  150.0788 H   0  0  0  0  0  0  0  0  0  0  0  0  # atno 10718 bound_to 10713
  154.3196  135.2756  155.2526 H   0  0  0  0  0  0  0  0  0  0  0  0  # atno 10763 bound_to 10752
  154.4885  135.5840  153.6445 H   0  0  0  0  0  0  0  0  0  0  0  0  # atno 10764 bound_to 10752
  152.9878  135.6129  154.3380 H   0  0  0  0  0  0  0  0  0  0  0  0  # atno 10765 bound_to 10752
  139.8996  134.8227  156.2465 H   0  0  0  0  0  0  0  0  0  0  0  0  # atno 11005 bound_to 11000
  146.1977  139.5253  142.9764 LP  0  0  0  0  0  0  0  0  0  0  0  0  # atno 17320 bound_to 7965
  145.6121  141.0338  143.1961 LP  0  0  0  0  0  0  0  0  0  0  0  0  # atno 17321 bound_to 7965
  140.6519  143.8679  150.6794 LP  0  0  0  0  0  0  0  0  0  0  0  0  # atno 17342 bound_to 10162
  140.2046  143.3932  152.1765 LP  0  0  0  0  0  0  0  0  0  0  0  0  # atno 17343 bound_to 10162
  156.1771  130.3648  149.9086 LP  0  0  0  0  0  0  0  0  0  0  0  0  # atno 17370 bound_to 10713
  156.7047  130.8947  151.3603 LP  0  0  0  0  0  0  0  0  0  0  0  0  # atno 17371 bound_to 10713
  141.0251  133.7019  156.1334 LP  0  0  0  0  0  0  0  0  0  0  0  0  # atno 17394 bound_to 11000
  140.7177  134.4392  157.5577 LP  0  0  0  0  0  0  0  0  0  0  0  0  # atno 17395 bound_to 11000

$$$$
