AV-unprocessed.smi:76|AV-procd|sdf|769|dock3
  -GOLD-   2262017113D 1   1.00000     0.00000
 Structure written by MMmdl.
 55 58  0  0  0  0  0  0  0  0  1 V2000
  143.4160  136.5294  152.6625 C   0  0  0  0  0  0  0  0  0  0  0  0
  144.6262  135.6140  152.3808 C   0  0  2  0  0  0  0  0  0  0  0  0
  144.2061  134.4753  151.4271 C   0  0  0  0  0  0  0  0  0  0  0  0
  145.3678  133.5065  151.1299 C   0  0  2  0  0  0  0  0  0  0  0  0
  144.9483  132.3648  150.1820 C   0  0  0  0  0  0  0  0  0  0  0  0
  144.4426  132.8499  149.0476 F   0  0  0  0  0  0  0  0  0  0  0  0
  146.0025  131.6022  149.8926 F   0  0  0  0  0  0  0  0  0  0  0  0
  144.0296  131.5990  150.7706 F   0  0  0  0  0  0  0  0  0  0  0  0
  145.9342  132.9805  152.4617 C   0  0  0  0  0  0  0  0  0  0  0  0
  146.3401  134.1416  153.3797 C   0  0  0  0  0  0  0  0  0  0  0  0
  145.2194  135.0540  153.6034 N   0  0  0  0  0  0  0  0  0  0  0  0
  145.4987  135.9552  154.5722 C   0  0  0  0  0  0  0  0  0  0  0  0
  144.9282  135.8343  155.8003 N   0  0  0  0  0  0  0  0  0  0  0  0
  145.2190  136.7199  156.7583 C   0  0  0  0  0  0  0  0  0  0  0  0
  146.0358  137.7747  156.7009 N   0  0  0  0  0  0  0  0  0  0  0  0
  146.6070  137.8950  155.4675 C   0  0  0  0  0  0  0  0  0  0  0  0
  146.3951  137.0336  154.3561 C   0  0  0  0  0  0  0  0  0  0  0  0
  147.1510  137.4564  153.2711 N   0  0  0  0  0  0  0  0  0  0  0  0
  147.7785  138.5104  153.7174 C   0  0  0  0  0  0  0  0  0  0  0  0
  147.4991  138.8556  155.0215 N   0  0  0  0  0  0  0  0  0  0  0  0
  148.0604  139.9720  155.7693 C   0  0  0  0  0  0  0  0  0  0  0  0
  149.3161  140.6387  155.1239 C   0  0  0  0  0  0  0  0  0  0  0  0
  148.8649  141.4332  153.8666 C   0  0  0  0  0  0  0  0  0  0  0  0
  148.0242  142.5303  154.1658 O   0  0  0  0  0  0  0  0  0  0  0  0
  149.9636  141.5954  156.1583 C   0  0  0  0  0  0  0  0  0  0  0  0
  150.6603  140.8440  157.3091 C   0  0  0  0  0  0  0  0  0  0  0  0
  151.6195  139.9306  156.7901 O   0  0  0  0  0  0  0  0  0  0  0  0
  151.0462  138.9331  155.9536 C   0  0  0  0  0  0  0  0  0  0  0  0
  150.3901  139.5924  154.7273 C   0  0  0  0  0  0  0  0  0  0  0  0
  142.9714  136.8834  151.7322 H   0  0  0  0  0  0  0  0  0  0  0  0
  143.6960  137.4139  153.2351 H   0  0  0  0  0  0  0  0  0  0  0  0
  142.6413  136.0016  153.2200 H   0  0  0  0  0  0  0  0  0  0  0  0
  145.3927  136.2086  151.8812 H   0  0  0  0  0  0  0  0  0  0  0  0
  143.3743  133.9225  151.8660 H   0  0  0  0  0  0  0  0  0  0  0  0
  143.8329  134.9001  150.4948 H   0  0  0  0  0  0  0  0  0  0  0  0
  146.1558  134.0742  150.6325 H   0  0  0  0  0  0  0  0  0  0  0  0
  145.1909  132.3615  152.9654 H   0  0  0  0  0  0  0  0  0  0  0  0
  146.7983  132.3412  152.2799 H   0  0  0  0  0  0  0  0  0  0  0  0
  146.6930  133.7473  154.3340 H   0  0  0  0  0  0  0  0  0  0  0  0
  147.1731  134.6871  152.9330 H   0  0  0  0  0  0  0  0  0  0  0  0
  144.7281  136.5597  157.7070 H   0  0  0  0  0  0  0  0  0  0  0  0
  148.4647  139.0721  153.1004 H   0  0  0  0  0  0  0  0  0  0  0  0
  147.2729  140.7166  155.8932 H   0  0  0  0  0  0  0  0  0  0  0  0
  148.2717  139.6106  156.7744 H   0  0  0  0  0  0  0  0  0  0  0  0
  149.7262  141.8274  153.3274 H   0  0  0  0  0  0  0  0  0  0  0  0
  148.3313  140.7790  153.1763 H   0  0  0  0  0  0  0  0  0  0  0  0
  148.4779  143.1012  154.7668 H   0  0  0  0  0  0  0  0  0  0  0  0
  150.7172  142.2183  155.6760 H   0  0  0  0  0  0  0  0  0  0  0  0
  149.2189  142.2839  156.5592 H   0  0  0  0  0  0  0  0  0  0  0  0
  151.1762  141.5563  157.9532 H   0  0  0  0  0  0  0  0  0  0  0  0
  149.9452  140.3197  157.9431 H   0  0  0  0  0  0  0  0  0  0  0  0
  151.8380  138.2575  155.6299 H   0  0  0  0  0  0  0  0  0  0  0  0
  150.3344  138.3297  156.5172 H   0  0  0  0  0  0  0  0  0  0  0  0
  149.9771  138.8332  154.0644 H   0  0  0  0  0  0  0  0  0  0  0  0
  151.1828  140.0752  154.1550 H   0  0  0  0  0  0  0  0  0  0  0  0
  1  2  1  0  0  0  0
  1 30  1  0  0  0  0
  1 31  1  0  0  0  0
  1 32  1  0  0  0  0
  2 11  1  0  0  0  0
  2  3  1  0  0  0  0
  2 33  1  0  0  0  0
  3  4  1  0  0  0  0
  3 34  1  0  0  0  0
  3 35  1  0  0  0  0
  4  5  1  0  0  0  0
  4  9  1  0  0  0  0
  4 36  1  0  0  0  0
  5  6  1  0  0  0  0
  5  7  1  0  0  0  0
  5  8  1  0  0  0  0
  9 10  1  0  0  0  0
  9 37  1  0  0  0  0
  9 38  1  0  0  0  0
 10 11  1  0  0  0  0
 10 39  1  0  0  0  0
 10 40  1  0  0  0  0
 11 12  1  0  0  0  0
 12 17  1  0  0  0  0
 12 13  2  0  0  0  0
 13 14  1  0  0  0  0
 14 15  2  0  0  0  0
 14 41  1  0  0  0  0
 15 16  1  0  0  0  0
 16 20  1  0  0  0  0
 16 17  2  0  0  0  0
 17 18  1  0  0  0  0
 18 19  2  0  0  0  0
 19 20  1  0  0  0  0
 19 42  1  0  0  0  0
 20 21  1  0  0  0  0
 21 22  1  0  0  0  0
 21 43  1  0  0  0  0
 21 44  1  0  0  0  0
 22 29  1  0  0  0  0
 22 23  1  0  0  0  0
 22 25  1  0  0  0  0
 23 24  1  0  0  0  0
 23 45  1  0  0  0  0
 23 46  1  0  0  0  0
 24 47  1  0  0  0  0
 25 26  1  0  0  0  0
 25 48  1  0  0  0  0
 25 49  1  0  0  0  0
 26 27  1  0  0  0  0
 26 50  1  0  0  0  0
 26 51  1  0  0  0  0
 27 28  1  0  0  0  0
 28 29  1  0  0  0  0
 28 52  1  0  0  0  0
 28 53  1  0  0  0  0
 29 54  1  0  0  0  0
 29 55  1  0  0  0  0
M  END
> <s_m_source_file>
AV-unprocessed.smi

> <i_m_source_file_index>
76

> <i_lp_mmshare_version>
43012

> <i_f3d_flags>
0

> <s_epik_input>
W0NIM11bQ0BASF0xW0NIMl1bQ0BASF0oQyhGKShGKUYpW0NIMl1bQ0gyXU4xYyhuW2NIXW4yKWMoYzIzKW5bY0hdbjNbQ0gyXUM0KFtDSDJdW09IXSlbQ0gyXVtDSDJdT1tDSDJdW0NIMl00

> <s_epik_cmdline>
J2VwaWtfcHl0aG9uJywgJy1waCcsICc3LjAnLCAnLXRuJywgJzgnLCAnLW1hJywgJzIwMCcsICctbWV0YWxfYmluZGluZycsICctaW1hZScsICc8aW5maWxlLm1hZT4nLCAnLW9tYWUnLCAnPG91dGZpbGUubWFlPic=

> <r_lp_tautomer_probability>
1

> <r_epik_Ionization_Penalty>
0.00244097

> <r_epik_Ionization_Penalty_Charging>
0

> <r_epik_Ionization_Penalty_Neutral>
0.00244097

> <r_epik_State_Penalty>
0.00151846

> <r_epik_Charging_Adjusted_Penalty>
0.00151846

> <i_epik_Tot_Q>
0

> <i_epik_Tot_abs_Q>
0

> <r_epik_Metal_State_Penalty>
-0

> <b_epik_Metal_Only>
0

> <s_lp_Force_Field>
OPLS_2005

> <r_lp_Energy>
38.0325

> <b_lp_Chiralities_Consistent>
1

> <s_lp_Variant>
AV-unprocessed.smi:76-3

> <Gold.Version>
5.8.1

> <Gold.Id.Protein>
6NUR|6NUR_protein|mol2

> <Gold.PLP.Fitness>
42.7937

> <Gold.PLP.PLP>
-37.5579

> <Gold.PLP.part.hbond>
-1.0000

> <Gold.PLP.part.metal>
0.0000

> <Gold.PLP.part.buried>
-2.9053

> <Gold.PLP.part.nonpolar>
-35.6919

> <Gold.PLP.part.repulsive>
2.7850

> <Gold.PLP.ligand.clash>
0.0000

> <Gold.PLP.ligand.torsion>
0.4943

> <Gold.PLP.Chemscore.Hbond>
1.0000

> <Gold.PLP.Chemscore.CHOScore>
0.9991

> <Gold.PLP.Chemscore.Metal>
0.0000

> <Gold.Chemscore.Hbonds>
donor molecule, donor type, donor heavy atom, donor atom, acceptor molecule, acceptor atom, score
      L1  H    24    47       P1  8028  1.00
      L1  C    19    42       P1  7957  1.00

> <Gold.PLP.Chemscore.Internal.Correction>
0.2272

> <Gold.Rescore>
     Score         DG    S(hbond)    S(metal)    S(lipo)     H(rot)  DE(clash)    DE(int)     intcor
      8.83     -11.07       0.98        0.00      73.65       2.47       1.64       0.60       ----

> <Gold.Chemscore.Fitness>
8.8326

> <Gold.Chemscore.DG>
-11.0711

> <Gold.Chemscore.ZeroCoef>
-5.4800

> <Gold.Chemscore.Hbond>
0.9846

> <Gold.Chemscore.Metal>
0.0000

> <Gold.Chemscore.Lipo>
73.6472

> <Gold.Chemscore.Internal_Hbond>
0.0000

> <Gold.Chemscore.DEClash>
1.6382

> <Gold.Chemscore.DEInternal>
0.6003

> <Gold.Chemscore.Rot>
2.4665

> <Gold.Chemscore.Internal.Correction>
   9.000000E+99

> <Gold.Chemscore.Hbonds>
donor molecule, donor type, donor heavy atom, donor atom, acceptor molecule, acceptor atom, score
      L1  H    24    47       P1  8028  0.98

> <Gold.Chemscore.Hbond.Weighted>
-3.2885

> <Gold.Chemscore.Metal.Weighted>
-0.0000

> <Gold.Chemscore.Lipo.Weighted>
-8.6167

> <Gold.Chemscore.Internal_Hbond.Weighted>
0.0000

> <Gold.Chemscore.DEClash.Weighted>
1.6382

> <Gold.Chemscore.DEInternal.Weighted>
0.6003

> <Gold.Chemscore.Rot.Weighted>
6.3142

> <Gold.Chemscore.Internal.Correction.Weighted>
   9.000000E+99

> <Gold.Protein.RotatedTorsions>
[ 6907 6896 6895 6894 ] final   77.73 input  -60.11 | X-H torsion
[ 7974 7965 7964 7962 ] final -127.39 input  175.53 | X-H torsion
[ 8008 7997 7996 7995 ] final  -20.05 input   59.86 | X-H torsion
[ 10167 10162 10161 10158 ] final   95.92 input  -65.29 | X-H torsion
[ 10718 10713 10712 10709 ] final  -52.69 input   66.30 | X-H torsion
[ 10763 10752 10751 10750 ] final -149.72 input  -60.55 | X-H torsion
[ 11005 11000 10999 10996 ] final -142.99 input  -57.11 | X-H torsion

> <Gold.Protein.ActiveResidues>
 VAL166  LYS551  ARG553  GLY616  TRP617  ASP618  TYR619  PRO620  LYS621  CYS622 
 ASP623  PHE694  ASN695  SER759  ASP760  ASP761  ALA762  ILE779  LEU786  VAL792 
 PHE793  MET794  SER795  GLU796  ALA797  LYS798  CYS799  TRP800  GLU811  SER814 

> <Gold.Protein.RotatedAtoms>
  152.5130  134.3772  159.9338 H   0  0  0  0  0  0  0  0  0  0  0  0  # atno 6907 bound_to 6896
  151.3728  133.3842  159.2709 H   0  0  0  0  0  0  0  0  0  0  0  0  # atno 6908 bound_to 6896
  150.9564  134.8978  159.7762 H   0  0  0  0  0  0  0  0  0  0  0  0  # atno 6909 bound_to 6896
  144.9776  140.7608  143.4632 H   0  0  0  0  0  0  0  0  0  0  0  0  # atno 7974 bound_to 7965
  154.4795  140.2072  155.9797 H   0  0  0  0  0  0  0  0  0  0  0  0  # atno 8008 bound_to 7997
  156.1143  140.3224  155.8086 H   0  0  0  0  0  0  0  0  0  0  0  0  # atno 8009 bound_to 7997
  155.4580  140.0522  157.2985 H   0  0  0  0  0  0  0  0  0  0  0  0  # atno 8010 bound_to 7997
  139.7943  144.6840  150.9850 H   0  0  0  0  0  0  0  0  0  0  0  0  # atno 10167 bound_to 10162
  156.1599  130.4150  149.9809 H   0  0  0  0  0  0  0  0  0  0  0  0  # atno 10718 bound_to 10713
  154.8161  135.3302  154.7172 H   0  0  0  0  0  0  0  0  0  0  0  0  # atno 10763 bound_to 10752
  153.7812  135.6918  153.4892 H   0  0  0  0  0  0  0  0  0  0  0  0  # atno 10764 bound_to 10752
  153.1979  135.4527  155.0178 H   0  0  0  0  0  0  0  0  0  0  0  0  # atno 10765 bound_to 10752
  140.8169  134.2677  157.4917 H   0  0  0  0  0  0  0  0  0  0  0  0  # atno 11005 bound_to 11000
  145.2468  139.2049  143.4964 LP  0  0  0  0  0  0  0  0  0  0  0  0  # atno 17320 bound_to 7965
  146.3399  140.2373  142.8595 LP  0  0  0  0  0  0  0  0  0  0  0  0  # atno 17321 bound_to 7965
  140.7820  143.4348  151.0640 LP  0  0  0  0  0  0  0  0  0  0  0  0  # atno 17342 bound_to 10162
  139.8023  143.8066  152.3164 LP  0  0  0  0  0  0  0  0  0  0  0  0  # atno 17343 bound_to 10162
  156.7642  130.9162  151.3642 LP  0  0  0  0  0  0  0  0  0  0  0  0  # atno 17370 bound_to 10713
  157.6724  130.9063  150.0072 LP  0  0  0  0  0  0  0  0  0  0  0  0  # atno 17371 bound_to 10713
  139.8710  134.9514  156.4084 LP  0  0  0  0  0  0  0  0  0  0  0  0  # atno 17394 bound_to 11000
  140.9139  133.7692  155.9825 LP  0  0  0  0  0  0  0  0  0  0  0  0  # atno 17395 bound_to 11000

$$$$
