AV-unprocessed.smi:3023|AV-procd|sdf|11501|dock2
  -GOLD-   2272016433D 1   1.00000     0.00000
 Structure written by MMmdl.
 43 44  0  0  0  0  0  0  0  0  2 V2000
  144.1558  139.6514  155.6104 C   0  0  0  0  0  0  0  0  0  0  0  0
  145.3422  140.1720  154.8938 N   0  3  2  0  0  0  0  0  0  0  0  0
  146.2939  139.0852  154.5343 C   0  0  0  0  0  0  0  0  0  0  0  0
  146.9667  139.2956  153.1594 C   0  0  0  0  0  0  0  0  0  0  0  0
  147.5225  140.7093  152.8926 C   0  0  0  0  0  0  0  0  0  0  0  0
  147.9671  141.3625  154.1331 N   0  0  0  0  0  0  0  0  0  0  0  0
  149.1607  141.1532  154.7444 C   0  0  0  0  0  0  0  0  0  0  0  0
  149.9333  140.2516  154.4166 O   0  0  0  0  0  0  0  0  0  0  0  0
  149.4333  142.0045  155.7485 N   0  0  0  0  0  0  0  0  0  0  0  0
  150.6512  141.9938  156.5503 C   0  0  0  0  0  0  0  0  0  0  0  0
  151.2106  143.4107  156.7542 C   0  0  0  0  0  0  0  0  0  0  0  0
  151.6253  143.6348  158.1808 C   0  0  0  0  0  0  0  0  0  0  0  0
  151.7841  144.8778  158.8573 C   0  0  0  0  0  0  0  0  0  0  0  0
  152.1561  144.7332  160.1187 N   0  0  0  0  0  0  0  0  0  0  0  0
  152.2496  143.3986  160.2903 N   0  0  0  0  0  0  0  0  0  0  0  0
  152.6402  142.8704  161.5798 C   0  0  0  0  0  0  0  0  0  0  0  0
  151.9344  142.7104  159.1384 C   0  0  0  0  0  0  0  0  0  0  0  0
  146.9131  142.1622  154.7707 C   0  0  0  0  0  0  0  0  0  0  0  0
  145.9782  141.2957  155.6390 C   0  0  0  0  0  0  0  0  0  0  0  0
  144.4400  139.2088  156.5662 H   0  0  0  0  0  0  0  0  0  0  0  0
  143.6471  138.8910  155.0167 H   0  0  0  0  0  0  0  0  0  0  0  0
  143.4366  140.4485  155.8024 H   0  0  0  0  0  0  0  0  0  0  0  0
  147.0439  138.9724  155.3187 H   0  0  0  0  0  0  0  0  0  0  0  0
  145.7726  138.1275  154.4961 H   0  0  0  0  0  0  0  0  0  0  0  0
  147.7782  138.5729  153.0691 H   0  0  0  0  0  0  0  0  0  0  0  0
  146.2617  139.0446  152.3661 H   0  0  0  0  0  0  0  0  0  0  0  0
  148.3161  140.6737  152.1447 H   0  0  0  0  0  0  0  0  0  0  0  0
  146.7402  141.3038  152.4196 H   0  0  0  0  0  0  0  0  0  0  0  0
  148.7487  142.7130  155.9689 H   0  0  0  0  0  0  0  0  0  0  0  0
  150.4597  141.5152  157.5124 H   0  0  0  0  0  0  0  0  0  0  0  0
  151.3878  141.3745  156.0375 H   0  0  0  0  0  0  0  0  0  0  0  0
  152.0556  143.5655  156.0820 H   0  0  0  0  0  0  0  0  0  0  0  0
  150.4610  144.1465  156.4606 H   0  0  0  0  0  0  0  0  0  0  0  0
  151.6391  145.8755  158.4700 H   0  0  0  0  0  0  0  0  0  0  0  0
  152.8778  141.8098  161.4926 H   0  0  0  0  0  0  0  0  0  0  0  0
  151.8225  142.9945  162.2902 H   0  0  0  0  0  0  0  0  0  0  0  0
  153.5193  143.4001  161.9487 H   0  0  0  0  0  0  0  0  0  0  0  0
  151.9539  141.6313  159.0958 H   0  0  0  0  0  0  0  0  0  0  0  0
  147.3456  142.9558  155.3824 H   0  0  0  0  0  0  0  0  0  0  0  0
  146.3264  142.6901  154.0180 H   0  0  0  0  0  0  0  0  0  0  0  0
  145.2000  141.9484  156.0369 H   0  0  0  0  0  0  0  0  0  0  0  0
  146.5153  140.9059  156.5054 H   0  0  0  0  0  0  0  0  0  0  0  0
  144.9899  140.5520  154.0267 H   0  0  0  0  0  0  0  0  0  0  0  0
  1  2  1  0  0  0  0
  1 20  1  0  0  0  0
  1 21  1  0  0  0  0
  1 22  1  0  0  0  0
  2 19  1  0  0  0  0
  2  3  1  0  0  0  0
  2 43  1  0  0  0  0
  3  4  1  0  0  0  0
  3 23  1  0  0  0  0
  3 24  1  0  0  0  0
  4  5  1  0  0  0  0
  4 25  1  0  0  0  0
  4 26  1  0  0  0  0
  5  6  1  0  0  0  0
  5 27  1  0  0  0  0
  5 28  1  0  0  0  0
  6  7  1  0  0  0  0
  6 18  1  0  0  0  0
  7  8  2  0  0  0  0
  7  9  1  0  0  0  0
  9 10  1  0  0  0  0
  9 29  1  0  0  0  0
 10 11  1  0  0  0  0
 10 30  1  0  0  0  0
 10 31  1  0  0  0  0
 11 12  1  0  0  0  0
 11 32  1  0  0  0  0
 11 33  1  0  0  0  0
 12 17  2  0  0  0  0
 12 13  1  0  0  0  0
 13 14  2  0  0  0  0
 13 34  1  0  0  0  0
 14 15  1  0  0  0  0
 15 16  1  0  0  0  0
 15 17  1  0  0  0  0
 16 35  1  0  0  0  0
 16 36  1  0  0  0  0
 16 37  1  0  0  0  0
 17 38  1  0  0  0  0
 18 19  1  0  0  0  0
 18 39  1  0  0  0  0
 18 40  1  0  0  0  0
 19 41  1  0  0  0  0
 19 42  1  0  0  0  0
M  CHG  1   2   1
M  END
> <s_m_source_file>
AV-unprocessed.smi

> <i_m_source_file_index>
3023

> <i_lp_mmshare_version>
43012

> <i_f3d_flags>
0

> <s_epik_input>
W0NIM11OMVtDSDJdW0NIMl1bQ0gyXU4oW0NIMl1bQ0gyXTEpQyg9TylbTkhdW0NIMl1bQ0gyXWMyW2NIXW5uKFtDSDNdKVtjSF0y

> <s_epik_cmdline>
J2VwaWtfcHl0aG9uJywgJy1waCcsICc3LjAnLCAnLXRuJywgJzgnLCAnLW1hJywgJzIwMCcsICctbWV0YWxfYmluZGluZycsICctaW1hZScsICc8aW5maWxlLm1hZT4nLCAnLW9tYWUnLCAnPG91dGZpbGUubWFlPic=

> <r_lp_tautomer_probability>
1

> <r_epik_Ionization_Penalty>
0.00258886

> <r_epik_Ionization_Penalty_Charging>
0.00208099

> <r_epik_Ionization_Penalty_Neutral>
0.00050787

> <r_epik_State_Penalty>
-0

> <r_epik_Charging_Adjusted_Penalty>
0.00208099

> <i_epik_Tot_Q>
1

> <i_epik_Tot_abs_Q>
1

> <r_epik_Metal_State_Penalty>
-0

> <b_epik_Metal_Only>
0

> <s_lp_Force_Field>
OPLS_2005

> <r_lp_Energy>
38.3541

> <b_lp_Chiralities_Consistent>
1

> <s_lp_Variant>
AV-unprocessed.smi:3023-1

> <Gold.Version>
5.8.1

> <Gold.Id.Protein>
6NUR|6NUR_protein|mol2

> <Gold.PLP.Fitness>
46.9330

> <Gold.PLP.PLP>
-39.4193

> <Gold.PLP.part.hbond>
-3.0000

> <Gold.PLP.part.metal>
0.0000

> <Gold.PLP.part.buried>
-0.9094

> <Gold.PLP.part.nonpolar>
-36.4368

> <Gold.PLP.part.repulsive>
0.3149

> <Gold.PLP.ligand.clash>
1.5196

> <Gold.PLP.ligand.torsion>
0.8104

> <Gold.PLP.Chemscore.Hbond>
3.5360

> <Gold.PLP.Chemscore.CHOScore>
0.0000

> <Gold.PLP.Chemscore.Metal>
0.0000

> <Gold.Chemscore.Hbonds>
donor molecule, donor type, donor heavy atom, donor atom, acceptor molecule, acceptor atom, score
      L1  H     2    43       P1 10175  2.00
      L1  H     9    29       P1  8028  0.58
      P1  H  7989  7998       L1     8  0.94

> <Gold.PLP.Chemscore.Internal.Correction>
0.0462

> <Gold.Rescore>
     Score         DG    S(hbond)    S(metal)    S(lipo)     H(rot)  DE(clash)    DE(int)     intcor
     17.17     -20.13       2.18        0.00      93.27       1.39       2.21       0.74       ----

> <Gold.Chemscore.Fitness>
17.1742

> <Gold.Chemscore.DG>
-20.1290

> <Gold.Chemscore.ZeroCoef>
-5.4800

> <Gold.Chemscore.Hbond>
2.1846

> <Gold.Chemscore.Metal>
0.0000

> <Gold.Chemscore.Lipo>
93.2679

> <Gold.Chemscore.Internal_Hbond>
0.0000

> <Gold.Chemscore.DEClash>
2.2141

> <Gold.Chemscore.DEInternal>
0.7407

> <Gold.Chemscore.Rot>
1.3906

> <Gold.Chemscore.Internal.Correction>
   9.000000E+99

> <Gold.Chemscore.Hbonds>
donor molecule, donor type, donor heavy atom, donor atom, acceptor molecule, acceptor atom, score
      L1  H     2    43       P1 10175  0.89
      L1  H     9    29       P1  8028  0.52
      P1  H  7989  7998       L1     8  0.78

> <Gold.Chemscore.Hbond.Weighted>
-7.2965

> <Gold.Chemscore.Metal.Weighted>
-0.0000

> <Gold.Chemscore.Lipo.Weighted>
-10.9123

> <Gold.Chemscore.Internal_Hbond.Weighted>
0.0000

> <Gold.Chemscore.DEClash.Weighted>
2.2141

> <Gold.Chemscore.DEInternal.Weighted>
0.7407

> <Gold.Chemscore.Rot.Weighted>
3.5598

> <Gold.Chemscore.Internal.Correction.Weighted>
   9.000000E+99

> <Gold.Protein.RotatedTorsions>
[ 6907 6896 6895 6894 ] final -158.87 input  -60.11 | X-H torsion
[ 7974 7965 7964 7962 ] final -102.03 input  175.53 | X-H torsion
[ 8008 7997 7996 7995 ] final  151.11 input   59.86 | X-H torsion
[ 10167 10162 10161 10158 ] final  -66.11 input  -65.29 | X-H torsion
[ 10718 10713 10712 10709 ] final   92.09 input   66.30 | X-H torsion
[ 10763 10752 10751 10750 ] final  -89.80 input  -60.55 | X-H torsion
[ 11005 11000 10999 10996 ] final    4.60 input  -57.11 | X-H torsion

> <Gold.Protein.ActiveResidues>
 VAL166  LYS551  ARG553  GLY616  TRP617  ASP618  TYR619  PRO620  LYS621  CYS622 
 ASP623  PHE694  ASN695  SER759  ASP760  ASP761  ALA762  ILE779  LEU786  VAL792 
 PHE793  MET794  SER795  GLU796  ALA797  LYS798  CYS799  TRP800  GLU811  SER814 

> <Gold.Protein.RotatedAtoms>
  151.3249  133.4024  159.2657 H   0  0  0  0  0  0  0  0  0  0  0  0  # atno 6907 bound_to 6896
  151.0004  134.9318  159.7961 H   0  0  0  0  0  0  0  0  0  0  0  0  # atno 6908 bound_to 6896
  152.5273  134.3214  159.9202 H   0  0  0  0  0  0  0  0  0  0  0  0  # atno 6909 bound_to 6896
  145.2739  140.9307  143.2970 H   0  0  0  0  0  0  0  0  0  0  0  0  # atno 7974 bound_to 7965
  156.2687  140.2056  156.6124 H   0  0  0  0  0  0  0  0  0  0  0  0  # atno 8008 bound_to 7997
  154.6821  140.0539  157.0300 H   0  0  0  0  0  0  0  0  0  0  0  0  # atno 8009 bound_to 7997
  155.0986  140.3203  155.4556 H   0  0  0  0  0  0  0  0  0  0  0  0  # atno 8010 bound_to 7997
  140.5681  143.2316  151.6594 H   0  0  0  0  0  0  0  0  0  0  0  0  # atno 10167 bound_to 10162
  157.6959  131.0431  150.3829 H   0  0  0  0  0  0  0  0  0  0  0  0  # atno 10718 bound_to 10713
  154.6591  135.5328  153.7995 H   0  0  0  0  0  0  0  0  0  0  0  0  # atno 10763 bound_to 10752
  153.0431  135.6501  154.0900 H   0  0  0  0  0  0  0  0  0  0  0  0  # atno 10764 bound_to 10752
  154.0810  135.2947  155.3270 H   0  0  0  0  0  0  0  0  0  0  0  0  # atno 10765 bound_to 10752
  140.5801  134.0021  155.8044 H   0  0  0  0  0  0  0  0  0  0  0  0  # atno 11005 bound_to 11000
  144.9311  139.4298  143.6495 LP  0  0  0  0  0  0  0  0  0  0  0  0  # atno 17320 bound_to 7965
  146.3238  139.8222  142.8924 LP  0  0  0  0  0  0  0  0  0  0  0  0  # atno 17321 bound_to 7965
  139.5103  144.3547  152.0619 LP  0  0  0  0  0  0  0  0  0  0  0  0  # atno 17342 bound_to 10162
  140.2681  144.3994  150.6161 LP  0  0  0  0  0  0  0  0  0  0  0  0  # atno 17343 bound_to 10162
  156.4241  130.3959  149.6805 LP  0  0  0  0  0  0  0  0  0  0  0  0  # atno 17370 bound_to 10713
  156.4045  130.7691  151.2701 LP  0  0  0  0  0  0  0  0  0  0  0  0  # atno 17371 bound_to 10713
  141.1002  133.9780  157.3092 LP  0  0  0  0  0  0  0  0  0  0  0  0  # atno 17394 bound_to 11000
  139.9321  135.0199  156.8436 LP  0  0  0  0  0  0  0  0  0  0  0  0  # atno 17395 bound_to 11000

$$$$
