AV-unprocessed.smi:1432|AV-procd|sdf|5834|dock5
  -GOLD-   22720 5493D 1   1.00000     0.00000
 Structure written by MMmdl.
 47 48  0  0  0  0  0  0  0  0  2 V2000
  146.1553  130.1316  155.7691 C   0  0  0  0  0  0  0  0  0  0  0  0
  146.3698  131.2222  154.6984 C   0  0  1  0  0  0  0  0  0  0  0  0
  145.8775  130.6751  153.3379 C   0  0  0  0  0  0  0  0  0  0  0  0
  146.0215  131.6987  152.2080 C   0  0  0  0  0  0  0  0  0  0  0  0
  145.3072  132.9928  152.5988 C   0  0  0  0  0  0  0  0  0  0  0  0
  145.8569  133.5150  153.9319 C   0  0  0  0  0  0  0  0  0  0  0  0
  145.6861  132.5162  155.0244 N   0  3  2  0  0  0  0  0  0  0  0  0
  146.0373  133.1037  156.3508 C   0  0  0  0  0  0  0  0  0  0  0  0
  147.4688  133.6815  156.4044 C   0  0  0  0  0  0  0  0  0  0  0  0
  147.6973  134.4536  157.6234 N   0  0  0  0  0  0  0  0  0  0  0  0
  148.7890  134.3765  158.3998 C   0  0  0  0  0  0  0  0  0  0  0  0
  149.7027  133.5748  158.2058 O   0  0  0  0  0  0  0  0  0  0  0  0
  148.8667  135.3688  159.5664 C   0  0  0  0  0  0  0  0  0  0  0  0
  147.9509  135.0099  160.6628 N   0  0  0  0  0  0  0  0  0  0  0  0
  147.5837  133.6550  160.7823 C   0  0  0  0  0  0  0  0  0  0  0  0
  146.7718  133.1994  161.7559 C   0  0  0  0  0  0  0  0  0  0  0  0
  146.3506  131.7401  161.8345 C   0  0  0  0  0  0  0  0  0  0  0  0
  145.0237  131.6293  161.9025 F   0  0  0  0  0  0  0  0  0  0  0  0
  146.7742  131.0551  160.7716 F   0  0  0  0  0  0  0  0  0  0  0  0
  146.8696  131.1780  162.9251 F   0  0  0  0  0  0  0  0  0  0  0  0
  146.2515  134.1890  162.6784 C   0  0  0  0  0  0  0  0  0  0  0  0
  146.5881  135.4895  162.5755 C   0  0  0  0  0  0  0  0  0  0  0  0
  147.4911  135.9656  161.5260 C   0  0  0  0  0  0  0  0  0  0  0  0
  147.8187  137.1489  161.4293 O   0  0  0  0  0  0  0  0  0  0  0  0
  146.4971  129.1611  155.4085 H   0  0  0  0  0  0  0  0  0  0  0  0
  145.1017  130.0293  156.0302 H   0  0  0  0  0  0  0  0  0  0  0  0
  146.7183  130.3243  156.6813 H   0  0  0  0  0  0  0  0  0  0  0  0
  147.4408  131.4175  154.6217 H   0  0  0  0  0  0  0  0  0  0  0  0
  146.4315  129.7730  153.0750 H   0  0  0  0  0  0  0  0  0  0  0  0
  144.8315  130.3765  153.4169 H   0  0  0  0  0  0  0  0  0  0  0  0
  147.0772  131.8979  152.0188 H   0  0  0  0  0  0  0  0  0  0  0  0
  145.6052  131.3013  151.2817 H   0  0  0  0  0  0  0  0  0  0  0  0
  145.4411  133.7431  151.8188 H   0  0  0  0  0  0  0  0  0  0  0  0
  144.2333  132.8177  152.6835 H   0  0  0  0  0  0  0  0  0  0  0  0
  146.9146  133.7622  153.8283 H   0  0  0  0  0  0  0  0  0  0  0  0
  145.3469  134.4453  154.1760 H   0  0  0  0  0  0  0  0  0  0  0  0
  145.3762  133.9290  156.6006 H   0  0  0  0  0  0  0  0  0  0  0  0
  145.8941  132.3605  157.1364 H   0  0  0  0  0  0  0  0  0  0  0  0
  148.1868  132.8614  156.3885 H   0  0  0  0  0  0  0  0  0  0  0  0
  147.6874  134.2774  155.5175 H   0  0  0  0  0  0  0  0  0  0  0  0
  146.9893  135.1298  157.8720 H   0  0  0  0  0  0  0  0  0  0  0  0
  149.8895  135.4242  159.9451 H   0  0  0  0  0  0  0  0  0  0  0  0
  148.6477  136.3649  159.1795 H   0  0  0  0  0  0  0  0  0  0  0  0
  148.0096  133.0047  160.0319 H   0  0  0  0  0  0  0  0  0  0  0  0
  145.5837  133.8810  163.4695 H   0  0  0  0  0  0  0  0  0  0  0  0
  146.1838  136.1985  163.2829 H   0  0  0  0  0  0  0  0  0  0  0  0
  144.6998  132.3011  155.0693 H   0  0  0  0  0  0  0  0  0  0  0  0
  1  2  1  0  0  0  0
  1 25  1  0  0  0  0
  1 26  1  0  0  0  0
  1 27  1  0  0  0  0
  2  7  1  0  0  0  0
  2  3  1  0  0  0  0
  2 28  1  0  0  0  0
  3  4  1  0  0  0  0
  3 29  1  0  0  0  0
  3 30  1  0  0  0  0
  4  5  1  0  0  0  0
  4 31  1  0  0  0  0
  4 32  1  0  0  0  0
  5  6  1  0  0  0  0
  5 33  1  0  0  0  0
  5 34  1  0  0  0  0
  6  7  1  0  0  0  0
  6 35  1  0  0  0  0
  6 36  1  0  0  0  0
  7  8  1  0  0  0  0
  7 47  1  0  0  0  0
  8  9  1  0  0  0  0
  8 37  1  0  0  0  0
  8 38  1  0  0  0  0
  9 10  1  0  0  0  0
  9 39  1  0  0  0  0
  9 40  1  0  0  0  0
 10 11  1  0  0  0  0
 10 41  1  0  0  0  0
 11 12  2  0  0  0  0
 11 13  1  0  0  0  0
 13 14  1  0  0  0  0
 13 42  1  0  0  0  0
 13 43  1  0  0  0  0
 14 23  1  0  0  0  0
 14 15  1  0  0  0  0
 15 16  2  0  0  0  0
 15 44  1  0  0  0  0
 16 17  1  0  0  0  0
 16 21  1  0  0  0  0
 17 18  1  0  0  0  0
 17 19  1  0  0  0  0
 17 20  1  0  0  0  0
 21 22  2  0  0  0  0
 21 45  1  0  0  0  0
 22 23  1  0  0  0  0
 22 46  1  0  0  0  0
 23 24  2  0  0  0  0
M  CHG  1   7   1
M  END
> <s_m_source_file>
AV-unprocessed.smi

> <i_m_source_file_index>
1432

> <i_lp_mmshare_version>
43012

> <i_f3d_flags>
0

> <s_epik_input>
W0NIM11bQ0BASF0xW0NIMl1bQ0gyXVtDSDJdW0NIMl1OMVtDSDJdW0NIMl1bTkhdQyg9TylbQ0gyXW4yW2NIXWMoQyhGKShGKUYpW2NIXVtjSF1jMj1P

> <s_epik_cmdline>
J2VwaWtfcHl0aG9uJywgJy1waCcsICc3LjAnLCAnLXRuJywgJzgnLCAnLW1hJywgJzIwMCcsICctbWV0YWxfYmluZGluZycsICctaW1hZScsICc8aW5maWxlLm1hZT4nLCAnLW9tYWUnLCAnPG91dGZpbGUubWFlPic=

> <r_lp_tautomer_probability>
1

> <r_epik_Ionization_Penalty>
0.00237222

> <r_epik_Ionization_Penalty_Charging>
0.00237213

> <r_epik_Ionization_Penalty_Neutral>
8.2065e-08

> <r_epik_State_Penalty>
0.00163922

> <r_epik_Charging_Adjusted_Penalty>
0.00401135

> <i_epik_Tot_Q>
1

> <i_epik_Tot_abs_Q>
1

> <r_epik_Metal_State_Penalty>
-0

> <b_epik_Metal_Only>
0

> <s_lp_Force_Field>
OPLS_2005

> <r_lp_Energy>
36.6546

> <b_lp_Chiralities_Consistent>
1

> <s_lp_Variant>
AV-unprocessed.smi:1432-4

> <Gold.Version>
5.8.1

> <Gold.Id.Protein>
6NUR|6NUR_protein|mol2

> <Gold.PLP.Fitness>
43.6899

> <Gold.PLP.PLP>
-33.6017

> <Gold.PLP.part.hbond>
-3.5263

> <Gold.PLP.part.metal>
0.0000

> <Gold.PLP.part.buried>
-4.8396

> <Gold.PLP.part.nonpolar>
-26.4750

> <Gold.PLP.part.repulsive>
0.0000

> <Gold.PLP.ligand.clash>
0.9764

> <Gold.PLP.ligand.torsion>
0.8829

> <Gold.PLP.Chemscore.Hbond>
4.2298

> <Gold.PLP.Chemscore.CHOScore>
0.0000

> <Gold.PLP.Chemscore.Metal>
0.0000

> <Gold.Chemscore.Hbonds>
donor molecule, donor type, donor heavy atom, donor atom, acceptor molecule, acceptor atom, score
      L1  H     7    47       P1 10957  1.66
      P1  H  6896  6908       L1    12  0.74
      P1  H  6931  6943       L1    24  1.00
      P1  H  6934  6947       L1    24  0.75

> <Gold.PLP.Chemscore.Internal.Correction>
0.1411

> <Gold.Rescore>
     Score         DG    S(hbond)    S(metal)    S(lipo)     H(rot)  DE(clash)    DE(int)     intcor
     17.81     -18.59       3.42        0.00      59.76       2.08       0.28       0.50       ----

> <Gold.Chemscore.Fitness>
17.8114

> <Gold.Chemscore.DG>
-18.5860

> <Gold.Chemscore.ZeroCoef>
-5.4800

> <Gold.Chemscore.Hbond>
3.4218

> <Gold.Chemscore.Metal>
0.0000

> <Gold.Chemscore.Lipo>
59.7608

> <Gold.Chemscore.Internal_Hbond>
0.0000

> <Gold.Chemscore.DEClash>
0.2789

> <Gold.Chemscore.DEInternal>
0.4956

> <Gold.Chemscore.Rot>
2.0762

> <Gold.Chemscore.Internal.Correction>
   9.000000E+99

> <Gold.Chemscore.Hbonds>
donor molecule, donor type, donor heavy atom, donor atom, acceptor molecule, acceptor atom, score
      L1  H     7    47       P1 10957  0.65
      P1  H  6896  6908       L1    12  0.09
      P1  H  6931  6943       L1    24  0.97
      P1  H  6934  6947       L1    24  0.68

> <Gold.Chemscore.Hbond.Weighted>
-11.4290

> <Gold.Chemscore.Metal.Weighted>
-0.0000

> <Gold.Chemscore.Lipo.Weighted>
-6.9920

> <Gold.Chemscore.Internal_Hbond.Weighted>
0.0000

> <Gold.Chemscore.DEClash.Weighted>
0.2789

> <Gold.Chemscore.DEInternal.Weighted>
0.4956

> <Gold.Chemscore.Rot.Weighted>
5.3150

> <Gold.Chemscore.Internal.Correction.Weighted>
   9.000000E+99

> <Gold.Protein.RotatedTorsions>
[ 6907 6896 6895 6894 ] final  144.68 input  -60.11 | X-H torsion
[ 7974 7965 7964 7962 ] final  110.95 input  175.53 | X-H torsion
[ 8008 7997 7996 7995 ] final -103.24 input   59.86 | X-H torsion
[ 10167 10162 10161 10158 ] final  -87.69 input  -65.29 | X-H torsion
[ 10718 10713 10712 10709 ] final  143.66 input   66.30 | X-H torsion
[ 10763 10752 10751 10750 ] final -166.57 input  -60.55 | X-H torsion
[ 11005 11000 10999 10996 ] final   14.00 input  -57.11 | X-H torsion

> <Gold.Protein.ActiveResidues>
 VAL166  LYS551  ARG553  GLY616  TRP617  ASP618  TYR619  PRO620  LYS621  CYS622 
 ASP623  PHE694  ASN695  SER759  ASP760  ASP761  ALA762  ILE779  LEU786  VAL792 
 PHE793  MET794  SER795  GLU796  ALA797  LYS798  CYS799  TRP800  GLU811  SER814 

> <Gold.Protein.RotatedAtoms>
  152.1906  133.4770  159.5005 H   0  0  0  0  0  0  0  0  0  0  0  0  # atno 6907 bound_to 6896
  150.6950  134.1718  159.4224 H   0  0  0  0  0  0  0  0  0  0  0  0  # atno 6908 bound_to 6896
  151.9632  135.0113  160.0599 H   0  0  0  0  0  0  0  0  0  0  0  0  # atno 6909 bound_to 6896
  145.2485  139.2749  143.4080 H   0  0  0  0  0  0  0  0  0  0  0  0  # atno 7974 bound_to 7965
  154.8680  140.0424  157.1707 H   0  0  0  0  0  0  0  0  0  0  0  0  # atno 8008 bound_to 7997
  154.8769  140.2966  155.5427 H   0  0  0  0  0  0  0  0  0  0  0  0  # atno 8009 bound_to 7997
  156.2999  140.2418  156.3766 H   0  0  0  0  0  0  0  0  0  0  0  0  # atno 8010 bound_to 7997
  140.3819  143.2744  151.9372 H   0  0  0  0  0  0  0  0  0  0  0  0  # atno 10167 bound_to 10162
  157.3663  131.0972  151.0869 H   0  0  0  0  0  0  0  0  0  0  0  0  # atno 10718 bound_to 10713
  154.6819  135.2956  154.9601 H   0  0  0  0  0  0  0  0  0  0  0  0  # atno 10763 bound_to 10752
  154.0593  135.6633  153.4814 H   0  0  0  0  0  0  0  0  0  0  0  0  # atno 10764 bound_to 10752
  153.0553  135.5148  154.7867 H   0  0  0  0  0  0  0  0  0  0  0  0  # atno 10765 bound_to 10752
  140.4744  134.0998  155.7739 H   0  0  0  0  0  0  0  0  0  0  0  0  # atno 11005 bound_to 11000
  146.3309  140.2868  142.8613 LP  0  0  0  0  0  0  0  0  0  0  0  0  # atno 17320 bound_to 7965
  144.9525  140.8192  143.5563 LP  0  0  0  0  0  0  0  0  0  0  0  0  # atno 17321 bound_to 7965
  139.4795  144.5810  151.7933 LP  0  0  0  0  0  0  0  0  0  0  0  0  # atno 17342 bound_to 10162
  140.4928  144.1285  150.5954 LP  0  0  0  0  0  0  0  0  0  0  0  0  # atno 17343 bound_to 10162
  157.1990  130.6386  149.5732 LP  0  0  0  0  0  0  0  0  0  0  0  0  # atno 17370 bound_to 10713
  155.9747  130.4697  150.6404 LP  0  0  0  0  0  0  0  0  0  0  0  0  # atno 17371 bound_to 10713
  141.1561  133.8879  157.1972 LP  0  0  0  0  0  0  0  0  0  0  0  0  # atno 17394 bound_to 11000
  139.9865  135.0080  156.9874 LP  0  0  0  0  0  0  0  0  0  0  0  0  # atno 17395 bound_to 11000

$$$$
