AV-unprocessed.smi:3303|AV-procd|sdf|12664|dock2
  -GOLD-   2272019 03D 1   1.00000     0.00000
 Structure written by MMmdl.
 45 46  0  0  0  0  0  0  0  0  3 V2000
  148.7204  139.2617  154.2416 C   0  0  0  0  0  0  0  0  0  0  0  0
  147.5472  140.2491  154.1246 C   0  0  1  0  0  0  0  0  0  0  0  0
  146.3954  139.9028  155.0883 C   0  0  0  0  0  0  0  0  0  0  0  0
  145.2278  140.8046  154.9030 N   0  3  1  0  0  0  0  0  0  0  0  0
  144.0838  140.3655  155.7388 C   0  0  0  0  0  0  0  0  0  0  0  0
  145.5910  142.2435  155.0794 C   0  0  2  0  0  0  0  0  0  0  0  0
  144.3975  143.1885  154.8388 C   0  0  0  0  0  0  0  0  0  0  0  0
  146.7529  142.6333  154.1367 C   0  0  0  0  0  0  0  0  0  0  0  0
  147.9823  141.7210  154.2820 C   0  0  1  0  0  0  0  0  0  0  0  0
  148.6688  141.9679  155.5735 N   0  3  0  0  0  0  0  0  0  0  0  0
  150.1055  141.6272  155.5856 C   0  0  0  0  0  0  0  0  0  0  0  0
  150.5444  141.1356  156.9713 C   0  0  0  0  0  0  0  0  0  0  0  0
  151.2210  142.2281  157.7768 C   0  0  0  0  0  0  0  0  0  0  0  0
  151.7944  141.9481  159.0356 C   0  0  0  0  0  0  0  0  0  0  0  0
  152.4162  142.9995  159.7370 C   0  0  0  0  0  0  0  0  0  0  0  0
  152.4405  144.2820  159.1557 C   0  0  0  0  0  0  0  0  0  0  0  0
  151.8408  144.4574  157.8927 C   0  0  0  0  0  0  0  0  0  0  0  0
  151.2438  143.4555  157.2107 N   0  0  0  0  0  0  0  0  0  0  0  0
  149.1543  139.2635  155.2420 H   0  0  0  0  0  0  0  0  0  0  0  0
  149.5127  139.5069  153.5335 H   0  0  0  0  0  0  0  0  0  0  0  0
  148.3957  138.2428  154.0279 H   0  0  0  0  0  0  0  0  0  0  0  0
  147.1563  140.1394  153.1114 H   0  0  0  0  0  0  0  0  0  0  0  0
  146.0819  138.8729  154.9107 H   0  0  0  0  0  0  0  0  0  0  0  0
  146.7345  139.9515  156.1245 H   0  0  0  0  0  0  0  0  0  0  0  0
  144.2725  140.5608  156.7953 H   0  0  0  0  0  0  0  0  0  0  0  0
  143.9041  139.2966  155.6202 H   0  0  0  0  0  0  0  0  0  0  0  0
  143.1610  140.8688  155.4518 H   0  0  0  0  0  0  0  0  0  0  0  0
  145.9219  142.3806  156.1105 H   0  0  0  0  0  0  0  0  0  0  0  0
  144.7130  144.2316  154.8772 H   0  0  0  0  0  0  0  0  0  0  0  0
  143.6224  143.0731  155.5964 H   0  0  0  0  0  0  0  0  0  0  0  0
  143.9446  143.0181  153.8612 H   0  0  0  0  0  0  0  0  0  0  0  0
  146.4026  142.5883  153.1042 H   0  0  0  0  0  0  0  0  0  0  0  0
  147.0442  143.6711  154.3069 H   0  0  0  0  0  0  0  0  0  0  0  0
  148.6698  141.9619  153.4688 H   0  0  0  0  0  0  0  0  0  0  0  0
  148.5786  142.9472  155.8042 H   0  0  0  0  0  0  0  0  0  0  0  0
  150.2994  140.8550  154.8397 H   0  0  0  0  0  0  0  0  0  0  0  0
  150.6823  142.5083  155.2999 H   0  0  0  0  0  0  0  0  0  0  0  0
  149.6827  140.7679  157.5305 H   0  0  0  0  0  0  0  0  0  0  0  0
  151.2271  140.2909  156.8687 H   0  0  0  0  0  0  0  0  0  0  0  0
  151.7610  140.9541  159.4574 H   0  0  0  0  0  0  0  0  0  0  0  0
  152.8661  142.8254  160.7034 H   0  0  0  0  0  0  0  0  0  0  0  0
  152.9078  145.1116  159.6654 H   0  0  0  0  0  0  0  0  0  0  0  0
  151.8421  145.4268  157.4169 H   0  0  0  0  0  0  0  0  0  0  0  0
  148.2091  141.4252  156.2906 H   0  0  0  0  0  0  0  0  0  0  0  0
  144.9329  140.6954  153.9427 H   0  0  0  0  0  0  0  0  0  0  0  0
  1  2  1  0  0  0  0
  1 19  1  0  0  0  0
  1 20  1  0  0  0  0
  1 21  1  0  0  0  0
  2  9  1  0  0  0  0
  2  3  1  0  0  0  0
  2 22  1  0  0  0  0
  3  4  1  0  0  0  0
  3 23  1  0  0  0  0
  3 24  1  0  0  0  0
  4  5  1  0  0  0  0
  4  6  1  0  0  0  0
  4 45  1  0  0  0  0
  5 25  1  0  0  0  0
  5 26  1  0  0  0  0
  5 27  1  0  0  0  0
  6  7  1  0  0  0  0
  6  8  1  0  0  0  0
  6 28  1  0  0  0  0
  7 29  1  0  0  0  0
  7 30  1  0  0  0  0
  7 31  1  0  0  0  0
  8  9  1  0  0  0  0
  8 32  1  0  0  0  0
  8 33  1  0  0  0  0
  9 10  1  0  0  0  0
  9 34  1  0  0  0  0
 10 11  1  0  0  0  0
 10 35  1  0  0  0  0
 10 44  1  0  0  0  0
 11 12  1  0  0  0  0
 11 36  1  0  0  0  0
 11 37  1  0  0  0  0
 12 13  1  0  0  0  0
 12 38  1  0  0  0  0
 12 39  1  0  0  0  0
 13 18  1  0  0  0  0
 13 14  2  0  0  0  0
 14 15  1  0  0  0  0
 14 40  1  0  0  0  0
 15 16  2  0  0  0  0
 15 41  1  0  0  0  0
 16 17  1  0  0  0  0
 16 42  1  0  0  0  0
 17 18  2  0  0  0  0
 17 43  1  0  0  0  0
M  CHG  1   4   1
M  CHG  1  10   1
M  END
> <s_m_source_file>
AV-unprocessed.smi

> <i_m_source_file_index>
3303

> <i_lp_mmshare_version>
43012

> <i_f3d_flags>
0

> <s_epik_input>
W0NIM11bQ0BASF0xW0NIMl1OKFtDSDNdKVtDQEBIXShbQ0gzXSlbQ0gyXVtDQEhdMVtOSF1bQ0gyXVtDSDJdYzJbY0hdW2NIXVtjSF1bY0hdbjI=

> <s_epik_cmdline>
J2VwaWtfcHl0aG9uJywgJy1waCcsICc3LjAnLCAnLXRuJywgJzgnLCAnLW1hJywgJzIwMCcsICctbWV0YWxfYmluZGluZycsICctaW1hZScsICc8aW5maWxlLm1hZT4nLCAnLW9tYWUnLCAnPG91dGZpbGUubWFlPic=

> <r_epik_Ionization_Penalty>
0.0769462

> <r_epik_Ionization_Penalty_Charging>
0.0759813

> <r_epik_Ionization_Penalty_Neutral>
0.000964829

> <r_epik_State_Penalty>
0.0654373

> <r_epik_Charging_Adjusted_Penalty>
0.141419

> <i_epik_Tot_Q>
2

> <i_epik_Tot_abs_Q>
2

> <r_epik_Metal_State_Penalty>
0.0656439

> <b_epik_Metal_Only>
0

> <s_lp_Force_Field>
OPLS_2005

> <r_lp_Energy>
34.3244

> <b_lp_Chiralities_Consistent>
1

> <s_lp_Variant>
AV-unprocessed.smi:3303-8

> <Gold.Version>
5.8.1

> <Gold.Id.Protein>
6NUR|6NUR_protein|mol2

> <Gold.PLP.Fitness>
49.3183

> <Gold.PLP.PLP>
-38.8256

> <Gold.PLP.part.hbond>
-2.0000

> <Gold.PLP.part.metal>
0.0000

> <Gold.PLP.part.buried>
-4.9807

> <Gold.PLP.part.nonpolar>
-33.4392

> <Gold.PLP.part.repulsive>
0.3487

> <Gold.PLP.ligand.clash>
0.0000

> <Gold.PLP.ligand.torsion>
0.7715

> <Gold.PLP.Chemscore.Hbond>
4.0000

> <Gold.PLP.Chemscore.CHOScore>
0.0000

> <Gold.PLP.Chemscore.Metal>
0.0000

> <Gold.Chemscore.Hbonds>
donor molecule, donor type, donor heavy atom, donor atom, acceptor molecule, acceptor atom, score
      L1  H     4    45       P1 10175  2.00
      L1  H    10    35       P1  8028  2.00

> <Gold.PLP.Chemscore.Internal.Correction>
0.0358

> <Gold.Rescore>
     Score         DG    S(hbond)    S(metal)    S(lipo)     H(rot)  DE(clash)    DE(int)     intcor
     20.20     -21.18       1.93        0.00     109.12       1.37       0.11       0.87       ----

> <Gold.Chemscore.Fitness>
20.1959

> <Gold.Chemscore.DG>
-21.1796

> <Gold.Chemscore.ZeroCoef>
-5.4800

> <Gold.Chemscore.Hbond>
1.9315

> <Gold.Chemscore.Metal>
0.0000

> <Gold.Chemscore.Lipo>
109.1176

> <Gold.Chemscore.Internal_Hbond>
0.0000

> <Gold.Chemscore.DEClash>
0.1099

> <Gold.Chemscore.DEInternal>
0.8738

> <Gold.Chemscore.Rot>
1.3744

> <Gold.Chemscore.Internal.Correction>
   9.000000E+99

> <Gold.Chemscore.Hbonds>
donor molecule, donor type, donor heavy atom, donor atom, acceptor molecule, acceptor atom, score
      L1  H     4    45       P1 10175  0.96
      L1  H    10    35       P1  8028  0.98

> <Gold.Chemscore.Hbond.Weighted>
-6.4513

> <Gold.Chemscore.Metal.Weighted>
-0.0000

> <Gold.Chemscore.Lipo.Weighted>
-12.7668

> <Gold.Chemscore.Internal_Hbond.Weighted>
0.0000

> <Gold.Chemscore.DEClash.Weighted>
0.1099

> <Gold.Chemscore.DEInternal.Weighted>
0.8738

> <Gold.Chemscore.Rot.Weighted>
3.5185

> <Gold.Chemscore.Internal.Correction.Weighted>
   9.000000E+99

> <Gold.Protein.RotatedTorsions>
[ 6907 6896 6895 6894 ] final  -53.39 input  -60.11 | X-H torsion
[ 7974 7965 7964 7962 ] final  104.55 input  175.53 | X-H torsion
[ 8008 7997 7996 7995 ] final  -27.69 input   59.86 | X-H torsion
[ 10167 10162 10161 10158 ] final -113.19 input  -65.29 | X-H torsion
[ 10718 10713 10712 10709 ] final   90.26 input   66.30 | X-H torsion
[ 10763 10752 10751 10750 ] final  -70.62 input  -60.55 | X-H torsion
[ 11005 11000 10999 10996 ] final  -11.21 input  -57.11 | X-H torsion

> <Gold.Protein.ActiveResidues>
 VAL166  LYS551  ARG553  GLY616  TRP617  ASP618  TYR619  PRO620  LYS621  CYS622 
 ASP623  PHE694  ASN695  SER759  ASP760  ASP761  ALA762  ILE779  LEU786  VAL792 
 PHE793  MET794  SER795  GLU796  ALA797  LYS798  CYS799  TRP800  GLU811  SER814 

> <Gold.Protein.RotatedAtoms>
  150.8431  134.7731  159.6948 H   0  0  0  0  0  0  0  0  0  0  0  0  # atno 6907 bound_to 6896
  152.4514  134.5381  159.9841 H   0  0  0  0  0  0  0  0  0  0  0  0  # atno 6908 bound_to 6896
  151.5517  133.3378  159.2990 H   0  0  0  0  0  0  0  0  0  0  0  0  # atno 6909 bound_to 6896
  145.3313  139.2486  143.3659 H   0  0  0  0  0  0  0  0  0  0  0  0  # atno 7974 bound_to 7965
  154.4366  140.1865  156.0971 H   0  0  0  0  0  0  0  0  0  0  0  0  # atno 8008 bound_to 7997
  156.0321  140.3329  155.7124 H   0  0  0  0  0  0  0  0  0  0  0  0  # atno 8009 bound_to 7997
  155.5825  140.0623  157.2770 H   0  0  0  0  0  0  0  0  0  0  0  0  # atno 8010 bound_to 7997
  140.1146  143.4497  152.1730 H   0  0  0  0  0  0  0  0  0  0  0  0  # atno 10167 bound_to 10162
  157.6958  131.0364  150.3550 H   0  0  0  0  0  0  0  0  0  0  0  0  # atno 10718 bound_to 10713
  154.4202  135.5988  153.6005 H   0  0  0  0  0  0  0  0  0  0  0  0  # atno 10763 bound_to 10752
  152.9793  135.5950  154.3964 H   0  0  0  0  0  0  0  0  0  0  0  0  # atno 10764 bound_to 10752
  154.3788  135.2841  155.2202 H   0  0  0  0  0  0  0  0  0  0  0  0  # atno 10765 bound_to 10752
  140.7528  133.8578  155.9059 H   0  0  0  0  0  0  0  0  0  0  0  0  # atno 11005 bound_to 11000
  146.3044  140.3892  142.8692 LP  0  0  0  0  0  0  0  0  0  0  0  0  # atno 17320 bound_to 7965
  144.8862  140.7464  143.5955 LP  0  0  0  0  0  0  0  0  0  0  0  0  # atno 17321 bound_to 7965
  139.5601  144.7400  151.4180 LP  0  0  0  0  0  0  0  0  0  0  0  0  # atno 17342 bound_to 10162
  140.6906  143.7869  150.7250 LP  0  0  0  0  0  0  0  0  0  0  0  0  # atno 17343 bound_to 10162
  156.3994  130.3913  149.6971 LP  0  0  0  0  0  0  0  0  0  0  0  0  # atno 17370 bound_to 10713
  156.4294  130.7807  151.2827 LP  0  0  0  0  0  0  0  0  0  0  0  0  # atno 17371 bound_to 10713
  140.9735  134.1500  157.4556 LP  0  0  0  0  0  0  0  0  0  0  0  0  # atno 17394 bound_to 11000
  139.8784  134.9986  156.5911 LP  0  0  0  0  0  0  0  0  0  0  0  0  # atno 17395 bound_to 11000

$$$$
