AV-unprocessed.smi:2391|AV-procd|sdf|9486|dock4
  -GOLD-   2272013113D 1   1.00000     0.00000
 Structure written by MMmdl.
 34 35  0  0  0  0  0  0  0  0  2 V2000
  150.2733  135.7473  157.9881 O   0  0  0  0  0  0  0  0  0  0  0  0
  149.1174  135.9654  157.6190 C   0  0  0  0  0  0  0  0  0  0  0  0
  148.7403  136.7953  156.6186 N   0  5  0  0  0  0  0  0  0  0  0  0
  149.6380  137.2249  155.7189 C   0  0  0  0  0  0  0  0  0  0  0  0
  149.3160  138.2789  154.8347 C   0  0  0  0  0  0  0  0  0  0  0  0
  150.2825  138.6884  153.9009 C   0  0  0  0  0  0  0  0  0  0  0  0
  151.5120  138.0089  153.9100 C   0  0  0  0  0  0  0  0  0  0  0  0
  151.7770  137.0011  154.7687 N   0  0  0  0  0  0  0  0  0  0  0  0
  150.8503  136.6178  155.6542 N   0  0  0  0  0  0  0  0  0  0  0  0
  148.0879  135.3623  158.2316 N   0  0  0  0  0  0  0  0  0  0  0  0
  148.1581  134.4117  159.3445 C   0  0  1  0  0  0  0  0  0  0  0  0
  147.3598  134.9663  160.5538 C   0  0  0  0  0  0  0  0  0  0  0  0
  147.7258  136.4022  160.9515 C   0  0  0  0  0  0  0  0  0  0  0  0
  147.1696  136.5751  162.3662 C   0  0  0  0  0  0  0  0  0  0  0  0
  147.1444  135.1709  162.9843 C   0  0  0  0  0  0  0  0  0  0  0  0
  147.5526  134.1998  161.8691 C   0  0  0  0  0  0  0  0  0  0  0  0
  147.6628  133.0340  158.8484 C   0  0  0  0  0  0  0  0  0  0  0  0
  148.3200  132.6879  157.7406 F   0  0  0  0  0  0  0  0  0  0  0  0
  147.8850  132.0888  159.7609 F   0  0  0  0  0  0  0  0  0  0  0  0
  146.3577  133.0719  158.5761 F   0  0  0  0  0  0  0  0  0  0  0  0
  148.3514  138.7638  154.8740 H   0  0  0  0  0  0  0  0  0  0  0  0
  150.0884  139.4910  153.2052 H   0  0  0  0  0  0  0  0  0  0  0  0
  152.2962  138.2754  153.2170 H   0  0  0  0  0  0  0  0  0  0  0  0
  147.1641  135.5766  157.8858 H   0  0  0  0  0  0  0  0  0  0  0  0
  149.1972  134.2859  159.6531 H   0  0  0  0  0  0  0  0  0  0  0  0
  146.2964  134.9529  160.3089 H   0  0  0  0  0  0  0  0  0  0  0  0
  148.8107  136.5167  160.9698 H   0  0  0  0  0  0  0  0  0  0  0  0
  147.3279  137.1462  160.2605 H   0  0  0  0  0  0  0  0  0  0  0  0
  147.7648  137.2751  162.9530 H   0  0  0  0  0  0  0  0  0  0  0  0
  146.1544  136.9703  162.3169 H   0  0  0  0  0  0  0  0  0  0  0  0
  147.8215  135.0936  163.8356 H   0  0  0  0  0  0  0  0  0  0  0  0
  146.1409  134.9410  163.3442 H   0  0  0  0  0  0  0  0  0  0  0  0
  146.9712  133.2783  161.9048 H   0  0  0  0  0  0  0  0  0  0  0  0
  148.6031  133.9323  161.9912 H   0  0  0  0  0  0  0  0  0  0  0  0
  1  2  2  0  0  0  0
  2  3  1  0  0  0  0
  2 10  1  0  0  0  0
  3  4  1  0  0  0  0
  4  9  1  0  0  0  0
  4  5  2  0  0  0  0
  5  6  1  0  0  0  0
  5 21  1  0  0  0  0
  6  7  2  0  0  0  0
  6 22  1  0  0  0  0
  7  8  1  0  0  0  0
  7 23  1  0  0  0  0
  8  9  2  0  0  0  0
 10 11  1  0  0  0  0
 10 24  1  0  0  0  0
 11 12  1  0  0  0  0
 11 17  1  0  0  0  0
 11 25  1  0  0  0  0
 12 16  1  0  0  0  0
 12 13  1  0  0  0  0
 12 26  1  0  0  0  0
 13 14  1  0  0  0  0
 13 27  1  0  0  0  0
 13 28  1  0  0  0  0
 14 15  1  0  0  0  0
 14 29  1  0  0  0  0
 14 30  1  0  0  0  0
 15 16  1  0  0  0  0
 15 31  1  0  0  0  0
 15 32  1  0  0  0  0
 16 33  1  0  0  0  0
 16 34  1  0  0  0  0
 17 18  1  0  0  0  0
 17 19  1  0  0  0  0
 17 20  1  0  0  0  0
M  CHG  1   3  -1
M  END
> <s_m_source_file>
AV-unprocessed.smi

> <i_m_source_file_index>
2391

> <i_lp_mmshare_version>
43012

> <i_f3d_flags>
0

> <s_epik_input>
W0NIMl0xW0NIMl1bQ0gyXVtDSDJdW0NIXTFbQ0BIXShDKEYpKEYpRilbTkhdQyg9TylbTkhdYzJbY0hdW2NIXVtjSF1ubjI=

> <s_epik_cmdline>
J2VwaWtfcHl0aG9uJywgJy1waCcsICc3LjAnLCAnLXRuJywgJzgnLCAnLW1hJywgJzIwMCcsICctbWV0YWxfYmluZGluZycsICctaW1hZScsICc8aW5maWxlLm1hZT4nLCAnLW9tYWUnLCAnPG91dGZpbGUubWFlPic=

> <r_lp_tautomer_probability>
1

> <r_epik_Ionization_Penalty>
8.90766

> <r_epik_Ionization_Penalty_Charging>
5.82661

> <r_epik_Ionization_Penalty_Neutral>
3.08106

> <r_epik_State_Penalty>
5.83894

> <r_epik_Charging_Adjusted_Penalty>
11.6655

> <i_epik_Tot_Q>
-1

> <i_epik_Tot_abs_Q>
1

> <r_epik_Metal_State_Penalty>
1.80768

> <b_epik_Metal_Only>
1

> <s_lp_Force_Field>
OPLS_2005

> <r_lp_Energy>
28.2955

> <b_lp_Chiralities_Consistent>
1

> <s_lp_Variant>
AV-unprocessed.smi:2391-6

> <Gold.Version>
5.8.1

> <Gold.Id.Protein>
6NUR|6NUR_protein|mol2

> <Gold.PLP.Fitness>
34.5475

> <Gold.PLP.PLP>
-29.3576

> <Gold.PLP.part.hbond>
-2.0000

> <Gold.PLP.part.metal>
0.0000

> <Gold.PLP.part.buried>
-4.0825

> <Gold.PLP.part.nonpolar>
-23.4108

> <Gold.PLP.part.repulsive>
0.2064

> <Gold.PLP.ligand.clash>
0.0000

> <Gold.PLP.ligand.torsion>
0.2682

> <Gold.PLP.Chemscore.Hbond>
1.7760

> <Gold.PLP.Chemscore.CHOScore>
0.0000

> <Gold.PLP.Chemscore.Metal>
0.0000

> <Gold.Chemscore.Hbonds>
donor molecule, donor type, donor heavy atom, donor atom, acceptor molecule, acceptor atom, score
      P1  H  6896  6907       L1     1  0.77
      P1  H 10752 10764       L1     8  1.00

> <Gold.PLP.Chemscore.Internal.Correction>
0.3983

> <Gold.Rescore>
     Score         DG    S(hbond)    S(metal)    S(lipo)     H(rot)  DE(clash)    DE(int)     intcor
     13.97     -16.23       1.82        0.00      68.75       1.32       0.02       2.24       ----

> <Gold.Chemscore.Fitness>
13.9670

> <Gold.Chemscore.DG>
-16.2293

> <Gold.Chemscore.ZeroCoef>
-5.4800

> <Gold.Chemscore.Hbond>
1.8201

> <Gold.Chemscore.Metal>
0.0000

> <Gold.Chemscore.Lipo>
68.7503

> <Gold.Chemscore.Internal_Hbond>
0.0000

> <Gold.Chemscore.DEClash>
0.0234

> <Gold.Chemscore.DEInternal>
2.2389

> <Gold.Chemscore.Rot>
1.3179

> <Gold.Chemscore.Internal.Correction>
   9.000000E+99

> <Gold.Chemscore.Hbonds>
donor molecule, donor type, donor heavy atom, donor atom, acceptor molecule, acceptor atom, score
      P1  H  6896  6907       L1     1  0.74
      P1  H 10752 10764       L1     8  0.53

> <Gold.Chemscore.Hbond.Weighted>
-6.0792

> <Gold.Chemscore.Metal.Weighted>
-0.0000

> <Gold.Chemscore.Lipo.Weighted>
-8.0438

> <Gold.Chemscore.Internal_Hbond.Weighted>
0.0000

> <Gold.Chemscore.DEClash.Weighted>
0.0234

> <Gold.Chemscore.DEInternal.Weighted>
2.2389

> <Gold.Chemscore.Rot.Weighted>
3.3737

> <Gold.Chemscore.Internal.Correction.Weighted>
   9.000000E+99

> <Gold.Protein.RotatedTorsions>
[ 6907 6896 6895 6894 ] final  -56.93 input  -60.11 | X-H torsion
[ 7974 7965 7964 7962 ] final  136.01 input  175.53 | X-H torsion
[ 8008 7997 7996 7995 ] final  -78.41 input   59.86 | X-H torsion
[ 10167 10162 10161 10158 ] final  121.20 input  -65.29 | X-H torsion
[ 10718 10713 10712 10709 ] final   65.54 input   66.30 | X-H torsion
[ 10763 10752 10751 10750 ] final  -57.55 input  -60.55 | X-H torsion
[ 11005 11000 10999 10996 ] final  -77.05 input  -57.11 | X-H torsion

> <Gold.Protein.ActiveResidues>
 VAL166  LYS551  ARG553  GLY616  TRP617  ASP618  TYR619  PRO620  LYS621  CYS622 
 ASP623  PHE694  ASN695  SER759  ASP760  ASP761  ALA762  ILE779  LEU786  VAL792 
 PHE793  MET794  SER795  GLU796  ALA797  LYS798  CYS799  TRP800  GLU811  SER814 

> <Gold.Protein.RotatedAtoms>
  150.8127  134.7291  159.6701 H   0  0  0  0  0  0  0  0  0  0  0  0  # atno 6907 bound_to 6896
  152.4246  134.5888  159.9978 H   0  0  0  0  0  0  0  0  0  0  0  0  # atno 6908 bound_to 6896
  151.6094  133.3311  159.3100 H   0  0  0  0  0  0  0  0  0  0  0  0  # atno 6909 bound_to 6896
  144.9606  139.4714  143.5481 H   0  0  0  0  0  0  0  0  0  0  0  0  # atno 7974 bound_to 7965
  154.5687  140.0695  156.8931 H   0  0  0  0  0  0  0  0  0  0  0  0  # atno 8008 bound_to 7997
  155.2675  140.3363  155.4250 H   0  0  0  0  0  0  0  0  0  0  0  0  # atno 8009 bound_to 7997
  156.2101  140.1755  156.7700 H   0  0  0  0  0  0  0  0  0  0  0  0  # atno 8010 bound_to 7997
  139.5934  144.7033  151.3234 H   0  0  0  0  0  0  0  0  0  0  0  0  # atno 10167 bound_to 10162
  157.6112  130.9220  149.9990 H   0  0  0  0  0  0  0  0  0  0  0  0  # atno 10718 bound_to 10713
  154.2242  135.6372  153.5154 H   0  0  0  0  0  0  0  0  0  0  0  0  # atno 10763 bound_to 10752
  152.9962  135.5504  154.6081 H   0  0  0  0  0  0  0  0  0  0  0  0  # atno 10764 bound_to 10752
  154.5549  135.2904  155.0948 H   0  0  0  0  0  0  0  0  0  0  0  0  # atno 10765 bound_to 10752
  141.1658  133.7007  156.7762 H   0  0  0  0  0  0  0  0  0  0  0  0  # atno 11005 bound_to 11000
  146.3352  139.8754  142.8833 LP  0  0  0  0  0  0  0  0  0  0  0  0  # atno 17320 bound_to 7965
  145.2705  141.0107  143.3774 LP  0  0  0  0  0  0  0  0  0  0  0  0  # atno 17321 bound_to 7965
  140.7192  143.7182  150.7716 LP  0  0  0  0  0  0  0  0  0  0  0  0  # atno 17342 bound_to 10162
  140.0743  143.5030  152.2563 LP  0  0  0  0  0  0  0  0  0  0  0  0  # atno 17343 bound_to 10162
  156.1216  130.3646  149.9878 LP  0  0  0  0  0  0  0  0  0  0  0  0  # atno 17370 bound_to 10713
  156.7957  130.9272  151.3646 LP  0  0  0  0  0  0  0  0  0  0  0  0  # atno 17371 bound_to 10713
  140.2428  134.8601  157.3590 LP  0  0  0  0  0  0  0  0  0  0  0  0  # atno 17394 bound_to 11000
  140.1779  134.4526  155.7790 LP  0  0  0  0  0  0  0  0  0  0  0  0  # atno 17395 bound_to 11000

$$$$
