AV-unprocessed.smi:243|AV-procd|sdf|1850|dock3
  -GOLD-   2262020473D 1   1.00000     0.00000
 Structure written by MMmdl.
 58 61  0  0  0  0  0  0  0  0  2 V2000
  147.1955  141.9600  158.0289 C   0  0  0  0  0  0  0  0  0  0  0  0
  147.6293  141.4316  156.6545 C   0  0  0  0  0  0  0  0  0  0  0  0
  148.8898  142.0572  156.1719 N   0  3  2  0  0  0  0  0  0  0  0  0
  149.2916  141.6078  154.8162 C   0  0  0  0  0  0  0  0  0  0  0  0
  149.8450  140.1747  154.8386 C   0  0  0  0  0  0  0  0  0  0  0  0
  151.0357  140.0407  155.8157 C   0  0  2  0  0  0  0  0  0  0  0  0
  151.6045  138.6839  155.8199 N   0  0  0  0  0  0  0  0  0  0  0  0
  152.6866  138.4196  154.8784 C   0  0  0  0  0  0  0  0  0  0  0  0
  150.7483  137.6441  155.9831 C   0  0  0  0  0  0  0  0  0  0  0  0
  150.4810  136.8731  154.8995 N   0  0  0  0  0  0  0  0  0  0  0  0
  149.6413  135.8386  154.9990 C   0  0  0  0  0  0  0  0  0  0  0  0
  148.9691  135.4103  156.0688 N   0  0  0  0  0  0  0  0  0  0  0  0
  149.2250  136.1874  157.1598 C   0  0  0  0  0  0  0  0  0  0  0  0
  150.0953  137.3133  157.2062 C   0  0  0  0  0  0  0  0  0  0  0  0
  150.1152  137.8399  158.4926 N   0  0  0  0  0  0  0  0  0  0  0  0
  149.2994  137.0749  159.1645 C   0  0  0  0  0  0  0  0  0  0  0  0
  148.7113  136.0634  158.4392 N   0  0  0  0  0  0  0  0  0  0  0  0
  147.7642  135.0736  158.9302 C   0  0  0  0  0  0  0  0  0  0  0  0
  147.1145  135.4557  160.2817 C   0  0  1  0  0  0  0  0  0  0  0  0
  146.0883  134.5252  160.5812 O   0  0  0  0  0  0  0  0  0  0  0  0
  148.1074  135.4635  161.4364 C   0  0  0  0  0  0  0  0  0  0  0  0
  147.4982  136.4781  162.3950 C   0  0  0  0  0  0  0  0  0  0  0  0
  147.0065  137.4852  161.5267 O   0  0  0  0  0  0  0  0  0  0  0  0
  146.5159  136.8763  160.3351 C   0  0  0  0  0  0  0  0  0  0  0  0
  150.6482  140.5712  157.2232 C   0  0  1  0  0  0  0  0  0  0  0  0
  151.8565  140.6107  158.1766 C   0  0  0  0  0  0  0  0  0  0  0  0
  150.0321  141.9865  157.1214 C   0  0  0  0  0  0  0  0  0  0  0  0
  146.2147  141.5665  158.2963 H   0  0  0  0  0  0  0  0  0  0  0  0
  147.1257  143.0482  158.0302 H   0  0  0  0  0  0  0  0  0  0  0  0
  147.8856  141.6636  158.8184 H   0  0  0  0  0  0  0  0  0  0  0  0
  147.7121  140.3451  156.6754 H   0  0  0  0  0  0  0  0  0  0  0  0
  146.8318  141.6606  155.9467 H   0  0  0  0  0  0  0  0  0  0  0  0
  148.4488  141.6817  154.1279 H   0  0  0  0  0  0  0  0  0  0  0  0
  150.0549  142.2878  154.4356 H   0  0  0  0  0  0  0  0  0  0  0  0
  149.0443  139.4887  155.1147 H   0  0  0  0  0  0  0  0  0  0  0  0
  150.1500  139.8962  153.8297 H   0  0  0  0  0  0  0  0  0  0  0  0
  151.8254  140.6942  155.4417 H   0  0  0  0  0  0  0  0  0  0  0  0
  153.0309  137.3867  154.9511 H   0  0  0  0  0  0  0  0  0  0  0  0
  153.5362  139.0663  155.0985 H   0  0  0  0  0  0  0  0  0  0  0  0
  152.3790  138.6076  153.8501 H   0  0  0  0  0  0  0  0  0  0  0  0
  149.4836  135.2749  154.0912 H   0  0  0  0  0  0  0  0  0  0  0  0
  149.1024  137.2310  160.2151 H   0  0  0  0  0  0  0  0  0  0  0  0
  146.9947  134.9271  158.1709 H   0  0  0  0  0  0  0  0  0  0  0  0
  148.2877  134.1211  159.0214 H   0  0  0  0  0  0  0  0  0  0  0  0
  146.4383  133.6522  160.4901 H   0  0  0  0  0  0  0  0  0  0  0  0
  148.2632  134.4835  161.8893 H   0  0  0  0  0  0  0  0  0  0  0  0
  149.0774  135.8313  161.0985 H   0  0  0  0  0  0  0  0  0  0  0  0
  146.6699  136.0401  162.9544 H   0  0  0  0  0  0  0  0  0  0  0  0
  148.2222  136.8776  163.1053 H   0  0  0  0  0  0  0  0  0  0  0  0
  146.8405  137.4898  159.4954 H   0  0  0  0  0  0  0  0  0  0  0  0
  145.4248  136.8683  160.3314 H   0  0  0  0  0  0  0  0  0  0  0  0
  149.8994  139.9138  157.6636 H   0  0  0  0  0  0  0  0  0  0  0  0
  152.6412  141.2641  157.7941 H   0  0  0  0  0  0  0  0  0  0  0  0
  152.2942  139.6236  158.3212 H   0  0  0  0  0  0  0  0  0  0  0  0
  151.5668  140.9814  159.1602 H   0  0  0  0  0  0  0  0  0  0  0  0
  150.7937  142.6870  156.7757 H   0  0  0  0  0  0  0  0  0  0  0  0
  149.7314  142.3436  158.1056 H   0  0  0  0  0  0  0  0  0  0  0  0
  148.6700  143.0382  156.0737 H   0  0  0  0  0  0  0  0  0  0  0  0
  1  2  1  0  0  0  0
  1 28  1  0  0  0  0
  1 29  1  0  0  0  0
  1 30  1  0  0  0  0
  2  3  1  0  0  0  0
  2 31  1  0  0  0  0
  2 32  1  0  0  0  0
  3 27  1  0  0  0  0
  3  4  1  0  0  0  0
  3 58  1  0  0  0  0
  4  5  1  0  0  0  0
  4 33  1  0  0  0  0
  4 34  1  0  0  0  0
  5  6  1  0  0  0  0
  5 35  1  0  0  0  0
  5 36  1  0  0  0  0
  6  7  1  0  0  0  0
  6 25  1  0  0  0  0
  6 37  1  0  0  0  0
  7  8  1  0  0  0  0
  7  9  1  0  0  0  0
  8 38  1  0  0  0  0
  8 39  1  0  0  0  0
  8 40  1  0  0  0  0
  9 14  1  0  0  0  0
  9 10  2  0  0  0  0
 10 11  1  0  0  0  0
 11 12  2  0  0  0  0
 11 41  1  0  0  0  0
 12 13  1  0  0  0  0
 13 17  1  0  0  0  0
 13 14  2  0  0  0  0
 14 15  1  0  0  0  0
 15 16  2  0  0  0  0
 16 17  1  0  0  0  0
 16 42  1  0  0  0  0
 17 18  1  0  0  0  0
 18 19  1  0  0  0  0
 18 43  1  0  0  0  0
 18 44  1  0  0  0  0
 19 24  1  0  0  0  0
 19 20  1  0  0  0  0
 19 21  1  0  0  0  0
 20 45  1  0  0  0  0
 21 22  1  0  0  0  0
 21 46  1  0  0  0  0
 21 47  1  0  0  0  0
 22 23  1  0  0  0  0
 22 48  1  0  0  0  0
 22 49  1  0  0  0  0
 23 24  1  0  0  0  0
 24 50  1  0  0  0  0
 24 51  1  0  0  0  0
 25 26  1  0  0  0  0
 25 27  1  0  0  0  0
 25 52  1  0  0  0  0
 26 53  1  0  0  0  0
 26 54  1  0  0  0  0
 26 55  1  0  0  0  0
 27 56  1  0  0  0  0
 27 57  1  0  0  0  0
M  CHG  1   3   1
M  END
> <s_m_source_file>
AV-unprocessed.smi

> <i_m_source_file_index>
243

> <i_lp_mmshare_version>
43012

> <i_f3d_flags>
0

> <s_epik_input>
W0NIM11bQ0gyXU4xW0NIMl1bQ0gyXVtDQEhdKFtDQEBIXShbQ0gzXSlbQ0gyXTEpTihbQ0gzXSljKG5bY0hdbjIpYyhjMjMpbltjSF1uM1tDSDJdW0NAQF00KFtPSF0pW0NIMl1bQ0gyXU9bQ0gyXTQ=

> <s_epik_cmdline>
J2VwaWtfcHl0aG9uJywgJy1waCcsICc3LjAnLCAnLXRuJywgJzgnLCAnLW1hJywgJzIwMCcsICctbWV0YWxfYmluZGluZycsICctaW1hZScsICc8aW5maWxlLm1hZT4nLCAnLW9tYWUnLCAnPG91dGZpbGUubWFlPic=

> <r_lp_tautomer_probability>
1

> <r_epik_Ionization_Penalty>
0.00253099

> <r_epik_Ionization_Penalty_Charging>
0.00137877

> <r_epik_Ionization_Penalty_Neutral>
0.00115221

> <r_epik_State_Penalty>
-0

> <r_epik_Charging_Adjusted_Penalty>
0.00137877

> <i_epik_Tot_Q>
1

> <i_epik_Tot_abs_Q>
1

> <r_epik_Metal_State_Penalty>
-0

> <b_epik_Metal_Only>
0

> <s_lp_Force_Field>
OPLS_2005

> <r_lp_Energy>
49.0604

> <b_lp_Chiralities_Consistent>
1

> <s_lp_Variant>
AV-unprocessed.smi:243-3

> <Gold.Version>
5.8.1

> <Gold.Id.Protein>
6NUR|6NUR_protein|mol2

> <Gold.PLP.Fitness>
45.3440

> <Gold.PLP.PLP>
-35.3356

> <Gold.PLP.part.hbond>
-3.0000

> <Gold.PLP.part.metal>
0.0000

> <Gold.PLP.part.buried>
-4.7701

> <Gold.PLP.part.nonpolar>
-27.9845

> <Gold.PLP.part.repulsive>
0.2532

> <Gold.PLP.ligand.clash>
0.0000

> <Gold.PLP.ligand.torsion>
1.3051

> <Gold.PLP.Chemscore.Hbond>
3.0000

> <Gold.PLP.Chemscore.CHOScore>
0.9073

> <Gold.PLP.Chemscore.Metal>
0.0000

> <Gold.Chemscore.Hbonds>
donor molecule, donor type, donor heavy atom, donor atom, acceptor molecule, acceptor atom, score
      L1  H     3    58       P1  8028  2.00
      P1  H  6934  6947       L1    23  0.89
      L1  C    11    41       P1  7948  0.93

> <Gold.PLP.Chemscore.Internal.Correction>
0.8968

> <Gold.Rescore>
     Score         DG    S(hbond)    S(metal)    S(lipo)     H(rot)  DE(clash)    DE(int)     intcor
     12.67     -15.63       2.10        0.00      82.22       2.53       0.10       2.86       ----

> <Gold.Chemscore.Fitness>
12.6677

> <Gold.Chemscore.DG>
-15.6343

> <Gold.Chemscore.ZeroCoef>
-5.4800

> <Gold.Chemscore.Hbond>
2.0994

> <Gold.Chemscore.Metal>
0.0000

> <Gold.Chemscore.Lipo>
82.2233

> <Gold.Chemscore.Internal_Hbond>
0.0000

> <Gold.Chemscore.DEClash>
0.1037

> <Gold.Chemscore.DEInternal>
2.8629

> <Gold.Chemscore.Rot>
2.5305

> <Gold.Chemscore.Internal.Correction>
   9.000000E+99

> <Gold.Chemscore.Hbonds>
donor molecule, donor type, donor heavy atom, donor atom, acceptor molecule, acceptor atom, score
      L1  H     3    58       P1  8028  0.98
      P1  H  6934  6947       L1    23  0.17

> <Gold.Chemscore.Hbond.Weighted>
-7.0121

> <Gold.Chemscore.Metal.Weighted>
-0.0000

> <Gold.Chemscore.Lipo.Weighted>
-9.6201

> <Gold.Chemscore.Internal_Hbond.Weighted>
0.0000

> <Gold.Chemscore.DEClash.Weighted>
0.1037

> <Gold.Chemscore.DEInternal.Weighted>
2.8629

> <Gold.Chemscore.Rot.Weighted>
6.4780

> <Gold.Chemscore.Internal.Correction.Weighted>
   9.000000E+99

> <Gold.Protein.RotatedTorsions>
[ 6907 6896 6895 6894 ] final  168.49 input  -60.11 | X-H torsion
[ 7974 7965 7964 7962 ] final -135.05 input  175.53 | X-H torsion
[ 8008 7997 7996 7995 ] final  -33.61 input   59.86 | X-H torsion
[ 10167 10162 10161 10158 ] final  -52.29 input  -65.29 | X-H torsion
[ 10718 10713 10712 10709 ] final   75.19 input   66.30 | X-H torsion
[ 10763 10752 10751 10750 ] final  -64.89 input  -60.55 | X-H torsion
[ 11005 11000 10999 10996 ] final  -76.46 input  -57.11 | X-H torsion

> <Gold.Protein.ActiveResidues>
 VAL166  LYS551  ARG553  GLY616  TRP617  ASP618  TYR619  PRO620  LYS621  CYS622 
 ASP623  PHE694  ASN695  SER759  ASP760  ASP761  ALA762  ILE779  LEU786  VAL792 
 PHE793  MET794  SER795  GLU796  ALA797  LYS798  CYS799  TRP800  GLU811  SER814 

> <Gold.Protein.RotatedAtoms>
  151.8468  133.3433  159.3660 H   0  0  0  0  0  0  0  0  0  0  0  0  # atno 6907 bound_to 6896
  150.7218  134.5338  159.5723 H   0  0  0  0  0  0  0  0  0  0  0  0  # atno 6908 bound_to 6896
  152.2823  134.7815  160.0445 H   0  0  0  0  0  0  0  0  0  0  0  0  # atno 6909 bound_to 6896
  144.9048  140.6818  143.5062 H   0  0  0  0  0  0  0  0  0  0  0  0  # atno 7974 bound_to 7965
  154.4144  140.1706  156.1916 H   0  0  0  0  0  0  0  0  0  0  0  0  # atno 8008 bound_to 7997
  155.9598  140.3394  155.6457 H   0  0  0  0  0  0  0  0  0  0  0  0  # atno 8009 bound_to 7997
  155.6763  140.0717  157.2492 H   0  0  0  0  0  0  0  0  0  0  0  0  # atno 8010 bound_to 7997
  140.6545  143.2589  151.4626 H   0  0  0  0  0  0  0  0  0  0  0  0  # atno 10167 bound_to 10162
  157.6624  130.9714  150.1319 H   0  0  0  0  0  0  0  0  0  0  0  0  # atno 10718 bound_to 10713
  154.3369  135.6165  153.5578 H   0  0  0  0  0  0  0  0  0  0  0  0  # atno 10763 bound_to 10752
  152.9807  135.5760  154.4897 H   0  0  0  0  0  0  0  0  0  0  0  0  # atno 10764 bound_to 10752
  154.4594  135.2855  155.1700 H   0  0  0  0  0  0  0  0  0  0  0  0  # atno 10765 bound_to 10752
  141.1654  133.6984  156.7672 H   0  0  0  0  0  0  0  0  0  0  0  0  # atno 11005 bound_to 11000
  145.3555  139.1695  143.4411 LP  0  0  0  0  0  0  0  0  0  0  0  0  # atno 17320 bound_to 7965
  146.3127  140.3611  142.8665 LP  0  0  0  0  0  0  0  0  0  0  0  0  # atno 17321 bound_to 7965
  139.5765  144.1807  152.1910 LP  0  0  0  0  0  0  0  0  0  0  0  0  # atno 17342 bound_to 10162
  140.1119  144.5449  150.6919 LP  0  0  0  0  0  0  0  0  0  0  0  0  # atno 17343 bound_to 10162
  156.2163  130.3670  149.8609 LP  0  0  0  0  0  0  0  0  0  0  0  0  # atno 17370 bound_to 10713
  156.6474  130.8729  151.3525 LP  0  0  0  0  0  0  0  0  0  0  0  0  # atno 17371 bound_to 10713
  140.2491  134.8555  157.3649 LP  0  0  0  0  0  0  0  0  0  0  0  0  # atno 17394 bound_to 11000
  140.1720  134.4596  155.7825 LP  0  0  0  0  0  0  0  0  0  0  0  0  # atno 17395 bound_to 11000

$$$$
