AV-unprocessed.smi:1021|AV-procd|sdf|4454|dock2
  -GOLD-   22720 2423D 1   1.00000     0.00000
 Structure written by MMmdl.
 42 44  0  0  0  0  0  0  0  0  1 V2000
  151.7414  137.1719  159.7179 O   0  0  0  0  0  0  0  0  0  0  0  0
  152.8912  137.9734  159.5438 C   0  0  0  0  0  0  0  0  0  0  0  0
  152.9001  138.6060  158.1453 C   0  0  0  0  0  0  0  0  0  0  0  0
  151.6358  139.4222  157.8347 C   0  0  0  0  0  0  0  0  0  0  0  0
  151.7225  140.8347  158.3369 C   0  0  0  0  0  0  0  0  0  0  0  0
  152.0956  141.0805  159.5937 N   0  0  0  0  0  0  0  0  0  0  0  0
  152.0390  142.4563  159.6700 C   0  0  0  0  0  0  0  0  0  0  0  0
  152.3150  143.3272  160.7483 C   0  0  0  0  0  0  0  0  0  0  0  0
  152.1751  144.7217  160.5934 C   0  0  0  0  0  0  0  0  0  0  0  0
  151.7560  145.2632  159.3613 C   0  0  0  0  0  0  0  0  0  0  0  0
  151.4784  144.4125  158.2742 C   0  0  0  0  0  0  0  0  0  0  0  0
  151.6249  143.0205  158.4314 C   0  0  0  0  0  0  0  0  0  0  0  0
  151.4448  141.9323  157.5797 N   0  0  0  0  0  0  0  0  0  0  0  0
  151.0143  142.0242  156.1864 C   0  0  0  0  0  0  0  0  0  0  0  0
  149.9960  140.9332  155.7949 C   0  0  2  0  0  0  0  0  0  0  0  0
  150.5190  140.2192  154.6930 O   0  0  0  0  0  0  0  0  0  0  0  0
  148.6098  141.4931  155.5112 C   0  0  0  0  0  0  0  0  0  0  0  0
  148.1408  141.5671  154.1819 C   0  0  0  0  0  0  0  0  0  0  0  0
  146.8602  142.0861  153.9085 C   0  0  0  0  0  0  0  0  0  0  0  0
  146.0410  142.5340  154.9629 C   0  0  0  0  0  0  0  0  0  0  0  0
  144.8092  143.0309  154.6999 F   0  0  0  0  0  0  0  0  0  0  0  0
  146.5025  142.4610  156.2912 C   0  0  0  0  0  0  0  0  0  0  0  0
  147.7821  141.9400  156.5653 C   0  0  0  0  0  0  0  0  0  0  0  0
  151.0106  137.5998  159.2982 H   0  0  0  0  0  0  0  0  0  0  0  0
  152.9241  138.7402  160.3181 H   0  0  0  0  0  0  0  0  0  0  0  0
  153.7717  137.3437  159.6743 H   0  0  0  0  0  0  0  0  0  0  0  0
  153.7707  139.2570  158.0581 H   0  0  0  0  0  0  0  0  0  0  0  0
  153.0342  137.8282  157.3973 H   0  0  0  0  0  0  0  0  0  0  0  0
  151.4129  139.3979  156.7714 H   0  0  0  0  0  0  0  0  0  0  0  0
  150.7789  138.9468  158.3135 H   0  0  0  0  0  0  0  0  0  0  0  0
  152.6318  142.9205  161.6973 H   0  0  0  0  0  0  0  0  0  0  0  0
  152.3872  145.3782  161.4244 H   0  0  0  0  0  0  0  0  0  0  0  0
  151.6475  146.3322  159.2515 H   0  0  0  0  0  0  0  0  0  0  0  0
  151.1550  144.8273  157.3312 H   0  0  0  0  0  0  0  0  0  0  0  0
  150.6160  143.0096  155.9582 H   0  0  0  0  0  0  0  0  0  0  0  0
  151.9102  141.9204  155.5726 H   0  0  0  0  0  0  0  0  0  0  0  0
  149.9108  140.2077  156.6039 H   0  0  0  0  0  0  0  0  0  0  0  0
  149.8017  139.8047  154.2381 H   0  0  0  0  0  0  0  0  0  0  0  0
  148.7605  141.2222  153.3670 H   0  0  0  0  0  0  0  0  0  0  0  0
  146.5061  142.1388  152.8897 H   0  0  0  0  0  0  0  0  0  0  0  0
  145.8732  142.7991  157.1011 H   0  0  0  0  0  0  0  0  0  0  0  0
  148.1235  141.8812  157.5884 H   0  0  0  0  0  0  0  0  0  0  0  0
  1  2  1  0  0  0  0
  1 24  1  0  0  0  0
  2  3  1  0  0  0  0
  2 25  1  0  0  0  0
  2 26  1  0  0  0  0
  3  4  1  0  0  0  0
  3 27  1  0  0  0  0
  3 28  1  0  0  0  0
  4  5  1  0  0  0  0
  4 29  1  0  0  0  0
  4 30  1  0  0  0  0
  5 13  1  0  0  0  0
  5  6  2  0  0  0  0
  6  7  1  0  0  0  0
  7 12  2  0  0  0  0
  7  8  1  0  0  0  0
  8  9  2  0  0  0  0
  8 31  1  0  0  0  0
  9 10  1  0  0  0  0
  9 32  1  0  0  0  0
 10 11  2  0  0  0  0
 10 33  1  0  0  0  0
 11 12  1  0  0  0  0
 11 34  1  0  0  0  0
 12 13  1  0  0  0  0
 13 14  1  0  0  0  0
 14 15  1  0  0  0  0
 14 35  1  0  0  0  0
 14 36  1  0  0  0  0
 15 16  1  0  0  0  0
 15 17  1  0  0  0  0
 15 37  1  0  0  0  0
 16 38  1  0  0  0  0
 17 23  1  0  0  0  0
 17 18  2  0  0  0  0
 18 19  1  0  0  0  0
 18 39  1  0  0  0  0
 19 20  2  0  0  0  0
 19 40  1  0  0  0  0
 20 21  1  0  0  0  0
 20 22  1  0  0  0  0
 22 23  2  0  0  0  0
 22 41  1  0  0  0  0
 23 42  1  0  0  0  0
M  END
> <s_m_source_file>
AV-unprocessed.smi

> <i_m_source_file_index>
1021

> <i_lp_mmshare_version>
43012

> <i_f3d_flags>
0

> <s_epik_input>
W09IXVtDSDJdW0NIMl1bQ0gyXWMobjEpbihjKGMxMilbY0hdW2NIXVtjSF1bY0hdMilbQ0gyXVtDQEhdKFtPSF0pYzNbY0hdW2NIXWMoRilbY0hdW2NIXTM=

> <s_epik_cmdline>
J2VwaWtfcHl0aG9uJywgJy1waCcsICc3LjAnLCAnLXRuJywgJzgnLCAnLW1hJywgJzIwMCcsICctbWV0YWxfYmluZGluZycsICctaW1hZScsICc8aW5maWxlLm1hZT4nLCAnLW9tYWUnLCAnPG91dGZpbGUubWFlPic=

> <r_epik_Ionization_Penalty>
0.182562

> <r_epik_Ionization_Penalty_Charging>
0

> <r_epik_Ionization_Penalty_Neutral>
0.182562

> <r_epik_State_Penalty>
0.172086

> <r_epik_Charging_Adjusted_Penalty>
0.172086

> <i_epik_Tot_Q>
0

> <i_epik_Tot_abs_Q>
0

> <r_epik_Metal_State_Penalty>
0.000199649

> <b_epik_Metal_Only>
0

> <s_lp_Force_Field>
OPLS_2005

> <r_lp_Energy>
12.4475

> <b_lp_Chiralities_Consistent>
1

> <s_lp_Variant>
AV-unprocessed.smi:1021-1

> <Gold.Version>
5.8.1

> <Gold.Id.Protein>
6NUR|6NUR_protein|mol2

> <Gold.PLP.Fitness>
54.1714

> <Gold.PLP.PLP>
-51.2892

> <Gold.PLP.part.hbond>
-2.0000

> <Gold.PLP.part.metal>
0.0000

> <Gold.PLP.part.buried>
-7.4852

> <Gold.PLP.part.nonpolar>
-41.2620

> <Gold.PLP.part.repulsive>
0.0000

> <Gold.PLP.ligand.clash>
0.0000

> <Gold.PLP.ligand.torsion>
1.6200

> <Gold.PLP.Chemscore.Hbond>
2.0000

> <Gold.PLP.Chemscore.CHOScore>
0.0000

> <Gold.PLP.Chemscore.Metal>
0.0000

> <Gold.Chemscore.Hbonds>
donor molecule, donor type, donor heavy atom, donor atom, acceptor molecule, acceptor atom, score
      P1  H  6896  6907       L1     1  1.00
      P1  H  7989  7998       L1    16  1.00

> <Gold.PLP.Chemscore.Internal.Correction>
0.1221

> <Gold.Rescore>
     Score         DG    S(hbond)    S(metal)    S(lipo)     H(rot)  DE(clash)    DE(int)     intcor
     16.17     -19.00       1.92        0.00     127.93       3.07       0.25       2.58       ----

> <Gold.Chemscore.Fitness>
16.1688

> <Gold.Chemscore.DG>
-18.9990

> <Gold.Chemscore.ZeroCoef>
-5.4800

> <Gold.Chemscore.Hbond>
1.9223

> <Gold.Chemscore.Metal>
0.0000

> <Gold.Chemscore.Lipo>
127.9334

> <Gold.Chemscore.Internal_Hbond>
0.0000

> <Gold.Chemscore.DEClash>
0.2459

> <Gold.Chemscore.DEInternal>
2.5842

> <Gold.Chemscore.Rot>
3.0741

> <Gold.Chemscore.Internal.Correction>
   9.000000E+99

> <Gold.Chemscore.Hbonds>
donor molecule, donor type, donor heavy atom, donor atom, acceptor molecule, acceptor atom, score
      P1  H  6896  6907       L1     1  0.82
      P1  H  7989  7998       L1    16  0.65

> <Gold.Chemscore.Hbond.Weighted>
-6.4205

> <Gold.Chemscore.Metal.Weighted>
-0.0000

> <Gold.Chemscore.Lipo.Weighted>
-14.9682

> <Gold.Chemscore.Internal_Hbond.Weighted>
0.0000

> <Gold.Chemscore.DEClash.Weighted>
0.2459

> <Gold.Chemscore.DEInternal.Weighted>
2.5842

> <Gold.Chemscore.Rot.Weighted>
7.8698

> <Gold.Chemscore.Internal.Correction.Weighted>
   9.000000E+99

> <Gold.Protein.RotatedTorsions>
[ 6907 6896 6895 6894 ] final   -5.41 input  -60.11 | X-H torsion
[ 7974 7965 7964 7962 ] final  -56.78 input  175.53 | X-H torsion
[ 8008 7997 7996 7995 ] final   -8.70 input   59.86 | X-H torsion
[ 10167 10162 10161 10158 ] final -132.80 input  -65.29 | X-H torsion
[ 10718 10713 10712 10709 ] final -106.76 input   66.30 | X-H torsion
[ 10763 10752 10751 10750 ] final   80.18 input  -60.55 | X-H torsion
[ 11005 11000 10999 10996 ] final  -71.10 input  -57.11 | X-H torsion

> <Gold.Protein.ActiveResidues>
 VAL166  LYS551  ARG553  GLY616  TRP617  ASP618  TYR619  PRO620  LYS621  CYS622 
 ASP623  PHE694  ASN695  SER759  ASP760  ASP761  ALA762  ILE779  LEU786  VAL792 
 PHE793  MET794  SER795  GLU796  ALA797  LYS798  CYS799  TRP800  GLU811  SER814 

> <Gold.Protein.RotatedAtoms>
  151.4821  135.1053  159.9780 H   0  0  0  0  0  0  0  0  0  0  0  0  # atno 6907 bound_to 6896
  152.4775  133.8169  159.7044 H   0  0  0  0  0  0  0  0  0  0  0  0  # atno 6908 bound_to 6896
  150.8823  133.7294  159.2955 H   0  0  0  0  0  0  0  0  0  0  0  0  # atno 6909 bound_to 6896
  145.8587  140.8301  142.9948 H   0  0  0  0  0  0  0  0  0  0  0  0  # atno 7974 bound_to 7965
  154.5716  140.2374  155.8183 H   0  0  0  0  0  0  0  0  0  0  0  0  # atno 8008 bound_to 7997
  156.2111  140.3026  155.9692 H   0  0  0  0  0  0  0  0  0  0  0  0  # atno 8009 bound_to 7997
  155.2702  140.0418  157.2996 H   0  0  0  0  0  0  0  0  0  0  0  0  # atno 8010 bound_to 7997
  139.9048  143.6564  152.2587 H   0  0  0  0  0  0  0  0  0  0  0  0  # atno 10167 bound_to 10162
  156.0405  130.5629  150.7726 H   0  0  0  0  0  0  0  0  0  0  0  0  # atno 10718 bound_to 10713
  153.1012  135.4812  154.8870 H   0  0  0  0  0  0  0  0  0  0  0  0  # atno 10763 bound_to 10752
  154.7381  135.3075  154.8779 H   0  0  0  0  0  0  0  0  0  0  0  0  # atno 10764 bound_to 10752
  153.9395  135.6835  153.4798 H   0  0  0  0  0  0  0  0  0  0  0  0  # atno 10765 bound_to 10752
  141.1586  133.6808  156.6854 H   0  0  0  0  0  0  0  0  0  0  0  0  # atno 11005 bound_to 11000
  144.6727  140.1063  143.7458 LP  0  0  0  0  0  0  0  0  0  0  0  0  # atno 17320 bound_to 7965
  145.9273  139.2584  143.1346 LP  0  0  0  0  0  0  0  0  0  0  0  0  # atno 17321 bound_to 7965
  139.6994  144.7637  151.1300 LP  0  0  0  0  0  0  0  0  0  0  0  0  # atno 17342 bound_to 10162
  140.7699  143.5479  150.9238 LP  0  0  0  0  0  0  0  0  0  0  0  0  # atno 17343 bound_to 10162
  157.5216  131.0932  151.0071 LP  0  0  0  0  0  0  0  0  0  0  0  0  # atno 17370 bound_to 10713
  157.0400  130.5745  149.5355 LP  0  0  0  0  0  0  0  0  0  0  0  0  # atno 17371 bound_to 10713
  140.3070  134.8117  157.4145 LP  0  0  0  0  0  0  0  0  0  0  0  0  # atno 17394 bound_to 11000
  140.1211  134.5218  155.8183 LP  0  0  0  0  0  0  0  0  0  0  0  0  # atno 17395 bound_to 11000

$$$$
