AV-unprocessed.smi:678|AV-procd|sdf|3315|dock8
  -GOLD-   22720 0283D 1   1.00000     0.00000
 Structure written by MMmdl.
 51 52  0  0  0  0  0  0  0  0  2 V2000
  150.9988  141.9553  158.0336 C   0  0  0  0  0  0  0  0  0  0  0  0
  150.4882  141.2651  156.7810 C   0  0  0  0  0  0  0  0  0  0  0  0
  149.3629  141.6769  156.1574 C   0  0  0  0  0  0  0  0  0  0  0  0
  148.8823  141.0124  154.9703 C   0  0  0  0  0  0  0  0  0  0  0  0
  149.5835  139.9716  154.4987 C   0  0  0  0  0  0  0  0  0  0  0  0
  150.7602  139.5239  155.1276 N   0  0  0  0  0  0  0  0  0  0  0  0
  151.4458  138.3691  154.5220 C   0  0  0  0  0  0  0  0  0  0  0  0
  151.3093  137.0888  155.3574 C   0  0  0  0  0  0  0  0  0  0  0  0
  152.2681  136.6509  155.9944 O   0  0  0  0  0  0  0  0  0  0  0  0
  150.1042  136.4999  155.3441 N   0  0  0  0  0  0  0  0  0  0  0  0
  149.7813  135.2350  155.9951 C   0  0  0  0  0  0  0  0  0  0  0  0
  149.1015  134.2616  155.0150 C   0  0  2  0  0  0  0  0  0  0  0  0
  147.5770  134.4990  154.9314 C   0  0  0  0  0  0  0  0  0  0  0  0
  146.9084  133.4938  154.0639 N   0  3  1  0  0  0  0  0  0  0  0  0
  147.0575  133.7297  152.6018 C   0  0  0  0  0  0  0  0  0  0  0  0
  146.2008  132.7722  151.7452 C   0  0  0  0  0  0  0  0  0  0  0  0
  146.5148  132.9087  150.2457 C   0  0  0  0  0  0  0  0  0  0  0  0
  144.7053  133.0098  152.0025 C   0  0  0  0  0  0  0  0  0  0  0  0
  147.2765  132.1197  154.4837 C   0  0  0  0  0  0  0  0  0  0  0  0
  148.8038  131.9548  154.5666 C   0  0  0  0  0  0  0  0  0  0  0  0
  149.3283  132.9273  155.4600 O   0  0  0  0  0  0  0  0  0  0  0  0
  151.2571  140.1211  156.2562 C   0  0  0  0  0  0  0  0  0  0  0  0
  152.2885  139.7161  156.7972 O   0  0  0  0  0  0  0  0  0  0  0  0
  150.3497  142.7814  158.3257 H   0  0  0  0  0  0  0  0  0  0  0  0
  151.9994  142.3559  157.8678 H   0  0  0  0  0  0  0  0  0  0  0  0
  151.0429  141.2520  158.8659 H   0  0  0  0  0  0  0  0  0  0  0  0
  148.8059  142.5154  156.5494 H   0  0  0  0  0  0  0  0  0  0  0  0
  147.9793  141.3419  154.4774 H   0  0  0  0  0  0  0  0  0  0  0  0
  149.2872  139.4166  153.6205 H   0  0  0  0  0  0  0  0  0  0  0  0
  151.0590  138.1635  153.5231 H   0  0  0  0  0  0  0  0  0  0  0  0
  152.5020  138.6057  154.3777 H   0  0  0  0  0  0  0  0  0  0  0  0
  149.3696  136.9377  154.8067 H   0  0  0  0  0  0  0  0  0  0  0  0
  150.6707  134.7835  156.4381 H   0  0  0  0  0  0  0  0  0  0  0  0
  149.1050  135.4566  156.8211 H   0  0  0  0  0  0  0  0  0  0  0  0
  149.5545  134.3954  154.0317 H   0  0  0  0  0  0  0  0  0  0  0  0
  147.1456  134.4186  155.9302 H   0  0  0  0  0  0  0  0  0  0  0  0
  147.3641  135.5119  154.5926 H   0  0  0  0  0  0  0  0  0  0  0  0
  146.8202  134.7667  152.3650 H   0  0  0  0  0  0  0  0  0  0  0  0
  148.1017  133.5923  152.3174 H   0  0  0  0  0  0  0  0  0  0  0  0
  146.4085  131.7434  152.0381 H   0  0  0  0  0  0  0  0  0  0  0  0
  146.3233  133.9220  149.8907 H   0  0  0  0  0  0  0  0  0  0  0  0
  145.9007  132.2294  149.6537 H   0  0  0  0  0  0  0  0  0  0  0  0
  147.5571  132.6718  150.0316 H   0  0  0  0  0  0  0  0  0  0  0  0
  144.4105  134.0228  151.7261 H   0  0  0  0  0  0  0  0  0  0  0  0
  144.4590  132.8670  153.0551 H   0  0  0  0  0  0  0  0  0  0  0  0
  144.0915  132.3165  151.4268 H   0  0  0  0  0  0  0  0  0  0  0  0
  146.8422  131.9343  155.4669 H   0  0  0  0  0  0  0  0  0  0  0  0
  146.8398  131.3788  153.8131 H   0  0  0  0  0  0  0  0  0  0  0  0
  149.0539  130.9626  154.9426 H   0  0  0  0  0  0  0  0  0  0  0  0
  149.2703  132.0487  153.5848 H   0  0  0  0  0  0  0  0  0  0  0  0
  145.9168  133.5752  154.2394 H   0  0  0  0  0  0  0  0  0  0  0  0
  1  2  1  0  0  0  0
  1 24  1  0  0  0  0
  1 25  1  0  0  0  0
  1 26  1  0  0  0  0
  2 22  1  0  0  0  0
  2  3  2  0  0  0  0
  3  4  1  0  0  0  0
  3 27  1  0  0  0  0
  4  5  2  0  0  0  0
  4 28  1  0  0  0  0
  5  6  1  0  0  0  0
  5 29  1  0  0  0  0
  6  7  1  0  0  0  0
  6 22  1  0  0  0  0
  7  8  1  0  0  0  0
  7 30  1  0  0  0  0
  7 31  1  0  0  0  0
  8  9  2  0  0  0  0
  8 10  1  0  0  0  0
 10 11  1  0  0  0  0
 10 32  1  0  0  0  0
 11 12  1  0  0  0  0
 11 33  1  0  0  0  0
 11 34  1  0  0  0  0
 12 21  1  0  0  0  0
 12 13  1  0  0  0  0
 12 35  1  0  0  0  0
 13 14  1  0  0  0  0
 13 36  1  0  0  0  0
 13 37  1  0  0  0  0
 14 15  1  0  0  0  0
 14 19  1  0  0  0  0
 14 51  1  0  0  0  0
 15 16  1  0  0  0  0
 15 38  1  0  0  0  0
 15 39  1  0  0  0  0
 16 17  1  0  0  0  0
 16 18  1  0  0  0  0
 16 40  1  0  0  0  0
 17 41  1  0  0  0  0
 17 42  1  0  0  0  0
 17 43  1  0  0  0  0
 18 44  1  0  0  0  0
 18 45  1  0  0  0  0
 18 46  1  0  0  0  0
 19 20  1  0  0  0  0
 19 47  1  0  0  0  0
 19 48  1  0  0  0  0
 20 21  1  0  0  0  0
 20 49  1  0  0  0  0
 20 50  1  0  0  0  0
 22 23  2  0  0  0  0
M  CHG  1  14   1
M  END
> <s_m_source_file>
AV-unprocessed.smi

> <i_m_source_file_index>
678

> <i_lp_mmshare_version>
43012

> <i_f3d_flags>
0

> <s_epik_input>
W0NIM11jMVtjSF1bY0hdW2NIXW4oYzE9TylbQ0gyXUMoPU8pW05IXVtDSDJdW0NAQEhdMltDSDJdTihbQ0gyXVtDSDJdTzIpW0NIMl1bQ0hdKFtDSDNdKVtDSDNd

> <s_epik_cmdline>
J2VwaWtfcHl0aG9uJywgJy1waCcsICc3LjAnLCAnLXRuJywgJzgnLCAnLW1hJywgJzIwMCcsICctbWV0YWxfYmluZGluZycsICctaW1hZScsICc8aW5maWxlLm1hZT4nLCAnLW9tYWUnLCAnPG91dGZpbGUubWFlPic=

> <r_lp_tautomer_probability>
1

> <r_epik_Ionization_Penalty>
0.0975937

> <r_epik_Ionization_Penalty_Charging>
0.0975937

> <r_epik_Ionization_Penalty_Neutral>
6.27044e-08

> <r_epik_State_Penalty>
0.0877056

> <r_epik_Charging_Adjusted_Penalty>
0.185299

> <i_epik_Tot_Q>
1

> <i_epik_Tot_abs_Q>
1

> <r_epik_Metal_State_Penalty>
0.0877109

> <b_epik_Metal_Only>
0

> <s_lp_Force_Field>
OPLS_2005

> <r_lp_Energy>
29.877

> <b_lp_Chiralities_Consistent>
1

> <s_lp_Variant>
AV-unprocessed.smi:678-3

> <Gold.Version>
5.8.1

> <Gold.Id.Protein>
6NUR|6NUR_protein|mol2

> <Gold.PLP.Fitness>
44.5138

> <Gold.PLP.PLP>
-36.6467

> <Gold.PLP.part.hbond>
-1.7559

> <Gold.PLP.part.metal>
0.0000

> <Gold.PLP.part.buried>
0.6786

> <Gold.PLP.part.nonpolar>
-34.0197

> <Gold.PLP.part.repulsive>
0.0825

> <Gold.PLP.ligand.clash>
0.0000

> <Gold.PLP.ligand.torsion>
0.6185

> <Gold.PLP.Chemscore.Hbond>
1.9920

> <Gold.PLP.Chemscore.CHOScore>
0.9989

> <Gold.PLP.Chemscore.Metal>
0.0000

> <Gold.Chemscore.Hbonds>
donor molecule, donor type, donor heavy atom, donor atom, acceptor molecule, acceptor atom, score
      P1  H  7997  8009       L1    23  0.78
      P1  H 10752 10765       L1     9  1.00
      L1  C     5    29       P1  7957  0.91

> <Gold.PLP.Chemscore.Internal.Correction>
0.1314

> <Gold.Rescore>
     Score         DG    S(hbond)    S(metal)    S(lipo)     H(rot)  DE(clash)    DE(int)     intcor
     15.63     -16.18       1.71        0.00      83.84       1.89       0.06       0.49       ----

> <Gold.Chemscore.Fitness>
15.6305

> <Gold.Chemscore.DG>
-16.1811

> <Gold.Chemscore.ZeroCoef>
-5.4800

> <Gold.Chemscore.Hbond>
1.7134

> <Gold.Chemscore.Metal>
0.0000

> <Gold.Chemscore.Lipo>
83.8395

> <Gold.Chemscore.Internal_Hbond>
0.0000

> <Gold.Chemscore.DEClash>
0.0589

> <Gold.Chemscore.DEInternal>
0.4916

> <Gold.Chemscore.Rot>
1.8871

> <Gold.Chemscore.Internal.Correction>
   9.000000E+99

> <Gold.Chemscore.Hbonds>
donor molecule, donor type, donor heavy atom, donor atom, acceptor molecule, acceptor atom, score
      P1  H  7997  8009       L1    23  0.77
      P1  H 10752 10765       L1     9  0.83

> <Gold.Chemscore.Hbond.Weighted>
-5.7228

> <Gold.Chemscore.Metal.Weighted>
-0.0000

> <Gold.Chemscore.Lipo.Weighted>
-9.8092

> <Gold.Chemscore.Internal_Hbond.Weighted>
0.0000

> <Gold.Chemscore.DEClash.Weighted>
0.0589

> <Gold.Chemscore.DEInternal.Weighted>
0.4916

> <Gold.Chemscore.Rot.Weighted>
4.8309

> <Gold.Chemscore.Internal.Correction.Weighted>
   9.000000E+99

> <Gold.Protein.RotatedTorsions>
[ 6907 6896 6895 6894 ] final -117.82 input  -60.11 | X-H torsion
[ 7974 7965 7964 7962 ] final -123.17 input  175.53 | X-H torsion
[ 8008 7997 7996 7995 ] final -178.74 input   59.86 | X-H torsion
[ 10167 10162 10161 10158 ] final   52.05 input  -65.29 | X-H torsion
[ 10718 10713 10712 10709 ] final  -36.49 input   66.30 | X-H torsion
[ 10763 10752 10751 10750 ] final -145.61 input  -60.55 | X-H torsion
[ 11005 11000 10999 10996 ] final  118.09 input  -57.11 | X-H torsion

> <Gold.Protein.ActiveResidues>
 VAL166  LYS551  ARG553  GLY616  TRP617  ASP618  TYR619  PRO620  LYS621  CYS622 
 ASP623  PHE694  ASN695  SER759  ASP760  ASP761  ALA762  ILE779  LEU786  VAL792 
 PHE793  MET794  SER795  GLU796  ALA797  LYS798  CYS799  TRP800  GLU811  SER814 

> <Gold.Protein.RotatedAtoms>
  150.8168  133.8322  159.3156 H   0  0  0  0  0  0  0  0  0  0  0  0  # atno 6907 bound_to 6896
  151.6092  135.1040  160.0087 H   0  0  0  0  0  0  0  0  0  0  0  0  # atno 6908 bound_to 6896
  152.4259  133.7154  159.6559 H   0  0  0  0  0  0  0  0  0  0  0  0  # atno 6909 bound_to 6896
  145.0216  140.7992  143.4378 H   0  0  0  0  0  0  0  0  0  0  0  0  # atno 7974 bound_to 7965
  156.0224  140.1264  157.0344 H   0  0  0  0  0  0  0  0  0  0  0  0  # atno 8008 bound_to 7997
  154.4317  140.1066  156.6052 H   0  0  0  0  0  0  0  0  0  0  0  0  # atno 8009 bound_to 7997
  155.5926  140.3469  155.4573 H   0  0  0  0  0  0  0  0  0  0  0  0  # atno 8010 bound_to 7997
  140.2554  144.3432  150.6334 H   0  0  0  0  0  0  0  0  0  0  0  0  # atno 10167 bound_to 10162
  156.3262  130.4273  149.7914 H   0  0  0  0  0  0  0  0  0  0  0  0  # atno 10718 bound_to 10713
  154.8375  135.3408  154.6531 H   0  0  0  0  0  0  0  0  0  0  0  0  # atno 10763 bound_to 10752
  153.7144  135.6962  153.5033 H   0  0  0  0  0  0  0  0  0  0  0  0  # atno 10764 bound_to 10752
  153.2427  135.4379  155.0669 H   0  0  0  0  0  0  0  0  0  0  0  0  # atno 10765 bound_to 10752
  139.9097  134.9617  156.7449 H   0  0  0  0  0  0  0  0  0  0  0  0  # atno 11005 bound_to 11000
  145.1889  139.2312  143.5253 LP  0  0  0  0  0  0  0  0  0  0  0  0  # atno 17320 bound_to 7965
  146.3486  140.1680  142.8590 LP  0  0  0  0  0  0  0  0  0  0  0  0  # atno 17321 bound_to 7965
  140.6007  143.2167  151.7077 LP  0  0  0  0  0  0  0  0  0  0  0  0  # atno 17342 bound_to 10162
  139.5033  144.3796  152.0389 LP  0  0  0  0  0  0  0  0  0  0  0  0  # atno 17343 bound_to 10162
  156.5203  130.8212  151.3201 LP  0  0  0  0  0  0  0  0  0  0  0  0  # atno 17370 bound_to 10713
  157.7422  130.9885  150.2497 LP  0  0  0  0  0  0  0  0  0  0  0  0  # atno 17371 bound_to 10713
  140.6819  133.9466  155.7915 LP  0  0  0  0  0  0  0  0  0  0  0  0  # atno 17394 bound_to 11000
  141.0504  134.0493  157.3791 LP  0  0  0  0  0  0  0  0  0  0  0  0  # atno 17395 bound_to 11000

$$$$
