AV-unprocessed.smi:1356|AV-procd|sdf|5541|dock7
  -GOLD-   22720 5133D 1   1.00000     0.00000
 Structure written by MMmdl.
 41 42  0  0  0  0  0  0  0  0  1 V2000
  149.5607  131.6032  155.6235 C   0  0  0  0  0  0  0  0  0  0  0  0
  149.2674  132.1359  154.2317 C   0  0  1  0  0  0  0  0  0  0  0  0
  147.9777  132.8736  153.9679 C   0  0  0  0  0  0  0  0  0  0  0  0
  149.2959  133.6119  153.8545 C   0  0  1  0  0  0  0  0  0  0  0  0
  149.6369  134.6167  154.9027 C   0  0  0  0  0  0  0  0  0  0  0  0
  149.8796  134.2975  156.0665 O   0  0  0  0  0  0  0  0  0  0  0  0
  149.7096  135.8798  154.4550 N   0  0  0  0  0  0  0  0  0  0  0  0
  150.0402  137.0395  155.2752 C   0  0  0  0  0  0  0  0  0  0  0  0
  151.3303  137.7256  154.7836 C   0  0  0  0  0  0  0  0  0  0  0  0
  151.7535  138.9227  155.6412 C   0  0  0  0  0  0  0  0  0  0  0  0
  152.4949  139.7965  155.1900 O   0  0  0  0  0  0  0  0  0  0  0  0
  151.2666  138.9469  156.8912 N   0  0  0  0  0  0  0  0  0  0  0  0
  151.5537  139.9749  157.8849 C   0  0  0  0  0  0  0  0  0  0  0  0
  150.7119  141.2420  157.6581 C   0  0  0  0  0  0  0  0  0  0  0  0
  151.3350  142.4646  158.3046 C   0  0  0  0  0  0  0  0  0  0  0  0
  151.4756  143.6685  157.5818 C   0  0  0  0  0  0  0  0  0  0  0  0
  152.0722  144.7708  158.2241 C   0  0  0  0  0  0  0  0  0  0  0  0
  152.5034  144.6273  159.5569 C   0  0  0  0  0  0  0  0  0  0  0  0
  152.3186  143.3823  160.1907 C   0  0  0  0  0  0  0  0  0  0  0  0
  151.7489  142.3187  159.5837 N   0  0  0  0  0  0  0  0  0  0  0  0
  149.1135  132.2336  156.3927 H   0  0  0  0  0  0  0  0  0  0  0  0
  150.6372  131.5598  155.7892 H   0  0  0  0  0  0  0  0  0  0  0  0
  149.1539  130.5976  155.7290 H   0  0  0  0  0  0  0  0  0  0  0  0
  149.6117  131.4651  153.4470 H   0  0  0  0  0  0  0  0  0  0  0  0
  147.4484  132.6609  153.0414 H   0  0  0  0  0  0  0  0  0  0  0  0
  147.3380  133.0909  154.8218 H   0  0  0  0  0  0  0  0  0  0  0  0
  149.6755  133.8322  152.8586 H   0  0  0  0  0  0  0  0  0  0  0  0
  149.5148  136.0494  153.4788 H   0  0  0  0  0  0  0  0  0  0  0  0
  149.2035  137.7408  155.2800 H   0  0  0  0  0  0  0  0  0  0  0  0
  150.1652  136.6977  156.3033 H   0  0  0  0  0  0  0  0  0  0  0  0
  152.1490  137.0052  154.7648 H   0  0  0  0  0  0  0  0  0  0  0  0
  151.1951  138.0729  153.7579 H   0  0  0  0  0  0  0  0  0  0  0  0
  150.6642  138.1899  157.1800 H   0  0  0  0  0  0  0  0  0  0  0  0
  151.3390  139.5574  158.8689 H   0  0  0  0  0  0  0  0  0  0  0  0
  152.6181  140.2162  157.8755 H   0  0  0  0  0  0  0  0  0  0  0  0
  150.5902  141.4296  156.5905 H   0  0  0  0  0  0  0  0  0  0  0  0
  149.7076  141.1016  158.0604 H   0  0  0  0  0  0  0  0  0  0  0  0
  151.1380  143.7461  156.5587 H   0  0  0  0  0  0  0  0  0  0  0  0
  152.1981  145.7086  157.7040 H   0  0  0  0  0  0  0  0  0  0  0  0
  152.9655  145.4508  160.0809 H   0  0  0  0  0  0  0  0  0  0  0  0
  152.6385  143.2368  161.2119 H   0  0  0  0  0  0  0  0  0  0  0  0
  1  2  1  0  0  0  0
  1 21  1  0  0  0  0
  1 22  1  0  0  0  0
  1 23  1  0  0  0  0
  2  4  1  0  0  0  0
  2  3  1  0  0  0  0
  2 24  1  0  0  0  0
  3  4  1  0  0  0  0
  3 25  1  0  0  0  0
  3 26  1  0  0  0  0
  4  5  1  0  0  0  0
  4 27  1  0  0  0  0
  5  6  2  0  0  0  0
  5  7  1  0  0  0  0
  7  8  1  0  0  0  0
  7 28  1  0  0  0  0
  8  9  1  0  0  0  0
  8 29  1  0  0  0  0
  8 30  1  0  0  0  0
  9 10  1  0  0  0  0
  9 31  1  0  0  0  0
  9 32  1  0  0  0  0
 10 11  2  0  0  0  0
 10 12  1  0  0  0  0
 12 13  1  0  0  0  0
 12 33  1  0  0  0  0
 13 14  1  0  0  0  0
 13 34  1  0  0  0  0
 13 35  1  0  0  0  0
 14 15  1  0  0  0  0
 14 36  1  0  0  0  0
 14 37  1  0  0  0  0
 15 20  1  0  0  0  0
 15 16  2  0  0  0  0
 16 17  1  0  0  0  0
 16 38  1  0  0  0  0
 17 18  2  0  0  0  0
 17 39  1  0  0  0  0
 18 19  1  0  0  0  0
 18 40  1  0  0  0  0
 19 20  2  0  0  0  0
 19 41  1  0  0  0  0
M  END
> <s_m_source_file>
AV-unprocessed.smi

> <i_m_source_file_index>
1356

> <i_lp_mmshare_version>
43012

> <i_f3d_flags>
0

> <s_epik_input>
W0NIM11bQ0BASF0xW0NIMl1bQ0BIXTFDKD1PKVtOSF1bQ0gyXVtDSDJdQyg9TylbTkhdW0NIMl1bQ0gyXWMyW2NIXVtjSF1bY0hdW2NIXW4y

> <s_epik_cmdline>
J2VwaWtfcHl0aG9uJywgJy1waCcsICc3LjAnLCAnLXRuJywgJzgnLCAnLW1hJywgJzIwMCcsICctbWV0YWxfYmluZGluZycsICctaW1hZScsICc8aW5maWxlLm1hZT4nLCAnLW9tYWUnLCAnPG91dGZpbGUubWFlPic=

> <r_epik_Ionization_Penalty>
0.0258005

> <r_epik_Ionization_Penalty_Charging>
0

> <r_epik_Ionization_Penalty_Neutral>
0.0258005

> <r_epik_State_Penalty>
0.0210245

> <r_epik_Charging_Adjusted_Penalty>
0.0210245

> <i_epik_Tot_Q>
0

> <i_epik_Tot_abs_Q>
0

> <r_epik_Metal_State_Penalty>
0.0201445

> <b_epik_Metal_Only>
0

> <s_lp_Force_Field>
OPLS_2005

> <r_lp_Energy>
8.2515

> <b_lp_Chiralities_Consistent>
1

> <s_lp_Variant>
AV-unprocessed.smi:1356-2

> <Gold.Version>
5.8.1

> <Gold.Id.Protein>
6NUR|6NUR_protein|mol2

> <Gold.PLP.Fitness>
49.2022

> <Gold.PLP.PLP>
-43.4979

> <Gold.PLP.part.hbond>
-3.1199

> <Gold.PLP.part.metal>
0.0000

> <Gold.PLP.part.buried>
-5.1960

> <Gold.PLP.part.nonpolar>
-35.0969

> <Gold.PLP.part.repulsive>
0.1304

> <Gold.PLP.ligand.clash>
0.0359

> <Gold.PLP.ligand.torsion>
0.7363

> <Gold.PLP.Chemscore.Hbond>
2.3559

> <Gold.PLP.Chemscore.CHOScore>
0.0000

> <Gold.PLP.Chemscore.Metal>
0.0000

> <Gold.Chemscore.Hbonds>
donor molecule, donor type, donor heavy atom, donor atom, acceptor molecule, acceptor atom, score
      L1  H     7    28       P1  7948  1.00
      P1  H  7989  7998       L1    11  0.44
      P1  H  7997  8009       L1    11  0.81

> <Gold.PLP.Chemscore.Internal.Correction>
0.1451

> <Gold.Rescore>
     Score         DG    S(hbond)    S(metal)    S(lipo)     H(rot)  DE(clash)    DE(int)     intcor
     15.87     -18.19       1.82        0.00     104.37       2.18       0.09       2.23       ----

> <Gold.Chemscore.Fitness>
15.8714

> <Gold.Chemscore.DG>
-18.1947

> <Gold.Chemscore.ZeroCoef>
-5.4800

> <Gold.Chemscore.Hbond>
1.8181

> <Gold.Chemscore.Metal>
0.0000

> <Gold.Chemscore.Lipo>
104.3679

> <Gold.Chemscore.Internal_Hbond>
0.0000

> <Gold.Chemscore.DEClash>
0.0888

> <Gold.Chemscore.DEInternal>
2.2345

> <Gold.Chemscore.Rot>
2.1753

> <Gold.Chemscore.Internal.Correction>
   9.000000E+99

> <Gold.Chemscore.Hbonds>
donor molecule, donor type, donor heavy atom, donor atom, acceptor molecule, acceptor atom, score
      L1  H     7    28       P1  7948  0.40
      P1  H  7989  7998       L1    11  0.40
      P1  H  7997  8009       L1    11  0.80

> <Gold.Chemscore.Hbond.Weighted>
-6.0723

> <Gold.Chemscore.Metal.Weighted>
-0.0000

> <Gold.Chemscore.Lipo.Weighted>
-12.2110

> <Gold.Chemscore.Internal_Hbond.Weighted>
0.0000

> <Gold.Chemscore.DEClash.Weighted>
0.0888

> <Gold.Chemscore.DEInternal.Weighted>
2.2345

> <Gold.Chemscore.Rot.Weighted>
5.5687

> <Gold.Chemscore.Internal.Correction.Weighted>
   9.000000E+99

> <Gold.Protein.RotatedTorsions>
[ 6907 6896 6895 6894 ] final  169.89 input  -60.11 | X-H torsion
[ 7974 7965 7964 7962 ] final   38.47 input  175.53 | X-H torsion
[ 8008 7997 7996 7995 ] final -137.50 input   59.86 | X-H torsion
[ 10167 10162 10161 10158 ] final  -30.27 input  -65.29 | X-H torsion
[ 10718 10713 10712 10709 ] final    7.92 input   66.30 | X-H torsion
[ 10763 10752 10751 10750 ] final  176.36 input  -60.55 | X-H torsion
[ 11005 11000 10999 10996 ] final   78.08 input  -57.11 | X-H torsion

> <Gold.Protein.ActiveResidues>
 VAL166  LYS551  ARG553  GLY616  TRP617  ASP618  TYR619  PRO620  LYS621  CYS622 
 ASP623  PHE694  ASN695  SER759  ASP760  ASP761  ALA762  ILE779  LEU786  VAL792 
 PHE793  MET794  SER795  GLU796  ALA797  LYS798  CYS799  TRP800  GLU811  SER814 

> <Gold.Protein.RotatedAtoms>
  151.8247  133.3399  159.3594 H   0  0  0  0  0  0  0  0  0  0  0  0  # atno 6907 bound_to 6896
  150.7283  134.5540  159.5818 H   0  0  0  0  0  0  0  0  0  0  0  0  # atno 6908 bound_to 6896
  152.2980  134.7645  160.0415 H   0  0  0  0  0  0  0  0  0  0  0  0  # atno 6909 bound_to 6896
  146.1059  139.5768  142.9384 H   0  0  0  0  0  0  0  0  0  0  0  0  # atno 7974 bound_to 7965
  155.4129  140.0513  157.3030 H   0  0  0  0  0  0  0  0  0  0  0  0  # atno 8008 bound_to 7997
  154.4938  140.2130  155.9451 H   0  0  0  0  0  0  0  0  0  0  0  0  # atno 8009 bound_to 7997
  156.1378  140.3160  155.8453 H   0  0  0  0  0  0  0  0  0  0  0  0  # atno 8010 bound_to 7997
  140.7251  143.3862  151.1511 H   0  0  0  0  0  0  0  0  0  0  0  0  # atno 10167 bound_to 10162
  156.9440  130.5872  149.5653 H   0  0  0  0  0  0  0  0  0  0  0  0  # atno 10718 bound_to 10713
  154.4800  135.2774  155.1578 H   0  0  0  0  0  0  0  0  0  0  0  0  # atno 10763 bound_to 10752
  154.3291  135.6193  153.5547 H   0  0  0  0  0  0  0  0  0  0  0  0  # atno 10764 bound_to 10752
  152.9874  135.5761  154.5199 H   0  0  0  0  0  0  0  0  0  0  0  0  # atno 10765 bound_to 10752
  139.9227  134.7735  156.1604 H   0  0  0  0  0  0  0  0  0  0  0  0  # atno 11005 bound_to 11000
  145.5761  141.0388  143.2147 LP  0  0  0  0  0  0  0  0  0  0  0  0  # atno 17320 bound_to 7965
  144.7470  139.7292  143.7288 LP  0  0  0  0  0  0  0  0  0  0  0  0  # atno 17321 bound_to 7965
  139.7460  143.8852  152.3063 LP  0  0  0  0  0  0  0  0  0  0  0  0  # atno 17342 bound_to 10162
  139.8689  144.7078  150.9011 LP  0  0  0  0  0  0  0  0  0  0  0  0  # atno 17343 bound_to 10162
  156.0392  130.5476  150.8728 LP  0  0  0  0  0  0  0  0  0  0  0  0  # atno 17370 bound_to 10713
  157.5766  131.0946  150.9336 LP  0  0  0  0  0  0  0  0  0  0  0  0  # atno 17371 bound_to 10713
  141.0761  133.6775  156.2239 LP  0  0  0  0  0  0  0  0  0  0  0  0  # atno 17394 bound_to 11000
  140.6426  134.5150  157.5571 LP  0  0  0  0  0  0  0  0  0  0  0  0  # atno 17395 bound_to 11000

$$$$
