AV-unprocessed.smi:1800|AV-procd|sdf|7263|dock2
  -GOLD-   22720 8513D 1   1.00000     0.00000
 Structure written by MMmdl.
 36 37  0  0  0  0  0  0  0  0  1 V2000
  151.6310  140.5870  156.4999 C   0  0  0  0  0  0  0  0  0  0  0  0
  150.3443  141.4156  156.6025 C   0  0  2  0  0  0  0  0  0  0  0  0
  150.1649  142.0479  157.9959 C   0  0  0  0  0  0  0  0  0  0  0  0
  151.2444  142.9599  158.3331 N   0  0  0  0  0  0  0  0  0  0  0  0
  151.6401  144.1008  157.6670 C   0  0  0  0  0  0  0  0  0  0  0  0
  152.6877  144.6345  158.3612 C   0  0  0  0  0  0  0  0  0  0  0  0
  152.8654  143.7344  159.4485 C   0  0  0  0  0  0  0  0  0  0  0  0
  152.0024  142.7315  159.4276 N   0  0  0  0  0  0  0  0  0  0  0  0
  149.1952  140.5628  156.2834 N   0  0  0  0  0  0  0  0  0  0  0  0
  148.9453  140.0760  154.6480 S   0  0  0  0  0  0  0  0  0  0  0  0
  149.5776  141.0875  153.7864 O   0  0  0  0  0  0  0  0  0  0  0  0
  149.3583  138.6677  154.5494 O   0  0  0  0  0  0  0  0  0  0  0  0
  147.0996  140.1962  154.4865 C   0  0  0  0  0  0  0  0  0  0  0  0
  146.7046  141.2257  153.4242 C   0  0  0  0  0  0  0  0  0  0  0  0
  146.7986  142.5745  154.1414 C   0  0  0  0  0  0  0  0  0  0  0  0
  146.4761  142.2845  155.6153 C   0  0  0  0  0  0  0  0  0  0  0  0
  146.4577  140.7550  155.7620 C   0  0  0  0  0  0  0  0  0  0  0  0
  152.5089  141.2013  156.7012 H   0  0  0  0  0  0  0  0  0  0  0  0
  151.7476  140.1648  155.5011 H   0  0  0  0  0  0  0  0  0  0  0  0
  151.6313  139.7627  157.2140 H   0  0  0  0  0  0  0  0  0  0  0  0
  150.4077  142.2161  155.8641 H   0  0  0  0  0  0  0  0  0  0  0  0
  149.2122  142.5767  158.0594 H   0  0  0  0  0  0  0  0  0  0  0  0
  150.1386  141.2684  158.7584 H   0  0  0  0  0  0  0  0  0  0  0  0
  151.1437  144.4374  156.7688 H   0  0  0  0  0  0  0  0  0  0  0  0
  153.2412  145.5319  158.1286 H   0  0  0  0  0  0  0  0  0  0  0  0
  153.5903  143.7800  160.2479 H   0  0  0  0  0  0  0  0  0  0  0  0
  149.1319  139.7699  156.9213 H   0  0  0  0  0  0  0  0  0  0  0  0
  146.7208  139.2058  154.2321 H   0  0  0  0  0  0  0  0  0  0  0  0
  147.3178  141.1826  152.5241 H   0  0  0  0  0  0  0  0  0  0  0  0
  145.6719  141.0501  153.1199 H   0  0  0  0  0  0  0  0  0  0  0  0
  147.8144  142.9634  154.0593 H   0  0  0  0  0  0  0  0  0  0  0  0
  146.1281  143.3170  153.7076 H   0  0  0  0  0  0  0  0  0  0  0  0
  147.2306  142.7310  156.2642 H   0  0  0  0  0  0  0  0  0  0  0  0
  145.5119  142.7067  155.9003 H   0  0  0  0  0  0  0  0  0  0  0  0
  145.4236  140.4134  155.8204 H   0  0  0  0  0  0  0  0  0  0  0  0
  146.9560  140.4149  156.6696 H   0  0  0  0  0  0  0  0  0  0  0  0
  1  2  1  0  0  0  0
  1 18  1  0  0  0  0
  1 19  1  0  0  0  0
  1 20  1  0  0  0  0
  2  3  1  0  0  0  0
  2  9  1  0  0  0  0
  2 21  1  0  0  0  0
  3  4  1  0  0  0  0
  3 22  1  0  0  0  0
  3 23  1  0  0  0  0
  4  8  1  0  0  0  0
  4  5  1  0  0  0  0
  5  6  2  0  0  0  0
  5 24  1  0  0  0  0
  6  7  1  0  0  0  0
  6 25  1  0  0  0  0
  7  8  2  0  0  0  0
  7 26  1  0  0  0  0
  9 10  1  0  0  0  0
  9 27  1  0  0  0  0
 10 11  2  0  0  0  0
 10 12  2  0  0  0  0
 10 13  1  0  0  0  0
 13 17  1  0  0  0  0
 13 14  1  0  0  0  0
 13 28  1  0  0  0  0
 14 15  1  0  0  0  0
 14 29  1  0  0  0  0
 14 30  1  0  0  0  0
 15 16  1  0  0  0  0
 15 31  1  0  0  0  0
 15 32  1  0  0  0  0
 16 17  1  0  0  0  0
 16 33  1  0  0  0  0
 16 34  1  0  0  0  0
 17 35  1  0  0  0  0
 17 36  1  0  0  0  0
M  END
> <s_m_source_file>
AV-unprocessed.smi

> <i_m_source_file_index>
1800

> <i_lp_mmshare_version>
43012

> <i_f3d_flags>
0

> <s_epik_input>
bjFbY0hdW2NIXVtjSF1uMVtDSDJdW0NAQEhdKFtDSDNdKVtOSF1TKD1PKSg9TylbQ0hdMltDSDJdW0NIMl1bQ0gyXVtDSDJdMg==

> <s_epik_cmdline>
J2VwaWtfcHl0aG9uJywgJy1waCcsICc3LjAnLCAnLXRuJywgJzgnLCAnLW1hJywgJzIwMCcsICctbWV0YWxfYmluZGluZycsICctaW1hZScsICc8aW5maWxlLm1hZT4nLCAnLW9tYWUnLCAnPG91dGZpbGUubWFlPic=

> <r_lp_tautomer_probability>
1

> <r_epik_Ionization_Penalty>
1.44925e-05

> <r_epik_Ionization_Penalty_Charging>
0

> <r_epik_Ionization_Penalty_Neutral>
1.44925e-05

> <r_epik_State_Penalty>
-0

> <r_epik_Charging_Adjusted_Penalty>
0

> <i_epik_Tot_Q>
0

> <i_epik_Tot_abs_Q>
0

> <r_epik_Metal_State_Penalty>
0.00862991

> <b_epik_Metal_Only>
0

> <s_lp_Force_Field>
OPLS_2005

> <r_lp_Energy>
14.2601

> <b_lp_Chiralities_Consistent>
1

> <s_lp_Variant>
AV-unprocessed.smi:1800-1

> <Gold.Version>
5.8.1

> <Gold.Id.Protein>
6NUR|6NUR_protein|mol2

> <Gold.PLP.Fitness>
39.1760

> <Gold.PLP.PLP>
-33.4069

> <Gold.PLP.part.hbond>
-2.0000

> <Gold.PLP.part.metal>
0.0000

> <Gold.PLP.part.buried>
-4.9391

> <Gold.PLP.part.nonpolar>
-29.2229

> <Gold.PLP.part.repulsive>
2.1597

> <Gold.PLP.ligand.clash>
0.0000

> <Gold.PLP.ligand.torsion>
0.6324

> <Gold.PLP.Chemscore.Hbond>
1.2451

> <Gold.PLP.Chemscore.CHOScore>
1.0000

> <Gold.PLP.Chemscore.Metal>
0.0000

> <Gold.Chemscore.Hbonds>
donor molecule, donor type, donor heavy atom, donor atom, acceptor molecule, acceptor atom, score
      P1  H  7989  7998       L1    11  0.32
      P1  H  8011  8017       L1    11  0.93
      L1  C     5    24       P1  8028  1.00

> <Gold.PLP.Chemscore.Internal.Correction>
0.2988

> <Gold.Rescore>
     Score         DG    S(hbond)    S(metal)    S(lipo)     H(rot)  DE(clash)    DE(int)     intcor
     13.40     -14.59       1.11        0.00      84.79       1.76       0.47       0.72       ----

> <Gold.Chemscore.Fitness>
13.4016

> <Gold.Chemscore.DG>
-14.5934

> <Gold.Chemscore.ZeroCoef>
-5.4800

> <Gold.Chemscore.Hbond>
1.1063

> <Gold.Chemscore.Metal>
0.0000

> <Gold.Chemscore.Lipo>
84.7882

> <Gold.Chemscore.Internal_Hbond>
0.0000

> <Gold.Chemscore.DEClash>
0.4725

> <Gold.Chemscore.DEInternal>
0.7193

> <Gold.Chemscore.Rot>
1.7585

> <Gold.Chemscore.Internal.Correction>
   9.000000E+99

> <Gold.Chemscore.Hbonds>
donor molecule, donor type, donor heavy atom, donor atom, acceptor molecule, acceptor atom, score
      P1  H  7989  7998       L1    11  0.27
      P1  H  8011  8017       L1    11  0.88

> <Gold.Chemscore.Hbond.Weighted>
-3.6950

> <Gold.Chemscore.Metal.Weighted>
-0.0000

> <Gold.Chemscore.Lipo.Weighted>
-9.9202

> <Gold.Chemscore.Internal_Hbond.Weighted>
0.0000

> <Gold.Chemscore.DEClash.Weighted>
0.4725

> <Gold.Chemscore.DEInternal.Weighted>
0.7193

> <Gold.Chemscore.Rot.Weighted>
4.5019

> <Gold.Chemscore.Internal.Correction.Weighted>
   9.000000E+99

> <Gold.Protein.RotatedTorsions>
[ 6907 6896 6895 6894 ] final  -13.46 input  -60.11 | X-H torsion
[ 7974 7965 7964 7962 ] final -105.24 input  175.53 | X-H torsion
[ 8008 7997 7996 7995 ] final  179.83 input   59.86 | X-H torsion
[ 10167 10162 10161 10158 ] final  160.64 input  -65.29 | X-H torsion
[ 10718 10713 10712 10709 ] final  173.54 input   66.30 | X-H torsion
[ 10763 10752 10751 10750 ] final   -2.33 input  -60.55 | X-H torsion
[ 11005 11000 10999 10996 ] final  101.36 input  -57.11 | X-H torsion

> <Gold.Protein.ActiveResidues>
 VAL166  LYS551  ARG553  GLY616  TRP617  ASP618  TYR619  PRO620  LYS621  CYS622 
 ASP623  PHE694  ASN695  SER759  ASP760  ASP761  ALA762  ILE779  LEU786  VAL792 
 PHE793  MET794  SER795  GLU796  ALA797  LYS798  CYS799  TRP800  GLU811  SER814 

> <Gold.Protein.RotatedAtoms>
  151.3545  135.0891  159.9413 H   0  0  0  0  0  0  0  0  0  0  0  0  # atno 6907 bound_to 6896
  152.5178  133.9319  159.7595 H   0  0  0  0  0  0  0  0  0  0  0  0  # atno 6908 bound_to 6896
  150.9701  133.6299  159.2769 H   0  0  0  0  0  0  0  0  0  0  0  0  # atno 6909 bound_to 6896
  145.2330  140.9177  143.3193 H   0  0  0  0  0  0  0  0  0  0  0  0  # atno 7974 bound_to 7965
  156.0389  140.1299  157.0177 H   0  0  0  0  0  0  0  0  0  0  0  0  # atno 8008 bound_to 7997
  154.4382  140.1034  156.6279 H   0  0  0  0  0  0  0  0  0  0  0  0  # atno 8009 bound_to 7997
  155.5696  140.3466  155.4514 H   0  0  0  0  0  0  0  0  0  0  0  0  # atno 8010 bound_to 7997
  139.4842  144.4614  151.8699 H   0  0  0  0  0  0  0  0  0  0  0  0  # atno 10167 bound_to 10162
  156.9628  131.0066  151.2923 H   0  0  0  0  0  0  0  0  0  0  0  0  # atno 10718 bound_to 10713
  153.3566  135.6988  153.6745 H   0  0  0  0  0  0  0  0  0  0  0  0  # atno 10763 bound_to 10752
  153.5450  135.3565  155.2735 H   0  0  0  0  0  0  0  0  0  0  0  0  # atno 10764 bound_to 10752
  154.8662  135.4213  154.2814 H   0  0  0  0  0  0  0  0  0  0  0  0  # atno 10765 bound_to 10752
  139.8773  134.9180  156.4895 H   0  0  0  0  0  0  0  0  0  0  0  0  # atno 11005 bound_to 11000
  144.9659  139.3931  143.6333 LP  0  0  0  0  0  0  0  0  0  0  0  0  # atno 17320 bound_to 7965
  146.3348  139.8734  142.8836 LP  0  0  0  0  0  0  0  0  0  0  0  0  # atno 17321 bound_to 7965
  140.4077  144.2410  150.5890 LP  0  0  0  0  0  0  0  0  0  0  0  0  # atno 17342 bound_to 10162
  140.4996  143.2322  151.8698 LP  0  0  0  0  0  0  0  0  0  0  0  0  # atno 17343 bound_to 10162
  157.5646  130.8269  149.8311 LP  0  0  0  0  0  0  0  0  0  0  0  0  # atno 17370 bound_to 10713
  156.0315  130.3763  150.1675 LP  0  0  0  0  0  0  0  0  0  0  0  0  # atno 17371 bound_to 10713
  140.8669  133.8018  155.9323 LP  0  0  0  0  0  0  0  0  0  0  0  0  # atno 17394 bound_to 11000
  140.8993  134.2398  157.5051 LP  0  0  0  0  0  0  0  0  0  0  0  0  # atno 17395 bound_to 11000

$$$$
