AV-unprocessed.smi:1809|AV-procd|sdf|7317|dock3
  -GOLD-   22720 8573D 1   1.00000     0.00000
 Structure written by MMmdl.
 39 41  0  0  0  0  0  0  0  0  1 V2000
  151.8149  140.8134  156.8617 C   0  0  0  0  0  0  0  0  0  0  0  0
  151.2517  139.7974  155.9277 C   0  0  0  0  0  0  0  0  0  0  0  0
  150.7918  140.1101  154.7100 N   0  0  0  0  0  0  0  0  0  0  0  0
  150.3150  139.0001  154.0267 N   0  0  0  0  0  0  0  0  0  0  0  0
  150.4283  137.8793  154.7527 C   0  0  0  0  0  0  0  0  0  0  0  0
  150.0177  136.5985  154.2977 N   0  0  0  0  0  0  0  0  0  0  0  0
  150.0438  135.4300  154.9624 C   0  0  0  0  0  0  0  0  0  0  0  0
  150.4418  135.2770  156.1175 O   0  0  0  0  0  0  0  0  0  0  0  0
  149.5720  134.4308  154.2030 N   0  0  0  0  0  0  0  0  0  0  0  0
  149.4668  133.0363  154.6191 C   0  0  0  0  0  0  0  0  0  0  0  0
  148.7389  132.1804  153.5689 C   0  0  2  0  0  0  0  0  0  0  0  0
  147.5428  132.9393  152.9491 C   0  0  0  0  0  0  0  0  0  0  0  0
  146.8077  132.0645  152.0562 N   0  0  0  0  0  0  0  0  0  0  0  0
  145.6085  132.6023  151.4567 C   0  0  0  0  0  0  0  0  0  0  0  0
  144.8551  131.3648  150.9380 C   0  0  0  0  0  0  0  0  0  0  0  0
  145.4510  130.1861  151.7399 C   0  0  0  0  0  0  0  0  0  0  0  0
  146.3552  130.8909  152.7526 C   0  0  1  0  0  0  0  0  0  0  0  0
  147.5456  130.1039  153.3176 C   0  0  0  0  0  0  0  0  0  0  0  0
  148.2722  130.9744  154.1881 O   0  0  0  0  0  0  0  0  0  0  0  0
  151.1330  138.0926  156.3463 S   0  0  0  0  0  0  0  0  0  0  0  0
  152.2266  141.6565  156.3060 H   0  0  0  0  0  0  0  0  0  0  0  0
  152.6097  140.3716  157.4627 H   0  0  0  0  0  0  0  0  0  0  0  0
  151.0335  141.1796  157.5276 H   0  0  0  0  0  0  0  0  0  0  0  0
  149.6586  136.5693  153.3550 H   0  0  0  0  0  0  0  0  0  0  0  0
  149.2682  134.6477  153.2653 H   0  0  0  0  0  0  0  0  0  0  0  0
  150.4501  132.6178  154.8414 H   0  0  0  0  0  0  0  0  0  0  0  0
  148.9084  133.0179  155.5553 H   0  0  0  0  0  0  0  0  0  0  0  0
  149.4399  131.9143  152.7754 H   0  0  0  0  0  0  0  0  0  0  0  0
  146.8847  133.3008  153.7406 H   0  0  0  0  0  0  0  0  0  0  0  0
  147.8943  133.8155  152.4033 H   0  0  0  0  0  0  0  0  0  0  0  0
  145.0071  133.1130  152.2105 H   0  0  0  0  0  0  0  0  0  0  0  0
  145.8392  133.3168  150.6662 H   0  0  0  0  0  0  0  0  0  0  0  0
  143.7810  131.4658  151.0961 H   0  0  0  0  0  0  0  0  0  0  0  0
  145.0251  131.2218  149.8702 H   0  0  0  0  0  0  0  0  0  0  0  0
  144.6877  129.5764  152.2241 H   0  0  0  0  0  0  0  0  0  0  0  0
  146.0351  129.5411  151.0821 H   0  0  0  0  0  0  0  0  0  0  0  0
  145.7292  131.1996  153.5930 H   0  0  0  0  0  0  0  0  0  0  0  0
  147.2029  129.2346  153.8791 H   0  0  0  0  0  0  0  0  0  0  0  0
  148.1973  129.7440  152.5201 H   0  0  0  0  0  0  0  0  0  0  0  0
  1  2  1  0  0  0  0
  1 21  1  0  0  0  0
  1 22  1  0  0  0  0
  1 23  1  0  0  0  0
  2 20  1  0  0  0  0
  2  3  2  0  0  0  0
  3  4  1  0  0  0  0
  4  5  2  0  0  0  0
  5  6  1  0  0  0  0
  5 20  1  0  0  0  0
  6  7  1  0  0  0  0
  6 24  1  0  0  0  0
  7  8  2  0  0  0  0
  7  9  1  0  0  0  0
  9 10  1  0  0  0  0
  9 25  1  0  0  0  0
 10 11  1  0  0  0  0
 10 26  1  0  0  0  0
 10 27  1  0  0  0  0
 11 19  1  0  0  0  0
 11 12  1  0  0  0  0
 11 28  1  0  0  0  0
 12 13  1  0  0  0  0
 12 29  1  0  0  0  0
 12 30  1  0  0  0  0
 13 17  1  0  0  0  0
 13 14  1  0  0  0  0
 14 15  1  0  0  0  0
 14 31  1  0  0  0  0
 14 32  1  0  0  0  0
 15 16  1  0  0  0  0
 15 33  1  0  0  0  0
 15 34  1  0  0  0  0
 16 17  1  0  0  0  0
 16 35  1  0  0  0  0
 16 36  1  0  0  0  0
 17 18  1  0  0  0  0
 17 37  1  0  0  0  0
 18 19  1  0  0  0  0
 18 38  1  0  0  0  0
 18 39  1  0  0  0  0
M  END
> <s_m_source_file>
AV-unprocessed.smi

> <i_m_source_file_index>
1809

> <i_lp_mmshare_version>
43012

> <i_f3d_flags>
0

> <s_epik_input>
W0NIM11jMW5uYyhzMSlbTkhdQyg9TylbTkhdW0NIMl1bQ0BIXShbQ0gyXTIpT1tDSDJdW0NAQEhdKE4yMylbQ0gyXVtDSDJdW0NIMl0z

> <s_epik_cmdline>
J2VwaWtfcHl0aG9uJywgJy1waCcsICc3LjAnLCAnLXRuJywgJzgnLCAnLW1hJywgJzIwMCcsICctbWV0YWxfYmluZGluZycsICctaW1hZScsICc8aW5maWxlLm1hZT4nLCAnLW9tYWUnLCAnPG91dGZpbGUubWFlPic=

> <r_lp_tautomer_probability>
1

> <r_epik_Ionization_Penalty>
1.05954

> <r_epik_Ionization_Penalty_Charging>
0

> <r_epik_Ionization_Penalty_Neutral>
1.05954

> <r_epik_State_Penalty>
1.4238

> <r_epik_Charging_Adjusted_Penalty>
1.4238

> <i_epik_Tot_Q>
0

> <i_epik_Tot_abs_Q>
0

> <r_epik_Metal_State_Penalty>
1.7901

> <b_epik_Metal_Only>
0

> <s_lp_Force_Field>
OPLS_2005

> <r_lp_Energy>
46.8482

> <b_lp_Chiralities_Consistent>
1

> <s_lp_Variant>
AV-unprocessed.smi:1809-9

> <Gold.Version>
5.8.1

> <Gold.Id.Protein>
6NUR|6NUR_protein|mol2

> <Gold.PLP.Fitness>
39.2095

> <Gold.PLP.PLP>
-32.3956

> <Gold.PLP.part.hbond>
-3.8617

> <Gold.PLP.part.metal>
0.0000

> <Gold.PLP.part.buried>
-6.6783

> <Gold.PLP.part.nonpolar>
-24.0455

> <Gold.PLP.part.repulsive>
1.0668

> <Gold.PLP.ligand.clash>
0.0000

> <Gold.PLP.ligand.torsion>
0.2055

> <Gold.PLP.Chemscore.Hbond>
2.4076

> <Gold.PLP.Chemscore.CHOScore>
0.0000

> <Gold.PLP.Chemscore.Metal>
0.0000

> <Gold.Chemscore.Hbonds>
donor molecule, donor type, donor heavy atom, donor atom, acceptor molecule, acceptor atom, score
      L1  H     6    24       P1  7948  1.00
      L1  H     9    25       P1  7948  0.35
      P1  H  7989  7998       L1     3  1.00

> <Gold.PLP.Chemscore.Internal.Correction>
0.0023

> <Gold.Rescore>
     Score         DG    S(hbond)    S(metal)    S(lipo)     H(rot)  DE(clash)    DE(int)     intcor
     14.52     -16.10       1.72        0.00      70.43       1.32       0.07       1.51       ----

> <Gold.Chemscore.Fitness>
14.5159

> <Gold.Chemscore.DG>
-16.0998

> <Gold.Chemscore.ZeroCoef>
-5.4800

> <Gold.Chemscore.Hbond>
1.7240

> <Gold.Chemscore.Metal>
0.0000

> <Gold.Chemscore.Lipo>
70.4257

> <Gold.Chemscore.Internal_Hbond>
0.0000

> <Gold.Chemscore.DEClash>
0.0703

> <Gold.Chemscore.DEInternal>
1.5136

> <Gold.Chemscore.Rot>
1.3196

> <Gold.Chemscore.Internal.Correction>
   9.000000E+99

> <Gold.Chemscore.Hbonds>
donor molecule, donor type, donor heavy atom, donor atom, acceptor molecule, acceptor atom, score
      L1  H     6    24       P1  7948  0.45
      L1  H     9    25       P1  7948  0.01
      P1  H  7989  7998       L1     3  0.26

> <Gold.Chemscore.Hbond.Weighted>
-5.7582

> <Gold.Chemscore.Metal.Weighted>
-0.0000

> <Gold.Chemscore.Lipo.Weighted>
-8.2398

> <Gold.Chemscore.Internal_Hbond.Weighted>
0.0000

> <Gold.Chemscore.DEClash.Weighted>
0.0703

> <Gold.Chemscore.DEInternal.Weighted>
1.5136

> <Gold.Chemscore.Rot.Weighted>
3.3783

> <Gold.Chemscore.Internal.Correction.Weighted>
   9.000000E+99

> <Gold.Protein.RotatedTorsions>
[ 6907 6896 6895 6894 ] final  117.90 input  -60.11 | X-H torsion
[ 7974 7965 7964 7962 ] final   49.31 input  175.53 | X-H torsion
[ 8008 7997 7996 7995 ] final  138.40 input   59.86 | X-H torsion
[ 10167 10162 10161 10158 ] final  178.11 input  -65.29 | X-H torsion
[ 10718 10713 10712 10709 ] final   88.62 input   66.30 | X-H torsion
[ 10763 10752 10751 10750 ] final   22.74 input  -60.55 | X-H torsion
[ 11005 11000 10999 10996 ] final -177.19 input  -57.11 | X-H torsion

> <Gold.Protein.ActiveResidues>
 VAL166  LYS551  ARG553  GLY616  TRP617  ASP618  TYR619  PRO620  LYS621  CYS622 
 ASP623  PHE694  ASN695  SER759  ASP760  ASP761  ALA762  ILE779  LEU786  VAL792 
 PHE793  MET794  SER795  GLU796  ALA797  LYS798  CYS799  TRP800  GLU811  SER814 

> <Gold.Protein.RotatedAtoms>
  152.4580  133.7763  159.6826 H   0  0  0  0  0  0  0  0  0  0  0  0  # atno 6907 bound_to 6896
  150.8513  133.7772  159.3030 H   0  0  0  0  0  0  0  0  0  0  0  0  # atno 6908 bound_to 6896
  151.5366  135.1071  159.9968 H   0  0  0  0  0  0  0  0  0  0  0  0  # atno 6909 bound_to 6896
  146.0121  139.4555  142.9950 H   0  0  0  0  0  0  0  0  0  0  0  0  # atno 7974 bound_to 7965
  156.2997  140.2394  156.4068 H   0  0  0  0  0  0  0  0  0  0  0  0  # atno 8008 bound_to 7997
  154.8477  140.0425  157.1603 H   0  0  0  0  0  0  0  0  0  0  0  0  # atno 8009 bound_to 7997
  154.9033  140.2980  155.5309 H   0  0  0  0  0  0  0  0  0  0  0  0  # atno 8010 bound_to 7997
  139.5280  144.2719  152.0620 H   0  0  0  0  0  0  0  0  0  0  0  0  # atno 10167 bound_to 10162
  157.6950  131.0302  150.3302 H   0  0  0  0  0  0  0  0  0  0  0  0  # atno 10718 bound_to 10713
  153.0892  135.6642  153.9888 H   0  0  0  0  0  0  0  0  0  0  0  0  # atno 10763 bound_to 10752
  153.9490  135.2986  155.3441 H   0  0  0  0  0  0  0  0  0  0  0  0  # atno 10764 bound_to 10752
  154.7304  135.5125  153.9027 H   0  0  0  0  0  0  0  0  0  0  0  0  # atno 10765 bound_to 10752
  140.4436  134.6408  157.4769 H   0  0  0  0  0  0  0  0  0  0  0  0  # atno 11005 bound_to 11000
  145.7326  141.0037  143.1344 LP  0  0  0  0  0  0  0  0  0  0  0  0  # atno 17320 bound_to 7965
  144.6957  139.9002  143.7458 LP  0  0  0  0  0  0  0  0  0  0  0  0  # atno 17321 bound_to 7965
  140.2178  144.4497  150.6356 LP  0  0  0  0  0  0  0  0  0  0  0  0  # atno 17342 bound_to 10162
  140.6438  143.2209  151.6231 LP  0  0  0  0  0  0  0  0  0  0  0  0  # atno 17343 bound_to 10162
  156.3777  130.3875  149.7126 LP  0  0  0  0  0  0  0  0  0  0  0  0  # atno 17370 bound_to 10713
  156.4519  130.7910  151.2932 LP  0  0  0  0  0  0  0  0  0  0  0  0  # atno 17371 bound_to 10713
  140.0053  134.6773  155.9465 LP  0  0  0  0  0  0  0  0  0  0  0  0  # atno 17394 bound_to 11000
  141.1695  133.6537  156.4598 LP  0  0  0  0  0  0  0  0  0  0  0  0  # atno 17395 bound_to 11000

$$$$
