AV-unprocessed.smi:427|AV-procd|sdf|2543|dock3
  -GOLD-   2262022503D 1   1.00000     0.00000
 Structure written by MMmdl.
 51 52  0  0  0  0  0  0  0  0  1 V2000
  152.4168  139.2611  158.6107 C   0  0  0  0  0  0  0  0  0  0  0  0
  152.6419  140.5651  159.3538 C   0  0  0  0  0  0  0  0  0  0  0  0
  152.0341  141.7487  158.8853 C   0  0  0  0  0  0  0  0  0  0  0  0
  152.2251  142.9824  159.5535 C   0  0  0  0  0  0  0  0  0  0  0  0
  151.5754  144.2936  159.0703 C   0  0  0  0  0  0  0  0  0  0  0  0
  152.1088  144.6494  157.6669 C   0  0  0  0  0  0  0  0  0  0  0  0
  151.8690  145.4925  160.0008 C   0  0  0  0  0  0  0  0  0  0  0  0
  150.0437  144.1195  159.0023 C   0  0  0  0  0  0  0  0  0  0  0  0
  153.0444  142.9934  160.7053 C   0  0  0  0  0  0  0  0  0  0  0  0
  153.6531  141.8161  161.1776 C   0  0  0  0  0  0  0  0  0  0  0  0
  153.4579  140.5857  160.5058 C   0  0  0  0  0  0  0  0  0  0  0  0
  154.0195  139.3924  160.9087 O   0  0  0  0  0  0  0  0  0  0  0  0
  154.7388  139.3565  162.1351 C   0  0  0  0  0  0  0  0  0  0  0  0
  155.1697  137.9123  162.4399 C   0  0  1  0  0  0  0  0  0  0  0  0
  155.6533  137.8796  163.7676 O   0  0  0  0  0  0  0  0  0  0  0  0
  154.0233  136.8930  162.2568 C   0  0  0  0  0  0  0  0  0  0  0  0
  154.4401  135.5158  162.4604 N   0  0  0  0  0  0  0  0  0  0  0  0
  154.6119  134.6974  161.3163 C   0  0  0  0  0  0  0  0  0  0  0  0
  154.4214  135.1159  160.1739 O   0  0  0  0  0  0  0  0  0  0  0  0
  155.0154  133.3248  161.6021 C   0  0  0  0  0  0  0  0  0  0  0  0
  155.1894  132.9024  162.8733 C   0  0  0  0  0  0  0  0  0  0  0  0
  154.9974  133.7226  163.9678 N   0  0  0  0  0  0  0  0  0  0  0  0
  155.1767  133.2638  165.3151 C   0  0  0  0  0  0  0  0  0  0  0  0
  154.6054  135.0677  163.7927 C   0  0  0  0  0  0  0  0  0  0  0  0
  154.4092  135.8086  164.7604 O   0  0  0  0  0  0  0  0  0  0  0  0
  151.7562  139.3952  157.7538 H   0  0  0  0  0  0  0  0  0  0  0  0
  151.9665  138.5209  159.2724 H   0  0  0  0  0  0  0  0  0  0  0  0
  153.3655  138.8645  158.2480 H   0  0  0  0  0  0  0  0  0  0  0  0
  151.4195  141.6831  158.0015 H   0  0  0  0  0  0  0  0  0  0  0  0
  151.6806  145.5850  157.3059 H   0  0  0  0  0  0  0  0  0  0  0  0
  151.8685  143.8838  156.9290 H   0  0  0  0  0  0  0  0  0  0  0  0
  153.1929  144.7676  157.6753 H   0  0  0  0  0  0  0  0  0  0  0  0
  152.9381  145.6968  160.0710 H   0  0  0  0  0  0  0  0  0  0  0  0
  151.4887  145.3240  161.0090 H   0  0  0  0  0  0  0  0  0  0  0  0
  151.3962  146.4035  159.6320 H   0  0  0  0  0  0  0  0  0  0  0  0
  149.5540  145.0399  158.6818 H   0  0  0  0  0  0  0  0  0  0  0  0
  149.6333  143.8532  159.9770 H   0  0  0  0  0  0  0  0  0  0  0  0
  149.7488  143.3411  158.2984 H   0  0  0  0  0  0  0  0  0  0  0  0
  153.2157  143.9133  161.2437 H   0  0  0  0  0  0  0  0  0  0  0  0
  154.2673  141.8859  162.0622 H   0  0  0  0  0  0  0  0  0  0  0  0
  155.6336  139.9734  162.0384 H   0  0  0  0  0  0  0  0  0  0  0  0
  154.1437  139.7605  162.9561 H   0  0  0  0  0  0  0  0  0  0  0  0
  156.0046  137.6658  161.7826 H   0  0  0  0  0  0  0  0  0  0  0  0
  156.5980  137.8771  163.7433 H   0  0  0  0  0  0  0  0  0  0  0  0
  153.1686  137.1036  162.9020 H   0  0  0  0  0  0  0  0  0  0  0  0
  153.6127  136.9423  161.2466 H   0  0  0  0  0  0  0  0  0  0  0  0
  155.1753  132.6377  160.7843 H   0  0  0  0  0  0  0  0  0  0  0  0
  155.4882  131.8771  163.0359 H   0  0  0  0  0  0  0  0  0  0  0  0
  155.9661  133.8679  165.7656 H   0  0  0  0  0  0  0  0  0  0  0  0
  155.4692  132.2140  165.2772 H   0  0  0  0  0  0  0  0  0  0  0  0
  154.2228  133.3789  165.8324 H   0  0  0  0  0  0  0  0  0  0  0  0
  1  2  1  0  0  0  0
  1 26  1  0  0  0  0
  1 27  1  0  0  0  0
  1 28  1  0  0  0  0
  2 11  1  0  0  0  0
  2  3  2  0  0  0  0
  3  4  1  0  0  0  0
  3 29  1  0  0  0  0
  4  5  1  0  0  0  0
  4  9  2  0  0  0  0
  5  6  1  0  0  0  0
  5  7  1  0  0  0  0
  5  8  1  0  0  0  0
  6 30  1  0  0  0  0
  6 31  1  0  0  0  0
  6 32  1  0  0  0  0
  7 33  1  0  0  0  0
  7 34  1  0  0  0  0
  7 35  1  0  0  0  0
  8 36  1  0  0  0  0
  8 37  1  0  0  0  0
  8 38  1  0  0  0  0
  9 10  1  0  0  0  0
  9 39  1  0  0  0  0
 10 11  2  0  0  0  0
 10 40  1  0  0  0  0
 11 12  1  0  0  0  0
 12 13  1  0  0  0  0
 13 14  1  0  0  0  0
 13 41  1  0  0  0  0
 13 42  1  0  0  0  0
 14 15  1  0  0  0  0
 14 16  1  0  0  0  0
 14 43  1  0  0  0  0
 15 44  1  0  0  0  0
 16 17  1  0  0  0  0
 16 45  1  0  0  0  0
 16 46  1  0  0  0  0
 17 24  1  0  0  0  0
 17 18  1  0  0  0  0
 18 19  2  0  0  0  0
 18 20  1  0  0  0  0
 20 21  2  0  0  0  0
 20 47  1  0  0  0  0
 21 22  1  0  0  0  0
 21 48  1  0  0  0  0
 22 23  1  0  0  0  0
 22 24  1  0  0  0  0
 23 49  1  0  0  0  0
 23 50  1  0  0  0  0
 23 51  1  0  0  0  0
 24 25  2  0  0  0  0
M  END
> <s_m_source_file>
AV-unprocessed.smi

> <i_m_source_file_index>
427

> <i_lp_mmshare_version>
43012

> <i_f3d_flags>
0

> <s_epik_input>
W0NIM11jMVtjSF1jKEMoW0NIM10pKFtDSDNdKVtDSDNdKVtjSF1bY0hdYzFPW0NIMl1bQ0BIXShbT0hdKVtDSDJdbjJjKD1PKVtjSF1bY0hdbihbQ0gzXSljMj1P

> <s_epik_cmdline>
J2VwaWtfcHl0aG9uJywgJy1waCcsICc3LjAnLCAnLXRuJywgJzgnLCAnLW1hJywgJzIwMCcsICctbWV0YWxfYmluZGluZycsICctaW1hZScsICc8aW5maWxlLm1hZT4nLCAnLW9tYWUnLCAnPG91dGZpbGUubWFlPic=

> <r_lp_tautomer_probability>
1

> <r_epik_Ionization_Penalty>
2.02112e-07

> <r_epik_Ionization_Penalty_Charging>
8.49383e-08

> <r_epik_Ionization_Penalty_Neutral>
1.17174e-07

> <r_epik_State_Penalty>
-0

> <r_epik_Charging_Adjusted_Penalty>
8.49383e-08

> <i_epik_Tot_Q>
0

> <i_epik_Tot_abs_Q>
0

> <r_epik_Metal_State_Penalty>
-0

> <b_epik_Metal_Only>
0

> <s_lp_Force_Field>
OPLS_2005

> <r_lp_Energy>
28.8364

> <b_lp_Chiralities_Consistent>
1

> <s_lp_Variant>
AV-unprocessed.smi:427-2

> <Gold.Version>
5.8.1

> <Gold.Id.Protein>
6NUR|6NUR_protein|mol2

> <Gold.PLP.Fitness>
52.9924

> <Gold.PLP.PLP>
-50.7581

> <Gold.PLP.part.hbond>
-1.0000

> <Gold.PLP.part.metal>
0.0000

> <Gold.PLP.part.buried>
-6.7331

> <Gold.PLP.part.nonpolar>
-46.0204

> <Gold.PLP.part.repulsive>
1.6050

> <Gold.PLP.ligand.clash>
0.0000

> <Gold.PLP.ligand.torsion>
0.3650

> <Gold.PLP.Chemscore.Hbond>
0.9750

> <Gold.PLP.Chemscore.CHOScore>
0.0000

> <Gold.PLP.Chemscore.Metal>
0.0000

> <Gold.Chemscore.Hbonds>
donor molecule, donor type, donor heavy atom, donor atom, acceptor molecule, acceptor atom, score
      P1  H  6896  6908       L1    19  0.94

> <Gold.PLP.Chemscore.Internal.Correction>
0.0393

> <Gold.Rescore>
     Score         DG    S(hbond)    S(metal)    S(lipo)     H(rot)  DE(clash)    DE(int)     intcor
     14.47     -17.60       0.78        0.00     135.73       2.49       0.25       2.88       ----

> <Gold.Chemscore.Fitness>
14.4705

> <Gold.Chemscore.DG>
-17.5999

> <Gold.Chemscore.ZeroCoef>
-5.4800

> <Gold.Chemscore.Hbond>
0.7822

> <Gold.Chemscore.Metal>
0.0000

> <Gold.Chemscore.Lipo>
135.7288

> <Gold.Chemscore.Internal_Hbond>
0.0000

> <Gold.Chemscore.DEClash>
0.2523

> <Gold.Chemscore.DEInternal>
2.8771

> <Gold.Chemscore.Rot>
2.4894

> <Gold.Chemscore.Internal.Correction>
   9.000000E+99

> <Gold.Chemscore.Hbonds>
donor molecule, donor type, donor heavy atom, donor atom, acceptor molecule, acceptor atom, score
      P1  H  6896  6908       L1    19  0.20

> <Gold.Chemscore.Hbond.Weighted>
-2.6124

> <Gold.Chemscore.Metal.Weighted>
-0.0000

> <Gold.Chemscore.Lipo.Weighted>
-15.8803

> <Gold.Chemscore.Internal_Hbond.Weighted>
0.0000

> <Gold.Chemscore.DEClash.Weighted>
0.2523

> <Gold.Chemscore.DEInternal.Weighted>
2.8771

> <Gold.Chemscore.Rot.Weighted>
6.3728

> <Gold.Chemscore.Internal.Correction.Weighted>
   9.000000E+99

> <Gold.Protein.RotatedTorsions>
[ 6907 6896 6895 6894 ] final  -63.21 input  -60.11 | X-H torsion
[ 7974 7965 7964 7962 ] final  176.23 input  175.53 | X-H torsion
[ 8008 7997 7996 7995 ] final  -10.39 input   59.86 | X-H torsion
[ 10167 10162 10161 10158 ] final  -10.60 input  -65.29 | X-H torsion
[ 10718 10713 10712 10709 ] final  165.58 input   66.30 | X-H torsion
[ 10763 10752 10751 10750 ] final   78.56 input  -60.55 | X-H torsion
[ 11005 11000 10999 10996 ] final  -11.22 input  -57.11 | X-H torsion

> <Gold.Protein.ActiveResidues>
 VAL166  LYS551  ARG553  GLY616  TRP617  ASP618  TYR619  PRO620  LYS621  CYS622 
 ASP623  PHE694  ASN695  SER759  ASP760  ASP761  ALA762  ILE779  LEU786  VAL792 
 PHE793  MET794  SER795  GLU796  ALA797  LYS798  CYS799  TRP800  GLU811  SER814 

> <Gold.Protein.RotatedAtoms>
  150.7664  134.6465  159.6264 H   0  0  0  0  0  0  0  0  0  0  0  0  # atno 6907 bound_to 6896
  152.3697  134.6749  160.0189 H   0  0  0  0  0  0  0  0  0  0  0  0  # atno 6908 bound_to 6896
  151.7113  133.3276  159.3328 H   0  0  0  0  0  0  0  0  0  0  0  0  # atno 6909 bound_to 6896
  144.7188  140.0066  143.6440 H   0  0  0  0  0  0  0  0  0  0  0  0  # atno 7974 bound_to 7965
  154.5559  140.2330  155.8411 H   0  0  0  0  0  0  0  0  0  0  0  0  # atno 8008 bound_to 7997
  156.1987  140.3058  155.9442 H   0  0  0  0  0  0  0  0  0  0  0  0  # atno 8009 bound_to 7997
  155.2982  140.0430  157.3018 H   0  0  0  0  0  0  0  0  0  0  0  0  # atno 8010 bound_to 7997
  140.7118  143.5731  150.9072 H   0  0  0  0  0  0  0  0  0  0  0  0  # atno 10167 bound_to 10162
  157.0781  131.0384  151.2586 H   0  0  0  0  0  0  0  0  0  0  0  0  # atno 10718 bound_to 10713
  153.0883  135.4872  154.8641 H   0  0  0  0  0  0  0  0  0  0  0  0  # atno 10763 bound_to 10752
  154.7238  135.3045  154.9006 H   0  0  0  0  0  0  0  0  0  0  0  0  # atno 10764 bound_to 10752
  153.9662  135.6806  153.4799 H   0  0  0  0  0  0  0  0  0  0  0  0  # atno 10765 bound_to 10752
  140.7530  133.8576  155.9061 H   0  0  0  0  0  0  0  0  0  0  0  0  # atno 11005 bound_to 11000
  146.0292  139.3320  143.0765 LP  0  0  0  0  0  0  0  0  0  0  0  0  # atno 17320 bound_to 7965
  145.8473  140.9548  143.0768 LP  0  0  0  0  0  0  0  0  0  0  0  0  # atno 17321 bound_to 7965
  139.9457  143.6331  152.3042 LP  0  0  0  0  0  0  0  0  0  0  0  0  # atno 17342 bound_to 10162
  139.6831  144.7654  151.1572 LP  0  0  0  0  0  0  0  0  0  0  0  0  # atno 17343 bound_to 10162
  157.4822  130.7772  149.7425 LP  0  0  0  0  0  0  0  0  0  0  0  0  # atno 17370 bound_to 10713
  155.9931  130.3926  150.2914 LP  0  0  0  0  0  0  0  0  0  0  0  0  # atno 17371 bound_to 10713
  140.9733  134.1502  157.4558 LP  0  0  0  0  0  0  0  0  0  0  0  0  # atno 17394 bound_to 11000
  139.8784  134.9986  156.5909 LP  0  0  0  0  0  0  0  0  0  0  0  0  # atno 17395 bound_to 11000

$$$$
