AV-unprocessed.smi:1538|AV-procd|sdf|6193|dock4
  -GOLD-   22720 6363D 1   1.00000     0.00000
 Structure written by MMmdl.
 37 38  0  0  0  0  0  0  0  0  2 V2000
  152.4846  144.0633  161.9933 C   0  0  0  0  0  0  0  0  0  0  0  0
  152.1829  143.2413  160.8204 N   0  0  0  0  0  0  0  0  0  0  0  0
  152.7711  141.8946  160.8411 C   0  0  0  0  0  0  0  0  0  0  0  0
  152.8054  141.2181  159.4646 C   0  0  0  0  0  0  0  0  0  0  0  0
  151.4391  141.3501  158.7801 C   0  0  2  0  0  0  0  0  0  0  0  0
  151.4367  140.6188  157.4304 C   0  0  0  0  0  0  0  0  0  0  0  0
  152.4402  140.0183  157.0443 O   0  0  0  0  0  0  0  0  0  0  0  0
  150.2994  140.6708  156.7222 N   0  0  0  0  0  0  0  0  0  0  0  0
  150.1097  140.0285  155.4295 C   0  0  0  0  0  0  0  0  0  0  0  0
  149.6613  141.0504  154.3765 C   0  0  0  0  0  0  0  0  0  0  0  0
  148.2050  141.2002  154.3555 N   0  0  0  0  0  0  0  0  0  0  0  0
  147.4423  142.0137  155.1536 C   0  0  0  0  0  0  0  0  0  0  0  0
  146.1390  141.8254  154.7711 C   0  0  0  0  0  0  0  0  0  0  0  0
  146.1615  140.9056  153.7570 N   0  3  0  0  0  0  0  0  0  0  0  0
  147.4190  140.5273  153.5049 C   0  0  0  0  0  0  0  0  0  0  0  0
  151.0908  142.8421  158.6048 C   0  0  0  0  0  0  0  0  0  0  0  0
  151.3625  143.7069  159.8474 C   0  0  0  0  0  0  0  0  0  0  0  0
  150.8405  144.8209  159.9010 O   0  0  0  0  0  0  0  0  0  0  0  0
  151.5698  144.4379  162.4554 H   0  0  0  0  0  0  0  0  0  0  0  0
  153.0985  144.9185  161.7082 H   0  0  0  0  0  0  0  0  0  0  0  0
  153.0261  143.5053  162.7581 H   0  0  0  0  0  0  0  0  0  0  0  0
  153.7850  141.9348  161.2416 H   0  0  0  0  0  0  0  0  0  0  0  0
  152.1869  141.2848  161.5316 H   0  0  0  0  0  0  0  0  0  0  0  0
  153.5799  141.6834  158.8525 H   0  0  0  0  0  0  0  0  0  0  0  0
  153.0849  140.1697  159.5761 H   0  0  0  0  0  0  0  0  0  0  0  0
  150.6856  140.8924  159.4243 H   0  0  0  0  0  0  0  0  0  0  0  0
  149.5187  141.1837  157.1058 H   0  0  0  0  0  0  0  0  0  0  0  0
  151.0436  139.5561  155.1200 H   0  0  0  0  0  0  0  0  0  0  0  0
  149.3640  139.2376  155.5262 H   0  0  0  0  0  0  0  0  0  0  0  0
  150.1055  142.0285  154.5689 H   0  0  0  0  0  0  0  0  0  0  0  0
  149.9787  140.7424  153.3793 H   0  0  0  0  0  0  0  0  0  0  0  0
  147.8723  142.6508  155.9131 H   0  0  0  0  0  0  0  0  0  0  0  0
  145.2220  142.2661  155.1346 H   0  0  0  0  0  0  0  0  0  0  0  0
  147.7360  139.8187  152.7603 H   0  0  0  0  0  0  0  0  0  0  0  0
  151.6672  143.2753  157.7858 H   0  0  0  0  0  0  0  0  0  0  0  0
  150.0402  142.9445  158.3293 H   0  0  0  0  0  0  0  0  0  0  0  0
  145.3458  140.5608  153.2663 H   0  0  0  0  0  0  0  0  0  0  0  0
  1  2  1  0  0  0  0
  1 19  1  0  0  0  0
  1 20  1  0  0  0  0
  1 21  1  0  0  0  0
  2 17  1  0  0  0  0
  2  3  1  0  0  0  0
  3  4  1  0  0  0  0
  3 22  1  0  0  0  0
  3 23  1  0  0  0  0
  4  5  1  0  0  0  0
  4 24  1  0  0  0  0
  4 25  1  0  0  0  0
  5  6  1  0  0  0  0
  5 16  1  0  0  0  0
  5 26  1  0  0  0  0
  6  7  2  0  0  0  0
  6  8  1  0  0  0  0
  8  9  1  0  0  0  0
  8 27  1  0  0  0  0
  9 10  1  0  0  0  0
  9 28  1  0  0  0  0
  9 29  1  0  0  0  0
 10 11  1  0  0  0  0
 10 30  1  0  0  0  0
 10 31  1  0  0  0  0
 11 15  1  0  0  0  0
 11 12  1  0  0  0  0
 12 13  2  0  0  0  0
 12 32  1  0  0  0  0
 13 14  1  0  0  0  0
 13 33  1  0  0  0  0
 14 15  2  0  0  0  0
 14 37  1  0  0  0  0
 15 34  1  0  0  0  0
 16 17  1  0  0  0  0
 16 35  1  0  0  0  0
 16 36  1  0  0  0  0
 17 18  2  0  0  0  0
M  CHG  1  14   1
M  END
> <s_m_source_file>
AV-unprocessed.smi

> <i_m_source_file_index>
1538

> <i_lp_mmshare_version>
43012

> <i_f3d_flags>
0

> <s_epik_input>
W0NIM11OMVtDSDJdW0NIMl1bQ0BIXShbQ0gyXUMxPU8pQyg9TylbTkhdW0NIMl1bQ0gyXW4yW2NIXVtjSF1uW2NIXTI=

> <s_epik_cmdline>
J2VwaWtfcHl0aG9uJywgJy1waCcsICc3LjAnLCAnLXRuJywgJzgnLCAnLW1hJywgJzIwMCcsICctbWV0YWxfYmluZGluZycsICctaW1hZScsICc8aW5maWxlLm1hZT4nLCAnLW9tYWUnLCAnPG91dGZpbGUubWFlPic=

> <r_lp_tautomer_probability>
1

> <r_epik_Ionization_Penalty>
0.272873

> <r_epik_Ionization_Penalty_Charging>
0

> <r_epik_Ionization_Penalty_Neutral>
0.272873

> <r_epik_State_Penalty>
0.265096

> <r_epik_Charging_Adjusted_Penalty>
0.265096

> <i_epik_Tot_Q>
1

> <i_epik_Tot_abs_Q>
1

> <r_epik_Metal_State_Penalty>
0.549113

> <b_epik_Metal_Only>
0

> <s_lp_Force_Field>
OPLS_2005

> <r_lp_Energy>
17.9959

> <b_lp_Chiralities_Consistent>
1

> <s_lp_Variant>
AV-unprocessed.smi:1538-2

> <Gold.Version>
5.8.1

> <Gold.Id.Protein>
6NUR|6NUR_protein|mol2

> <Gold.PLP.Fitness>
49.8434

> <Gold.PLP.PLP>
-36.0488

> <Gold.PLP.part.hbond>
-2.0000

> <Gold.PLP.part.metal>
0.0000

> <Gold.PLP.part.buried>
-1.2664

> <Gold.PLP.part.nonpolar>
-32.0792

> <Gold.PLP.part.repulsive>
0.1836

> <Gold.PLP.ligand.clash>
0.0000

> <Gold.PLP.ligand.torsion>
0.5335

> <Gold.PLP.Chemscore.Hbond>
3.0000

> <Gold.PLP.Chemscore.CHOScore>
1.9477

> <Gold.PLP.Chemscore.Metal>
0.0000

> <Gold.Chemscore.Hbonds>
donor molecule, donor type, donor heavy atom, donor atom, acceptor molecule, acceptor atom, score
      L1  H    14    37       P1 10175  2.00
      P1  H  7997  8010       L1     7  1.00
      L1  C    12    32       P1  8028  0.96
      L1  C    15    34       P1  7957  0.96

> <Gold.PLP.Chemscore.Internal.Correction>
0.0186

> <Gold.Rescore>
     Score         DG    S(hbond)    S(metal)    S(lipo)     H(rot)  DE(clash)    DE(int)     intcor
     13.49     -15.01       1.97        0.00      70.13       2.05       1.04       0.48       ----

> <Gold.Chemscore.Fitness>
13.4916

> <Gold.Chemscore.DG>
-15.0148

> <Gold.Chemscore.ZeroCoef>
-5.4800

> <Gold.Chemscore.Hbond>
1.9676

> <Gold.Chemscore.Metal>
0.0000

> <Gold.Chemscore.Lipo>
70.1322

> <Gold.Chemscore.Internal_Hbond>
0.0000

> <Gold.Chemscore.DEClash>
1.0417

> <Gold.Chemscore.DEInternal>
0.4816

> <Gold.Chemscore.Rot>
2.0478

> <Gold.Chemscore.Internal.Correction>
   9.000000E+99

> <Gold.Chemscore.Hbonds>
donor molecule, donor type, donor heavy atom, donor atom, acceptor molecule, acceptor atom, score
      L1  H    14    37       P1 10175  0.92
      P1  H  7997  8010       L1     7  0.97

> <Gold.Chemscore.Hbond.Weighted>
-6.5717

> <Gold.Chemscore.Metal.Weighted>
-0.0000

> <Gold.Chemscore.Lipo.Weighted>
-8.2055

> <Gold.Chemscore.Internal_Hbond.Weighted>
0.0000

> <Gold.Chemscore.DEClash.Weighted>
1.0417

> <Gold.Chemscore.DEInternal.Weighted>
0.4816

> <Gold.Chemscore.Rot.Weighted>
5.2423

> <Gold.Chemscore.Internal.Correction.Weighted>
   9.000000E+99

> <Gold.Protein.RotatedTorsions>
[ 6907 6896 6895 6894 ] final  137.50 input  -60.11 | X-H torsion
[ 7974 7965 7964 7962 ] final   95.12 input  175.53 | X-H torsion
[ 8008 7997 7996 7995 ] final   67.90 input   59.86 | X-H torsion
[ 10167 10162 10161 10158 ] final  -85.26 input  -65.29 | X-H torsion
[ 10718 10713 10712 10709 ] final -173.10 input   66.30 | X-H torsion
[ 10763 10752 10751 10750 ] final  -76.39 input  -60.55 | X-H torsion
[ 11005 11000 10999 10996 ] final -103.23 input  -57.11 | X-H torsion

> <Gold.Protein.ActiveResidues>
 VAL166  LYS551  ARG553  GLY616  TRP617  ASP618  TYR619  PRO620  LYS621  CYS622 
 ASP623  PHE694  ASN695  SER759  ASP760  ASP761  ALA762  ILE779  LEU786  VAL792 
 PHE793  MET794  SER795  GLU796  ALA797  LYS798  CYS799  TRP800  GLU811  SER814 

> <Gold.Protein.RotatedAtoms>
  152.2774  133.5438  159.5476 H   0  0  0  0  0  0  0  0  0  0  0  0  # atno 6907 bound_to 6896
  150.7182  134.0613  159.3841 H   0  0  0  0  0  0  0  0  0  0  0  0  # atno 6908 bound_to 6896
  151.8525  135.0553  160.0511 H   0  0  0  0  0  0  0  0  0  0  0  0  # atno 6909 bound_to 6896
  145.4565  139.2289  143.3011 H   0  0  0  0  0  0  0  0  0  0  0  0  # atno 7974 bound_to 7965
  155.7001  140.3495  155.4929 H   0  0  0  0  0  0  0  0  0  0  0  0  # atno 8008 bound_to 7997
  155.9448  140.1108  157.1048 H   0  0  0  0  0  0  0  0  0  0  0  0  # atno 8009 bound_to 7997
  154.4110  140.1205  156.4961 H   0  0  0  0  0  0  0  0  0  0  0  0  # atno 8010 bound_to 7997
  140.4055  143.2644  151.9087 H   0  0  0  0  0  0  0  0  0  0  0  0  # atno 10167 bound_to 10162
  156.7653  130.9428  151.3119 H   0  0  0  0  0  0  0  0  0  0  0  0  # atno 10718 bound_to 10713
  154.4992  135.5799  153.6518 H   0  0  0  0  0  0  0  0  0  0  0  0  # atno 10763 bound_to 10752
  152.9875  135.6131  154.3025 H   0  0  0  0  0  0  0  0  0  0  0  0  # atno 10764 bound_to 10752
  154.2931  135.2848  155.2625 H   0  0  0  0  0  0  0  0  0  0  0  0  # atno 10765 bound_to 10752
  141.1155  133.8623  157.1460 H   0  0  0  0  0  0  0  0  0  0  0  0  # atno 11005 bound_to 11000
  146.2475  140.5329  142.8907 LP  0  0  0  0  0  0  0  0  0  0  0  0  # atno 17320 bound_to 7965
  144.8029  140.6246  143.6466 LP  0  0  0  0  0  0  0  0  0  0  0  0  # atno 17321 bound_to 7965
  139.4783  144.5591  151.8268 LP  0  0  0  0  0  0  0  0  0  0  0  0  # atno 17342 bound_to 10162
  140.4694  144.1608  150.5916 LP  0  0  0  0  0  0  0  0  0  0  0  0  # atno 17343 bound_to 10162
  157.6716  130.9056  150.0053 LP  0  0  0  0  0  0  0  0  0  0  0  0  # atno 17370 bound_to 10713
  156.1313  130.3643  149.9728 LP  0  0  0  0  0  0  0  0  0  0  0  0  # atno 17371 bound_to 10713
  140.0074  135.0002  157.0322 LP  0  0  0  0  0  0  0  0  0  0  0  0  # atno 17394 bound_to 11000
  140.4658  134.1437  155.7197 LP  0  0  0  0  0  0  0  0  0  0  0  0  # atno 17395 bound_to 11000

$$$$
