AV-unprocessed.smi:2784|AV-procd|sdf|10745|dock4
  -GOLD-   2272015183D 1   1.00000     0.00000
 Structure written by MMmdl.
 30 31  0  0  0  0  0  0  0  0  2 V2000
  153.5436  140.9967  160.7670 C   0  0  0  0  0  0  0  0  0  0  0  0
  153.3097  142.3483  161.1283 O   0  0  0  0  0  0  0  0  0  0  0  0
  152.2981  142.9810  160.3549 C   0  0  1  0  0  0  0  0  0  0  0  0
  152.2735  144.4997  160.5827 C   0  0  0  0  0  0  0  0  0  0  0  0
  151.8398  145.0834  159.2434 C   0  0  0  0  0  0  0  0  0  0  0  0
  152.5332  144.1902  158.2171 C   0  0  0  0  0  0  0  0  0  0  0  0
  152.5774  142.7843  158.8482 C   0  0  2  0  0  0  0  0  0  0  0  0
  151.5738  141.9058  158.2496 N   0  0  0  0  0  0  0  0  0  0  0  0
  151.7332  140.6050  157.9662 C   0  0  0  0  0  0  0  0  0  0  0  0
  152.8070  140.0498  158.2106 O   0  0  0  0  0  0  0  0  0  0  0  0
  150.6411  140.0306  157.4131 N   0  5  0  0  0  0  0  0  0  0  0  0
  150.7854  139.1435  156.4152 C   0  0  0  0  0  0  0  0  0  0  0  0
  149.9036  138.8932  155.4458 N   0  0  0  0  0  0  0  0  0  0  0  0
  150.4832  137.9182  154.6485 C   0  0  0  0  0  0  0  0  0  0  0  0
  151.7117  137.6227  155.1733 C   0  0  0  0  0  0  0  0  0  0  0  0
  151.9151  138.3915  156.2857 O   0  0  0  0  0  0  0  0  0  0  0  0
  154.3416  140.5882  161.3869 H   0  0  0  0  0  0  0  0  0  0  0  0
  153.8546  140.9149  159.7247 H   0  0  0  0  0  0  0  0  0  0  0  0
  152.6566  140.3803  160.9176 H   0  0  0  0  0  0  0  0  0  0  0  0
  151.3199  142.5641  160.6048 H   0  0  0  0  0  0  0  0  0  0  0  0
  151.6148  144.7921  161.4008 H   0  0  0  0  0  0  0  0  0  0  0  0
  153.2769  144.8563  160.8200 H   0  0  0  0  0  0  0  0  0  0  0  0
  150.7575  144.9983  159.1358 H   0  0  0  0  0  0  0  0  0  0  0  0
  152.1076  146.1346  159.1347 H   0  0  0  0  0  0  0  0  0  0  0  0
  152.0382  144.2192  157.2454 H   0  0  0  0  0  0  0  0  0  0  0  0
  153.5534  144.5450  158.0659 H   0  0  0  0  0  0  0  0  0  0  0  0
  153.5689  142.3511  158.7028 H   0  0  0  0  0  0  0  0  0  0  0  0
  150.6785  142.3190  158.0337 H   0  0  0  0  0  0  0  0  0  0  0  0
  149.9826  137.5186  153.7793 H   0  0  0  0  0  0  0  0  0  0  0  0
  152.5048  136.9441  154.8978 H   0  0  0  0  0  0  0  0  0  0  0  0
  1  2  1  0  0  0  0
  1 17  1  0  0  0  0
  1 18  1  0  0  0  0
  1 19  1  0  0  0  0
  2  3  1  0  0  0  0
  3  7  1  0  0  0  0
  3  4  1  0  0  0  0
  3 20  1  0  0  0  0
  4  5  1  0  0  0  0
  4 21  1  0  0  0  0
  4 22  1  0  0  0  0
  5  6  1  0  0  0  0
  5 23  1  0  0  0  0
  5 24  1  0  0  0  0
  6  7  1  0  0  0  0
  6 25  1  0  0  0  0
  6 26  1  0  0  0  0
  7  8  1  0  0  0  0
  7 27  1  0  0  0  0
  8 28  1  0  0  0  0
  8  9  1  0  0  0  0
  9 11  1  0  0  0  0
  9 10  2  0  0  0  0
 11 12  1  0  0  0  0
 12 16  1  0  0  0  0
 12 13  2  0  0  0  0
 13 14  1  0  0  0  0
 14 29  1  0  0  0  0
 14 15  2  0  0  0  0
 15 30  1  0  0  0  0
 15 16  1  0  0  0  0
M  CHG  1  11  -1
M  END
> <s_m_source_file>
AV-unprocessed.smi

> <i_m_source_file_index>
2784

> <i_lp_mmshare_version>
43012

> <i_f3d_flags>
0

> <s_epik_input>
W0NIM11PW0NAQEhdMVtDSDJdW0NIMl1bQ0gyXVtDQEhdMVtOSF1DKD1PKVtOSF1jMm5bY0hdW2NIXW8y

> <s_epik_cmdline>
J2VwaWtfcHl0aG9uJywgJy1waCcsICc3LjAnLCAnLXRuJywgJzgnLCAnLW1hJywgJzIwMCcsICctbWV0YWxfYmluZGluZycsICctaW1hZScsICc8aW5maWxlLm1hZT4nLCAnLW9tYWUnLCAnPG91dGZpbGUubWFlPic=

> <r_lp_tautomer_probability>
0.107061

> <r_epik_Ionization_Penalty>
10.8857

> <r_epik_Ionization_Penalty_Charging>
7.67908

> <r_epik_Ionization_Penalty_Neutral>
3.20665

> <r_epik_State_Penalty>
5.80296

> <r_epik_Charging_Adjusted_Penalty>
13.482

> <i_epik_Tot_Q>
-1

> <i_epik_Tot_abs_Q>
1

> <r_epik_Metal_State_Penalty>
1.73217

> <b_epik_Metal_Only>
1

> <s_lp_Force_Field>
OPLS_2005

> <r_lp_Energy>
14.4725

> <b_lp_Chiralities_Consistent>
1

> <s_lp_Variant>
AV-unprocessed.smi:2784-20

> <Gold.Version>
5.8.1

> <Gold.Id.Protein>
6NUR|6NUR_protein|mol2

> <Gold.PLP.Fitness>
42.5638

> <Gold.PLP.PLP>
-35.8462

> <Gold.PLP.part.hbond>
-1.0000

> <Gold.PLP.part.metal>
0.0000

> <Gold.PLP.part.buried>
-5.1358

> <Gold.PLP.part.nonpolar>
-29.0817

> <Gold.PLP.part.repulsive>
0.1679

> <Gold.PLP.ligand.clash>
0.0000

> <Gold.PLP.ligand.torsion>
0.8031

> <Gold.PLP.Chemscore.Hbond>
0.9600

> <Gold.PLP.Chemscore.CHOScore>
1.8084

> <Gold.PLP.Chemscore.Metal>
0.0000

> <Gold.Chemscore.Hbonds>
donor molecule, donor type, donor heavy atom, donor atom, acceptor molecule, acceptor atom, score
      P1  H  7997  8010       L1    10  0.64
      L1  C    14    29       P1  7948  1.00

> <Gold.PLP.Chemscore.Internal.Correction>
0.0185

> <Gold.Rescore>
     Score         DG    S(hbond)    S(metal)    S(lipo)     H(rot)  DE(clash)    DE(int)     intcor
     11.79     -15.44       0.88        0.00      88.73       1.31       0.03       3.62       ----

> <Gold.Chemscore.Fitness>
11.7892

> <Gold.Chemscore.DG>
-15.4404

> <Gold.Chemscore.ZeroCoef>
-5.4800

> <Gold.Chemscore.Hbond>
0.8785

> <Gold.Chemscore.Metal>
0.0000

> <Gold.Chemscore.Lipo>
88.7276

> <Gold.Chemscore.Internal_Hbond>
0.0000

> <Gold.Chemscore.DEClash>
0.0298

> <Gold.Chemscore.DEInternal>
3.6214

> <Gold.Chemscore.Rot>
1.3106

> <Gold.Chemscore.Internal.Correction>
   9.000000E+99

> <Gold.Chemscore.Hbonds>
donor molecule, donor type, donor heavy atom, donor atom, acceptor molecule, acceptor atom, score
      P1  H  7997  8010       L1    10  0.61

> <Gold.Chemscore.Hbond.Weighted>
-2.9342

> <Gold.Chemscore.Metal.Weighted>
-0.0000

> <Gold.Chemscore.Lipo.Weighted>
-10.3811

> <Gold.Chemscore.Internal_Hbond.Weighted>
0.0000

> <Gold.Chemscore.DEClash.Weighted>
0.0298

> <Gold.Chemscore.DEInternal.Weighted>
3.6214

> <Gold.Chemscore.Rot.Weighted>
3.3550

> <Gold.Chemscore.Internal.Correction.Weighted>
   9.000000E+99

> <Gold.Protein.RotatedTorsions>
[ 6907 6896 6895 6894 ] final   -5.04 input  -60.11 | X-H torsion
[ 7974 7965 7964 7962 ] final -120.33 input  175.53 | X-H torsion
[ 8008 7997 7996 7995 ] final   53.01 input   59.86 | X-H torsion
[ 10167 10162 10161 10158 ] final  -68.10 input  -65.29 | X-H torsion
[ 10718 10713 10712 10709 ] final   26.74 input   66.30 | X-H torsion
[ 10763 10752 10751 10750 ] final -117.40 input  -60.55 | X-H torsion
[ 11005 11000 10999 10996 ] final  100.99 input  -57.11 | X-H torsion

> <Gold.Protein.ActiveResidues>
 VAL166  LYS551  ARG553  GLY616  TRP617  ASP618  TYR619  PRO620  LYS621  CYS622 
 ASP623  PHE694  ASN695  SER759  ASP760  ASP761  ALA762  ILE779  LEU786  VAL792 
 PHE793  MET794  SER795  GLU796  ALA797  LYS798  CYS799  TRP800  GLU811  SER814 

> <Gold.Protein.RotatedAtoms>
  151.4880  135.1056  159.9795 H   0  0  0  0  0  0  0  0  0  0  0  0  # atno 6907 bound_to 6896
  152.4752  133.8118  159.7018 H   0  0  0  0  0  0  0  0  0  0  0  0  # atno 6908 bound_to 6896
  150.8786  133.7342  159.2965 H   0  0  0  0  0  0  0  0  0  0  0  0  # atno 6909 bound_to 6896
  145.0525  140.8229  143.4200 H   0  0  0  0  0  0  0  0  0  0  0  0  # atno 7974 bound_to 7965
  155.4612  140.3462  155.4313 H   0  0  0  0  0  0  0  0  0  0  0  0  # atno 8008 bound_to 7997
  156.1159  140.1474  156.9302 H   0  0  0  0  0  0  0  0  0  0  0  0  # atno 8009 bound_to 7997
  154.4789  140.0876  156.7308 H   0  0  0  0  0  0  0  0  0  0  0  0  # atno 8010 bound_to 7997
  140.5533  143.2312  151.6869 H   0  0  0  0  0  0  0  0  0  0  0  0  # atno 10167 bound_to 10162
  157.2109  130.6933  149.6228 H   0  0  0  0  0  0  0  0  0  0  0  0  # atno 10718 bound_to 10713
  154.8553  135.4311  154.1974 H   0  0  0  0  0  0  0  0  0  0  0  0  # atno 10763 bound_to 10752
  153.3029  135.6970  153.7192 H   0  0  0  0  0  0  0  0  0  0  0  0  # atno 10764 bound_to 10752
  153.6315  135.3484  155.3017 H   0  0  0  0  0  0  0  0  0  0  0  0  # atno 10765 bound_to 10752
  139.8772  134.9164  156.4839 H   0  0  0  0  0  0  0  0  0  0  0  0  # atno 11005 bound_to 11000
  145.1509  139.2515  143.5441 LP  0  0  0  0  0  0  0  0  0  0  0  0  # atno 17320 bound_to 7965
  146.3519  140.1211  142.8600 LP  0  0  0  0  0  0  0  0  0  0  0  0  # atno 17321 bound_to 7965
  139.5037  144.3782  152.0402 LP  0  0  0  0  0  0  0  0  0  0  0  0  # atno 17342 bound_to 10162
  140.2901  144.3763  150.6091 LP  0  0  0  0  0  0  0  0  0  0  0  0  # atno 17343 bound_to 10162
  155.9691  130.4551  150.5877 LP  0  0  0  0  0  0  0  0  0  0  0  0  # atno 17370 bound_to 10713
  157.3673  131.0760  151.1587 LP  0  0  0  0  0  0  0  0  0  0  0  0  # atno 17371 bound_to 10713
  140.8707  133.7990  155.9362 LP  0  0  0  0  0  0  0  0  0  0  0  0  # atno 17394 bound_to 11000
  140.8955  134.2443  157.5071 LP  0  0  0  0  0  0  0  0  0  0  0  0  # atno 17395 bound_to 11000

$$$$
