AV-unprocessed.smi:1745|AV-procd|sdf|7031|dock2
  -GOLD-   22720 8253D 1   1.00000     0.00000
 Structure written by MMmdl.
 47 49  0  0  0  0  0  0  0  0  1 V2000
  146.1497  136.8103  153.5613 C   0  0  0  0  0  0  0  0  0  0  0  0
  145.2925  136.7783  152.2872 C   0  0  2  0  0  0  0  0  0  0  0  0
  144.0954  137.5879  152.5092 N   0  0  0  0  0  0  0  0  0  0  0  0
  142.9548  137.1678  153.0756 C   0  0  0  0  0  0  0  0  0  0  0  0
  142.7862  136.0267  153.5047 O   0  0  0  0  0  0  0  0  0  0  0  0
  142.0362  138.1484  153.0939 N   0  0  0  0  0  0  0  0  0  0  0  0
  140.6959  138.0935  153.5619 C   0  0  0  0  0  0  0  0  0  0  0  0
  140.1208  136.9746  154.2072 C   0  0  0  0  0  0  0  0  0  0  0  0
  138.7813  137.0485  154.6346 C   0  0  0  0  0  0  0  0  0  0  0  0
  138.0484  138.2388  154.4168 C   0  0  0  0  0  0  0  0  0  0  0  0
  136.7010  138.3290  154.8287 N   0  0  0  0  0  0  0  0  0  0  0  0
  136.0653  139.6321  154.6506 C   0  0  0  0  0  0  0  0  0  0  0  0
  134.7333  139.6869  155.4190 C   0  0  0  0  0  0  0  0  0  0  0  0
  133.9003  138.6031  155.0205 O   0  0  0  0  0  0  0  0  0  0  0  0
  134.4961  137.3428  155.3094 C   0  0  0  0  0  0  0  0  0  0  0  0
  135.8161  137.2044  154.5323 C   0  0  0  0  0  0  0  0  0  0  0  0
  138.6077  139.3131  153.8078 N   0  0  0  0  0  0  0  0  0  0  0  0
  139.8924  139.2394  153.4026 C   0  0  0  0  0  0  0  0  0  0  0  0
  144.9086  135.3381  151.8885 C   0  0  1  0  0  0  0  0  0  0  0  0
  144.3382  135.1856  150.4764 C   0  0  0  0  0  0  0  0  0  0  0  0
  144.6344  133.7338  150.1810 C   0  0  0  0  0  0  0  0  0  0  0  0
  146.0058  133.5594  150.8259 C   0  0  0  0  0  0  0  0  0  0  0  0
  146.0580  134.4940  151.9012 O   0  0  0  0  0  0  0  0  0  0  0  0
  147.0733  136.2461  153.4299 H   0  0  0  0  0  0  0  0  0  0  0  0
  145.6163  136.3821  154.4108 H   0  0  0  0  0  0  0  0  0  0  0  0
  146.4264  137.8324  153.8224 H   0  0  0  0  0  0  0  0  0  0  0  0
  145.8882  137.2109  151.4811 H   0  0  0  0  0  0  0  0  0  0  0  0
  144.1361  138.5439  152.1879 H   0  0  0  0  0  0  0  0  0  0  0  0
  142.3015  139.0120  152.6437 H   0  0  0  0  0  0  0  0  0  0  0  0
  140.6773  136.0688  154.3903 H   0  0  0  0  0  0  0  0  0  0  0  0
  138.3310  136.1900  155.1099 H   0  0  0  0  0  0  0  0  0  0  0  0
  136.7047  140.4446  154.9921 H   0  0  0  0  0  0  0  0  0  0  0  0
  135.8890  139.7937  153.5864 H   0  0  0  0  0  0  0  0  0  0  0  0
  134.9045  139.6505  156.4962 H   0  0  0  0  0  0  0  0  0  0  0  0
  134.2183  140.6249  155.2107 H   0  0  0  0  0  0  0  0  0  0  0  0
  134.6648  137.2459  156.3831 H   0  0  0  0  0  0  0  0  0  0  0  0
  133.8070  136.5486  155.0223 H   0  0  0  0  0  0  0  0  0  0  0  0
  135.6173  137.1742  153.4601 H   0  0  0  0  0  0  0  0  0  0  0  0
  136.2973  136.2637  154.8032 H   0  0  0  0  0  0  0  0  0  0  0  0
  140.2877  140.1250  152.9266 H   0  0  0  0  0  0  0  0  0  0  0  0
  144.1921  134.9294  152.6033 H   0  0  0  0  0  0  0  0  0  0  0  0
  143.2761  135.4249  150.4164 H   0  0  0  0  0  0  0  0  0  0  0  0
  144.8744  135.8241  149.7726 H   0  0  0  0  0  0  0  0  0  0  0  0
  143.9012  133.0945  150.6747 H   0  0  0  0  0  0  0  0  0  0  0  0
  144.6310  133.5010  149.1160 H   0  0  0  0  0  0  0  0  0  0  0  0
  146.1725  132.5406  151.1758 H   0  0  0  0  0  0  0  0  0  0  0  0
  146.7955  133.8066  150.1156 H   0  0  0  0  0  0  0  0  0  0  0  0
  1  2  1  0  0  0  0
  1 24  1  0  0  0  0
  1 25  1  0  0  0  0
  1 26  1  0  0  0  0
  2  3  1  0  0  0  0
  2 19  1  0  0  0  0
  2 27  1  0  0  0  0
  3  4  1  0  0  0  0
  3 28  1  0  0  0  0
  4  5  2  0  0  0  0
  4  6  1  0  0  0  0
  6  7  1  0  0  0  0
  6 29  1  0  0  0  0
  7 18  1  0  0  0  0
  7  8  2  0  0  0  0
  8  9  1  0  0  0  0
  8 30  1  0  0  0  0
  9 10  2  0  0  0  0
  9 31  1  0  0  0  0
 10 11  1  0  0  0  0
 10 17  1  0  0  0  0
 11 16  1  0  0  0  0
 11 12  1  0  0  0  0
 12 13  1  0  0  0  0
 12 32  1  0  0  0  0
 12 33  1  0  0  0  0
 13 14  1  0  0  0  0
 13 34  1  0  0  0  0
 13 35  1  0  0  0  0
 14 15  1  0  0  0  0
 15 16  1  0  0  0  0
 15 36  1  0  0  0  0
 15 37  1  0  0  0  0
 16 38  1  0  0  0  0
 16 39  1  0  0  0  0
 17 18  2  0  0  0  0
 18 40  1  0  0  0  0
 19 23  1  0  0  0  0
 19 20  1  0  0  0  0
 19 41  1  0  0  0  0
 20 21  1  0  0  0  0
 20 42  1  0  0  0  0
 20 43  1  0  0  0  0
 21 22  1  0  0  0  0
 21 44  1  0  0  0  0
 21 45  1  0  0  0  0
 22 23  1  0  0  0  0
 22 46  1  0  0  0  0
 22 47  1  0  0  0  0
M  END
> <s_m_source_file>
AV-unprocessed.smi

> <i_m_source_file_index>
1745

> <i_lp_mmshare_version>
43012

> <i_f3d_flags>
0

> <s_epik_input>
TzFbQ0gyXVtDSDJdW0NIMl1bQ0BIXTFbQ0BIXShbQ0gzXSlbTkhdQyg9TylbTkhdYzJbY0hdW2NIXWMobltjSF0yKU4zW0NIMl1bQ0gyXU9bQ0gyXVtDSDJdMw==

> <s_epik_cmdline>
J2VwaWtfcHl0aG9uJywgJy1waCcsICc3LjAnLCAnLXRuJywgJzgnLCAnLW1hJywgJzIwMCcsICctbWV0YWxfYmluZGluZycsICctaW1hZScsICc8aW5maWxlLm1hZT4nLCAnLW9tYWUnLCAnPG91dGZpbGUubWFlPic=

> <r_lp_tautomer_probability>
1

> <r_epik_Ionization_Penalty>
0.00206005

> <r_epik_Ionization_Penalty_Charging>
0

> <r_epik_Ionization_Penalty_Neutral>
0.00206005

> <r_epik_State_Penalty>
0.00138459

> <r_epik_Charging_Adjusted_Penalty>
0.00138459

> <i_epik_Tot_Q>
0

> <i_epik_Tot_abs_Q>
0

> <r_epik_Metal_State_Penalty>
-0

> <b_epik_Metal_Only>
0

> <s_lp_Force_Field>
OPLS_2005

> <r_lp_Energy>
34.4703

> <b_lp_Chiralities_Consistent>
1

> <s_lp_Variant>
AV-unprocessed.smi:1745-3

> <Gold.Version>
5.8.1

> <Gold.Id.Protein>
6NUR|6NUR_protein|mol2

> <Gold.PLP.Fitness>
43.1897

> <Gold.PLP.PLP>
-35.3524

> <Gold.PLP.part.hbond>
-3.0000

> <Gold.PLP.part.metal>
0.0000

> <Gold.PLP.part.buried>
-4.4188

> <Gold.PLP.part.nonpolar>
-29.0795

> <Gold.PLP.part.repulsive>
0.3750

> <Gold.PLP.ligand.clash>
0.0000

> <Gold.PLP.ligand.torsion>
0.6856

> <Gold.PLP.Chemscore.Hbond>
1.9680

> <Gold.PLP.Chemscore.CHOScore>
0.9796

> <Gold.PLP.Chemscore.Metal>
0.0000

> <Gold.Chemscore.Hbonds>
donor molecule, donor type, donor heavy atom, donor atom, acceptor molecule, acceptor atom, score
      L1  H     3    28       P1 10175  0.99
      L1  H     6    29       P1 10175  0.98
      L1  C    18    40       P1 10160  0.96

> <Gold.PLP.Chemscore.Internal.Correction>
0.3656

> <Gold.Rescore>
     Score         DG    S(hbond)    S(metal)    S(lipo)     H(rot)  DE(clash)    DE(int)     intcor
     13.62     -17.24       1.97        0.00      74.92       1.40       0.29       3.33       ----

> <Gold.Chemscore.Fitness>
13.6193

> <Gold.Chemscore.DG>
-17.2440

> <Gold.Chemscore.ZeroCoef>
-5.4800

> <Gold.Chemscore.Hbond>
1.9671

> <Gold.Chemscore.Metal>
0.0000

> <Gold.Chemscore.Lipo>
74.9160

> <Gold.Chemscore.Internal_Hbond>
0.0000

> <Gold.Chemscore.DEClash>
0.2930

> <Gold.Chemscore.DEInternal>
3.3317

> <Gold.Chemscore.Rot>
1.3950

> <Gold.Chemscore.Internal.Correction>
   9.000000E+99

> <Gold.Chemscore.Hbonds>
donor molecule, donor type, donor heavy atom, donor atom, acceptor molecule, acceptor atom, score
      L1  H     3    28       P1 10175  0.92
      L1  H     6    29       P1 10175  0.90

> <Gold.Chemscore.Hbond.Weighted>
-6.5700

> <Gold.Chemscore.Metal.Weighted>
-0.0000

> <Gold.Chemscore.Lipo.Weighted>
-8.7652

> <Gold.Chemscore.Internal_Hbond.Weighted>
0.0000

> <Gold.Chemscore.DEClash.Weighted>
0.2930

> <Gold.Chemscore.DEInternal.Weighted>
3.3317

> <Gold.Chemscore.Rot.Weighted>
3.5712

> <Gold.Chemscore.Internal.Correction.Weighted>
   9.000000E+99

> <Gold.Protein.RotatedTorsions>
[ 6907 6896 6895 6894 ] final  -23.48 input  -60.11 | X-H torsion
[ 7974 7965 7964 7962 ] final   -9.28 input  175.53 | X-H torsion
[ 8008 7997 7996 7995 ] final -155.73 input   59.86 | X-H torsion
[ 10167 10162 10161 10158 ] final    0.29 input  -65.29 | X-H torsion
[ 10718 10713 10712 10709 ] final  112.98 input   66.30 | X-H torsion
[ 10763 10752 10751 10750 ] final -161.62 input  -60.55 | X-H torsion
[ 11005 11000 10999 10996 ] final  126.04 input  -57.11 | X-H torsion

> <Gold.Protein.ActiveResidues>
 VAL166  LYS551  ARG553  GLY616  TRP617  ASP618  TYR619  PRO620  LYS621  CYS622 
 ASP623  PHE694  ASN695  SER759  ASP760  ASP761  ALA762  ILE779  LEU786  VAL792 
 PHE793  MET794  SER795  GLU796  ALA797  LYS798  CYS799  TRP800  GLU811  SER814 

> <Gold.Protein.RotatedAtoms>
  151.2033  135.0452  159.8881 H   0  0  0  0  0  0  0  0  0  0  0  0  # atno 6907 bound_to 6896
  152.5431  134.0825  159.8252 H   0  0  0  0  0  0  0  0  0  0  0  0  # atno 6908 bound_to 6896
  151.0969  133.5225  159.2644 H   0  0  0  0  0  0  0  0  0  0  0  0  # atno 6909 bound_to 6896
  146.2256  140.2593  142.8351 H   0  0  0  0  0  0  0  0  0  0  0  0  # atno 7974 bound_to 7965
  155.7064  140.0773  157.2389 H   0  0  0  0  0  0  0  0  0  0  0  0  # atno 8008 bound_to 7997
  154.4065  140.1638  156.2300 H   0  0  0  0  0  0  0  0  0  0  0  0  # atno 8009 bound_to 7997
  155.9322  140.3390  155.6261 H   0  0  0  0  0  0  0  0  0  0  0  0  # atno 8010 bound_to 7997
  140.6735  143.6981  150.7973 H   0  0  0  0  0  0  0  0  0  0  0  0  # atno 10167 bound_to 10162
  157.6363  131.0976  150.6975 H   0  0  0  0  0  0  0  0  0  0  0  0  # atno 10718 bound_to 10713
  154.7288  135.3042  154.8927 H   0  0  0  0  0  0  0  0  0  0  0  0  # atno 10763 bound_to 10752
  153.9776  135.6734  153.4753 H   0  0  0  0  0  0  0  0  0  0  0  0  # atno 10764 bound_to 10752
  153.0899  135.4965  154.8590 H   0  0  0  0  0  0  0  0  0  0  0  0  # atno 10765 bound_to 10752
  139.9436  134.9632  156.8647 H   0  0  0  0  0  0  0  0  0  0  0  0  # atno 11005 bound_to 11000
  144.9352  140.8018  143.5665 LP  0  0  0  0  0  0  0  0  0  0  0  0  # atno 17320 bound_to 7965
  145.2540  139.2020  143.4927 LP  0  0  0  0  0  0  0  0  0  0  0  0  # atno 17321 bound_to 7965
  140.0671  143.5098  152.2599 LP  0  0  0  0  0  0  0  0  0  0  0  0  # atno 17342 bound_to 10162
  139.6015  144.7584  151.3160 LP  0  0  0  0  0  0  0  0  0  0  0  0  # atno 17343 bound_to 10162
  156.7306  130.4708  149.5500 LP  0  0  0  0  0  0  0  0  0  0  0  0  # atno 17370 bound_to 10713
  156.1605  130.6370  151.0712 LP  0  0  0  0  0  0  0  0  0  0  0  0  # atno 17371 bound_to 10713
  140.5890  134.0280  155.7492 LP  0  0  0  0  0  0  0  0  0  0  0  0  # atno 17394 bound_to 11000
  141.1079  133.9664  157.2964 LP  0  0  0  0  0  0  0  0  0  0  0  0  # atno 17395 bound_to 11000

$$$$
