AV-unprocessed.smi:2253|AV-procd|sdf|9117|dock6
  -GOLD-   2272012323D 1   1.00000     0.00000
 Structure written by MMmdl.
 52 54  0  0  0  0  0  0  0  0  3 V2000
  149.2518  138.2376  154.7357 C   0  0  0  0  0  0  0  0  0  0  0  0
  148.1657  137.7835  153.8402 N   0  3  2  0  0  0  0  0  0  0  0  0
  147.5035  138.9068  153.1386 C   0  0  0  0  0  0  0  0  0  0  0  0
  146.4673  138.3953  152.1231 C   0  0  0  0  0  0  0  0  0  0  0  0
  145.3964  137.4815  152.7734 C   0  0  1  0  0  0  0  0  0  0  0  0
  144.4324  136.9045  151.7739 N   0  3  2  0  0  0  0  0  0  0  0  0
  143.2346  136.2190  152.3401 C   0  0  0  0  0  0  0  0  0  0  0  0
  143.6008  134.8689  152.9849 C   0  0  0  0  0  0  0  0  0  0  0  0
  144.2728  133.9417  151.9577 C   0  0  2  0  0  0  0  0  0  0  0  0
  144.6911  132.7003  152.6032 N   0  0  0  0  0  0  0  0  0  0  0  0
  145.5593  131.8188  152.0847 C   0  0  0  0  0  0  0  0  0  0  0  0
  146.1248  131.9889  151.0055 O   0  0  0  0  0  0  0  0  0  0  0  0
  145.7144  130.7579  152.8961 N   0  0  0  0  0  0  0  0  0  0  0  0
  146.5103  129.5891  152.7276 C   0  0  0  0  0  0  0  0  0  0  0  0
  146.7356  128.9314  151.4928 C   0  0  0  0  0  0  0  0  0  0  0  0
  147.5450  127.7774  151.4796 C   0  0  0  0  0  0  0  0  0  0  0  0
  148.1217  127.2588  152.5840 N   0  0  0  0  0  0  0  0  0  0  0  0
  147.9047  127.8863  153.7587 C   0  0  0  0  0  0  0  0  0  0  0  0
  147.1126  129.0453  153.8824 C   0  0  0  0  0  0  0  0  0  0  0  0
  146.9350  129.6239  155.0950 F   0  0  0  0  0  0  0  0  0  0  0  0
  145.4679  134.6577  151.2973 C   0  0  0  0  0  0  0  0  0  0  0  0
  145.0529  136.0320  150.7340 C   0  0  0  0  0  0  0  0  0  0  0  0
  146.1380  136.3668  153.5537 C   0  0  0  0  0  0  0  0  0  0  0  0
  147.1793  136.9270  154.5373 C   0  0  0  0  0  0  0  0  0  0  0  0
  148.8630  138.8684  155.5363 H   0  0  0  0  0  0  0  0  0  0  0  0
  149.9956  138.8096  154.1799 H   0  0  0  0  0  0  0  0  0  0  0  0
  149.7598  137.3852  155.1879 H   0  0  0  0  0  0  0  0  0  0  0  0
  147.0237  139.5623  153.8675 H   0  0  0  0  0  0  0  0  0  0  0  0
  148.2541  139.5054  152.6208 H   0  0  0  0  0  0  0  0  0  0  0  0
  146.0066  139.2736  151.6722 H   0  0  0  0  0  0  0  0  0  0  0  0
  146.9776  137.8586  151.3219 H   0  0  0  0  0  0  0  0  0  0  0  0
  144.8391  138.0887  153.4868 H   0  0  0  0  0  0  0  0  0  0  0  0
  142.6840  136.8524  153.0330 H   0  0  0  0  0  0  0  0  0  0  0  0
  142.5331  136.0391  151.5241 H   0  0  0  0  0  0  0  0  0  0  0  0
  144.2585  135.0291  153.8402 H   0  0  0  0  0  0  0  0  0  0  0  0
  142.7001  134.3943  153.3766 H   0  0  0  0  0  0  0  0  0  0  0  0
  143.5361  133.7058  151.1868 H   0  0  0  0  0  0  0  0  0  0  0  0
  144.2723  132.4841  153.4963 H   0  0  0  0  0  0  0  0  0  0  0  0
  145.1833  130.7824  153.7542 H   0  0  0  0  0  0  0  0  0  0  0  0
  146.3131  129.2727  150.5618 H   0  0  0  0  0  0  0  0  0  0  0  0
  147.7333  127.2551  150.5532 H   0  0  0  0  0  0  0  0  0  0  0  0
  148.3759  127.4504  154.6272 H   0  0  0  0  0  0  0  0  0  0  0  0
  146.2803  134.7753  152.0149 H   0  0  0  0  0  0  0  0  0  0  0  0
  145.8684  134.0441  150.4895 H   0  0  0  0  0  0  0  0  0  0  0  0
  144.3181  135.8785  149.9422 H   0  0  0  0  0  0  0  0  0  0  0  0
  145.8949  136.5116  150.2407 H   0  0  0  0  0  0  0  0  0  0  0  0
  145.4446  135.7608  154.1338 H   0  0  0  0  0  0  0  0  0  0  0  0
  146.6290  135.6900  152.8526 H   0  0  0  0  0  0  0  0  0  0  0  0
  147.6967  136.1008  155.0271 H   0  0  0  0  0  0  0  0  0  0  0  0
  146.6847  137.5010  155.3228 H   0  0  0  0  0  0  0  0  0  0  0  0
  144.0666  137.7041  151.2764 H   0  0  0  0  0  0  0  0  0  0  0  0
  148.6022  137.2110  153.1314 H   0  0  0  0  0  0  0  0  0  0  0  0
  1  2  1  0  0  0  0
  1 25  1  0  0  0  0
  1 26  1  0  0  0  0
  1 27  1  0  0  0  0
  2 24  1  0  0  0  0
  2  3  1  0  0  0  0
  2 52  1  0  0  0  0
  3  4  1  0  0  0  0
  3 28  1  0  0  0  0
  3 29  1  0  0  0  0
  4  5  1  0  0  0  0
  4 30  1  0  0  0  0
  4 31  1  0  0  0  0
  5  6  1  0  0  0  0
  5 23  1  0  0  0  0
  5 32  1  0  0  0  0
  6 22  1  0  0  0  0
  6  7  1  0  0  0  0
  6 51  1  0  0  0  0
  7  8  1  0  0  0  0
  7 33  1  0  0  0  0
  7 34  1  0  0  0  0
  8  9  1  0  0  0  0
  8 35  1  0  0  0  0
  8 36  1  0  0  0  0
  9 10  1  0  0  0  0
  9 21  1  0  0  0  0
  9 37  1  0  0  0  0
 10 11  1  0  0  0  0
 10 38  1  0  0  0  0
 11 12  2  0  0  0  0
 11 13  1  0  0  0  0
 13 14  1  0  0  0  0
 13 39  1  0  0  0  0
 14 19  1  0  0  0  0
 14 15  2  0  0  0  0
 15 16  1  0  0  0  0
 15 40  1  0  0  0  0
 16 17  2  0  0  0  0
 16 41  1  0  0  0  0
 17 18  1  0  0  0  0
 18 19  2  0  0  0  0
 18 42  1  0  0  0  0
 19 20  1  0  0  0  0
 21 22  1  0  0  0  0
 21 43  1  0  0  0  0
 21 44  1  0  0  0  0
 22 45  1  0  0  0  0
 22 46  1  0  0  0  0
 23 24  1  0  0  0  0
 23 47  1  0  0  0  0
 23 48  1  0  0  0  0
 24 49  1  0  0  0  0
 24 50  1  0  0  0  0
M  CHG  1   2   1
M  CHG  1   6   1
M  END
> <s_m_source_file>
AV-unprocessed.smi

> <i_m_source_file_index>
2253

> <i_lp_mmshare_version>
43012

> <i_f3d_flags>
0

> <s_epik_input>
W0NIM11OMVtDSDJdW0NIMl1bQ0hdKFtDSDJdW0NIMl0xKU4yW0NIMl1bQ0gyXVtDSF0oW0NIMl1bQ0gyXTIpW05IXUMoPU8pW05IXWMzW2NIXVtjSF1uW2NIXWMzRg==

> <s_epik_cmdline>
J2VwaWtfcHl0aG9uJywgJy1waCcsICc3LjAnLCAnLXRuJywgJzgnLCAnLW1hJywgJzIwMCcsICctbWV0YWxfYmluZGluZycsICctaW1hZScsICc8aW5maWxlLm1hZT4nLCAnLW9tYWUnLCAnPG91dGZpbGUubWFlPic=

> <r_epik_Ionization_Penalty>
0.183544

> <r_epik_Ionization_Penalty_Charging>
0.180787

> <r_epik_Ionization_Penalty_Neutral>
0.00275649

> <r_epik_State_Penalty>
0.153592

> <r_epik_Charging_Adjusted_Penalty>
0.334379

> <i_epik_Tot_Q>
2

> <i_epik_Tot_abs_Q>
2

> <r_epik_Metal_State_Penalty>
0.153693

> <b_epik_Metal_Only>
0

> <s_lp_Force_Field>
OPLS_2005

> <r_lp_Energy>
48.1083

> <b_lp_Chiralities_Consistent>
1

> <s_lp_Variant>
AV-unprocessed.smi:2253-3

> <Gold.Version>
5.8.1

> <Gold.Id.Protein>
6NUR|6NUR_protein|mol2

> <Gold.PLP.Fitness>
42.9656

> <Gold.PLP.PLP>
-35.9835

> <Gold.PLP.part.hbond>
-2.9155

> <Gold.PLP.part.metal>
0.0000

> <Gold.PLP.part.buried>
-3.0842

> <Gold.PLP.part.nonpolar>
-30.6356

> <Gold.PLP.part.repulsive>
0.2570

> <Gold.PLP.ligand.clash>
2.9920

> <Gold.PLP.ligand.torsion>
0.5363

> <Gold.PLP.Chemscore.Hbond>
3.6663

> <Gold.PLP.Chemscore.CHOScore>
0.0000

> <Gold.PLP.Chemscore.Metal>
0.0000

> <Gold.Chemscore.Hbonds>
donor molecule, donor type, donor heavy atom, donor atom, acceptor molecule, acceptor atom, score
      L1  H     2    52       P1  7948  2.00
      L1  H     6    51       P1 10171  1.00
      L1  H    10    38       P1 10957  0.67

> <Gold.PLP.Chemscore.Internal.Correction>
0.0479

> <Gold.Rescore>
     Score         DG    S(hbond)    S(metal)    S(lipo)     H(rot)  DE(clash)    DE(int)     intcor
     15.72     -20.31       2.38        0.00      86.25       1.26       0.48       4.11       ----

> <Gold.Chemscore.Fitness>
15.7184

> <Gold.Chemscore.DG>
-20.3073

> <Gold.Chemscore.ZeroCoef>
-5.4800

> <Gold.Chemscore.Hbond>
2.3805

> <Gold.Chemscore.Metal>
0.0000

> <Gold.Chemscore.Lipo>
86.2543

> <Gold.Chemscore.Internal_Hbond>
0.0000

> <Gold.Chemscore.DEClash>
0.4824

> <Gold.Chemscore.DEInternal>
4.1065

> <Gold.Chemscore.Rot>
1.2559

> <Gold.Chemscore.Internal.Correction>
   9.000000E+99

> <Gold.Chemscore.Hbonds>
donor molecule, donor type, donor heavy atom, donor atom, acceptor molecule, acceptor atom, score
      L1  H     2    52       P1  7948  0.99
      L1  H     6    51       P1 10171  0.95
      L1  H    10    38       P1 10957  0.17

> <Gold.Chemscore.Hbond.Weighted>
-7.9507

> <Gold.Chemscore.Metal.Weighted>
-0.0000

> <Gold.Chemscore.Lipo.Weighted>
-10.0917

> <Gold.Chemscore.Internal_Hbond.Weighted>
0.0000

> <Gold.Chemscore.DEClash.Weighted>
0.4824

> <Gold.Chemscore.DEInternal.Weighted>
4.1065

> <Gold.Chemscore.Rot.Weighted>
3.2151

> <Gold.Chemscore.Internal.Correction.Weighted>
   9.000000E+99

> <Gold.Protein.RotatedTorsions>
[ 6907 6896 6895 6894 ] final  131.78 input  -60.11 | X-H torsion
[ 7974 7965 7964 7962 ] final -133.75 input  175.53 | X-H torsion
[ 8008 7997 7996 7995 ] final  -32.83 input   59.86 | X-H torsion
[ 10167 10162 10161 10158 ] final   37.81 input  -65.29 | X-H torsion
[ 10718 10713 10712 10709 ] final -131.02 input   66.30 | X-H torsion
[ 10763 10752 10751 10750 ] final -135.98 input  -60.55 | X-H torsion
[ 11005 11000 10999 10996 ] final  135.59 input  -57.11 | X-H torsion

> <Gold.Protein.ActiveResidues>
 VAL166  LYS551  ARG553  GLY616  TRP617  ASP618  TYR619  PRO620  LYS621  CYS622 
 ASP623  PHE694  ASN695  SER759  ASP760  ASP761  ALA762  ILE779  LEU786  VAL792 
 PHE793  MET794  SER795  GLU796  ALA797  LYS798  CYS799  TRP800  GLU811  SER814 

> <Gold.Protein.RotatedAtoms>
  152.3391  133.6046  159.5863 H   0  0  0  0  0  0  0  0  0  0  0  0  # atno 6907 bound_to 6896
  150.7468  133.9750  159.3566 H   0  0  0  0  0  0  0  0  0  0  0  0  # atno 6908 bound_to 6896
  151.7616  135.0809  160.0397 H   0  0  0  0  0  0  0  0  0  0  0  0  # atno 6909 bound_to 6896
  144.9164  140.6960  143.4992 H   0  0  0  0  0  0  0  0  0  0  0  0  # atno 7974 bound_to 7965
  154.4167  140.1727  156.1791 H   0  0  0  0  0  0  0  0  0  0  0  0  # atno 8008 bound_to 7997
  155.9697  140.3386  155.6540 H   0  0  0  0  0  0  0  0  0  0  0  0  # atno 8009 bound_to 7997
  155.6641  140.0704  157.2534 H   0  0  0  0  0  0  0  0  0  0  0  0  # atno 8010 bound_to 7997
  140.3997  144.1741  150.6133 H   0  0  0  0  0  0  0  0  0  0  0  0  # atno 10167 bound_to 10162
  156.2202  130.6974  151.0748 H   0  0  0  0  0  0  0  0  0  0  0  0  # atno 10718 bound_to 10713
  154.8693  135.3686  154.4987 H   0  0  0  0  0  0  0  0  0  0  0  0  # atno 10763 bound_to 10752
  153.5629  135.7022  153.5544 H   0  0  0  0  0  0  0  0  0  0  0  0  # atno 10764 bound_to 10752
  153.3612  135.4046  155.1683 H   0  0  0  0  0  0  0  0  0  0  0  0  # atno 10765 bound_to 10752
  139.9989  134.9486  157.0028 H   0  0  0  0  0  0  0  0  0  0  0  0  # atno 11005 bound_to 11000
  145.3368  139.1743  143.4507 LP  0  0  0  0  0  0  0  0  0  0  0  0  # atno 17320 bound_to 7965
  146.3184  140.3404  142.8647 LP  0  0  0  0  0  0  0  0  0  0  0  0  # atno 17321 bound_to 7965
  140.4753  143.2398  151.9032 LP  0  0  0  0  0  0  0  0  0  0  0  0  # atno 17342 bound_to 10162
  139.4785  144.5327  151.8644 LP  0  0  0  0  0  0  0  0  0  0  0  0  # atno 17343 bound_to 10162
  157.7084  131.0746  150.6588 LP  0  0  0  0  0  0  0  0  0  0  0  0  # atno 17370 bound_to 10713
  156.6651  130.4523  149.5675 LP  0  0  0  0  0  0  0  0  0  0  0  0  # atno 17371 bound_to 10713
  140.4765  134.1333  155.7210 LP  0  0  0  0  0  0  0  0  0  0  0  0  # atno 17394 bound_to 11000
  141.1627  133.8763  157.1804 LP  0  0  0  0  0  0  0  0  0  0  0  0  # atno 17395 bound_to 11000

$$$$
