AV-unprocessed.smi:158|AV-procd|sdf|1327|dock3
  -GOLD-   2262019 23D 1   1.00000     0.00000
 Structure written by MMmdl.
 31 33  0  0  0  0  0  0  0  0  1 V2000
  145.2576  138.3175  153.5757 N   0  0  0  0  0  0  0  0  0  0  0  0
  146.4864  138.4406  154.0976 C   0  0  0  0  0  0  0  0  0  0  0  0
  147.1530  137.3159  154.4455 N   0  0  0  0  0  0  0  0  0  0  0  0
  148.3831  137.3957  154.9657 C   0  0  0  0  0  0  0  0  0  0  0  0
  149.1441  135.9039  155.3768 Cl  0  0  0  0  0  0  0  0  0  0  0  0
  149.0908  138.5036  155.2044 N   0  0  0  0  0  0  0  0  0  0  0  0
  148.4231  139.6442  154.8635 C   0  0  0  0  0  0  0  0  0  0  0  0
  147.1184  139.6919  154.3006 C   0  0  0  0  0  0  0  0  0  0  0  0
  146.7489  141.0082  154.0670 N   0  0  0  0  0  0  0  0  0  0  0  0
  147.7805  141.6975  154.4727 C   0  0  0  0  0  0  0  0  0  0  0  0
  148.8322  140.9617  154.9761 N   0  0  0  0  0  0  0  0  0  0  0  0
  150.1295  141.5067  155.5066 C   0  0  2  0  0  0  0  0  0  0  0  0
  151.1428  140.5634  155.3062 O   0  0  0  0  0  0  0  0  0  0  0  0
  151.7197  140.1723  156.5541 C   0  0  2  0  0  0  0  0  0  0  0  0
  152.2322  138.7211  156.5186 C   0  0  0  0  0  0  0  0  0  0  0  0
  153.2855  138.5983  155.5862 O   0  0  0  0  0  0  0  0  0  0  0  0
  150.6707  140.5182  157.6218 C   0  0  2  0  0  0  0  0  0  0  0  0
  149.7180  139.4837  157.7869 O   0  0  0  0  0  0  0  0  0  0  0  0
  150.0570  141.7684  157.0192 C   0  0  2  0  0  0  0  0  0  0  0  0
  148.8238  142.0430  157.4518 F   0  0  0  0  0  0  0  0  0  0  0  0
  150.3003  142.4077  154.9164 H   0  0  0  0  0  0  0  0  0  0  0  0
  152.5746  140.8356  156.6984 H   0  0  0  0  0  0  0  0  0  0  0  0
  151.1299  140.7182  158.5905 H   0  0  0  0  0  0  0  0  0  0  0  0
  150.6821  142.6340  157.2420 H   0  0  0  0  0  0  0  0  0  0  0  0
  144.7408  139.1429  153.3079 H   0  0  0  0  0  0  0  0  0  0  0  0
  144.8505  137.4016  153.4531 H   0  0  0  0  0  0  0  0  0  0  0  0
  147.8021  142.7765  154.4225 H   0  0  0  0  0  0  0  0  0  0  0  0
  152.5685  138.3816  157.4978 H   0  0  0  0  0  0  0  0  0  0  0  0
  151.4273  138.0526  156.2123 H   0  0  0  0  0  0  0  0  0  0  0  0
  153.6220  137.7160  155.6287 H   0  0  0  0  0  0  0  0  0  0  0  0
  149.4634  139.1718  156.9320 H   0  0  0  0  0  0  0  0  0  0  0  0
  1  2  1  0  0  0  0
  1 25  1  0  0  0  0
  1 26  1  0  0  0  0
  2  8  1  0  0  0  0
  2  3  2  0  0  0  0
  3  4  1  0  0  0  0
  4  5  1  0  0  0  0
  4  6  2  0  0  0  0
  6  7  1  0  0  0  0
  7 11  1  0  0  0  0
  7  8  2  0  0  0  0
  8  9  1  0  0  0  0
  9 10  2  0  0  0  0
 10 11  1  0  0  0  0
 10 27  1  0  0  0  0
 11 12  1  0  0  0  0
 12 21  1  0  0  0  0
 12 19  1  0  0  0  0
 12 13  1  0  0  0  0
 13 14  1  0  0  0  0
 14 22  1  0  0  0  0
 14 15  1  0  0  0  0
 14 17  1  0  0  0  0
 15 16  1  0  0  0  0
 15 28  1  0  0  0  0
 15 29  1  0  0  0  0
 16 30  1  0  0  0  0
 17 23  1  0  0  0  0
 17 18  1  0  0  0  0
 17 19  1  0  0  0  0
 18 31  1  0  0  0  0
 19 24  1  0  0  0  0
 19 20  1  0  0  0  0
M  END
> <s_m_source_file>
AV-unprocessed.smi

> <i_m_source_file_index>
158

> <i_lp_mmshare_version>
43012

> <i_f3d_flags>
0

> <s_epik_input>
Q2xjKG4xKW5jKFtOSDJdKWMoYzEyKW5bY0hdbjJbQ0BASF0zT1tDQEhdKFtDSDJdW09IXSlbQ0BASF0oW09IXSlbQ0BASF0zRg==

> <s_epik_cmdline>
J2VwaWtfcHl0aG9uJywgJy1waCcsICc3LjAnLCAnLXRuJywgJzgnLCAnLW1hJywgJzIwMCcsICctbWV0YWxfYmluZGluZycsICctaW1hZScsICc8aW5maWxlLm1hZT4nLCAnLW9tYWUnLCAnPG91dGZpbGUubWFlPic=

> <r_lp_tautomer_probability>
1

> <r_epik_Ionization_Penalty>
6.51543e-05

> <r_epik_Ionization_Penalty_Charging>
0

> <r_epik_Ionization_Penalty_Neutral>
6.51543e-05

> <r_epik_State_Penalty>
-0

> <r_epik_Charging_Adjusted_Penalty>
0

> <i_epik_Tot_Q>
0

> <i_epik_Tot_abs_Q>
0

> <r_epik_Metal_State_Penalty>
-0

> <b_epik_Metal_Only>
0

> <s_epik_Chemistry_Notes>
This compound contains an acetal/aminal-like group ( X-CH(R)-Y where X, Y are N, S, or O) that may be acid/base labile, releasing an aldehyde.

> <s_lp_Force_Field>
OPLS_2005

> <r_lp_Energy>
41.2985

> <b_lp_Chiralities_Consistent>
1

> <s_lp_Variant>
AV-unprocessed.smi:158-5

> <Gold.Version>
5.8.1

> <Gold.Id.Protein>
6NUR|6NUR_protein|mol2

> <Gold.PLP.Fitness>
34.2571

> <Gold.PLP.PLP>
-23.3386

> <Gold.PLP.part.hbond>
-3.0000

> <Gold.PLP.part.metal>
0.0000

> <Gold.PLP.part.buried>
-4.5966

> <Gold.PLP.part.nonpolar>
-17.0373

> <Gold.PLP.part.repulsive>
0.3816

> <Gold.PLP.ligand.clash>
0.0000

> <Gold.PLP.ligand.torsion>
0.7612

> <Gold.PLP.Chemscore.Hbond>
2.8720

> <Gold.PLP.Chemscore.CHOScore>
1.0000

> <Gold.PLP.Chemscore.Metal>
0.0000

> <Gold.Chemscore.Hbonds>
donor molecule, donor type, donor heavy atom, donor atom, acceptor molecule, acceptor atom, score
      L1  H     1    25       P1 10175  1.00
      P1  H  7989  7998       L1    13  0.91
      P1  H  7997  8010       L1    16  0.91
      L1  C    10    27       P1  8028  1.00

> <Gold.PLP.Chemscore.Internal.Correction>
0.8248

> <Gold.Rescore>
     Score         DG    S(hbond)    S(metal)    S(lipo)     H(rot)  DE(clash)    DE(int)     intcor
      6.69      -8.95       2.41        0.00      29.16       3.12       0.19       2.07       ----

> <Gold.Chemscore.Fitness>
6.6920

> <Gold.Chemscore.DG>
-8.9512

> <Gold.Chemscore.ZeroCoef>
-5.4800

> <Gold.Chemscore.Hbond>
2.4114

> <Gold.Chemscore.Metal>
0.0000

> <Gold.Chemscore.Lipo>
29.1625

> <Gold.Chemscore.Internal_Hbond>
0.0000

> <Gold.Chemscore.DEClash>
0.1870

> <Gold.Chemscore.DEInternal>
2.0722

> <Gold.Chemscore.Rot>
3.1230

> <Gold.Chemscore.Internal.Correction>
   9.000000E+99

> <Gold.Chemscore.Hbonds>
donor molecule, donor type, donor heavy atom, donor atom, acceptor molecule, acceptor atom, score
      L1  H     1    25       P1 10175  1.00
      P1  H  7989  7998       L1    13  0.31
      P1  H  7997  8010       L1    16  0.19

> <Gold.Chemscore.Hbond.Weighted>
-8.0541

> <Gold.Chemscore.Metal.Weighted>
-0.0000

> <Gold.Chemscore.Lipo.Weighted>
-3.4120

> <Gold.Chemscore.Internal_Hbond.Weighted>
0.0000

> <Gold.Chemscore.DEClash.Weighted>
0.1870

> <Gold.Chemscore.DEInternal.Weighted>
2.0722

> <Gold.Chemscore.Rot.Weighted>
7.9950

> <Gold.Chemscore.Internal.Correction.Weighted>
   9.000000E+99

> <Gold.Protein.RotatedTorsions>
[ 6907 6896 6895 6894 ] final  102.73 input  -60.11 | X-H torsion
[ 7974 7965 7964 7962 ] final  144.41 input  175.53 | X-H torsion
[ 8008 7997 7996 7995 ] final   87.18 input   59.86 | X-H torsion
[ 10167 10162 10161 10158 ] final -104.18 input  -65.29 | X-H torsion
[ 10718 10713 10712 10709 ] final  -21.20 input   66.30 | X-H torsion
[ 10763 10752 10751 10750 ] final -168.88 input  -60.55 | X-H torsion
[ 11005 11000 10999 10996 ] final   68.96 input  -57.11 | X-H torsion

> <Gold.Protein.ActiveResidues>
 VAL166  LYS551  ARG553  GLY616  TRP617  ASP618  TYR619  PRO620  LYS621  CYS622 
 ASP623  PHE694  ASN695  SER759  ASP760  ASP761  ALA762  ILE779  LEU786  VAL792 
 PHE793  MET794  SER795  GLU796  ALA797  LYS798  CYS799  TRP800  GLU811  SER814 

> <Gold.Protein.RotatedAtoms>
  152.5315  133.9931  159.7859 H   0  0  0  0  0  0  0  0  0  0  0  0  # atno 6907 bound_to 6896
  151.0163  133.5910  159.2683 H   0  0  0  0  0  0  0  0  0  0  0  0  # atno 6908 bound_to 6896
  151.2966  135.0763  159.9277 H   0  0  0  0  0  0  0  0  0  0  0  0  # atno 6909 bound_to 6896
  144.8838  139.5659  143.5830 H   0  0  0  0  0  0  0  0  0  0  0  0  # atno 7974 bound_to 7965
  155.9721  140.3384  155.6585 H   0  0  0  0  0  0  0  0  0  0  0  0  # atno 8008 bound_to 7997
  155.6661  140.0721  157.2555 H   0  0  0  0  0  0  0  0  0  0  0  0  # atno 8009 bound_to 7997
  154.4169  140.1700  156.1816 H   0  0  0  0  0  0  0  0  0  0  0  0  # atno 8010 bound_to 7997
  140.2121  143.3739  152.1042 H   0  0  0  0  0  0  0  0  0  0  0  0  # atno 10167 bound_to 10162
  156.5214  130.4633  149.6595 H   0  0  0  0  0  0  0  0  0  0  0  0  # atno 10718 bound_to 10713
  154.6582  135.2921  154.9901 H   0  0  0  0  0  0  0  0  0  0  0  0  # atno 10763 bound_to 10752
  154.0970  135.6582  153.4866 H   0  0  0  0  0  0  0  0  0  0  0  0  # atno 10764 bound_to 10752
  153.0414  135.5233  154.7520 H   0  0  0  0  0  0  0  0  0  0  0  0  # atno 10765 bound_to 10752
  139.9681  134.6946  156.0503 H   0  0  0  0  0  0  0  0  0  0  0  0  # atno 11005 bound_to 11000
  146.3011  139.7431  142.9090 LP  0  0  0  0  0  0  0  0  0  0  0  0  # atno 17320 bound_to 7965
  145.3905  141.0372  143.3126 LP  0  0  0  0  0  0  0  0  0  0  0  0  # atno 17321 bound_to 7965
  139.5176  144.6994  151.5537 LP  0  0  0  0  0  0  0  0  0  0  0  0  # atno 17342 bound_to 10162
  140.6316  143.9065  150.6610 LP  0  0  0  0  0  0  0  0  0  0  0  0  # atno 17343 bound_to 10162
  156.3146  130.7247  151.2147 LP  0  0  0  0  0  0  0  0  0  0  0  0  # atno 17370 bound_to 10713
  157.7436  131.0472  150.4932 LP  0  0  0  0  0  0  0  0  0  0  0  0  # atno 17371 bound_to 10713
  141.1361  133.6575  156.3597 LP  0  0  0  0  0  0  0  0  0  0  0  0  # atno 17394 bound_to 11000
  140.5352  134.6173  157.5363 LP  0  0  0  0  0  0  0  0  0  0  0  0  # atno 17395 bound_to 11000

$$$$
