AV-unprocessed.smi:2422|AV-procd|sdf|9557|dock1
  -GOLD-   2272013193D 1   1.00000     0.00000
 Structure written by MMmdl.
 46 47  0  0  0  0  0  0  0  0  1 V2000
  145.2603  131.8985  151.4129 C   0  0  0  0  0  0  0  0  0  0  0  0
  146.1262  131.9133  152.5340 O   0  0  0  0  0  0  0  0  0  0  0  0
  146.8854  133.1102  152.6203 C   0  0  0  0  0  0  0  0  0  0  0  0
  147.6192  133.1852  153.9808 C   0  0  0  0  0  0  0  0  0  0  0  0
  146.5864  133.1881  155.1235 C   0  0  0  0  0  0  0  0  0  0  0  0
  148.5405  131.9590  154.1562 C   0  0  0  0  0  0  0  0  0  0  0  0
  148.3956  134.4270  154.0942 N   0  0  0  0  0  0  0  0  0  0  0  0
  149.1736  134.8351  155.1113 C   0  0  0  0  0  0  0  0  0  0  0  0
  149.3394  134.1971  156.1509 O   0  0  0  0  0  0  0  0  0  0  0  0
  149.7396  136.0226  154.8349 N   0  0  0  0  0  0  0  0  0  0  0  0
  150.6279  136.7810  155.6411 C   0  0  0  0  0  0  0  0  0  0  0  0
  151.6593  136.2471  156.3651 N   0  0  0  0  0  0  0  0  0  0  0  0
  152.1383  137.3610  156.9025 C   0  0  0  0  0  0  0  0  0  0  0  0
  151.4776  138.4660  156.5447 N   0  0  0  0  0  0  0  0  0  0  0  0
  151.6921  139.8522  156.9312 C   0  0  0  0  0  0  0  0  0  0  0  0
  151.6431  140.0230  158.4634 C   0  0  0  0  0  0  0  0  0  0  0  0
  151.8867  141.4862  158.8684 C   0  0  0  0  0  0  0  0  0  0  0  0
  150.8913  142.4303  158.1748 C   0  0  0  0  0  0  0  0  0  0  0  0
  150.9356  142.2629  156.6474 C   0  0  0  0  0  0  0  0  0  0  0  0
  150.6889  140.8009  156.2412 C   0  0  0  0  0  0  0  0  0  0  0  0
  150.4673  138.1004  155.7167 N   0  0  0  0  0  0  0  0  0  0  0  0
  144.7018  130.9628  151.3938 H   0  0  0  0  0  0  0  0  0  0  0  0
  145.8208  131.9758  150.4804 H   0  0  0  0  0  0  0  0  0  0  0  0
  144.5419  132.7180  151.4589 H   0  0  0  0  0  0  0  0  0  0  0  0
  147.6109  133.1412  151.8059 H   0  0  0  0  0  0  0  0  0  0  0  0
  146.2305  133.9718  152.4839 H   0  0  0  0  0  0  0  0  0  0  0  0
  145.9587  132.2970  155.0934 H   0  0  0  0  0  0  0  0  0  0  0  0
  145.9268  134.0550  155.0673 H   0  0  0  0  0  0  0  0  0  0  0  0
  147.0735  133.2119  156.0992 H   0  0  0  0  0  0  0  0  0  0  0  0
  147.9643  131.0332  154.1616 H   0  0  0  0  0  0  0  0  0  0  0  0
  149.0921  132.0070  155.0959 H   0  0  0  0  0  0  0  0  0  0  0  0
  149.2698  131.8746  153.3506 H   0  0  0  0  0  0  0  0  0  0  0  0
  148.3442  135.0392  153.2935 H   0  0  0  0  0  0  0  0  0  0  0  0
  149.5160  136.4294  153.9389 H   0  0  0  0  0  0  0  0  0  0  0  0
  152.9874  137.3713  157.5701 H   0  0  0  0  0  0  0  0  0  0  0  0
  152.6945  140.1230  156.5951 H   0  0  0  0  0  0  0  0  0  0  0  0
  150.6735  139.7000  158.8450 H   0  0  0  0  0  0  0  0  0  0  0  0
  152.3897  139.3827  158.9346 H   0  0  0  0  0  0  0  0  0  0  0  0
  151.8064  141.5911  159.9507 H   0  0  0  0  0  0  0  0  0  0  0  0
  152.9055  141.7731  158.6051 H   0  0  0  0  0  0  0  0  0  0  0  0
  149.8822  142.2258  158.5353 H   0  0  0  0  0  0  0  0  0  0  0  0
  151.1114  143.4643  158.4420 H   0  0  0  0  0  0  0  0  0  0  0  0
  150.1913  142.9091  156.1809 H   0  0  0  0  0  0  0  0  0  0  0  0
  151.9064  142.5883  156.2712 H   0  0  0  0  0  0  0  0  0  0  0  0
  150.7644  140.7020  155.1577 H   0  0  0  0  0  0  0  0  0  0  0  0
  149.6669  140.5253  156.5060 H   0  0  0  0  0  0  0  0  0  0  0  0
  1  2  1  0  0  0  0
  1 22  1  0  0  0  0
  1 23  1  0  0  0  0
  1 24  1  0  0  0  0
  2  3  1  0  0  0  0
  3  4  1  0  0  0  0
  3 25  1  0  0  0  0
  3 26  1  0  0  0  0
  4  5  1  0  0  0  0
  4  6  1  0  0  0  0
  4  7  1  0  0  0  0
  5 27  1  0  0  0  0
  5 28  1  0  0  0  0
  5 29  1  0  0  0  0
  6 30  1  0  0  0  0
  6 31  1  0  0  0  0
  6 32  1  0  0  0  0
  7  8  1  0  0  0  0
  7 33  1  0  0  0  0
  8  9  2  0  0  0  0
  8 10  1  0  0  0  0
 10 11  1  0  0  0  0
 10 34  1  0  0  0  0
 11 21  2  0  0  0  0
 11 12  1  0  0  0  0
 12 13  2  0  0  0  0
 13 14  1  0  0  0  0
 13 35  1  0  0  0  0
 14 15  1  0  0  0  0
 14 21  1  0  0  0  0
 15 20  1  0  0  0  0
 15 16  1  0  0  0  0
 15 36  1  0  0  0  0
 16 17  1  0  0  0  0
 16 37  1  0  0  0  0
 16 38  1  0  0  0  0
 17 18  1  0  0  0  0
 17 39  1  0  0  0  0
 17 40  1  0  0  0  0
 18 19  1  0  0  0  0
 18 41  1  0  0  0  0
 18 42  1  0  0  0  0
 19 20  1  0  0  0  0
 19 43  1  0  0  0  0
 19 44  1  0  0  0  0
 20 45  1  0  0  0  0
 20 46  1  0  0  0  0
M  END
> <s_m_source_file>
AV-unprocessed.smi

> <i_m_source_file_index>
2422

> <i_lp_mmshare_version>
43012

> <i_f3d_flags>
0

> <s_epik_input>
W0NIM11PW0NIMl1DKFtDSDNdKShbQ0gzXSlbTkhdQyg9TylbTkhdYzFuW2NIXW4objEpW0NIXTJbQ0gyXVtDSDJdW0NIMl1bQ0gyXVtDSDJdMg==

> <s_epik_cmdline>
J2VwaWtfcHl0aG9uJywgJy1waCcsICc3LjAnLCAnLXRuJywgJzgnLCAnLW1hJywgJzIwMCcsICctbWV0YWxfYmluZGluZycsICctaW1hZScsICc8aW5maWxlLm1hZT4nLCAnLW9tYWUnLCAnPG91dGZpbGUubWFlPic=

> <r_lp_tautomer_probability>
1

> <r_epik_Ionization_Penalty>
0.000103736

> <r_epik_Ionization_Penalty_Charging>
0

> <r_epik_Ionization_Penalty_Neutral>
0.000103736

> <r_epik_State_Penalty>
-0

> <r_epik_Charging_Adjusted_Penalty>
0

> <i_epik_Tot_Q>
0

> <i_epik_Tot_abs_Q>
0

> <r_epik_Metal_State_Penalty>
-0

> <b_epik_Metal_Only>
0

> <s_lp_Force_Field>
OPLS_2005

> <r_lp_Energy>
18.085

> <b_lp_Chiralities_Consistent>
1

> <s_lp_Variant>
AV-unprocessed.smi:2422-1

> <Gold.Version>
5.8.1

> <Gold.Id.Protein>
6NUR|6NUR_protein|mol2

> <Gold.PLP.Fitness>
41.5192

> <Gold.PLP.PLP>
-33.1621

> <Gold.PLP.part.hbond>
-3.5035

> <Gold.PLP.part.metal>
0.0000

> <Gold.PLP.part.buried>
-4.1550

> <Gold.PLP.part.nonpolar>
-25.7779

> <Gold.PLP.part.repulsive>
0.2985

> <Gold.PLP.ligand.clash>
0.0000

> <Gold.PLP.ligand.torsion>
0.3780

> <Gold.PLP.Chemscore.Hbond>
2.9920

> <Gold.PLP.Chemscore.CHOScore>
0.0000

> <Gold.PLP.Chemscore.Metal>
0.0000

> <Gold.Chemscore.Hbonds>
donor molecule, donor type, donor heavy atom, donor atom, acceptor molecule, acceptor atom, score
      L1  H     7    33       P1  7948  1.00
      L1  H    10    34       P1  7948  0.75
      P1  H 10752 10765       L1    12  0.76

> <Gold.PLP.Chemscore.Internal.Correction>
0.1371

> <Gold.Rescore>
     Score         DG    S(hbond)    S(metal)    S(lipo)     H(rot)  DE(clash)    DE(int)     intcor
     16.64     -17.14       2.44        0.00      66.97       1.70       0.00       0.49       ----

> <Gold.Chemscore.Fitness>
16.6395

> <Gold.Chemscore.DG>
-17.1384

> <Gold.Chemscore.ZeroCoef>
-5.4800

> <Gold.Chemscore.Hbond>
2.4441

> <Gold.Chemscore.Metal>
0.0000

> <Gold.Chemscore.Lipo>
66.9681

> <Gold.Chemscore.Internal_Hbond>
0.0000

> <Gold.Chemscore.DEClash>
0.0043

> <Gold.Chemscore.DEInternal>
0.4946

> <Gold.Chemscore.Rot>
1.6954

> <Gold.Chemscore.Internal.Correction>
   9.000000E+99

> <Gold.Chemscore.Hbonds>
donor molecule, donor type, donor heavy atom, donor atom, acceptor molecule, acceptor atom, score
      L1  H     7    33       P1  7948  0.89
      L1  H    10    34       P1  7948  0.54
      P1  H 10752 10765       L1    12  0.33

> <Gold.Chemscore.Hbond.Weighted>
-8.1633

> <Gold.Chemscore.Metal.Weighted>
-0.0000

> <Gold.Chemscore.Lipo.Weighted>
-7.8353

> <Gold.Chemscore.Internal_Hbond.Weighted>
0.0000

> <Gold.Chemscore.DEClash.Weighted>
0.0043

> <Gold.Chemscore.DEInternal.Weighted>
0.4946

> <Gold.Chemscore.Rot.Weighted>
4.3402

> <Gold.Chemscore.Internal.Correction.Weighted>
   9.000000E+99

> <Gold.Protein.RotatedTorsions>
[ 6907 6896 6895 6894 ] final  149.59 input  -60.11 | X-H torsion
[ 7974 7965 7964 7962 ] final  -85.75 input  175.53 | X-H torsion
[ 8008 7997 7996 7995 ] final   31.38 input   59.86 | X-H torsion
[ 10167 10162 10161 10158 ] final   87.31 input  -65.29 | X-H torsion
[ 10718 10713 10712 10709 ] final  -16.81 input   66.30 | X-H torsion
[ 10763 10752 10751 10750 ] final -154.68 input  -60.55 | X-H torsion
[ 11005 11000 10999 10996 ] final -100.55 input  -57.11 | X-H torsion

> <Gold.Protein.ActiveResidues>
 VAL166  LYS551  ARG553  GLY616  TRP617  ASP618  TYR619  PRO620  LYS621  CYS622 
 ASP623  PHE694  ASN695  SER759  ASP760  ASP761  ALA762  ILE779  LEU786  VAL792 
 PHE793  MET794  SER795  GLU796  ALA797  LYS798  CYS799  TRP800  GLU811  SER814 

> <Gold.Protein.RotatedAtoms>
  152.1259  133.4380  159.4697 H   0  0  0  0  0  0  0  0  0  0  0  0  # atno 6907 bound_to 6896
  150.6875  134.2479  159.4508 H   0  0  0  0  0  0  0  0  0  0  0  0  # atno 6908 bound_to 6896
  152.0359  134.9740  160.0624 H   0  0  0  0  0  0  0  0  0  0  0  0  # atno 6909 bound_to 6896
  145.4891  140.9553  143.1822 H   0  0  0  0  0  0  0  0  0  0  0  0  # atno 7974 bound_to 7965
  155.1055  140.3234  155.4535 H   0  0  0  0  0  0  0  0  0  0  0  0  # atno 8008 bound_to 7997
  156.2705  140.2053  156.6128 H   0  0  0  0  0  0  0  0  0  0  0  0  # atno 8009 bound_to 7997
  154.6796  140.0527  157.0239 H   0  0  0  0  0  0  0  0  0  0  0  0  # atno 8010 bound_to 7997
  139.8787  144.6452  150.8867 H   0  0  0  0  0  0  0  0  0  0  0  0  # atno 10167 bound_to 10162
  156.5823  130.4777  149.6315 H   0  0  0  0  0  0  0  0  0  0  0  0  # atno 10718 bound_to 10713
  154.7841  135.3184  154.7925 H   0  0  0  0  0  0  0  0  0  0  0  0  # atno 10763 bound_to 10752
  153.8629  135.6851  153.4785 H   0  0  0  0  0  0  0  0  0  0  0  0  # atno 10764 bound_to 10752
  153.1487  135.4708  154.9542 H   0  0  0  0  0  0  0  0  0  0  0  0  # atno 10765 bound_to 10752
  141.1266  133.8408  157.1117 H   0  0  0  0  0  0  0  0  0  0  0  0  # atno 11005 bound_to 11000
  144.7844  139.6458  143.7140 LP  0  0  0  0  0  0  0  0  0  0  0  0  # atno 17320 bound_to 7965
  146.2295  139.5786  142.9565 LP  0  0  0  0  0  0  0  0  0  0  0  0  # atno 17321 bound_to 7965
  140.7748  143.3604  151.1840 LP  0  0  0  0  0  0  0  0  0  0  0  0  # atno 17342 bound_to 10162
  139.7216  143.9214  152.2987 LP  0  0  0  0  0  0  0  0  0  0  0  0  # atno 17343 bound_to 10162
  156.2620  130.6968  151.1740 LP  0  0  0  0  0  0  0  0  0  0  0  0  # atno 17370 bound_to 10713
  157.7323  131.0600  150.5633 LP  0  0  0  0  0  0  0  0  0  0  0  0  # atno 17371 bound_to 10713
  140.0271  134.9919  157.0707 LP  0  0  0  0  0  0  0  0  0  0  0  0  # atno 17394 bound_to 11000
  140.4345  134.1745  155.7170 LP  0  0  0  0  0  0  0  0  0  0  0  0  # atno 17395 bound_to 11000

$$$$
