AV-unprocessed.smi:2271|AV-procd|sdf|9160|dock6
  -GOLD-   2272012373D 1   1.00000     0.00000
 Structure written by MMmdl.
 46 47  0  0  0  0  0  0  0  0  2 V2000
  153.4405  141.1265  160.0079 C   0  0  0  0  0  0  0  0  0  0  0  0
  152.7263  142.3154  159.4000 C   0  0  0  0  0  0  0  0  0  0  0  0
  152.8679  143.6053  159.9481 C   0  0  0  0  0  0  0  0  0  0  0  0
  152.1795  144.6661  159.3327 C   0  0  0  0  0  0  0  0  0  0  0  0
  151.3843  144.3959  158.2023 C   0  0  0  0  0  0  0  0  0  0  0  0
  151.2967  143.0723  157.7150 C   0  0  0  0  0  0  0  0  0  0  0  0
  150.4645  142.9027  156.5764 N   0  0  0  0  0  0  0  0  0  0  0  0
  150.1969  141.7682  155.9062 C   0  0  0  0  0  0  0  0  0  0  0  0
  150.6887  140.6653  156.1476 O   0  0  0  0  0  0  0  0  0  0  0  0
  149.3059  141.9806  154.9261 N   0  0  0  0  0  0  0  0  0  0  0  0
  148.7975  140.9622  154.0110 C   0  0  0  0  0  0  0  0  0  0  0  0
  147.6425  140.1377  154.6197 C   0  0  2  0  0  0  0  0  0  0  0  0
  147.2003  138.9579  153.7298 C   0  0  0  0  0  0  0  0  0  0  0  0
  146.0080  138.2019  154.3373 C   0  0  0  0  0  0  0  0  0  0  0  0
  144.8641  139.1143  154.5855 N   0  3  1  0  0  0  0  0  0  0  0  0
  143.6485  138.3880  155.0330 C   0  0  0  0  0  0  0  0  0  0  0  0
  143.1109  137.4267  153.9600 C   0  0  0  0  0  0  0  0  0  0  0  0
  142.5670  138.1621  152.8846 O   0  0  0  0  0  0  0  0  0  0  0  0
  145.2496  140.2314  155.4863 C   0  0  0  0  0  0  0  0  0  0  0  0
  146.4223  141.0336  154.8989 C   0  0  0  0  0  0  0  0  0  0  0  0
  151.9638  142.0558  158.3163 N   0  0  0  0  0  0  0  0  0  0  0  0
  153.9264  141.3941  160.9465 H   0  0  0  0  0  0  0  0  0  0  0  0
  154.2027  140.7543  159.3226 H   0  0  0  0  0  0  0  0  0  0  0  0
  152.7354  140.3193  160.2093 H   0  0  0  0  0  0  0  0  0  0  0  0
  153.4864  143.7801  160.8163 H   0  0  0  0  0  0  0  0  0  0  0  0
  152.2593  145.6710  159.7202 H   0  0  0  0  0  0  0  0  0  0  0  0
  150.8490  145.1997  157.7181 H   0  0  0  0  0  0  0  0  0  0  0  0
  150.0048  143.7387  156.2475 H   0  0  0  0  0  0  0  0  0  0  0  0
  148.9556  142.9189  154.7994 H   0  0  0  0  0  0  0  0  0  0  0  0
  148.4447  141.4796  153.1182 H   0  0  0  0  0  0  0  0  0  0  0  0
  149.6016  140.3039  153.6772 H   0  0  0  0  0  0  0  0  0  0  0  0
  147.9858  139.7319  155.5729 H   0  0  0  0  0  0  0  0  0  0  0  0
  146.9344  139.3237  152.7369 H   0  0  0  0  0  0  0  0  0  0  0  0
  148.0221  138.2557  153.5902 H   0  0  0  0  0  0  0  0  0  0  0  0
  145.7057  137.4088  153.6523 H   0  0  0  0  0  0  0  0  0  0  0  0
  146.3022  137.7203  155.2712 H   0  0  0  0  0  0  0  0  0  0  0  0
  143.8701  137.8080  155.9302 H   0  0  0  0  0  0  0  0  0  0  0  0
  142.8795  139.1070  155.3190 H   0  0  0  0  0  0  0  0  0  0  0  0
  143.9245  136.8115  153.5752 H   0  0  0  0  0  0  0  0  0  0  0  0
  142.3601  136.7440  154.3561 H   0  0  0  0  0  0  0  0  0  0  0  0
  143.1616  138.8645  152.6678 H   0  0  0  0  0  0  0  0  0  0  0  0
  144.4062  140.9030  155.6412 H   0  0  0  0  0  0  0  0  0  0  0  0
  145.5198  139.8348  156.4664 H   0  0  0  0  0  0  0  0  0  0  0  0
  146.6975  141.8332  155.5876 H   0  0  0  0  0  0  0  0  0  0  0  0
  146.1019  141.5197  153.9759 H   0  0  0  0  0  0  0  0  0  0  0  0
  144.6318  139.5212  153.6903 H   0  0  0  0  0  0  0  0  0  0  0  0
  1  2  1  0  0  0  0
  1 22  1  0  0  0  0
  1 23  1  0  0  0  0
  1 24  1  0  0  0  0
  2 21  1  0  0  0  0
  2  3  2  0  0  0  0
  3  4  1  0  0  0  0
  3 25  1  0  0  0  0
  4  5  2  0  0  0  0
  4 26  1  0  0  0  0
  5  6  1  0  0  0  0
  5 27  1  0  0  0  0
  6  7  1  0  0  0  0
  6 21  2  0  0  0  0
  7  8  1  0  0  0  0
  7 28  1  0  0  0  0
  8  9  2  0  0  0  0
  8 10  1  0  0  0  0
 10 11  1  0  0  0  0
 10 29  1  0  0  0  0
 11 12  1  0  0  0  0
 11 30  1  0  0  0  0
 11 31  1  0  0  0  0
 12 20  1  0  0  0  0
 12 13  1  0  0  0  0
 12 32  1  0  0  0  0
 13 14  1  0  0  0  0
 13 33  1  0  0  0  0
 13 34  1  0  0  0  0
 14 15  1  0  0  0  0
 14 35  1  0  0  0  0
 14 36  1  0  0  0  0
 15 16  1  0  0  0  0
 15 19  1  0  0  0  0
 15 46  1  0  0  0  0
 16 17  1  0  0  0  0
 16 37  1  0  0  0  0
 16 38  1  0  0  0  0
 17 18  1  0  0  0  0
 17 39  1  0  0  0  0
 17 40  1  0  0  0  0
 18 41  1  0  0  0  0
 19 20  1  0  0  0  0
 19 42  1  0  0  0  0
 19 43  1  0  0  0  0
 20 44  1  0  0  0  0
 20 45  1  0  0  0  0
M  CHG  1  15   1
M  END
> <s_m_source_file>
AV-unprocessed.smi

> <i_m_source_file_index>
2271

> <i_lp_mmshare_version>
43012

> <i_f3d_flags>
0

> <s_epik_input>
W0NIM11jMVtjSF1bY0hdW2NIXWMobjEpW05IXUMoPU8pW05IXVtDSDJdW0NIXTJbQ0gyXVtDSDJdTihbQ0gyXVtDSDJdMilbQ0gyXVtDSDJdW09IXQ==

> <s_epik_cmdline>
J2VwaWtfcHl0aG9uJywgJy1waCcsICc3LjAnLCAnLXRuJywgJzgnLCAnLW1hJywgJzIwMCcsICctbWV0YWxfYmluZGluZycsICctaW1hZScsICc8aW5maWxlLm1hZT4nLCAnLW9tYWUnLCAnPG91dGZpbGUubWFlPic=

> <r_epik_Ionization_Penalty>
0.00184663

> <r_epik_Ionization_Penalty_Charging>
0.00177223

> <r_epik_Ionization_Penalty_Neutral>
7.44064e-05

> <r_epik_State_Penalty>
0.00120075

> <r_epik_Charging_Adjusted_Penalty>
0.00297297

> <i_epik_Tot_Q>
1

> <i_epik_Tot_abs_Q>
1

> <r_epik_Metal_State_Penalty>
-0

> <b_epik_Metal_Only>
0

> <s_lp_Force_Field>
OPLS_2005

> <r_lp_Energy>
18.6881

> <b_lp_Chiralities_Consistent>
1

> <s_lp_Variant>
AV-unprocessed.smi:2271-1

> <Gold.Version>
5.8.1

> <Gold.Id.Protein>
6NUR|6NUR_protein|mol2

> <Gold.PLP.Fitness>
53.0462

> <Gold.PLP.PLP>
-38.8349

> <Gold.PLP.part.hbond>
-3.9728

> <Gold.PLP.part.metal>
0.0000

> <Gold.PLP.part.buried>
-5.5517

> <Gold.PLP.part.nonpolar>
-30.7595

> <Gold.PLP.part.repulsive>
0.3183

> <Gold.PLP.ligand.clash>
0.0000

> <Gold.PLP.ligand.torsion>
0.2354

> <Gold.PLP.Chemscore.Hbond>
4.8800

> <Gold.PLP.Chemscore.CHOScore>
0.0000

> <Gold.PLP.Chemscore.Metal>
0.0000

> <Gold.Chemscore.Hbonds>
donor molecule, donor type, donor heavy atom, donor atom, acceptor molecule, acceptor atom, score
      L1  H     7    28       P1  8028  1.00
      L1  H    10    29       P1  8028  0.88
      L1  H    15    46       P1 10175  2.00
      L1  H    18    41       P1 10175  1.00

> <Gold.PLP.Chemscore.Internal.Correction>
0.0422

> <Gold.Rescore>
     Score         DG    S(hbond)    S(metal)    S(lipo)     H(rot)  DE(clash)    DE(int)     intcor
     20.94     -22.49       3.93        0.00      85.46       2.39       0.03       1.52       ----

> <Gold.Chemscore.Fitness>
20.9440

> <Gold.Chemscore.DG>
-22.4941

> <Gold.Chemscore.ZeroCoef>
-5.4800

> <Gold.Chemscore.Hbond>
3.9349

> <Gold.Chemscore.Metal>
0.0000

> <Gold.Chemscore.Lipo>
85.4612

> <Gold.Chemscore.Internal_Hbond>
0.0000

> <Gold.Chemscore.DEClash>
0.0310

> <Gold.Chemscore.DEInternal>
1.5191

> <Gold.Chemscore.Rot>
2.3935

> <Gold.Chemscore.Internal.Correction>
   9.000000E+99

> <Gold.Chemscore.Hbonds>
donor molecule, donor type, donor heavy atom, donor atom, acceptor molecule, acceptor atom, score
      L1  H     7    28       P1  8028  0.98
      L1  H    10    29       P1  8028  0.85
      L1  H    15    46       P1 10175  0.99
      L1  H    18    41       P1 10175  0.98

> <Gold.Chemscore.Hbond.Weighted>
-13.1425

> <Gold.Chemscore.Metal.Weighted>
-0.0000

> <Gold.Chemscore.Lipo.Weighted>
-9.9990

> <Gold.Chemscore.Internal_Hbond.Weighted>
0.0000

> <Gold.Chemscore.DEClash.Weighted>
0.0310

> <Gold.Chemscore.DEInternal.Weighted>
1.5191

> <Gold.Chemscore.Rot.Weighted>
6.1274

> <Gold.Chemscore.Internal.Correction.Weighted>
   9.000000E+99

> <Gold.Protein.RotatedTorsions>
[ 6907 6896 6895 6894 ] final   41.93 input  -60.11 | X-H torsion
[ 7974 7965 7964 7962 ] final   22.20 input  175.53 | X-H torsion
[ 8008 7997 7996 7995 ] final  -14.09 input   59.86 | X-H torsion
[ 10167 10162 10161 10158 ] final   40.45 input  -65.29 | X-H torsion
[ 10718 10713 10712 10709 ] final   59.20 input   66.30 | X-H torsion
[ 10763 10752 10751 10750 ] final -106.89 input  -60.55 | X-H torsion
[ 11005 11000 10999 10996 ] final  -62.14 input  -57.11 | X-H torsion

> <Gold.Protein.ActiveResidues>
 VAL166  LYS551  ARG553  GLY616  TRP617  ASP618  TYR619  PRO620  LYS621  CYS622 
 ASP623  PHE694  ASN695  SER759  ASP760  ASP761  ALA762  ILE779  LEU786  VAL792 
 PHE793  MET794  SER795  GLU796  ALA797  LYS798  CYS799  TRP800  GLU811  SER814 

> <Gold.Protein.RotatedAtoms>
  152.2015  134.8584  160.0507 H   0  0  0  0  0  0  0  0  0  0  0  0  # atno 6907 bound_to 6896
  151.9435  133.3640  159.3982 H   0  0  0  0  0  0  0  0  0  0  0  0  # atno 6908 bound_to 6896
  150.6956  134.4338  159.5305 H   0  0  0  0  0  0  0  0  0  0  0  0  # atno 6909 bound_to 6896
  146.2039  139.7918  142.8741 H   0  0  0  0  0  0  0  0  0  0  0  0  # atno 7974 bound_to 7965
  154.5239  140.2232  155.8926 H   0  0  0  0  0  0  0  0  0  0  0  0  # atno 8008 bound_to 7997
  156.1692  140.3125  155.8907 H   0  0  0  0  0  0  0  0  0  0  0  0  # atno 8009 bound_to 7997
  155.3594  140.0460  157.3037 H   0  0  0  0  0  0  0  0  0  0  0  0  # atno 8010 bound_to 7997
  140.3741  144.2066  150.6132 H   0  0  0  0  0  0  0  0  0  0  0  0  # atno 10167 bound_to 10162
  157.5657  130.8869  149.9184 H   0  0  0  0  0  0  0  0  0  0  0  0  # atno 10718 bound_to 10713
  154.8041  135.4695  154.0347 H   0  0  0  0  0  0  0  0  0  0  0  0  # atno 10763 bound_to 10752
  153.1830  135.6843  153.8459 H   0  0  0  0  0  0  0  0  0  0  0  0  # atno 10764 bound_to 10752
  153.8003  135.3231  155.3367 H   0  0  0  0  0  0  0  0  0  0  0  0  # atno 10765 bound_to 10752
  141.1349  133.6637  156.5482 H   0  0  0  0  0  0  0  0  0  0  0  0  # atno 11005 bound_to 11000
  145.3389  141.0283  143.3404 LP  0  0  0  0  0  0  0  0  0  0  0  0  # atno 17320 bound_to 7965
  144.8746  139.4990  143.6752 LP  0  0  0  0  0  0  0  0  0  0  0  0  # atno 17321 bound_to 7965
  140.5004  143.2320  151.8687 LP  0  0  0  0  0  0  0  0  0  0  0  0  # atno 17342 bound_to 10162
  139.4801  144.5066  151.8989 LP  0  0  0  0  0  0  0  0  0  0  0  0  # atno 17343 bound_to 10162
  156.0706  130.3686  150.0785 LP  0  0  0  0  0  0  0  0  0  0  0  0  # atno 17370 bound_to 10713
  156.8944  130.9599  151.3584 LP  0  0  0  0  0  0  0  0  0  0  0  0  # atno 17371 bound_to 10713
  140.4085  134.7294  157.4822 LP  0  0  0  0  0  0  0  0  0  0  0  0  # atno 17394 bound_to 11000
  140.0445  134.6220  155.8939 LP  0  0  0  0  0  0  0  0  0  0  0  0  # atno 17395 bound_to 11000

$$$$
