AV-unprocessed.smi:3157|AV-procd|sdf|12037|dock6
  -GOLD-   2272017453D 1   1.00000     0.00000
 Structure written by MMmdl.
 40 41  0  0  0  0  0  0  0  0  2 V2000
  148.3697  141.1704  157.2368 C   0  0  0  0  0  0  0  0  0  0  0  0
  149.8157  141.5140  156.8300 C   0  0  2  0  0  0  0  0  0  0  0  0
  150.1260  142.9111  157.2151 N   0  3  0  0  0  0  0  0  0  0  0  0
  151.5350  143.3197  157.0397 C   0  0  0  0  0  0  0  0  0  0  0  0
  152.0146  144.1707  158.2263 C   0  0  0  0  0  0  0  0  0  0  0  0
  152.2067  143.3668  159.5142 C   0  0  0  0  0  0  0  0  0  0  0  0
  152.1910  144.4081  160.6384 C   0  0  0  0  0  0  0  0  0  0  0  0
  151.4248  145.6212  160.0895 C   0  0  0  0  0  0  0  0  0  0  0  0
  151.0319  145.2668  158.6508 C   0  0  0  0  0  0  0  0  0  0  0  0
  150.0709  141.3195  155.3124 C   0  0  2  0  0  0  0  0  0  0  0  0
  148.8048  141.4729  154.4487 C   0  0  0  0  0  0  0  0  0  0  0  0
  150.6884  140.0225  155.0560 N   0  0  0  0  0  0  0  0  0  0  0  0
  151.8962  139.5316  155.5121 C   0  0  0  0  0  0  0  0  0  0  0  0
  152.0605  138.2869  154.9760 C   0  0  0  0  0  0  0  0  0  0  0  0
  150.8918  138.1019  154.1866 C   0  0  0  0  0  0  0  0  0  0  0  0
  150.0791  139.1452  154.2281 N   0  0  0  0  0  0  0  0  0  0  0  0
  148.1380  140.1218  157.0521 H   0  0  0  0  0  0  0  0  0  0  0  0
  147.6488  141.7740  156.6843 H   0  0  0  0  0  0  0  0  0  0  0  0
  148.1977  141.3416  158.2991 H   0  0  0  0  0  0  0  0  0  0  0  0
  150.4942  140.8521  157.3710 H   0  0  0  0  0  0  0  0  0  0  0  0
  149.5658  143.5169  156.6314 H   0  0  0  0  0  0  0  0  0  0  0  0
  152.1724  142.4433  156.9227 H   0  0  0  0  0  0  0  0  0  0  0  0
  151.6181  143.9002  156.1197 H   0  0  0  0  0  0  0  0  0  0  0  0
  152.9694  144.6359  157.9743 H   0  0  0  0  0  0  0  0  0  0  0  0
  151.3727  142.6763  159.6501 H   0  0  0  0  0  0  0  0  0  0  0  0
  153.1239  142.7773  159.5066 H   0  0  0  0  0  0  0  0  0  0  0  0
  151.7325  144.0098  161.5442 H   0  0  0  0  0  0  0  0  0  0  0  0
  153.2103  144.7019  160.8919 H   0  0  0  0  0  0  0  0  0  0  0  0
  150.5475  145.8562  160.6933 H   0  0  0  0  0  0  0  0  0  0  0  0
  152.0709  146.4999  160.0983 H   0  0  0  0  0  0  0  0  0  0  0  0
  151.0590  146.1335  157.9895 H   0  0  0  0  0  0  0  0  0  0  0  0
  150.0126  144.8779  158.6413 H   0  0  0  0  0  0  0  0  0  0  0  0
  150.7744  142.0878  154.9848 H   0  0  0  0  0  0  0  0  0  0  0  0
  148.4225  142.4930  154.4723 H   0  0  0  0  0  0  0  0  0  0  0  0
  148.0069  140.8094  154.7829 H   0  0  0  0  0  0  0  0  0  0  0  0
  149.0149  141.2398  153.4041 H   0  0  0  0  0  0  0  0  0  0  0  0
  152.5328  140.1014  156.1730 H   0  0  0  0  0  0  0  0  0  0  0  0
  152.8903  137.6116  155.1236 H   0  0  0  0  0  0  0  0  0  0  0  0
  150.6141  137.2490  153.5849 H   0  0  0  0  0  0  0  0  0  0  0  0
  149.8504  143.0551  158.1760 H   0  0  0  0  0  0  0  0  0  0  0  0
  1  2  1  0  0  0  0
  1 17  1  0  0  0  0
  1 18  1  0  0  0  0
  1 19  1  0  0  0  0
  2  3  1  0  0  0  0
  2 10  1  0  0  0  0
  2 20  1  0  0  0  0
  3  4  1  0  0  0  0
  3 21  1  0  0  0  0
  3 40  1  0  0  0  0
  4  5  1  0  0  0  0
  4 22  1  0  0  0  0
  4 23  1  0  0  0  0
  5  9  1  0  0  0  0
  5  6  1  0  0  0  0
  5 24  1  0  0  0  0
  6  7  1  0  0  0  0
  6 25  1  0  0  0  0
  6 26  1  0  0  0  0
  7  8  1  0  0  0  0
  7 27  1  0  0  0  0
  7 28  1  0  0  0  0
  8  9  1  0  0  0  0
  8 29  1  0  0  0  0
  8 30  1  0  0  0  0
  9 31  1  0  0  0  0
  9 32  1  0  0  0  0
 10 11  1  0  0  0  0
 10 12  1  0  0  0  0
 10 33  1  0  0  0  0
 11 34  1  0  0  0  0
 11 35  1  0  0  0  0
 11 36  1  0  0  0  0
 12 16  1  0  0  0  0
 12 13  1  0  0  0  0
 13 14  2  0  0  0  0
 13 37  1  0  0  0  0
 14 15  1  0  0  0  0
 14 38  1  0  0  0  0
 15 16  2  0  0  0  0
 15 39  1  0  0  0  0
M  CHG  1   3   1
M  END
> <s_m_source_file>
AV-unprocessed.smi

> <i_m_source_file_index>
3157

> <i_lp_mmshare_version>
43012

> <i_f3d_flags>
0

> <s_epik_input>
bjFbY0hdW2NIXVtjSF1uMVtDQEBIXShbQ0gzXSlbQ0BIXShbQ0gzXSlbTkhdW0NIMl1bQ0hdMltDSDJdW0NIMl1bQ0gyXVtDSDJdMg==

> <s_epik_cmdline>
J2VwaWtfcHl0aG9uJywgJy1waCcsICc3LjAnLCAnLXRuJywgJzgnLCAnLW1hJywgJzIwMCcsICctbWV0YWxfYmluZGluZycsICctaW1hZScsICc8aW5maWxlLm1hZT4nLCAnLW9tYWUnLCAnPG91dGZpbGUubWFlPic=

> <r_lp_tautomer_probability>
1

> <r_epik_Ionization_Penalty>
0.00132192

> <r_epik_Ionization_Penalty_Charging>
0.0013111

> <r_epik_Ionization_Penalty_Neutral>
1.08112e-05

> <r_epik_State_Penalty>
-0

> <r_epik_Charging_Adjusted_Penalty>
0.0013111

> <i_epik_Tot_Q>
1

> <i_epik_Tot_abs_Q>
1

> <r_epik_Metal_State_Penalty>
-0

> <b_epik_Metal_Only>
0

> <s_lp_Force_Field>
OPLS_2005

> <r_lp_Energy>
31.0944

> <b_lp_Chiralities_Consistent>
1

> <s_lp_Variant>
AV-unprocessed.smi:3157-1

> <Gold.Version>
5.8.1

> <Gold.Id.Protein>
6NUR|6NUR_protein|mol2

> <Gold.PLP.Fitness>
50.0204

> <Gold.PLP.PLP>
-43.2142

> <Gold.PLP.part.hbond>
-1.0000

> <Gold.PLP.part.metal>
0.0000

> <Gold.PLP.part.buried>
-2.5988

> <Gold.PLP.part.nonpolar>
-38.0975

> <Gold.PLP.part.repulsive>
0.1955

> <Gold.PLP.ligand.clash>
0.0000

> <Gold.PLP.ligand.torsion>
1.4313

> <Gold.PLP.Chemscore.Hbond>
2.0000

> <Gold.PLP.Chemscore.CHOScore>
1.1787

> <Gold.PLP.Chemscore.Metal>
0.0000

> <Gold.Chemscore.Hbonds>
donor molecule, donor type, donor heavy atom, donor atom, acceptor molecule, acceptor atom, score
      L1  H     3    21       P1  8028  2.00
      L1  C    15    39       P1  7948  0.53
      L1  C    15    39       P1  7949  0.64

> <Gold.PLP.Chemscore.Internal.Correction>
0.1327

> <Gold.Rescore>
     Score         DG    S(hbond)    S(metal)    S(lipo)     H(rot)  DE(clash)    DE(int)     intcor
     17.23     -18.43       0.98        0.00     115.53       1.50       0.09       1.10       ----

> <Gold.Chemscore.Fitness>
17.2344

> <Gold.Chemscore.DG>
-18.4266

> <Gold.Chemscore.ZeroCoef>
-5.4800

> <Gold.Chemscore.Hbond>
0.9826

> <Gold.Chemscore.Metal>
0.0000

> <Gold.Chemscore.Lipo>
115.5269

> <Gold.Chemscore.Internal_Hbond>
0.0000

> <Gold.Chemscore.DEClash>
0.0875

> <Gold.Chemscore.DEInternal>
1.1048

> <Gold.Chemscore.Rot>
1.5047

> <Gold.Chemscore.Internal.Correction>
   9.000000E+99

> <Gold.Chemscore.Hbonds>
donor molecule, donor type, donor heavy atom, donor atom, acceptor molecule, acceptor atom, score
      L1  H     3    21       P1  8028  1.00

> <Gold.Chemscore.Hbond.Weighted>
-3.2819

> <Gold.Chemscore.Metal.Weighted>
-0.0000

> <Gold.Chemscore.Lipo.Weighted>
-13.5166

> <Gold.Chemscore.Internal_Hbond.Weighted>
0.0000

> <Gold.Chemscore.DEClash.Weighted>
0.0875

> <Gold.Chemscore.DEInternal.Weighted>
1.1048

> <Gold.Chemscore.Rot.Weighted>
3.8520

> <Gold.Chemscore.Internal.Correction.Weighted>
   9.000000E+99

> <Gold.Protein.RotatedTorsions>
[ 6907 6896 6895 6894 ] final -119.95 input  -60.11 | X-H torsion
[ 7974 7965 7964 7962 ] final  -17.43 input  175.53 | X-H torsion
[ 8008 7997 7996 7995 ] final    1.51 input   59.86 | X-H torsion
[ 10167 10162 10161 10158 ] final  -35.49 input  -65.29 | X-H torsion
[ 10718 10713 10712 10709 ] final  -69.46 input   66.30 | X-H torsion
[ 10763 10752 10751 10750 ] final   91.96 input  -60.55 | X-H torsion
[ 11005 11000 10999 10996 ] final   51.93 input  -57.11 | X-H torsion

> <Gold.Protein.ActiveResidues>
 VAL166  LYS551  ARG553  GLY616  TRP617  ASP618  TYR619  PRO620  LYS621  CYS622 
 ASP623  PHE694  ASN695  SER759  ASP760  ASP761  ALA762  ILE779  LEU786  VAL792 
 PHE793  MET794  SER795  GLU796  ALA797  LYS798  CYS799  TRP800  GLU811  SER814 

> <Gold.Protein.RotatedAtoms>
  150.8350  133.8028  159.3083 H   0  0  0  0  0  0  0  0  0  0  0  0  # atno 6907 bound_to 6896
  151.5747  135.1059  160.0013 H   0  0  0  0  0  0  0  0  0  0  0  0  # atno 6908 bound_to 6896
  152.4424  133.7430  159.6708 H   0  0  0  0  0  0  0  0  0  0  0  0  # atno 6909 bound_to 6896
  146.1941  140.3778  142.8447 H   0  0  0  0  0  0  0  0  0  0  0  0  # atno 7974 bound_to 7965
  154.6806  140.2632  155.6912 H   0  0  0  0  0  0  0  0  0  0  0  0  # atno 8008 bound_to 7997
  156.2695  140.2811  156.1272 H   0  0  0  0  0  0  0  0  0  0  0  0  # atno 8009 bound_to 7997
  155.1037  140.0375  157.2694 H   0  0  0  0  0  0  0  0  0  0  0  0  # atno 8010 bound_to 7997
  140.7164  143.3474  151.2228 H   0  0  0  0  0  0  0  0  0  0  0  0  # atno 10167 bound_to 10162
  156.0454  130.4313  150.2151 H   0  0  0  0  0  0  0  0  0  0  0  0  # atno 10718 bound_to 10713
  153.2140  135.4378  155.0412 H   0  0  0  0  0  0  0  0  0  0  0  0  # atno 10763 bound_to 10752
  154.8215  135.3340  154.7027 H   0  0  0  0  0  0  0  0  0  0  0  0  # atno 10764 bound_to 10752
  153.7463  135.7001  153.5011 H   0  0  0  0  0  0  0  0  0  0  0  0  # atno 10765 bound_to 10752
  140.0891  134.5234  155.8870 H   0  0  0  0  0  0  0  0  0  0  0  0  # atno 11005 bound_to 11000
  144.8545  140.7050  143.6147 LP  0  0  0  0  0  0  0  0  0  0  0  0  # atno 17320 bound_to 7965
  145.3700  139.1661  143.4337 LP  0  0  0  0  0  0  0  0  0  0  0  0  # atno 17321 bound_to 7965
  139.6996  143.9555  152.2899 LP  0  0  0  0  0  0  0  0  0  0  0  0  # atno 17342 bound_to 10162
  139.9244  144.6780  150.8428 LP  0  0  0  0  0  0  0  0  0  0  0  0  # atno 17343 bound_to 10162
  157.0241  130.9988  151.3331 LP  0  0  0  0  0  0  0  0  0  0  0  0  # atno 17370 bound_to 10713
  157.5324  130.8067  149.7932 LP  0  0  0  0  0  0  0  0  0  0  0  0  # atno 17371 bound_to 10713
  141.2072  133.6662  156.6291 LP  0  0  0  0  0  0  0  0  0  0  0  0  # atno 17394 bound_to 11000
  140.3378  134.7875  157.4375 LP  0  0  0  0  0  0  0  0  0  0  0  0  # atno 17395 bound_to 11000

$$$$
