AV-unprocessed.smi:1045|AV-procd|sdf|4544|dock8
  -GOLD-   22720 2573D 1   1.00000     0.00000
 Structure written by MMmdl.
 42 43  0  0  0  0  0  0  0  0  1 V2000
  146.7031  133.2484  151.3099 C   0  0  0  0  0  0  0  0  0  0  0  0
  147.0223  133.2857  152.6897 O   0  0  0  0  0  0  0  0  0  0  0  0
  148.2471  132.6336  152.9831 C   0  0  0  0  0  0  0  0  0  0  0  0
  148.8413  133.2190  154.2767 C   0  0  2  0  0  0  0  0  0  0  0  0
  147.9040  133.0295  155.4781 C   0  0  0  0  0  0  0  0  0  0  0  0
  149.1172  134.6433  154.1101 N   0  0  0  0  0  0  0  0  0  0  0  0
  149.6313  135.4510  155.0488 C   0  0  0  0  0  0  0  0  0  0  0  0
  149.9496  135.0677  156.1740 O   0  0  0  0  0  0  0  0  0  0  0  0
  149.7635  136.7056  154.5854 N   0  0  0  0  0  0  0  0  0  0  0  0
  150.2367  137.8619  155.2632 C   0  0  0  0  0  0  0  0  0  0  0  0
  150.5562  137.9113  156.6402 C   0  0  0  0  0  0  0  0  0  0  0  0
  150.9962  139.1283  157.1953 C   0  0  0  0  0  0  0  0  0  0  0  0
  151.0975  140.2699  156.3655 C   0  0  0  0  0  0  0  0  0  0  0  0
  151.5377  141.5050  156.8818 N   0  0  0  0  0  0  0  0  0  0  0  0
  150.9263  142.7633  156.4827 C   0  0  0  0  0  0  0  0  0  0  0  0
  151.5876  143.8136  157.3733 C   0  0  0  0  0  0  0  0  0  0  0  0
  151.8543  143.0489  158.6696 C   0  0  0  0  0  0  0  0  0  0  0  0
  152.1306  141.6133  158.2078 C   0  0  0  0  0  0  0  0  0  0  0  0
  150.7873  140.2207  155.0484 N   0  0  0  0  0  0  0  0  0  0  0  0
  150.3654  139.0527  154.5211 C   0  0  0  0  0  0  0  0  0  0  0  0
  145.7580  133.7635  151.1391 H   0  0  0  0  0  0  0  0  0  0  0  0
  146.5957  132.2220  150.9571 H   0  0  0  0  0  0  0  0  0  0  0  0
  147.4698  133.7456  150.7144 H   0  0  0  0  0  0  0  0  0  0  0  0
  148.0636  131.5644  153.1017 H   0  0  0  0  0  0  0  0  0  0  0  0
  148.9483  132.7538  152.1553 H   0  0  0  0  0  0  0  0  0  0  0  0
  149.7779  132.7030  154.4966 H   0  0  0  0  0  0  0  0  0  0  0  0
  147.7076  131.9729  155.6625 H   0  0  0  0  0  0  0  0  0  0  0  0
  146.9446  133.5220  155.3158 H   0  0  0  0  0  0  0  0  0  0  0  0
  148.3422  133.4429  156.3870 H   0  0  0  0  0  0  0  0  0  0  0  0
  148.8933  135.0445  153.2112 H   0  0  0  0  0  0  0  0  0  0  0  0
  149.5307  136.8432  153.6129 H   0  0  0  0  0  0  0  0  0  0  0  0
  150.4632  137.0515  157.2846 H   0  0  0  0  0  0  0  0  0  0  0  0
  151.2506  139.1674  158.2440 H   0  0  0  0  0  0  0  0  0  0  0  0
  151.0866  142.9725  155.4246 H   0  0  0  0  0  0  0  0  0  0  0  0
  149.8524  142.7217  156.6695 H   0  0  0  0  0  0  0  0  0  0  0  0
  152.5335  144.1309  156.9318 H   0  0  0  0  0  0  0  0  0  0  0  0
  150.9679  144.6988  157.5179 H   0  0  0  0  0  0  0  0  0  0  0  0
  152.6736  143.4710  159.2520 H   0  0  0  0  0  0  0  0  0  0  0  0
  150.9582  143.0661  159.2914 H   0  0  0  0  0  0  0  0  0  0  0  0
  151.7092  140.8922  158.9091 H   0  0  0  0  0  0  0  0  0  0  0  0
  153.2029  141.4312  158.1302 H   0  0  0  0  0  0  0  0  0  0  0  0
  150.1252  139.0712  153.4681 H   0  0  0  0  0  0  0  0  0  0  0  0
  1  2  1  0  0  0  0
  1 21  1  0  0  0  0
  1 22  1  0  0  0  0
  1 23  1  0  0  0  0
  2  3  1  0  0  0  0
  3  4  1  0  0  0  0
  3 24  1  0  0  0  0
  3 25  1  0  0  0  0
  4  5  1  0  0  0  0
  4  6  1  0  0  0  0
  4 26  1  0  0  0  0
  5 27  1  0  0  0  0
  5 28  1  0  0  0  0
  5 29  1  0  0  0  0
  6  7  1  0  0  0  0
  6 30  1  0  0  0  0
  7  8  2  0  0  0  0
  7  9  1  0  0  0  0
  9 10  1  0  0  0  0
  9 31  1  0  0  0  0
 10 20  1  0  0  0  0
 10 11  2  0  0  0  0
 11 12  1  0  0  0  0
 11 32  1  0  0  0  0
 12 13  2  0  0  0  0
 12 33  1  0  0  0  0
 13 14  1  0  0  0  0
 13 19  1  0  0  0  0
 14 18  1  0  0  0  0
 14 15  1  0  0  0  0
 15 16  1  0  0  0  0
 15 34  1  0  0  0  0
 15 35  1  0  0  0  0
 16 17  1  0  0  0  0
 16 36  1  0  0  0  0
 16 37  1  0  0  0  0
 17 18  1  0  0  0  0
 17 38  1  0  0  0  0
 17 39  1  0  0  0  0
 18 40  1  0  0  0  0
 18 41  1  0  0  0  0
 19 20  2  0  0  0  0
 20 42  1  0  0  0  0
M  END
> <s_m_source_file>
AV-unprocessed.smi

> <i_m_source_file_index>
1045

> <i_lp_mmshare_version>
43012

> <i_f3d_flags>
0

> <s_epik_input>
W0NIM11PW0NIMl1bQ0BIXShbQ0gzXSlbTkhdQyg9TylbTkhdYzFbY0hdW2NIXWMobltjSF0xKU4yW0NIMl1bQ0gyXVtDSDJdW0NIMl0y

> <s_epik_cmdline>
J2VwaWtfcHl0aG9uJywgJy1waCcsICc3LjAnLCAnLXRuJywgJzgnLCAnLW1hJywgJzIwMCcsICctbWV0YWxfYmluZGluZycsICctaW1hZScsICc8aW5maWxlLm1hZT4nLCAnLW9tYWUnLCAnPG91dGZpbGUubWFlPic=

> <r_lp_tautomer_probability>
1

> <r_epik_Ionization_Penalty>
0.10064

> <r_epik_Ionization_Penalty_Charging>
0

> <r_epik_Ionization_Penalty_Neutral>
0.10064

> <r_epik_State_Penalty>
0.0900987

> <r_epik_Charging_Adjusted_Penalty>
0.0900987

> <i_epik_Tot_Q>
0

> <i_epik_Tot_abs_Q>
0

> <r_epik_Metal_State_Penalty>
0.076945

> <b_epik_Metal_Only>
0

> <s_lp_Force_Field>
OPLS_2005

> <r_lp_Energy>
28.0744

> <b_lp_Chiralities_Consistent>
1

> <s_lp_Variant>
AV-unprocessed.smi:1045-1

> <Gold.Version>
5.8.1

> <Gold.Id.Protein>
6NUR|6NUR_protein|mol2

> <Gold.PLP.Fitness>
41.6069

> <Gold.PLP.PLP>
-31.0100

> <Gold.PLP.part.hbond>
-3.0000

> <Gold.PLP.part.metal>
0.0000

> <Gold.PLP.part.buried>
-2.2301

> <Gold.PLP.part.nonpolar>
-24.5285

> <Gold.PLP.part.repulsive>
0.2618

> <Gold.PLP.ligand.clash>
0.0000

> <Gold.PLP.ligand.torsion>
0.4962

> <Gold.PLP.Chemscore.Hbond>
2.8000

> <Gold.PLP.Chemscore.CHOScore>
0.9950

> <Gold.PLP.Chemscore.Metal>
0.0000

> <Gold.Chemscore.Hbonds>
donor molecule, donor type, donor heavy atom, donor atom, acceptor molecule, acceptor atom, score
      L1  H     6    30       P1  7948  1.00
      L1  H     9    31       P1  7948  1.00
      P1  H  7989  7998       L1    19  0.85
      L1  C    20    42       P1  7957  0.96

> <Gold.PLP.Chemscore.Internal.Correction>
0.2045

> <Gold.Rescore>
     Score         DG    S(hbond)    S(metal)    S(lipo)     H(rot)  DE(clash)    DE(int)     intcor
     14.07     -16.87       1.75        0.00      78.25       1.41       0.01       2.80       ----

> <Gold.Chemscore.Fitness>
14.0674

> <Gold.Chemscore.DG>
-16.8740

> <Gold.Chemscore.ZeroCoef>
-5.4800

> <Gold.Chemscore.Hbond>
1.7500

> <Gold.Chemscore.Metal>
0.0000

> <Gold.Chemscore.Lipo>
78.2481

> <Gold.Chemscore.Internal_Hbond>
0.0000

> <Gold.Chemscore.DEClash>
0.0093

> <Gold.Chemscore.DEInternal>
2.7974

> <Gold.Chemscore.Rot>
1.4086

> <Gold.Chemscore.Internal.Correction>
   9.000000E+99

> <Gold.Chemscore.Hbonds>
donor molecule, donor type, donor heavy atom, donor atom, acceptor molecule, acceptor atom, score
      L1  H     6    30       P1  7948  0.34
      L1  H     9    31       P1  7948  0.80
      P1  H  7989  7998       L1    19  0.15

> <Gold.Chemscore.Hbond.Weighted>
-5.8450

> <Gold.Chemscore.Metal.Weighted>
-0.0000

> <Gold.Chemscore.Lipo.Weighted>
-9.1550

> <Gold.Chemscore.Internal_Hbond.Weighted>
0.0000

> <Gold.Chemscore.DEClash.Weighted>
0.0093

> <Gold.Chemscore.DEInternal.Weighted>
2.7974

> <Gold.Chemscore.Rot.Weighted>
3.6060

> <Gold.Chemscore.Internal.Correction.Weighted>
   9.000000E+99

> <Gold.Protein.RotatedTorsions>
[ 6907 6896 6895 6894 ] final  -53.82 input  -60.11 | X-H torsion
[ 7974 7965 7964 7962 ] final  113.94 input  175.53 | X-H torsion
[ 8008 7997 7996 7995 ] final  178.34 input   59.86 | X-H torsion
[ 10167 10162 10161 10158 ] final  115.97 input  -65.29 | X-H torsion
[ 10718 10713 10712 10709 ] final  -50.95 input   66.30 | X-H torsion
[ 10763 10752 10751 10750 ] final -155.03 input  -60.55 | X-H torsion
[ 11005 11000 10999 10996 ] final  -32.24 input  -57.11 | X-H torsion

> <Gold.Protein.ActiveResidues>
 VAL166  LYS551  ARG553  GLY616  TRP617  ASP618  TYR619  PRO620  LYS621  CYS622 
 ASP623  PHE694  ASN695  SER759  ASP760  ASP761  ALA762  ILE779  LEU786  VAL792 
 PHE793  MET794  SER795  GLU796  ALA797  LYS798  CYS799  TRP800  GLU811  SER814 

> <Gold.Protein.RotatedAtoms>
  150.8393  134.7678  159.6918 H   0  0  0  0  0  0  0  0  0  0  0  0  # atno 6907 bound_to 6896
  152.4483  134.5444  159.9858 H   0  0  0  0  0  0  0  0  0  0  0  0  # atno 6908 bound_to 6896
  151.5587  133.3368  159.3003 H   0  0  0  0  0  0  0  0  0  0  0  0  # atno 6909 bound_to 6896
  145.2107  139.2908  143.4270 H   0  0  0  0  0  0  0  0  0  0  0  0  # atno 7974 bound_to 7965
  156.0557  140.1336  156.9999 H   0  0  0  0  0  0  0  0  0  0  0  0  # atno 8008 bound_to 7997
  154.4456  140.1001  156.6513 H   0  0  0  0  0  0  0  0  0  0  0  0  # atno 8009 bound_to 7997
  155.5455  140.3462  155.4458 H   0  0  0  0  0  0  0  0  0  0  0  0  # atno 8010 bound_to 7997
  139.6280  144.7111  151.2493 H   0  0  0  0  0  0  0  0  0  0  0  0  # atno 10167 bound_to 10162
  156.1754  130.4150  149.9585 H   0  0  0  0  0  0  0  0  0  0  0  0  # atno 10718 bound_to 10713
  154.7816  135.3176  154.7977 H   0  0  0  0  0  0  0  0  0  0  0  0  # atno 10763 bound_to 10752
  153.8687  135.6846  153.4780 H   0  0  0  0  0  0  0  0  0  0  0  0  # atno 10764 bound_to 10752
  153.1454  135.4721  154.9496 H   0  0  0  0  0  0  0  0  0  0  0  0  # atno 10765 bound_to 10752
  140.9535  133.7206  156.1257 H   0  0  0  0  0  0  0  0  0  0  0  0  # atno 11005 bound_to 11000
  146.3398  140.2382  142.8595 LP  0  0  0  0  0  0  0  0  0  0  0  0  # atno 17320 bound_to 7965
  144.9859  140.8502  143.5369 LP  0  0  0  0  0  0  0  0  0  0  0  0  # atno 17321 bound_to 7965
  140.7422  143.6533  150.8229 LP  0  0  0  0  0  0  0  0  0  0  0  0  # atno 17342 bound_to 10162
  140.0154  143.5599  152.2822 LP  0  0  0  0  0  0  0  0  0  0  0  0  # atno 17343 bound_to 10162
  156.7372  130.9065  151.3630 LP  0  0  0  0  0  0  0  0  0  0  0  0  # atno 17370 bound_to 10713
  157.6832  130.9160  150.0319 LP  0  0  0  0  0  0  0  0  0  0  0  0  # atno 17371 bound_to 10713
  140.7569  134.3983  157.5532 LP  0  0  0  0  0  0  0  0  0  0  0  0  # atno 17394 bound_to 11000
  139.8855  134.8936  156.2640 LP  0  0  0  0  0  0  0  0  0  0  0  0  # atno 17395 bound_to 11000

$$$$
