AV-unprocessed.smi:1309|AV-procd|sdf|5444|dock4
  -GOLD-   22720 5 13D 1   1.00000     0.00000
 Structure written by MMmdl.
 41 42  0  0  0  0  0  0  0  0  1 V2000
  144.9379  143.2967  156.5968 C   0  0  0  0  0  0  0  0  0  0  0  0
  146.0316  142.2781  156.9496 C   0  0  0  0  0  0  0  0  0  0  0  0
  146.9608  142.7581  158.0743 C   0  0  0  0  0  0  0  0  0  0  0  0
  146.7948  141.8308  155.7426 C   0  0  0  0  0  0  0  0  0  0  0  0
  147.7335  140.8800  155.7696 N   0  0  0  0  0  0  0  0  0  0  0  0
  148.2928  140.6338  154.5115 C   0  0  0  0  0  0  0  0  0  0  0  0
  149.3547  139.5845  154.3555 C   0  0  0  0  0  0  0  0  0  0  0  0
  150.4889  139.8319  155.3515 C   0  0  0  0  0  0  0  0  0  0  0  0
  151.5799  140.2408  154.9547 O   0  0  0  0  0  0  0  0  0  0  0  0
  150.2198  139.5794  156.6428 N   0  0  0  0  0  0  0  0  0  0  0  0
  151.1574  139.7568  157.7495 C   0  0  0  0  0  0  0  0  0  0  0  0
  151.4093  141.2314  158.1149 C   0  0  0  0  0  0  0  0  0  0  0  0
  150.8963  142.1288  157.4436 O   0  0  0  0  0  0  0  0  0  0  0  0
  152.2073  141.4955  159.1697 N   0  0  0  0  0  0  0  0  0  0  0  0
  152.5436  142.8265  159.6745 C   0  0  0  0  0  0  0  0  0  0  0  0
  153.2468  142.5948  161.0123 C   0  0  0  0  0  0  0  0  0  0  0  0
  153.8341  141.1960  160.8869 C   0  0  0  0  0  0  0  0  0  0  0  0
  152.8542  140.4598  159.9727 C   0  0  0  0  0  0  0  0  0  0  0  0
  147.7700  141.4317  153.5238 C   0  0  0  0  0  0  0  0  0  0  0  0
  146.5448  142.5073  154.1369 S   0  0  0  0  0  0  0  0  0  0  0  0
  144.2510  142.8930  155.8521 H   0  0  0  0  0  0  0  0  0  0  0  0
  145.3666  144.2142  156.1923 H   0  0  0  0  0  0  0  0  0  0  0  0
  144.3515  143.5640  157.4765 H   0  0  0  0  0  0  0  0  0  0  0  0
  145.5177  141.3952  157.3320 H   0  0  0  0  0  0  0  0  0  0  0  0
  147.6721  141.9804  158.3543 H   0  0  0  0  0  0  0  0  0  0  0  0
  146.3933  143.0241  158.9664 H   0  0  0  0  0  0  0  0  0  0  0  0
  147.5306  143.6369  157.7699 H   0  0  0  0  0  0  0  0  0  0  0  0
  148.9413  138.5878  154.5167 H   0  0  0  0  0  0  0  0  0  0  0  0
  149.7575  139.5894  153.3417 H   0  0  0  0  0  0  0  0  0  0  0  0
  149.2992  139.2380  156.8773 H   0  0  0  0  0  0  0  0  0  0  0  0
  150.7970  139.2108  158.6228 H   0  0  0  0  0  0  0  0  0  0  0  0
  152.1048  139.3016  157.4611 H   0  0  0  0  0  0  0  0  0  0  0  0
  153.2182  143.3149  158.9700 H   0  0  0  0  0  0  0  0  0  0  0  0
  151.6635  143.4587  159.8002 H   0  0  0  0  0  0  0  0  0  0  0  0
  153.9997  143.3527  161.2311 H   0  0  0  0  0  0  0  0  0  0  0  0
  152.5127  142.6103  161.8189 H   0  0  0  0  0  0  0  0  0  0  0  0
  154.8110  141.2533  160.4050 H   0  0  0  0  0  0  0  0  0  0  0  0
  153.9653  140.7032  161.8506 H   0  0  0  0  0  0  0  0  0  0  0  0
  152.0964  139.9410  160.5616 H   0  0  0  0  0  0  0  0  0  0  0  0
  153.3675  139.7217  159.3544 H   0  0  0  0  0  0  0  0  0  0  0  0
  148.0261  141.4478  152.4749 H   0  0  0  0  0  0  0  0  0  0  0  0
  1  2  1  0  0  0  0
  1 21  1  0  0  0  0
  1 22  1  0  0  0  0
  1 23  1  0  0  0  0
  2  3  1  0  0  0  0
  2  4  1  0  0  0  0
  2 24  1  0  0  0  0
  3 25  1  0  0  0  0
  3 26  1  0  0  0  0
  3 27  1  0  0  0  0
  4 20  1  0  0  0  0
  4  5  2  0  0  0  0
  5  6  1  0  0  0  0
  6  7  1  0  0  0  0
  6 19  2  0  0  0  0
  7  8  1  0  0  0  0
  7 28  1  0  0  0  0
  7 29  1  0  0  0  0
  8  9  2  0  0  0  0
  8 10  1  0  0  0  0
 10 11  1  0  0  0  0
 10 30  1  0  0  0  0
 11 12  1  0  0  0  0
 11 31  1  0  0  0  0
 11 32  1  0  0  0  0
 12 13  2  0  0  0  0
 12 14  1  0  0  0  0
 14 18  1  0  0  0  0
 14 15  1  0  0  0  0
 15 16  1  0  0  0  0
 15 33  1  0  0  0  0
 15 34  1  0  0  0  0
 16 17  1  0  0  0  0
 16 35  1  0  0  0  0
 16 36  1  0  0  0  0
 17 18  1  0  0  0  0
 17 37  1  0  0  0  0
 17 38  1  0  0  0  0
 18 39  1  0  0  0  0
 18 40  1  0  0  0  0
 19 20  1  0  0  0  0
 19 41  1  0  0  0  0
M  END
> <s_m_source_file>
AV-unprocessed.smi

> <i_m_source_file_index>
1309

> <i_lp_mmshare_version>
43012

> <i_f3d_flags>
0

> <s_epik_input>
W0NIM11bQ0hdKFtDSDNdKWMxbmMoW2NIXXMxKVtDSDJdQyg9TylbTkhdW0NIMl1DKD1PKU4yW0NIMl1bQ0gyXVtDSDJdW0NIMl0y

> <s_epik_cmdline>
J2VwaWtfcHl0aG9uJywgJy1waCcsICc3LjAnLCAnLXRuJywgJzgnLCAnLW1hJywgJzIwMCcsICctbWV0YWxfYmluZGluZycsICctaW1hZScsICc8aW5maWxlLm1hZT4nLCAnLW9tYWUnLCAnPG91dGZpbGUubWFlPic=

> <r_lp_tautomer_probability>
1

> <r_epik_Ionization_Penalty>
2.87584e-05

> <r_epik_Ionization_Penalty_Charging>
0

> <r_epik_Ionization_Penalty_Neutral>
2.87584e-05

> <r_epik_State_Penalty>
-0

> <r_epik_Charging_Adjusted_Penalty>
0

> <i_epik_Tot_Q>
0

> <i_epik_Tot_abs_Q>
0

> <r_epik_Metal_State_Penalty>
-0

> <b_epik_Metal_Only>
0

> <s_lp_Force_Field>
OPLS_2005

> <r_lp_Energy>
16.8696

> <b_lp_Chiralities_Consistent>
1

> <s_lp_Variant>
AV-unprocessed.smi:1309-1

> <Gold.Version>
5.8.1

> <Gold.Id.Protein>
6NUR|6NUR_protein|mol2

> <Gold.PLP.Fitness>
43.6501

> <Gold.PLP.PLP>
-38.1440

> <Gold.PLP.part.hbond>
-0.7887

> <Gold.PLP.part.metal>
0.0000

> <Gold.PLP.part.buried>
-4.5233

> <Gold.PLP.part.nonpolar>
-31.7069

> <Gold.PLP.part.repulsive>
0.2001

> <Gold.PLP.ligand.clash>
0.0000

> <Gold.PLP.ligand.torsion>
0.2999

> <Gold.PLP.Chemscore.Hbond>
1.0000

> <Gold.PLP.Chemscore.CHOScore>
1.0000

> <Gold.PLP.Chemscore.Metal>
0.0000

> <Gold.Chemscore.Hbonds>
donor molecule, donor type, donor heavy atom, donor atom, acceptor molecule, acceptor atom, score
      P1  H  7989  7998       L1     9  0.99
      L1  C    19    41       P1  7957  1.00

> <Gold.PLP.Chemscore.Internal.Correction>
0.1060

> <Gold.Rescore>
     Score         DG    S(hbond)    S(metal)    S(lipo)     H(rot)  DE(clash)    DE(int)     intcor
     13.97     -14.31       0.99        0.00      84.47       1.70       0.05       0.29       ----

> <Gold.Chemscore.Fitness>
13.9716

> <Gold.Chemscore.DG>
-14.3057

> <Gold.Chemscore.ZeroCoef>
-5.4800

> <Gold.Chemscore.Hbond>
0.9858

> <Gold.Chemscore.Metal>
0.0000

> <Gold.Chemscore.Lipo>
84.4694

> <Gold.Chemscore.Internal_Hbond>
0.0000

> <Gold.Chemscore.DEClash>
0.0465

> <Gold.Chemscore.DEInternal>
0.2877

> <Gold.Chemscore.Rot>
1.6991

> <Gold.Chemscore.Internal.Correction>
   9.000000E+99

> <Gold.Chemscore.Hbonds>
donor molecule, donor type, donor heavy atom, donor atom, acceptor molecule, acceptor atom, score
      P1  H  7989  7998       L1     9  0.88

> <Gold.Chemscore.Hbond.Weighted>
-3.2925

> <Gold.Chemscore.Metal.Weighted>
-0.0000

> <Gold.Chemscore.Lipo.Weighted>
-9.8829

> <Gold.Chemscore.Internal_Hbond.Weighted>
0.0000

> <Gold.Chemscore.DEClash.Weighted>
0.0465

> <Gold.Chemscore.DEInternal.Weighted>
0.2877

> <Gold.Chemscore.Rot.Weighted>
4.3497

> <Gold.Chemscore.Internal.Correction.Weighted>
   9.000000E+99

> <Gold.Protein.RotatedTorsions>
[ 6907 6896 6895 6894 ] final   -6.37 input  -60.11 | X-H torsion
[ 7974 7965 7964 7962 ] final -176.31 input  175.53 | X-H torsion
[ 8008 7997 7996 7995 ] final   76.35 input   59.86 | X-H torsion
[ 10167 10162 10161 10158 ] final   77.97 input  -65.29 | X-H torsion
[ 10718 10713 10712 10709 ] final -168.92 input   66.30 | X-H torsion
[ 10763 10752 10751 10750 ] final -109.71 input  -60.55 | X-H torsion
[ 11005 11000 10999 10996 ] final  126.78 input  -57.11 | X-H torsion

> <Gold.Protein.ActiveResidues>
 VAL166  LYS551  ARG553  GLY616  TRP617  ASP618  TYR619  PRO620  LYS621  CYS622 
 ASP623  PHE694  ASN695  SER759  ASP760  ASP761  ALA762  ILE779  LEU786  VAL792 
 PHE793  MET794  SER795  GLU796  ALA797  LYS798  CYS799  TRP800  GLU811  SER814 

> <Gold.Protein.RotatedAtoms>
  151.4667  135.1042  159.9739 H   0  0  0  0  0  0  0  0  0  0  0  0  # atno 6907 bound_to 6896
  152.4832  133.8303  159.7110 H   0  0  0  0  0  0  0  0  0  0  0  0  # atno 6908 bound_to 6896
  150.8920  133.7169  159.2929 H   0  0  0  0  0  0  0  0  0  0  0  0  # atno 6909 bound_to 6896
  144.7127  140.1189  143.6406 H   0  0  0  0  0  0  0  0  0  0  0  0  # atno 7974 bound_to 7965
  155.8261  140.3468  155.5543 H   0  0  0  0  0  0  0  0  0  0  0  0  # atno 8008 bound_to 7997
  155.8291  140.0924  157.1823 H   0  0  0  0  0  0  0  0  0  0  0  0  # atno 8009 bound_to 7997
  154.4004  140.1415  156.3580 H   0  0  0  0  0  0  0  0  0  0  0  0  # atno 8010 bound_to 7997
  139.9759  144.5861  150.7943 H   0  0  0  0  0  0  0  0  0  0  0  0  # atno 10167 bound_to 10162
  156.7040  130.9208  151.3082 H   0  0  0  0  0  0  0  0  0  0  0  0  # atno 10718 bound_to 10713
  154.8208  135.4591  154.0774 H   0  0  0  0  0  0  0  0  0  0  0  0  # atno 10763 bound_to 10752
  153.2129  135.6884  153.8098 H   0  0  0  0  0  0  0  0  0  0  0  0  # atno 10764 bound_to 10752
  153.7543  135.3293  155.3303 H   0  0  0  0  0  0  0  0  0  0  0  0  # atno 10765 bound_to 10752
  139.9473  134.9627  156.8757 H   0  0  0  0  0  0  0  0  0  0  0  0  # atno 11005 bound_to 11000
  145.9389  139.2655  143.1281 LP  0  0  0  0  0  0  0  0  0  0  0  0  # atno 17320 bound_to 7965
  145.9445  140.8955  143.0291 LP  0  0  0  0  0  0  0  0  0  0  0  0  # atno 17321 bound_to 7965
  140.7506  143.2958  151.3209 LP  0  0  0  0  0  0  0  0  0  0  0  0  # atno 17342 bound_to 10162
  139.6446  144.0476  152.2581 LP  0  0  0  0  0  0  0  0  0  0  0  0  # atno 17343 bound_to 10162
  157.6962  130.9284  150.0651 LP  0  0  0  0  0  0  0  0  0  0  0  0  # atno 17370 bound_to 10713
  156.1708  130.3646  149.9168 LP  0  0  0  0  0  0  0  0  0  0  0  0  # atno 17371 bound_to 10713
  140.5803  134.0359  155.7461 LP  0  0  0  0  0  0  0  0  0  0  0  0  # atno 17394 bound_to 11000
  141.1127  133.9590  157.2880 LP  0  0  0  0  0  0  0  0  0  0  0  0  # atno 17395 bound_to 11000

$$$$
