AV-unprocessed.smi:1172|AV-procd|sdf|4944|dock4
  -GOLD-   22720 3533D 1   1.00000     0.00000
 Structure written by MMmdl.
 36 37  0  0  0  0  0  0  0  0  1 V2000
  149.4582  140.3942  153.8063 N   0  0  0  0  0  0  0  0  0  0  0  0
  148.3658  141.0000  154.2799 C   0  0  0  0  0  0  0  0  0  0  0  0
  148.3593  141.5955  155.3550 O   0  0  0  0  0  0  0  0  0  0  0  0
  147.1013  140.9359  153.4207 C   0  0  0  0  0  0  0  0  0  0  0  0
  146.6642  139.5653  153.2222 N   0  0  0  0  0  0  0  0  0  0  0  0
  146.9256  138.7333  152.1511 C   0  0  0  0  0  0  0  0  0  0  0  0
  146.3002  137.5530  152.4376 C   0  0  0  0  0  0  0  0  0  0  0  0
  146.2396  136.3575  151.6778 N   0  0  0  0  0  0  0  0  0  0  0  0
  145.1411  135.7012  151.2578 C   0  0  0  0  0  0  0  0  0  0  0  0
  143.9989  136.1359  151.4115 O   0  0  0  0  0  0  0  0  0  0  0  0
  145.4026  134.5486  150.5896 N   0  0  0  0  0  0  0  0  0  0  0  0
  146.5300  133.6349  150.8489 C   0  0  0  0  0  0  0  0  0  0  0  0
  146.0097  132.4147  151.6316 C   0  0  0  0  0  0  0  0  0  0  0  0
  144.8700  131.7164  150.8660 C   0  0  0  0  0  0  0  0  0  0  0  0
  143.7825  132.7196  150.4311 C   0  0  2  0  0  0  0  0  0  0  0  0
  142.8602  132.0754  149.5784 O   0  0  0  0  0  0  0  0  0  0  0  0
  144.4091  133.9258  149.7044 C   0  0  0  0  0  0  0  0  0  0  0  0
  145.6760  137.7417  153.6978 C   0  0  0  0  0  0  0  0  0  0  0  0
  145.9007  138.9596  154.1663 N   0  0  0  0  0  0  0  0  0  0  0  0
  150.3121  140.4106  154.3452 H   0  0  0  0  0  0  0  0  0  0  0  0
  149.4280  139.9196  152.9157 H   0  0  0  0  0  0  0  0  0  0  0  0
  146.2993  141.5059  153.8929 H   0  0  0  0  0  0  0  0  0  0  0  0
  147.2868  141.3922  152.4475 H   0  0  0  0  0  0  0  0  0  0  0  0
  147.5180  139.0552  151.3076 H   0  0  0  0  0  0  0  0  0  0  0  0
  147.1285  135.9367  151.4497 H   0  0  0  0  0  0  0  0  0  0  0  0
  146.9542  133.3118  149.8973 H   0  0  0  0  0  0  0  0  0  0  0  0
  147.3573  134.0928  151.3908 H   0  0  0  0  0  0  0  0  0  0  0  0
  146.8215  131.7104  151.8145 H   0  0  0  0  0  0  0  0  0  0  0  0
  145.6509  132.7353  152.6106 H   0  0  0  0  0  0  0  0  0  0  0  0
  145.2890  131.2298  149.9840 H   0  0  0  0  0  0  0  0  0  0  0  0
  144.4352  130.9253  151.4778 H   0  0  0  0  0  0  0  0  0  0  0  0
  143.2401  133.0698  151.3106 H   0  0  0  0  0  0  0  0  0  0  0  0
  142.1379  132.6632  149.4173 H   0  0  0  0  0  0  0  0  0  0  0  0
  143.6325  134.6250  149.3899 H   0  0  0  0  0  0  0  0  0  0  0  0
  144.9013  133.6021  148.7859 H   0  0  0  0  0  0  0  0  0  0  0  0
  145.0801  137.0513  154.2762 H   0  0  0  0  0  0  0  0  0  0  0  0
  1  2  1  0  0  0  0
  1 20  1  0  0  0  0
  1 21  1  0  0  0  0
  2  3  2  0  0  0  0
  2  4  1  0  0  0  0
  4  5  1  0  0  0  0
  4 22  1  0  0  0  0
  4 23  1  0  0  0  0
  5 19  1  0  0  0  0
  5  6  1  0  0  0  0
  6  7  2  0  0  0  0
  6 24  1  0  0  0  0
  7  8  1  0  0  0  0
  7 18  1  0  0  0  0
  8  9  1  0  0  0  0
  8 25  1  0  0  0  0
  9 10  2  0  0  0  0
  9 11  1  0  0  0  0
 11 17  1  0  0  0  0
 11 12  1  0  0  0  0
 12 13  1  0  0  0  0
 12 26  1  0  0  0  0
 12 27  1  0  0  0  0
 13 14  1  0  0  0  0
 13 28  1  0  0  0  0
 13 29  1  0  0  0  0
 14 15  1  0  0  0  0
 14 30  1  0  0  0  0
 14 31  1  0  0  0  0
 15 16  1  0  0  0  0
 15 17  1  0  0  0  0
 15 32  1  0  0  0  0
 16 33  1  0  0  0  0
 17 34  1  0  0  0  0
 17 35  1  0  0  0  0
 18 19  2  0  0  0  0
 18 36  1  0  0  0  0
M  END
> <s_m_source_file>
AV-unprocessed.smi

> <i_m_source_file_index>
1172

> <i_lp_mmshare_version>
43012

> <i_f3d_flags>
0

> <s_epik_input>
W05IMl1DKD1PKVtDSDJdbjFbY0hdYyhbY0hdbjEpW05IXUMoPU8pTjJbQ0gyXVtDSDJdW0NIMl1bQ0BASF0oW09IXSlbQ0gyXTI=

> <s_epik_cmdline>
J2VwaWtfcHl0aG9uJywgJy1waCcsICc3LjAnLCAnLXRuJywgJzgnLCAnLW1hJywgJzIwMCcsICctbWV0YWxfYmluZGluZycsICctaW1hZScsICc8aW5maWxlLm1hZT4nLCAnLW9tYWUnLCAnPG91dGZpbGUubWFlPic=

> <r_lp_tautomer_probability>
1

> <r_epik_Ionization_Penalty>
4.44977e-05

> <r_epik_Ionization_Penalty_Charging>
0

> <r_epik_Ionization_Penalty_Neutral>
4.44977e-05

> <r_epik_State_Penalty>
-0

> <r_epik_Charging_Adjusted_Penalty>
0

> <i_epik_Tot_Q>
0

> <i_epik_Tot_abs_Q>
0

> <r_epik_Metal_State_Penalty>
-0

> <b_epik_Metal_Only>
0

> <s_lp_Force_Field>
OPLS_2005

> <r_lp_Energy>
32.958

> <b_lp_Chiralities_Consistent>
1

> <s_lp_Variant>
AV-unprocessed.smi:1172-2

> <Gold.Version>
5.8.1

> <Gold.Id.Protein>
6NUR|6NUR_protein|mol2

> <Gold.PLP.Fitness>
44.6135

> <Gold.PLP.PLP>
-33.7715

> <Gold.PLP.part.hbond>
-4.6737

> <Gold.PLP.part.metal>
0.0000

> <Gold.PLP.part.buried>
-0.6010

> <Gold.PLP.part.nonpolar>
-30.0387

> <Gold.PLP.part.repulsive>
3.0251

> <Gold.PLP.ligand.clash>
0.0000

> <Gold.PLP.ligand.torsion>
1.1329

> <Gold.PLP.Chemscore.Hbond>
3.3530

> <Gold.PLP.Chemscore.CHOScore>
1.0000

> <Gold.PLP.Chemscore.Metal>
0.0000

> <Gold.Chemscore.Hbonds>
donor molecule, donor type, donor heavy atom, donor atom, acceptor molecule, acceptor atom, score
      L1  H     1    21       P1  7957  0.94
      L1  H     8    25       P1  7948  0.78
      L1  H    16    33       P1 10186  0.88
      P1  H 10785 10796       L1    16  0.75
      L1  C     6    24       P1  7957  1.00

> <Gold.PLP.Chemscore.Internal.Correction>
0.0487

> <Gold.Rescore>
     Score         DG    S(hbond)    S(metal)    S(lipo)     H(rot)  DE(clash)    DE(int)     intcor
     15.35     -18.85       3.33        0.00      67.14       2.20       2.38       1.12       ----

> <Gold.Chemscore.Fitness>
15.3492

> <Gold.Chemscore.DG>
-18.8483

> <Gold.Chemscore.ZeroCoef>
-5.4800

> <Gold.Chemscore.Hbond>
3.3341

> <Gold.Chemscore.Metal>
0.0000

> <Gold.Chemscore.Lipo>
67.1419

> <Gold.Chemscore.Internal_Hbond>
0.0000

> <Gold.Chemscore.DEClash>
2.3757

> <Gold.Chemscore.DEInternal>
1.1233

> <Gold.Chemscore.Rot>
2.1966

> <Gold.Chemscore.Internal.Correction>
   9.000000E+99

> <Gold.Chemscore.Hbonds>
donor molecule, donor type, donor heavy atom, donor atom, acceptor molecule, acceptor atom, score
      L1  H     1    21       P1  7957  0.91
      L1  H     8    25       P1  7948  0.78
      L1  H    16    33       P1 10186  0.83
      P1  H 10785 10796       L1    16  0.74

> <Gold.Chemscore.Hbond.Weighted>
-11.1359

> <Gold.Chemscore.Metal.Weighted>
-0.0000

> <Gold.Chemscore.Lipo.Weighted>
-7.8556

> <Gold.Chemscore.Internal_Hbond.Weighted>
0.0000

> <Gold.Chemscore.DEClash.Weighted>
2.3757

> <Gold.Chemscore.DEInternal.Weighted>
1.1233

> <Gold.Chemscore.Rot.Weighted>
5.6232

> <Gold.Chemscore.Internal.Correction.Weighted>
   9.000000E+99

> <Gold.Protein.RotatedTorsions>
[ 6907 6896 6895 6894 ] final -161.60 input  -60.11 | X-H torsion
[ 7974 7965 7964 7962 ] final  178.99 input  175.53 | X-H torsion
[ 8008 7997 7996 7995 ] final  102.72 input   59.86 | X-H torsion
[ 10167 10162 10161 10158 ] final  127.88 input  -65.29 | X-H torsion
[ 10718 10713 10712 10709 ] final  148.48 input   66.30 | X-H torsion
[ 10763 10752 10751 10750 ] final    7.61 input  -60.55 | X-H torsion
[ 11005 11000 10999 10996 ] final   76.94 input  -57.11 | X-H torsion

> <Gold.Protein.ActiveResidues>
 VAL166  LYS551  ARG553  GLY616  TRP617  ASP618  TYR619  PRO620  LYS621  CYS622 
 ASP623  PHE694  ASN695  SER759  ASP760  ASP761  ALA762  ILE779  LEU786  VAL792 
 PHE793  MET794  SER795  GLU796  ALA797  LYS798  CYS799  TRP800  GLU811  SER814 

> <Gold.Protein.RotatedAtoms>
  151.3672  133.3868  159.2695 H   0  0  0  0  0  0  0  0  0  0  0  0  # atno 6907 bound_to 6896
  150.9679  134.9058  159.7781 H   0  0  0  0  0  0  0  0  0  0  0  0  # atno 6908 bound_to 6896
  152.5174  134.3633  159.9344 H   0  0  0  0  0  0  0  0  0  0  0  0  # atno 6909 bound_to 6896
  144.7150  140.0480  143.6436 H   0  0  0  0  0  0  0  0  0  0  0  0  # atno 7974 bound_to 7965
  156.1419  140.3176  155.8509 H   0  0  0  0  0  0  0  0  0  0  0  0  # atno 8008 bound_to 7997
  155.4138  140.0507  157.3047 H   0  0  0  0  0  0  0  0  0  0  0  0  # atno 8009 bound_to 7997
  154.4983  140.2119  155.9411 H   0  0  0  0  0  0  0  0  0  0  0  0  # atno 8010 bound_to 7997
  139.5556  144.6846  151.4194 H   0  0  0  0  0  0  0  0  0  0  0  0  # atno 10167 bound_to 10162
  157.3081  131.0883  151.1337 H   0  0  0  0  0  0  0  0  0  0  0  0  # atno 10718 bound_to 10713
  153.2343  135.6896  153.7854 H   0  0  0  0  0  0  0  0  0  0  0  0  # atno 10763 bound_to 10752
  153.7007  135.3298  155.3225 H   0  0  0  0  0  0  0  0  0  0  0  0  # atno 10764 bound_to 10752
  154.8328  135.4567  154.1241 H   0  0  0  0  0  0  0  0  0  0  0  0  # atno 10765 bound_to 10752
  139.9276  134.7642  156.1459 H   0  0  0  0  0  0  0  0  0  0  0  0  # atno 11005 bound_to 11000
  145.9968  139.3059  143.0952 LP  0  0  0  0  0  0  0  0  0  0  0  0  # atno 17320 bound_to 7965
  145.8840  140.9345  143.0587 LP  0  0  0  0  0  0  0  0  0  0  0  0  # atno 17321 bound_to 7965
  140.6827  143.8044  150.7144 LP  0  0  0  0  0  0  0  0  0  0  0  0  # atno 17342 bound_to 10162
  140.1502  143.4364  152.2136 LP  0  0  0  0  0  0  0  0  0  0  0  0  # atno 17343 bound_to 10162
  157.2670  130.6686  149.6001 LP  0  0  0  0  0  0  0  0  0  0  0  0  # atno 17370 bound_to 10713
  155.9676  130.4491  150.5644 LP  0  0  0  0  0  0  0  0  0  0  0  0  # atno 17371 bound_to 10713
  141.0844  133.6740  156.2404 LP  0  0  0  0  0  0  0  0  0  0  0  0  # atno 17394 bound_to 11000
  140.6292  134.5281  157.5557 LP  0  0  0  0  0  0  0  0  0  0  0  0  # atno 17395 bound_to 11000

$$$$
