AV-unprocessed.smi:1794|AV-procd|sdf|7233|dock2
  -GOLD-   22720 8473D 1   1.00000     0.00000
 Structure written by MMmdl.
 55 57  0  0  0  0  0  0  0  0  2 V2000
  144.2072  140.7129  155.5998 C   0  0  0  0  0  0  0  0  0  0  0  0
  144.3039  142.2592  155.5619 C   0  0  0  0  0  0  0  0  0  0  0  0
  144.5175  142.7102  157.0287 C   0  0  0  0  0  0  0  0  0  0  0  0
  145.5175  142.7101  154.6934 C   0  0  0  0  0  0  0  0  0  0  0  0
  146.8108  142.3553  155.2776 N   0  0  0  0  0  0  0  0  0  0  0  0
  147.7599  141.6162  154.6852 C   0  0  0  0  0  0  0  0  0  0  0  0
  147.6501  141.1670  153.5455 O   0  0  0  0  0  0  0  0  0  0  0  0
  148.8089  141.4396  155.5069 N   0  0  0  0  0  0  0  0  0  0  0  0
  150.0072  140.6830  155.3333 C   0  0  0  0  0  0  0  0  0  0  0  0
  150.1991  139.7610  154.2724 C   0  0  0  0  0  0  0  0  0  0  0  0
  151.3938  139.0238  154.2037 C   0  0  0  0  0  0  0  0  0  0  0  0
  152.3602  139.2261  155.2017 C   0  0  0  0  0  0  0  0  0  0  0  0
  152.1980  140.0998  156.2142 N   0  0  0  0  0  0  0  0  0  0  0  0
  151.0571  140.8281  156.2865 C   0  0  0  0  0  0  0  0  0  0  0  0
  150.9522  141.7451  157.3572 N   0  0  0  0  0  0  0  0  0  0  0  0
  151.2946  141.3376  158.7165 C   0  0  0  0  0  0  0  0  0  0  0  0
  151.4966  142.6417  159.4830 C   0  0  0  0  0  0  0  0  0  0  0  0
  152.1188  143.5467  158.4248 C   0  0  0  0  0  0  0  0  0  0  0  0
  151.4402  143.1015  157.1253 C   0  0  0  0  0  0  0  0  0  0  0  0
  143.0101  142.8279  155.0366 N   0  3  0  0  0  0  0  0  0  0  0  0
  141.7637  142.1777  155.5322 C   0  0  0  0  0  0  0  0  0  0  0  0
  140.5364  142.7185  154.7796 C   0  0  0  0  0  0  0  0  0  0  0  0
  140.4619  144.1283  154.9346 O   0  0  0  0  0  0  0  0  0  0  0  0
  141.6018  144.7766  154.3886 C   0  0  0  0  0  0  0  0  0  0  0  0
  142.8674  144.3091  155.1267 C   0  0  0  0  0  0  0  0  0  0  0  0
  145.0236  140.2691  156.1705 H   0  0  0  0  0  0  0  0  0  0  0  0
  144.2584  140.2701  154.6054 H   0  0  0  0  0  0  0  0  0  0  0  0
  143.2789  140.3833  156.0680 H   0  0  0  0  0  0  0  0  0  0  0  0
  145.3338  142.1647  157.5037 H   0  0  0  0  0  0  0  0  0  0  0  0
  143.6255  142.5370  157.6319 H   0  0  0  0  0  0  0  0  0  0  0  0
  144.7767  143.7659  157.1055 H   0  0  0  0  0  0  0  0  0  0  0  0
  145.4486  142.3069  153.6826 H   0  0  0  0  0  0  0  0  0  0  0  0
  145.5221  143.7935  154.5800 H   0  0  0  0  0  0  0  0  0  0  0  0
  146.9885  142.6854  156.2150 H   0  0  0  0  0  0  0  0  0  0  0  0
  148.7319  141.8908  156.4067 H   0  0  0  0  0  0  0  0  0  0  0  0
  149.4611  139.5873  153.5074 H   0  0  0  0  0  0  0  0  0  0  0  0
  151.5609  138.3141  153.4070 H   0  0  0  0  0  0  0  0  0  0  0  0
  153.2881  138.6738  155.1870 H   0  0  0  0  0  0  0  0  0  0  0  0
  150.5055  140.7276  159.1568 H   0  0  0  0  0  0  0  0  0  0  0  0
  152.2215  140.7634  158.7339 H   0  0  0  0  0  0  0  0  0  0  0  0
  150.5331  143.0440  159.7988 H   0  0  0  0  0  0  0  0  0  0  0  0
  152.1233  142.5228  160.3673 H   0  0  0  0  0  0  0  0  0  0  0  0
  151.9797  144.6076  158.6342 H   0  0  0  0  0  0  0  0  0  0  0  0
  153.1905  143.3533  158.3634 H   0  0  0  0  0  0  0  0  0  0  0  0
  152.1264  143.1550  156.2789 H   0  0  0  0  0  0  0  0  0  0  0  0
  150.5889  143.7479  156.9110 H   0  0  0  0  0  0  0  0  0  0  0  0
  141.7895  141.0993  155.3903 H   0  0  0  0  0  0  0  0  0  0  0  0
  141.6402  142.3602  156.5996 H   0  0  0  0  0  0  0  0  0  0  0  0
  140.5816  142.4568  153.7210 H   0  0  0  0  0  0  0  0  0  0  0  0
  139.6252  142.2722  155.1783 H   0  0  0  0  0  0  0  0  0  0  0  0
  141.6758  144.5732  153.3190 H   0  0  0  0  0  0  0  0  0  0  0  0
  141.4801  145.8543  154.4990 H   0  0  0  0  0  0  0  0  0  0  0  0
  142.8103  144.6219  156.1693 H   0  0  0  0  0  0  0  0  0  0  0  0
  143.7175  144.8230  154.6827 H   0  0  0  0  0  0  0  0  0  0  0  0
  143.0324  142.6281  154.0468 H   0  0  0  0  0  0  0  0  0  0  0  0
  1  2  1  0  0  0  0
  1 26  1  0  0  0  0
  1 27  1  0  0  0  0
  1 28  1  0  0  0  0
  2  3  1  0  0  0  0
  2  4  1  0  0  0  0
  2 20  1  0  0  0  0
  3 29  1  0  0  0  0
  3 30  1  0  0  0  0
  3 31  1  0  0  0  0
  4  5  1  0  0  0  0
  4 32  1  0  0  0  0
  4 33  1  0  0  0  0
  5  6  1  0  0  0  0
  5 34  1  0  0  0  0
  6  7  2  0  0  0  0
  6  8  1  0  0  0  0
  8  9  1  0  0  0  0
  8 35  1  0  0  0  0
  9 14  1  0  0  0  0
  9 10  2  0  0  0  0
 10 11  1  0  0  0  0
 10 36  1  0  0  0  0
 11 12  2  0  0  0  0
 11 37  1  0  0  0  0
 12 13  1  0  0  0  0
 12 38  1  0  0  0  0
 13 14  2  0  0  0  0
 14 15  1  0  0  0  0
 15 19  1  0  0  0  0
 15 16  1  0  0  0  0
 16 17  1  0  0  0  0
 16 39  1  0  0  0  0
 16 40  1  0  0  0  0
 17 18  1  0  0  0  0
 17 41  1  0  0  0  0
 17 42  1  0  0  0  0
 18 19  1  0  0  0  0
 18 43  1  0  0  0  0
 18 44  1  0  0  0  0
 19 45  1  0  0  0  0
 19 46  1  0  0  0  0
 20 25  1  0  0  0  0
 20 21  1  0  0  0  0
 20 55  1  0  0  0  0
 21 22  1  0  0  0  0
 21 47  1  0  0  0  0
 21 48  1  0  0  0  0
 22 23  1  0  0  0  0
 22 49  1  0  0  0  0
 22 50  1  0  0  0  0
 23 24  1  0  0  0  0
 24 25  1  0  0  0  0
 24 51  1  0  0  0  0
 24 52  1  0  0  0  0
 25 53  1  0  0  0  0
 25 54  1  0  0  0  0
M  CHG  1  20   1
M  END
> <s_m_source_file>
AV-unprocessed.smi

> <i_m_source_file_index>
1794

> <i_lp_mmshare_version>
43012

> <i_f3d_flags>
0

> <s_epik_input>
W0NIMl0xW0NIMl1PW0NIMl1bQ0gyXU4xQyhbQ0gzXSkoW0NIM10pW0NIMl1bTkhdQyg9TylbTkhdYzJbY0hdW2NIXVtjSF1uYzJOM1tDSDJdW0NIMl1bQ0gyXVtDSDJdMw==

> <s_epik_cmdline>
J2VwaWtfcHl0aG9uJywgJy1waCcsICc3LjAnLCAnLXRuJywgJzgnLCAnLW1hJywgJzIwMCcsICctbWV0YWxfYmluZGluZycsICctaW1hZScsICc8aW5maWxlLm1hZT4nLCAnLW9tYWUnLCAnPG91dGZpbGUubWFlPic=

> <r_lp_tautomer_probability>
1

> <r_epik_Ionization_Penalty>
0.687101

> <r_epik_Ionization_Penalty_Charging>
0.602531

> <r_epik_Ionization_Penalty_Neutral>
0.0845706

> <r_epik_State_Penalty>
0.681137

> <r_epik_Charging_Adjusted_Penalty>
1.28367

> <i_epik_Tot_Q>
1

> <i_epik_Tot_abs_Q>
1

> <r_epik_Metal_State_Penalty>
0.680055

> <b_epik_Metal_Only>
0

> <s_lp_Force_Field>
OPLS_2005

> <r_lp_Energy>
53.5269

> <b_lp_Chiralities_Consistent>
1

> <s_lp_Variant>
AV-unprocessed.smi:1794-2

> <Gold.Version>
5.8.1

> <Gold.Id.Protein>
6NUR|6NUR_protein|mol2

> <Gold.PLP.Fitness>
45.3529

> <Gold.PLP.PLP>
-39.4598

> <Gold.PLP.part.hbond>
-3.3245

> <Gold.PLP.part.metal>
0.0000

> <Gold.PLP.part.buried>
-5.5578

> <Gold.PLP.part.nonpolar>
-30.7154

> <Gold.PLP.part.repulsive>
0.4839

> <Gold.PLP.ligand.clash>
0.0000

> <Gold.PLP.ligand.torsion>
0.8556

> <Gold.PLP.Chemscore.Hbond>
2.3975

> <Gold.PLP.Chemscore.CHOScore>
0.0000

> <Gold.PLP.Chemscore.Metal>
0.0000

> <Gold.Chemscore.Hbonds>
donor molecule, donor type, donor heavy atom, donor atom, acceptor molecule, acceptor atom, score
      L1  H    20    55       P1 10174  2.00
      P1  H  7997  8009       L1    13  0.26

> <Gold.PLP.Chemscore.Internal.Correction>
0.4117

> <Gold.Rescore>
     Score         DG    S(hbond)    S(metal)    S(lipo)     H(rot)  DE(clash)    DE(int)     intcor
     13.63     -16.34       0.98        0.00     100.06       1.60       1.20       1.52       ----

> <Gold.Chemscore.Fitness>
13.6272

> <Gold.Chemscore.DG>
-16.3431

> <Gold.Chemscore.ZeroCoef>
-5.4800

> <Gold.Chemscore.Hbond>
0.9771

> <Gold.Chemscore.Metal>
0.0000

> <Gold.Chemscore.Lipo>
100.0592

> <Gold.Chemscore.Internal_Hbond>
0.0000

> <Gold.Chemscore.DEClash>
1.2007

> <Gold.Chemscore.DEInternal>
1.5153

> <Gold.Chemscore.Rot>
1.6044

> <Gold.Chemscore.Internal.Correction>
   9.000000E+99

> <Gold.Chemscore.Hbonds>
donor molecule, donor type, donor heavy atom, donor atom, acceptor molecule, acceptor atom, score
      L1  H    20    55       P1 10174  0.44
      P1  H  7997  8009       L1    13  0.01

> <Gold.Chemscore.Hbond.Weighted>
-3.2634

> <Gold.Chemscore.Metal.Weighted>
-0.0000

> <Gold.Chemscore.Lipo.Weighted>
-11.7069

> <Gold.Chemscore.Internal_Hbond.Weighted>
0.0000

> <Gold.Chemscore.DEClash.Weighted>
1.2007

> <Gold.Chemscore.DEInternal.Weighted>
1.5153

> <Gold.Chemscore.Rot.Weighted>
4.1072

> <Gold.Chemscore.Internal.Correction.Weighted>
   9.000000E+99

> <Gold.Protein.RotatedTorsions>
[ 6907 6896 6895 6894 ] final   47.72 input  -60.11 | X-H torsion
[ 7974 7965 7964 7962 ] final -157.02 input  175.53 | X-H torsion
[ 8008 7997 7996 7995 ] final -166.27 input   59.86 | X-H torsion
[ 10167 10162 10161 10158 ] final -123.35 input  -65.29 | X-H torsion
[ 10718 10713 10712 10709 ] final  -76.83 input   66.30 | X-H torsion
[ 10763 10752 10751 10750 ] final  -67.63 input  -60.55 | X-H torsion
[ 11005 11000 10999 10996 ] final  157.41 input  -57.11 | X-H torsion

> <Gold.Protein.ActiveResidues>
 VAL166  LYS551  ARG553  GLY616  TRP617  ASP618  TYR619  PRO620  LYS621  CYS622 
 ASP623  PHE694  ASN695  SER759  ASP760  ASP761  ALA762  ILE779  LEU786  VAL792 
 PHE793  MET794  SER795  GLU796  ALA797  LYS798  CYS799  TRP800  GLU811  SER814 

> <Gold.Protein.RotatedAtoms>
  152.2713  134.7930  160.0413 H   0  0  0  0  0  0  0  0  0  0  0  0  # atno 6907 bound_to 6896
  151.8542  133.3440  159.3691 H   0  0  0  0  0  0  0  0  0  0  0  0  # atno 6908 bound_to 6896
  150.7153  134.5198  159.5692 H   0  0  0  0  0  0  0  0  0  0  0  0  # atno 6909 bound_to 6896
  144.7566  140.4027  143.6007 H   0  0  0  0  0  0  0  0  0  0  0  0  # atno 7974 bound_to 7965
  155.8615  140.0979  157.1610 H   0  0  0  0  0  0  0  0  0  0  0  0  # atno 8008 bound_to 7997
  154.3991  140.1364  156.4029 H   0  0  0  0  0  0  0  0  0  0  0  0  # atno 8009 bound_to 7997
  155.7852  140.3457  155.5321 H   0  0  0  0  0  0  0  0  0  0  0  0  # atno 8010 bound_to 7997
  140.0044  143.5507  152.2290 H   0  0  0  0  0  0  0  0  0  0  0  0  # atno 10167 bound_to 10162
  156.0163  130.4476  150.3253 H   0  0  0  0  0  0  0  0  0  0  0  0  # atno 10718 bound_to 10713
  154.3772  135.6082  153.5771 H   0  0  0  0  0  0  0  0  0  0  0  0  # atno 10763 bound_to 10752
  152.9789  135.5852  154.4452 H   0  0  0  0  0  0  0  0  0  0  0  0  # atno 10764 bound_to 10752
  154.4216  135.2846  155.1949 H   0  0  0  0  0  0  0  0  0  0  0  0  # atno 10765 bound_to 10752
  140.1767  134.8505  157.2755 H   0  0  0  0  0  0  0  0  0  0  0  0  # atno 11005 bound_to 11000
  145.6757  139.1608  143.2729 LP  0  0  0  0  0  0  0  0  0  0  0  0  # atno 17320 bound_to 7965
  146.1584  140.6824  142.9289 LP  0  0  0  0  0  0  0  0  0  0  0  0  # atno 17321 bound_to 7965
  139.6249  144.7635  151.2660 LP  0  0  0  0  0  0  0  0  0  0  0  0  # atno 17342 bound_to 10162
  140.7406  143.6582  150.8187 LP  0  0  0  0  0  0  0  0  0  0  0  0  # atno 17343 bound_to 10162
  157.1353  131.0282  151.2951 LP  0  0  0  0  0  0  0  0  0  0  0  0  # atno 17370 bound_to 10713
  157.4517  130.7602  149.7157 LP  0  0  0  0  0  0  0  0  0  0  0  0  # atno 17371 bound_to 10713
  140.2314  134.3904  155.7520 LP  0  0  0  0  0  0  0  0  0  0  0  0  # atno 17394 bound_to 11000
  141.2221  133.7217  156.8647 LP  0  0  0  0  0  0  0  0  0  0  0  0  # atno 17395 bound_to 11000

$$$$
