AV-unprocessed.smi:39|AV-procd|sdf|355|dock1
  -GOLD-   2262016193D 1   1.00000     0.00000
 Structure written by MMmdl.
 32 33  0  0  0  0  0  0  0  0  3 V2000
  152.7007  143.8840  160.5209 C   0  0  0  0  0  0  0  0  0  0  0  0
  152.0447  143.2405  159.3104 C   0  0  0  0  0  0  0  0  0  0  0  0
  152.2213  141.9316  158.9966 C   0  0  0  0  0  0  0  0  0  0  0  0
  151.6353  141.3166  157.8986 N   0  0  0  0  0  0  0  0  0  0  0  0
  151.8691  139.8549  157.5922 C   0  0  1  0  0  0  0  0  0  0  0  0
  150.5359  139.0928  157.5297 C   0  0  0  0  0  0  0  0  0  0  0  0
  150.7747  138.1065  156.3991 C   0  0  2  0  0  0  0  0  0  0  0  0
  151.4421  136.9053  156.9174 N   0  0  0  0  0  0  0  0  0  0  0  0
  150.8405  136.2684  157.7924 N   0  3  0  0  0  0  0  0  0  0  0  0
  150.1919  135.6727  158.5134 N   0  5  0  0  0  0  0  0  0  0  0  0
  151.6528  138.9778  155.4822 C   0  0  2  0  0  0  0  0  0  0  0  0
  152.4361  138.3397  154.3163 C   0  0  0  0  0  0  0  0  0  0  0  0
  151.8630  137.1365  153.8503 O   0  0  0  0  0  0  0  0  0  0  0  0
  152.4908  139.7378  156.3450 O   0  0  0  0  0  0  0  0  0  0  0  0
  150.8291  142.0793  157.0287 C   0  0  0  0  0  0  0  0  0  0  0  0
  150.3051  141.6123  156.0183 O   0  0  0  0  0  0  0  0  0  0  0  0
  150.6431  143.4218  157.3530 N   0  0  0  0  0  0  0  0  0  0  0  0
  151.1967  144.0764  158.4558 C   0  0  0  0  0  0  0  0  0  0  0  0
  150.9554  145.2684  158.6389 O   0  0  0  0  0  0  0  0  0  0  0  0
  152.5614  139.4639  158.3398 H   0  0  0  0  0  0  0  0  0  0  0  0
  149.8302  137.8549  155.9119 H   0  0  0  0  0  0  0  0  0  0  0  0
  150.9793  139.7014  155.0199 H   0  0  0  0  0  0  0  0  0  0  0  0
  150.0611  143.9695  156.7360 H   0  0  0  0  0  0  0  0  0  0  0  0
  153.3090  143.1713  161.0784 H   0  0  0  0  0  0  0  0  0  0  0  0
  151.9436  144.2793  161.1991 H   0  0  0  0  0  0  0  0  0  0  0  0
  153.3476  144.7059  160.2122 H   0  0  0  0  0  0  0  0  0  0  0  0
  152.8580  141.3433  159.6396 H   0  0  0  0  0  0  0  0  0  0  0  0
  150.2961  138.6342  158.4899 H   0  0  0  0  0  0  0  0  0  0  0  0
  149.7320  139.7806  157.2619 H   0  0  0  0  0  0  0  0  0  0  0  0
  152.4868  139.0382  153.4809 H   0  0  0  0  0  0  0  0  0  0  0  0
  153.4623  138.1384  154.6241 H   0  0  0  0  0  0  0  0  0  0  0  0
  151.5460  137.2744  152.9708 H   0  0  0  0  0  0  0  0  0  0  0  0
  1  2  1  0  0  0  0
  1 24  1  0  0  0  0
  1 25  1  0  0  0  0
  1 26  1  0  0  0  0
  2 18  1  0  0  0  0
  2  3  2  0  0  0  0
  3  4  1  0  0  0  0
  3 27  1  0  0  0  0
  4  5  1  0  0  0  0
  4 15  1  0  0  0  0
  5 20  1  0  0  0  0
  5 14  1  0  0  0  0
  5  6  1  0  0  0  0
  6  7  1  0  0  0  0
  6 28  1  0  0  0  0
  6 29  1  0  0  0  0
  7 21  1  0  0  0  0
  7  8  1  0  0  0  0
  7 11  1  0  0  0  0
  8  9  2  0  0  0  0
  9 10  2  0  0  0  0
 11 22  1  0  0  0  0
 11 12  1  0  0  0  0
 11 14  1  0  0  0  0
 12 13  1  0  0  0  0
 12 30  1  0  0  0  0
 12 31  1  0  0  0  0
 13 32  1  0  0  0  0
 15 16  2  0  0  0  0
 15 17  1  0  0  0  0
 17 23  1  0  0  0  0
 17 18  1  0  0  0  0
 18 19  2  0  0  0  0
M  CHG  1   9   1
M  CHG  1  10  -1
M  END
> <s_m_source_file>
AV-unprocessed.smi

> <i_m_source_file_index>
39

> <i_lp_mmshare_version>
43012

> <i_f3d_flags>
0

> <s_epik_input>
Tz1jMVtuSF1jKD1PKW4oW2NIXWMxW0NIM10pW0NASF0yW0NIMl1bQ0BIXShOPVtOK109W04tXSlbQ0BIXShPMilbQ0gyXVtPSF0=

> <s_epik_cmdline>
J2VwaWtfcHl0aG9uJywgJy1waCcsICc3LjAnLCAnLXRuJywgJzgnLCAnLW1hJywgJzIwMCcsICctbWV0YWxfYmluZGluZycsICctaW1hZScsICc8aW5maWxlLm1hZT4nLCAnLW9tYWUnLCAnPG91dGZpbGUubWFlPic=

> <r_lp_tautomer_probability>
0.999537

> <r_epik_Ionization_Penalty>
0.00127512

> <r_epik_Ionization_Penalty_Charging>
0.00127507

> <r_epik_Ionization_Penalty_Neutral>
5.43433e-08

> <r_epik_State_Penalty>
0.000844892

> <r_epik_Charging_Adjusted_Penalty>
0.00211996

> <i_epik_Tot_Q>
0

> <i_epik_Tot_abs_Q>
2

> <r_epik_Metal_State_Penalty>
0.680636

> <b_epik_Metal_Only>
0

> <s_epik_Chemistry_Notes>
This compound contains an acetal/aminal-like group ( X-CH(R)-Y where X, Y are N, S, or O) that may be acid/base labile, releasing an aldehyde.

> <s_lp_Force_Field>
OPLS_2005

> <r_lp_Energy>
30.2266

> <b_lp_Chiralities_Consistent>
1

> <s_lp_Variant>
AV-unprocessed.smi:39-5

> <Gold.Version>
5.8.1

> <Gold.Id.Protein>
6NUR|6NUR_protein|mol2

> <Gold.PLP.Fitness>
46.5573

> <Gold.PLP.PLP>
-33.5792

> <Gold.PLP.part.hbond>
-5.6670

> <Gold.PLP.part.metal>
0.0000

> <Gold.PLP.part.buried>
-6.7596

> <Gold.PLP.part.nonpolar>
-21.5781

> <Gold.PLP.part.repulsive>
0.2434

> <Gold.PLP.ligand.clash>
0.0000

> <Gold.PLP.ligand.torsion>
0.4592

> <Gold.PLP.Chemscore.Hbond>
4.6136

> <Gold.PLP.Chemscore.CHOScore>
0.0000

> <Gold.PLP.Chemscore.Metal>
0.0000

> <Gold.Chemscore.Hbonds>
donor molecule, donor type, donor heavy atom, donor atom, acceptor molecule, acceptor atom, score
      L1  H    13    32       P1  7949  0.62
      L1  H    17    23       P1  8028  1.00
      P1  H  6896  6907       L1    10  0.93
      P1  H  7997  8009       L1    14  1.00
      P1  H 10752 10765       L1    13  1.00

> <Gold.PLP.Chemscore.Internal.Correction>
0.0558

> <Gold.Rescore>
     Score         DG    S(hbond)    S(metal)    S(lipo)     H(rot)  DE(clash)    DE(int)     intcor
     17.10     -19.58       4.31        0.00      57.65       2.75       0.10       2.38       ----

> <Gold.Chemscore.Fitness>
17.1003

> <Gold.Chemscore.DG>
-19.5781

> <Gold.Chemscore.ZeroCoef>
-5.4800

> <Gold.Chemscore.Hbond>
4.3113

> <Gold.Chemscore.Metal>
0.0000

> <Gold.Chemscore.Lipo>
57.6467

> <Gold.Chemscore.Internal_Hbond>
0.0000

> <Gold.Chemscore.DEClash>
0.1004

> <Gold.Chemscore.DEInternal>
2.3774

> <Gold.Chemscore.Rot>
2.7524

> <Gold.Chemscore.Internal.Correction>
   9.000000E+99

> <Gold.Chemscore.Hbonds>
donor molecule, donor type, donor heavy atom, donor atom, acceptor molecule, acceptor atom, score
      L1  H    13    32       P1  7949  0.57
      L1  H    17    23       P1  8028  1.00
      P1  H  6896  6907       L1    10  0.87
      P1  H  7997  8009       L1    14  0.74
      P1  H 10752 10765       L1    13  0.60

> <Gold.Chemscore.Hbond.Weighted>
-14.3996

> <Gold.Chemscore.Metal.Weighted>
-0.0000

> <Gold.Chemscore.Lipo.Weighted>
-6.7447

> <Gold.Chemscore.Internal_Hbond.Weighted>
0.0000

> <Gold.Chemscore.DEClash.Weighted>
0.1004

> <Gold.Chemscore.DEInternal.Weighted>
2.3774

> <Gold.Chemscore.Rot.Weighted>
7.0461

> <Gold.Chemscore.Internal.Correction.Weighted>
   9.000000E+99

> <Gold.Protein.RotatedTorsions>
[ 6907 6896 6895 6894 ] final  -66.92 input  -60.11 | X-H torsion
[ 7974 7965 7964 7962 ] final -117.41 input  175.53 | X-H torsion
[ 8008 7997 7996 7995 ] final -174.07 input   59.86 | X-H torsion
[ 10167 10162 10161 10158 ] final  -69.87 input  -65.29 | X-H torsion
[ 10718 10713 10712 10709 ] final  137.03 input   66.30 | X-H torsion
[ 10763 10752 10751 10750 ] final  137.98 input  -60.55 | X-H torsion
[ 11005 11000 10999 10996 ] final -121.94 input  -57.11 | X-H torsion

> <Gold.Protein.ActiveResidues>
 VAL166  LYS551  ARG553  GLY616  TRP617  ASP618  TYR619  PRO620  LYS621  CYS622 
 ASP623  PHE694  ASN695  SER759  ASP760  ASP761  ALA762  ILE779  LEU786  VAL792 
 PHE793  MET794  SER795  GLU796  ALA797  LYS798  CYS799  TRP800  GLU811  SER814 

> <Gold.Protein.RotatedAtoms>
  150.7438  134.5953  159.6008 H   0  0  0  0  0  0  0  0  0  0  0  0  # atno 6907 bound_to 6896
  152.3329  134.7232  160.0293 H   0  0  0  0  0  0  0  0  0  0  0  0  # atno 6908 bound_to 6896
  151.7710  133.3305  159.3481 H   0  0  0  0  0  0  0  0  0  0  0  0  # atno 6909 bound_to 6896
  145.0855  140.8455  143.4013 H   0  0  0  0  0  0  0  0  0  0  0  0  # atno 7974 bound_to 7965
  155.9655  140.1153  157.0858 H   0  0  0  0  0  0  0  0  0  0  0  0  # atno 8008 bound_to 7997
  154.4143  140.1173  156.5303 H   0  0  0  0  0  0  0  0  0  0  0  0  # atno 8009 bound_to 7997
  155.6665  140.3473  155.4804 H   0  0  0  0  0  0  0  0  0  0  0  0  # atno 8010 bound_to 7997
  140.5397  143.2316  151.7113 H   0  0  0  0  0  0  0  0  0  0  0  0  # atno 10167 bound_to 10162
  157.4404  131.1057  151.0150 H   0  0  0  0  0  0  0  0  0  0  0  0  # atno 10718 bound_to 10713
  153.8820  135.3043  155.3445 H   0  0  0  0  0  0  0  0  0  0  0  0  # atno 10763 bound_to 10752
  154.7757  135.4862  153.9742 H   0  0  0  0  0  0  0  0  0  0  0  0  # atno 10764 bound_to 10752
  153.1346  135.6811  153.9221 H   0  0  0  0  0  0  0  0  0  0  0  0  # atno 10765 bound_to 10752
  141.0033  134.0371  157.3510 H   0  0  0  0  0  0  0  0  0  0  0  0  # atno 11005 bound_to 11000
  145.1127  139.2746  143.5629 LP  0  0  0  0  0  0  0  0  0  0  0  0  # atno 17320 bound_to 7965
  146.3531  140.0727  142.8622 LP  0  0  0  0  0  0  0  0  0  0  0  0  # atno 17321 bound_to 7965
  139.4984  144.3988  152.0203 LP  0  0  0  0  0  0  0  0  0  0  0  0  # atno 17342 bound_to 10162
  140.3096  144.3553  150.6037 LP  0  0  0  0  0  0  0  0  0  0  0  0  # atno 17343 bound_to 10162
  157.1015  130.5983  149.5461 LP  0  0  0  0  0  0  0  0  0  0  0  0  # atno 17370 bound_to 10713
  155.9946  130.5011  150.7428 LP  0  0  0  0  0  0  0  0  0  0  0  0  # atno 17371 bound_to 10713
  139.9050  135.0177  156.7444 LP  0  0  0  0  0  0  0  0  0  0  0  0  # atno 17394 bound_to 11000
  140.6854  133.9437  155.7935 LP  0  0  0  0  0  0  0  0  0  0  0  0  # atno 17395 bound_to 11000

$$$$
