AV-unprocessed.smi:2542|AV-procd|sdf|9992|dock8
  -GOLD-   2272014 43D 1   1.00000     0.00000
 Structure written by MMmdl.
 42 43  0  0  0  0  0  0  0  0  2 V2000
  146.3204  134.9074  155.9403 C   0  0  0  0  0  0  0  0  0  0  0  0
  145.0868  135.8288  156.0452 C   0  0  0  0  0  0  0  0  0  0  0  0
  143.9019  134.9431  156.5022 C   0  0  0  0  0  0  0  0  0  0  0  0
  145.3562  136.9025  157.1346 C   0  0  0  0  0  0  0  0  0  0  0  0
  146.1057  136.3703  158.2709 N   0  0  0  0  0  0  0  0  0  0  0  0
  146.2851  136.9765  159.4560 C   0  0  0  0  0  0  0  0  0  0  0  0
  145.7571  138.0536  159.7348 O   0  0  0  0  0  0  0  0  0  0  0  0
  147.2092  136.2736  160.4744 C   0  0  0  0  0  0  0  0  0  0  0  0
  148.6253  136.2925  160.0511 C   0  0  0  0  0  0  0  0  0  0  0  0
  149.7340  136.3095  159.7174 N   0  0  0  0  0  0  0  0  0  0  0  0
  147.0899  136.8931  161.8795 C   0  0  0  0  0  0  0  0  0  0  0  0
  147.5368  135.7948  162.8509 C   0  0  0  0  0  0  0  0  0  0  0  0
  147.2991  134.4646  162.1241 C   0  0  0  0  0  0  0  0  0  0  0  0
  146.7558  134.8272  160.7363 C   0  0  0  0  0  0  0  0  0  0  0  0
  144.8302  136.5045  154.6824 C   0  0  0  0  0  0  0  0  0  0  0  0
  145.8429  137.1955  153.9672 C   0  0  0  0  0  0  0  0  0  0  0  0
  145.5492  137.7681  152.7129 C   0  0  0  0  0  0  0  0  0  0  0  0
  144.3081  137.6590  152.1955 N   0  3  0  0  0  0  0  0  0  0  0  0
  143.3084  137.0160  152.8334 C   0  0  0  0  0  0  0  0  0  0  0  0
  143.5448  136.4242  154.0903 C   0  0  0  0  0  0  0  0  0  0  0  0
  146.5151  134.3973  156.8846 H   0  0  0  0  0  0  0  0  0  0  0  0
  147.2254  135.4584  155.6844 H   0  0  0  0  0  0  0  0  0  0  0  0
  146.1776  134.1404  155.1781 H   0  0  0  0  0  0  0  0  0  0  0  0
  144.1046  134.4833  157.4703 H   0  0  0  0  0  0  0  0  0  0  0  0
  143.7112  134.1319  155.7987 H   0  0  0  0  0  0  0  0  0  0  0  0
  142.9786  135.5123  156.6118 H   0  0  0  0  0  0  0  0  0  0  0  0
  145.8532  137.7733  156.7033 H   0  0  0  0  0  0  0  0  0  0  0  0
  144.4128  137.2774  157.5322 H   0  0  0  0  0  0  0  0  0  0  0  0
  146.5636  135.4814  158.1288 H   0  0  0  0  0  0  0  0  0  0  0  0
  147.6921  137.7961  161.9875 H   0  0  0  0  0  0  0  0  0  0  0  0
  146.0589  137.1660  162.1102 H   0  0  0  0  0  0  0  0  0  0  0  0
  148.5975  135.9050  163.0795 H   0  0  0  0  0  0  0  0  0  0  0  0
  146.9919  135.8496  163.7939 H   0  0  0  0  0  0  0  0  0  0  0  0
  148.2403  133.9210  162.0320 H   0  0  0  0  0  0  0  0  0  0  0  0
  146.6038  133.8227  162.6659 H   0  0  0  0  0  0  0  0  0  0  0  0
  145.6667  134.7551  160.7502 H   0  0  0  0  0  0  0  0  0  0  0  0
  147.1136  134.1364  159.9716 H   0  0  0  0  0  0  0  0  0  0  0  0
  146.8466  137.2967  154.3500 H   0  0  0  0  0  0  0  0  0  0  0  0
  146.2678  138.3048  152.1107 H   0  0  0  0  0  0  0  0  0  0  0  0
  142.3575  136.9914  152.3216 H   0  0  0  0  0  0  0  0  0  0  0  0
  142.7387  135.9060  154.5880 H   0  0  0  0  0  0  0  0  0  0  0  0
  144.1184  138.0788  151.2850 H   0  0  0  0  0  0  0  0  0  0  0  0
  1  2  1  0  0  0  0
  1 21  1  0  0  0  0
  1 22  1  0  0  0  0
  1 23  1  0  0  0  0
  2  3  1  0  0  0  0
  2  4  1  0  0  0  0
  2 15  1  0  0  0  0
  3 24  1  0  0  0  0
  3 25  1  0  0  0  0
  3 26  1  0  0  0  0
  4  5  1  0  0  0  0
  4 27  1  0  0  0  0
  4 28  1  0  0  0  0
  5  6  1  0  0  0  0
  5 29  1  0  0  0  0
  6  7  2  0  0  0  0
  6  8  1  0  0  0  0
  8 14  1  0  0  0  0
  8  9  1  0  0  0  0
  8 11  1  0  0  0  0
  9 10  3  0  0  0  0
 11 12  1  0  0  0  0
 11 30  1  0  0  0  0
 11 31  1  0  0  0  0
 12 13  1  0  0  0  0
 12 32  1  0  0  0  0
 12 33  1  0  0  0  0
 13 14  1  0  0  0  0
 13 34  1  0  0  0  0
 13 35  1  0  0  0  0
 14 36  1  0  0  0  0
 14 37  1  0  0  0  0
 15 20  1  0  0  0  0
 15 16  2  0  0  0  0
 16 17  1  0  0  0  0
 16 38  1  0  0  0  0
 17 18  2  0  0  0  0
 17 39  1  0  0  0  0
 18 19  1  0  0  0  0
 18 42  1  0  0  0  0
 19 20  2  0  0  0  0
 19 40  1  0  0  0  0
 20 41  1  0  0  0  0
M  CHG  1  18   1
M  END
> <s_m_source_file>
AV-unprocessed.smi

> <i_m_source_file_index>
2542

> <i_lp_mmshare_version>
43012

> <i_f3d_flags>
0

> <s_epik_input>
W2NIXTFbY0hdbltjSF1bY0hdYzFDKFtDSDNdKShbQ0gzXSlbQ0gyXVtOSF1DKD1PKUMyKEMjTilbQ0gyXVtDSDJdW0NIMl1bQ0gyXTI=

> <s_epik_cmdline>
J2VwaWtfcHl0aG9uJywgJy1waCcsICc3LjAnLCAnLXRuJywgJzgnLCAnLW1hJywgJzIwMCcsICctbWV0YWxfYmluZGluZycsICctaW1hZScsICc8aW5maWxlLm1hZT4nLCAnLW9tYWUnLCAnPG91dGZpbGUubWFlPic=

> <r_epik_Ionization_Penalty>
1.51272

> <r_epik_Ionization_Penalty_Charging>
1.51272

> <r_epik_Ionization_Penalty_Neutral>
6.26824e-07

> <r_epik_State_Penalty>
1.60388

> <r_epik_Charging_Adjusted_Penalty>
3.1166

> <i_epik_Tot_Q>
1

> <i_epik_Tot_abs_Q>
1

> <r_epik_Metal_State_Penalty>
1.64935

> <b_epik_Metal_Only>
0

> <s_lp_Force_Field>
OPLS_2005

> <r_lp_Energy>
37.2322

> <b_lp_Chiralities_Consistent>
1

> <s_lp_Variant>
AV-unprocessed.smi:2542-2

> <Gold.Version>
5.8.1

> <Gold.Id.Protein>
6NUR|6NUR_protein|mol2

> <Gold.PLP.Fitness>
33.1309

> <Gold.PLP.PLP>
-26.3849

> <Gold.PLP.part.hbond>
-4.0000

> <Gold.PLP.part.metal>
0.0000

> <Gold.PLP.part.buried>
-2.7009

> <Gold.PLP.part.nonpolar>
-19.8661

> <Gold.PLP.part.repulsive>
0.0436

> <Gold.PLP.ligand.clash>
0.0000

> <Gold.PLP.ligand.torsion>
0.8524

> <Gold.PLP.Chemscore.Hbond>
2.7930

> <Gold.PLP.Chemscore.CHOScore>
0.0000

> <Gold.PLP.Chemscore.Metal>
0.0000

> <Gold.Chemscore.Hbonds>
donor molecule, donor type, donor heavy atom, donor atom, acceptor molecule, acceptor atom, score
      L1  H    18    42       P1 10171  1.00
      P1  H  6896  6909       L1    10  1.00
      P1  H  6934  6947       L1     7  0.71

> <Gold.PLP.Chemscore.Internal.Correction>
0.0718

> <Gold.Rescore>
     Score         DG    S(hbond)    S(metal)    S(lipo)     H(rot)  DE(clash)    DE(int)     intcor
     16.11     -16.87       2.69        0.00      54.88       1.56       0.13       0.63       ----

> <Gold.Chemscore.Fitness>
16.1120

> <Gold.Chemscore.DG>
-16.8723

> <Gold.Chemscore.ZeroCoef>
-5.4800

> <Gold.Chemscore.Hbond>
2.6877

> <Gold.Chemscore.Metal>
0.0000

> <Gold.Chemscore.Lipo>
54.8848

> <Gold.Chemscore.Internal_Hbond>
0.0000

> <Gold.Chemscore.DEClash>
0.1258

> <Gold.Chemscore.DEInternal>
0.6345

> <Gold.Chemscore.Rot>
1.5649

> <Gold.Chemscore.Internal.Correction>
   9.000000E+99

> <Gold.Chemscore.Hbonds>
donor molecule, donor type, donor heavy atom, donor atom, acceptor molecule, acceptor atom, score
      L1  H    18    42       P1 10171  0.97
      P1  H  6896  6909       L1    10  1.00
      P1  H  6934  6947       L1     7  0.34

> <Gold.Chemscore.Hbond.Weighted>
-8.9770

> <Gold.Chemscore.Metal.Weighted>
-0.0000

> <Gold.Chemscore.Lipo.Weighted>
-6.4215

> <Gold.Chemscore.Internal_Hbond.Weighted>
0.0000

> <Gold.Chemscore.DEClash.Weighted>
0.1258

> <Gold.Chemscore.DEInternal.Weighted>
0.6345

> <Gold.Chemscore.Rot.Weighted>
4.0061

> <Gold.Chemscore.Internal.Correction.Weighted>
   9.000000E+99

> <Gold.Protein.RotatedTorsions>
[ 6907 6896 6895 6894 ] final   87.78 input  -60.11 | X-H torsion
[ 7974 7965 7964 7962 ] final    5.38 input  175.53 | X-H torsion
[ 8008 7997 7996 7995 ] final  162.65 input   59.86 | X-H torsion
[ 10167 10162 10161 10158 ] final  -51.45 input  -65.29 | X-H torsion
[ 10718 10713 10712 10709 ] final  -68.63 input   66.30 | X-H torsion
[ 10763 10752 10751 10750 ] final   72.89 input  -60.55 | X-H torsion
[ 11005 11000 10999 10996 ] final   54.39 input  -57.11 | X-H torsion

> <Gold.Protein.ActiveResidues>
 VAL166  LYS551  ARG553  GLY616  TRP617  ASP618  TYR619  PRO620  LYS621  CYS622 
 ASP623  PHE694  ASN695  SER759  ASP760  ASP761  ALA762  ILE779  LEU786  VAL792 
 PHE793  MET794  SER795  GLU796  ALA797  LYS798  CYS799  TRP800  GLU811  SER814 

> <Gold.Protein.RotatedAtoms>
  152.5416  134.2223  159.8792 H   0  0  0  0  0  0  0  0  0  0  0  0  # atno 6907 bound_to 6896
  151.2199  133.4501  159.2608 H   0  0  0  0  0  0  0  0  0  0  0  0  # atno 6908 bound_to 6896
  151.0815  134.9874  159.8414 H   0  0  0  0  0  0  0  0  0  0  0  0  # atno 6909 bound_to 6896
  146.2441  140.0393  142.8383 H   0  0  0  0  0  0  0  0  0  0  0  0  # atno 7974 bound_to 7965
  156.2016  140.1744  156.7888 H   0  0  0  0  0  0  0  0  0  0  0  0  # atno 8008 bound_to 7997
  154.5599  140.0701  156.8833 H   0  0  0  0  0  0  0  0  0  0  0  0  # atno 8009 bound_to 7997
  155.2869  140.3352  155.4257 H   0  0  0  0  0  0  0  0  0  0  0  0  # atno 8010 bound_to 7997
  140.6587  143.2619  151.4506 H   0  0  0  0  0  0  0  0  0  0  0  0  # atno 10167 bound_to 10162
  156.0495  130.4298  150.2029 H   0  0  0  0  0  0  0  0  0  0  0  0  # atno 10718 bound_to 10713
  153.0487  135.5083  154.7811 H   0  0  0  0  0  0  0  0  0  0  0  0  # atno 10763 bound_to 10752
  154.6691  135.2950  154.9768 H   0  0  0  0  0  0  0  0  0  0  0  0  # atno 10764 bound_to 10752
  154.0593  135.6693  153.4862 H   0  0  0  0  0  0  0  0  0  0  0  0  # atno 10765 bound_to 10752
  140.0691  134.5495  155.9067 H   0  0  0  0  0  0  0  0  0  0  0  0  # atno 11005 bound_to 11000
  145.1084  140.9389  143.4671 LP  0  0  0  0  0  0  0  0  0  0  0  0  # atno 17320 bound_to 7965
  145.0601  139.3112  143.5884 LP  0  0  0  0  0  0  0  0  0  0  0  0  # atno 17321 bound_to 7965
  139.5816  144.1697  152.1975 LP  0  0  0  0  0  0  0  0  0  0  0  0  # atno 17342 bound_to 10162
  140.1024  144.5528  150.6980 LP  0  0  0  0  0  0  0  0  0  0  0  0  # atno 17343 bound_to 10162
  157.0114  130.9952  151.3365 LP  0  0  0  0  0  0  0  0  0  0  0  0  # atno 17370 bound_to 10713
  157.5407  130.8118  149.8026 LP  0  0  0  0  0  0  0  0  0  0  0  0  # atno 17371 bound_to 10713
  141.2004  133.6612  156.5897 LP  0  0  0  0  0  0  0  0  0  0  0  0  # atno 17394 bound_to 11000
  140.3655  134.7651  157.4563 LP  0  0  0  0  0  0  0  0  0  0  0  0  # atno 17395 bound_to 11000

$$$$
