AV-unprocessed.smi:282|AV-procd|sdf|2120|dock6
  -GOLD-   2262021423D 1   1.00000     0.00000
 Structure written by MMmdl.
 65 69  0  0  0  0  0  0  0  0  2 V2000
  140.6507  136.8213  154.2578 C   0  0  0  0  0  0  0  0  0  0  0  0
  142.1428  136.9302  154.6010 C   0  0  0  0  0  0  0  0  0  0  0  0
  143.0685  136.0331  153.7359 C   0  0  1  0  0  0  0  0  0  0  0  0
  142.2804  135.3948  152.5619 C   0  0  0  0  0  0  0  0  0  0  0  0
  143.1449  134.6153  151.6411 N   0  3  2  0  0  0  0  0  0  0  0  0
  143.5450  133.2921  152.1919 C   0  0  0  0  0  0  0  0  0  0  0  0
  144.3467  132.4796  151.1637 C   0  0  0  0  0  0  0  0  0  0  0  0
  145.5766  133.2626  150.6897 C   0  0  0  0  0  0  0  0  0  0  0  0
  145.1451  134.6265  150.1329 C   0  0  0  0  0  0  0  0  0  0  0  0
  144.2879  135.4251  151.1366 C   0  0  2  0  0  0  0  0  0  0  0  0
  145.0990  136.0155  152.3042 C   0  0  0  0  0  0  0  0  0  0  0  0
  144.2360  136.7626  153.2164 N   0  0  0  0  0  0  0  0  0  0  0  0
  144.9570  137.4318  154.1443 C   0  0  0  0  0  0  0  0  0  0  0  0
  144.7374  137.2102  155.4669 N   0  0  0  0  0  0  0  0  0  0  0  0
  145.4386  137.8907  156.3790 C   0  0  0  0  0  0  0  0  0  0  0  0
  146.3754  138.8224  156.1871 N   0  0  0  0  0  0  0  0  0  0  0  0
  146.5882  139.0512  154.8593 C   0  0  0  0  0  0  0  0  0  0  0  0
  145.9320  138.3961  153.7811 C   0  0  0  0  0  0  0  0  0  0  0  0
  146.4064  138.8740  152.5674 N   0  0  0  0  0  0  0  0  0  0  0  0
  147.2955  139.7664  152.9092 C   0  0  0  0  0  0  0  0  0  0  0  0
  147.4545  139.9535  154.2652 N   0  0  0  0  0  0  0  0  0  0  0  0
  148.3662  140.8864  154.9136 C   0  0  0  0  0  0  0  0  0  0  0  0
  149.6751  140.2471  155.4675 C   0  0  0  0  0  0  0  0  0  0  0  0
  150.7068  141.3492  155.8439 C   0  0  0  0  0  0  0  0  0  0  0  0
  150.1592  142.3216  156.7112 O   0  0  0  0  0  0  0  0  0  0  0  0
  149.3102  139.3715  156.6931 C   0  0  0  0  0  0  0  0  0  0  0  0
  150.4714  138.4744  157.1563 C   0  0  0  0  0  0  0  0  0  0  0  0
  150.8943  137.6448  156.0823 O   0  0  0  0  0  0  0  0  0  0  0  0
  151.3947  138.3867  154.9782 C   0  0  0  0  0  0  0  0  0  0  0  0
  150.2943  139.3007  154.4066 C   0  0  0  0  0  0  0  0  0  0  0  0
  140.0515  137.3825  154.9750 H   0  0  0  0  0  0  0  0  0  0  0  0
  140.3143  135.7846  154.2861 H   0  0  0  0  0  0  0  0  0  0  0  0
  140.4293  137.2248  153.2702 H   0  0  0  0  0  0  0  0  0  0  0  0
  142.4583  137.9713  154.5228 H   0  0  0  0  0  0  0  0  0  0  0  0
  142.2391  136.6650  155.6542 H   0  0  0  0  0  0  0  0  0  0  0  0
  143.4454  135.2322  154.3733 H   0  0  0  0  0  0  0  0  0  0  0  0
  141.4813  134.7488  152.9253 H   0  0  0  0  0  0  0  0  0  0  0  0
  141.7972  136.1815  151.9804 H   0  0  0  0  0  0  0  0  0  0  0  0
  144.1337  133.4203  153.1005 H   0  0  0  0  0  0  0  0  0  0  0  0
  142.6523  132.7335  152.4755 H   0  0  0  0  0  0  0  0  0  0  0  0
  144.6560  131.5290  151.5993 H   0  0  0  0  0  0  0  0  0  0  0  0
  143.7125  132.2373  150.3099 H   0  0  0  0  0  0  0  0  0  0  0  0
  146.2738  133.3975  151.5173 H   0  0  0  0  0  0  0  0  0  0  0  0
  146.1100  132.6975  149.9248 H   0  0  0  0  0  0  0  0  0  0  0  0
  146.0205  135.2065  149.8389 H   0  0  0  0  0  0  0  0  0  0  0  0
  144.5681  134.4677  149.2207 H   0  0  0  0  0  0  0  0  0  0  0  0
  143.8597  136.2665  150.5891 H   0  0  0  0  0  0  0  0  0  0  0  0
  145.6106  135.2232  152.8518 H   0  0  0  0  0  0  0  0  0  0  0  0
  145.8736  136.6772  151.9130 H   0  0  0  0  0  0  0  0  0  0  0  0
  145.2154  137.6596  157.4102 H   0  0  0  0  0  0  0  0  0  0  0  0
  147.8568  140.3251  152.1741 H   0  0  0  0  0  0  0  0  0  0  0  0
  148.6000  141.6826  154.2058 H   0  0  0  0  0  0  0  0  0  0  0  0
  147.8158  141.3693  155.7223 H   0  0  0  0  0  0  0  0  0  0  0  0
  151.5824  140.9317  156.3376 H   0  0  0  0  0  0  0  0  0  0  0  0
  151.0801  141.8520  154.9518 H   0  0  0  0  0  0  0  0  0  0  0  0
  149.7422  142.9897  156.1888 H   0  0  0  0  0  0  0  0  0  0  0  0
  148.9645  139.9885  157.5228 H   0  0  0  0  0  0  0  0  0  0  0  0
  148.4703  138.7239  156.4379 H   0  0  0  0  0  0  0  0  0  0  0  0
  151.3079  139.0620  157.5359 H   0  0  0  0  0  0  0  0  0  0  0  0
  150.1412  137.8373  157.9768 H   0  0  0  0  0  0  0  0  0  0  0  0
  152.2761  138.9551  155.2757 H   0  0  0  0  0  0  0  0  0  0  0  0
  151.7256  137.6853  154.2124 H   0  0  0  0  0  0  0  0  0  0  0  0
  149.5123  138.6659  153.9878 H   0  0  0  0  0  0  0  0  0  0  0  0
  150.7025  139.8714  153.5719 H   0  0  0  0  0  0  0  0  0  0  0  0
  142.5743  134.4050  150.8349 H   0  0  0  0  0  0  0  0  0  0  0  0
  1  2  1  0  0  0  0
  1 31  1  0  0  0  0
  1 32  1  0  0  0  0
  1 33  1  0  0  0  0
  2  3  1  0  0  0  0
  2 34  1  0  0  0  0
  2 35  1  0  0  0  0
  3 12  1  0  0  0  0
  3  4  1  0  0  0  0
  3 36  1  0  0  0  0
  4  5  1  0  0  0  0
  4 37  1  0  0  0  0
  4 38  1  0  0  0  0
  5 10  1  0  0  0  0
  5  6  1  0  0  0  0
  5 65  1  0  0  0  0
  6  7  1  0  0  0  0
  6 39  1  0  0  0  0
  6 40  1  0  0  0  0
  7  8  1  0  0  0  0
  7 41  1  0  0  0  0
  7 42  1  0  0  0  0
  8  9  1  0  0  0  0
  8 43  1  0  0  0  0
  8 44  1  0  0  0  0
  9 10  1  0  0  0  0
  9 45  1  0  0  0  0
  9 46  1  0  0  0  0
 10 11  1  0  0  0  0
 10 47  1  0  0  0  0
 11 12  1  0  0  0  0
 11 48  1  0  0  0  0
 11 49  1  0  0  0  0
 12 13  1  0  0  0  0
 13 18  1  0  0  0  0
 13 14  2  0  0  0  0
 14 15  1  0  0  0  0
 15 16  2  0  0  0  0
 15 50  1  0  0  0  0
 16 17  1  0  0  0  0
 17 21  1  0  0  0  0
 17 18  2  0  0  0  0
 18 19  1  0  0  0  0
 19 20  2  0  0  0  0
 20 21  1  0  0  0  0
 20 51  1  0  0  0  0
 21 22  1  0  0  0  0
 22 23  1  0  0  0  0
 22 52  1  0  0  0  0
 22 53  1  0  0  0  0
 23 30  1  0  0  0  0
 23 24  1  0  0  0  0
 23 26  1  0  0  0  0
 24 25  1  0  0  0  0
 24 54  1  0  0  0  0
 24 55  1  0  0  0  0
 25 56  1  0  0  0  0
 26 27  1  0  0  0  0
 26 57  1  0  0  0  0
 26 58  1  0  0  0  0
 27 28  1  0  0  0  0
 27 59  1  0  0  0  0
 27 60  1  0  0  0  0
 28 29  1  0  0  0  0
 29 30  1  0  0  0  0
 29 61  1  0  0  0  0
 29 62  1  0  0  0  0
 30 63  1  0  0  0  0
 30 64  1  0  0  0  0
M  CHG  1   5   1
M  END
> <s_m_source_file>
AV-unprocessed.smi

> <i_m_source_file_index>
282

> <i_lp_mmshare_version>
43012

> <i_f3d_flags>
0

> <s_epik_input>
W0NIMl0xW0NIMl1bQ0gyXVtDSDJdW0NAQEhdKE4xMilbQ0gyXU4oW0NAQEhdKFtDSDJdMilbQ0gyXVtDSDNdKWMobltjSF1uMyljKGMzNCluW2NIXW40W0NIMl1DNShbQ0gyXVtPSF0pW0NIMl1bQ0gyXU9bQ0gyXVtDSDJdNQ==

> <s_epik_cmdline>
J2VwaWtfcHl0aG9uJywgJy1waCcsICc3LjAnLCAnLXRuJywgJzgnLCAnLW1hJywgJzIwMCcsICctbWV0YWxfYmluZGluZycsICctaW1hZScsICc8aW5maWxlLm1hZT4nLCAnLW9tYWUnLCAnPG91dGZpbGUubWFlPic=

> <r_lp_tautomer_probability>
1

> <r_epik_Ionization_Penalty>
0.00308583

> <r_epik_Ionization_Penalty_Charging>
0.00300384

> <r_epik_Ionization_Penalty_Neutral>
8.19894e-05

> <r_epik_State_Penalty>
-0

> <r_epik_Charging_Adjusted_Penalty>
0.00300384

> <i_epik_Tot_Q>
1

> <i_epik_Tot_abs_Q>
1

> <r_epik_Metal_State_Penalty>
-0

> <b_epik_Metal_Only>
0

> <s_lp_Force_Field>
OPLS_2005

> <r_lp_Energy>
59.0592

> <b_lp_Chiralities_Consistent>
1

> <s_lp_Variant>
AV-unprocessed.smi:282-4

> <Gold.Version>
5.8.1

> <Gold.Id.Protein>
6NUR|6NUR_protein|mol2

> <Gold.PLP.Fitness>
42.0367

> <Gold.PLP.PLP>
-32.2389

> <Gold.PLP.part.hbond>
-2.0000

> <Gold.PLP.part.metal>
0.0000

> <Gold.PLP.part.buried>
-1.9544

> <Gold.PLP.part.nonpolar>
-29.7641

> <Gold.PLP.part.repulsive>
0.4513

> <Gold.PLP.ligand.clash>
0.0151

> <Gold.PLP.ligand.torsion>
1.2380

> <Gold.PLP.Chemscore.Hbond>
3.0000

> <Gold.PLP.Chemscore.CHOScore>
1.0000

> <Gold.PLP.Chemscore.Metal>
0.0000

> <Gold.Chemscore.Hbonds>
donor molecule, donor type, donor heavy atom, donor atom, acceptor molecule, acceptor atom, score
      L1  H     5    65       P1 10186  1.90
      L1  H    25    56       P1  8028  1.00
      L1  C    20    51       P1  7957  0.98

> <Gold.PLP.Chemscore.Internal.Correction>
0.2889

> <Gold.Rescore>
     Score         DG    S(hbond)    S(metal)    S(lipo)     H(rot)  DE(clash)    DE(int)     intcor
     10.44     -15.41       1.39        0.00      99.08       2.46       2.20       2.77       ----

> <Gold.Chemscore.Fitness>
10.4447

> <Gold.Chemscore.DG>
-15.4112

> <Gold.Chemscore.ZeroCoef>
-5.4800

> <Gold.Chemscore.Hbond>
1.3865

> <Gold.Chemscore.Metal>
0.0000

> <Gold.Chemscore.Lipo>
99.0752

> <Gold.Chemscore.Internal_Hbond>
0.0000

> <Gold.Chemscore.DEClash>
2.1955

> <Gold.Chemscore.DEInternal>
2.7710

> <Gold.Chemscore.Rot>
2.4576

> <Gold.Chemscore.Internal.Correction>
   9.000000E+99

> <Gold.Chemscore.Hbonds>
donor molecule, donor type, donor heavy atom, donor atom, acceptor molecule, acceptor atom, score
      L1  H     5    65       P1 10186  0.20
      L1  H    25    56       P1  8028  0.96

> <Gold.Chemscore.Hbond.Weighted>
-4.6309

> <Gold.Chemscore.Metal.Weighted>
-0.0000

> <Gold.Chemscore.Lipo.Weighted>
-11.5918

> <Gold.Chemscore.Internal_Hbond.Weighted>
0.0000

> <Gold.Chemscore.DEClash.Weighted>
2.1955

> <Gold.Chemscore.DEInternal.Weighted>
2.7710

> <Gold.Chemscore.Rot.Weighted>
6.2915

> <Gold.Chemscore.Internal.Correction.Weighted>
   9.000000E+99

> <Gold.Protein.RotatedTorsions>
[ 6907 6896 6895 6894 ] final   76.56 input  -60.11 | X-H torsion
[ 7974 7965 7964 7962 ] final  109.77 input  175.53 | X-H torsion
[ 8008 7997 7996 7995 ] final  131.27 input   59.86 | X-H torsion
[ 10167 10162 10161 10158 ] final   55.33 input  -65.29 | X-H torsion
[ 10718 10713 10712 10709 ] final  136.55 input   66.30 | X-H torsion
[ 10763 10752 10751 10750 ] final  -30.08 input  -60.55 | X-H torsion
[ 11005 11000 10999 10996 ] final   21.31 input  -57.11 | X-H torsion

> <Gold.Protein.ActiveResidues>
 VAL166  LYS551  ARG553  GLY616  TRP617  ASP618  TYR619  PRO620  LYS621  CYS622 
 ASP623  PHE694  ASN695  SER759  ASP760  ASP761  ALA762  ILE779  LEU786  VAL792 
 PHE793  MET794  SER795  GLU796  ALA797  LYS798  CYS799  TRP800  GLU811  SER814 

> <Gold.Protein.RotatedAtoms>
  152.5079  134.3950  159.9396 H   0  0  0  0  0  0  0  0  0  0  0  0  # atno 6907 bound_to 6896
  151.3911  133.3782  159.2729 H   0  0  0  0  0  0  0  0  0  0  0  0  # atno 6908 bound_to 6896
  150.9432  134.8860  159.7684 H   0  0  0  0  0  0  0  0  0  0  0  0  # atno 6909 bound_to 6896
  145.2636  139.2693  143.4004 H   0  0  0  0  0  0  0  0  0  0  0  0  # atno 7974 bound_to 7965
  156.2967  140.2575  156.2898 H   0  0  0  0  0  0  0  0  0  0  0  0  # atno 8008 bound_to 7997
  154.9520  140.0394  157.2167 H   0  0  0  0  0  0  0  0  0  0  0  0  # atno 8009 bound_to 7997
  154.8027  140.2831  155.5914 H   0  0  0  0  0  0  0  0  0  0  0  0  # atno 8010 bound_to 7997
  140.2206  144.3792  150.6452 H   0  0  0  0  0  0  0  0  0  0  0  0  # atno 10167 bound_to 10162
  157.4454  131.1061  151.0095 H   0  0  0  0  0  0  0  0  0  0  0  0  # atno 10718 bound_to 10713
  153.7752  135.6909  153.4899 H   0  0  0  0  0  0  0  0  0  0  0  0  # atno 10763 bound_to 10752
  153.1848  135.4493  155.0073 H   0  0  0  0  0  0  0  0  0  0  0  0  # atno 10764 bound_to 10752
  154.8103  135.3374  154.7259 H   0  0  0  0  0  0  0  0  0  0  0  0  # atno 10765 bound_to 10752
  140.3930  134.1799  155.7663 H   0  0  0  0  0  0  0  0  0  0  0  0  # atno 11005 bound_to 11000
  146.3268  140.3059  142.8623 LP  0  0  0  0  0  0  0  0  0  0  0  0  # atno 17320 bound_to 7965
  144.9397  140.8065  143.5638 LP  0  0  0  0  0  0  0  0  0  0  0  0  # atno 17321 bound_to 7965
  140.6257  143.2181  151.6600 LP  0  0  0  0  0  0  0  0  0  0  0  0  # atno 17342 bound_to 10162
  139.5145  144.3407  152.0743 LP  0  0  0  0  0  0  0  0  0  0  0  0  # atno 17343 bound_to 10162
  157.0943  130.5955  149.5446 LP  0  0  0  0  0  0  0  0  0  0  0  0  # atno 17370 bound_to 10713
  155.9965  130.5035  150.7500 LP  0  0  0  0  0  0  0  0  0  0  0  0  # atno 17371 bound_to 10713
  141.1884  133.8261  157.0996 LP  0  0  0  0  0  0  0  0  0  0  0  0  # atno 17394 bound_to 11000
  140.0392  134.9863  157.0930 LP  0  0  0  0  0  0  0  0  0  0  0  0  # atno 17395 bound_to 11000

$$$$
