AV-unprocessed.smi:1776|AV-procd|sdf|7173|dock3
  -GOLD-   22720 8413D 1   1.00000     0.00000
 Structure written by MMmdl.
 31 32  0  0  0  0  0  0  0  0  1 V2000
  155.6760  139.1693  158.8152 O   0  0  0  0  0  0  0  0  0  0  0  0
  154.7082  138.5790  159.2948 C   0  0  0  0  0  0  0  0  0  0  0  0
  153.6547  139.1734  159.8913 N   0  0  0  0  0  0  0  0  0  0  0  0
  153.3897  140.5347  160.1225 C   0  0  0  0  0  0  0  0  0  0  0  0
  152.6456  141.3398  159.3186 C   0  0  0  0  0  0  0  0  0  0  0  0
  152.4233  142.7433  159.6240 C   0  0  0  0  0  0  0  0  0  0  0  0
  151.5288  143.6127  158.7537 C   0  0  0  0  0  0  0  0  0  0  0  0
  150.5259  144.1379  159.4589 F   0  0  0  0  0  0  0  0  0  0  0  0
  152.2386  144.6124  158.2326 F   0  0  0  0  0  0  0  0  0  0  0  0
  151.0092  142.9064  157.7494 F   0  0  0  0  0  0  0  0  0  0  0  0
  152.9832  143.2079  160.7561 C   0  0  0  0  0  0  0  0  0  0  0  0
  153.7620  142.3925  161.5795 N   0  0  0  0  0  0  0  0  0  0  0  0
  154.0065  141.0844  161.3418 C   0  0  0  0  0  0  0  0  0  0  0  0
  154.7039  140.4331  162.1188 O   0  0  0  0  0  0  0  0  0  0  0  0
  154.6472  137.0447  159.2477 C   0  0  2  0  0  0  0  0  0  0  0  0
  154.5804  136.3922  160.6484 C   0  0  0  0  0  0  0  0  0  0  0  0
  154.5674  134.9772  160.5081 O   0  0  0  0  0  0  0  0  0  0  0  0
  155.7341  134.5121  159.8437 C   0  0  0  0  0  0  0  0  0  0  0  0
  155.7976  135.1489  158.4460 C   0  0  0  0  0  0  0  0  0  0  0  0
  155.8122  136.5635  158.5817 O   0  0  0  0  0  0  0  0  0  0  0  0
  154.1590  142.8190  162.4043 H   0  0  0  0  0  0  0  0  0  0  0  0
  152.9254  138.5501  160.2082 H   0  0  0  0  0  0  0  0  0  0  0  0
  152.1997  140.9703  158.4110 H   0  0  0  0  0  0  0  0  0  0  0  0
  152.8779  144.2203  161.1173 H   0  0  0  0  0  0  0  0  0  0  0  0
  153.7627  136.7676  158.6713 H   0  0  0  0  0  0  0  0  0  0  0  0
  155.4254  136.6965  161.2690 H   0  0  0  0  0  0  0  0  0  0  0  0
  153.6717  136.6931  161.1711 H   0  0  0  0  0  0  0  0  0  0  0  0
  156.6242  134.7578  160.4252 H   0  0  0  0  0  0  0  0  0  0  0  0
  155.6911  133.4258  159.7645 H   0  0  0  0  0  0  0  0  0  0  0  0
  156.7018  134.8323  157.9262 H   0  0  0  0  0  0  0  0  0  0  0  0
  154.9485  134.8366  157.8359 H   0  0  0  0  0  0  0  0  0  0  0  0
  1  2  2  0  0  0  0
  2  3  1  0  0  0  0
  2 15  1  0  0  0  0
  3  4  1  0  0  0  0
  3 22  1  0  0  0  0
  4 13  1  0  0  0  0
  4  5  2  0  0  0  0
  5  6  1  0  0  0  0
  5 23  1  0  0  0  0
  6  7  1  0  0  0  0
  6 11  2  0  0  0  0
  7  8  1  0  0  0  0
  7  9  1  0  0  0  0
  7 10  1  0  0  0  0
 11 12  1  0  0  0  0
 11 24  1  0  0  0  0
 12 21  1  0  0  0  0
 12 13  1  0  0  0  0
 13 14  2  0  0  0  0
 15 20  1  0  0  0  0
 15 16  1  0  0  0  0
 15 25  1  0  0  0  0
 16 17  1  0  0  0  0
 16 26  1  0  0  0  0
 16 27  1  0  0  0  0
 17 18  1  0  0  0  0
 18 19  1  0  0  0  0
 18 28  1  0  0  0  0
 18 29  1  0  0  0  0
 19 20  1  0  0  0  0
 19 30  1  0  0  0  0
 19 31  1  0  0  0  0
M  END
> <s_m_source_file>
AV-unprocessed.smi

> <i_m_source_file_index>
1776

> <i_lp_mmshare_version>
43012

> <i_f3d_flags>
0

> <s_epik_input>
TzFbQ0gyXVtDSDJdT1tDSDJdW0NASF0xQyg9TylbTkhdYzJbY0hdYyhDKEYpKEYpRilbY0hdW25IXWMyPU8=

> <s_epik_cmdline>
J2VwaWtfcHl0aG9uJywgJy1waCcsICc3LjAnLCAnLXRuJywgJzgnLCAnLW1hJywgJzIwMCcsICctbWV0YWxfYmluZGluZycsICctaW1hZScsICc8aW5maWxlLm1hZT4nLCAnLW9tYWUnLCAnPG91dGZpbGUubWFlPic=

> <r_lp_tautomer_probability>
0.999

> <r_epik_Ionization_Penalty>
0.0100875

> <r_epik_Ionization_Penalty_Charging>
0.0100873

> <r_epik_Ionization_Penalty_Neutral>
1.79075e-07

> <r_epik_State_Penalty>
0.00769562

> <r_epik_Charging_Adjusted_Penalty>
0.017783

> <i_epik_Tot_Q>
0

> <i_epik_Tot_abs_Q>
0

> <r_epik_Metal_State_Penalty>
0.325451

> <b_epik_Metal_Only>
0

> <s_lp_Force_Field>
OPLS_2005

> <r_lp_Energy>
23.697

> <b_lp_Chiralities_Consistent>
1

> <s_lp_Variant>
AV-unprocessed.smi:1776-1

> <Gold.Version>
5.8.1

> <Gold.Id.Protein>
6NUR|6NUR_protein|mol2

> <Gold.PLP.Fitness>
39.9089

> <Gold.PLP.PLP>
-35.4592

> <Gold.PLP.part.hbond>
-2.3532

> <Gold.PLP.part.metal>
0.0000

> <Gold.PLP.part.buried>
-4.1491

> <Gold.PLP.part.nonpolar>
-28.3629

> <Gold.PLP.part.repulsive>
0.1090

> <Gold.PLP.ligand.clash>
0.0000

> <Gold.PLP.ligand.torsion>
0.7903

> <Gold.PLP.Chemscore.Hbond>
2.0000

> <Gold.PLP.Chemscore.CHOScore>
0.0000

> <Gold.PLP.Chemscore.Metal>
0.0000

> <Gold.Chemscore.Hbonds>
donor molecule, donor type, donor heavy atom, donor atom, acceptor molecule, acceptor atom, score
      P1  H  6896  6909       L1    17  0.70
      P1  H  7997  8009       L1     1  1.00

> <Gold.PLP.Chemscore.Internal.Correction>
0.0303

> <Gold.Rescore>
     Score         DG    S(hbond)    S(metal)    S(lipo)     H(rot)  DE(clash)    DE(int)     intcor
     15.92     -16.69       1.92        0.00      62.94       1.00       0.01       0.76       ----

> <Gold.Chemscore.Fitness>
15.9155

> <Gold.Chemscore.DG>
-16.6913

> <Gold.Chemscore.ZeroCoef>
-5.4800

> <Gold.Chemscore.Hbond>
1.9183

> <Gold.Chemscore.Metal>
0.0000

> <Gold.Chemscore.Lipo>
62.9412

> <Gold.Chemscore.Internal_Hbond>
0.0000

> <Gold.Chemscore.DEClash>
0.0149

> <Gold.Chemscore.DEInternal>
0.7610

> <Gold.Chemscore.Rot>
1.0000

> <Gold.Chemscore.Internal.Correction>
   9.000000E+99

> <Gold.Chemscore.Hbonds>
donor molecule, donor type, donor heavy atom, donor atom, acceptor molecule, acceptor atom, score
      P1  H  6896  6909       L1    17  0.47
      P1  H  7997  8009       L1     1  0.98

> <Gold.Chemscore.Hbond.Weighted>
-6.4072

> <Gold.Chemscore.Metal.Weighted>
-0.0000

> <Gold.Chemscore.Lipo.Weighted>
-7.3641

> <Gold.Chemscore.Internal_Hbond.Weighted>
0.0000

> <Gold.Chemscore.DEClash.Weighted>
0.0149

> <Gold.Chemscore.DEInternal.Weighted>
0.7610

> <Gold.Chemscore.Rot.Weighted>
2.5600

> <Gold.Chemscore.Internal.Correction.Weighted>
   9.000000E+99

> <Gold.Protein.RotatedTorsions>
[ 6907 6896 6895 6894 ] final -158.37 input  -60.11 | X-H torsion
[ 7974 7965 7964 7962 ] final  -84.79 input  175.53 | X-H torsion
[ 8008 7997 7996 7995 ] final   96.04 input   59.86 | X-H torsion
[ 10167 10162 10161 10158 ] final  162.52 input  -65.29 | X-H torsion
[ 10718 10713 10712 10709 ] final -167.53 input   66.30 | X-H torsion
[ 10763 10752 10751 10750 ] final  -37.89 input  -60.55 | X-H torsion
[ 11005 11000 10999 10996 ] final  -21.61 input  -57.11 | X-H torsion

> <Gold.Protein.ActiveResidues>
 VAL166  LYS551  ARG553  GLY616  TRP617  ASP618  TYR619  PRO620  LYS621  CYS622 
 ASP623  PHE694  ASN695  SER759  ASP760  ASP761  ALA762  ILE779  LEU786  VAL792 
 PHE793  MET794  SER795  GLU796  ALA797  LYS798  CYS799  TRP800  GLU811  SER814 

> <Gold.Protein.RotatedAtoms>
  151.3172  133.4055  159.2651 H   0  0  0  0  0  0  0  0  0  0  0  0  # atno 6907 bound_to 6896
  151.0065  134.9364  159.7993 H   0  0  0  0  0  0  0  0  0  0  0  0  # atno 6908 bound_to 6896
  152.5289  134.3136  159.9175 H   0  0  0  0  0  0  0  0  0  0  0  0  # atno 6909 bound_to 6896
  145.5018  140.9546  143.1755 H   0  0  0  0  0  0  0  0  0  0  0  0  # atno 7974 bound_to 7965
  156.0753  140.3278  155.7626 H   0  0  0  0  0  0  0  0  0  0  0  0  # atno 8008 bound_to 7997
  155.5240  140.0587  157.2919 H   0  0  0  0  0  0  0  0  0  0  0  0  # atno 8009 bound_to 7997
  154.4552  140.1939  156.0418 H   0  0  0  0  0  0  0  0  0  0  0  0  # atno 8010 bound_to 7997
  139.4862  144.4429  151.8929 H   0  0  0  0  0  0  0  0  0  0  0  0  # atno 10167 bound_to 10162
  156.6837  130.9132  151.3060 H   0  0  0  0  0  0  0  0  0  0  0  0  # atno 10718 bound_to 10713
  153.9037  135.6799  153.4754 H   0  0  0  0  0  0  0  0  0  0  0  0  # atno 10763 bound_to 10752
  153.1115  135.4781  154.9041 H   0  0  0  0  0  0  0  0  0  0  0  0  # atno 10764 bound_to 10752
  154.7562  135.3198  154.8420 H   0  0  0  0  0  0  0  0  0  0  0  0  # atno 10765 bound_to 10752
  140.8578  133.7810  156.0039 H   0  0  0  0  0  0  0  0  0  0  0  0  # atno 11005 bound_to 11000
  144.7775  139.6597  143.7168 LP  0  0  0  0  0  0  0  0  0  0  0  0  # atno 17320 bound_to 7965
  146.2221  139.5654  142.9611 LP  0  0  0  0  0  0  0  0  0  0  0  0  # atno 17321 bound_to 7965
  140.3881  144.2650  150.5902 LP  0  0  0  0  0  0  0  0  0  0  0  0  # atno 17342 bound_to 10162
  140.5171  143.2275  151.8446 LP  0  0  0  0  0  0  0  0  0  0  0  0  # atno 17343 bound_to 10162
  157.7034  130.9358  150.0856 LP  0  0  0  0  0  0  0  0  0  0  0  0  # atno 17370 bound_to 10713
  156.1849  130.3652  149.8986 LP  0  0  0  0  0  0  0  0  0  0  0  0  # atno 17371 bound_to 10713
  140.8717  134.2718  157.5187 LP  0  0  0  0  0  0  0  0  0  0  0  0  # atno 17394 bound_to 11000
  139.8706  134.9571  156.4257 LP  0  0  0  0  0  0  0  0  0  0  0  0  # atno 17395 bound_to 11000

$$$$
