AV-unprocessed.smi:3249|AV-procd|sdf|12417|dock2
  -GOLD-   2272018303D 1   1.00000     0.00000
 Structure written by MMmdl.
 44 45  0  0  0  0  0  0  0  0  2 V2000
  153.3885  142.7858  163.3817 C   0  0  0  0  0  0  0  0  0  0  0  0
  153.2583  142.6443  161.8924 C   0  0  0  0  0  0  0  0  0  0  0  0
  153.7743  141.6082  161.0637 C   0  0  0  0  0  0  0  0  0  0  0  0
  153.4786  141.7772  159.7854 N   0  0  0  0  0  0  0  0  0  0  0  0
  152.7674  142.9243  159.7488 N   0  0  0  0  0  0  0  0  0  0  0  0
  152.2549  143.4162  158.4757 C   0  0  2  0  0  0  0  0  0  0  0  0
  151.8029  144.8809  158.6251 C   0  0  0  0  0  0  0  0  0  0  0  0
  151.1383  142.5027  157.9053 C   0  0  2  0  0  0  0  0  0  0  0  0
  151.3960  141.0030  158.1637 C   0  0  0  0  0  0  0  0  0  0  0  0
  150.9888  142.7477  156.4525 N   0  3  0  0  0  0  0  0  0  0  0  0
  150.3587  141.6508  155.6878 C   0  0  0  0  0  0  0  0  0  0  0  0
  148.9041  141.9920  155.3355 C   0  0  2  0  0  0  0  0  0  0  0  0
  147.9472  141.7069  156.5097 C   0  0  0  0  0  0  0  0  0  0  0  0
  146.4932  141.9594  156.0951 C   0  0  0  0  0  0  0  0  0  0  0  0
  146.1754  141.1682  154.8222 C   0  0  0  0  0  0  0  0  0  0  0  0
  147.2171  141.4691  153.7333 C   0  0  0  0  0  0  0  0  0  0  0  0
  148.5250  141.1858  154.2216 O   0  0  0  0  0  0  0  0  0  0  0  0
  152.6186  143.4674  161.0096 C   0  0  0  0  0  0  0  0  0  0  0  0
  154.1957  142.1695  163.7781 H   0  0  0  0  0  0  0  0  0  0  0  0
  152.4743  142.4866  163.8943 H   0  0  0  0  0  0  0  0  0  0  0  0
  153.5991  143.8152  163.6727 H   0  0  0  0  0  0  0  0  0  0  0  0
  154.3505  140.7413  161.3523 H   0  0  0  0  0  0  0  0  0  0  0  0
  153.0869  143.4047  157.7682 H   0  0  0  0  0  0  0  0  0  0  0  0
  151.5166  145.3126  157.6661 H   0  0  0  0  0  0  0  0  0  0  0  0
  152.6067  145.4972  159.0292 H   0  0  0  0  0  0  0  0  0  0  0  0
  150.9482  144.9700  159.2964 H   0  0  0  0  0  0  0  0  0  0  0  0
  150.2026  142.7758  158.3961 H   0  0  0  0  0  0  0  0  0  0  0  0
  151.4227  140.7741  159.2292 H   0  0  0  0  0  0  0  0  0  0  0  0
  152.3472  140.6879  157.7338 H   0  0  0  0  0  0  0  0  0  0  0  0
  150.6162  140.3758  157.7332 H   0  0  0  0  0  0  0  0  0  0  0  0
  150.4076  143.5656  156.3365 H   0  0  0  0  0  0  0  0  0  0  0  0
  150.9211  141.4461  154.7769 H   0  0  0  0  0  0  0  0  0  0  0  0
  150.3891  140.7445  156.2940 H   0  0  0  0  0  0  0  0  0  0  0  0
  148.8385  143.0469  155.0622 H   0  0  0  0  0  0  0  0  0  0  0  0
  148.0578  140.6705  156.8319 H   0  0  0  0  0  0  0  0  0  0  0  0
  148.2026  142.3295  157.3676 H   0  0  0  0  0  0  0  0  0  0  0  0
  145.8130  141.6765  156.8986 H   0  0  0  0  0  0  0  0  0  0  0  0
  146.3410  143.0243  155.9142 H   0  0  0  0  0  0  0  0  0  0  0  0
  146.1793  140.1002  155.0439 H   0  0  0  0  0  0  0  0  0  0  0  0
  145.1738  141.4101  154.4658 H   0  0  0  0  0  0  0  0  0  0  0  0
  147.0284  140.8523  152.8547 H   0  0  0  0  0  0  0  0  0  0  0  0
  147.1548  142.5096  153.4109 H   0  0  0  0  0  0  0  0  0  0  0  0
  152.0720  144.3844  161.1741 H   0  0  0  0  0  0  0  0  0  0  0  0
  151.8988  142.9460  156.0609 H   0  0  0  0  0  0  0  0  0  0  0  0
  1  2  1  0  0  0  0
  1 19  1  0  0  0  0
  1 20  1  0  0  0  0
  1 21  1  0  0  0  0
  2 18  2  0  0  0  0
  2  3  1  0  0  0  0
  3  4  2  0  0  0  0
  3 22  1  0  0  0  0
  4  5  1  0  0  0  0
  5  6  1  0  0  0  0
  5 18  1  0  0  0  0
  6  7  1  0  0  0  0
  6  8  1  0  0  0  0
  6 23  1  0  0  0  0
  7 24  1  0  0  0  0
  7 25  1  0  0  0  0
  7 26  1  0  0  0  0
  8  9  1  0  0  0  0
  8 10  1  0  0  0  0
  8 27  1  0  0  0  0
  9 28  1  0  0  0  0
  9 29  1  0  0  0  0
  9 30  1  0  0  0  0
 10 11  1  0  0  0  0
 10 31  1  0  0  0  0
 10 44  1  0  0  0  0
 11 12  1  0  0  0  0
 11 32  1  0  0  0  0
 11 33  1  0  0  0  0
 12 17  1  0  0  0  0
 12 13  1  0  0  0  0
 12 34  1  0  0  0  0
 13 14  1  0  0  0  0
 13 35  1  0  0  0  0
 13 36  1  0  0  0  0
 14 15  1  0  0  0  0
 14 37  1  0  0  0  0
 14 38  1  0  0  0  0
 15 16  1  0  0  0  0
 15 39  1  0  0  0  0
 15 40  1  0  0  0  0
 16 17  1  0  0  0  0
 16 41  1  0  0  0  0
 16 42  1  0  0  0  0
 18 43  1  0  0  0  0
M  CHG  1  10   1
M  END
> <s_m_source_file>
AV-unprocessed.smi

> <i_m_source_file_index>
3249

> <i_lp_mmshare_version>
43012

> <i_f3d_flags>
0

> <s_epik_input>
W0NIM11jMVtjSF1ubihbY0hdMSlbQ0BIXShbQ0gzXSlbQ0BIXShbQ0gzXSlbTkhdW0NIMl1bQ0BASF0yW0NIMl1bQ0gyXVtDSDJdW0NIMl1PMg==

> <s_epik_cmdline>
J2VwaWtfcHl0aG9uJywgJy1waCcsICc3LjAnLCAnLXRuJywgJzgnLCAnLW1hJywgJzIwMCcsICctbWV0YWxfYmluZGluZycsICctaW1hZScsICc8aW5maWxlLm1hZT4nLCAnLW9tYWUnLCAnPG91dGZpbGUubWFlPic=

> <r_lp_tautomer_probability>
1

> <r_epik_Ionization_Penalty>
0.00659207

> <r_epik_Ionization_Penalty_Charging>
0.00656881

> <r_epik_Ionization_Penalty_Neutral>
2.32662e-05

> <r_epik_State_Penalty>
0.0048654

> <r_epik_Charging_Adjusted_Penalty>
0.0114342

> <i_epik_Tot_Q>
1

> <i_epik_Tot_abs_Q>
1

> <r_epik_Metal_State_Penalty>
-0

> <b_epik_Metal_Only>
0

> <s_lp_Force_Field>
OPLS_2005

> <r_lp_Energy>
18.0263

> <b_lp_Chiralities_Consistent>
1

> <s_lp_Variant>
AV-unprocessed.smi:3249-1

> <Gold.Version>
5.8.1

> <Gold.Id.Protein>
6NUR|6NUR_protein|mol2

> <Gold.PLP.Fitness>
46.4281

> <Gold.PLP.PLP>
-43.1472

> <Gold.PLP.part.hbond>
-1.0000

> <Gold.PLP.part.metal>
0.0000

> <Gold.PLP.part.buried>
-4.0359

> <Gold.PLP.part.nonpolar>
-37.9827

> <Gold.PLP.part.repulsive>
0.2226

> <Gold.PLP.ligand.clash>
0.0000

> <Gold.PLP.ligand.torsion>
1.4016

> <Gold.PLP.Chemscore.Hbond>
2.0000

> <Gold.PLP.Chemscore.CHOScore>
0.0000

> <Gold.PLP.Chemscore.Metal>
0.0000

> <Gold.Chemscore.Hbonds>
donor molecule, donor type, donor heavy atom, donor atom, acceptor molecule, acceptor atom, score
      L1  H    10    31       P1  8028  2.00

> <Gold.PLP.Chemscore.Internal.Correction>
0.0841

> <Gold.Rescore>
     Score         DG    S(hbond)    S(metal)    S(lipo)     H(rot)  DE(clash)    DE(int)     intcor
     15.37     -18.29       1.00        0.00     114.48       1.53       0.11       2.81       ----

> <Gold.Chemscore.Fitness>
15.3674

> <Gold.Chemscore.DG>
-18.2894

> <Gold.Chemscore.ZeroCoef>
-5.4800

> <Gold.Chemscore.Hbond>
1.0000

> <Gold.Chemscore.Metal>
0.0000

> <Gold.Chemscore.Lipo>
114.4845

> <Gold.Chemscore.Internal_Hbond>
0.0000

> <Gold.Chemscore.DEClash>
0.1135

> <Gold.Chemscore.DEInternal>
2.8085

> <Gold.Chemscore.Rot>
1.5333

> <Gold.Chemscore.Internal.Correction>
   9.000000E+99

> <Gold.Chemscore.Hbonds>
donor molecule, donor type, donor heavy atom, donor atom, acceptor molecule, acceptor atom, score
      L1  H    10    31       P1  8028  0.94

> <Gold.Chemscore.Hbond.Weighted>
-3.3399

> <Gold.Chemscore.Metal.Weighted>
-0.0000

> <Gold.Chemscore.Lipo.Weighted>
-13.3947

> <Gold.Chemscore.Internal_Hbond.Weighted>
0.0000

> <Gold.Chemscore.DEClash.Weighted>
0.1135

> <Gold.Chemscore.DEInternal.Weighted>
2.8085

> <Gold.Chemscore.Rot.Weighted>
3.9252

> <Gold.Chemscore.Internal.Correction.Weighted>
   9.000000E+99

> <Gold.Protein.RotatedTorsions>
[ 6907 6896 6895 6894 ] final   96.64 input  -60.11 | X-H torsion
[ 7974 7965 7964 7962 ] final  151.76 input  175.53 | X-H torsion
[ 8008 7997 7996 7995 ] final -117.17 input   59.86 | X-H torsion
[ 10167 10162 10161 10158 ] final   74.70 input  -65.29 | X-H torsion
[ 10718 10713 10712 10709 ] final  -86.02 input   66.30 | X-H torsion
[ 10763 10752 10751 10750 ] final -118.10 input  -60.55 | X-H torsion
[ 11005 11000 10999 10996 ] final  143.32 input  -57.11 | X-H torsion

> <Gold.Protein.ActiveResidues>
 VAL166  LYS551  ARG553  GLY616  TRP617  ASP618  TYR619  PRO620  LYS621  CYS622 
 ASP623  PHE694  ASN695  SER759  ASP760  ASP761  ALA762  ILE779  LEU786  VAL792 
 PHE793  MET794  SER795  GLU796  ALA797  LYS798  CYS799  TRP800  GLU811  SER814 

> <Gold.Protein.RotatedAtoms>
  152.5433  134.0855  159.8253 H   0  0  0  0  0  0  0  0  0  0  0  0  # atno 6907 bound_to 6896
  151.0951  133.5278  159.2620 H   0  0  0  0  0  0  0  0  0  0  0  0  # atno 6908 bound_to 6896
  151.2054  135.0469  159.8944 H   0  0  0  0  0  0  0  0  0  0  0  0  # atno 6909 bound_to 6896
  144.8270  139.6579  143.6075 H   0  0  0  0  0  0  0  0  0  0  0  0  # atno 7974 bound_to 7965
  155.0794  140.0394  157.2634 H   0  0  0  0  0  0  0  0  0  0  0  0  # atno 8008 bound_to 7997
  154.6919  140.2655  155.6780 H   0  0  0  0  0  0  0  0  0  0  0  0  # atno 8009 bound_to 7997
  156.2731  140.2758  156.1500 H   0  0  0  0  0  0  0  0  0  0  0  0  # atno 8010 bound_to 7997
  140.0109  144.5615  150.7660 H   0  0  0  0  0  0  0  0  0  0  0  0  # atno 10167 bound_to 10162
  155.9992  130.4751  150.4651 H   0  0  0  0  0  0  0  0  0  0  0  0  # atno 10718 bound_to 10713
  154.8577  135.4286  154.2085 H   0  0  0  0  0  0  0  0  0  0  0  0  # atno 10763 bound_to 10752
  153.3116  135.6976  153.7116 H   0  0  0  0  0  0  0  0  0  0  0  0  # atno 10764 bound_to 10752
  153.6206  135.3502  155.2983 H   0  0  0  0  0  0  0  0  0  0  0  0  # atno 10765 bound_to 10752
  140.0545  134.9238  157.1076 H   0  0  0  0  0  0  0  0  0  0  0  0  # atno 11005 bound_to 11000
  146.2575  139.6334  142.9385 LP  0  0  0  0  0  0  0  0  0  0  0  0  # atno 17320 bound_to 7965
  145.4979  141.0438  143.2557 LP  0  0  0  0  0  0  0  0  0  0  0  0  # atno 17321 bound_to 7965
  140.7382  143.2775  151.3698 LP  0  0  0  0  0  0  0  0  0  0  0  0  # atno 17342 bound_to 10162
  139.6206  144.0915  152.2387 LP  0  0  0  0  0  0  0  0  0  0  0  0  # atno 17343 bound_to 10162
  157.2671  131.0579  151.2283 LP  0  0  0  0  0  0  0  0  0  0  0  0  # atno 17370 bound_to 10713
  157.3377  130.7017  149.6362 LP  0  0  0  0  0  0  0  0  0  0  0  0  # atno 17371 bound_to 10713
  140.3865  134.2230  155.7168 LP  0  0  0  0  0  0  0  0  0  0  0  0  # atno 17394 bound_to 11000
  141.1946  133.8125  157.0752 LP  0  0  0  0  0  0  0  0  0  0  0  0  # atno 17395 bound_to 11000

$$$$
