AV-unprocessed.smi:1612|AV-procd|sdf|6476|dock9
  -GOLD-   22720 7133D 1   1.00000     0.00000
 Structure written by MMmdl.
 37 38  0  0  0  0  0  0  0  0  1 V2000
  150.1871  133.7818  155.4334 C   0  0  0  0  0  0  0  0  0  0  0  0
  149.3750  135.0784  155.2740 C   0  0  2  0  0  0  0  0  0  0  0  0
  148.6123  134.9793  154.0295 N   0  0  0  0  0  0  0  0  0  0  0  0
  147.6551  134.0724  153.7814 C   0  0  0  0  0  0  0  0  0  0  0  0
  147.3285  133.1959  154.5826 O   0  0  0  0  0  0  0  0  0  0  0  0
  147.1141  134.2566  152.5642 N   0  0  0  0  0  0  0  0  0  0  0  0
  146.0837  133.5052  151.9387 C   0  0  0  0  0  0  0  0  0  0  0  0
  146.1481  132.1093  152.1510 C   0  0  0  0  0  0  0  0  0  0  0  0
  145.1710  131.2749  151.5745 C   0  0  0  0  0  0  0  0  0  0  0  0
  144.1532  131.8583  150.7990 C   0  0  0  0  0  0  0  0  0  0  0  0
  144.1620  133.2559  150.6370 C   0  0  0  0  0  0  0  0  0  0  0  0
  145.0969  134.0577  151.1895 N   0  0  0  0  0  0  0  0  0  0  0  0
  150.3688  136.2596  155.2090 C   0  0  0  0  0  0  0  0  0  0  0  0
  151.5708  136.0442  155.3783 O   0  0  0  0  0  0  0  0  0  0  0  0
  149.8953  137.5045  154.9863 N   0  0  0  0  0  0  0  0  0  0  0  0
  150.7549  138.6836  154.8944 C   0  0  0  0  0  0  0  0  0  0  0  0
  149.8604  139.8114  154.3808 C   0  0  0  0  0  0  0  0  0  0  0  0
  148.4622  139.4060  154.8245 C   0  0  0  0  0  0  0  0  0  0  0  0
  148.4927  137.8775  154.8034 C   0  0  0  0  0  0  0  0  0  0  0  0
  150.7723  133.7896  156.3536 H   0  0  0  0  0  0  0  0  0  0  0  0
  150.8774  133.6290  154.6021 H   0  0  0  0  0  0  0  0  0  0  0  0
  149.5285  132.9139  155.4776 H   0  0  0  0  0  0  0  0  0  0  0  0
  148.6771  135.1786  156.1057 H   0  0  0  0  0  0  0  0  0  0  0  0
  148.8130  135.6679  153.3193 H   0  0  0  0  0  0  0  0  0  0  0  0
  147.4810  135.0248  152.0221 H   0  0  0  0  0  0  0  0  0  0  0  0
  146.9374  131.6773  152.7492 H   0  0  0  0  0  0  0  0  0  0  0  0
  145.2028  130.2059  151.7247 H   0  0  0  0  0  0  0  0  0  0  0  0
  143.3861  131.2517  150.3408 H   0  0  0  0  0  0  0  0  0  0  0  0
  143.3980  133.7433  150.0495 H   0  0  0  0  0  0  0  0  0  0  0  0
  151.1386  138.9207  155.8878 H   0  0  0  0  0  0  0  0  0  0  0  0
  151.6064  138.5215  154.2314 H   0  0  0  0  0  0  0  0  0  0  0  0
  150.1576  140.7914  154.7553 H   0  0  0  0  0  0  0  0  0  0  0  0
  149.9019  139.8431  153.2912 H   0  0  0  0  0  0  0  0  0  0  0  0
  148.2881  139.7548  155.8433 H   0  0  0  0  0  0  0  0  0  0  0  0
  147.6787  139.8222  154.1907 H   0  0  0  0  0  0  0  0  0  0  0  0
  148.1487  137.5049  153.8372 H   0  0  0  0  0  0  0  0  0  0  0  0
  147.8485  137.4636  155.5804 H   0  0  0  0  0  0  0  0  0  0  0  0
  1  2  1  0  0  0  0
  1 20  1  0  0  0  0
  1 21  1  0  0  0  0
  1 22  1  0  0  0  0
  2  3  1  0  0  0  0
  2 13  1  0  0  0  0
  2 23  1  0  0  0  0
  3  4  1  0  0  0  0
  3 24  1  0  0  0  0
  4  5  2  0  0  0  0
  4  6  1  0  0  0  0
  6  7  1  0  0  0  0
  6 25  1  0  0  0  0
  7 12  1  0  0  0  0
  7  8  2  0  0  0  0
  8  9  1  0  0  0  0
  8 26  1  0  0  0  0
  9 10  2  0  0  0  0
  9 27  1  0  0  0  0
 10 11  1  0  0  0  0
 10 28  1  0  0  0  0
 11 12  2  0  0  0  0
 11 29  1  0  0  0  0
 13 14  2  0  0  0  0
 13 15  1  0  0  0  0
 15 19  1  0  0  0  0
 15 16  1  0  0  0  0
 16 17  1  0  0  0  0
 16 30  1  0  0  0  0
 16 31  1  0  0  0  0
 17 18  1  0  0  0  0
 17 32  1  0  0  0  0
 17 33  1  0  0  0  0
 18 19  1  0  0  0  0
 18 34  1  0  0  0  0
 18 35  1  0  0  0  0
 19 36  1  0  0  0  0
 19 37  1  0  0  0  0
M  END
> <s_m_source_file>
AV-unprocessed.smi

> <i_m_source_file_index>
1612

> <i_lp_mmshare_version>
43012

> <i_f3d_flags>
0

> <s_epik_input>
W0NIMl0xW0NIMl1bQ0gyXVtDSDJdTjFDKD1PKVtDQEhdKFtDSDNdKVtOSF1DKD1PKVtOSF1jMltjSF1bY0hdW2NIXVtjSF1uMg==

> <s_epik_cmdline>
J2VwaWtfcHl0aG9uJywgJy1waCcsICc3LjAnLCAnLXRuJywgJzgnLCAnLW1hJywgJzIwMCcsICctbWV0YWxfYmluZGluZycsICctaW1hZScsICc8aW5maWxlLm1hZT4nLCAnLW9tYWUnLCAnPG91dGZpbGUubWFlPic=

> <r_lp_tautomer_probability>
1

> <r_epik_Ionization_Penalty>
3.95281e-05

> <r_epik_Ionization_Penalty_Charging>
0

> <r_epik_Ionization_Penalty_Neutral>
3.95281e-05

> <r_epik_State_Penalty>
-0

> <r_epik_Charging_Adjusted_Penalty>
0

> <i_epik_Tot_Q>
0

> <i_epik_Tot_abs_Q>
0

> <r_epik_Metal_State_Penalty>
-0

> <b_epik_Metal_Only>
0

> <s_lp_Force_Field>
OPLS_2005

> <r_lp_Energy>
30.1614

> <b_lp_Chiralities_Consistent>
1

> <s_lp_Variant>
AV-unprocessed.smi:1612-1

> <Gold.Version>
5.8.1

> <Gold.Id.Protein>
6NUR|6NUR_protein|mol2

> <Gold.PLP.Fitness>
40.2996

> <Gold.PLP.PLP>
-29.3193

> <Gold.PLP.part.hbond>
-2.8949

> <Gold.PLP.part.metal>
0.0000

> <Gold.PLP.part.buried>
-3.4052

> <Gold.PLP.part.nonpolar>
-22.6021

> <Gold.PLP.part.repulsive>
0.2593

> <Gold.PLP.ligand.clash>
0.0000

> <Gold.PLP.ligand.torsion>
0.3351

> <Gold.PLP.Chemscore.Hbond>
2.8800

> <Gold.PLP.Chemscore.CHOScore>
1.0000

> <Gold.PLP.Chemscore.Metal>
0.0000

> <Gold.Chemscore.Hbonds>
donor molecule, donor type, donor heavy atom, donor atom, acceptor molecule, acceptor atom, score
      L1  H     3    24       P1  7948  1.00
      L1  H     6    25       P1  7948  0.88
      P1  H 10752 10765       L1    14  1.00
      L1  C    11    29       P1 10186  0.99

> <Gold.PLP.Chemscore.Internal.Correction>
0.0105

> <Gold.Rescore>
     Score         DG    S(hbond)    S(metal)    S(lipo)     H(rot)  DE(clash)    DE(int)     intcor
     17.54     -18.58       2.82        0.00      60.06       1.30       0.02       1.02       ----

> <Gold.Chemscore.Fitness>
17.5410

> <Gold.Chemscore.DG>
-18.5842

> <Gold.Chemscore.ZeroCoef>
-5.4800

> <Gold.Chemscore.Hbond>
2.8173

> <Gold.Chemscore.Metal>
0.0000

> <Gold.Chemscore.Lipo>
60.0552

> <Gold.Chemscore.Internal_Hbond>
0.0000

> <Gold.Chemscore.DEClash>
0.0189

> <Gold.Chemscore.DEInternal>
1.0244

> <Gold.Chemscore.Rot>
1.3016

> <Gold.Chemscore.Internal.Correction>
   9.000000E+99

> <Gold.Chemscore.Hbonds>
donor molecule, donor type, donor heavy atom, donor atom, acceptor molecule, acceptor atom, score
      L1  H     3    24       P1  7948  0.89
      L1  H     6    25       P1  7948  0.80
      P1  H 10752 10765       L1    14  0.99

> <Gold.Chemscore.Hbond.Weighted>
-9.4099

> <Gold.Chemscore.Metal.Weighted>
-0.0000

> <Gold.Chemscore.Lipo.Weighted>
-7.0265

> <Gold.Chemscore.Internal_Hbond.Weighted>
0.0000

> <Gold.Chemscore.DEClash.Weighted>
0.0189

> <Gold.Chemscore.DEInternal.Weighted>
1.0244

> <Gold.Chemscore.Rot.Weighted>
3.3322

> <Gold.Chemscore.Internal.Correction.Weighted>
   9.000000E+99

> <Gold.Protein.RotatedTorsions>
[ 6907 6896 6895 6894 ] final  -40.78 input  -60.11 | X-H torsion
[ 7974 7965 7964 7962 ] final -155.76 input  175.53 | X-H torsion
[ 8008 7997 7996 7995 ] final   48.06 input   59.86 | X-H torsion
[ 10167 10162 10161 10158 ] final  -17.48 input  -65.29 | X-H torsion
[ 10718 10713 10712 10709 ] final  142.70 input   66.30 | X-H torsion
[ 10763 10752 10751 10750 ] final -172.71 input  -60.55 | X-H torsion
[ 11005 11000 10999 10996 ] final   -9.59 input  -57.11 | X-H torsion

> <Gold.Protein.ActiveResidues>
 VAL166  LYS551  ARG553  GLY616  TRP617  ASP618  TYR619  PRO620  LYS621  CYS622 
 ASP623  PHE694  ASN695  SER759  ASP760  ASP761  ALA762  ILE779  LEU786  VAL792 
 PHE793  MET794  SER795  GLU796  ALA797  LYS798  CYS799  TRP800  GLU811  SER814 

> <Gold.Protein.RotatedAtoms>
  150.9744  134.9111  159.7806 H   0  0  0  0  0  0  0  0  0  0  0  0  # atno 6907 bound_to 6896
  152.5201  134.3497  159.9256 H   0  0  0  0  0  0  0  0  0  0  0  0  # atno 6908 bound_to 6896
  151.3505  133.3886  159.2714 H   0  0  0  0  0  0  0  0  0  0  0  0  # atno 6909 bound_to 6896
  144.7625  140.4204  143.5966 H   0  0  0  0  0  0  0  0  0  0  0  0  # atno 7974 bound_to 7965
  155.3793  140.3428  155.4246 H   0  0  0  0  0  0  0  0  0  0  0  0  # atno 8008 bound_to 7997
  156.1619  140.1603  156.8631 H   0  0  0  0  0  0  0  0  0  0  0  0  # atno 8009 bound_to 7997
  154.5148  140.0781  156.8041 H   0  0  0  0  0  0  0  0  0  0  0  0  # atno 8010 bound_to 7997
  140.7247  143.5012  150.9867 H   0  0  0  0  0  0  0  0  0  0  0  0  # atno 10167 bound_to 10162
  157.3775  131.0987  151.0770 H   0  0  0  0  0  0  0  0  0  0  0  0  # atno 10718 bound_to 10713
  154.6162  135.2870  155.0377 H   0  0  0  0  0  0  0  0  0  0  0  0  # atno 10763 bound_to 10752
  154.1589  135.6491  153.4985 H   0  0  0  0  0  0  0  0  0  0  0  0  # atno 10764 bound_to 10752
  153.0216  135.5373  154.6934 H   0  0  0  0  0  0  0  0  0  0  0  0  # atno 10765 bound_to 10752
  140.7357  133.8712  155.8928 H   0  0  0  0  0  0  0  0  0  0  0  0  # atno 11005 bound_to 11000
  145.6575  139.1575  143.2827 LP  0  0  0  0  0  0  0  0  0  0  0  0  # atno 17320 bound_to 7965
  146.1701  140.6658  142.9237 LP  0  0  0  0  0  0  0  0  0  0  0  0  # atno 17321 bound_to 7965
  139.8721  143.7179  152.3165 LP  0  0  0  0  0  0  0  0  0  0  0  0  # atno 17342 bound_to 10162
  139.7431  144.7554  151.0621 LP  0  0  0  0  0  0  0  0  0  0  0  0  # atno 17343 bound_to 10162
  157.1852  130.6327  149.5685 LP  0  0  0  0  0  0  0  0  0  0  0  0  # atno 17370 bound_to 10713
  155.9768  130.4740  150.6554 LP  0  0  0  0  0  0  0  0  0  0  0  0  # atno 17371 bound_to 10713
  140.9881  134.1315  157.4433 LP  0  0  0  0  0  0  0  0  0  0  0  0  # atno 17394 bound_to 11000
  139.8816  135.0032  156.6172 LP  0  0  0  0  0  0  0  0  0  0  0  0  # atno 17395 bound_to 11000

$$$$
