AV-unprocessed.smi:196|AV-procd|sdf|1533|dock6
  -GOLD-   2262019383D 1   1.00000     0.00000
 Structure written by MMmdl.
 47 50  0  0  0  0  0  0  0  0  1 V2000
  157.7409  137.1926  154.1657 C   0  0  0  0  0  0  0  0  0  0  0  0
  157.6978  136.0492  153.1387 C   0  0  1  0  0  0  0  0  0  0  0  0
  156.3497  135.6702  152.8628 O   0  0  0  0  0  0  0  0  0  0  0  0
  156.0857  135.7800  151.4714 C   0  0  0  0  0  0  0  0  0  0  0  0
  157.4465  135.5928  150.8134 C   0  0  0  0  0  0  0  0  0  0  0  0
  158.3795  136.3146  151.7756 C   0  0  1  0  0  0  0  0  0  0  0  0
  158.3606  137.6981  151.4600 O   0  0  0  0  0  0  0  0  0  0  0  0
  159.8440  135.8188  151.7235 C   0  0  0  0  0  0  0  0  0  0  0  0
  159.9645  134.4080  151.3904 N   0  0  0  0  0  0  0  0  0  0  0  0
  159.7917  133.8357  150.1496 C   0  0  0  0  0  0  0  0  0  0  0  0
  159.9578  132.5417  150.1044 N   0  0  0  0  0  0  0  0  0  0  0  0
  160.2615  132.1963  151.4148 C   0  0  0  0  0  0  0  0  0  0  0  0
  160.5567  130.9721  152.0693 C   0  0  0  0  0  0  0  0  0  0  0  0
  160.5972  129.7940  151.4043 N   0  0  0  0  0  0  0  0  0  0  0  0
  160.9916  128.6403  152.2100 C   0  0  0  0  0  0  0  0  0  0  0  0
  162.2836  128.1228  151.5872 C   0  0  1  0  0  0  0  0  0  0  0  0
  162.4762  126.8222  151.8046 F   0  0  0  0  0  0  0  0  0  0  0  0
  162.0856  128.4478  150.1145 C   0  0  0  0  0  0  0  0  0  0  0  0
  161.3728  129.8100  150.1534 C   0  0  1  0  0  0  0  0  0  0  0  0
  160.5295  130.0440  148.8867 C   0  0  0  0  0  0  0  0  0  0  0  0
  161.1182  129.9422  147.6909 N   0  0  0  0  0  0  0  0  0  0  0  0
  159.3350  130.3129  148.9932 O   0  0  0  0  0  0  0  0  0  0  0  0
  160.8033  131.0081  153.4059 N   0  0  0  0  0  0  0  0  0  0  0  0
  160.7686  132.1737  154.0593 C   0  0  0  0  0  0  0  0  0  0  0  0
  160.5137  133.3930  153.5789 N   0  0  0  0  0  0  0  0  0  0  0  0
  160.2629  133.3559  152.2386 C   0  0  0  0  0  0  0  0  0  0  0  0
  163.1447  128.6622  151.9842 H   0  0  0  0  0  0  0  0  0  0  0  0
  162.1324  130.5938  150.1914 H   0  0  0  0  0  0  0  0  0  0  0  0
  158.7681  137.4905  154.3774 H   0  0  0  0  0  0  0  0  0  0  0  0
  157.2851  136.8828  155.1062 H   0  0  0  0  0  0  0  0  0  0  0  0
  157.1983  138.0706  153.8145 H   0  0  0  0  0  0  0  0  0  0  0  0
  158.1557  135.1706  153.5949 H   0  0  0  0  0  0  0  0  0  0  0  0
  155.3531  135.0427  151.1432 H   0  0  0  0  0  0  0  0  0  0  0  0
  155.6887  136.7741  151.2605 H   0  0  0  0  0  0  0  0  0  0  0  0
  157.6854  134.5287  150.7841 H   0  0  0  0  0  0  0  0  0  0  0  0
  157.4848  135.9737  149.7918 H   0  0  0  0  0  0  0  0  0  0  0  0
  157.9029  137.8139  150.6413 H   0  0  0  0  0  0  0  0  0  0  0  0
  160.4146  136.3981  150.9964 H   0  0  0  0  0  0  0  0  0  0  0  0
  160.3303  135.9767  152.6870 H   0  0  0  0  0  0  0  0  0  0  0  0
  159.5414  134.4132  149.2714 H   0  0  0  0  0  0  0  0  0  0  0  0
  161.1151  128.8589  153.2724 H   0  0  0  0  0  0  0  0  0  0  0  0
  160.2022  127.8924  152.1252 H   0  0  0  0  0  0  0  0  0  0  0  0
  163.0259  128.4792  149.5634 H   0  0  0  0  0  0  0  0  0  0  0  0
  161.4507  127.6886  149.6534 H   0  0  0  0  0  0  0  0  0  0  0  0
  160.5791  130.0962  146.8506 H   0  0  0  0  0  0  0  0  0  0  0  0
  162.1002  129.7150  147.6322 H   0  0  0  0  0  0  0  0  0  0  0  0
  160.9752  132.1223  155.1183 H   0  0  0  0  0  0  0  0  0  0  0  0
  1  2  1  0  0  0  0
  1 29  1  0  0  0  0
  1 30  1  0  0  0  0
  1 31  1  0  0  0  0
  2  6  1  0  0  0  0
  2  3  1  0  0  0  0
  2 32  1  0  0  0  0
  3  4  1  0  0  0  0
  4  5  1  0  0  0  0
  4 33  1  0  0  0  0
  4 34  1  0  0  0  0
  5  6  1  0  0  0  0
  5 35  1  0  0  0  0
  5 36  1  0  0  0  0
  6  7  1  0  0  0  0
  6  8  1  0  0  0  0
  7 37  1  0  0  0  0
  8  9  1  0  0  0  0
  8 38  1  0  0  0  0
  8 39  1  0  0  0  0
  9 26  1  0  0  0  0
  9 10  1  0  0  0  0
 10 11  2  0  0  0  0
 10 40  1  0  0  0  0
 11 12  1  0  0  0  0
 12 26  2  0  0  0  0
 12 13  1  0  0  0  0
 13 14  1  0  0  0  0
 13 23  2  0  0  0  0
 14 19  1  0  0  0  0
 14 15  1  0  0  0  0
 15 16  1  0  0  0  0
 15 41  1  0  0  0  0
 15 42  1  0  0  0  0
 16 27  1  0  0  0  0
 16 17  1  0  0  0  0
 16 18  1  0  0  0  0
 18 19  1  0  0  0  0
 18 43  1  0  0  0  0
 18 44  1  0  0  0  0
 19 28  1  0  0  0  0
 19 20  1  0  0  0  0
 20 21  1  0  0  0  0
 20 22  2  0  0  0  0
 21 45  1  0  0  0  0
 21 46  1  0  0  0  0
 23 24  1  0  0  0  0
 24 25  2  0  0  0  0
 24 47  1  0  0  0  0
 25 26  1  0  0  0  0
M  END
> <s_m_source_file>
AV-unprocessed.smi

> <i_m_source_file_index>
196

> <i_lp_mmshare_version>
43012

> <i_f3d_flags>
0

> <s_epik_input>
W0NIMl0xW0NIMl1PW0NAQEhdKFtDSDNdKVtDQEBdMShbT0hdKVtDSDJdbihbY0hdbjIpYyhjMjMpbltjSF1uYzNONFtDSDJdW0NASF0oRilbQ0gyXVtDQEhdNEMoPU8pW05IMl0=

> <s_epik_cmdline>
J2VwaWtfcHl0aG9uJywgJy1waCcsICc3LjAnLCAnLXRuJywgJzgnLCAnLW1hJywgJzIwMCcsICctbWV0YWxfYmluZGluZycsICctaW1hZScsICc8aW5maWxlLm1hZT4nLCAnLW9tYWUnLCAnPG91dGZpbGUubWFlPic=

> <r_lp_tautomer_probability>
1

> <r_epik_Ionization_Penalty>
0.000857933

> <r_epik_Ionization_Penalty_Charging>
0

> <r_epik_Ionization_Penalty_Neutral>
0.000857933

> <r_epik_State_Penalty>
0.000462053

> <r_epik_Charging_Adjusted_Penalty>
0.000462053

> <i_epik_Tot_Q>
0

> <i_epik_Tot_abs_Q>
0

> <r_epik_Metal_State_Penalty>
-0

> <b_epik_Metal_Only>
0

> <s_lp_Force_Field>
OPLS_2005

> <r_lp_Energy>
45.9197

> <b_lp_Chiralities_Consistent>
1

> <s_lp_Variant>
AV-unprocessed.smi:196-6

> <Gold.Version>
5.8.1

> <Gold.Id.Protein>
6NUR|6NUR_protein|mol2

> <Gold.PLP.Fitness>
40.3271

> <Gold.PLP.PLP>
-33.6443

> <Gold.PLP.part.hbond>
-5.3186

> <Gold.PLP.part.metal>
0.0000

> <Gold.PLP.part.buried>
-1.0415

> <Gold.PLP.part.nonpolar>
-27.7466

> <Gold.PLP.part.repulsive>
0.3330

> <Gold.PLP.ligand.clash>
0.0000

> <Gold.PLP.ligand.torsion>
0.8800

> <Gold.PLP.Chemscore.Hbond>
2.7840

> <Gold.PLP.Chemscore.CHOScore>
0.0000

> <Gold.PLP.Chemscore.Metal>
0.0000

> <Gold.Chemscore.Hbonds>
donor molecule, donor type, donor heavy atom, donor atom, acceptor molecule, acceptor atom, score
      L1  H     7    37       P1 10674  0.93
      P1  H 10713 10718       L1    22  0.48
      P1  H 10752 10764       L1     3  1.00

> <Gold.PLP.Chemscore.Internal.Correction>
0.0909

> <Gold.Rescore>
     Score         DG    S(hbond)    S(metal)    S(lipo)     H(rot)  DE(clash)    DE(int)     intcor
     10.82     -17.05       2.79        0.00      85.72       3.04       2.70       3.53       ----

> <Gold.Chemscore.Fitness>
10.8208

> <Gold.Chemscore.DG>
-17.0537

> <Gold.Chemscore.ZeroCoef>
-5.4800

> <Gold.Chemscore.Hbond>
2.7934

> <Gold.Chemscore.Metal>
0.0000

> <Gold.Chemscore.Lipo>
85.7223

> <Gold.Chemscore.Internal_Hbond>
0.0000

> <Gold.Chemscore.DEClash>
2.6994

> <Gold.Chemscore.DEInternal>
3.5335

> <Gold.Chemscore.Rot>
3.0413

> <Gold.Chemscore.Internal.Correction>
   9.000000E+99

> <Gold.Chemscore.Hbonds>
donor molecule, donor type, donor heavy atom, donor atom, acceptor molecule, acceptor atom, score
      L1  H     7    37       P1 10674  0.88
      P1  H 10713 10718       L1    22  0.47
      P1  H 10752 10764       L1     3  0.85

> <Gold.Chemscore.Hbond.Weighted>
-9.3298

> <Gold.Chemscore.Metal.Weighted>
-0.0000

> <Gold.Chemscore.Lipo.Weighted>
-10.0295

> <Gold.Chemscore.Internal_Hbond.Weighted>
0.0000

> <Gold.Chemscore.DEClash.Weighted>
2.6994

> <Gold.Chemscore.DEInternal.Weighted>
3.5335

> <Gold.Chemscore.Rot.Weighted>
7.7856

> <Gold.Chemscore.Internal.Correction.Weighted>
   9.000000E+99

> <Gold.Protein.RotatedTorsions>
[ 6907 6896 6895 6894 ] final  160.15 input  -60.11 | X-H torsion
[ 7974 7965 7964 7962 ] final  166.53 input  175.53 | X-H torsion
[ 8008 7997 7996 7995 ] final   61.35 input   59.86 | X-H torsion
[ 10167 10162 10161 10158 ] final -135.61 input  -65.29 | X-H torsion
[ 10718 10713 10712 10709 ] final   90.11 input   66.30 | X-H torsion
[ 10763 10752 10751 10750 ] final  141.03 input  -60.55 | X-H torsion
[ 11005 11000 10999 10996 ] final  175.05 input  -57.11 | X-H torsion

> <Gold.Protein.ActiveResidues>
 VAL166  LYS551  ARG553  GLY616  TRP617  ASP618  TYR619  PRO620  LYS621  CYS622 
 ASP623  PHE694  ASN695  SER759  ASP760  ASP761  ALA762  ILE779  LEU786  VAL792 
 PHE793  MET794  SER795  GLU796  ALA797  LYS798  CYS799  TRP800  GLU811  SER814 

> <Gold.Protein.RotatedAtoms>
  151.9749  133.3738  159.4084 H   0  0  0  0  0  0  0  0  0  0  0  0  # atno 6907 bound_to 6896
  150.6943  134.4101  159.5167 H   0  0  0  0  0  0  0  0  0  0  0  0  # atno 6908 bound_to 6896
  152.1810  134.8753  160.0577 H   0  0  0  0  0  0  0  0  0  0  0  0  # atno 6909 bound_to 6896
  144.7459  139.8629  143.6382 H   0  0  0  0  0  0  0  0  0  0  0  0  # atno 7974 bound_to 7965
  155.5970  140.3493  155.4582 H   0  0  0  0  0  0  0  0  0  0  0  0  # atno 8008 bound_to 7997
  156.0258  140.1263  157.0335 H   0  0  0  0  0  0  0  0  0  0  0  0  # atno 8009 bound_to 7997
  154.4332  140.1053  156.6014 H   0  0  0  0  0  0  0  0  0  0  0  0  # atno 8010 bound_to 7997
  139.8761  143.6897  152.2633 H   0  0  0  0  0  0  0  0  0  0  0  0  # atno 10167 bound_to 10162
  157.6958  131.0358  150.3527 H   0  0  0  0  0  0  0  0  0  0  0  0  # atno 10718 bound_to 10713
  153.9325  135.2988  155.3445 H   0  0  0  0  0  0  0  0  0  0  0  0  # atno 10763 bound_to 10752
  154.7519  135.4976  153.9307 H   0  0  0  0  0  0  0  0  0  0  0  0  # atno 10764 bound_to 10752
  153.1084  135.6753  153.9650 H   0  0  0  0  0  0  0  0  0  0  0  0  # atno 10765 bound_to 10752
  140.3580  134.7138  157.4312 H   0  0  0  0  0  0  0  0  0  0  0  0  # atno 11005 bound_to 11000
  146.1335  139.4376  143.0153 LP  0  0  0  0  0  0  0  0  0  0  0  0  # atno 17320 bound_to 7965
  145.7127  141.0101  143.1445 LP  0  0  0  0  0  0  0  0  0  0  0  0  # atno 17321 bound_to 7965
  139.7239  144.7597  151.0911 LP  0  0  0  0  0  0  0  0  0  0  0  0  # atno 17342 bound_to 10162
  140.7752  143.5173  150.9579 LP  0  0  0  0  0  0  0  0  0  0  0  0  # atno 17343 bound_to 10162
  156.3974  130.3909  149.6985 LP  0  0  0  0  0  0  0  0  0  0  0  0  # atno 17370 bound_to 10713
  156.4314  130.7817  151.2837 LP  0  0  0  0  0  0  0  0  0  0  0  0  # atno 17371 bound_to 10713
  140.0650  134.5943  155.8706 LP  0  0  0  0  0  0  0  0  0  0  0  0  # atno 17394 bound_to 11000
  141.1992  133.6606  156.5835 LP  0  0  0  0  0  0  0  0  0  0  0  0  # atno 17395 bound_to 11000

$$$$
