AV-unprocessed.smi:1213|AV-procd|sdf|5089|dock2
  -GOLD-   22720 4143D 1   1.00000     0.00000
 Structure written by MMmdl.
 36 37  0  0  0  0  0  0  0  0  3 V2000
  146.9083  139.6514  151.0599 N   0  5  0  0  0  0  0  0  0  0  0  0
  146.2119  139.5339  152.2066 C   0  0  0  0  0  0  0  0  0  0  0  0
  145.1111  139.0118  152.3714 O   0  0  0  0  0  0  0  0  0  0  0  0
  146.9561  140.1262  153.4084 C   0  0  0  0  0  0  0  0  0  0  0  0
  148.0158  139.1937  153.8675 N   0  3  2  0  0  0  0  0  0  0  0  0
  147.5901  138.3921  155.0424 C   0  0  0  0  0  0  0  0  0  0  0  0
  148.6448  137.3315  155.4035 C   0  0  0  0  0  0  0  0  0  0  0  0
  150.0330  137.9562  155.6464 C   0  0  2  0  0  0  0  0  0  0  0  0
  150.0732  138.7315  156.8862 N   0  0  0  0  0  0  0  0  0  0  0  0
  151.1223  139.4459  157.3194 C   0  0  0  0  0  0  0  0  0  0  0  0
  152.1911  139.5163  156.7124 O   0  0  0  0  0  0  0  0  0  0  0  0
  150.8470  140.0579  158.4845 N   0  0  0  0  0  0  0  0  0  0  0  0
  151.6963  140.8906  159.2597 C   0  0  0  0  0  0  0  0  0  0  0  0
  151.4188  142.1591  159.5827 N   0  0  0  0  0  0  0  0  0  0  0  0
  152.4318  142.7378  160.3518 C   0  0  0  0  0  0  0  0  0  0  0  0
  153.4806  141.8895  160.6057 C   0  0  0  0  0  0  0  0  0  0  0  0
  153.2375  140.3214  159.8836 S   0  0  0  0  0  0  0  0  0  0  0  0
  150.4202  138.8386  154.4472 C   0  0  0  0  0  0  0  0  0  0  0  0
  149.3233  139.8630  154.1046 C   0  0  0  0  0  0  0  0  0  0  0  0
  147.9268  139.7728  151.1061 H   0  0  0  0  0  0  0  0  0  0  0  0
  147.3809  141.1110  153.2021 H   0  0  0  0  0  0  0  0  0  0  0  0
  146.2161  140.2664  154.1975 H   0  0  0  0  0  0  0  0  0  0  0  0
  147.4079  139.0537  155.8908 H   0  0  0  0  0  0  0  0  0  0  0  0
  146.6459  137.8923  154.8234 H   0  0  0  0  0  0  0  0  0  0  0  0
  148.3194  136.7617  156.2743 H   0  0  0  0  0  0  0  0  0  0  0  0
  148.7169  136.6125  154.5864 H   0  0  0  0  0  0  0  0  0  0  0  0
  150.7704  137.1554  155.7282 H   0  0  0  0  0  0  0  0  0  0  0  0
  149.2346  138.7344  157.4484 H   0  0  0  0  0  0  0  0  0  0  0  0
  149.9220  139.9135  158.8613 H   0  0  0  0  0  0  0  0  0  0  0  0
  152.3236  143.7619  160.6775 H   0  0  0  0  0  0  0  0  0  0  0  0
  154.3780  142.0919  161.1712 H   0  0  0  0  0  0  0  0  0  0  0  0
  151.3640  139.3498  154.6418 H   0  0  0  0  0  0  0  0  0  0  0  0
  150.5945  138.2035  153.5778 H   0  0  0  0  0  0  0  0  0  0  0  0
  149.6277  140.4212  153.2188 H   0  0  0  0  0  0  0  0  0  0  0  0
  149.2193  140.5909  154.9105 H   0  0  0  0  0  0  0  0  0  0  0  0
  148.1523  138.5400  153.1095 H   0  0  0  0  0  0  0  0  0  0  0  0
  1  2  1  0  0  0  0
  1 20  1  0  0  0  0
  2  3  2  0  0  0  0
  2  4  1  0  0  0  0
  4  5  1  0  0  0  0
  4 21  1  0  0  0  0
  4 22  1  0  0  0  0
  5 19  1  0  0  0  0
  5  6  1  0  0  0  0
  5 36  1  0  0  0  0
  6  7  1  0  0  0  0
  6 23  1  0  0  0  0
  6 24  1  0  0  0  0
  7  8  1  0  0  0  0
  7 25  1  0  0  0  0
  7 26  1  0  0  0  0
  8  9  1  0  0  0  0
  8 18  1  0  0  0  0
  8 27  1  0  0  0  0
  9 10  1  0  0  0  0
  9 28  1  0  0  0  0
 10 11  2  0  0  0  0
 10 12  1  0  0  0  0
 12 13  1  0  0  0  0
 12 29  1  0  0  0  0
 13 17  1  0  0  0  0
 13 14  2  0  0  0  0
 14 15  1  0  0  0  0
 15 16  2  0  0  0  0
 15 30  1  0  0  0  0
 16 17  1  0  0  0  0
 16 31  1  0  0  0  0
 18 19  1  0  0  0  0
 18 32  1  0  0  0  0
 18 33  1  0  0  0  0
 19 34  1  0  0  0  0
 19 35  1  0  0  0  0
M  CHG  1   1  -1
M  CHG  1   5   1
M  END
> <s_m_source_file>
AV-unprocessed.smi

> <i_m_source_file_index>
1213

> <i_lp_mmshare_version>
43012

> <i_f3d_flags>
0

> <s_epik_input>
W05IMl1DKD1PKVtDSDJdTjFbQ0gyXVtDSDJdW0NIXShbQ0gyXVtDSDJdMSlbTkhdQyg9TylbTkhdYzJuW2NIXVtjSF1zMg==

> <s_epik_cmdline>
J2VwaWtfcHl0aG9uJywgJy1waCcsICc3LjAnLCAnLXRuJywgJzgnLCAnLW1hJywgJzIwMCcsICctbWV0YWxfYmluZGluZycsICctaW1hZScsICc8aW5maWxlLm1hZT4nLCAnLW9tYWUnLCAnPG91dGZpbGUubWFlPic=

> <r_lp_tautomer_probability>
0.999

> <r_epik_Ionization_Penalty>
5.73166

> <r_epik_Ionization_Penalty_Charging>
5.73152

> <r_epik_Ionization_Penalty_Neutral>
0.000139308

> <r_epik_State_Penalty>
6.57436

> <r_epik_Charging_Adjusted_Penalty>
12.3059

> <i_epik_Tot_Q>
0

> <i_epik_Tot_abs_Q>
2

> <r_epik_Metal_State_Penalty>
2.57084

> <b_epik_Metal_Only>
1

> <s_lp_Force_Field>
OPLS_2005

> <r_lp_Energy>
6.02298

> <b_lp_Chiralities_Consistent>
1

> <s_lp_Variant>
AV-unprocessed.smi:1213-6

> <Gold.Version>
5.8.1

> <Gold.Id.Protein>
6NUR|6NUR_protein|mol2

> <Gold.PLP.Fitness>
42.4036

> <Gold.PLP.PLP>
-33.2469

> <Gold.PLP.part.hbond>
-5.3024

> <Gold.PLP.part.metal>
0.0000

> <Gold.PLP.part.buried>
-3.3456

> <Gold.PLP.part.nonpolar>
-24.2350

> <Gold.PLP.part.repulsive>
0.3933

> <Gold.PLP.ligand.clash>
0.0000

> <Gold.PLP.ligand.torsion>
1.4325

> <Gold.PLP.Chemscore.Hbond>
4.0000

> <Gold.PLP.Chemscore.CHOScore>
0.0000

> <Gold.PLP.Chemscore.Metal>
0.0000

> <Gold.Chemscore.Hbonds>
donor molecule, donor type, donor heavy atom, donor atom, acceptor molecule, acceptor atom, score
      L1  H     1    20       P1  7957  1.00
      P1  H  7997  8008       L1    11  0.42

> <Gold.PLP.Chemscore.Internal.Correction>
0.0218

> <Gold.Rescore>
     Score         DG    S(hbond)    S(metal)    S(lipo)     H(rot)  DE(clash)    DE(int)     intcor
     15.40     -17.16       2.92        0.00      61.18       2.04       0.18       1.58       ----

> <Gold.Chemscore.Fitness>
15.4043

> <Gold.Chemscore.DG>
-17.1646

> <Gold.Chemscore.ZeroCoef>
-5.4800

> <Gold.Chemscore.Hbond>
2.9152

> <Gold.Chemscore.Metal>
0.0000

> <Gold.Chemscore.Lipo>
61.1759

> <Gold.Chemscore.Internal_Hbond>
0.0000

> <Gold.Chemscore.DEClash>
0.1765

> <Gold.Chemscore.DEInternal>
1.5838

> <Gold.Chemscore.Rot>
2.0350

> <Gold.Chemscore.Internal.Correction>
   9.000000E+99

> <Gold.Chemscore.Hbonds>
donor molecule, donor type, donor heavy atom, donor atom, acceptor molecule, acceptor atom, score
      L1  H     1    20       P1  7957  0.92
      P1  H  7997  8008       L1    11  0.41

> <Gold.Chemscore.Hbond.Weighted>
-9.7367

> <Gold.Chemscore.Metal.Weighted>
-0.0000

> <Gold.Chemscore.Lipo.Weighted>
-7.1576

> <Gold.Chemscore.Internal_Hbond.Weighted>
0.0000

> <Gold.Chemscore.DEClash.Weighted>
0.1765

> <Gold.Chemscore.DEInternal.Weighted>
1.5838

> <Gold.Chemscore.Rot.Weighted>
5.2096

> <Gold.Chemscore.Internal.Correction.Weighted>
   9.000000E+99

> <Gold.Protein.RotatedTorsions>
[ 6907 6896 6895 6894 ] final  155.73 input  -60.11 | X-H torsion
[ 7974 7965 7964 7962 ] final  -11.40 input  175.53 | X-H torsion
[ 8008 7997 7996 7995 ] final  -62.43 input   59.86 | X-H torsion
[ 10167 10162 10161 10158 ] final   59.62 input  -65.29 | X-H torsion
[ 10718 10713 10712 10709 ] final  -90.52 input   66.30 | X-H torsion
[ 10763 10752 10751 10750 ] final  108.93 input  -60.55 | X-H torsion
[ 11005 11000 10999 10996 ] final -139.96 input  -57.11 | X-H torsion

> <Gold.Protein.ActiveResidues>
 VAL166  LYS551  ARG553  GLY616  TRP617  ASP618  TYR619  PRO620  LYS621  CYS622 
 ASP623  PHE694  ASN695  SER759  ASP760  ASP761  ALA762  ILE779  LEU786  VAL792 
 PHE793  MET794  SER795  GLU796  ALA797  LYS798  CYS799  TRP800  GLU811  SER814 

> <Gold.Protein.RotatedAtoms>
  152.0400  133.3973  159.4332 H   0  0  0  0  0  0  0  0  0  0  0  0  # atno 6907 bound_to 6896
  150.6876  134.3426  159.4883 H   0  0  0  0  0  0  0  0  0  0  0  0  # atno 6908 bound_to 6896
  152.1223  134.9196  160.0613 H   0  0  0  0  0  0  0  0  0  0  0  0  # atno 6909 bound_to 6896
  146.2189  140.2905  142.8368 H   0  0  0  0  0  0  0  0  0  0  0  0  # atno 7974 bound_to 7965
  154.4499  140.0996  156.6586 H   0  0  0  0  0  0  0  0  0  0  0  0  # atno 8008 bound_to 7997
  155.5318  140.3481  155.4409 H   0  0  0  0  0  0  0  0  0  0  0  0  # atno 8009 bound_to 7997
  156.0659  140.1337  156.9876 H   0  0  0  0  0  0  0  0  0  0  0  0  # atno 8010 bound_to 7997
  140.1745  144.4244  150.6645 H   0  0  0  0  0  0  0  0  0  0  0  0  # atno 10167 bound_to 10162
  155.9988  130.4913  150.5335 H   0  0  0  0  0  0  0  0  0  0  0  0  # atno 10718 bound_to 10713
  153.4276  135.3796  155.2150 H   0  0  0  0  0  0  0  0  0  0  0  0  # atno 10763 bound_to 10752
  154.8748  135.3832  154.4307 H   0  0  0  0  0  0  0  0  0  0  0  0  # atno 10764 bound_to 10752
  153.4835  135.7088  153.5987 H   0  0  0  0  0  0  0  0  0  0  0  0  # atno 10765 bound_to 10752
  140.8469  134.2333  157.4781 H   0  0  0  0  0  0  0  0  0  0  0  0  # atno 11005 bound_to 11000
  144.9130  140.7780  143.5795 LP  0  0  0  0  0  0  0  0  0  0  0  0  # atno 17320 bound_to 7965
  145.2837  139.1909  143.4777 LP  0  0  0  0  0  0  0  0  0  0  0  0  # atno 17321 bound_to 7965
  140.6560  143.2238  151.5967 LP  0  0  0  0  0  0  0  0  0  0  0  0  # atno 17342 bound_to 10162
  139.5323  144.2880  152.1175 LP  0  0  0  0  0  0  0  0  0  0  0  0  # atno 17343 bound_to 10162
  157.3281  131.0694  151.1882 LP  0  0  0  0  0  0  0  0  0  0  0  0  # atno 17370 bound_to 10713
  157.2772  130.6732  149.6048 LP  0  0  0  0  0  0  0  0  0  0  0  0  # atno 17371 bound_to 10713
  139.8703  134.9664  156.4561 LP  0  0  0  0  0  0  0  0  0  0  0  0  # atno 17394 bound_to 11000
  140.8833  133.7902  155.9490 LP  0  0  0  0  0  0  0  0  0  0  0  0  # atno 17395 bound_to 11000

$$$$
