AV-unprocessed.smi:2875|AV-procd|sdf|11041|dock3
  -GOLD-   2272015503D 1   1.00000     0.00000
 Structure written by MMmdl.
 39 39  0  0  0  0  0  0  0  0  2 V2000
  147.5867  141.9038  154.1732 C   0  0  0  0  0  0  0  0  0  0  0  0
  148.4827  140.8104  154.7708 C   0  0  0  0  0  0  0  0  0  0  0  0
  148.3936  139.4489  154.0496 C   0  0  0  0  0  0  0  0  0  0  0  0
  149.2831  138.4240  154.6447 N   0  0  0  0  0  0  0  0  0  0  0  0
  148.7447  137.1704  155.0466 C   0  0  0  0  0  0  0  0  0  0  0  0
  147.3857  136.9358  154.8934 N   0  0  0  0  0  0  0  0  0  0  0  0
  149.5563  136.2230  155.5893 C   0  0  0  0  0  0  0  0  0  0  0  0
  149.0763  134.9495  155.9578 N   0  0  0  0  0  0  0  0  0  0  0  0
  148.4538  134.1330  154.9017 C   0  0  0  0  0  0  0  0  0  0  0  0
  149.4909  133.5887  153.9061 C   0  0  0  0  0  0  0  0  0  0  0  0
  148.8849  132.5970  153.0947 O   0  0  0  0  0  0  0  0  0  0  0  0
  147.7447  133.0778  152.4067 C   0  0  0  0  0  0  0  0  0  0  0  0
  149.1250  134.5020  157.2405 C   0  0  0  0  0  0  0  0  0  0  0  0
  148.6711  133.0723  157.5612 C   0  0  0  0  0  0  0  0  0  0  0  0
  149.5529  135.1918  158.1671 O   0  0  0  0  0  0  0  0  0  0  0  0
  150.9915  136.5093  155.7179 C   0  0  0  0  0  0  0  0  0  0  0  0
  151.7567  135.6568  156.1699 O   0  0  0  0  0  0  0  0  0  0  0  0
  151.4308  137.7324  155.3213 N   0  5  0  0  0  0  0  0  0  0  0  0
  150.6179  138.6896  154.7911 C   0  0  0  0  0  0  0  0  0  0  0  0
  151.0568  139.7853  154.4382 O   0  0  0  0  0  0  0  0  0  0  0  0
  147.6599  142.8231  154.7542 H   0  0  0  0  0  0  0  0  0  0  0  0
  146.5409  141.5969  154.1673 H   0  0  0  0  0  0  0  0  0  0  0  0
  147.8759  142.1398  153.1489 H   0  0  0  0  0  0  0  0  0  0  0  0
  149.5157  141.1596  154.7757 H   0  0  0  0  0  0  0  0  0  0  0  0
  148.2123  140.6688  155.8175 H   0  0  0  0  0  0  0  0  0  0  0  0
  147.3597  139.1005  154.0790 H   0  0  0  0  0  0  0  0  0  0  0  0
  148.5747  139.5895  152.9850 H   0  0  0  0  0  0  0  0  0  0  0  0
  146.7652  137.6306  154.5039 H   0  0  0  0  0  0  0  0  0  0  0  0
  146.9583  136.0759  155.2060 H   0  0  0  0  0  0  0  0  0  0  0  0
  147.9050  133.3037  155.3512 H   0  0  0  0  0  0  0  0  0  0  0  0
  147.7061  134.7087  154.3543 H   0  0  0  0  0  0  0  0  0  0  0  0
  149.9014  134.3934  153.2943 H   0  0  0  0  0  0  0  0  0  0  0  0
  150.3225  133.1420  154.4527 H   0  0  0  0  0  0  0  0  0  0  0  0
  147.3244  132.2805  151.7939 H   0  0  0  0  0  0  0  0  0  0  0  0
  148.0020  133.9099  151.7500 H   0  0  0  0  0  0  0  0  0  0  0  0
  146.9742  133.4066  153.1052 H   0  0  0  0  0  0  0  0  0  0  0  0
  149.1276  132.3514  156.8821 H   0  0  0  0  0  0  0  0  0  0  0  0
  147.5871  132.9844  157.4905 H   0  0  0  0  0  0  0  0  0  0  0  0
  148.9603  132.7981  158.5760 H   0  0  0  0  0  0  0  0  0  0  0  0
  1  2  1  0  0  0  0
  1 21  1  0  0  0  0
  1 22  1  0  0  0  0
  1 23  1  0  0  0  0
  2  3  1  0  0  0  0
  2 24  1  0  0  0  0
  2 25  1  0  0  0  0
  3  4  1  0  0  0  0
  3 26  1  0  0  0  0
  3 27  1  0  0  0  0
  4 19  1  0  0  0  0
  4  5  1  0  0  0  0
  5  6  1  0  0  0  0
  5  7  2  0  0  0  0
  6 28  1  0  0  0  0
  6 29  1  0  0  0  0
  7  8  1  0  0  0  0
  7 16  1  0  0  0  0
  8  9  1  0  0  0  0
  8 13  1  0  0  0  0
  9 10  1  0  0  0  0
  9 30  1  0  0  0  0
  9 31  1  0  0  0  0
 10 11  1  0  0  0  0
 10 32  1  0  0  0  0
 10 33  1  0  0  0  0
 11 12  1  0  0  0  0
 12 34  1  0  0  0  0
 12 35  1  0  0  0  0
 12 36  1  0  0  0  0
 13 14  1  0  0  0  0
 13 15  2  0  0  0  0
 14 37  1  0  0  0  0
 14 38  1  0  0  0  0
 14 39  1  0  0  0  0
 16 17  2  0  0  0  0
 16 18  1  0  0  0  0
 18 19  1  0  0  0  0
 19 20  2  0  0  0  0
M  CHG  1  18  -1
M  END
> <s_m_source_file>
AV-unprocessed.smi

> <i_m_source_file_index>
2875

> <i_lp_mmshare_version>
43012

> <i_f3d_flags>
0

> <s_epik_input>
W0NIM11bQ0gyXVtDSDJdbjFjKFtOSDJdKWMoYyg9TylbbkhdYzE9TylOKEMoPU8pW0NIM10pW0NIMl1bQ0gyXU9bQ0gzXQ==

> <s_epik_cmdline>
J2VwaWtfcHl0aG9uJywgJy1waCcsICc3LjAnLCAnLXRuJywgJzgnLCAnLW1hJywgJzIwMCcsICctbWV0YWxfYmluZGluZycsICctaW1hZScsICc8aW5maWxlLm1hZT4nLCAnLW9tYWUnLCAnPG91dGZpbGUubWFlPic=

> <r_lp_tautomer_probability>
1

> <r_epik_Ionization_Penalty>
7.11914

> <r_epik_Ionization_Penalty_Charging>
0.302695

> <r_epik_Ionization_Penalty_Neutral>
6.81644

> <r_epik_State_Penalty>
6.81644

> <r_epik_Charging_Adjusted_Penalty>
7.11913

> <i_epik_Tot_Q>
-1

> <i_epik_Tot_abs_Q>
1

> <r_epik_Metal_State_Penalty>
2.72963

> <b_epik_Metal_Only>
1

> <s_epik_Chemistry_Notes>
This compound has an imine and may undergo hydrolysis.

> <s_lp_Force_Field>
OPLS_2005

> <r_lp_Energy>
36.1064

> <b_lp_Chiralities_Consistent>
1

> <s_lp_Variant>
AV-unprocessed.smi:2875-2

> <Gold.Version>
5.8.1

> <Gold.Id.Protein>
6NUR|6NUR_protein|mol2

> <Gold.PLP.Fitness>
35.7798

> <Gold.PLP.PLP>
-27.2081

> <Gold.PLP.part.hbond>
-3.0000

> <Gold.PLP.part.metal>
0.0000

> <Gold.PLP.part.buried>
-4.4884

> <Gold.PLP.part.nonpolar>
-20.6077

> <Gold.PLP.part.repulsive>
0.3503

> <Gold.PLP.ligand.clash>
0.0186

> <Gold.PLP.ligand.torsion>
1.3590

> <Gold.PLP.Chemscore.Hbond>
2.9913

> <Gold.PLP.Chemscore.CHOScore>
0.0000

> <Gold.PLP.Chemscore.Metal>
0.0000

> <Gold.Chemscore.Hbonds>
donor molecule, donor type, donor heavy atom, donor atom, acceptor molecule, acceptor atom, score
      P1  H  6896  6908       L1    15  1.00
      P1  H  7989  7998       L1    20  1.00
      P1  H 10752 10765       L1    17  1.00

> <Gold.PLP.Chemscore.Internal.Correction>
2.3345

> <Gold.Rescore>
     Score         DG    S(hbond)    S(metal)    S(lipo)     H(rot)  DE(clash)    DE(int)     intcor
     12.69     -14.32       2.94        0.00      36.35       2.04       0.00       1.63       ----

> <Gold.Chemscore.Fitness>
12.6924

> <Gold.Chemscore.DG>
-14.3245

> <Gold.Chemscore.ZeroCoef>
-5.4800

> <Gold.Chemscore.Hbond>
2.9390

> <Gold.Chemscore.Metal>
0.0000

> <Gold.Chemscore.Lipo>
36.3490

> <Gold.Chemscore.Internal_Hbond>
0.0000

> <Gold.Chemscore.DEClash>
0.0000

> <Gold.Chemscore.DEInternal>
1.6321

> <Gold.Chemscore.Rot>
2.0409

> <Gold.Chemscore.Internal.Correction>
   9.000000E+99

> <Gold.Chemscore.Hbonds>
donor molecule, donor type, donor heavy atom, donor atom, acceptor molecule, acceptor atom, score
      P1  H  6896  6908       L1    15  0.94
      P1  H  7989  7998       L1    20  0.94
      P1  H 10752 10765       L1    17  0.60

> <Gold.Chemscore.Hbond.Weighted>
-9.8163

> <Gold.Chemscore.Metal.Weighted>
-0.0000

> <Gold.Chemscore.Lipo.Weighted>
-4.2528

> <Gold.Chemscore.Internal_Hbond.Weighted>
0.0000

> <Gold.Chemscore.DEClash.Weighted>
0.0000

> <Gold.Chemscore.DEInternal.Weighted>
1.6321

> <Gold.Chemscore.Rot.Weighted>
5.2246

> <Gold.Chemscore.Internal.Correction.Weighted>
   9.000000E+99

> <Gold.Protein.RotatedTorsions>
[ 6907 6896 6895 6894 ] final  177.06 input  -60.11 | X-H torsion
[ 7974 7965 7964 7962 ] final   25.40 input  175.53 | X-H torsion
[ 8008 7997 7996 7995 ] final  -39.51 input   59.86 | X-H torsion
[ 10167 10162 10161 10158 ] final   73.45 input  -65.29 | X-H torsion
[ 10718 10713 10712 10709 ] final -138.91 input   66.30 | X-H torsion
[ 10763 10752 10751 10750 ] final -154.56 input  -60.55 | X-H torsion
[ 11005 11000 10999 10996 ] final  106.60 input  -57.11 | X-H torsion

> <Gold.Protein.ActiveResidues>
 VAL166  LYS551  ARG553  GLY616  TRP617  ASP618  TYR619  PRO620  LYS621  CYS622 
 ASP623  PHE694  ASN695  SER759  ASP760  ASP761  ALA762  ILE779  LEU786  VAL792 
 PHE793  MET794  SER795  GLU796  ALA797  LYS798  CYS799  TRP800  GLU811  SER814 

> <Gold.Protein.RotatedAtoms>
  151.7100  133.3312  159.3288 H   0  0  0  0  0  0  0  0  0  0  0  0  # atno 6907 bound_to 6896
  150.7698  134.6540  159.6313 H   0  0  0  0  0  0  0  0  0  0  0  0  # atno 6908 bound_to 6896
  152.3717  134.6727  160.0225 H   0  0  0  0  0  0  0  0  0  0  0  0  # atno 6909 bound_to 6896
  146.1891  139.7472  142.8845 H   0  0  0  0  0  0  0  0  0  0  0  0  # atno 7974 bound_to 7965
  154.4022  140.1549  156.2875 H   0  0  0  0  0  0  0  0  0  0  0  0  # atno 8008 bound_to 7997
  155.8815  140.3443  155.5869 H   0  0  0  0  0  0  0  0  0  0  0  0  # atno 8009 bound_to 7997
  155.7662  140.0824  157.2121 H   0  0  0  0  0  0  0  0  0  0  0  0  # atno 8010 bound_to 7997
  140.0244  144.5515  150.7556 H   0  0  0  0  0  0  0  0  0  0  0  0  # atno 10167 bound_to 10162
  156.3048  130.7449  151.1509 H   0  0  0  0  0  0  0  0  0  0  0  0  # atno 10718 bound_to 10713
  154.7850  135.3187  154.7907 H   0  0  0  0  0  0  0  0  0  0  0  0  # atno 10763 bound_to 10752
  153.8609  135.6853  153.4787 H   0  0  0  0  0  0  0  0  0  0  0  0  # atno 10764 bound_to 10752
  153.1498  135.4704  154.9559 H   0  0  0  0  0  0  0  0  0  0  0  0  # atno 10765 bound_to 10752
  139.8816  134.9374  156.5691 H   0  0  0  0  0  0  0  0  0  0  0  0  # atno 11005 bound_to 11000
  145.3849  141.0364  143.3156 LP  0  0  0  0  0  0  0  0  0  0  0  0  # atno 17320 bound_to 7965
  144.8452  139.5409  143.6882 LP  0  0  0  0  0  0  0  0  0  0  0  0  # atno 17321 bound_to 7965
  140.7329  143.2711  151.3887 LP  0  0  0  0  0  0  0  0  0  0  0  0  # atno 17342 bound_to 10162
  139.6118  144.1083  152.2306 LP  0  0  0  0  0  0  0  0  0  0  0  0  # atno 17343 bound_to 10162
  157.7377  131.0549  150.5341 LP  0  0  0  0  0  0  0  0  0  0  0  0  # atno 17370 bound_to 10713
  156.5473  130.4223  149.6125 LP  0  0  0  0  0  0  0  0  0  0  0  0  # atno 17371 bound_to 10713
  140.8112  133.8427  155.8812 LP  0  0  0  0  0  0  0  0  0  0  0  0  # atno 17394 bound_to 11000
  140.9504  134.1786  157.4732 LP  0  0  0  0  0  0  0  0  0  0  0  0  # atno 17395 bound_to 11000

$$$$
