AV-unprocessed.smi:40|AV-procd|sdf|373|dock7
  -GOLD-   2262016223D 1   1.00000     0.00000
 Structure written by MMmdl.
 47 48  0  0  0  0  0  0  0  0  1 V2000
  152.2072  144.1203  160.9462 C   0  0  0  0  0  0  0  0  0  0  0  0
  153.0931  143.0844  160.2415 C   0  0  0  0  0  0  0  0  0  0  0  0
  152.4867  141.6720  160.2034 C   0  0  0  0  0  0  0  0  0  0  0  0
  153.4786  140.5847  159.7522 C   0  0  0  0  0  0  0  0  0  0  0  0
  152.9018  139.1654  159.8444 C   0  0  0  0  0  0  0  0  0  0  0  0
  151.9422  138.9893  158.8152 O   0  0  0  0  0  0  0  0  0  0  0  0
  151.3580  137.7945  158.6072 C   0  0  0  0  0  0  0  0  0  0  0  0
  151.1503  136.9588  159.4864 O   0  0  0  0  0  0  0  0  0  0  0  0
  151.0428  137.6166  157.2038 N   0  0  0  0  0  0  0  0  0  0  0  0
  150.4532  136.5363  156.6461 C   0  0  0  0  0  0  0  0  0  0  0  0
  150.4834  135.4079  157.3291 N   0  0  0  0  0  0  0  0  0  0  0  0
  149.9440  134.2330  156.8783 C   0  0  0  0  0  0  0  0  0  0  0  0
  150.0370  133.2040  157.5457 O   0  0  0  0  0  0  0  0  0  0  0  0
  149.2870  134.2481  155.6236 N   0  0  0  0  0  0  0  0  0  0  0  0
  148.7182  132.9386  155.1021 C   0  0  2  0  0  0  0  0  0  0  0  0
  148.4301  133.0493  153.7406 O   0  0  0  0  0  0  0  0  0  0  0  0
  147.0638  133.4010  153.5736 C   0  0  1  0  0  0  0  0  0  0  0  0
  146.6022  133.0576  152.1531 C   0  0  0  0  0  0  0  0  0  0  0  0
  146.3617  132.6048  154.6729 C   0  0  2  0  0  0  0  0  0  0  0  0
  145.1821  133.2702  155.0777 O   0  0  0  0  0  0  0  0  0  0  0  0
  147.3885  132.5756  155.8054 C   0  0  1  0  0  0  0  0  0  0  0  0
  147.4405  131.2851  156.3793 O   0  0  0  0  0  0  0  0  0  0  0  0
  149.2549  135.4271  154.8882 C   0  0  0  0  0  0  0  0  0  0  0  0
  149.8009  136.5725  155.3493 C   0  0  0  0  0  0  0  0  0  0  0  0
  149.7263  137.7000  154.6205 F   0  0  0  0  0  0  0  0  0  0  0  0
  149.5205  132.2132  155.2518 H   0  0  0  0  0  0  0  0  0  0  0  0
  146.9479  134.4709  153.7534 H   0  0  0  0  0  0  0  0  0  0  0  0
  146.1301  131.5975  154.3223 H   0  0  0  0  0  0  0  0  0  0  0  0
  147.1551  133.3120  156.5762 H   0  0  0  0  0  0  0  0  0  0  0  0
  152.7115  145.0853  160.9997 H   0  0  0  0  0  0  0  0  0  0  0  0
  151.9747  143.8113  161.9655 H   0  0  0  0  0  0  0  0  0  0  0  0
  151.2668  144.2719  160.4171 H   0  0  0  0  0  0  0  0  0  0  0  0
  153.3175  143.4186  159.2279 H   0  0  0  0  0  0  0  0  0  0  0  0
  154.0500  143.0383  160.7622 H   0  0  0  0  0  0  0  0  0  0  0  0
  152.1269  141.4322  161.2047 H   0  0  0  0  0  0  0  0  0  0  0  0
  151.6078  141.6645  159.5577 H   0  0  0  0  0  0  0  0  0  0  0  0
  153.7780  140.7685  158.7208 H   0  0  0  0  0  0  0  0  0  0  0  0
  154.3883  140.6430  160.3508 H   0  0  0  0  0  0  0  0  0  0  0  0
  153.6900  138.4184  159.7452 H   0  0  0  0  0  0  0  0  0  0  0  0
  152.4410  139.0282  160.8238 H   0  0  0  0  0  0  0  0  0  0  0  0
  151.2192  138.4221  156.6215 H   0  0  0  0  0  0  0  0  0  0  0  0
  145.5462  133.2925  152.0178 H   0  0  0  0  0  0  0  0  0  0  0  0
  146.7405  131.9980  151.9373 H   0  0  0  0  0  0  0  0  0  0  0  0
  147.1676  133.6244  151.4133 H   0  0  0  0  0  0  0  0  0  0  0  0
  144.4422  132.7143  154.8871 H   0  0  0  0  0  0  0  0  0  0  0  0
  146.8824  131.2726  157.1417 H   0  0  0  0  0  0  0  0  0  0  0  0
  148.7901  135.4662  153.9153 H   0  0  0  0  0  0  0  0  0  0  0  0
  1  2  1  0  0  0  0
  1 30  1  0  0  0  0
  1 31  1  0  0  0  0
  1 32  1  0  0  0  0
  2  3  1  0  0  0  0
  2 33  1  0  0  0  0
  2 34  1  0  0  0  0
  3  4  1  0  0  0  0
  3 35  1  0  0  0  0
  3 36  1  0  0  0  0
  4  5  1  0  0  0  0
  4 37  1  0  0  0  0
  4 38  1  0  0  0  0
  5  6  1  0  0  0  0
  5 39  1  0  0  0  0
  5 40  1  0  0  0  0
  6  7  1  0  0  0  0
  7  8  2  0  0  0  0
  7  9  1  0  0  0  0
  9 10  1  0  0  0  0
  9 41  1  0  0  0  0
 10 24  1  0  0  0  0
 10 11  2  0  0  0  0
 11 12  1  0  0  0  0
 12 13  2  0  0  0  0
 12 14  1  0  0  0  0
 14 15  1  0  0  0  0
 14 23  1  0  0  0  0
 15 26  1  0  0  0  0
 15 21  1  0  0  0  0
 15 16  1  0  0  0  0
 16 17  1  0  0  0  0
 17 27  1  0  0  0  0
 17 18  1  0  0  0  0
 17 19  1  0  0  0  0
 18 42  1  0  0  0  0
 18 43  1  0  0  0  0
 18 44  1  0  0  0  0
 19 28  1  0  0  0  0
 19 20  1  0  0  0  0
 19 21  1  0  0  0  0
 20 45  1  0  0  0  0
 21 29  1  0  0  0  0
 21 22  1  0  0  0  0
 22 46  1  0  0  0  0
 23 24  2  0  0  0  0
 23 47  1  0  0  0  0
 24 25  1  0  0  0  0
M  END
> <s_m_source_file>
AV-unprocessed.smi

> <i_m_source_file_index>
40

> <i_lp_mmshare_version>
43012

> <i_f3d_flags>
0

> <s_epik_input>
W0NIM11bQ0gyXVtDSDJdW0NIMl1bQ0gyXU9DKD1PKVtOSF1jMW5jKD1PKW4oW2NIXWMxRilbQ0BASF0yT1tDQEhdKFtDSDNdKVtDQEBIXShbT0hdKVtDQEhdMltPSF0=

> <s_epik_cmdline>
J2VwaWtfcHl0aG9uJywgJy1waCcsICc3LjAnLCAnLXRuJywgJzgnLCAnLW1hJywgJzIwMCcsICctbWV0YWxfYmluZGluZycsICctaW1hZScsICc8aW5maWxlLm1hZT4nLCAnLW9tYWUnLCAnPG91dGZpbGUubWFlPic=

> <r_lp_tautomer_probability>
1

> <r_epik_Ionization_Penalty>
2.29506e-06

> <r_epik_Ionization_Penalty_Charging>
8.26867e-09

> <r_epik_Ionization_Penalty_Neutral>
2.2868e-06

> <r_epik_State_Penalty>
-0

> <r_epik_Charging_Adjusted_Penalty>
8.26867e-09

> <i_epik_Tot_Q>
0

> <i_epik_Tot_abs_Q>
0

> <r_epik_Metal_State_Penalty>
-0

> <b_epik_Metal_Only>
0

> <s_epik_Chemistry_Notes>
This compound has an ester and may undergo hydrolysis at high or low pH. This compound contains an acetal/aminal-like group ( X-CH(R)-Y where X, Y are N, S, or O) that may be acid/base labile, releasing an aldehyde.

> <s_lp_Force_Field>
OPLS_2005

> <r_lp_Energy>
31.7957

> <b_lp_Chiralities_Consistent>
1

> <s_lp_Variant>
AV-unprocessed.smi:40-7

> <Gold.Version>
5.8.1

> <Gold.Id.Protein>
6NUR|6NUR_protein|mol2

> <Gold.PLP.Fitness>
42.4957

> <Gold.PLP.PLP>
-32.7865

> <Gold.PLP.part.hbond>
-3.8918

> <Gold.PLP.part.metal>
0.0000

> <Gold.PLP.part.buried>
-4.7481

> <Gold.PLP.part.nonpolar>
-25.4089

> <Gold.PLP.part.repulsive>
0.1967

> <Gold.PLP.ligand.clash>
0.0000

> <Gold.PLP.ligand.torsion>
0.8981

> <Gold.PLP.Chemscore.Hbond>
2.8125

> <Gold.PLP.Chemscore.CHOScore>
1.0000

> <Gold.PLP.Chemscore.Metal>
0.0000

> <Gold.Chemscore.Hbonds>
donor molecule, donor type, donor heavy atom, donor atom, acceptor molecule, acceptor atom, score
      L1  H    20    45       P1 10957  1.00
      P1  H  6896  6907       L1     8  1.00
      P1  H  6896  6909       L1    13  1.00
      L1  C    23    47       P1  7948  1.00

> <Gold.PLP.Chemscore.Internal.Correction>
0.0678

> <Gold.Rescore>
     Score         DG    S(hbond)    S(metal)    S(lipo)     H(rot)  DE(clash)    DE(int)     intcor
     11.11     -13.32       2.72        0.00      70.22       3.70       0.02       2.19       ----

> <Gold.Chemscore.Fitness>
11.1076

> <Gold.Chemscore.DG>
-13.3200

> <Gold.Chemscore.ZeroCoef>
-5.4800

> <Gold.Chemscore.Hbond>
2.7201

> <Gold.Chemscore.Metal>
0.0000

> <Gold.Chemscore.Lipo>
70.2223

> <Gold.Chemscore.Internal_Hbond>
0.0000

> <Gold.Chemscore.DEClash>
0.0228

> <Gold.Chemscore.DEInternal>
2.1896

> <Gold.Chemscore.Rot>
3.6957

> <Gold.Chemscore.Internal.Correction>
   9.000000E+99

> <Gold.Chemscore.Hbonds>
donor molecule, donor type, donor heavy atom, donor atom, acceptor molecule, acceptor atom, score
      L1  H    20    45       P1 10957  0.95
      P1  H  6896  6907       L1     8  1.00
      P1  H  6896  6909       L1    13  0.60

> <Gold.Chemscore.Hbond.Weighted>
-9.0850

> <Gold.Chemscore.Metal.Weighted>
-0.0000

> <Gold.Chemscore.Lipo.Weighted>
-8.2160

> <Gold.Chemscore.Internal_Hbond.Weighted>
0.0000

> <Gold.Chemscore.DEClash.Weighted>
0.0228

> <Gold.Chemscore.DEInternal.Weighted>
2.1896

> <Gold.Chemscore.Rot.Weighted>
9.4610

> <Gold.Chemscore.Internal.Correction.Weighted>
   9.000000E+99

> <Gold.Protein.RotatedTorsions>
[ 6907 6896 6895 6894 ] final   -6.44 input  -60.11 | X-H torsion
[ 7974 7965 7964 7962 ] final  -50.64 input  175.53 | X-H torsion
[ 8008 7997 7996 7995 ] final  -62.07 input   59.86 | X-H torsion
[ 10167 10162 10161 10158 ] final   58.31 input  -65.29 | X-H torsion
[ 10718 10713 10712 10709 ] final    9.44 input   66.30 | X-H torsion
[ 10763 10752 10751 10750 ] final  -98.73 input  -60.55 | X-H torsion
[ 11005 11000 10999 10996 ] final  120.39 input  -57.11 | X-H torsion

> <Gold.Protein.ActiveResidues>
 VAL166  LYS551  ARG553  GLY616  TRP617  ASP618  TYR619  PRO620  LYS621  CYS622 
 ASP623  PHE694  ASN695  SER759  ASP760  ASP761  ALA762  ILE779  LEU786  VAL792 
 PHE793  MET794  SER795  GLU796  ALA797  LYS798  CYS799  TRP800  GLU811  SER814 

> <Gold.Protein.RotatedAtoms>
  151.4655  135.1042  159.9736 H   0  0  0  0  0  0  0  0  0  0  0  0  # atno 6907 bound_to 6896
  152.4836  133.8313  159.7115 H   0  0  0  0  0  0  0  0  0  0  0  0  # atno 6908 bound_to 6896
  150.8928  133.7160  159.2927 H   0  0  0  0  0  0  0  0  0  0  0  0  # atno 6909 bound_to 6896
  145.9276  140.7778  142.9615 H   0  0  0  0  0  0  0  0  0  0  0  0  # atno 7974 bound_to 7965
  154.4480  140.1004  156.6530 H   0  0  0  0  0  0  0  0  0  0  0  0  # atno 8008 bound_to 7997
  155.5376  140.3483  155.4421 H   0  0  0  0  0  0  0  0  0  0  0  0  # atno 8009 bound_to 7997
  156.0620  140.1328  156.9919 H   0  0  0  0  0  0  0  0  0  0  0  0  # atno 8010 bound_to 7997
  140.1886  144.4109  150.6581 H   0  0  0  0  0  0  0  0  0  0  0  0  # atno 10167 bound_to 10162
  156.9664  130.5952  149.5665 H   0  0  0  0  0  0  0  0  0  0  0  0  # atno 10718 bound_to 10713
  154.7439  135.4998  153.9170 H   0  0  0  0  0  0  0  0  0  0  0  0  # atno 10763 bound_to 10752
  153.1071  135.6700  153.9575 H   0  0  0  0  0  0  0  0  0  0  0  0  # atno 10764 bound_to 10752
  153.9344  135.3074  155.3424 H   0  0  0  0  0  0  0  0  0  0  0  0  # atno 10765 bound_to 10752
  139.9183  134.9634  156.7800 H   0  0  0  0  0  0  0  0  0  0  0  0  # atno 11005 bound_to 11000
  144.6760  140.2076  143.7380 LP  0  0  0  0  0  0  0  0  0  0  0  0  # atno 17320 bound_to 7965
  145.8468  139.2156  143.1795 LP  0  0  0  0  0  0  0  0  0  0  0  0  # atno 17321 bound_to 7965
  140.6471  143.2216  151.6161 LP  0  0  0  0  0  0  0  0  0  0  0  0  # atno 17342 bound_to 10162
  139.5265  144.3042  152.1047 LP  0  0  0  0  0  0  0  0  0  0  0  0  # atno 17343 bound_to 10162
  156.0301  130.5392  150.8510 LP  0  0  0  0  0  0  0  0  0  0  0  0  # atno 17370 bound_to 10713
  157.5622  131.0946  150.9542 LP  0  0  0  0  0  0  0  0  0  0  0  0  # atno 17371 bound_to 10713
  140.6552  133.9695  155.7775 LP  0  0  0  0  0  0  0  0  0  0  0  0  # atno 17394 bound_to 11000
  141.0681  134.0246  157.3565 LP  0  0  0  0  0  0  0  0  0  0  0  0  # atno 17395 bound_to 11000

$$$$
