AV-unprocessed.smi:1228|AV-procd|sdf|5147|dock2
  -GOLD-   22720 4213D 1   1.00000     0.00000
 Structure written by MMmdl.
 44 46  0  0  0  0  0  0  0  0  2 V2000
  154.2993  137.9829  156.8629 C   0  0  0  0  0  0  0  0  0  0  0  0
  153.1685  137.6490  155.9354 C   0  0  0  0  0  0  0  0  0  0  0  0
  152.5907  136.3713  155.6805 C   0  0  0  0  0  0  0  0  0  0  0  0
  151.6143  136.6592  154.7663 C   0  0  0  0  0  0  0  0  0  0  0  0
  150.7313  135.8184  154.1644 N   0  0  0  0  0  0  0  0  0  0  0  0
  150.3580  134.5829  154.5414 C   0  0  0  0  0  0  0  0  0  0  0  0
  150.7863  133.9745  155.5222 O   0  0  0  0  0  0  0  0  0  0  0  0
  149.4442  134.0739  153.7016 N   0  0  0  0  0  0  0  0  0  0  0  0
  148.8236  132.7589  153.8362 C   0  0  2  0  0  0  0  0  0  0  0  0
  149.8598  131.6359  153.6417 C   0  0  0  0  0  0  0  0  0  0  0  0
  149.1905  130.2524  153.6916 C   0  0  0  0  0  0  0  0  0  0  0  0
  148.1073  130.1464  152.6826 N   0  3  1  0  0  0  0  0  0  0  0  0
  147.5207  128.7893  152.6362 C   0  0  0  0  0  0  0  0  0  0  0  0
  148.0921  127.9161  151.5434 C   0  0  0  0  0  0  0  0  0  0  0  0
  146.7132  128.5183  151.3881 C   0  0  0  0  0  0  0  0  0  0  0  0
  147.0746  131.1957  152.8713 C   0  0  0  0  0  0  0  0  0  0  0  0
  147.6950  132.6016  152.8039 C   0  0  0  0  0  0  0  0  0  0  0  0
  151.6272  138.0130  154.5132 N   0  0  0  0  0  0  0  0  0  0  0  0
  150.7868  138.7918  153.6246 C   0  0  0  0  0  0  0  0  0  0  0  0
  152.5923  138.6208  155.2365 N   0  0  0  0  0  0  0  0  0  0  0  0
  154.5522  137.1327  157.4969 H   0  0  0  0  0  0  0  0  0  0  0  0
  154.0412  138.8168  157.5163 H   0  0  0  0  0  0  0  0  0  0  0  0
  155.1943  138.2590  156.3052 H   0  0  0  0  0  0  0  0  0  0  0  0
  152.8619  135.4183  156.1092 H   0  0  0  0  0  0  0  0  0  0  0  0
  150.3004  136.1782  153.3256 H   0  0  0  0  0  0  0  0  0  0  0  0
  149.1483  134.6414  152.9208 H   0  0  0  0  0  0  0  0  0  0  0  0
  148.3877  132.6725  154.8337 H   0  0  0  0  0  0  0  0  0  0  0  0
  150.3670  131.7597  152.6835 H   0  0  0  0  0  0  0  0  0  0  0  0
  150.6319  131.6953  154.4099 H   0  0  0  0  0  0  0  0  0  0  0  0
  149.9379  129.4795  153.5084 H   0  0  0  0  0  0  0  0  0  0  0  0
  148.7823  130.0684  154.6869 H   0  0  0  0  0  0  0  0  0  0  0  0
  147.2252  128.3570  153.5908 H   0  0  0  0  0  0  0  0  0  0  0  0
  148.8889  128.3210  150.9218 H   0  0  0  0  0  0  0  0  0  0  0  0
  148.1497  126.8464  151.7340 H   0  0  0  0  0  0  0  0  0  0  0  0
  145.8628  127.8451  151.4767 H   0  0  0  0  0  0  0  0  0  0  0  0
  146.5955  129.3229  150.6644 H   0  0  0  0  0  0  0  0  0  0  0  0
  146.3094  131.0988  152.1002 H   0  0  0  0  0  0  0  0  0  0  0  0
  146.5764  131.0496  153.8312 H   0  0  0  0  0  0  0  0  0  0  0  0
  146.9232  133.3530  152.9752 H   0  0  0  0  0  0  0  0  0  0  0  0
  148.0817  132.7785  151.7989 H   0  0  0  0  0  0  0  0  0  0  0  0
  150.9577  138.4805  152.5939 H   0  0  0  0  0  0  0  0  0  0  0  0
  151.0126  139.8552  153.7154 H   0  0  0  0  0  0  0  0  0  0  0  0
  149.7386  138.6315  153.8775 H   0  0  0  0  0  0  0  0  0  0  0  0
  148.5308  130.3104  151.7805 H   0  0  0  0  0  0  0  0  0  0  0  0
  1  2  1  0  0  0  0
  1 21  1  0  0  0  0
  1 22  1  0  0  0  0
  1 23  1  0  0  0  0
  2 20  2  0  0  0  0
  2  3  1  0  0  0  0
  3  4  2  0  0  0  0
  3 24  1  0  0  0  0
  4  5  1  0  0  0  0
  4 18  1  0  0  0  0
  5  6  1  0  0  0  0
  5 25  1  0  0  0  0
  6  7  2  0  0  0  0
  6  8  1  0  0  0  0
  8  9  1  0  0  0  0
  8 26  1  0  0  0  0
  9 17  1  0  0  0  0
  9 10  1  0  0  0  0
  9 27  1  0  0  0  0
 10 11  1  0  0  0  0
 10 28  1  0  0  0  0
 10 29  1  0  0  0  0
 11 12  1  0  0  0  0
 11 30  1  0  0  0  0
 11 31  1  0  0  0  0
 12 13  1  0  0  0  0
 12 16  1  0  0  0  0
 12 44  1  0  0  0  0
 13 15  1  0  0  0  0
 13 14  1  0  0  0  0
 13 32  1  0  0  0  0
 14 15  1  0  0  0  0
 14 33  1  0  0  0  0
 14 34  1  0  0  0  0
 15 35  1  0  0  0  0
 15 36  1  0  0  0  0
 16 17  1  0  0  0  0
 16 37  1  0  0  0  0
 16 38  1  0  0  0  0
 17 39  1  0  0  0  0
 17 40  1  0  0  0  0
 18 19  1  0  0  0  0
 18 20  1  0  0  0  0
 19 41  1  0  0  0  0
 19 42  1  0  0  0  0
 19 43  1  0  0  0  0
M  CHG  1  12   1
M  END
> <s_m_source_file>
AV-unprocessed.smi

> <i_m_source_file_index>
1228

> <i_lp_mmshare_version>
43012

> <i_f3d_flags>
0

> <s_epik_input>
W0NIM11jMVtjSF1jKG4objEpW0NIM10pW05IXUMoPU8pW05IXVtDSF0yW0NIMl1bQ0gyXU4oW0NIMl1bQ0gyXTIpW0NIXTNbQ0gyXVtDSDJdMw==

> <s_epik_cmdline>
J2VwaWtfcHl0aG9uJywgJy1waCcsICc3LjAnLCAnLXRuJywgJzgnLCAnLW1hJywgJzIwMCcsICctbWV0YWxfYmluZGluZycsICctaW1hZScsICc8aW5maWxlLm1hZT4nLCAnLW9tYWUnLCAnPG91dGZpbGUubWFlPic=

> <r_lp_tautomer_probability>
1

> <r_epik_Ionization_Penalty>
0.11882

> <r_epik_Ionization_Penalty_Charging>
0.11874

> <r_epik_Ionization_Penalty_Neutral>
8.03064e-05

> <r_epik_State_Penalty>
0.108313

> <r_epik_Charging_Adjusted_Penalty>
0.227053

> <i_epik_Tot_Q>
1

> <i_epik_Tot_abs_Q>
1

> <r_epik_Metal_State_Penalty>
0.108316

> <b_epik_Metal_Only>
0

> <s_lp_Force_Field>
OPLS_2005

> <r_lp_Energy>
27.674

> <b_lp_Chiralities_Consistent>
1

> <s_lp_Variant>
AV-unprocessed.smi:1228-1

> <Gold.Version>
5.8.1

> <Gold.Id.Protein>
6NUR|6NUR_protein|mol2

> <Gold.PLP.Fitness>
42.7342

> <Gold.PLP.PLP>
-34.0360

> <Gold.PLP.part.hbond>
-3.2649

> <Gold.PLP.part.metal>
0.0000

> <Gold.PLP.part.buried>
-3.5014

> <Gold.PLP.part.nonpolar>
-27.5552

> <Gold.PLP.part.repulsive>
0.0898

> <Gold.PLP.ligand.clash>
0.0000

> <Gold.PLP.ligand.torsion>
0.7841

> <Gold.PLP.Chemscore.Hbond>
3.0000

> <Gold.PLP.Chemscore.CHOScore>
0.0000

> <Gold.PLP.Chemscore.Metal>
0.0000

> <Gold.Chemscore.Hbonds>
donor molecule, donor type, donor heavy atom, donor atom, acceptor molecule, acceptor atom, score
      L1  H     5    25       P1  7948  0.15
      L1  H     8    26       P1  7948  0.35
      L1  H    12    44       P1 10747  1.00

> <Gold.PLP.Chemscore.Internal.Correction>
1.2664

> <Gold.Rescore>
     Score         DG    S(hbond)    S(metal)    S(lipo)     H(rot)  DE(clash)    DE(int)     intcor
     18.37     -19.70       2.56        0.00      74.96       1.21       0.11       1.23       ----

> <Gold.Chemscore.Fitness>
18.3672

> <Gold.Chemscore.DG>
-19.7017

> <Gold.Chemscore.ZeroCoef>
-5.4800

> <Gold.Chemscore.Hbond>
2.5595

> <Gold.Chemscore.Metal>
0.0000

> <Gold.Chemscore.Lipo>
74.9551

> <Gold.Chemscore.Internal_Hbond>
0.0000

> <Gold.Chemscore.DEClash>
0.1088

> <Gold.Chemscore.DEInternal>
1.2257

> <Gold.Chemscore.Rot>
1.2097

> <Gold.Chemscore.Internal.Correction>
   9.000000E+99

> <Gold.Chemscore.Hbonds>
donor molecule, donor type, donor heavy atom, donor atom, acceptor molecule, acceptor atom, score
      L1  H     8    26       P1  7948  0.01
      L1  H    12    44       P1 10747  0.74

> <Gold.Chemscore.Hbond.Weighted>
-8.5489

> <Gold.Chemscore.Metal.Weighted>
-0.0000

> <Gold.Chemscore.Lipo.Weighted>
-8.7698

> <Gold.Chemscore.Internal_Hbond.Weighted>
0.0000

> <Gold.Chemscore.DEClash.Weighted>
0.1088

> <Gold.Chemscore.DEInternal.Weighted>
1.2257

> <Gold.Chemscore.Rot.Weighted>
3.0969

> <Gold.Chemscore.Internal.Correction.Weighted>
   9.000000E+99

> <Gold.Protein.RotatedTorsions>
[ 6907 6896 6895 6894 ] final   75.68 input  -60.11 | X-H torsion
[ 7974 7965 7964 7962 ] final   27.56 input  175.53 | X-H torsion
[ 8008 7997 7996 7995 ] final  -81.37 input   59.86 | X-H torsion
[ 10167 10162 10161 10158 ] final   21.37 input  -65.29 | X-H torsion
[ 10718 10713 10712 10709 ] final  104.71 input   66.30 | X-H torsion
[ 10763 10752 10751 10750 ] final -134.75 input  -60.55 | X-H torsion
[ 11005 11000 10999 10996 ] final -178.31 input  -57.11 | X-H torsion

> <Gold.Protein.ActiveResidues>
 VAL166  LYS551  ARG553  GLY616  TRP617  ASP618  TYR619  PRO620  LYS621  CYS622 
 ASP623  PHE694  ASN695  SER759  ASP760  ASP761  ALA762  ILE779  LEU786  VAL792 
 PHE793  MET794  SER795  GLU796  ALA797  LYS798  CYS799  TRP800  GLU811  SER814 

> <Gold.Protein.RotatedAtoms>
  152.5037  134.4084  159.9440 H   0  0  0  0  0  0  0  0  0  0  0  0  # atno 6907 bound_to 6896
  151.4051  133.3739  159.2745 H   0  0  0  0  0  0  0  0  0  0  0  0  # atno 6908 bound_to 6896
  150.9333  134.8768  159.7624 H   0  0  0  0  0  0  0  0  0  0  0  0  # atno 6909 bound_to 6896
  146.1777  139.7175  142.8922 H   0  0  0  0  0  0  0  0  0  0  0  0  # atno 7974 bound_to 7965
  154.5977  140.0649  156.9326 H   0  0  0  0  0  0  0  0  0  0  0  0  # atno 8008 bound_to 7997
  155.2186  140.3328  155.4300 H   0  0  0  0  0  0  0  0  0  0  0  0  # atno 8009 bound_to 7997
  156.2298  140.1835  156.7256 H   0  0  0  0  0  0  0  0  0  0  0  0  # atno 8010 bound_to 7997
  140.5432  143.9641  150.6531 H   0  0  0  0  0  0  0  0  0  0  0  0  # atno 10167 bound_to 10162
  157.6731  131.0810  150.5747 H   0  0  0  0  0  0  0  0  0  0  0  0  # atno 10718 bound_to 10713
  154.8714  135.3725  154.4787 H   0  0  0  0  0  0  0  0  0  0  0  0  # atno 10763 bound_to 10752
  153.5442  135.7026  153.5627 H   0  0  0  0  0  0  0  0  0  0  0  0  # atno 10764 bound_to 10752
  153.3775  135.4005  155.1798 H   0  0  0  0  0  0  0  0  0  0  0  0  # atno 10765 bound_to 10752
  140.4312  134.6517  157.4712 H   0  0  0  0  0  0  0  0  0  0  0  0  # atno 11005 bound_to 11000
  145.4164  141.0402  143.2988 LP  0  0  0  0  0  0  0  0  0  0  0  0  # atno 17320 bound_to 7965
  144.8264  139.5703  143.6964 LP  0  0  0  0  0  0  0  0  0  0  0  0  # atno 17321 bound_to 7965
  140.3047  143.3237  152.0937 LP  0  0  0  0  0  0  0  0  0  0  0  0  # atno 17342 bound_to 10162
  139.4997  144.6674  151.6323 LP  0  0  0  0  0  0  0  0  0  0  0  0  # atno 17343 bound_to 10162
  156.6048  130.4364  149.5882 LP  0  0  0  0  0  0  0  0  0  0  0  0  # atno 17370 bound_to 10713
  156.2477  130.6889  151.1616 LP  0  0  0  0  0  0  0  0  0  0  0  0  # atno 17371 bound_to 10713
  140.0133  134.6657  155.9347 LP  0  0  0  0  0  0  0  0  0  0  0  0  # atno 17394 bound_to 11000
  141.1745  133.6539  156.4775 LP  0  0  0  0  0  0  0  0  0  0  0  0  # atno 17395 bound_to 11000

$$$$
