AV-unprocessed.smi:1247|AV-procd|sdf|5246|dock6
  -GOLD-   22720 4353D 1   1.00000     0.00000
 Structure written by MMmdl.
 47 48  0  0  0  0  0  0  0  0  2 V2000
  150.6003  141.8937  156.3852 C   0  0  0  0  0  0  0  0  0  0  0  0
  150.2902  140.6528  155.6015 C   0  0  0  0  0  0  0  0  0  0  0  0
  149.0113  140.1023  155.2977 C   0  0  0  0  0  0  0  0  0  0  0  0
  149.3277  138.9871  154.5709 C   0  0  0  0  0  0  0  0  0  0  0  0
  148.4924  138.0760  154.0044 N   0  0  0  0  0  0  0  0  0  0  0  0
  147.1979  137.8387  154.2788 C   0  0  0  0  0  0  0  0  0  0  0  0
  146.5336  138.4080  155.1453 O   0  0  0  0  0  0  0  0  0  0  0  0
  146.7026  136.8760  153.4877 N   0  0  0  0  0  0  0  0  0  0  0  0
  145.3320  136.3805  153.5369 C   0  0  0  0  0  0  0  0  0  0  0  0
  145.2911  134.8697  153.8349 C   0  0  0  0  0  0  0  0  0  0  0  0
  146.1819  134.0935  152.9371 N   0  3  1  0  0  0  0  0  0  0  0  0
  147.4602  133.7235  153.5892 C   0  0  0  0  0  0  0  0  0  0  0  0
  148.3763  132.9792  152.5994 C   0  0  1  0  0  0  0  0  0  0  0  0
  149.6801  132.5124  153.2558 C   0  0  0  0  0  0  0  0  0  0  0  0
  147.6917  131.8330  152.1064 O   0  0  0  0  0  0  0  0  0  0  0  0
  146.5022  132.1675  151.3997 C   0  0  1  0  0  0  0  0  0  0  0  0
  145.9010  130.8745  150.8384 C   0  0  0  0  0  0  0  0  0  0  0  0
  145.5349  132.8917  152.3555 C   0  0  0  0  0  0  0  0  0  0  0  0
  150.6992  138.9044  154.4574 N   0  0  0  0  0  0  0  0  0  0  0  0
  151.5268  137.9190  153.7885 C   0  0  0  0  0  0  0  0  0  0  0  0
  151.2888  139.9346  155.1006 N   0  0  0  0  0  0  0  0  0  0  0  0
  149.6909  142.4410  156.6338 H   0  0  0  0  0  0  0  0  0  0  0  0
  151.2467  142.5653  155.8194 H   0  0  0  0  0  0  0  0  0  0  0  0
  151.1075  141.6502  157.3191 H   0  0  0  0  0  0  0  0  0  0  0  0
  148.0385  140.4807  155.5732 H   0  0  0  0  0  0  0  0  0  0  0  0
  148.9095  137.4991  153.2889 H   0  0  0  0  0  0  0  0  0  0  0  0
  147.3151  136.4599  152.8011 H   0  0  0  0  0  0  0  0  0  0  0  0
  144.7704  136.9504  154.2777 H   0  0  0  0  0  0  0  0  0  0  0  0
  144.8645  136.5814  152.5726 H   0  0  0  0  0  0  0  0  0  0  0  0
  145.6072  134.7217  154.8687 H   0  0  0  0  0  0  0  0  0  0  0  0
  144.2736  134.4814  153.7664 H   0  0  0  0  0  0  0  0  0  0  0  0
  147.9632  134.6220  153.9494 H   0  0  0  0  0  0  0  0  0  0  0  0
  147.2566  133.0984  154.4605 H   0  0  0  0  0  0  0  0  0  0  0  0
  148.6259  133.6355  151.7635 H   0  0  0  0  0  0  0  0  0  0  0  0
  150.2543  133.3584  153.6344 H   0  0  0  0  0  0  0  0  0  0  0  0
  150.3074  131.9798  152.5404 H   0  0  0  0  0  0  0  0  0  0  0  0
  149.4839  131.8397  154.0913 H   0  0  0  0  0  0  0  0  0  0  0  0
  146.7534  132.8238  150.5642 H   0  0  0  0  0  0  0  0  0  0  0  0
  144.9882  131.0773  150.2777 H   0  0  0  0  0  0  0  0  0  0  0  0
  145.6551  130.1737  151.6370 H   0  0  0  0  0  0  0  0  0  0  0  0
  146.6013  130.3796  150.1651 H   0  0  0  0  0  0  0  0  0  0  0  0
  145.2270  132.2196  153.1585 H   0  0  0  0  0  0  0  0  0  0  0  0
  144.6332  133.1718  151.8120 H   0  0  0  0  0  0  0  0  0  0  0  0
  150.9134  137.2259  153.2129 H   0  0  0  0  0  0  0  0  0  0  0  0
  152.0959  137.3558  154.5287 H   0  0  0  0  0  0  0  0  0  0  0  0
  152.2201  138.4184  153.1108 H   0  0  0  0  0  0  0  0  0  0  0  0
  146.4227  134.7033  152.1687 H   0  0  0  0  0  0  0  0  0  0  0  0
  1  2  1  0  0  0  0
  1 22  1  0  0  0  0
  1 23  1  0  0  0  0
  1 24  1  0  0  0  0
  2 21  2  0  0  0  0
  2  3  1  0  0  0  0
  3  4  2  0  0  0  0
  3 25  1  0  0  0  0
  4  5  1  0  0  0  0
  4 19  1  0  0  0  0
  5  6  1  0  0  0  0
  5 26  1  0  0  0  0
  6  7  2  0  0  0  0
  6  8  1  0  0  0  0
  8  9  1  0  0  0  0
  8 27  1  0  0  0  0
  9 10  1  0  0  0  0
  9 28  1  0  0  0  0
  9 29  1  0  0  0  0
 10 11  1  0  0  0  0
 10 30  1  0  0  0  0
 10 31  1  0  0  0  0
 11 18  1  0  0  0  0
 11 12  1  0  0  0  0
 11 47  1  0  0  0  0
 12 13  1  0  0  0  0
 12 32  1  0  0  0  0
 12 33  1  0  0  0  0
 13 14  1  0  0  0  0
 13 15  1  0  0  0  0
 13 34  1  0  0  0  0
 14 35  1  0  0  0  0
 14 36  1  0  0  0  0
 14 37  1  0  0  0  0
 15 16  1  0  0  0  0
 16 17  1  0  0  0  0
 16 18  1  0  0  0  0
 16 38  1  0  0  0  0
 17 39  1  0  0  0  0
 17 40  1  0  0  0  0
 17 41  1  0  0  0  0
 18 42  1  0  0  0  0
 18 43  1  0  0  0  0
 19 20  1  0  0  0  0
 19 21  1  0  0  0  0
 20 44  1  0  0  0  0
 20 45  1  0  0  0  0
 20 46  1  0  0  0  0
M  CHG  1  11   1
M  END
> <s_m_source_file>
AV-unprocessed.smi

> <i_m_source_file_index>
1247

> <i_lp_mmshare_version>
43012

> <i_f3d_flags>
0

> <s_epik_input>
W0NIM11jMVtjSF1jKG4objEpW0NIM10pW05IXUMoPU8pW05IXVtDSDJdW0NIMl1OMltDSDJdW0NAQEhdKFtDSDNdKU9bQ0BASF0oW0NIM10pW0NIMl0y

> <s_epik_cmdline>
J2VwaWtfcHl0aG9uJywgJy1waCcsICc3LjAnLCAnLXRuJywgJzgnLCAnLW1hJywgJzIwMCcsICctbWV0YWxfYmluZGluZycsICctaW1hZScsICc8aW5maWxlLm1hZT4nLCAnLW9tYWUnLCAnPG91dGZpbGUubWFlPic=

> <r_lp_tautomer_probability>
1

> <r_epik_Ionization_Penalty>
0.663902

> <r_epik_Ionization_Penalty_Charging>
0.663826

> <r_epik_Ionization_Penalty_Neutral>
7.65444e-05

> <r_epik_State_Penalty>
0.683414

> <r_epik_Charging_Adjusted_Penalty>
1.34724

> <i_epik_Tot_Q>
1

> <i_epik_Tot_abs_Q>
1

> <r_epik_Metal_State_Penalty>
0.683419

> <b_epik_Metal_Only>
0

> <s_lp_Force_Field>
OPLS_2005

> <r_lp_Energy>
16.001

> <b_lp_Chiralities_Consistent>
1

> <s_lp_Variant>
AV-unprocessed.smi:1247-4

> <Gold.Version>
5.8.1

> <Gold.Id.Protein>
6NUR|6NUR_protein|mol2

> <Gold.PLP.Fitness>
41.2608

> <Gold.PLP.PLP>
-36.1228

> <Gold.PLP.part.hbond>
-3.4842

> <Gold.PLP.part.metal>
0.0000

> <Gold.PLP.part.buried>
-4.8700

> <Gold.PLP.part.nonpolar>
-29.7023

> <Gold.PLP.part.repulsive>
0.5332

> <Gold.PLP.ligand.clash>
0.0000

> <Gold.PLP.ligand.torsion>
0.7138

> <Gold.PLP.Chemscore.Hbond>
2.1800

> <Gold.PLP.Chemscore.CHOScore>
0.0000

> <Gold.PLP.Chemscore.Metal>
0.0000

> <Gold.Chemscore.Hbonds>
donor molecule, donor type, donor heavy atom, donor atom, acceptor molecule, acceptor atom, score
      L1  H     5    26       P1  7948  1.00
      L1  H     8    27       P1  7948  1.00
      P1  H  7989  7998       L1    21  0.65

> <Gold.PLP.Chemscore.Internal.Correction>
0.0257

> <Gold.Rescore>
     Score         DG    S(hbond)    S(metal)    S(lipo)     H(rot)  DE(clash)    DE(int)     intcor
     15.17     -17.01       1.97        0.00      75.51       1.52       0.12       1.71       ----

> <Gold.Chemscore.Fitness>
15.1735

> <Gold.Chemscore.DG>
-17.0106

> <Gold.Chemscore.ZeroCoef>
-5.4800

> <Gold.Chemscore.Hbond>
1.9737

> <Gold.Chemscore.Metal>
0.0000

> <Gold.Chemscore.Lipo>
75.5144

> <Gold.Chemscore.Internal_Hbond>
0.0000

> <Gold.Chemscore.DEClash>
0.1241

> <Gold.Chemscore.DEInternal>
1.7130

> <Gold.Chemscore.Rot>
1.5221

> <Gold.Chemscore.Internal.Correction>
   9.000000E+99

> <Gold.Chemscore.Hbonds>
donor molecule, donor type, donor heavy atom, donor atom, acceptor molecule, acceptor atom, score
      L1  H     5    26       P1  7948  0.99
      L1  H     8    27       P1  7948  0.98
      P1  H  7989  7998       L1    21  0.02

> <Gold.Chemscore.Hbond.Weighted>
-6.5921

> <Gold.Chemscore.Metal.Weighted>
-0.0000

> <Gold.Chemscore.Lipo.Weighted>
-8.8352

> <Gold.Chemscore.Internal_Hbond.Weighted>
0.0000

> <Gold.Chemscore.DEClash.Weighted>
0.1241

> <Gold.Chemscore.DEInternal.Weighted>
1.7130

> <Gold.Chemscore.Rot.Weighted>
3.8967

> <Gold.Chemscore.Internal.Correction.Weighted>
   9.000000E+99

> <Gold.Protein.RotatedTorsions>
[ 6907 6896 6895 6894 ] final -166.76 input  -60.11 | X-H torsion
[ 7974 7965 7964 7962 ] final  119.31 input  175.53 | X-H torsion
[ 8008 7997 7996 7995 ] final  127.90 input   59.86 | X-H torsion
[ 10167 10162 10161 10158 ] final  -40.52 input  -65.29 | X-H torsion
[ 10718 10713 10712 10709 ] final  -24.43 input   66.30 | X-H torsion
[ 10763 10752 10751 10750 ] final  -22.27 input  -60.55 | X-H torsion
[ 11005 11000 10999 10996 ] final  -79.84 input  -57.11 | X-H torsion

> <Gold.Protein.ActiveResidues>
 VAL166  LYS551  ARG553  GLY616  TRP617  ASP618  TYR619  PRO620  LYS621  CYS622 
 ASP623  PHE694  ASN695  SER759  ASP760  ASP761  ALA762  ILE779  LEU786  VAL792 
 PHE793  MET794  SER795  GLU796  ALA797  LYS798  CYS799  TRP800  GLU811  SER814 

> <Gold.Protein.RotatedAtoms>
  151.4488  133.3623  159.2791 H   0  0  0  0  0  0  0  0  0  0  0  0  # atno 6907 bound_to 6896
  150.9106  134.8524  159.7433 H   0  0  0  0  0  0  0  0  0  0  0  0  # atno 6908 bound_to 6896
  152.4930  134.4417  159.9597 H   0  0  0  0  0  0  0  0  0  0  0  0  # atno 6909 bound_to 6896
  145.1446  139.3247  143.4598 H   0  0  0  0  0  0  0  0  0  0  0  0  # atno 7974 bound_to 7965
  156.2902  140.2658  156.2348 H   0  0  0  0  0  0  0  0  0  0  0  0  # atno 8008 bound_to 7997
  155.0036  140.0387  157.2389 H   0  0  0  0  0  0  0  0  0  0  0  0  # atno 8009 bound_to 7997
  154.7579  140.2755  155.6243 H   0  0  0  0  0  0  0  0  0  0  0  0  # atno 8010 bound_to 7997
  140.7032  143.3148  151.2936 H   0  0  0  0  0  0  0  0  0  0  0  0  # atno 10167 bound_to 10162
  156.4778  130.4538  149.6830 H   0  0  0  0  0  0  0  0  0  0  0  0  # atno 10718 bound_to 10713
  153.6493  135.6981  153.5214 H   0  0  0  0  0  0  0  0  0  0  0  0  # atno 10763 bound_to 10752
  153.2719  135.4212  155.0995 H   0  0  0  0  0  0  0  0  0  0  0  0  # atno 10764 bound_to 10752
  154.8480  135.3580  154.6038 H   0  0  0  0  0  0  0  0  0  0  0  0  # atno 10765 bound_to 10752
  141.1668  133.7123  156.8183 H   0  0  0  0  0  0  0  0  0  0  0  0  # atno 11005 bound_to 11000
  146.3501  140.1497  142.8592 LP  0  0  0  0  0  0  0  0  0  0  0  0  # atno 17320 bound_to 7965
  145.0495  140.9007  143.5004 LP  0  0  0  0  0  0  0  0  0  0  0  0  # atno 17321 bound_to 7965
  139.6584  144.0235  152.2675 LP  0  0  0  0  0  0  0  0  0  0  0  0  # atno 17342 bound_to 10162
  139.9794  144.6439  150.7915 LP  0  0  0  0  0  0  0  0  0  0  0  0  # atno 17343 bound_to 10162
  156.3552  130.7453  151.2418 LP  0  0  0  0  0  0  0  0  0  0  0  0  # atno 17370 bound_to 10713
  157.7486  131.0366  150.4415 LP  0  0  0  0  0  0  0  0  0  0  0  0  # atno 17371 bound_to 10713
  140.2138  134.8808  157.3303 LP  0  0  0  0  0  0  0  0  0  0  0  0  # atno 17394 bound_to 11000
  140.2059  134.4198  155.7638 LP  0  0  0  0  0  0  0  0  0  0  0  0  # atno 17395 bound_to 11000

$$$$
