AV-unprocessed.smi:741|AV-procd|sdf|3557|dock3
  -GOLD-   22720 0553D 1   1.00000     0.00000
 Structure written by MMmdl.
 43 44  0  0  0  0  0  0  0  0  3 V2000
  144.8884  135.8609  150.6457 C   0  0  0  0  0  0  0  0  0  0  0  0
  144.5610  135.6854  152.1360 C   0  0  0  0  0  0  0  0  0  0  0  0
  145.7527  135.1963  152.9815 C   0  0  1  0  0  0  0  0  0  0  0  0
  146.3523  133.8965  152.4013 C   0  0  0  0  0  0  0  0  0  0  0  0
  147.1564  133.1376  153.3905 N   0  3  0  0  0  0  0  0  0  0  0  0
  147.5735  131.7877  152.9567 C   0  0  0  0  0  0  0  0  0  0  0  0
  148.7693  131.4504  153.8398 C   0  0  0  0  0  0  0  0  0  0  0  0
  149.4858  132.7912  153.9670 C   0  0  0  0  0  0  0  0  0  0  0  0
  148.3703  133.8411  153.8679 C   0  0  0  0  0  0  0  0  0  0  0  0
  146.7706  136.2476  153.0571 N   0  0  0  0  0  0  0  0  0  0  0  0
  146.6127  137.4626  153.6029 C   0  0  0  0  0  0  0  0  0  0  0  0
  145.5804  137.8256  154.1655 O   0  0  0  0  0  0  0  0  0  0  0  0
  147.7270  138.2038  153.4778 N   0  0  0  0  0  0  0  0  0  0  0  0
  147.9461  139.5410  153.9074 C   0  0  0  0  0  0  0  0  0  0  0  0
  146.8505  140.4318  153.8677 C   0  0  0  0  0  0  0  0  0  0  0  0
  147.0207  141.7628  154.3006 C   0  0  0  0  0  0  0  0  0  0  0  0
  148.2227  142.1723  154.7597 N   0  3  0  0  0  0  0  0  0  0  0  0
  149.2941  141.3537  154.8320 C   0  0  0  0  0  0  0  0  0  0  0  0
  149.1850  140.0122  154.4117 C   0  0  0  0  0  0  0  0  0  0  0  0
  144.0264  136.2522  150.1050 H   0  0  0  0  0  0  0  0  0  0  0  0
  145.1658  134.9152  150.1796 H   0  0  0  0  0  0  0  0  0  0  0  0
  145.7131  136.5599  150.5037 H   0  0  0  0  0  0  0  0  0  0  0  0
  144.2134  136.6424  152.5269 H   0  0  0  0  0  0  0  0  0  0  0  0
  143.7231  134.9948  152.2412 H   0  0  0  0  0  0  0  0  0  0  0  0
  145.3680  134.9837  153.9805 H   0  0  0  0  0  0  0  0  0  0  0  0
  145.5667  133.2531  152.0016 H   0  0  0  0  0  0  0  0  0  0  0  0
  146.9930  134.1573  151.5572 H   0  0  0  0  0  0  0  0  0  0  0  0
  146.7704  131.0571  153.0492 H   0  0  0  0  0  0  0  0  0  0  0  0
  147.8871  131.8126  151.9118 H   0  0  0  0  0  0  0  0  0  0  0  0
  148.4246  131.1176  154.8198 H   0  0  0  0  0  0  0  0  0  0  0  0
  149.4015  130.6675  153.4200 H   0  0  0  0  0  0  0  0  0  0  0  0
  150.0596  132.8730  154.8906 H   0  0  0  0  0  0  0  0  0  0  0  0
  150.1795  132.9145  153.1342 H   0  0  0  0  0  0  0  0  0  0  0  0
  148.6677  134.6443  153.1921 H   0  0  0  0  0  0  0  0  0  0  0  0
  148.1589  134.2876  154.8398 H   0  0  0  0  0  0  0  0  0  0  0  0
  147.6583  136.0402  152.6223 H   0  0  0  0  0  0  0  0  0  0  0  0
  148.5283  137.7405  153.0744 H   0  0  0  0  0  0  0  0  0  0  0  0
  145.8873  140.1045  153.5035 H   0  0  0  0  0  0  0  0  0  0  0  0
  146.2363  142.5057  154.2960 H   0  0  0  0  0  0  0  0  0  0  0  0
  150.1993  141.7912  155.2274 H   0  0  0  0  0  0  0  0  0  0  0  0
  150.0476  139.3688  154.4973 H   0  0  0  0  0  0  0  0  0  0  0  0
  146.5781  133.0071  154.2079 H   0  0  0  0  0  0  0  0  0  0  0  0
  148.3240  143.1391  155.0705 H   0  0  0  0  0  0  0  0  0  0  0  0
  1  2  1  0  0  0  0
  1 20  1  0  0  0  0
  1 21  1  0  0  0  0
  1 22  1  0  0  0  0
  2  3  1  0  0  0  0
  2 23  1  0  0  0  0
  2 24  1  0  0  0  0
  3  4  1  0  0  0  0
  3 10  1  0  0  0  0
  3 25  1  0  0  0  0
  4  5  1  0  0  0  0
  4 26  1  0  0  0  0
  4 27  1  0  0  0  0
  5  9  1  0  0  0  0
  5  6  1  0  0  0  0
  5 42  1  0  0  0  0
  6  7  1  0  0  0  0
  6 28  1  0  0  0  0
  6 29  1  0  0  0  0
  7  8  1  0  0  0  0
  7 30  1  0  0  0  0
  7 31  1  0  0  0  0
  8  9  1  0  0  0  0
  8 32  1  0  0  0  0
  8 33  1  0  0  0  0
  9 34  1  0  0  0  0
  9 35  1  0  0  0  0
 10 11  1  0  0  0  0
 10 36  1  0  0  0  0
 11 12  2  0  0  0  0
 11 13  1  0  0  0  0
 13 14  1  0  0  0  0
 13 37  1  0  0  0  0
 14 19  1  0  0  0  0
 14 15  2  0  0  0  0
 15 16  1  0  0  0  0
 15 38  1  0  0  0  0
 16 17  2  0  0  0  0
 16 39  1  0  0  0  0
 17 18  1  0  0  0  0
 17 43  1  0  0  0  0
 18 19  2  0  0  0  0
 18 40  1  0  0  0  0
 19 41  1  0  0  0  0
M  CHG  1   5   1
M  CHG  1  17   1
M  END
> <s_m_source_file>
AV-unprocessed.smi

> <i_m_source_file_index>
741

> <i_lp_mmshare_version>
43012

> <i_f3d_flags>
0

> <s_epik_input>
W0NIMl0xW0NIMl1bQ0gyXVtDSDJdTjFbQ0gyXVtDQEBIXShbQ0gyXVtDSDNdKVtOSF1DKD1PKVtOSF1jMltjSF1bY0hdbltjSF1bY0hdMg==

> <s_epik_cmdline>
J2VwaWtfcHl0aG9uJywgJy1waCcsICc3LjAnLCAnLXRuJywgJzgnLCAnLW1hJywgJzIwMCcsICctbWV0YWxfYmluZGluZycsICctaW1hZScsICc8aW5maWxlLm1hZT4nLCAnLW9tYWUnLCAnPG91dGZpbGUubWFlPic=

> <r_epik_Ionization_Penalty>
1.10771

> <r_epik_Ionization_Penalty_Charging>
1.10769

> <r_epik_Ionization_Penalty_Neutral>
1.91663e-05

> <r_epik_State_Penalty>
1.16347

> <r_epik_Charging_Adjusted_Penalty>
2.27116

> <i_epik_Tot_Q>
2

> <i_epik_Tot_abs_Q>
2

> <r_epik_Metal_State_Penalty>
1.24871

> <b_epik_Metal_Only>
0

> <s_lp_Force_Field>
OPLS_2005

> <r_lp_Energy>
49.4137

> <b_lp_Chiralities_Consistent>
1

> <s_lp_Variant>
AV-unprocessed.smi:741-4

> <Gold.Version>
5.8.1

> <Gold.Id.Protein>
6NUR|6NUR_protein|mol2

> <Gold.PLP.Fitness>
42.5795

> <Gold.PLP.PLP>
-32.0756

> <Gold.PLP.part.hbond>
-2.8694

> <Gold.PLP.part.metal>
0.0000

> <Gold.PLP.part.buried>
-2.7325

> <Gold.PLP.part.nonpolar>
-27.6849

> <Gold.PLP.part.repulsive>
0.3460

> <Gold.PLP.ligand.clash>
0.0000

> <Gold.PLP.ligand.torsion>
0.4804

> <Gold.PLP.Chemscore.Hbond>
3.7840

> <Gold.PLP.Chemscore.CHOScore>
0.0000

> <Gold.PLP.Chemscore.Metal>
0.0000

> <Gold.Chemscore.Hbonds>
donor molecule, donor type, donor heavy atom, donor atom, acceptor molecule, acceptor atom, score
      L1  H    10    36       P1  7948  0.94
      L1  H    13    37       P1  7948  0.82
      L1  H    17    43       P1  8028  2.00

> <Gold.PLP.Chemscore.Internal.Correction>
0.1126

> <Gold.Rescore>
     Score         DG    S(hbond)    S(metal)    S(lipo)     H(rot)  DE(clash)    DE(int)     intcor
     16.88     -18.86       2.92        0.00      66.56       1.63       0.00       1.98       ----

> <Gold.Chemscore.Fitness>
16.8825

> <Gold.Chemscore.DG>
-18.8601

> <Gold.Chemscore.ZeroCoef>
-5.4800

> <Gold.Chemscore.Hbond>
2.9206

> <Gold.Chemscore.Metal>
0.0000

> <Gold.Chemscore.Lipo>
66.5640

> <Gold.Chemscore.Internal_Hbond>
0.0000

> <Gold.Chemscore.DEClash>
0.0000

> <Gold.Chemscore.DEInternal>
1.9776

> <Gold.Chemscore.Rot>
1.6260

> <Gold.Chemscore.Internal.Correction>
   9.000000E+99

> <Gold.Chemscore.Hbonds>
donor molecule, donor type, donor heavy atom, donor atom, acceptor molecule, acceptor atom, score
      L1  H    10    36       P1  7948  0.90
      L1  H    13    37       P1  7948  0.80
      L1  H    17    43       P1  8028  0.99

> <Gold.Chemscore.Hbond.Weighted>
-9.7547

> <Gold.Chemscore.Metal.Weighted>
-0.0000

> <Gold.Chemscore.Lipo.Weighted>
-7.7880

> <Gold.Chemscore.Internal_Hbond.Weighted>
0.0000

> <Gold.Chemscore.DEClash.Weighted>
0.0000

> <Gold.Chemscore.DEInternal.Weighted>
1.9776

> <Gold.Chemscore.Rot.Weighted>
4.1626

> <Gold.Chemscore.Internal.Correction.Weighted>
   9.000000E+99

> <Gold.Protein.RotatedTorsions>
[ 6907 6896 6895 6894 ] final  124.80 input  -60.11 | X-H torsion
[ 7974 7965 7964 7962 ] final    5.02 input  175.53 | X-H torsion
[ 8008 7997 7996 7995 ] final  159.24 input   59.86 | X-H torsion
[ 10167 10162 10161 10158 ] final  -28.54 input  -65.29 | X-H torsion
[ 10718 10713 10712 10709 ] final   77.28 input   66.30 | X-H torsion
[ 10763 10752 10751 10750 ] final   17.49 input  -60.55 | X-H torsion
[ 11005 11000 10999 10996 ] final   50.98 input  -57.11 | X-H torsion

> <Gold.Protein.ActiveResidues>
 VAL166  LYS551  ARG553  GLY616  TRP617  ASP618  TYR619  PRO620  LYS621  CYS622 
 ASP623  PHE694  ASN695  SER759  ASP760  ASP761  ALA762  ILE779  LEU786  VAL792 
 PHE793  MET794  SER795  GLU796  ALA797  LYS798  CYS799  TRP800  GLU811  SER814 

> <Gold.Protein.RotatedAtoms>
  152.4047  133.6871  159.6345 H   0  0  0  0  0  0  0  0  0  0  0  0  # atno 6907 bound_to 6896
  150.7933  133.8730  159.3273 H   0  0  0  0  0  0  0  0  0  0  0  0  # atno 6908 bound_to 6896
  151.6487  135.1006  160.0207 H   0  0  0  0  0  0  0  0  0  0  0  0  # atno 6909 bound_to 6896
  146.2442  140.0447  142.8379 H   0  0  0  0  0  0  0  0  0  0  0  0  # atno 7974 bound_to 7965
  156.2251  140.1836  156.7382 H   0  0  0  0  0  0  0  0  0  0  0  0  # atno 8008 bound_to 7997
  154.5928  140.0648  156.9291 H   0  0  0  0  0  0  0  0  0  0  0  0  # atno 8009 bound_to 7997
  155.2306  140.3314  155.4306 H   0  0  0  0  0  0  0  0  0  0  0  0  # atno 8010 bound_to 7997
  140.7269  143.4001  151.1279 H   0  0  0  0  0  0  0  0  0  0  0  0  # atno 10167 bound_to 10162
  157.6704  130.9814  150.1618 H   0  0  0  0  0  0  0  0  0  0  0  0  # atno 10718 bound_to 10713
  153.1334  135.6745  153.9141 H   0  0  0  0  0  0  0  0  0  0  0  0  # atno 10763 bound_to 10752
  153.8620  135.3080  155.3439 H   0  0  0  0  0  0  0  0  0  0  0  0  # atno 10764 bound_to 10752
  154.7727  135.4931  153.9764 H   0  0  0  0  0  0  0  0  0  0  0  0  # atno 10765 bound_to 10752
  140.0972  134.5130  155.8796 H   0  0  0  0  0  0  0  0  0  0  0  0  # atno 11005 bound_to 11000
  145.1038  140.9362  143.4697 LP  0  0  0  0  0  0  0  0  0  0  0  0  # atno 17320 bound_to 7965
  145.0646  139.3079  143.5863 LP  0  0  0  0  0  0  0  0  0  0  0  0  # atno 17321 bound_to 7965
  139.7620  143.8621  152.3102 LP  0  0  0  0  0  0  0  0  0  0  0  0  # atno 17342 bound_to 10162
  139.8511  144.7164  150.9213 LP  0  0  0  0  0  0  0  0  0  0  0  0  # atno 17343 bound_to 10162
  156.2393  130.3689  149.8355 LP  0  0  0  0  0  0  0  0  0  0  0  0  # atno 17370 bound_to 10713
  156.6160  130.8606  151.3465 LP  0  0  0  0  0  0  0  0  0  0  0  0  # atno 17371 bound_to 10713
  141.2095  133.6685  156.6445 LP  0  0  0  0  0  0  0  0  0  0  0  0  # atno 17394 bound_to 11000
  140.3270  134.7960  157.4297 LP  0  0  0  0  0  0  0  0  0  0  0  0  # atno 17395 bound_to 11000

$$$$
