AV-unprocessed.smi:3133|AV-procd|sdf|11940|dock5
  -GOLD-   2272017333D 1   1.00000     0.00000
 Structure written by MMmdl.
 32 33  0  0  0  0  0  0  0  0  1 V2000
  150.9063  137.7765  158.6267 C   0  0  0  0  0  0  0  0  0  0  0  0
  151.1634  139.1383  157.9499 C   0  0  1  0  0  0  0  0  0  0  0  0
  152.4483  139.8103  158.4573 C   0  0  0  0  0  0  0  0  0  0  0  0
  153.5435  139.2702  158.2971 O   0  0  0  0  0  0  0  0  0  0  0  0
  152.2987  140.9976  159.0653 N   0  0  0  0  0  0  0  0  0  0  0  0
  153.3845  141.8063  159.6071 C   0  0  0  0  0  0  0  0  0  0  0  0
  152.9317  143.2466  159.8991 C   0  0  1  0  0  0  0  0  0  0  0  0
  152.8203  144.1208  158.6536 C   0  0  0  0  0  0  0  0  0  0  0  0
  151.8999  145.2181  159.1390 C   0  0  0  0  0  0  0  0  0  0  0  0
  150.9426  144.4604  160.0588 C   0  0  0  0  0  0  0  0  0  0  0  0
  151.6173  143.2648  160.4464 O   0  0  0  0  0  0  0  0  0  0  0  0
  151.1912  139.0405  156.4954 N   0  0  0  0  0  0  0  0  0  0  0  0
  151.3535  139.9950  155.5762 C   0  0  0  0  0  0  0  0  0  0  0  0
  151.3777  139.5450  154.3295 N   0  0  0  0  0  0  0  0  0  0  0  0
  151.2283  138.2082  154.5671 C   0  0  0  0  0  0  0  0  0  0  0  0
  151.1240  137.8507  155.8467 N   0  0  0  0  0  0  0  0  0  0  0  0
  150.8390  137.8834  159.7099 H   0  0  0  0  0  0  0  0  0  0  0  0
  151.6974  137.0556  158.4163 H   0  0  0  0  0  0  0  0  0  0  0  0
  149.9665  137.3439  158.2828 H   0  0  0  0  0  0  0  0  0  0  0  0
  150.3248  139.7872  158.2087 H   0  0  0  0  0  0  0  0  0  0  0  0
  151.3646  141.3681  159.1629 H   0  0  0  0  0  0  0  0  0  0  0  0
  153.7718  141.3404  160.5149 H   0  0  0  0  0  0  0  0  0  0  0  0
  154.2037  141.8088  158.8875 H   0  0  0  0  0  0  0  0  0  0  0  0
  153.6059  143.7268  160.6105 H   0  0  0  0  0  0  0  0  0  0  0  0
  153.7846  144.4925  158.3055 H   0  0  0  0  0  0  0  0  0  0  0  0
  152.3485  143.5714  157.8375 H   0  0  0  0  0  0  0  0  0  0  0  0
  152.4681  145.9521  159.7124 H   0  0  0  0  0  0  0  0  0  0  0  0
  151.3896  145.7399  158.3291 H   0  0  0  0  0  0  0  0  0  0  0  0
  150.6631  145.0533  160.9299 H   0  0  0  0  0  0  0  0  0  0  0  0
  150.0297  144.1881  159.5285 H   0  0  0  0  0  0  0  0  0  0  0  0
  151.4607  141.0407  155.8249 H   0  0  0  0  0  0  0  0  0  0  0  0
  151.2025  137.4758  153.7735 H   0  0  0  0  0  0  0  0  0  0  0  0
  1  2  1  0  0  0  0
  1 17  1  0  0  0  0
  1 18  1  0  0  0  0
  1 19  1  0  0  0  0
  2  3  1  0  0  0  0
  2 12  1  0  0  0  0
  2 20  1  0  0  0  0
  3  4  2  0  0  0  0
  3  5  1  0  0  0  0
  5  6  1  0  0  0  0
  5 21  1  0  0  0  0
  6  7  1  0  0  0  0
  6 22  1  0  0  0  0
  6 23  1  0  0  0  0
  7 11  1  0  0  0  0
  7  8  1  0  0  0  0
  7 24  1  0  0  0  0
  8  9  1  0  0  0  0
  8 25  1  0  0  0  0
  8 26  1  0  0  0  0
  9 10  1  0  0  0  0
  9 27  1  0  0  0  0
  9 28  1  0  0  0  0
 10 11  1  0  0  0  0
 10 29  1  0  0  0  0
 10 30  1  0  0  0  0
 12 16  1  0  0  0  0
 12 13  1  0  0  0  0
 13 14  2  0  0  0  0
 13 31  1  0  0  0  0
 14 15  1  0  0  0  0
 15 16  2  0  0  0  0
 15 32  1  0  0  0  0
M  END
> <s_m_source_file>
AV-unprocessed.smi

> <i_m_source_file_index>
3133

> <i_lp_mmshare_version>
43012

> <i_f3d_flags>
0

> <s_epik_input>
bjFbY0hdbltjSF1uMVtDQEhdKFtDSDNdKUMoPU8pW05IXVtDSDJdW0NAQEhdMltDSDJdW0NIMl1bQ0gyXU8y

> <s_epik_cmdline>
J2VwaWtfcHl0aG9uJywgJy1waCcsICc3LjAnLCAnLXRuJywgJzgnLCAnLW1hJywgJzIwMCcsICctbWV0YWxfYmluZGluZycsICctaW1hZScsICc8aW5maWxlLm1hZT4nLCAnLW9tYWUnLCAnPG91dGZpbGUubWFlPic=

> <r_lp_tautomer_probability>
1

> <r_epik_Ionization_Penalty>
1.2027e-05

> <r_epik_Ionization_Penalty_Charging>
0

> <r_epik_Ionization_Penalty_Neutral>
1.2027e-05

> <r_epik_State_Penalty>
-0

> <r_epik_Charging_Adjusted_Penalty>
0

> <i_epik_Tot_Q>
0

> <i_epik_Tot_abs_Q>
0

> <r_epik_Metal_State_Penalty>
-0

> <b_epik_Metal_Only>
0

> <s_lp_Force_Field>
OPLS_2005

> <r_lp_Energy>
22.8462

> <b_lp_Chiralities_Consistent>
1

> <s_lp_Variant>
AV-unprocessed.smi:3133-4

> <Gold.Version>
5.8.1

> <Gold.Id.Protein>
6NUR|6NUR_protein|mol2

> <Gold.PLP.Fitness>
41.6510

> <Gold.PLP.PLP>
-34.6366

> <Gold.PLP.part.hbond>
-2.1839

> <Gold.PLP.part.metal>
0.0000

> <Gold.PLP.part.buried>
-3.7786

> <Gold.PLP.part.nonpolar>
-28.2711

> <Gold.PLP.part.repulsive>
0.3261

> <Gold.PLP.ligand.clash>
0.0000

> <Gold.PLP.ligand.torsion>
0.3141

> <Gold.PLP.Chemscore.Hbond>
2.0000

> <Gold.PLP.Chemscore.CHOScore>
0.5125

> <Gold.PLP.Chemscore.Metal>
0.0000

> <Gold.Chemscore.Hbonds>
donor molecule, donor type, donor heavy atom, donor atom, acceptor molecule, acceptor atom, score
      P1  H  7989  7998       L1    14  1.00
      P1  H  7997  8009       L1     4  1.00
      L1  C    15    32       P1  7949  0.52

> <Gold.PLP.Chemscore.Internal.Correction>
0.1052

> <Gold.Rescore>
     Score         DG    S(hbond)    S(metal)    S(lipo)     H(rot)  DE(clash)    DE(int)     intcor
     14.25     -14.57       1.96        0.00      71.09       2.26       0.01       0.31       ----

> <Gold.Chemscore.Fitness>
14.2512

> <Gold.Chemscore.DG>
-14.5708

> <Gold.Chemscore.ZeroCoef>
-5.4800

> <Gold.Chemscore.Hbond>
1.9605

> <Gold.Chemscore.Metal>
0.0000

> <Gold.Chemscore.Lipo>
71.0899

> <Gold.Chemscore.Internal_Hbond>
0.0000

> <Gold.Chemscore.DEClash>
0.0119

> <Gold.Chemscore.DEInternal>
0.3077

> <Gold.Chemscore.Rot>
2.2558

> <Gold.Chemscore.Internal.Correction>
   9.000000E+99

> <Gold.Chemscore.Hbonds>
donor molecule, donor type, donor heavy atom, donor atom, acceptor molecule, acceptor atom, score
      P1  H  7989  7998       L1    14  0.39
      P1  H  7997  8009       L1     4  0.99

> <Gold.Chemscore.Hbond.Weighted>
-6.5480

> <Gold.Chemscore.Metal.Weighted>
-0.0000

> <Gold.Chemscore.Lipo.Weighted>
-8.3175

> <Gold.Chemscore.Internal_Hbond.Weighted>
0.0000

> <Gold.Chemscore.DEClash.Weighted>
0.0119

> <Gold.Chemscore.DEInternal.Weighted>
0.3077

> <Gold.Chemscore.Rot.Weighted>
5.7747

> <Gold.Chemscore.Internal.Correction.Weighted>
   9.000000E+99

> <Gold.Protein.RotatedTorsions>
[ 6907 6896 6895 6894 ] final  -48.98 input  -60.11 | X-H torsion
[ 7974 7965 7964 7962 ] final  175.74 input  175.53 | X-H torsion
[ 8008 7997 7996 7995 ] final  135.63 input   59.86 | X-H torsion
[ 10167 10162 10161 10158 ] final   56.36 input  -65.29 | X-H torsion
[ 10718 10713 10712 10709 ] final   94.67 input   66.30 | X-H torsion
[ 10763 10752 10751 10750 ] final   10.06 input  -60.55 | X-H torsion
[ 11005 11000 10999 10996 ] final  -42.27 input  -57.11 | X-H torsion

> <Gold.Protein.ActiveResidues>
 VAL166  LYS551  ARG553  GLY616  TRP617  ASP618  TYR619  PRO620  LYS621  CYS622 
 ASP623  PHE694  ASN695  SER759  ASP760  ASP761  ALA762  ILE779  LEU786  VAL792 
 PHE793  MET794  SER795  GLU796  ALA797  LYS798  CYS799  TRP800  GLU811  SER814 

> <Gold.Protein.RotatedAtoms>
  150.8851  134.8247  159.7252 H   0  0  0  0  0  0  0  0  0  0  0  0  # atno 6907 bound_to 6896
  152.4802  134.4736  159.9653 H   0  0  0  0  0  0  0  0  0  0  0  0  # atno 6908 bound_to 6896
  151.4805  133.3509  159.2873 H   0  0  0  0  0  0  0  0  0  0  0  0  # atno 6909 bound_to 6896
  144.7196  139.9992  143.6440 H   0  0  0  0  0  0  0  0  0  0  0  0  # atno 7974 bound_to 7965
  156.3003  140.2466  156.3612 H   0  0  0  0  0  0  0  0  0  0  0  0  # atno 8008 bound_to 7997
  154.8875  140.0410  157.1838 H   0  0  0  0  0  0  0  0  0  0  0  0  # atno 8009 bound_to 7997
  154.8632  140.2923  155.5530 H   0  0  0  0  0  0  0  0  0  0  0  0  # atno 8010 bound_to 7997
  140.2095  144.3904  150.6494 H   0  0  0  0  0  0  0  0  0  0  0  0  # atno 10167 bound_to 10162
  157.6946  131.0520  150.4222 H   0  0  0  0  0  0  0  0  0  0  0  0  # atno 10718 bound_to 10713
  153.2073  135.6864  153.8157 H   0  0  0  0  0  0  0  0  0  0  0  0  # atno 10763 bound_to 10752
  153.7402  135.3239  155.3303 H   0  0  0  0  0  0  0  0  0  0  0  0  # atno 10764 bound_to 10752
  154.8203  135.4656  154.0865 H   0  0  0  0  0  0  0  0  0  0  0  0  # atno 10765 bound_to 10752
  141.0304  133.6822  156.2571 H   0  0  0  0  0  0  0  0  0  0  0  0  # atno 11005 bound_to 11000
  146.0349  139.3368  143.0733 LP  0  0  0  0  0  0  0  0  0  0  0  0  # atno 17320 bound_to 7965
  145.8407  140.9582  143.0801 LP  0  0  0  0  0  0  0  0  0  0  0  0  # atno 17321 bound_to 7965
  140.6333  143.2191  151.6448 LP  0  0  0  0  0  0  0  0  0  0  0  0  # atno 17342 bound_to 10162
  139.5185  144.3281  152.0850 LP  0  0  0  0  0  0  0  0  0  0  0  0  # atno 17343 bound_to 10162
  156.4596  130.4029  149.6584 LP  0  0  0  0  0  0  0  0  0  0  0  0  # atno 17370 bound_to 10713
  156.3704  130.7527  151.2510 LP  0  0  0  0  0  0  0  0  0  0  0  0  # atno 17371 bound_to 10713
  140.6417  134.5159  157.5570 LP  0  0  0  0  0  0  0  0  0  0  0  0  # atno 17394 bound_to 11000
  139.9204  134.8161  156.1230 LP  0  0  0  0  0  0  0  0  0  0  0  0  # atno 17395 bound_to 11000

$$$$
