AV-unprocessed.smi:2008|AV-procd|sdf|8142|dock6
  -GOLD-   2272010383D 1   1.00000     0.00000
 Structure written by MMmdl.
 46 47  0  0  0  0  0  0  0  0  2 V2000
  136.2638  138.4505  154.7402 C   0  0  0  0  0  0  0  0  0  0  0  0
  137.1976  137.3894  154.9095 O   0  0  0  0  0  0  0  0  0  0  0  0
  138.4814  137.5656  154.4354 C   0  0  0  0  0  0  0  0  0  0  0  0
  139.3711  136.4739  154.4749 C   0  0  0  0  0  0  0  0  0  0  0  0
  140.6818  136.6498  153.9931 C   0  0  0  0  0  0  0  0  0  0  0  0
  141.0700  137.9104  153.4959 C   0  0  0  0  0  0  0  0  0  0  0  0
  142.3965  138.0536  153.0056 N   0  0  0  0  0  0  0  0  0  0  0  0
  143.2805  137.0919  152.6883 C   0  0  0  0  0  0  0  0  0  0  0  0
  143.0839  135.8804  152.7823 O   0  0  0  0  0  0  0  0  0  0  0  0
  144.4266  137.6160  152.2304 N   0  0  0  0  0  0  0  0  0  0  0  0
  145.5725  136.8381  151.7734 C   0  0  0  0  0  0  0  0  0  0  0  0
  145.1356  135.6725  150.8642 C   0  0  0  0  0  0  0  0  0  0  0  0
  145.8350  134.3932  151.1643 N   0  3  1  0  0  0  0  0  0  0  0  0
  146.2239  134.2964  152.5975 C   0  0  0  0  0  0  0  0  0  0  0  0
  147.1272  133.0802  152.8551 C   0  0  0  0  0  0  0  0  0  0  0  0
  146.4525  131.7863  152.3889 C   0  0  0  0  0  0  0  0  0  0  0  0
  146.0483  131.9152  150.9142 C   0  0  0  0  0  0  0  0  0  0  0  0
  145.1640  133.1541  150.6558 C   0  0  1  0  0  0  0  0  0  0  0  0
  143.7264  132.9637  151.1864 C   0  0  0  0  0  0  0  0  0  0  0  0
  140.0985  138.9411  153.4867 C   0  0  0  0  0  0  0  0  0  0  0  0
  138.8392  138.7781  153.9454 N   0  0  0  0  0  0  0  0  0  0  0  0
  135.2996  138.1527  155.1521 H   0  0  0  0  0  0  0  0  0  0  0  0
  136.1132  138.6860  153.6856 H   0  0  0  0  0  0  0  0  0  0  0  0
  136.5848  139.3509  155.2660 H   0  0  0  0  0  0  0  0  0  0  0  0
  139.0534  135.5190  154.8668 H   0  0  0  0  0  0  0  0  0  0  0  0
  141.3801  135.8257  154.0113 H   0  0  0  0  0  0  0  0  0  0  0  0
  142.6823  139.0016  152.8081 H   0  0  0  0  0  0  0  0  0  0  0  0
  144.5057  138.6216  152.1808 H   0  0  0  0  0  0  0  0  0  0  0  0
  146.2656  137.5080  151.2641 H   0  0  0  0  0  0  0  0  0  0  0  0
  146.0954  136.4529  152.6492 H   0  0  0  0  0  0  0  0  0  0  0  0
  144.0649  135.5214  151.0097 H   0  0  0  0  0  0  0  0  0  0  0  0
  145.2562  135.9280  149.8113 H   0  0  0  0  0  0  0  0  0  0  0  0
  146.7612  135.1985  152.8927 H   0  0  0  0  0  0  0  0  0  0  0  0
  145.3330  134.2486  153.2245 H   0  0  0  0  0  0  0  0  0  0  0  0
  148.0741  133.2093  152.3291 H   0  0  0  0  0  0  0  0  0  0  0  0
  147.3695  133.0132  153.9162 H   0  0  0  0  0  0  0  0  0  0  0  0
  147.1291  130.9415  152.5207 H   0  0  0  0  0  0  0  0  0  0  0  0
  145.5760  131.5803  153.0040 H   0  0  0  0  0  0  0  0  0  0  0  0
  146.9510  131.9877  150.3058 H   0  0  0  0  0  0  0  0  0  0  0  0
  145.5371  131.0094  150.5865 H   0  0  0  0  0  0  0  0  0  0  0  0
  145.0906  133.2366  149.5722 H   0  0  0  0  0  0  0  0  0  0  0  0
  143.2979  132.0356  150.8078 H   0  0  0  0  0  0  0  0  0  0  0  0
  143.0642  133.7660  150.8615 H   0  0  0  0  0  0  0  0  0  0  0  0
  143.6872  132.9174  152.2743 H   0  0  0  0  0  0  0  0  0  0  0  0
  140.3068  139.9218  153.0891 H   0  0  0  0  0  0  0  0  0  0  0  0
  146.7099  134.4453  150.6622 H   0  0  0  0  0  0  0  0  0  0  0  0
  1  2  1  0  0  0  0
  1 22  1  0  0  0  0
  1 23  1  0  0  0  0
  1 24  1  0  0  0  0
  2  3  1  0  0  0  0
  3 21  1  0  0  0  0
  3  4  2  0  0  0  0
  4  5  1  0  0  0  0
  4 25  1  0  0  0  0
  5  6  2  0  0  0  0
  5 26  1  0  0  0  0
  6  7  1  0  0  0  0
  6 20  1  0  0  0  0
  7  8  1  0  0  0  0
  7 27  1  0  0  0  0
  8  9  2  0  0  0  0
  8 10  1  0  0  0  0
 10 11  1  0  0  0  0
 10 28  1  0  0  0  0
 11 12  1  0  0  0  0
 11 29  1  0  0  0  0
 11 30  1  0  0  0  0
 12 13  1  0  0  0  0
 12 31  1  0  0  0  0
 12 32  1  0  0  0  0
 13 18  1  0  0  0  0
 13 14  1  0  0  0  0
 13 46  1  0  0  0  0
 14 15  1  0  0  0  0
 14 33  1  0  0  0  0
 14 34  1  0  0  0  0
 15 16  1  0  0  0  0
 15 35  1  0  0  0  0
 15 36  1  0  0  0  0
 16 17  1  0  0  0  0
 16 37  1  0  0  0  0
 16 38  1  0  0  0  0
 17 18  1  0  0  0  0
 17 39  1  0  0  0  0
 17 40  1  0  0  0  0
 18 19  1  0  0  0  0
 18 41  1  0  0  0  0
 19 42  1  0  0  0  0
 19 43  1  0  0  0  0
 19 44  1  0  0  0  0
 20 21  2  0  0  0  0
 20 45  1  0  0  0  0
M  CHG  1  13   1
M  END
> <s_m_source_file>
AV-unprocessed.smi

> <i_m_source_file_index>
2008

> <i_lp_mmshare_version>
43012

> <i_f3d_flags>
0

> <s_epik_input>
W0NIM11PYzFbY0hdW2NIXWMoW2NIXW4xKVtOSF1DKD1PKVtOSF1bQ0gyXVtDSDJdTjJbQ0gyXVtDSDJdW0NIMl1bQ0gyXVtDQEhdMltDSDNd

> <s_epik_cmdline>
J2VwaWtfcHl0aG9uJywgJy1waCcsICc3LjAnLCAnLXRuJywgJzgnLCAnLW1hJywgJzIwMCcsICctbWV0YWxfYmluZGluZycsICctaW1hZScsICc8aW5maWxlLm1hZT4nLCAnLW9tYWUnLCAnPG91dGZpbGUubWFlPic=

> <r_lp_tautomer_probability>
1

> <r_epik_Ionization_Penalty>
0.00219526

> <r_epik_Ionization_Penalty_Charging>
0.00211816

> <r_epik_Ionization_Penalty_Neutral>
7.71003e-05

> <r_epik_State_Penalty>
0.00145254

> <r_epik_Charging_Adjusted_Penalty>
0.0035707

> <i_epik_Tot_Q>
1

> <i_epik_Tot_abs_Q>
1

> <r_epik_Metal_State_Penalty>
-0

> <b_epik_Metal_Only>
0

> <s_lp_Force_Field>
OPLS_2005

> <r_lp_Energy>
23.0137

> <b_lp_Chiralities_Consistent>
1

> <s_lp_Variant>
AV-unprocessed.smi:2008-2

> <Gold.Version>
5.8.1

> <Gold.Id.Protein>
6NUR|6NUR_protein|mol2

> <Gold.PLP.Fitness>
46.6505

> <Gold.PLP.PLP>
-39.3947

> <Gold.PLP.part.hbond>
-3.0000

> <Gold.PLP.part.metal>
0.0000

> <Gold.PLP.part.buried>
-4.0399

> <Gold.PLP.part.nonpolar>
-32.8594

> <Gold.PLP.part.repulsive>
0.4427

> <Gold.PLP.ligand.clash>
0.0000

> <Gold.PLP.ligand.torsion>
0.7839

> <Gold.PLP.Chemscore.Hbond>
1.9920

> <Gold.PLP.Chemscore.CHOScore>
0.9308

> <Gold.PLP.Chemscore.Metal>
0.0000

> <Gold.Chemscore.Hbonds>
donor molecule, donor type, donor heavy atom, donor atom, acceptor molecule, acceptor atom, score
      L1  H     7    27       P1 10175  1.00
      L1  H    10    28       P1 10175  0.98
      L1  C    20    45       P1 10160  0.94

> <Gold.PLP.Chemscore.Internal.Correction>
0.0551

> <Gold.Rescore>
     Score         DG    S(hbond)    S(metal)    S(lipo)     H(rot)  DE(clash)    DE(int)     intcor
     14.14     -17.71       1.95        0.00      86.32       1.71       0.01       3.56       ----

> <Gold.Chemscore.Fitness>
14.1400

> <Gold.Chemscore.DG>
-17.7132

> <Gold.Chemscore.ZeroCoef>
-5.4800

> <Gold.Chemscore.Hbond>
1.9500

> <Gold.Chemscore.Metal>
0.0000

> <Gold.Chemscore.Lipo>
86.3207

> <Gold.Chemscore.Internal_Hbond>
0.0000

> <Gold.Chemscore.DEClash>
0.0130

> <Gold.Chemscore.DEInternal>
3.5601

> <Gold.Chemscore.Rot>
1.7107

> <Gold.Chemscore.Internal.Correction>
   9.000000E+99

> <Gold.Chemscore.Hbonds>
donor molecule, donor type, donor heavy atom, donor atom, acceptor molecule, acceptor atom, score
      L1  H     7    27       P1 10175  1.00
      L1  H    10    28       P1 10175  0.88

> <Gold.Chemscore.Hbond.Weighted>
-6.5131

> <Gold.Chemscore.Metal.Weighted>
-0.0000

> <Gold.Chemscore.Lipo.Weighted>
-10.0995

> <Gold.Chemscore.Internal_Hbond.Weighted>
0.0000

> <Gold.Chemscore.DEClash.Weighted>
0.0130

> <Gold.Chemscore.DEInternal.Weighted>
3.5601

> <Gold.Chemscore.Rot.Weighted>
4.3794

> <Gold.Chemscore.Internal.Correction.Weighted>
   9.000000E+99

> <Gold.Protein.RotatedTorsions>
[ 6907 6896 6895 6894 ] final -172.89 input  -60.11 | X-H torsion
[ 7974 7965 7964 7962 ] final   46.45 input  175.53 | X-H torsion
[ 8008 7997 7996 7995 ] final   55.99 input   59.86 | X-H torsion
[ 10167 10162 10161 10158 ] final   69.00 input  -65.29 | X-H torsion
[ 10718 10713 10712 10709 ] final -157.81 input   66.30 | X-H torsion
[ 10763 10752 10751 10750 ] final  -50.76 input  -60.55 | X-H torsion
[ 11005 11000 10999 10996 ] final  -73.66 input  -57.11 | X-H torsion

> <Gold.Protein.ActiveResidues>
 VAL166  LYS551  ARG553  GLY616  TRP617  ASP618  TYR619  PRO620  LYS621  CYS622 
 ASP623  PHE694  ASN695  SER759  ASP760  ASP761  ALA762  ILE779  LEU786  VAL792 
 PHE793  MET794  SER795  GLU796  ALA797  LYS798  CYS799  TRP800  GLU811  SER814 

> <Gold.Protein.RotatedAtoms>
  151.5472  133.3423  159.2946 H   0  0  0  0  0  0  0  0  0  0  0  0  # atno 6907 bound_to 6896
  150.8500  134.7824  159.7012 H   0  0  0  0  0  0  0  0  0  0  0  0  # atno 6908 bound_to 6896
  152.4548  134.5323  159.9866 H   0  0  0  0  0  0  0  0  0  0  0  0  # atno 6909 bound_to 6896
  146.0389  139.4855  142.9791 H   0  0  0  0  0  0  0  0  0  0  0  0  # atno 7974 bound_to 7965
  155.5101  140.3477  155.4387 H   0  0  0  0  0  0  0  0  0  0  0  0  # atno 8008 bound_to 7997
  156.0855  140.1397  156.9686 H   0  0  0  0  0  0  0  0  0  0  0  0  # atno 8009 bound_to 7997
  154.4604  140.0937  156.6853 H   0  0  0  0  0  0  0  0  0  0  0  0  # atno 8010 bound_to 7997
  140.0726  144.5140  150.7217 H   0  0  0  0  0  0  0  0  0  0  0  0  # atno 10167 bound_to 10162
  156.5454  130.8582  151.2762 H   0  0  0  0  0  0  0  0  0  0  0  0  # atno 10718 bound_to 10713
  154.1156  135.6542  153.4893 H   0  0  0  0  0  0  0  0  0  0  0  0  # atno 10763 bound_to 10752
  153.0242  135.5258  154.7148 H   0  0  0  0  0  0  0  0  0  0  0  0  # atno 10764 bound_to 10752
  154.6341  135.2980  155.0152 H   0  0  0  0  0  0  0  0  0  0  0  0  # atno 10765 bound_to 10752
  141.1625  133.6885  156.7245 H   0  0  0  0  0  0  0  0  0  0  0  0  # atno 11005 bound_to 11000
  145.6918  141.0162  143.1551 LP  0  0  0  0  0  0  0  0  0  0  0  0  # atno 17320 bound_to 7965
  144.7065  139.8542  143.7428 LP  0  0  0  0  0  0  0  0  0  0  0  0  # atno 17321 bound_to 7965
  140.7118  143.2511  151.4558 LP  0  0  0  0  0  0  0  0  0  0  0  0  # atno 17342 bound_to 10162
  139.5827  144.1674  152.1989 LP  0  0  0  0  0  0  0  0  0  0  0  0  # atno 17343 bound_to 10162
  157.7397  130.9837  150.2333 LP  0  0  0  0  0  0  0  0  0  0  0  0  # atno 17370 bound_to 10713
  156.2933  130.3748  149.7820 LP  0  0  0  0  0  0  0  0  0  0  0  0  # atno 17371 bound_to 10713
  140.2791  134.8331  157.3917 LP  0  0  0  0  0  0  0  0  0  0  0  0  # atno 17394 bound_to 11000
  140.1450  134.4923  155.8003 LP  0  0  0  0  0  0  0  0  0  0  0  0  # atno 17395 bound_to 11000

$$$$
