AV-unprocessed.smi:53|AV-procd|sdf|526|dock2
  -GOLD-   2262016403D 1   1.00000     0.00000
 Structure written by MMmdl.
 30 31  0  0  0  0  0  0  0  0  1 V2000
  152.9412  142.1251  161.1306 N   0  0  0  0  0  0  0  0  0  0  0  0
  152.5073  141.9742  159.8711 C   0  0  0  0  0  0  0  0  0  0  0  0
  152.4634  140.6618  159.2670 C   0  0  0  0  0  0  0  0  0  0  0  0
  152.0154  140.5892  157.9941 C   0  0  0  0  0  0  0  0  0  0  0  0
  151.6129  141.7147  157.2859 N   0  0  0  0  0  0  0  0  0  0  0  0
  151.1168  141.6373  155.8522 C   0  0  1  0  0  0  0  0  0  0  0  0
  151.3716  140.3652  155.3306 O   0  0  0  0  0  0  0  0  0  0  0  0
  150.1567  139.6318  155.2097 C   0  0  2  0  0  0  0  0  0  0  0  0
  150.2920  138.4936  154.1836 C   0  0  0  0  0  0  0  0  0  0  0  0
  149.0518  137.8396  154.0193 O   0  0  0  0  0  0  0  0  0  0  0  0
  149.1350  140.7208  154.8620 C   0  0  2  0  0  0  0  0  0  0  0  0
  149.1895  141.0544  153.4863 O   0  0  0  0  0  0  0  0  0  0  0  0
  149.5948  141.8954  155.7154 C   0  0  1  0  0  0  0  0  0  0  0  0
  148.8973  141.8845  156.9497 O   0  0  0  0  0  0  0  0  0  0  0  0
  151.6662  142.9857  157.9070 C   0  0  0  0  0  0  0  0  0  0  0  0
  151.3072  144.0061  157.3203 O   0  0  0  0  0  0  0  0  0  0  0  0
  152.1230  143.0403  159.1966 N   0  0  0  0  0  0  0  0  0  0  0  0
  151.7278  142.3456  155.2889 H   0  0  0  0  0  0  0  0  0  0  0  0
  149.8874  139.2227  156.1853 H   0  0  0  0  0  0  0  0  0  0  0  0
  148.1148  140.4092  155.0910 H   0  0  0  0  0  0  0  0  0  0  0  0
  149.4239  142.8579  155.2313 H   0  0  0  0  0  0  0  0  0  0  0  0
  152.9706  143.0431  161.5497 H   0  0  0  0  0  0  0  0  0  0  0  0
  153.2373  141.3171  161.6591 H   0  0  0  0  0  0  0  0  0  0  0  0
  152.7681  139.7609  159.7803 H   0  0  0  0  0  0  0  0  0  0  0  0
  151.9823  139.6110  157.5394 H   0  0  0  0  0  0  0  0  0  0  0  0
  150.5782  138.8970  153.2120 H   0  0  0  0  0  0  0  0  0  0  0  0
  151.0596  137.7780  154.4802 H   0  0  0  0  0  0  0  0  0  0  0  0
  149.1164  137.2524  153.2816 H   0  0  0  0  0  0  0  0  0  0  0  0
  149.2473  140.2556  152.9849 H   0  0  0  0  0  0  0  0  0  0  0  0
  148.2673  141.1799  156.9266 H   0  0  0  0  0  0  0  0  0  0  0  0
  1  2  1  0  0  0  0
  1 22  1  0  0  0  0
  1 23  1  0  0  0  0
  2 17  2  0  0  0  0
  2  3  1  0  0  0  0
  3  4  2  0  0  0  0
  3 24  1  0  0  0  0
  4  5  1  0  0  0  0
  4 25  1  0  0  0  0
  5  6  1  0  0  0  0
  5 15  1  0  0  0  0
  6 18  1  0  0  0  0
  6 13  1  0  0  0  0
  6  7  1  0  0  0  0
  7  8  1  0  0  0  0
  8 19  1  0  0  0  0
  8  9  1  0  0  0  0
  8 11  1  0  0  0  0
  9 10  1  0  0  0  0
  9 26  1  0  0  0  0
  9 27  1  0  0  0  0
 10 28  1  0  0  0  0
 11 20  1  0  0  0  0
 11 12  1  0  0  0  0
 11 13  1  0  0  0  0
 12 29  1  0  0  0  0
 13 21  1  0  0  0  0
 13 14  1  0  0  0  0
 14 30  1  0  0  0  0
 15 16  2  0  0  0  0
 15 17  1  0  0  0  0
M  END
> <s_m_source_file>
AV-unprocessed.smi

> <i_m_source_file_index>
53

> <i_lp_mmshare_version>
43012

> <i_f3d_flags>
0

> <s_epik_input>
W05IMl1jMVtjSF1bY0hdbihjKD1PKW4xKVtDQEBIXTJPW0NASF0oW0NIMl1bT0hdKVtDQEBIXShbT0hdKVtDQEBIXTJbT0hd

> <s_epik_cmdline>
J2VwaWtfcHl0aG9uJywgJy1waCcsICc3LjAnLCAnLXRuJywgJzgnLCAnLW1hJywgJzIwMCcsICctbWV0YWxfYmluZGluZycsICctaW1hZScsICc8aW5maWxlLm1hZT4nLCAnLW9tYWUnLCAnPG91dGZpbGUubWFlPic=

> <r_lp_tautomer_probability>
0.99996

> <r_epik_Ionization_Penalty>
0.00069087

> <r_epik_Ionization_Penalty_Charging>
2.61959e-08

> <r_epik_Ionization_Penalty_Neutral>
0.000690844

> <r_epik_State_Penalty>
1.15523e-05

> <r_epik_Charging_Adjusted_Penalty>
1.15785e-05

> <i_epik_Tot_Q>
0

> <i_epik_Tot_abs_Q>
0

> <r_epik_Metal_State_Penalty>
-0

> <b_epik_Metal_Only>
0

> <s_epik_Chemistry_Notes>
This compound contains an acetal/aminal-like group ( X-CH(R)-Y where X, Y are N, S, or O) that may be acid/base labile, releasing an aldehyde.

> <s_lp_Force_Field>
OPLS_2005

> <r_lp_Energy>
36.7572

> <b_lp_Chiralities_Consistent>
1

> <s_lp_Variant>
AV-unprocessed.smi:53-14

> <Gold.Version>
5.8.1

> <Gold.Id.Protein>
6NUR|6NUR_protein|mol2

> <Gold.PLP.Fitness>
39.0467

> <Gold.PLP.PLP>
-28.5890

> <Gold.PLP.part.hbond>
-5.4579

> <Gold.PLP.part.metal>
0.0000

> <Gold.PLP.part.buried>
-5.2794

> <Gold.PLP.part.nonpolar>
-17.4981

> <Gold.PLP.part.repulsive>
0.5469

> <Gold.PLP.ligand.clash>
0.0000

> <Gold.PLP.ligand.torsion>
0.2257

> <Gold.PLP.Chemscore.Hbond>
3.6160

> <Gold.PLP.Chemscore.CHOScore>
0.0000

> <Gold.PLP.Chemscore.Metal>
0.0000

> <Gold.Chemscore.Hbonds>
donor molecule, donor type, donor heavy atom, donor atom, acceptor molecule, acceptor atom, score
      L1  H    10    28       P1  7948  1.00
      L1  H    12    29       P1  7957  0.58
      P1  H  7989  7998       L1     7  0.85
      P1  H  8011  8017       L1    12  1.00

> <Gold.PLP.Chemscore.Internal.Correction>
0.0610

> <Gold.Rescore>
     Score         DG    S(hbond)    S(metal)    S(lipo)     H(rot)  DE(clash)    DE(int)     intcor
      7.02      -8.01       2.17        0.00      40.95       3.71       0.76       0.23       ----

> <Gold.Chemscore.Fitness>
7.0245

> <Gold.Chemscore.DG>
-8.0065

> <Gold.Chemscore.ZeroCoef>
-5.4800

> <Gold.Chemscore.Hbond>
2.1652

> <Gold.Chemscore.Metal>
0.0000

> <Gold.Chemscore.Lipo>
40.9489

> <Gold.Chemscore.Internal_Hbond>
0.0000

> <Gold.Chemscore.DEClash>
0.7562

> <Gold.Chemscore.DEInternal>
0.2257

> <Gold.Chemscore.Rot>
3.7095

> <Gold.Chemscore.Internal.Correction>
   9.000000E+99

> <Gold.Chemscore.Hbonds>
donor molecule, donor type, donor heavy atom, donor atom, acceptor molecule, acceptor atom, score
      L1  H    10    28       P1  7948  1.00
      L1  H    12    29       P1  7957  0.58
      P1  H  7989  7998       L1     7  0.05
      P1  H  8011  8017       L1    12  0.48

> <Gold.Chemscore.Hbond.Weighted>
-7.2318

> <Gold.Chemscore.Metal.Weighted>
-0.0000

> <Gold.Chemscore.Lipo.Weighted>
-4.7910

> <Gold.Chemscore.Internal_Hbond.Weighted>
0.0000

> <Gold.Chemscore.DEClash.Weighted>
0.7562

> <Gold.Chemscore.DEInternal.Weighted>
0.2257

> <Gold.Chemscore.Rot.Weighted>
9.4964

> <Gold.Chemscore.Internal.Correction.Weighted>
   9.000000E+99

> <Gold.Protein.RotatedTorsions>
[ 6907 6896 6895 6894 ] final  106.59 input  -60.11 | X-H torsion
[ 7974 7965 7964 7962 ] final  159.14 input  175.53 | X-H torsion
[ 8008 7997 7996 7995 ] final  -71.66 input   59.86 | X-H torsion
[ 10167 10162 10161 10158 ] final   12.90 input  -65.29 | X-H torsion
[ 10718 10713 10712 10709 ] final   80.88 input   66.30 | X-H torsion
[ 10763 10752 10751 10750 ] final -163.54 input  -60.55 | X-H torsion
[ 11005 11000 10999 10996 ] final -101.56 input  -57.11 | X-H torsion

> <Gold.Protein.ActiveResidues>
 VAL166  LYS551  ARG553  GLY616  TRP617  ASP618  TYR619  PRO620  LYS621  CYS622 
 ASP623  PHE694  ASN695  SER759  ASP760  ASP761  ALA762  ILE779  LEU786  VAL792 
 PHE793  MET794  SER795  GLU796  ALA797  LYS798  CYS799  TRP800  GLU811  SER814 

> <Gold.Protein.RotatedAtoms>
  152.5188  133.9358  159.7602 H   0  0  0  0  0  0  0  0  0  0  0  0  # atno 6907 bound_to 6896
  150.9699  133.6347  159.2747 H   0  0  0  0  0  0  0  0  0  0  0  0  # atno 6908 bound_to 6896
  151.3562  135.0900  159.9472 H   0  0  0  0  0  0  0  0  0  0  0  0  # atno 6909 bound_to 6896
  144.7806  139.7576  143.6261 H   0  0  0  0  0  0  0  0  0  0  0  0  # atno 7974 bound_to 7965
  154.5105  140.0811  156.7980 H   0  0  0  0  0  0  0  0  0  0  0  0  # atno 8008 bound_to 7997
  155.3796  140.3427  155.4228 H   0  0  0  0  0  0  0  0  0  0  0  0  # atno 8009 bound_to 7997
  156.1567  140.1575  156.8668 H   0  0  0  0  0  0  0  0  0  0  0  0  # atno 8010 bound_to 7997
  140.6038  143.8550  150.6992 H   0  0  0  0  0  0  0  0  0  0  0  0  # atno 10167 bound_to 10162
  157.6818  130.9979  150.2144 H   0  0  0  0  0  0  0  0  0  0  0  0  # atno 10718 bound_to 10713
  154.7113  135.3007  154.9193 H   0  0  0  0  0  0  0  0  0  0  0  0  # atno 10763 bound_to 10752
  154.0094  135.6697  153.4768 H   0  0  0  0  0  0  0  0  0  0  0  0  # atno 10764 bound_to 10752
  153.0757  135.5036  154.8312 H   0  0  0  0  0  0  0  0  0  0  0  0  # atno 10765 bound_to 10752
  141.1226  133.8487  157.1247 H   0  0  0  0  0  0  0  0  0  0  0  0  # atno 11005 bound_to 11000
  146.2012  139.5308  142.9742 LP  0  0  0  0  0  0  0  0  0  0  0  0  # atno 17320 bound_to 7965
  145.6060  141.0347  143.1992 LP  0  0  0  0  0  0  0  0  0  0  0  0  # atno 17321 bound_to 7965
  140.2103  143.3889  152.1724 LP  0  0  0  0  0  0  0  0  0  0  0  0  # atno 17342 bound_to 10162
  139.5310  144.7158  151.5057 LP  0  0  0  0  0  0  0  0  0  0  0  0  # atno 17343 bound_to 10162
  156.2808  130.3733  149.7937 LP  0  0  0  0  0  0  0  0  0  0  0  0  # atno 17370 bound_to 10713
  156.5626  130.8390  151.3333 LP  0  0  0  0  0  0  0  0  0  0  0  0  # atno 17371 bound_to 10713
  140.0196  134.9952  157.0564 LP  0  0  0  0  0  0  0  0  0  0  0  0  # atno 17394 bound_to 11000
  140.4462  134.1629  155.7177 LP  0  0  0  0  0  0  0  0  0  0  0  0  # atno 17395 bound_to 11000

$$$$
