AV-unprocessed.smi:415|AV-procd|sdf|2520|dock2
  -GOLD-   2262022473D 1   1.00000     0.00000
 Structure written by MMmdl.
 53 54  0  0  0  0  0  0  0  0  1 V2000
  149.4101  133.7466  154.3339 C   0  0  0  0  0  0  0  0  0  0  0  0
  149.3596  135.1013  154.7444 O   0  0  0  0  0  0  0  0  0  0  0  0
  148.1026  135.4581  155.2946 C   0  0  0  0  0  0  0  0  0  0  0  0
  148.0457  136.9751  155.5390 C   0  0  0  0  0  0  0  0  0  0  0  0
  149.3483  137.6112  155.4735 N   0  0  0  0  0  0  0  0  0  0  0  0
  149.7486  138.4095  154.4058 C   0  0  0  0  0  0  0  0  0  0  0  0
  148.8728  138.6405  153.3601 N   0  0  0  0  0  0  0  0  0  0  0  0
  150.9747  138.9767  154.3706 C   0  0  0  0  0  0  0  0  0  0  0  0
  151.9406  138.7884  155.4436 C   0  0  0  0  0  0  0  0  0  0  0  0
  153.0742  139.2677  155.4140 O   0  0  0  0  0  0  0  0  0  0  0  0
  151.5024  138.0007  156.5326 N   0  0  0  0  0  0  0  0  0  0  0  0
  152.4388  137.7512  157.6544 C   0  0  0  0  0  0  0  0  0  0  0  0
  153.0456  139.0199  158.2807 C   0  0  0  0  0  0  0  0  0  0  0  0
  154.2469  139.0428  158.5453 O   0  0  0  0  0  0  0  0  0  0  0  0
  152.2300  140.0642  158.5032 N   0  0  0  0  0  0  0  0  0  0  0  0
  152.6250  141.3717  159.0185 C   0  0  2  0  0  0  0  0  0  0  0  0
  153.0174  141.2437  160.5029 C   0  0  0  0  0  0  0  0  0  0  0  0
  153.3964  142.6041  161.0950 C   0  0  0  0  0  0  0  0  0  0  0  0
  152.2485  143.6052  160.9266 C   0  0  0  0  0  0  0  0  0  0  0  0
  151.8406  143.7702  159.4486 C   0  0  2  0  0  0  0  0  0  0  0  0
  150.7065  144.8063  159.3423 C   0  0  0  0  0  0  0  0  0  0  0  0
  151.4784  142.3985  158.8110 C   0  0  1  0  0  0  0  0  0  0  0  0
  151.1138  142.5307  157.3151 C   0  0  0  0  0  0  0  0  0  0  0  0
  150.2185  137.4094  156.5755 C   0  0  0  0  0  0  0  0  0  0  0  0
  149.8835  136.7261  157.5468 O   0  0  0  0  0  0  0  0  0  0  0  0
  150.3932  133.5266  153.9181 H   0  0  0  0  0  0  0  0  0  0  0  0
  148.6652  133.5391  153.5646 H   0  0  0  0  0  0  0  0  0  0  0  0
  149.2418  133.0736  155.1757 H   0  0  0  0  0  0  0  0  0  0  0  0
  147.3122  135.1754  154.5982 H   0  0  0  0  0  0  0  0  0  0  0  0
  147.9240  134.9156  156.2243 H   0  0  0  0  0  0  0  0  0  0  0  0
  147.3642  137.4826  154.8546 H   0  0  0  0  0  0  0  0  0  0  0  0
  147.6528  137.1919  156.5321 H   0  0  0  0  0  0  0  0  0  0  0  0
  147.9435  138.2452  153.3457 H   0  0  0  0  0  0  0  0  0  0  0  0
  149.1346  139.1957  152.5583 H   0  0  0  0  0  0  0  0  0  0  0  0
  151.2571  139.5876  153.5248 H   0  0  0  0  0  0  0  0  0  0  0  0
  151.9599  137.1796  158.4504 H   0  0  0  0  0  0  0  0  0  0  0  0
  153.2581  137.1067  157.3317 H   0  0  0  0  0  0  0  0  0  0  0  0
  151.2565  139.9535  158.2597 H   0  0  0  0  0  0  0  0  0  0  0  0
  153.4950  141.7206  158.4585 H   0  0  0  0  0  0  0  0  0  0  0  0
  152.1892  140.8171  161.0708 H   0  0  0  0  0  0  0  0  0  0  0  0
  153.8552  140.5547  160.6146 H   0  0  0  0  0  0  0  0  0  0  0  0
  153.6433  142.4945  162.1512 H   0  0  0  0  0  0  0  0  0  0  0  0
  154.2931  142.9835  160.6037 H   0  0  0  0  0  0  0  0  0  0  0  0
  151.3898  143.2744  161.5125 H   0  0  0  0  0  0  0  0  0  0  0  0
  152.5497  144.5683  161.3403 H   0  0  0  0  0  0  0  0  0  0  0  0
  152.7020  144.1733  158.9137 H   0  0  0  0  0  0  0  0  0  0  0  0
  149.7820  144.4291  159.7802 H   0  0  0  0  0  0  0  0  0  0  0  0
  150.5022  145.0827  158.3087 H   0  0  0  0  0  0  0  0  0  0  0  0
  150.9677  145.7267  159.8655 H   0  0  0  0  0  0  0  0  0  0  0  0
  150.5955  142.0173  159.3274 H   0  0  0  0  0  0  0  0  0  0  0  0
  151.9413  142.9516  156.7432 H   0  0  0  0  0  0  0  0  0  0  0  0
  150.2440  143.1685  157.1644 H   0  0  0  0  0  0  0  0  0  0  0  0
  150.8616  141.5689  156.8687 H   0  0  0  0  0  0  0  0  0  0  0  0
  1  2  1  0  0  0  0
  1 26  1  0  0  0  0
  1 27  1  0  0  0  0
  1 28  1  0  0  0  0
  2  3  1  0  0  0  0
  3  4  1  0  0  0  0
  3 29  1  0  0  0  0
  3 30  1  0  0  0  0
  4  5  1  0  0  0  0
  4 31  1  0  0  0  0
  4 32  1  0  0  0  0
  5 24  1  0  0  0  0
  5  6  1  0  0  0  0
  6  7  1  0  0  0  0
  6  8  2  0  0  0  0
  7 33  1  0  0  0  0
  7 34  1  0  0  0  0
  8  9  1  0  0  0  0
  8 35  1  0  0  0  0
  9 10  2  0  0  0  0
  9 11  1  0  0  0  0
 11 12  1  0  0  0  0
 11 24  1  0  0  0  0
 12 13  1  0  0  0  0
 12 36  1  0  0  0  0
 12 37  1  0  0  0  0
 13 14  2  0  0  0  0
 13 15  1  0  0  0  0
 15 16  1  0  0  0  0
 15 38  1  0  0  0  0
 16 22  1  0  0  0  0
 16 17  1  0  0  0  0
 16 39  1  0  0  0  0
 17 18  1  0  0  0  0
 17 40  1  0  0  0  0
 17 41  1  0  0  0  0
 18 19  1  0  0  0  0
 18 42  1  0  0  0  0
 18 43  1  0  0  0  0
 19 20  1  0  0  0  0
 19 44  1  0  0  0  0
 19 45  1  0  0  0  0
 20 21  1  0  0  0  0
 20 22  1  0  0  0  0
 20 46  1  0  0  0  0
 21 47  1  0  0  0  0
 21 48  1  0  0  0  0
 21 49  1  0  0  0  0
 22 23  1  0  0  0  0
 22 50  1  0  0  0  0
 23 51  1  0  0  0  0
 23 52  1  0  0  0  0
 23 53  1  0  0  0  0
 24 25  2  0  0  0  0
M  END
> <s_m_source_file>
AV-unprocessed.smi

> <i_m_source_file_index>
415

> <i_lp_mmshare_version>
43012

> <i_f3d_flags>
0

> <s_epik_input>
W0NIM11PW0NIMl1bQ0gyXW4xYyhbTkgyXSlbY0hdYyg9TyluKGMxPU8pW0NIMl1DKD1PKVtOSF1bQ0BASF0yW0NIMl1bQ0gyXVtDSDJdW0NAQEhdKFtDSDNdKVtDQEhdMltDSDNd

> <s_epik_cmdline>
J2VwaWtfcHl0aG9uJywgJy1waCcsICc3LjAnLCAnLXRuJywgJzgnLCAnLW1hJywgJzIwMCcsICctbWV0YWxfYmluZGluZycsICctaW1hZScsICc8aW5maWxlLm1hZT4nLCAnLW9tYWUnLCAnPG91dGZpbGUubWFlPic=

> <r_lp_tautomer_probability>
1

> <r_epik_Ionization_Penalty>
8.6647e-06

> <r_epik_Ionization_Penalty_Charging>
1.81162e-08

> <r_epik_Ionization_Penalty_Neutral>
8.64658e-06

> <r_epik_State_Penalty>
-0

> <r_epik_Charging_Adjusted_Penalty>
1.81162e-08

> <i_epik_Tot_Q>
0

> <i_epik_Tot_abs_Q>
0

> <r_epik_Metal_State_Penalty>
-0

> <b_epik_Metal_Only>
0

> <s_lp_Force_Field>
OPLS_2005

> <r_lp_Energy>
21.9512

> <b_lp_Chiralities_Consistent>
1

> <s_lp_Variant>
AV-unprocessed.smi:415-3

> <Gold.Version>
5.8.1

> <Gold.Id.Protein>
6NUR|6NUR_protein|mol2

> <Gold.PLP.Fitness>
50.4153

> <Gold.PLP.PLP>
-43.1556

> <Gold.PLP.part.hbond>
-4.0000

> <Gold.PLP.part.metal>
0.0000

> <Gold.PLP.part.buried>
-6.8153

> <Gold.PLP.part.nonpolar>
-32.1275

> <Gold.PLP.part.repulsive>
0.6839

> <Gold.PLP.ligand.clash>
0.0000

> <Gold.PLP.ligand.torsion>
0.9040

> <Gold.PLP.Chemscore.Hbond>
3.0000

> <Gold.PLP.Chemscore.CHOScore>
0.0000

> <Gold.PLP.Chemscore.Metal>
0.0000

> <Gold.Chemscore.Hbonds>
donor molecule, donor type, donor heavy atom, donor atom, acceptor molecule, acceptor atom, score
      L1  H     7    34       P1  7957  1.00
      P1  H  7997  8009       L1    14  1.00
      P1  H  7997  8010       L1    10  1.00

> <Gold.PLP.Chemscore.Internal.Correction>
0.0677

> <Gold.Rescore>
     Score         DG    S(hbond)    S(metal)    S(lipo)     H(rot)  DE(clash)    DE(int)     intcor
     19.18     -21.24       2.86        0.00     102.53       2.26       0.00       2.06       ----

> <Gold.Chemscore.Fitness>
19.1750

> <Gold.Chemscore.DG>
-21.2367

> <Gold.Chemscore.ZeroCoef>
-5.4800

> <Gold.Chemscore.Hbond>
2.8615

> <Gold.Chemscore.Metal>
0.0000

> <Gold.Chemscore.Lipo>
102.5329

> <Gold.Chemscore.Internal_Hbond>
0.0000

> <Gold.Chemscore.DEClash>
0.0000

> <Gold.Chemscore.DEInternal>
2.0617

> <Gold.Chemscore.Rot>
2.2645

> <Gold.Chemscore.Internal.Correction>
   9.000000E+99

> <Gold.Chemscore.Hbonds>
donor molecule, donor type, donor heavy atom, donor atom, acceptor molecule, acceptor atom, score
      L1  H     7    34       P1  7957  1.00
      P1  H  7997  8009       L1    14  0.80
      P1  H  7997  8010       L1    10  0.94

> <Gold.Chemscore.Hbond.Weighted>
-9.5575

> <Gold.Chemscore.Metal.Weighted>
-0.0000

> <Gold.Chemscore.Lipo.Weighted>
-11.9963

> <Gold.Chemscore.Internal_Hbond.Weighted>
0.0000

> <Gold.Chemscore.DEClash.Weighted>
0.0000

> <Gold.Chemscore.DEInternal.Weighted>
2.0617

> <Gold.Chemscore.Rot.Weighted>
5.7972

> <Gold.Chemscore.Internal.Correction.Weighted>
   9.000000E+99

> <Gold.Protein.RotatedTorsions>
[ 6907 6896 6895 6894 ] final  -71.57 input  -60.11 | X-H torsion
[ 7974 7965 7964 7962 ] final  -30.22 input  175.53 | X-H torsion
[ 8008 7997 7996 7995 ] final  114.79 input   59.86 | X-H torsion
[ 10167 10162 10161 10158 ] final -103.09 input  -65.29 | X-H torsion
[ 10718 10713 10712 10709 ] final -105.24 input   66.30 | X-H torsion
[ 10763 10752 10751 10750 ] final   35.88 input  -60.55 | X-H torsion
[ 11005 11000 10999 10996 ] final  141.90 input  -57.11 | X-H torsion

> <Gold.Protein.ActiveResidues>
 VAL166  LYS551  ARG553  GLY616  TRP617  ASP618  TYR619  PRO620  LYS621  CYS622 
 ASP623  PHE694  ASN695  SER759  ASP760  ASP761  ALA762  ILE779  LEU786  VAL792 
 PHE793  MET794  SER795  GLU796  ALA797  LYS798  CYS799  TRP800  GLU811  SER814 

> <Gold.Protein.RotatedAtoms>
  150.7206  134.5289  159.5690 H   0  0  0  0  0  0  0  0  0  0  0  0  # atno 6907 bound_to 6896
  152.2827  134.7808  160.0402 H   0  0  0  0  0  0  0  0  0  0  0  0  # atno 6908 bound_to 6896
  151.8449  133.3394  159.3691 H   0  0  0  0  0  0  0  0  0  0  0  0  # atno 6909 bound_to 6896
  146.1159  140.5513  142.8757 H   0  0  0  0  0  0  0  0  0  0  0  0  # atno 7974 bound_to 7965
  156.2343  140.2952  156.0270 H   0  0  0  0  0  0  0  0  0  0  0  0  # atno 8008 bound_to 7997
  155.2137  140.0413  157.2955 H   0  0  0  0  0  0  0  0  0  0  0  0  # atno 8009 bound_to 7997
  154.6050  140.2437  155.7750 H   0  0  0  0  0  0  0  0  0  0  0  0  # atno 8010 bound_to 7997
  140.2237  143.3657  152.0947 H   0  0  0  0  0  0  0  0  0  0  0  0  # atno 10167 bound_to 10162
  156.0337  130.5554  150.7511 H   0  0  0  0  0  0  0  0  0  0  0  0  # atno 10718 bound_to 10713
  153.0100  135.6321  154.1896 H   0  0  0  0  0  0  0  0  0  0  0  0  # atno 10763 bound_to 10752
  154.1639  135.2822  155.3102 H   0  0  0  0  0  0  0  0  0  0  0  0  # atno 10764 bound_to 10752
  154.5960  135.5602  153.7387 H   0  0  0  0  0  0  0  0  0  0  0  0  # atno 10765 bound_to 10752
  140.0436  134.9292  157.0888 H   0  0  0  0  0  0  0  0  0  0  0  0  # atno 11005 bound_to 11000
  144.7552  140.5290  143.6774 LP  0  0  0  0  0  0  0  0  0  0  0  0  # atno 17320 bound_to 7965
  145.5568  139.1478  143.3363 LP  0  0  0  0  0  0  0  0  0  0  0  0  # atno 17321 bound_to 7965
  139.5135  144.6933  151.5700 LP  0  0  0  0  0  0  0  0  0  0  0  0  # atno 17342 bound_to 10162
  140.6236  143.9211  150.6546 LP  0  0  0  0  0  0  0  0  0  0  0  0  # atno 17343 bound_to 10162
  157.5055  131.0922  151.0262 LP  0  0  0  0  0  0  0  0  0  0  0  0  # atno 17370 bound_to 10713
  157.0632  130.5834  149.5389 LP  0  0  0  0  0  0  0  0  0  0  0  0  # atno 17371 bound_to 10713
  140.4030  134.2063  155.7163 LP  0  0  0  0  0  0  0  0  0  0  0  0  # atno 17394 bound_to 11000
  141.1895  133.8236  157.0953 LP  0  0  0  0  0  0  0  0  0  0  0  0  # atno 17395 bound_to 11000

$$$$
