AV-unprocessed.smi:3220|AV-procd|sdf|12297|dock4
  -GOLD-   2272018143D 1   1.00000     0.00000
 Structure written by MMmdl.
 33 34  0  0  0  0  0  0  0  0  1 V2000
  150.4742  139.8667  157.9934 C   0  0  0  0  0  0  0  0  0  0  0  0
  150.5801  141.3665  157.6804 C   0  0  2  0  0  0  0  0  0  0  0  0
  150.9850  141.6147  156.2141 C   0  0  0  0  0  0  0  0  0  0  0  0
  150.0049  141.1018  155.2723 N   0  0  0  0  0  0  0  0  0  0  0  0
  148.6921  141.4901  155.1057 C   0  0  0  0  0  0  0  0  0  0  0  0
  148.1629  140.7184  154.1115 C   0  0  0  0  0  0  0  0  0  0  0  0
  149.2451  139.8805  153.7224 C   0  0  0  0  0  0  0  0  0  0  0  0
  150.3471  140.1148  154.4163 N   0  0  0  0  0  0  0  0  0  0  0  0
  151.5508  141.9919  158.5756 N   0  0  0  0  0  0  0  0  0  0  0  0
  152.7405  141.4786  158.9273 C   0  0  0  0  0  0  0  0  0  0  0  0
  153.1809  140.4262  158.4642 O   0  0  0  0  0  0  0  0  0  0  0  0
  153.5703  142.2822  159.9453 C   0  0  2  0  0  0  0  0  0  0  0  0
  153.8207  141.5326  161.2712 C   0  0  0  0  0  0  0  0  0  0  0  0
  153.1661  142.4045  162.3304 C   0  0  0  0  0  0  0  0  0  0  0  0
  152.1660  143.2229  161.5282 C   0  0  0  0  0  0  0  0  0  0  0  0
  152.8721  143.4713  160.3226 O   0  0  0  0  0  0  0  0  0  0  0  0
  149.7438  139.3821  157.3451 H   0  0  0  0  0  0  0  0  0  0  0  0
  150.1585  139.7010  159.0239 H   0  0  0  0  0  0  0  0  0  0  0  0
  151.4310  139.3628  157.8523 H   0  0  0  0  0  0  0  0  0  0  0  0
  149.5964  141.8131  157.8381 H   0  0  0  0  0  0  0  0  0  0  0  0
  151.1202  142.6817  156.0299 H   0  0  0  0  0  0  0  0  0  0  0  0
  151.9426  141.1377  156.0007 H   0  0  0  0  0  0  0  0  0  0  0  0
  148.2470  142.2695  155.7066 H   0  0  0  0  0  0  0  0  0  0  0  0
  147.1562  140.7475  153.7219 H   0  0  0  0  0  0  0  0  0  0  0  0
  149.2629  139.1142  152.9617 H   0  0  0  0  0  0  0  0  0  0  0  0
  151.2808  142.8690  158.9973 H   0  0  0  0  0  0  0  0  0  0  0  0
  154.5123  142.5639  159.4739 H   0  0  0  0  0  0  0  0  0  0  0  0
  153.3660  140.5410  161.2797 H   0  0  0  0  0  0  0  0  0  0  0  0
  154.8849  141.4021  161.4688 H   0  0  0  0  0  0  0  0  0  0  0  0
  152.6997  141.8290  163.1307 H   0  0  0  0  0  0  0  0  0  0  0  0
  153.9094  143.0664  162.7765 H   0  0  0  0  0  0  0  0  0  0  0  0
  151.2641  142.6451  161.3211 H   0  0  0  0  0  0  0  0  0  0  0  0
  151.8785  144.1488  162.0265 H   0  0  0  0  0  0  0  0  0  0  0  0
  1  2  1  0  0  0  0
  1 17  1  0  0  0  0
  1 18  1  0  0  0  0
  1 19  1  0  0  0  0
  2  3  1  0  0  0  0
  2  9  1  0  0  0  0
  2 20  1  0  0  0  0
  3  4  1  0  0  0  0
  3 21  1  0  0  0  0
  3 22  1  0  0  0  0
  4  8  1  0  0  0  0
  4  5  1  0  0  0  0
  5  6  2  0  0  0  0
  5 23  1  0  0  0  0
  6  7  1  0  0  0  0
  6 24  1  0  0  0  0
  7  8  2  0  0  0  0
  7 25  1  0  0  0  0
  9 10  1  0  0  0  0
  9 26  1  0  0  0  0
 10 11  2  0  0  0  0
 10 12  1  0  0  0  0
 12 16  1  0  0  0  0
 12 13  1  0  0  0  0
 12 27  1  0  0  0  0
 13 14  1  0  0  0  0
 13 28  1  0  0  0  0
 13 29  1  0  0  0  0
 14 15  1  0  0  0  0
 14 30  1  0  0  0  0
 14 31  1  0  0  0  0
 15 16  1  0  0  0  0
 15 32  1  0  0  0  0
 15 33  1  0  0  0  0
M  END
> <s_m_source_file>
AV-unprocessed.smi

> <i_m_source_file_index>
3220

> <i_lp_mmshare_version>
43012

> <i_f3d_flags>
0

> <s_epik_input>
bjFbY0hdW2NIXVtjSF1uMVtDSDJdW0NAQEhdKFtDSDNdKVtOSF1DKD1PKVtDQEBIXTJbQ0gyXVtDSDJdW0NIMl1PMg==

> <s_epik_cmdline>
J2VwaWtfcHl0aG9uJywgJy1waCcsICc3LjAnLCAnLXRuJywgJzgnLCAnLW1hJywgJzIwMCcsICctbWV0YWxfYmluZGluZycsICctaW1hZScsICc8aW5maWxlLm1hZT4nLCAnLW9tYWUnLCAnPG91dGZpbGUubWFlPic=

> <r_lp_tautomer_probability>
1

> <r_epik_Ionization_Penalty>
0.00033363

> <r_epik_Ionization_Penalty_Charging>
0

> <r_epik_Ionization_Penalty_Neutral>
0.00033363

> <r_epik_State_Penalty>
-0

> <r_epik_Charging_Adjusted_Penalty>
0

> <i_epik_Tot_Q>
0

> <i_epik_Tot_abs_Q>
0

> <r_epik_Metal_State_Penalty>
-0

> <b_epik_Metal_Only>
0

> <s_lp_Force_Field>
OPLS_2005

> <r_lp_Energy>
17.2779

> <b_lp_Chiralities_Consistent>
1

> <s_lp_Variant>
AV-unprocessed.smi:3220-1

> <Gold.Version>
5.8.1

> <Gold.Id.Protein>
6NUR|6NUR_protein|mol2

> <Gold.PLP.Fitness>
43.9825

> <Gold.PLP.PLP>
-34.8110

> <Gold.PLP.part.hbond>
-2.0000

> <Gold.PLP.part.metal>
0.0000

> <Gold.PLP.part.buried>
0.4447

> <Gold.PLP.part.nonpolar>
-32.0417

> <Gold.PLP.part.repulsive>
0.1811

> <Gold.PLP.ligand.clash>
0.0000

> <Gold.PLP.ligand.torsion>
0.2933

> <Gold.PLP.Chemscore.Hbond>
1.6880

> <Gold.PLP.Chemscore.CHOScore>
1.5576

> <Gold.PLP.Chemscore.Metal>
0.0000

> <Gold.Chemscore.Hbonds>
donor molecule, donor type, donor heavy atom, donor atom, acceptor molecule, acceptor atom, score
      P1  H  7989  7998       L1     8  1.00
      P1  H  7997  8010       L1    11  0.81
      L1  C     5    23       P1  8028  0.92
      L1  C     7    25       P1  7957  0.57

> <Gold.PLP.Chemscore.Internal.Correction>
0.0212

> <Gold.Rescore>
     Score         DG    S(hbond)    S(metal)    S(lipo)     H(rot)  DE(clash)    DE(int)     intcor
     12.59     -16.11       1.54        0.00      82.29       1.62       1.70       1.82       ----

> <Gold.Chemscore.Fitness>
12.5904

> <Gold.Chemscore.DG>
-16.1142

> <Gold.Chemscore.ZeroCoef>
-5.4800

> <Gold.Chemscore.Hbond>
1.5444

> <Gold.Chemscore.Metal>
0.0000

> <Gold.Chemscore.Lipo>
82.2882

> <Gold.Chemscore.Internal_Hbond>
0.0000

> <Gold.Chemscore.DEClash>
1.7045

> <Gold.Chemscore.DEInternal>
1.8193

> <Gold.Chemscore.Rot>
1.6219

> <Gold.Chemscore.Internal.Correction>
   9.000000E+99

> <Gold.Chemscore.Hbonds>
donor molecule, donor type, donor heavy atom, donor atom, acceptor molecule, acceptor atom, score
      P1  H  7989  7998       L1     8  0.30
      P1  H  7997  8010       L1    11  0.76

> <Gold.Chemscore.Hbond.Weighted>
-5.1585

> <Gold.Chemscore.Metal.Weighted>
-0.0000

> <Gold.Chemscore.Lipo.Weighted>
-9.6277

> <Gold.Chemscore.Internal_Hbond.Weighted>
0.0000

> <Gold.Chemscore.DEClash.Weighted>
1.7045

> <Gold.Chemscore.DEInternal.Weighted>
1.8193

> <Gold.Chemscore.Rot.Weighted>
4.1520

> <Gold.Chemscore.Internal.Correction.Weighted>
   9.000000E+99

> <Gold.Protein.RotatedTorsions>
[ 6907 6896 6895 6894 ] final -120.44 input  -60.11 | X-H torsion
[ 7974 7965 7964 7962 ] final   45.67 input  175.53 | X-H torsion
[ 8008 7997 7996 7995 ] final   35.60 input   59.86 | X-H torsion
[ 10167 10162 10161 10158 ] final  -18.02 input  -65.29 | X-H torsion
[ 10718 10713 10712 10709 ] final  108.07 input   66.30 | X-H torsion
[ 10763 10752 10751 10750 ] final -160.58 input  -60.55 | X-H torsion
[ 11005 11000 10999 10996 ] final   66.82 input  -57.11 | X-H torsion

> <Gold.Protein.ActiveResidues>
 VAL166  LYS551  ARG553  GLY616  TRP617  ASP618  TYR619  PRO620  LYS621  CYS622 
 ASP623  PHE694  ASN695  SER759  ASP760  ASP761  ALA762  ILE779  LEU786  VAL792 
 PHE793  MET794  SER795  GLU796  ALA797  LYS798  CYS799  TRP800  GLU811  SER814 

> <Gold.Protein.RotatedAtoms>
  150.8393  133.7962  159.3066 H   0  0  0  0  0  0  0  0  0  0  0  0  # atno 6907 bound_to 6896
  151.5668  135.1062  159.9995 H   0  0  0  0  0  0  0  0  0  0  0  0  # atno 6908 bound_to 6896
  152.4460  133.7494  159.6742 H   0  0  0  0  0  0  0  0  0  0  0  0  # atno 6909 bound_to 6896
  146.0459  139.4939  142.9749 H   0  0  0  0  0  0  0  0  0  0  0  0  # atno 7974 bound_to 7965
  155.1738  140.3294  155.4388 H   0  0  0  0  0  0  0  0  0  0  0  0  # atno 8008 bound_to 7997
  156.2501  140.1939  156.6790 H   0  0  0  0  0  0  0  0  0  0  0  0  # atno 8009 bound_to 7997
  154.6319  140.0581  156.9728 H   0  0  0  0  0  0  0  0  0  0  0  0  # atno 8010 bound_to 7997
  140.7254  143.4958  150.9933 H   0  0  0  0  0  0  0  0  0  0  0  0  # atno 10167 bound_to 10162
  157.6602  131.0886  150.6251 H   0  0  0  0  0  0  0  0  0  0  0  0  # atno 10718 bound_to 10713
  154.7378  135.3061  154.8781 H   0  0  0  0  0  0  0  0  0  0  0  0  # atno 10763 bound_to 10752
  153.9605  135.6753  153.4749 H   0  0  0  0  0  0  0  0  0  0  0  0  # atno 10764 bound_to 10752
  153.0979  135.4926  154.8736 H   0  0  0  0  0  0  0  0  0  0  0  0  # atno 10765 bound_to 10752
  139.9808  134.6747  156.0266 H   0  0  0  0  0  0  0  0  0  0  0  0  # atno 11005 bound_to 11000
  145.6806  141.0192  143.1608 LP  0  0  0  0  0  0  0  0  0  0  0  0  # atno 17320 bound_to 7965
  144.7097  139.8417  143.7418 LP  0  0  0  0  0  0  0  0  0  0  0  0  # atno 17321 bound_to 7965
  139.8664  143.7248  152.3170 LP  0  0  0  0  0  0  0  0  0  0  0  0  # atno 17342 bound_to 10162
  139.7481  144.7541  151.0548 LP  0  0  0  0  0  0  0  0  0  0  0  0  # atno 17343 bound_to 10162
  156.6554  130.4497  149.5705 LP  0  0  0  0  0  0  0  0  0  0  0  0  # atno 17370 bound_to 10713
  156.2106  130.6677  151.1266 LP  0  0  0  0  0  0  0  0  0  0  0  0  # atno 17371 bound_to 10713
  141.1480  133.6553  156.3927 LP  0  0  0  0  0  0  0  0  0  0  0  0  # atno 17394 bound_to 11000
  140.5100  134.6404  157.5281 LP  0  0  0  0  0  0  0  0  0  0  0  0  # atno 17395 bound_to 11000

$$$$
