AV-unprocessed.smi:1956|AV-procd|sdf|7903|dock3
  -GOLD-   2272010 63D 1   1.00000     0.00000
 Structure written by MMmdl.
 46 47  0  0  0  0  0  0  0  0  2 V2000
  152.0830  140.8958  157.7778 C   0  0  0  0  0  0  0  0  0  0  0  0
  151.9283  140.7818  156.3674 O   0  0  0  0  0  0  0  0  0  0  0  0
  151.4478  139.5942  155.8546 C   0  0  0  0  0  0  0  0  0  0  0  0
  151.4434  138.4549  156.6834 C   0  0  0  0  0  0  0  0  0  0  0  0
  150.9570  137.2386  156.1674 C   0  0  0  0  0  0  0  0  0  0  0  0
  150.4960  137.1977  154.8297 C   0  0  0  0  0  0  0  0  0  0  0  0
  149.9673  136.0378  154.2003 N   0  0  0  0  0  0  0  0  0  0  0  0
  149.8719  134.7906  154.6922 C   0  0  0  0  0  0  0  0  0  0  0  0
  150.2750  134.4270  155.7970 O   0  0  0  0  0  0  0  0  0  0  0  0
  149.2945  133.9599  153.8121 N   0  0  0  0  0  0  0  0  0  0  0  0
  149.0465  132.5419  154.0485 C   0  0  0  0  0  0  0  0  0  0  0  0
  147.6775  132.1069  153.4895 C   0  0  0  0  0  0  0  0  0  0  0  0
  147.7358  130.8010  152.7848 N   0  3  2  0  0  0  0  0  0  0  0  0
  146.3847  130.3152  152.4012 C   0  0  0  0  0  0  0  0  0  0  0  0
  146.4738  129.0388  151.5504 C   0  0  0  0  0  0  0  0  0  0  0  0
  147.2559  127.9437  152.2852 C   0  0  0  0  0  0  0  0  0  0  0  0
  148.6412  128.4666  152.7004 C   0  0  2  0  0  0  0  0  0  0  0  0
  149.4379  127.3976  153.4616 C   0  0  0  0  0  0  0  0  0  0  0  0
  148.4996  129.7615  153.5266 C   0  0  0  0  0  0  0  0  0  0  0  0
  150.5287  138.3973  154.0888 C   0  0  0  0  0  0  0  0  0  0  0  0
  150.9945  139.5663  154.5769 N   0  0  0  0  0  0  0  0  0  0  0  0
  152.4639  141.8880  158.0194 H   0  0  0  0  0  0  0  0  0  0  0  0
  152.7967  140.1656  158.1620 H   0  0  0  0  0  0  0  0  0  0  0  0
  151.1303  140.7727  158.2950 H   0  0  0  0  0  0  0  0  0  0  0  0
  151.8029  138.5131  157.7004 H   0  0  0  0  0  0  0  0  0  0  0  0
  150.9356  136.3722  156.8099 H   0  0  0  0  0  0  0  0  0  0  0  0
  149.6712  136.1636  153.2434 H   0  0  0  0  0  0  0  0  0  0  0  0
  148.9962  134.3365  152.9239 H   0  0  0  0  0  0  0  0  0  0  0  0
  149.8473  131.9453  153.6081 H   0  0  0  0  0  0  0  0  0  0  0  0
  149.0965  132.3822  155.1248 H   0  0  0  0  0  0  0  0  0  0  0  0
  146.9301  132.0665  154.2835 H   0  0  0  0  0  0  0  0  0  0  0  0
  147.3371  132.8683  152.7863 H   0  0  0  0  0  0  0  0  0  0  0  0
  145.7950  130.1288  153.3002 H   0  0  0  0  0  0  0  0  0  0  0  0
  145.8619  131.0848  151.8319 H   0  0  0  0  0  0  0  0  0  0  0  0
  145.4721  128.6818  151.3090 H   0  0  0  0  0  0  0  0  0  0  0  0
  146.9599  129.2637  150.6000 H   0  0  0  0  0  0  0  0  0  0  0  0
  146.6980  127.6231  153.1661 H   0  0  0  0  0  0  0  0  0  0  0  0
  147.3573  127.0674  151.6439 H   0  0  0  0  0  0  0  0  0  0  0  0
  149.1977  128.7061  151.7929 H   0  0  0  0  0  0  0  0  0  0  0  0
  148.9336  127.1089  154.3844 H   0  0  0  0  0  0  0  0  0  0  0  0
  150.4317  127.7610  153.7248 H   0  0  0  0  0  0  0  0  0  0  0  0
  149.5659  126.4989  152.8573 H   0  0  0  0  0  0  0  0  0  0  0  0
  149.4948  130.1312  153.7698 H   0  0  0  0  0  0  0  0  0  0  0  0
  148.0017  129.5519  154.4751 H   0  0  0  0  0  0  0  0  0  0  0  0
  150.1757  138.4205  153.0679 H   0  0  0  0  0  0  0  0  0  0  0  0
  148.2289  130.9676  151.9191 H   0  0  0  0  0  0  0  0  0  0  0  0
  1  2  1  0  0  0  0
  1 22  1  0  0  0  0
  1 23  1  0  0  0  0
  1 24  1  0  0  0  0
  2  3  1  0  0  0  0
  3 21  1  0  0  0  0
  3  4  2  0  0  0  0
  4  5  1  0  0  0  0
  4 25  1  0  0  0  0
  5  6  2  0  0  0  0
  5 26  1  0  0  0  0
  6  7  1  0  0  0  0
  6 20  1  0  0  0  0
  7  8  1  0  0  0  0
  7 27  1  0  0  0  0
  8  9  2  0  0  0  0
  8 10  1  0  0  0  0
 10 11  1  0  0  0  0
 10 28  1  0  0  0  0
 11 12  1  0  0  0  0
 11 29  1  0  0  0  0
 11 30  1  0  0  0  0
 12 13  1  0  0  0  0
 12 31  1  0  0  0  0
 12 32  1  0  0  0  0
 13 19  1  0  0  0  0
 13 14  1  0  0  0  0
 13 46  1  0  0  0  0
 14 15  1  0  0  0  0
 14 33  1  0  0  0  0
 14 34  1  0  0  0  0
 15 16  1  0  0  0  0
 15 35  1  0  0  0  0
 15 36  1  0  0  0  0
 16 17  1  0  0  0  0
 16 37  1  0  0  0  0
 16 38  1  0  0  0  0
 17 18  1  0  0  0  0
 17 19  1  0  0  0  0
 17 39  1  0  0  0  0
 18 40  1  0  0  0  0
 18 41  1  0  0  0  0
 18 42  1  0  0  0  0
 19 43  1  0  0  0  0
 19 44  1  0  0  0  0
 20 21  2  0  0  0  0
 20 45  1  0  0  0  0
M  CHG  1  13   1
M  END
> <s_m_source_file>
AV-unprocessed.smi

> <i_m_source_file_index>
1956

> <i_lp_mmshare_version>
43012

> <i_f3d_flags>
0

> <s_epik_input>
W0NIM11PYzFbY0hdW2NIXWMoW2NIXW4xKVtOSF1DKD1PKVtOSF1bQ0gyXVtDSDJdTjJbQ0gyXVtDSDJdW0NIMl1bQ0BASF0oW0NIM10pW0NIMl0y

> <s_epik_cmdline>
J2VwaWtfcHl0aG9uJywgJy1waCcsICc3LjAnLCAnLXRuJywgJzgnLCAnLW1hJywgJzIwMCcsICctbWV0YWxfYmluZGluZycsICctaW1hZScsICc8aW5maWxlLm1hZT4nLCAnLW9tYWUnLCAnPG91dGZpbGUubWFlPic=

> <r_lp_tautomer_probability>
1

> <r_epik_Ionization_Penalty>
0.00179545

> <r_epik_Ionization_Penalty_Charging>
0.00171832

> <r_epik_Ionization_Penalty_Neutral>
7.7124e-05

> <r_epik_State_Penalty>
0.0011618

> <r_epik_Charging_Adjusted_Penalty>
0.00288012

> <i_epik_Tot_Q>
1

> <i_epik_Tot_abs_Q>
1

> <r_epik_Metal_State_Penalty>
-0

> <b_epik_Metal_Only>
0

> <s_lp_Force_Field>
OPLS_2005

> <r_lp_Energy>
19.732

> <b_lp_Chiralities_Consistent>
1

> <s_lp_Variant>
AV-unprocessed.smi:1956-4

> <Gold.Version>
5.8.1

> <Gold.Id.Protein>
6NUR|6NUR_protein|mol2

> <Gold.PLP.Fitness>
46.5240

> <Gold.PLP.PLP>
-33.8582

> <Gold.PLP.part.hbond>
-4.9232

> <Gold.PLP.part.metal>
0.0000

> <Gold.PLP.part.buried>
-1.7477

> <Gold.PLP.part.nonpolar>
-27.3424

> <Gold.PLP.part.repulsive>
0.1971

> <Gold.PLP.ligand.clash>
0.0000

> <Gold.PLP.ligand.torsion>
0.7083

> <Gold.PLP.Chemscore.Hbond>
3.2233

> <Gold.PLP.Chemscore.CHOScore>
1.4549

> <Gold.PLP.Chemscore.Metal>
0.0000

> <Gold.Chemscore.Hbonds>
donor molecule, donor type, donor heavy atom, donor atom, acceptor molecule, acceptor atom, score
      L1  H     7    27       P1  7948  0.81
      L1  H    10    28       P1  7948  0.22
      L1  H    13    46       P1 10747  1.00
      P1  H  7989  7998       L1    21  1.00
      L1  C    20    45       P1  7948  0.43
      L1  C    20    45       P1  7957  0.96

> <Gold.PLP.Chemscore.Internal.Correction>
0.0479

> <Gold.Rescore>
     Score         DG    S(hbond)    S(metal)    S(lipo)     H(rot)  DE(clash)    DE(int)     intcor
     18.16     -19.85       2.82        0.00      79.67       1.71       0.01       1.68       ----

> <Gold.Chemscore.Fitness>
18.1639

> <Gold.Chemscore.DG>
-19.8501

> <Gold.Chemscore.ZeroCoef>
-5.4800

> <Gold.Chemscore.Hbond>
2.8227

> <Gold.Chemscore.Metal>
0.0000

> <Gold.Chemscore.Lipo>
79.6718

> <Gold.Chemscore.Internal_Hbond>
0.0000

> <Gold.Chemscore.DEClash>
0.0074

> <Gold.Chemscore.DEInternal>
1.6788

> <Gold.Chemscore.Rot>
1.7107

> <Gold.Chemscore.Internal.Correction>
   9.000000E+99

> <Gold.Chemscore.Hbonds>
donor molecule, donor type, donor heavy atom, donor atom, acceptor molecule, acceptor atom, score
      L1  H     7    27       P1  7948  0.13
      L1  H    13    46       P1 10747  1.00
      P1  H  7989  7998       L1    21  0.92

> <Gold.Chemscore.Hbond.Weighted>
-9.4279

> <Gold.Chemscore.Metal.Weighted>
-0.0000

> <Gold.Chemscore.Lipo.Weighted>
-9.3216

> <Gold.Chemscore.Internal_Hbond.Weighted>
0.0000

> <Gold.Chemscore.DEClash.Weighted>
0.0074

> <Gold.Chemscore.DEInternal.Weighted>
1.6788

> <Gold.Chemscore.Rot.Weighted>
4.3794

> <Gold.Chemscore.Internal.Correction.Weighted>
   9.000000E+99

> <Gold.Protein.RotatedTorsions>
[ 6907 6896 6895 6894 ] final  109.20 input  -60.11 | X-H torsion
[ 7974 7965 7964 7962 ] final  131.01 input  175.53 | X-H torsion
[ 8008 7997 7996 7995 ] final   78.66 input   59.86 | X-H torsion
[ 10167 10162 10161 10158 ] final  171.91 input  -65.29 | X-H torsion
[ 10718 10713 10712 10709 ] final   19.51 input   66.30 | X-H torsion
[ 10763 10752 10751 10750 ] final  105.02 input  -60.55 | X-H torsion
[ 11005 11000 10999 10996 ] final   33.60 input  -57.11 | X-H torsion

> <Gold.Protein.ActiveResidues>
 VAL166  LYS551  ARG553  GLY616  TRP617  ASP618  TYR619  PRO620  LYS621  CYS622 
 ASP623  PHE694  ASN695  SER759  ASP760  ASP761  ALA762  ILE779  LEU786  VAL792 
 PHE793  MET794  SER795  GLU796  ALA797  LYS798  CYS799  TRP800  GLU811  SER814 

> <Gold.Protein.RotatedAtoms>
  152.5078  133.8978  159.7425 H   0  0  0  0  0  0  0  0  0  0  0  0  # atno 6907 bound_to 6896
  150.9401  133.6658  159.2799 H   0  0  0  0  0  0  0  0  0  0  0  0  # atno 6908 bound_to 6896
  151.3972  135.0970  159.9597 H   0  0  0  0  0  0  0  0  0  0  0  0  # atno 6909 bound_to 6896
  145.0119  139.4213  143.5241 H   0  0  0  0  0  0  0  0  0  0  0  0  # atno 7974 bound_to 7965
  155.8588  140.3454  155.5742 H   0  0  0  0  0  0  0  0  0  0  0  0  # atno 8008 bound_to 7997
  155.7957  140.0878  157.2004 H   0  0  0  0  0  0  0  0  0  0  0  0  # atno 8009 bound_to 7997
  154.4011  140.1475  156.3202 H   0  0  0  0  0  0  0  0  0  0  0  0  # atno 8010 bound_to 7997
  139.5060  144.3433  151.9996 H   0  0  0  0  0  0  0  0  0  0  0  0  # atno 10167 bound_to 10162
  157.1115  130.6511  149.5899 H   0  0  0  0  0  0  0  0  0  0  0  0  # atno 10718 bound_to 10713
  153.3738  135.3923  155.1808 H   0  0  0  0  0  0  0  0  0  0  0  0  # atno 10763 bound_to 10752
  154.8698  135.3709  154.4944 H   0  0  0  0  0  0  0  0  0  0  0  0  # atno 10764 bound_to 10752
  153.5414  135.7084  153.5695 H   0  0  0  0  0  0  0  0  0  0  0  0  # atno 10765 bound_to 10752
  140.2615  134.3187  155.7856 H   0  0  0  0  0  0  0  0  0  0  0  0  # atno 11005 bound_to 11000
  146.3471  139.9567  142.8722 LP  0  0  0  0  0  0  0  0  0  0  0  0  # atno 17320 bound_to 7965
  145.2012  140.9855  143.4154 LP  0  0  0  0  0  0  0  0  0  0  0  0  # atno 17321 bound_to 7965
  140.2871  144.3795  150.6100 LP  0  0  0  0  0  0  0  0  0  0  0  0  # atno 17342 bound_to 10162
  140.5975  143.2167  151.7136 LP  0  0  0  0  0  0  0  0  0  0  0  0  # atno 17343 bound_to 10162
  155.9849  130.4877  150.7007 LP  0  0  0  0  0  0  0  0  0  0  0  0  # atno 17370 bound_to 10713
  157.4555  131.0877  151.0801 LP  0  0  0  0  0  0  0  0  0  0  0  0  # atno 17371 bound_to 10713
  141.2190  133.7412  156.9193 LP  0  0  0  0  0  0  0  0  0  0  0  0  # atno 17394 bound_to 11000
  140.1460  134.9262  157.2530 LP  0  0  0  0  0  0  0  0  0  0  0  0  # atno 17395 bound_to 11000

$$$$
