AV-unprocessed.smi:2448|AV-procd|sdf|9654|dock9
  -GOLD-   2272013283D 1   1.00000     0.00000
 Structure written by MMmdl.
 37 38  0  0  0  0  0  0  0  0  1 V2000
  149.5856  142.7865  159.1725 O   0  0  0  0  0  0  0  0  0  0  0  0
  150.8144  142.9031  158.4768 C   0  0  2  0  0  0  0  0  0  0  0  0
  150.6805  142.1715  157.1262 C   0  0  0  0  0  0  0  0  0  0  0  0
  149.3329  142.2966  156.5630 N   0  0  0  0  0  0  0  0  0  0  0  0
  148.9598  141.2869  155.5618 C   0  0  1  0  0  0  0  0  0  0  0  0
  149.0932  139.8404  156.1046 C   0  0  0  0  0  0  0  0  0  0  0  0
  150.2164  139.0215  155.4942 C   0  0  0  0  0  0  0  0  0  0  0  0
  151.5583  139.4384  155.6126 C   0  0  0  0  0  0  0  0  0  0  0  0
  152.5644  138.6372  155.0361 C   0  0  0  0  0  0  0  0  0  0  0  0
  152.3090  137.4887  154.3734 N   0  0  0  0  0  0  0  0  0  0  0  0
  151.0214  137.0988  154.2580 C   0  0  0  0  0  0  0  0  0  0  0  0
  149.9412  137.8270  154.7952 C   0  0  0  0  0  0  0  0  0  0  0  0
  147.5215  141.5567  155.0713 C   0  0  0  0  0  0  0  0  0  0  0  0
  147.5025  142.6472  154.3040 F   0  0  0  0  0  0  0  0  0  0  0  0
  147.0809  140.5310  154.3426 F   0  0  0  0  0  0  0  0  0  0  0  0
  146.6957  141.7419  156.1021 F   0  0  0  0  0  0  0  0  0  0  0  0
  151.9657  142.3801  159.3546 C   0  0  0  0  0  0  0  0  0  0  0  0
  152.2113  143.4032  160.4677 C   0  0  0  0  0  0  0  0  0  0  0  0
  151.8659  145.0457  159.7901 S   0  0  0  0  0  0  0  0  0  0  0  0
  151.0999  144.4020  158.2782 C   0  0  0  0  0  0  0  0  0  0  0  0
  149.3965  141.8688  159.2939 H   0  0  0  0  0  0  0  0  0  0  0  0
  151.4168  142.5607  156.4218 H   0  0  0  0  0  0  0  0  0  0  0  0
  150.9347  141.1267  157.2811 H   0  0  0  0  0  0  0  0  0  0  0  0
  149.2310  143.2204  156.1548 H   0  0  0  0  0  0  0  0  0  0  0  0
  149.6047  141.3943  154.6883 H   0  0  0  0  0  0  0  0  0  0  0  0
  149.2040  139.8604  157.1897 H   0  0  0  0  0  0  0  0  0  0  0  0
  148.1711  139.2914  155.9139 H   0  0  0  0  0  0  0  0  0  0  0  0
  151.8141  140.3486  156.1352 H   0  0  0  0  0  0  0  0  0  0  0  0
  153.6021  138.9268  155.1104 H   0  0  0  0  0  0  0  0  0  0  0  0
  150.8457  136.1777  153.7224 H   0  0  0  0  0  0  0  0  0  0  0  0
  148.9288  137.4686  154.6802 H   0  0  0  0  0  0  0  0  0  0  0  0
  151.7635  141.3889  159.7622 H   0  0  0  0  0  0  0  0  0  0  0  0
  152.8686  142.2947  158.7478 H   0  0  0  0  0  0  0  0  0  0  0  0
  151.5243  143.2273  161.2958 H   0  0  0  0  0  0  0  0  0  0  0  0
  153.2263  143.3466  160.8610 H   0  0  0  0  0  0  0  0  0  0  0  0
  151.8222  144.5419  157.4729 H   0  0  0  0  0  0  0  0  0  0  0  0
  150.2085  144.9720  158.0137 H   0  0  0  0  0  0  0  0  0  0  0  0
  1  2  1  0  0  0  0
  1 21  1  0  0  0  0
  2 20  1  0  0  0  0
  2  3  1  0  0  0  0
  2 17  1  0  0  0  0
  3  4  1  0  0  0  0
  3 22  1  0  0  0  0
  3 23  1  0  0  0  0
  4  5  1  0  0  0  0
  4 24  1  0  0  0  0
  5  6  1  0  0  0  0
  5 13  1  0  0  0  0
  5 25  1  0  0  0  0
  6  7  1  0  0  0  0
  6 26  1  0  0  0  0
  6 27  1  0  0  0  0
  7 12  1  0  0  0  0
  7  8  2  0  0  0  0
  8  9  1  0  0  0  0
  8 28  1  0  0  0  0
  9 10  2  0  0  0  0
  9 29  1  0  0  0  0
 10 11  1  0  0  0  0
 11 12  2  0  0  0  0
 11 30  1  0  0  0  0
 12 31  1  0  0  0  0
 13 14  1  0  0  0  0
 13 15  1  0  0  0  0
 13 16  1  0  0  0  0
 17 18  1  0  0  0  0
 17 32  1  0  0  0  0
 17 33  1  0  0  0  0
 18 19  1  0  0  0  0
 18 34  1  0  0  0  0
 18 35  1  0  0  0  0
 19 20  1  0  0  0  0
 20 36  1  0  0  0  0
 20 37  1  0  0  0  0
M  END
> <s_m_source_file>
AV-unprocessed.smi

> <i_m_source_file_index>
2448

> <i_lp_mmshare_version>
43012

> <i_f3d_flags>
0

> <s_epik_input>
W0NIMl0xU1tDSDJdW0NIMl1bQ0BAXTEoW09IXSlbQ0gyXVtOSF1bQ0BASF0oQyhGKShGKUYpW0NIMl1jMltjSF1bY0hdbltjSF1bY0hdMg==

> <s_epik_cmdline>
J2VwaWtfcHl0aG9uJywgJy1waCcsICc3LjAnLCAnLXRuJywgJzgnLCAnLW1hJywgJzIwMCcsICctbWV0YWxfYmluZGluZycsICctaW1hZScsICc8aW5maWxlLm1hZT4nLCAnLW9tYWUnLCAnPG91dGZpbGUubWFlPic=

> <r_epik_Ionization_Penalty>
0.187708

> <r_epik_Ionization_Penalty_Charging>
0

> <r_epik_Ionization_Penalty_Neutral>
0.187708

> <r_epik_State_Penalty>
0.22769

> <r_epik_Charging_Adjusted_Penalty>
0.22769

> <i_epik_Tot_Q>
0

> <i_epik_Tot_abs_Q>
0

> <r_epik_Metal_State_Penalty>
0.176206

> <b_epik_Metal_Only>
0

> <s_lp_Force_Field>
OPLS_2005

> <r_lp_Energy>
32.1686

> <b_lp_Chiralities_Consistent>
1

> <s_lp_Variant>
AV-unprocessed.smi:2448-4

> <Gold.Version>
5.8.1

> <Gold.Id.Protein>
6NUR|6NUR_protein|mol2

> <Gold.PLP.Fitness>
44.4155

> <Gold.PLP.PLP>
-40.4208

> <Gold.PLP.part.hbond>
-2.9691

> <Gold.PLP.part.metal>
0.0000

> <Gold.PLP.part.buried>
-2.9154

> <Gold.PLP.part.nonpolar>
-37.3374

> <Gold.PLP.part.repulsive>
0.1013

> <Gold.PLP.ligand.clash>
0.0000

> <Gold.PLP.ligand.torsion>
1.4660

> <Gold.PLP.Chemscore.Hbond>
1.2855

> <Gold.PLP.Chemscore.CHOScore>
0.8357

> <Gold.PLP.Chemscore.Metal>
0.0000

> <Gold.Chemscore.Hbonds>
donor molecule, donor type, donor heavy atom, donor atom, acceptor molecule, acceptor atom, score
      L1  H     4    24       P1  8028  1.00
      P1  H 10752 10764       L1    10  0.51
      L1  C    11    30       P1  7948  0.01
      L1  C    11    30       P1  7949  0.66

> <Gold.PLP.Chemscore.Internal.Correction>
0.5633

> <Gold.Rescore>
     Score         DG    S(hbond)    S(metal)    S(lipo)     H(rot)  DE(clash)    DE(int)     intcor
     15.58     -18.21       1.71        0.00     110.70       2.31       0.87       1.77       ----

> <Gold.Chemscore.Fitness>
15.5811

> <Gold.Chemscore.DG>
-18.2130

> <Gold.Chemscore.ZeroCoef>
-5.4800

> <Gold.Chemscore.Hbond>
1.7059

> <Gold.Chemscore.Metal>
0.0000

> <Gold.Chemscore.Lipo>
110.6977

> <Gold.Chemscore.Internal_Hbond>
0.0000

> <Gold.Chemscore.DEClash>
0.8653

> <Gold.Chemscore.DEInternal>
1.7666

> <Gold.Chemscore.Rot>
2.3111

> <Gold.Chemscore.Internal.Correction>
   9.000000E+99

> <Gold.Chemscore.Hbonds>
donor molecule, donor type, donor heavy atom, donor atom, acceptor molecule, acceptor atom, score
      L1  H     4    24       P1  8028  0.99
      P1  H 10752 10764       L1    10  0.07

> <Gold.Chemscore.Hbond.Weighted>
-5.6977

> <Gold.Chemscore.Metal.Weighted>
-0.0000

> <Gold.Chemscore.Lipo.Weighted>
-12.9516

> <Gold.Chemscore.Internal_Hbond.Weighted>
0.0000

> <Gold.Chemscore.DEClash.Weighted>
0.8653

> <Gold.Chemscore.DEInternal.Weighted>
1.7666

> <Gold.Chemscore.Rot.Weighted>
5.9164

> <Gold.Chemscore.Internal.Correction.Weighted>
   9.000000E+99

> <Gold.Protein.RotatedTorsions>
[ 6907 6896 6895 6894 ] final   32.55 input  -60.11 | X-H torsion
[ 7974 7965 7964 7962 ] final   -8.44 input  175.53 | X-H torsion
[ 8008 7997 7996 7995 ] final -162.46 input   59.86 | X-H torsion
[ 10167 10162 10161 10158 ] final   28.25 input  -65.29 | X-H torsion
[ 10718 10713 10712 10709 ] final   98.15 input   66.30 | X-H torsion
[ 10763 10752 10751 10750 ] final  -99.24 input  -60.55 | X-H torsion
[ 11005 11000 10999 10996 ] final   60.31 input  -57.11 | X-H torsion

> <Gold.Protein.ActiveResidues>
 VAL166  LYS551  ARG553  GLY616  TRP617  ASP618  TYR619  PRO620  LYS621  CYS622 
 ASP623  PHE694  ASN695  SER759  ASP760  ASP761  ALA762  ILE779  LEU786  VAL792 
 PHE793  MET794  SER795  GLU796  ALA797  LYS798  CYS799  TRP800  GLU811  SER814 

> <Gold.Protein.RotatedAtoms>
  152.0760  134.9502  160.0573 H   0  0  0  0  0  0  0  0  0  0  0  0  # atno 6907 bound_to 6896
  152.0810  133.4148  159.4509 H   0  0  0  0  0  0  0  0  0  0  0  0  # atno 6908 bound_to 6896
  150.6836  134.2902  159.4707 H   0  0  0  0  0  0  0  0  0  0  0  0  # atno 6909 bound_to 6896
  146.2280  140.2469  142.8345 H   0  0  0  0  0  0  0  0  0  0  0  0  # atno 7974 bound_to 7965
  155.8072  140.0900  157.1924 H   0  0  0  0  0  0  0  0  0  0  0  0  # atno 8008 bound_to 7997
  154.3980  140.1461  156.3403 H   0  0  0  0  0  0  0  0  0  0  0  0  # atno 8009 bound_to 7997
  155.8403  140.3439  155.5630 H   0  0  0  0  0  0  0  0  0  0  0  0  # atno 8010 bound_to 7997
  140.4869  144.0528  150.6283 H   0  0  0  0  0  0  0  0  0  0  0  0  # atno 10167 bound_to 10162
  157.6901  131.0631  150.4752 H   0  0  0  0  0  0  0  0  0  0  0  0  # atno 10718 bound_to 10713
  154.7481  135.4980  153.9240 H   0  0  0  0  0  0  0  0  0  0  0  0  # atno 10763 bound_to 10752
  153.1114  135.6710  153.9502 H   0  0  0  0  0  0  0  0  0  0  0  0  # atno 10764 bound_to 10752
  153.9261  135.3083  155.3426 H   0  0  0  0  0  0  0  0  0  0  0  0  # atno 10765 bound_to 10752
  140.0241  134.6110  155.9598 H   0  0  0  0  0  0  0  0  0  0  0  0  # atno 11005 bound_to 11000
  144.9441  140.8110  143.5612 LP  0  0  0  0  0  0  0  0  0  0  0  0  # atno 17320 bound_to 7965
  145.2423  139.2067  143.4986 LP  0  0  0  0  0  0  0  0  0  0  0  0  # atno 17321 bound_to 7965
  140.3786  143.2815  152.0196 LP  0  0  0  0  0  0  0  0  0  0  0  0  # atno 17342 bound_to 10162
  139.4843  144.6173  151.7323 LP  0  0  0  0  0  0  0  0  0  0  0  0  # atno 17343 bound_to 10162
  156.5087  130.4134  149.6313 LP  0  0  0  0  0  0  0  0  0  0  0  0  # atno 17370 bound_to 10713
  156.3261  130.7306  151.2227 LP  0  0  0  0  0  0  0  0  0  0  0  0  # atno 17371 bound_to 10713
  141.1792  133.6544  156.4949 LP  0  0  0  0  0  0  0  0  0  0  0  0  # atno 17394 bound_to 11000
  140.4337  134.7078  157.4955 LP  0  0  0  0  0  0  0  0  0  0  0  0  # atno 17395 bound_to 11000

$$$$
