AV-unprocessed.smi:774|AV-procd|sdf|3691|dock8
  -GOLD-   22720 1113D 1   1.00000     0.00000
 Structure written by MMmdl.
 37 38  0  0  0  0  0  0  0  0  1 V2000
  146.4704  142.9039  154.0808 C   0  0  0  0  0  0  0  0  0  0  0  0
  146.7953  141.8466  155.1393 C   0  0  0  0  0  0  0  0  0  0  0  0
  148.4205  141.0972  154.8487 S   0  0  0  0  0  0  0  0  0  0  0  0
  148.0028  139.9128  153.5372 C   0  0  2  0  0  0  0  0  0  0  0  0
  147.4656  140.5986  152.2839 C   0  0  0  0  0  0  0  0  0  0  0  0
  146.7285  139.4889  151.5331 C   0  0  0  0  0  0  0  0  0  0  0  0
  146.2024  138.5250  152.6132 C   0  0  1  0  0  0  0  0  0  0  0  0
  146.5214  137.1387  152.2750 N   0  0  0  0  0  0  0  0  0  0  0  0
  145.6306  136.1564  152.0768 C   0  0  0  0  0  0  0  0  0  0  0  0
  144.4130  136.3145  152.1575 O   0  0  0  0  0  0  0  0  0  0  0  0
  146.2466  135.0021  151.7669 N   0  0  0  0  0  0  0  0  0  0  0  0
  145.6698  133.7383  151.4637 C   0  0  0  0  0  0  0  0  0  0  0  0
  144.2626  133.6453  151.4440 C   0  0  0  0  0  0  0  0  0  0  0  0
  143.6592  132.4109  151.1384 C   0  0  0  0  0  0  0  0  0  0  0  0
  144.4914  131.3113  150.8538 C   0  0  0  0  0  0  0  0  0  0  0  0
  145.8389  131.3853  150.8517 N   0  0  0  0  0  0  0  0  0  0  0  0
  146.4114  132.5723  151.1472 C   0  0  0  0  0  0  0  0  0  0  0  0
  146.8856  138.9405  153.9301 C   0  0  0  0  0  0  0  0  0  0  0  0
  145.4941  143.3521  154.2661 H   0  0  0  0  0  0  0  0  0  0  0  0
  146.4526  142.4676  153.0818 H   0  0  0  0  0  0  0  0  0  0  0  0
  147.2109  143.7044  154.0837 H   0  0  0  0  0  0  0  0  0  0  0  0
  146.7863  142.2982  156.1314 H   0  0  0  0  0  0  0  0  0  0  0  0
  146.0347  141.0659  155.1324 H   0  0  0  0  0  0  0  0  0  0  0  0
  148.8978  139.3486  153.2713 H   0  0  0  0  0  0  0  0  0  0  0  0
  146.7587  141.3822  152.5603 H   0  0  0  0  0  0  0  0  0  0  0  0
  148.2536  141.0571  151.6858 H   0  0  0  0  0  0  0  0  0  0  0  0
  145.9270  139.8835  150.9078 H   0  0  0  0  0  0  0  0  0  0  0  0
  147.4317  138.9805  150.8713 H   0  0  0  0  0  0  0  0  0  0  0  0
  145.1249  138.6640  152.7180 H   0  0  0  0  0  0  0  0  0  0  0  0
  147.5006  136.9120  152.1830 H   0  0  0  0  0  0  0  0  0  0  0  0
  147.2510  135.0488  151.6777 H   0  0  0  0  0  0  0  0  0  0  0  0
  143.6497  134.5071  151.6648 H   0  0  0  0  0  0  0  0  0  0  0  0
  142.5842  132.3092  151.1227 H   0  0  0  0  0  0  0  0  0  0  0  0
  144.0636  130.3484  150.6168 H   0  0  0  0  0  0  0  0  0  0  0  0
  147.4888  132.5704  151.1045 H   0  0  0  0  0  0  0  0  0  0  0  0
  147.2628  138.0933  154.5045 H   0  0  0  0  0  0  0  0  0  0  0  0
  146.1569  139.4524  154.5603 H   0  0  0  0  0  0  0  0  0  0  0  0
  1  2  1  0  0  0  0
  1 19  1  0  0  0  0
  1 20  1  0  0  0  0
  1 21  1  0  0  0  0
  2  3  1  0  0  0  0
  2 22  1  0  0  0  0
  2 23  1  0  0  0  0
  3  4  1  0  0  0  0
  4 18  1  0  0  0  0
  4  5  1  0  0  0  0
  4 24  1  0  0  0  0
  5  6  1  0  0  0  0
  5 25  1  0  0  0  0
  5 26  1  0  0  0  0
  6  7  1  0  0  0  0
  6 27  1  0  0  0  0
  6 28  1  0  0  0  0
  7  8  1  0  0  0  0
  7 18  1  0  0  0  0
  7 29  1  0  0  0  0
  8  9  1  0  0  0  0
  8 30  1  0  0  0  0
  9 10  2  0  0  0  0
  9 11  1  0  0  0  0
 11 12  1  0  0  0  0
 11 31  1  0  0  0  0
 12 17  1  0  0  0  0
 12 13  2  0  0  0  0
 13 14  1  0  0  0  0
 13 32  1  0  0  0  0
 14 15  2  0  0  0  0
 14 33  1  0  0  0  0
 15 16  1  0  0  0  0
 15 34  1  0  0  0  0
 16 17  2  0  0  0  0
 17 35  1  0  0  0  0
 18 36  1  0  0  0  0
 18 37  1  0  0  0  0
M  END
> <s_m_source_file>
AV-unprocessed.smi

> <i_m_source_file_index>
774

> <i_lp_mmshare_version>
43012

> <i_f3d_flags>
0

> <s_epik_input>
W0NIM11bQ0gyXVNbQ0BASF0xW0NIMl1bQ0gyXVtDQEhdKFtDSDJdMSlbTkhdQyg9TylbTkhdYzJbY0hdW2NIXVtjSF1uW2NIXTI=

> <s_epik_cmdline>
J2VwaWtfcHl0aG9uJywgJy1waCcsICc3LjAnLCAnLXRuJywgJzgnLCAnLW1hJywgJzIwMCcsICctbWV0YWxfYmluZGluZycsICctaW1hZScsICc8aW5maWxlLm1hZT4nLCAnLW9tYWUnLCAnPG91dGZpbGUubWFlPic=

> <r_epik_Ionization_Penalty>
0.00485718

> <r_epik_Ionization_Penalty_Charging>
0

> <r_epik_Ionization_Penalty_Neutral>
0.00485718

> <r_epik_State_Penalty>
0.00349461

> <r_epik_Charging_Adjusted_Penalty>
0.00349461

> <i_epik_Tot_Q>
0

> <i_epik_Tot_abs_Q>
0

> <r_epik_Metal_State_Penalty>
-0

> <b_epik_Metal_Only>
0

> <s_lp_Force_Field>
OPLS_2005

> <r_lp_Energy>
20.878

> <b_lp_Chiralities_Consistent>
1

> <s_lp_Variant>
AV-unprocessed.smi:774-1

> <Gold.Version>
5.8.1

> <Gold.Id.Protein>
6NUR|6NUR_protein|mol2

> <Gold.PLP.Fitness>
37.8085

> <Gold.PLP.PLP>
-29.1466

> <Gold.PLP.part.hbond>
-2.0000

> <Gold.PLP.part.metal>
0.0000

> <Gold.PLP.part.buried>
3.8026

> <Gold.PLP.part.nonpolar>
-31.8888

> <Gold.PLP.part.repulsive>
0.3793

> <Gold.PLP.ligand.clash>
0.0000

> <Gold.PLP.ligand.torsion>
0.0994

> <Gold.PLP.Chemscore.Hbond>
1.9600

> <Gold.PLP.Chemscore.CHOScore>
0.9915

> <Gold.PLP.Chemscore.Metal>
0.0000

> <Gold.Chemscore.Hbonds>
donor molecule, donor type, donor heavy atom, donor atom, acceptor molecule, acceptor atom, score
      L1  H     8    30       P1  7948  1.00
      L1  H    11    31       P1  7948  0.95
      L1  C    17    35       P1 10747  0.99

> <Gold.PLP.Chemscore.Internal.Correction>
0.0060

> <Gold.Rescore>
     Score         DG    S(hbond)    S(metal)    S(lipo)     H(rot)  DE(clash)    DE(int)     intcor
     15.35     -17.46       1.91        0.00      76.45       1.30       0.55       1.56       ----

> <Gold.Chemscore.Fitness>
15.3469

> <Gold.Chemscore.DG>
-17.4602

> <Gold.Chemscore.ZeroCoef>
-5.4800

> <Gold.Chemscore.Hbond>
1.9083

> <Gold.Chemscore.Metal>
0.0000

> <Gold.Chemscore.Lipo>
76.4528

> <Gold.Chemscore.Internal_Hbond>
0.0000

> <Gold.Chemscore.DEClash>
0.5529

> <Gold.Chemscore.DEInternal>
1.5604

> <Gold.Chemscore.Rot>
1.3041

> <Gold.Chemscore.Internal.Correction>
   9.000000E+99

> <Gold.Chemscore.Hbonds>
donor molecule, donor type, donor heavy atom, donor atom, acceptor molecule, acceptor atom, score
      L1  H     8    30       P1  7948  0.99
      L1  H    11    31       P1  7948  0.75

> <Gold.Chemscore.Hbond.Weighted>
-6.3736

> <Gold.Chemscore.Metal.Weighted>
-0.0000

> <Gold.Chemscore.Lipo.Weighted>
-8.9450

> <Gold.Chemscore.Internal_Hbond.Weighted>
0.0000

> <Gold.Chemscore.DEClash.Weighted>
0.5529

> <Gold.Chemscore.DEInternal.Weighted>
1.5604

> <Gold.Chemscore.Rot.Weighted>
3.3384

> <Gold.Chemscore.Internal.Correction.Weighted>
   9.000000E+99

> <Gold.Protein.RotatedTorsions>
[ 6907 6896 6895 6894 ] final  160.46 input  -60.11 | X-H torsion
[ 7974 7965 7964 7962 ] final  -79.30 input  175.53 | X-H torsion
[ 8008 7997 7996 7995 ] final  -80.18 input   59.86 | X-H torsion
[ 10167 10162 10161 10158 ] final   82.96 input  -65.29 | X-H torsion
[ 10718 10713 10712 10709 ] final -122.70 input   66.30 | X-H torsion
[ 10763 10752 10751 10750 ] final -162.77 input  -60.55 | X-H torsion
[ 11005 11000 10999 10996 ] final  -72.27 input  -57.11 | X-H torsion

> <Gold.Protein.ActiveResidues>
 VAL166  LYS551  ARG553  GLY616  TRP617  ASP618  TYR619  PRO620  LYS621  CYS622 
 ASP623  PHE694  ASN695  SER759  ASP760  ASP761  ALA762  ILE779  LEU786  VAL792 
 PHE793  MET794  SER795  GLU796  ALA797  LYS798  CYS799  TRP800  GLU811  SER814 

> <Gold.Protein.RotatedAtoms>
  151.9702  133.3723  159.4068 H   0  0  0  0  0  0  0  0  0  0  0  0  # atno 6907 bound_to 6896
  150.6950  134.4147  159.5187 H   0  0  0  0  0  0  0  0  0  0  0  0  # atno 6908 bound_to 6896
  152.1850  134.8721  160.0573 H   0  0  0  0  0  0  0  0  0  0  0  0  # atno 6909 bound_to 6896
  145.5751  140.9459  143.1374 H   0  0  0  0  0  0  0  0  0  0  0  0  # atno 7974 bound_to 7965
  154.5858  140.0667  156.9169 H   0  0  0  0  0  0  0  0  0  0  0  0  # atno 8008 bound_to 7997
  155.2382  140.3342  155.4277 H   0  0  0  0  0  0  0  0  0  0  0  0  # atno 8009 bound_to 7997
  156.2221  140.1803  156.7435 H   0  0  0  0  0  0  0  0  0  0  0  0  # atno 8010 bound_to 7997
  139.9233  144.6199  150.8418 H   0  0  0  0  0  0  0  0  0  0  0  0  # atno 10167 bound_to 10162
  156.1440  130.6487  150.9815 H   0  0  0  0  0  0  0  0  0  0  0  0  # atno 10718 bound_to 10713
  154.7184  135.3020  154.9087 H   0  0  0  0  0  0  0  0  0  0  0  0  # atno 10763 bound_to 10752
  153.9967  135.6712  153.4761 H   0  0  0  0  0  0  0  0  0  0  0  0  # atno 10764 bound_to 10752
  153.0813  135.5007  154.8424 H   0  0  0  0  0  0  0  0  0  0  0  0  # atno 10765 bound_to 10752
  141.1606  133.6842  156.7033 H   0  0  0  0  0  0  0  0  0  0  0  0  # atno 11005 bound_to 11000
  144.7420  139.7424  143.7307 LP  0  0  0  0  0  0  0  0  0  0  0  0  # atno 17320 bound_to 7965
  146.1757  139.4926  142.9899 LP  0  0  0  0  0  0  0  0  0  0  0  0  # atno 17321 bound_to 7965
  140.7656  143.3281  151.2470 LP  0  0  0  0  0  0  0  0  0  0  0  0  # atno 17342 bound_to 10162
  139.6843  143.9801  152.2825 LP  0  0  0  0  0  0  0  0  0  0  0  0  # atno 17343 bound_to 10162
  157.6601  131.0882  150.7858 LP  0  0  0  0  0  0  0  0  0  0  0  0  # atno 17370 bound_to 10713
  156.7931  130.4896  149.5381 LP  0  0  0  0  0  0  0  0  0  0  0  0  # atno 17371 bound_to 10713
  140.2942  134.8216  157.4043 LP  0  0  0  0  0  0  0  0  0  0  0  0  # atno 17394 bound_to 11000
  140.1319  134.5084  155.8098 LP  0  0  0  0  0  0  0  0  0  0  0  0  # atno 17395 bound_to 11000

$$$$
