AV-unprocessed.smi:50|AV-procd|sdf|496|dock6
  -GOLD-   2262016363D 1   1.00000     0.00000
 Structure written by MMmdl.
 43 44  0  0  0  0  0  0  0  0  3 V2000
  152.2337  142.7881  159.7329 C   0  0  0  0  0  0  0  0  0  0  0  0
  151.9742  143.1990  158.2699 C   0  0  0  0  0  0  0  0  0  0  0  0
  151.2653  144.5661  158.2425 C   0  0  0  0  0  0  0  0  0  0  0  0
  151.1809  142.1162  157.4877 C   0  0  1  0  0  0  0  0  0  0  0  0
  150.8868  142.5414  156.1064 N   0  3  0  0  0  0  0  0  0  0  0  0
  151.9170  140.7731  157.3585 C   0  0  0  0  0  0  0  0  0  0  0  0
  152.8653  140.4251  158.0641 O   0  0  0  0  0  0  0  0  0  0  0  0
  151.4041  140.0581  156.3430 O   0  0  0  0  0  0  0  0  0  0  0  0
  152.2308  139.1452  155.6389 C   0  0  0  0  0  0  0  0  0  0  0  0
  151.4061  138.4260  154.5680 C   0  0  0  0  0  0  0  0  0  0  0  0
  150.3293  137.7518  155.1976 O   0  0  0  0  0  0  0  0  0  0  0  0
  150.7436  136.9061  156.2199 C   0  0  0  0  0  0  0  0  0  0  0  0
  150.0085  137.2421  157.4268 N   0  0  0  0  0  0  0  0  0  0  0  0
  149.9652  138.4307  158.0627 C   0  0  0  0  0  0  0  0  0  0  0  0
  149.2143  138.4642  159.1628 N   0  0  0  0  0  0  0  0  0  0  0  0
  148.7427  137.1583  159.2324 C   0  0  0  0  0  0  0  0  0  0  0  0
  147.8593  136.4788  160.2109 C   0  0  0  0  0  0  0  0  0  0  0  0
  147.4086  137.1208  161.1579 O   0  0  0  0  0  0  0  0  0  0  0  0
  147.6183  135.1549  159.9649 N   0  5  0  0  0  0  0  0  0  0  0  0
  148.1875  134.5245  158.8495 C   0  0  0  0  0  0  0  0  0  0  0  0
  147.8481  133.1921  158.7586 N   0  0  0  0  0  0  0  0  0  0  0  0
  148.9682  135.0618  157.9443 N   0  0  0  0  0  0  0  0  0  0  0  0
  149.2128  136.3997  158.1945 C   0  0  0  0  0  0  0  0  0  0  0  0
  150.2269  141.9513  157.9900 H   0  0  0  0  0  0  0  0  0  0  0  0
  151.2979  142.6192  160.2667 H   0  0  0  0  0  0  0  0  0  0  0  0
  152.7816  143.5652  160.2668 H   0  0  0  0  0  0  0  0  0  0  0  0
  152.8258  141.8761  159.8065 H   0  0  0  0  0  0  0  0  0  0  0  0
  152.9448  143.3340  157.7894 H   0  0  0  0  0  0  0  0  0  0  0  0
  150.2650  144.5014  158.6720 H   0  0  0  0  0  0  0  0  0  0  0  0
  151.1702  144.9560  157.2291 H   0  0  0  0  0  0  0  0  0  0  0  0
  151.8231  145.3076  158.8156 H   0  0  0  0  0  0  0  0  0  0  0  0
  150.3106  143.3708  156.1285 H   0  0  0  0  0  0  0  0  0  0  0  0
  150.3942  141.8019  155.6262 H   0  0  0  0  0  0  0  0  0  0  0  0
  153.0449  139.6981  155.1685 H   0  0  0  0  0  0  0  0  0  0  0  0
  152.6778  138.4209  156.3218 H   0  0  0  0  0  0  0  0  0  0  0  0
  151.0428  139.1310  153.8186 H   0  0  0  0  0  0  0  0  0  0  0  0
  152.0404  137.7004  154.0568 H   0  0  0  0  0  0  0  0  0  0  0  0
  150.5352  135.8668  155.9602 H   0  0  0  0  0  0  0  0  0  0  0  0
  151.8089  137.0300  156.4181 H   0  0  0  0  0  0  0  0  0  0  0  0
  150.4996  139.2997  157.7086 H   0  0  0  0  0  0  0  0  0  0  0  0
  147.2533  132.7211  159.4240 H   0  0  0  0  0  0  0  0  0  0  0  0
  148.1665  132.5928  158.0113 H   0  0  0  0  0  0  0  0  0  0  0  0
  151.7507  142.7418  155.6233 H   0  0  0  0  0  0  0  0  0  0  0  0
  1  2  1  0  0  0  0
  1 25  1  0  0  0  0
  1 26  1  0  0  0  0
  1 27  1  0  0  0  0
  2  3  1  0  0  0  0
  2  4  1  0  0  0  0
  2 28  1  0  0  0  0
  3 29  1  0  0  0  0
  3 30  1  0  0  0  0
  3 31  1  0  0  0  0
  4 24  1  0  0  0  0
  4  5  1  0  0  0  0
  4  6  1  0  0  0  0
  5 32  1  0  0  0  0
  5 33  1  0  0  0  0
  5 43  1  0  0  0  0
  6  7  2  0  0  0  0
  6  8  1  0  0  0  0
  8  9  1  0  0  0  0
  9 10  1  0  0  0  0
  9 34  1  0  0  0  0
  9 35  1  0  0  0  0
 10 11  1  0  0  0  0
 10 36  1  0  0  0  0
 10 37  1  0  0  0  0
 11 12  1  0  0  0  0
 12 13  1  0  0  0  0
 12 38  1  0  0  0  0
 12 39  1  0  0  0  0
 13 23  1  0  0  0  0
 13 14  1  0  0  0  0
 14 15  2  0  0  0  0
 14 40  1  0  0  0  0
 15 16  1  0  0  0  0
 16 23  2  0  0  0  0
 16 17  1  0  0  0  0
 17 18  2  0  0  0  0
 17 19  1  0  0  0  0
 19 20  1  0  0  0  0
 20 21  1  0  0  0  0
 20 22  2  0  0  0  0
 21 41  1  0  0  0  0
 21 42  1  0  0  0  0
 22 23  1  0  0  0  0
M  CHG  1   5   1
M  CHG  1  19  -1
M  END
> <s_m_source_file>
AV-unprocessed.smi

> <i_m_source_file_index>
50

> <i_lp_mmshare_version>
43012

> <i_f3d_flags>
0

> <s_epik_input>
W0NIM11bQ0hdKFtDSDNdKVtDQEhdKFtOSDJdKUMoPU8pT1tDSDJdW0NIMl1PW0NIMl1uKFtjSF1uMSljKGMxMiluYyhbTkgyXSlbbkhdYzI9Tw==

> <s_epik_cmdline>
J2VwaWtfcHl0aG9uJywgJy1waCcsICc3LjAnLCAnLXRuJywgJzgnLCAnLW1hJywgJzIwMCcsICctbWV0YWxfYmluZGluZycsICctaW1hZScsICc8aW5maWxlLm1hZT4nLCAnLW9tYWUnLCAnPG91dGZpbGUubWFlPic=

> <r_lp_tautomer_probability>
0.99994

> <r_epik_Ionization_Penalty>
3.77459

> <r_epik_Ionization_Penalty_Charging>
0.215994

> <r_epik_Ionization_Penalty_Neutral>
3.5586

> <r_epik_State_Penalty>
3.75449

> <r_epik_Charging_Adjusted_Penalty>
3.97048

> <i_epik_Tot_Q>
0

> <i_epik_Tot_abs_Q>
2

> <r_epik_Metal_State_Penalty>
0.723824

> <b_epik_Metal_Only>
1

> <s_epik_Chemistry_Notes>
This compound has an ester and may undergo hydrolysis at high or low pH. This compound contains an acetal/aminal-like group ( X-CH(R)-Y where X, Y are N, S, or O) that may be acid/base labile, releasing an aldehyde.

> <s_lp_Force_Field>
OPLS_2005

> <r_lp_Energy>
22.4326

> <b_lp_Chiralities_Consistent>
1

> <s_lp_Variant>
AV-unprocessed.smi:50-6

> <Gold.Version>
5.8.1

> <Gold.Id.Protein>
6NUR|6NUR_protein|mol2

> <Gold.PLP.Fitness>
44.9335

> <Gold.PLP.PLP>
-33.2445

> <Gold.PLP.part.hbond>
-6.3984

> <Gold.PLP.part.metal>
0.0000

> <Gold.PLP.part.buried>
-1.6239

> <Gold.PLP.part.nonpolar>
-25.5911

> <Gold.PLP.part.repulsive>
0.2613

> <Gold.PLP.ligand.clash>
0.0000

> <Gold.PLP.ligand.torsion>
1.3526

> <Gold.PLP.Chemscore.Hbond>
4.7568

> <Gold.PLP.Chemscore.CHOScore>
0.0000

> <Gold.PLP.Chemscore.Metal>
0.0000

> <Gold.Chemscore.Hbonds>
donor molecule, donor type, donor heavy atom, donor atom, acceptor molecule, acceptor atom, score
      L1  H     5    32       P1  8028  2.00
      P1  H  6896  6909       L1    22  0.01
      P1  H  6931  6943       L1    18  0.71
      P1  H  6934  6947       L1    18  1.00
      P1  H  7997  8010       L1     7  0.86

> <Gold.PLP.Chemscore.Internal.Correction>
0.1240

> <Gold.Rescore>
     Score         DG    S(hbond)    S(metal)    S(lipo)     H(rot)  DE(clash)    DE(int)     intcor
      6.58      -9.65       2.85        0.00      60.01       4.83       0.42       2.65       ----

> <Gold.Chemscore.Fitness>
6.5768

> <Gold.Chemscore.DG>
-9.6475

> <Gold.Chemscore.ZeroCoef>
-5.4800

> <Gold.Chemscore.Hbond>
2.8484

> <Gold.Chemscore.Metal>
0.0000

> <Gold.Chemscore.Lipo>
60.0147

> <Gold.Chemscore.Internal_Hbond>
0.0000

> <Gold.Chemscore.DEClash>
0.4250

> <Gold.Chemscore.DEInternal>
2.6457

> <Gold.Chemscore.Rot>
4.8312

> <Gold.Chemscore.Internal.Correction>
   9.000000E+99

> <Gold.Chemscore.Hbonds>
donor molecule, donor type, donor heavy atom, donor atom, acceptor molecule, acceptor atom, score
      L1  H     5    32       P1  8028  0.95
      P1  H  6931  6943       L1    18  0.38
      P1  H  6934  6947       L1    18  0.91
      P1  H  7997  8010       L1     7  0.56

> <Gold.Chemscore.Hbond.Weighted>
-9.5136

> <Gold.Chemscore.Metal.Weighted>
-0.0000

> <Gold.Chemscore.Lipo.Weighted>
-7.0217

> <Gold.Chemscore.Internal_Hbond.Weighted>
0.0000

> <Gold.Chemscore.DEClash.Weighted>
0.4250

> <Gold.Chemscore.DEInternal.Weighted>
2.6457

> <Gold.Chemscore.Rot.Weighted>
12.3678

> <Gold.Chemscore.Internal.Correction.Weighted>
   9.000000E+99

> <Gold.Protein.RotatedTorsions>
[ 6907 6896 6895 6894 ] final   41.37 input  -60.11 | X-H torsion
[ 7974 7965 7964 7962 ] final   49.37 input  175.53 | X-H torsion
[ 8008 7997 7996 7995 ] final   44.57 input   59.86 | X-H torsion
[ 10167 10162 10161 10158 ] final   34.11 input  -65.29 | X-H torsion
[ 10718 10713 10712 10709 ] final  111.37 input   66.30 | X-H torsion
[ 10763 10752 10751 10750 ] final  118.20 input  -60.55 | X-H torsion
[ 11005 11000 10999 10996 ] final  -82.87 input  -57.11 | X-H torsion

> <Gold.Protein.ActiveResidues>
 VAL166  LYS551  ARG553  GLY616  TRP617  ASP618  TYR619  PRO620  LYS621  CYS622 
 ASP623  PHE694  ASN695  SER759  ASP760  ASP761  ALA762  ILE779  LEU786  VAL792 
 PHE793  MET794  SER795  GLU796  ALA797  LYS798  CYS799  TRP800  GLU811  SER814 

> <Gold.Protein.RotatedAtoms>
  152.1944  134.8643  160.0514 H   0  0  0  0  0  0  0  0  0  0  0  0  # atno 6907 bound_to 6896
  151.9520  133.3664  159.4012 H   0  0  0  0  0  0  0  0  0  0  0  0  # atno 6908 bound_to 6896
  150.6941  134.4254  159.5268 H   0  0  0  0  0  0  0  0  0  0  0  0  # atno 6909 bound_to 6896
  146.0115  139.4549  142.9953 H   0  0  0  0  0  0  0  0  0  0  0  0  # atno 7974 bound_to 7965
  155.3216  140.3397  155.4241 H   0  0  0  0  0  0  0  0  0  0  0  0  # atno 8008 bound_to 7997
  156.1906  140.1696  156.8136 H   0  0  0  0  0  0  0  0  0  0  0  0  # atno 8009 bound_to 7997
  154.5438  140.0719  156.8538 H   0  0  0  0  0  0  0  0  0  0  0  0  # atno 8010 bound_to 7997
  140.4345  144.1277  150.6164 H   0  0  0  0  0  0  0  0  0  0  0  0  # atno 10167 bound_to 10162
  157.6448  131.0949  150.6739 H   0  0  0  0  0  0  0  0  0  0  0  0  # atno 10718 bound_to 10713
  153.5640  135.3515  155.2811 H   0  0  0  0  0  0  0  0  0  0  0  0  # atno 10763 bound_to 10752
  154.8691  135.4143  154.2799 H   0  0  0  0  0  0  0  0  0  0  0  0  # atno 10764 bound_to 10752
  153.3551  135.7057  153.6827 H   0  0  0  0  0  0  0  0  0  0  0  0  # atno 10765 bound_to 10752
  141.1661  133.7266  156.8636 H   0  0  0  0  0  0  0  0  0  0  0  0  # atno 11005 bound_to 11000
  145.7334  141.0034  143.1339 LP  0  0  0  0  0  0  0  0  0  0  0  0  # atno 17320 bound_to 7965
  144.6955  139.9012  143.7458 LP  0  0  0  0  0  0  0  0  0  0  0  0  # atno 17321 bound_to 7965
  140.4389  143.2535  151.9499 LP  0  0  0  0  0  0  0  0  0  0  0  0  # atno 17342 bound_to 10162
  139.4786  144.5673  151.8144 LP  0  0  0  0  0  0  0  0  0  0  0  0  # atno 17343 bound_to 10162
  156.7057  130.4637  149.5561 LP  0  0  0  0  0  0  0  0  0  0  0  0  # atno 17370 bound_to 10713
  156.1764  130.6470  151.0899 LP  0  0  0  0  0  0  0  0  0  0  0  0  # atno 17371 bound_to 10713
  140.1831  134.9019  157.2972 LP  0  0  0  0  0  0  0  0  0  0  0  0  # atno 17394 bound_to 11000
  140.2373  134.3838  155.7495 LP  0  0  0  0  0  0  0  0  0  0  0  0  # atno 17395 bound_to 11000

$$$$
