AV-unprocessed.smi:213|AV-procd|sdf|1646|dock10
  -GOLD-   2262020 23D 1   1.00000     0.00000
 Structure written by MMmdl.
 58 61  0  0  0  0  0  0  0  0  1 V2000
  151.0231  139.9965  155.7974 C   0  0  0  0  0  0  0  0  0  0  0  0
  149.7890  140.8220  156.2153 C   0  0  1  0  0  0  0  0  0  0  0  0
  150.0866  142.3395  156.2916 C   0  0  0  0  0  0  0  0  0  0  0  0
  150.7129  142.8068  157.5296 N   0  0  0  0  0  0  0  0  0  0  0  0
  151.0402  144.2259  157.4412 C   0  0  0  0  0  0  0  0  0  0  0  0
  151.6770  144.7533  158.7375 C   0  0  0  0  0  0  0  0  0  0  0  0
  152.8398  143.9897  159.0375 O   0  0  0  0  0  0  0  0  0  0  0  0
  152.5579  142.6020  159.1838 C   0  0  0  0  0  0  0  0  0  0  0  0
  151.9123  142.0602  157.8960 C   0  0  0  0  0  0  0  0  0  0  0  0
  148.6785  140.5529  155.2970 N   0  0  0  0  0  0  0  0  0  0  0  0
  148.0593  141.6355  154.5343 C   0  0  0  0  0  0  0  0  0  0  0  0
  148.0633  139.3392  155.2787 C   0  0  0  0  0  0  0  0  0  0  0  0
  148.3133  138.4906  156.3117 N   0  0  0  0  0  0  0  0  0  0  0  0
  147.7359  137.2872  156.3606 C   0  0  0  0  0  0  0  0  0  0  0  0
  146.8899  136.7327  155.4921 N   0  0  0  0  0  0  0  0  0  0  0  0
  146.6414  137.5688  154.4449 C   0  0  0  0  0  0  0  0  0  0  0  0
  147.1784  138.8759  154.2575 C   0  0  0  0  0  0  0  0  0  0  0  0
  146.7018  139.4013  153.0606 N   0  0  0  0  0  0  0  0  0  0  0  0
  145.9240  138.4717  152.5795 C   0  0  0  0  0  0  0  0  0  0  0  0
  145.8316  137.3356  153.3480 N   0  0  0  0  0  0  0  0  0  0  0  0
  145.0484  136.1474  153.0578 C   0  0  0  0  0  0  0  0  0  0  0  0
  145.4588  135.4802  151.7301 C   0  0  2  0  0  0  0  0  0  0  0  0
  144.6136  135.9453  150.6944 O   0  0  0  0  0  0  0  0  0  0  0  0
  145.3650  133.9444  151.7959 C   0  0  1  0  0  0  0  0  0  0  0  0
  143.9468  133.4030  151.9666 C   0  0  0  0  0  0  0  0  0  0  0  0
  144.1004  131.9715  151.4983 C   0  0  0  0  0  0  0  0  0  0  0  0
  145.1797  132.0746  150.4189 C   0  0  0  0  0  0  0  0  0  0  0  0
  145.7694  133.3646  150.5620 O   0  0  0  0  0  0  0  0  0  0  0  0
  151.8462  140.1015  156.5015 H   0  0  0  0  0  0  0  0  0  0  0  0
  151.4003  140.2949  154.8192 H   0  0  0  0  0  0  0  0  0  0  0  0
  150.7792  138.9348  155.7466 H   0  0  0  0  0  0  0  0  0  0  0  0
  149.5070  140.4641  157.2050 H   0  0  0  0  0  0  0  0  0  0  0  0
  150.6790  142.6488  155.4294 H   0  0  0  0  0  0  0  0  0  0  0  0
  149.1375  142.8687  156.1898 H   0  0  0  0  0  0  0  0  0  0  0  0
  151.7251  144.3961  156.6092 H   0  0  0  0  0  0  0  0  0  0  0  0
  150.1393  144.8013  157.2255 H   0  0  0  0  0  0  0  0  0  0  0  0
  151.9572  145.8004  158.6244 H   0  0  0  0  0  0  0  0  0  0  0  0
  150.9697  144.6972  159.5666 H   0  0  0  0  0  0  0  0  0  0  0  0
  153.4855  142.0702  159.3954 H   0  0  0  0  0  0  0  0  0  0  0  0
  151.8981  142.4478  160.0389 H   0  0  0  0  0  0  0  0  0  0  0  0
  151.6648  141.0127  158.0596 H   0  0  0  0  0  0  0  0  0  0  0  0
  152.6363  142.0963  157.0807 H   0  0  0  0  0  0  0  0  0  0  0  0
  146.9711  141.5674  154.5666 H   0  0  0  0  0  0  0  0  0  0  0  0
  148.3775  141.5930  153.4924 H   0  0  0  0  0  0  0  0  0  0  0  0
  148.3370  142.6103  154.9346 H   0  0  0  0  0  0  0  0  0  0  0  0
  147.9878  136.6826  157.2193 H   0  0  0  0  0  0  0  0  0  0  0  0
  145.3991  138.5890  151.6427 H   0  0  0  0  0  0  0  0  0  0  0  0
  145.1740  135.4504  153.8871 H   0  0  0  0  0  0  0  0  0  0  0  0
  143.9925  136.4206  153.0387 H   0  0  0  0  0  0  0  0  0  0  0  0
  146.4817  135.7677  151.4836 H   0  0  0  0  0  0  0  0  0  0  0  0
  144.2198  136.7585  150.9710 H   0  0  0  0  0  0  0  0  0  0  0  0
  146.0064  133.5537  152.5884 H   0  0  0  0  0  0  0  0  0  0  0  0
  143.5804  133.4777  152.9910 H   0  0  0  0  0  0  0  0  0  0  0  0
  143.2526  133.9364  151.3153 H   0  0  0  0  0  0  0  0  0  0  0  0
  144.4545  131.3478  152.3202 H   0  0  0  0  0  0  0  0  0  0  0  0
  143.1680  131.5451  151.1272 H   0  0  0  0  0  0  0  0  0  0  0  0
  145.9320  131.2942  150.5370 H   0  0  0  0  0  0  0  0  0  0  0  0
  144.7538  131.9864  149.4191 H   0  0  0  0  0  0  0  0  0  0  0  0
  1  2  1  0  0  0  0
  1 29  1  0  0  0  0
  1 30  1  0  0  0  0
  1 31  1  0  0  0  0
  2  3  1  0  0  0  0
  2 10  1  0  0  0  0
  2 32  1  0  0  0  0
  3  4  1  0  0  0  0
  3 33  1  0  0  0  0
  3 34  1  0  0  0  0
  4  9  1  0  0  0  0
  4  5  1  0  0  0  0
  5  6  1  0  0  0  0
  5 35  1  0  0  0  0
  5 36  1  0  0  0  0
  6  7  1  0  0  0  0
  6 37  1  0  0  0  0
  6 38  1  0  0  0  0
  7  8  1  0  0  0  0
  8  9  1  0  0  0  0
  8 39  1  0  0  0  0
  8 40  1  0  0  0  0
  9 41  1  0  0  0  0
  9 42  1  0  0  0  0
 10 11  1  0  0  0  0
 10 12  1  0  0  0  0
 11 43  1  0  0  0  0
 11 44  1  0  0  0  0
 11 45  1  0  0  0  0
 12 17  1  0  0  0  0
 12 13  2  0  0  0  0
 13 14  1  0  0  0  0
 14 15  2  0  0  0  0
 14 46  1  0  0  0  0
 15 16  1  0  0  0  0
 16 20  1  0  0  0  0
 16 17  2  0  0  0  0
 17 18  1  0  0  0  0
 18 19  2  0  0  0  0
 19 20  1  0  0  0  0
 19 47  1  0  0  0  0
 20 21  1  0  0  0  0
 21 22  1  0  0  0  0
 21 48  1  0  0  0  0
 21 49  1  0  0  0  0
 22 23  1  0  0  0  0
 22 24  1  0  0  0  0
 22 50  1  0  0  0  0
 23 51  1  0  0  0  0
 24 28  1  0  0  0  0
 24 25  1  0  0  0  0
 24 52  1  0  0  0  0
 25 26  1  0  0  0  0
 25 53  1  0  0  0  0
 25 54  1  0  0  0  0
 26 27  1  0  0  0  0
 26 55  1  0  0  0  0
 26 56  1  0  0  0  0
 27 28  1  0  0  0  0
 27 57  1  0  0  0  0
 27 58  1  0  0  0  0
M  END
> <s_m_source_file>
AV-unprocessed.smi

> <i_m_source_file_index>
213

> <i_lp_mmshare_version>
43012

> <i_f3d_flags>
0

> <s_epik_input>
W0NIMl0xW0NIMl1PW0NIMl1bQ0gyXU4xW0NIMl1bQ0BASF0oW0NIM10pTihbQ0gzXSljKG5bY0hdbjIpYyhjMjMpbltjSF1uM1tDSDJdW0NASF0oW09IXSlbQ0BASF00W0NIMl1bQ0gyXVtDSDJdTzQ=

> <s_epik_cmdline>
J2VwaWtfcHl0aG9uJywgJy1waCcsICc3LjAnLCAnLXRuJywgJzgnLCAnLW1hJywgJzIwMCcsICctbWV0YWxfYmluZGluZycsICctaW1hZScsICc8aW5maWxlLm1hZT4nLCAnLW9tYWUnLCAnPG91dGZpbGUubWFlPic=

> <r_lp_tautomer_probability>
1

> <r_epik_Ionization_Penalty>
0.423322

> <r_epik_Ionization_Penalty_Charging>
0

> <r_epik_Ionization_Penalty_Neutral>
0.423322

> <r_epik_State_Penalty>
0.569486

> <r_epik_Charging_Adjusted_Penalty>
0.569486

> <i_epik_Tot_Q>
0

> <i_epik_Tot_abs_Q>
0

> <r_epik_Metal_State_Penalty>
0.568671

> <b_epik_Metal_Only>
0

> <s_lp_Force_Field>
OPLS_2005

> <r_lp_Energy>
53.3549

> <b_lp_Chiralities_Consistent>
1

> <s_lp_Variant>
AV-unprocessed.smi:213-14

> <Gold.Version>
5.8.1

> <Gold.Id.Protein>
6NUR|6NUR_protein|mol2

> <Gold.PLP.Fitness>
52.0718

> <Gold.PLP.PLP>
-47.8663

> <Gold.PLP.part.hbond>
-2.0000

> <Gold.PLP.part.metal>
0.0000

> <Gold.PLP.part.buried>
-8.9370

> <Gold.PLP.part.nonpolar>
-41.4503

> <Gold.PLP.part.repulsive>
4.0852

> <Gold.PLP.ligand.clash>
0.0000

> <Gold.PLP.ligand.torsion>
1.0616

> <Gold.PLP.Chemscore.Hbond>
1.0000

> <Gold.PLP.Chemscore.CHOScore>
1.0000

> <Gold.PLP.Chemscore.Metal>
0.0000

> <Gold.Chemscore.Hbonds>
donor molecule, donor type, donor heavy atom, donor atom, acceptor molecule, acceptor atom, score
      L1  H    23    51       P1 10171  0.36
      L1  C    19    47       P1 10171  1.00
      L1  C    19    47       P1 10175  0.24

> <Gold.PLP.Chemscore.Internal.Correction>
0.3287

> <Gold.Rescore>
     Score         DG    S(hbond)    S(metal)    S(lipo)     H(rot)  DE(clash)    DE(int)     intcor
     10.06     -14.71       1.00        0.00     110.28       2.74       1.04       3.60       ----

> <Gold.Chemscore.Fitness>
10.0648

> <Gold.Chemscore.DG>
-14.7056

> <Gold.Chemscore.ZeroCoef>
-5.4800

> <Gold.Chemscore.Hbond>
0.9974

> <Gold.Chemscore.Metal>
0.0000

> <Gold.Chemscore.Lipo>
110.2828

> <Gold.Chemscore.Internal_Hbond>
0.0000

> <Gold.Chemscore.DEClash>
1.0385

> <Gold.Chemscore.DEInternal>
3.6022

> <Gold.Chemscore.Rot>
2.7378

> <Gold.Chemscore.Internal.Correction>
   9.000000E+99

> <Gold.Chemscore.Hbonds>
donor molecule, donor type, donor heavy atom, donor atom, acceptor molecule, acceptor atom, score
      L1  H    23    51       P1 10171  0.35

> <Gold.Chemscore.Hbond.Weighted>
-3.3312

> <Gold.Chemscore.Metal.Weighted>
-0.0000

> <Gold.Chemscore.Lipo.Weighted>
-12.9031

> <Gold.Chemscore.Internal_Hbond.Weighted>
0.0000

> <Gold.Chemscore.DEClash.Weighted>
1.0385

> <Gold.Chemscore.DEInternal.Weighted>
3.6022

> <Gold.Chemscore.Rot.Weighted>
7.0087

> <Gold.Chemscore.Internal.Correction.Weighted>
   9.000000E+99

> <Gold.Protein.RotatedTorsions>
[ 6907 6896 6895 6894 ] final  -19.10 input  -60.11 | X-H torsion
[ 7974 7965 7964 7962 ] final -107.64 input  175.53 | X-H torsion
[ 8008 7997 7996 7995 ] final -123.22 input   59.86 | X-H torsion
[ 10167 10162 10161 10158 ] final  160.23 input  -65.29 | X-H torsion
[ 10718 10713 10712 10709 ] final  -33.23 input   66.30 | X-H torsion
[ 10763 10752 10751 10750 ] final  -20.01 input  -60.55 | X-H torsion
[ 11005 11000 10999 10996 ] final -109.07 input  -57.11 | X-H torsion

> <Gold.Protein.ActiveResidues>
 VAL166  LYS551  ARG553  GLY616  TRP617  ASP618  TYR619  PRO620  LYS621  CYS622 
 ASP623  PHE694  ASN695  SER759  ASP760  ASP761  ALA762  ILE779  LEU786  VAL792 
 PHE793  MET794  SER795  GLU796  ALA797  LYS798  CYS799  TRP800  GLU811  SER814 

> <Gold.Protein.RotatedAtoms>
  151.2682  135.0676  159.9123 H   0  0  0  0  0  0  0  0  0  0  0  0  # atno 6907 bound_to 6896
  152.5355  134.0158  159.7969 H   0  0  0  0  0  0  0  0  0  0  0  0  # atno 6908 bound_to 6896
  151.0392  133.5671  159.2684 H   0  0  0  0  0  0  0  0  0  0  0  0  # atno 6909 bound_to 6896
  145.2028  140.9064  143.3359 H   0  0  0  0  0  0  0  0  0  0  0  0  # atno 7974 bound_to 7965
  155.1770  140.0409  157.2874 H   0  0  0  0  0  0  0  0  0  0  0  0  # atno 8008 bound_to 7997
  154.6230  140.2505  155.7499 H   0  0  0  0  0  0  0  0  0  0  0  0  # atno 8009 bound_to 7997
  156.2444  140.2891  156.0546 H   0  0  0  0  0  0  0  0  0  0  0  0  # atno 8010 bound_to 7997
  139.4838  144.4654  151.8648 H   0  0  0  0  0  0  0  0  0  0  0  0  # atno 10167 bound_to 10162
  156.3651  130.4330  149.7591 H   0  0  0  0  0  0  0  0  0  0  0  0  # atno 10718 bound_to 10713
  153.6138  135.6995  153.5336 H   0  0  0  0  0  0  0  0  0  0  0  0  # atno 10763 bound_to 10752
  153.2994  135.4133  155.1239 H   0  0  0  0  0  0  0  0  0  0  0  0  # atno 10764 bound_to 10752
  154.8558  135.3645  154.5677 H   0  0  0  0  0  0  0  0  0  0  0  0  # atno 10765 bound_to 10752
  141.0868  133.9125  157.2168 H   0  0  0  0  0  0  0  0  0  0  0  0  # atno 11005 bound_to 11000
  144.9931  139.3670  143.6205 LP  0  0  0  0  0  0  0  0  0  0  0  0  # atno 17320 bound_to 7965
  146.3414  139.9122  142.8778 LP  0  0  0  0  0  0  0  0  0  0  0  0  # atno 17321 bound_to 7965
  140.4119  144.2357  150.5888 LP  0  0  0  0  0  0  0  0  0  0  0  0  # atno 17342 bound_to 10162
  140.4957  143.2333  151.8752 LP  0  0  0  0  0  0  0  0  0  0  0  0  # atno 17343 bound_to 10162
  156.4740  130.8010  151.3027 LP  0  0  0  0  0  0  0  0  0  0  0  0  # atno 17370 bound_to 10713
  157.7478  131.0027  150.3010 LP  0  0  0  0  0  0  0  0  0  0  0  0  # atno 17371 bound_to 10713
  139.9687  135.0134  156.9455 LP  0  0  0  0  0  0  0  0  0  0  0  0  # atno 17394 bound_to 11000
  140.5345  134.0780  155.7324 LP  0  0  0  0  0  0  0  0  0  0  0  0  # atno 17395 bound_to 11000

$$$$
