AV-unprocessed.smi:2553|AV-procd|sdf|10017|dock9
  -GOLD-   2272014 63D 1   1.00000     0.00000
 Structure written by MMmdl.
 29 30  0  0  0  0  0  0  0  0  1 V2000
  147.2736  139.0881  153.0108 O   0  0  0  0  0  0  0  0  0  0  0  0
  148.2897  139.3690  153.6436 C   0  0  0  0  0  0  0  0  0  0  0  0
  149.3094  138.4219  153.7794 N   0  0  0  0  0  0  0  0  0  0  0  0
  150.5079  138.6117  154.4681 C   0  0  0  0  0  0  0  0  0  0  0  0
  151.3285  137.6965  154.5364 O   0  0  0  0  0  0  0  0  0  0  0  0
  150.7055  139.8780  155.0643 N   0  0  0  0  0  0  0  0  0  0  0  0
  151.9198  140.0937  155.8125 C   0  0  0  0  0  0  0  0  0  0  0  0
  151.6616  140.7232  157.1901 C   0  0  0  0  0  0  0  0  0  0  0  0
  152.7441  140.3785  158.0437 O   0  0  0  0  0  0  0  0  0  0  0  0
  152.8581  141.0149  159.2605 C   0  0  0  0  0  0  0  0  0  0  0  0
  152.1949  142.2254  159.5853 C   0  0  0  0  0  0  0  0  0  0  0  0
  152.3608  142.8106  160.8555 C   0  0  0  0  0  0  0  0  0  0  0  0
  153.1874  142.1965  161.8142 C   0  0  0  0  0  0  0  0  0  0  0  0
  153.3438  142.7597  163.0355 F   0  0  0  0  0  0  0  0  0  0  0  0
  153.8509  140.9963  161.5008 C   0  0  0  0  0  0  0  0  0  0  0  0
  153.6877  140.4095  160.2306 C   0  0  0  0  0  0  0  0  0  0  0  0
  154.5156  138.9374  159.8661 Cl  0  0  0  0  0  0  0  0  0  0  0  0
  149.7160  140.8440  154.9654 C   0  0  0  0  0  0  0  0  0  0  0  0
  148.5512  140.6486  154.3017 C   0  0  0  0  0  0  0  0  0  0  0  0
  147.3616  141.8991  154.2317 Cl  0  0  0  0  0  0  0  0  0  0  0  0
  149.1634  137.5214  153.3466 H   0  0  0  0  0  0  0  0  0  0  0  0
  152.4453  139.1391  155.8818 H   0  0  0  0  0  0  0  0  0  0  0  0
  152.5475  140.7417  155.1989 H   0  0  0  0  0  0  0  0  0  0  0  0
  151.5648  141.8064  157.1021 H   0  0  0  0  0  0  0  0  0  0  0  0
  150.7281  140.3332  157.5985 H   0  0  0  0  0  0  0  0  0  0  0  0
  151.5512  142.7249  158.8774 H   0  0  0  0  0  0  0  0  0  0  0  0
  151.8514  143.7324  161.0947 H   0  0  0  0  0  0  0  0  0  0  0  0
  154.4863  140.5255  162.2364 H   0  0  0  0  0  0  0  0  0  0  0  0
  149.8743  141.7986  155.4473 H   0  0  0  0  0  0  0  0  0  0  0  0
  1  2  2  0  0  0  0
  2 19  1  0  0  0  0
  2  3  1  0  0  0  0
  3 21  1  0  0  0  0
  3  4  1  0  0  0  0
  4  5  2  0  0  0  0
  4  6  1  0  0  0  0
  6  7  1  0  0  0  0
  6 18  1  0  0  0  0
  7  8  1  0  0  0  0
  7 22  1  0  0  0  0
  7 23  1  0  0  0  0
  8  9  1  0  0  0  0
  8 24  1  0  0  0  0
  8 25  1  0  0  0  0
  9 10  1  0  0  0  0
 10 16  1  0  0  0  0
 10 11  2  0  0  0  0
 11 12  1  0  0  0  0
 11 26  1  0  0  0  0
 12 13  2  0  0  0  0
 12 27  1  0  0  0  0
 13 14  1  0  0  0  0
 13 15  1  0  0  0  0
 15 16  2  0  0  0  0
 15 28  1  0  0  0  0
 16 17  1  0  0  0  0
 18 19  2  0  0  0  0
 18 29  1  0  0  0  0
 19 20  1  0  0  0  0
M  END
> <s_m_source_file>
AV-unprocessed.smi

> <i_m_source_file_index>
2553

> <i_lp_mmshare_version>
43012

> <i_f3d_flags>
0

> <s_epik_input>
Tz1jMVtuSF1jKD1PKW4oW2NIXWMxQ2wpW0NIMl1bQ0gyXU9jMltjSF1bY0hdYyhGKVtjSF1jMkNs

> <s_epik_cmdline>
J2VwaWtfcHl0aG9uJywgJy1waCcsICc3LjAnLCAnLXRuJywgJzgnLCAnLW1hJywgJzIwMCcsICctbWV0YWxfYmluZGluZycsICctaW1hZScsICc8aW5maWxlLm1hZT4nLCAnLW9tYWUnLCAnPG91dGZpbGUubWFlPic=

> <r_lp_tautomer_probability>
0.999537

> <r_epik_Ionization_Penalty>
0.0476949

> <r_epik_Ionization_Penalty_Charging>
0.0476949

> <r_epik_Ionization_Penalty_Neutral>
0

> <r_epik_State_Penalty>
0.0406325

> <r_epik_Charging_Adjusted_Penalty>
0.0883274

> <i_epik_Tot_Q>
0

> <i_epik_Tot_abs_Q>
0

> <r_epik_Metal_State_Penalty>
2.53375

> <b_epik_Metal_Only>
0

> <s_lp_Force_Field>
OPLS_2005

> <r_lp_Energy>
13.2328

> <b_lp_Chiralities_Consistent>
1

> <s_lp_Variant>
AV-unprocessed.smi:2553-1

> <Gold.Version>
5.8.1

> <Gold.Id.Protein>
6NUR|6NUR_protein|mol2

> <Gold.PLP.Fitness>
51.1329

> <Gold.PLP.PLP>
-46.9930

> <Gold.PLP.part.hbond>
-2.7186

> <Gold.PLP.part.metal>
0.0000

> <Gold.PLP.part.buried>
-1.0697

> <Gold.PLP.part.nonpolar>
-42.5756

> <Gold.PLP.part.repulsive>
0.6981

> <Gold.PLP.ligand.clash>
0.0000

> <Gold.PLP.ligand.torsion>
0.5507

> <Gold.PLP.Chemscore.Hbond>
1.7441

> <Gold.PLP.Chemscore.CHOScore>
0.0000

> <Gold.PLP.Chemscore.Metal>
0.0000

> <Gold.Chemscore.Hbonds>
donor molecule, donor type, donor heavy atom, donor atom, acceptor molecule, acceptor atom, score
      L1  H     3    21       P1  7948  1.00
      P1  H  7997  8010       L1     9  0.71

> <Gold.PLP.Chemscore.Internal.Correction>
0.0089

> <Gold.Rescore>
     Score         DG    S(hbond)    S(metal)    S(lipo)     H(rot)  DE(clash)    DE(int)     intcor
     13.62     -14.81       0.73        0.00     101.09       1.94       0.69       0.49       ----

> <Gold.Chemscore.Fitness>
13.6186

> <Gold.Chemscore.DG>
-14.8059

> <Gold.Chemscore.ZeroCoef>
-5.4800

> <Gold.Chemscore.Hbond>
0.7344

> <Gold.Chemscore.Metal>
0.0000

> <Gold.Chemscore.Lipo>
101.0924

> <Gold.Chemscore.Internal_Hbond>
0.0000

> <Gold.Chemscore.DEClash>
0.6938

> <Gold.Chemscore.DEInternal>
0.4935

> <Gold.Chemscore.Rot>
1.9355

> <Gold.Chemscore.Internal.Correction>
   9.000000E+99

> <Gold.Chemscore.Hbonds>
donor molecule, donor type, donor heavy atom, donor atom, acceptor molecule, acceptor atom, score
      L1  H     3    21       P1  7948  0.97
      P1  H  7997  8010       L1     9  0.50

> <Gold.Chemscore.Hbond.Weighted>
-2.4529

> <Gold.Chemscore.Metal.Weighted>
-0.0000

> <Gold.Chemscore.Lipo.Weighted>
-11.8278

> <Gold.Chemscore.Internal_Hbond.Weighted>
0.0000

> <Gold.Chemscore.DEClash.Weighted>
0.6938

> <Gold.Chemscore.DEInternal.Weighted>
0.4935

> <Gold.Chemscore.Rot.Weighted>
4.9548

> <Gold.Chemscore.Internal.Correction.Weighted>
   9.000000E+99

> <Gold.Protein.RotatedTorsions>
[ 6907 6896 6895 6894 ] final  -46.07 input  -60.11 | X-H torsion
[ 7974 7965 7964 7962 ] final   12.81 input  175.53 | X-H torsion
[ 8008 7997 7996 7995 ] final   44.60 input   59.86 | X-H torsion
[ 10167 10162 10161 10158 ] final  138.29 input  -65.29 | X-H torsion
[ 10718 10713 10712 10709 ] final  -38.24 input   66.30 | X-H torsion
[ 10763 10752 10751 10750 ] final  103.68 input  -60.55 | X-H torsion
[ 11005 11000 10999 10996 ] final  -90.86 input  -57.11 | X-H torsion

> <Gold.Protein.ActiveResidues>
 VAL166  LYS551  ARG553  GLY616  TRP617  ASP618  TYR619  PRO620  LYS621  CYS622 
 ASP623  PHE694  ASN695  SER759  ASP760  ASP761  ALA762  ILE779  LEU786  VAL792 
 PHE793  MET794  SER795  GLU796  ALA797  LYS798  CYS799  TRP800  GLU811  SER814 

> <Gold.Protein.RotatedAtoms>
  150.9151  134.8569  159.7451 H   0  0  0  0  0  0  0  0  0  0  0  0  # atno 6907 bound_to 6896
  152.4964  134.4301  159.9519 H   0  0  0  0  0  0  0  0  0  0  0  0  # atno 6908 bound_to 6896
  151.4340  133.3622  159.2808 H   0  0  0  0  0  0  0  0  0  0  0  0  # atno 6909 bound_to 6896
  146.2343  139.9282  142.8500 H   0  0  0  0  0  0  0  0  0  0  0  0  # atno 7974 bound_to 7965
  155.3221  140.3397  155.4241 H   0  0  0  0  0  0  0  0  0  0  0  0  # atno 8008 bound_to 7997
  156.1904  140.1695  156.8140 H   0  0  0  0  0  0  0  0  0  0  0  0  # atno 8009 bound_to 7997
  154.5435  140.0720  156.8533 H   0  0  0  0  0  0  0  0  0  0  0  0  # atno 8010 bound_to 7997
  139.5116  144.6362  151.5691 H   0  0  0  0  0  0  0  0  0  0  0  0  # atno 10167 bound_to 10162
  156.3060  130.4246  149.8096 H   0  0  0  0  0  0  0  0  0  0  0  0  # atno 10718 bound_to 10713
  153.3559  135.3968  155.1682 H   0  0  0  0  0  0  0  0  0  0  0  0  # atno 10763 bound_to 10752
  154.8671  135.3668  154.5162 H   0  0  0  0  0  0  0  0  0  0  0  0  # atno 10764 bound_to 10752
  153.5617  135.7081  153.5604 H   0  0  0  0  0  0  0  0  0  0  0  0  # atno 10765 bound_to 10752
  141.1557  133.7719  156.9798 H   0  0  0  0  0  0  0  0  0  0  0  0  # atno 11005 bound_to 11000
  145.2070  140.9879  143.4122 LP  0  0  0  0  0  0  0  0  0  0  0  0  # atno 17320 bound_to 7965
  144.9724  139.3867  143.6302 LP  0  0  0  0  0  0  0  0  0  0  0  0  # atno 17321 bound_to 7965
  140.6112  143.9433  150.6454 LP  0  0  0  0  0  0  0  0  0  0  0  0  # atno 17342 bound_to 10162
  140.2676  143.3479  152.1267 LP  0  0  0  0  0  0  0  0  0  0  0  0  # atno 17343 bound_to 10162
  156.5457  130.8319  151.3283 LP  0  0  0  0  0  0  0  0  0  0  0  0  # atno 17370 bound_to 10713
  157.7380  130.9805  150.2224 LP  0  0  0  0  0  0  0  0  0  0  0  0  # atno 17371 bound_to 10713
  140.1073  134.9498  157.2014 LP  0  0  0  0  0  0  0  0  0  0  0  0  # atno 17394 bound_to 11000
  140.3239  134.2885  155.7241 LP  0  0  0  0  0  0  0  0  0  0  0  0  # atno 17395 bound_to 11000

$$$$
