AV-unprocessed.smi:1464|AV-procd|sdf|5940|dock3
  -GOLD-   22720 6 23D 1   1.00000     0.00000
 Structure written by MMmdl.
 40 41  0  0  0  0  0  0  0  0  2 V2000
  151.5979  145.8389  160.4945 C   0  0  0  0  0  0  0  0  0  0  0  0
  152.3657  144.5260  160.2535 C   0  0  1  0  0  0  0  0  0  0  0  0
  152.5582  143.7892  161.5943 C   0  0  0  0  0  0  0  0  0  0  0  0
  153.3486  142.4877  161.4217 C   0  0  0  0  0  0  0  0  0  0  0  0
  152.6552  141.5655  160.4151 C   0  0  0  0  0  0  0  0  0  0  0  0
  152.4601  142.2645  159.0559 C   0  0  1  0  0  0  0  0  0  0  0  0
  151.7587  141.3599  158.1465 N   0  0  0  0  0  0  0  0  0  0  0  0
  150.4475  141.0759  158.1834 C   0  0  0  0  0  0  0  0  0  0  0  0
  149.6725  141.5815  158.9973 O   0  0  0  0  0  0  0  0  0  0  0  0
  149.9542  140.0815  157.1205 C   0  0  0  0  0  0  0  0  0  0  0  0
  148.8582  140.5940  156.2854 N   0  0  0  0  0  0  0  0  0  0  0  0
  147.7377  141.1308  157.0532 N   0  5  0  0  0  0  0  0  0  0  0  0
  146.6736  141.6584  156.3918 C   0  0  0  0  0  0  0  0  0  0  0  0
  145.7035  142.1434  156.9695 O   0  0  0  0  0  0  0  0  0  0  0  0
  146.6932  141.6390  154.9386 C   0  0  0  0  0  0  0  0  0  0  0  0
  147.7311  141.1167  154.2560 C   0  0  0  0  0  0  0  0  0  0  0  0
  148.8954  140.5466  154.9231 C   0  0  0  0  0  0  0  0  0  0  0  0
  149.8435  140.0623  154.3051 O   0  0  0  0  0  0  0  0  0  0  0  0
  151.6878  143.6045  159.1991 C   0  0  2  0  0  0  0  0  0  0  0  0
  151.5370  144.3049  157.8305 C   0  0  0  0  0  0  0  0  0  0  0  0
  150.5645  145.6470  160.7848 H   0  0  0  0  0  0  0  0  0  0  0  0
  151.5878  146.4738  159.6090 H   0  0  0  0  0  0  0  0  0  0  0  0
  152.0614  146.4221  161.2908 H   0  0  0  0  0  0  0  0  0  0  0  0
  153.3561  144.7915  159.8807 H   0  0  0  0  0  0  0  0  0  0  0  0
  153.0792  144.4340  162.3032 H   0  0  0  0  0  0  0  0  0  0  0  0
  151.5858  143.5681  162.0371 H   0  0  0  0  0  0  0  0  0  0  0  0
  154.3605  142.7111  161.0815 H   0  0  0  0  0  0  0  0  0  0  0  0
  153.4478  141.9814  162.3824 H   0  0  0  0  0  0  0  0  0  0  0  0
  153.2449  140.6565  160.2898 H   0  0  0  0  0  0  0  0  0  0  0  0
  151.6889  141.2537  160.8145 H   0  0  0  0  0  0  0  0  0  0  0  0
  153.4449  142.4920  158.6421 H   0  0  0  0  0  0  0  0  0  0  0  0
  152.3179  140.9003  157.4427 H   0  0  0  0  0  0  0  0  0  0  0  0
  150.8015  139.7939  156.4962 H   0  0  0  0  0  0  0  0  0  0  0  0
  149.6391  139.1629  157.6197 H   0  0  0  0  0  0  0  0  0  0  0  0
  145.8561  142.0507  154.3943 H   0  0  0  0  0  0  0  0  0  0  0  0
  147.7025  141.1224  153.1766 H   0  0  0  0  0  0  0  0  0  0  0  0
  150.6843  143.3717  159.5592 H   0  0  0  0  0  0  0  0  0  0  0  0
  152.5065  144.6081  157.4342 H   0  0  0  0  0  0  0  0  0  0  0  0
  150.9089  145.1924  157.8946 H   0  0  0  0  0  0  0  0  0  0  0  0
  151.0684  143.6563  157.0904 H   0  0  0  0  0  0  0  0  0  0  0  0
  1  2  1  0  0  0  0
  1 21  1  0  0  0  0
  1 22  1  0  0  0  0
  1 23  1  0  0  0  0
  2 19  1  0  0  0  0
  2  3  1  0  0  0  0
  2 24  1  0  0  0  0
  3  4  1  0  0  0  0
  3 25  1  0  0  0  0
  3 26  1  0  0  0  0
  4  5  1  0  0  0  0
  4 27  1  0  0  0  0
  4 28  1  0  0  0  0
  5  6  1  0  0  0  0
  5 29  1  0  0  0  0
  5 30  1  0  0  0  0
  6  7  1  0  0  0  0
  6 19  1  0  0  0  0
  6 31  1  0  0  0  0
  7  8  1  0  0  0  0
  7 32  1  0  0  0  0
  8  9  2  0  0  0  0
  8 10  1  0  0  0  0
 10 33  1  0  0  0  0
 10 34  1  0  0  0  0
 10 11  1  0  0  0  0
 11 12  1  0  0  0  0
 11 17  1  0  0  0  0
 12 13  1  0  0  0  0
 13 14  2  0  0  0  0
 13 15  1  0  0  0  0
 15 35  1  0  0  0  0
 15 16  2  0  0  0  0
 16 36  1  0  0  0  0
 16 17  1  0  0  0  0
 17 18  2  0  0  0  0
 19 20  1  0  0  0  0
 19 37  1  0  0  0  0
 20 38  1  0  0  0  0
 20 39  1  0  0  0  0
 20 40  1  0  0  0  0
M  CHG  1  12  -1
M  END
> <s_m_source_file>
AV-unprocessed.smi

> <i_m_source_file_index>
1464

> <i_lp_mmshare_version>
43012

> <i_f3d_flags>
0

> <s_epik_input>
W0NIM11bQ0BASF0xW0NIMl1bQ0gyXVtDSDJdW0NASF0oW0NASF0xW0NIM10pW05IXUMoPU8pW0NIMl1uMltuSF1jKD1PKVtjSF1bY0hdYzI9Tw==

> <s_epik_cmdline>
J2VwaWtfcHl0aG9uJywgJy1waCcsICc3LjAnLCAnLXRuJywgJzgnLCAnLW1hJywgJzIwMCcsICctbWV0YWxfYmluZGluZycsICctaW1hZScsICc8aW5maWxlLm1hZT4nLCAnLW9tYWUnLCAnPG91dGZpbGUubWFlPic=

> <r_lp_tautomer_probability>
1

> <r_epik_Ionization_Penalty>
0.101366

> <r_epik_Ionization_Penalty_Charging>
0.101366

> <r_epik_Ionization_Penalty_Neutral>
1.90469e-08

> <r_epik_State_Penalty>
0.035861

> <r_epik_Charging_Adjusted_Penalty>
0.137227

> <i_epik_Tot_Q>
-1

> <i_epik_Tot_abs_Q>
1

> <r_epik_Metal_State_Penalty>
0.035861

> <b_epik_Metal_Only>
0

> <s_lp_Force_Field>
OPLS_2005

> <r_lp_Energy>
28.8284

> <b_lp_Chiralities_Consistent>
1

> <s_lp_Variant>
AV-unprocessed.smi:1464-6

> <Gold.Version>
5.8.1

> <Gold.Id.Protein>
6NUR|6NUR_protein|mol2

> <Gold.PLP.Fitness>
45.7113

> <Gold.PLP.PLP>
-43.2238

> <Gold.PLP.part.hbond>
-1.7802

> <Gold.PLP.part.metal>
0.0000

> <Gold.PLP.part.buried>
-3.9298

> <Gold.PLP.part.nonpolar>
-38.1103

> <Gold.PLP.part.repulsive>
1.1546

> <Gold.PLP.ligand.clash>
0.0000

> <Gold.PLP.ligand.torsion>
0.2625

> <Gold.PLP.Chemscore.Hbond>
1.0000

> <Gold.PLP.Chemscore.CHOScore>
0.0000

> <Gold.PLP.Chemscore.Metal>
0.0000

> <Gold.Chemscore.Hbonds>
donor molecule, donor type, donor heavy atom, donor atom, acceptor molecule, acceptor atom, score
      P1  H  7989  7998       L1    18  0.75

> <Gold.PLP.Chemscore.Internal.Correction>
0.0124

> <Gold.Rescore>
     Score         DG    S(hbond)    S(metal)    S(lipo)     H(rot)  DE(clash)    DE(int)     intcor
     14.54     -17.60       0.99        0.00     111.23       1.64       0.05       3.00       ----

> <Gold.Chemscore.Fitness>
14.5386

> <Gold.Chemscore.DG>
-17.5977

> <Gold.Chemscore.ZeroCoef>
-5.4800

> <Gold.Chemscore.Hbond>
0.9916

> <Gold.Chemscore.Metal>
0.0000

> <Gold.Chemscore.Lipo>
111.2274

> <Gold.Chemscore.Internal_Hbond>
0.0000

> <Gold.Chemscore.DEClash>
0.0542

> <Gold.Chemscore.DEInternal>
3.0049

> <Gold.Chemscore.Rot>
1.6438

> <Gold.Chemscore.Internal.Correction>
   9.000000E+99

> <Gold.Chemscore.Hbonds>
donor molecule, donor type, donor heavy atom, donor atom, acceptor molecule, acceptor atom, score
      P1  H  7989  7998       L1    18  0.71

> <Gold.Chemscore.Hbond.Weighted>
-3.3121

> <Gold.Chemscore.Metal.Weighted>
-0.0000

> <Gold.Chemscore.Lipo.Weighted>
-13.0136

> <Gold.Chemscore.Internal_Hbond.Weighted>
0.0000

> <Gold.Chemscore.DEClash.Weighted>
0.0542

> <Gold.Chemscore.DEInternal.Weighted>
3.0049

> <Gold.Chemscore.Rot.Weighted>
4.2080

> <Gold.Chemscore.Internal.Correction.Weighted>
   9.000000E+99

> <Gold.Protein.RotatedTorsions>
[ 6907 6896 6895 6894 ] final -178.11 input  -60.11 | X-H torsion
[ 7974 7965 7964 7962 ] final   84.12 input  175.53 | X-H torsion
[ 8008 7997 7996 7995 ] final  -20.71 input   59.86 | X-H torsion
[ 10167 10162 10161 10158 ] final  111.02 input  -65.29 | X-H torsion
[ 10718 10713 10712 10709 ] final   18.70 input   66.30 | X-H torsion
[ 10763 10752 10751 10750 ] final  -16.96 input  -60.55 | X-H torsion
[ 11005 11000 10999 10996 ] final   32.45 input  -57.11 | X-H torsion

> <Gold.Protein.ActiveResidues>
 VAL166  LYS551  ARG553  GLY616  TRP617  ASP618  TYR619  PRO620  LYS621  CYS622 
 ASP623  PHE694  ASN695  SER759  ASP760  ASP761  ALA762  ILE779  LEU786  VAL792 
 PHE793  MET794  SER795  GLU796  ALA797  LYS798  CYS799  TRP800  GLU811  SER814 

> <Gold.Protein.RotatedAtoms>
  151.6318  133.3331  159.3110 H   0  0  0  0  0  0  0  0  0  0  0  0  # atno 6907 bound_to 6896
  150.8052  134.7177  159.6649 H   0  0  0  0  0  0  0  0  0  0  0  0  # atno 6908 bound_to 6896
  152.4147  134.6067  160.0066 H   0  0  0  0  0  0  0  0  0  0  0  0  # atno 6909 bound_to 6896
  145.6030  139.2355  143.2235 H   0  0  0  0  0  0  0  0  0  0  0  0  # atno 7974 bound_to 7965
  154.4752  140.2054  155.9896 H   0  0  0  0  0  0  0  0  0  0  0  0  # atno 8008 bound_to 7997
  156.1077  140.3234  155.7999 H   0  0  0  0  0  0  0  0  0  0  0  0  # atno 8009 bound_to 7997
  155.4689  140.0529  157.2973 H   0  0  0  0  0  0  0  0  0  0  0  0  # atno 8010 bound_to 7997
  139.6643  144.7128  151.1806 H   0  0  0  0  0  0  0  0  0  0  0  0  # atno 10167 bound_to 10162
  157.1000  130.6464  149.5870 H   0  0  0  0  0  0  0  0  0  0  0  0  # atno 10718 bound_to 10713
  153.5666  135.7008  153.5523 H   0  0  0  0  0  0  0  0  0  0  0  0  # atno 10763 bound_to 10752
  153.3382  135.4028  155.1550 H   0  0  0  0  0  0  0  0  0  0  0  0  # atno 10764 bound_to 10752
  154.8640  135.3735  154.5186 H   0  0  0  0  0  0  0  0  0  0  0  0  # atno 10765 bound_to 10752
  140.2734  134.3056  155.7821 H   0  0  0  0  0  0  0  0  0  0  0  0  # atno 11005 bound_to 11000
  146.1562  140.6854  142.9299 LP  0  0  0  0  0  0  0  0  0  0  0  0  # atno 17320 bound_to 7965
  144.7302  140.4648  143.6943 LP  0  0  0  0  0  0  0  0  0  0  0  0  # atno 17321 bound_to 7965
  140.7593  143.5944  150.8763 LP  0  0  0  0  0  0  0  0  0  0  0  0  # atno 17342 bound_to 10162
  139.9605  143.6170  152.3004 LP  0  0  0  0  0  0  0  0  0  0  0  0  # atno 17343 bound_to 10162
  155.9876  130.4916  150.7132 LP  0  0  0  0  0  0  0  0  0  0  0  0  # atno 17370 bound_to 10713
  157.4649  131.0887  151.0706 LP  0  0  0  0  0  0  0  0  0  0  0  0  # atno 17371 bound_to 10713
  141.2174  133.7480  156.9369 LP  0  0  0  0  0  0  0  0  0  0  0  0  # atno 17394 bound_to 11000
  140.1352  134.9330  157.2391 LP  0  0  0  0  0  0  0  0  0  0  0  0  # atno 17395 bound_to 11000

$$$$
