AV-unprocessed.smi:1830|AV-procd|sdf|7440|dock6
  -GOLD-   22720 9123D 1   1.00000     0.00000
 Structure written by MMmdl.
 52 55  0  0  0  0  0  0  0  0  1 V2000
  149.9907  136.2922  159.1687 O   0  0  0  0  0  0  0  0  0  0  0  0
  149.1839  137.1947  158.9505 C   0  0  0  0  0  0  0  0  0  0  0  0
  149.3886  138.1632  158.0469 N   0  0  0  0  0  0  0  0  0  0  0  0
  150.5890  138.3162  157.2315 C   0  0  0  0  0  0  0  0  0  0  0  0
  151.2179  139.7082  157.4104 C   0  0  2  0  0  0  0  0  0  0  0  0
  151.9312  139.8490  158.7751 C   0  0  0  0  0  0  0  0  0  0  0  0
  152.4152  141.2066  158.9390 N   0  0  0  0  0  0  0  0  0  0  0  0
  153.0482  141.5304  160.1962 C   0  0  0  0  0  0  0  0  0  0  0  0
  153.0657  143.0691  160.2250 C   0  0  0  0  0  0  0  0  0  0  0  0
  151.9729  143.4863  159.2155 C   0  0  0  0  0  0  0  0  0  0  0  0
  151.3338  142.1490  158.8381 C   0  0  1  0  0  0  0  0  0  0  0  0
  150.6498  142.0466  157.4676 C   0  0  0  0  0  0  0  0  0  0  0  0
  150.1908  140.7028  157.3051 O   0  0  0  0  0  0  0  0  0  0  0  0
  148.0009  137.3604  159.5667 N   0  0  0  0  0  0  0  0  0  0  0  0
  147.3899  136.6042  160.6122 C   0  0  0  0  0  0  0  0  0  0  0  0
  148.1107  135.7739  161.5074 C   0  0  0  0  0  0  0  0  0  0  0  0
  147.4154  135.0747  162.5101 C   0  0  0  0  0  0  0  0  0  0  0  0
  146.0206  135.2247  162.5855 C   0  0  0  0  0  0  0  0  0  0  0  0
  145.3181  136.0049  161.7408 N   0  0  0  0  0  0  0  0  0  0  0  0
  145.9794  136.6873  160.7738 C   0  0  0  0  0  0  0  0  0  0  0  0
  145.2089  137.4670  159.8856 N   0  0  0  0  0  0  0  0  0  0  0  0
  144.3233  136.6728  159.0384 C   0  0  0  0  0  0  0  0  0  0  0  0
  143.0248  137.4700  158.8981 C   0  0  0  0  0  0  0  0  0  0  0  0
  142.9873  138.2942  160.1788 C   0  0  0  0  0  0  0  0  0  0  0  0
  144.4637  138.6113  160.4080 C   0  0  0  0  0  0  0  0  0  0  0  0
  148.6719  138.8649  157.9337 H   0  0  0  0  0  0  0  0  0  0  0  0
  151.3168  137.5330  157.4510 H   0  0  0  0  0  0  0  0  0  0  0  0
  150.2946  138.1782  156.1908 H   0  0  0  0  0  0  0  0  0  0  0  0
  151.9450  139.8745  156.6132 H   0  0  0  0  0  0  0  0  0  0  0  0
  151.2411  139.5984  159.5824 H   0  0  0  0  0  0  0  0  0  0  0  0
  152.7641  139.1481  158.8403 H   0  0  0  0  0  0  0  0  0  0  0  0
  152.4517  141.1501  161.0272 H   0  0  0  0  0  0  0  0  0  0  0  0
  154.0459  141.0967  160.2688 H   0  0  0  0  0  0  0  0  0  0  0  0
  152.8618  143.4456  161.2277 H   0  0  0  0  0  0  0  0  0  0  0  0
  154.0369  143.4549  159.9129 H   0  0  0  0  0  0  0  0  0  0  0  0
  151.2498  144.1825  159.6411 H   0  0  0  0  0  0  0  0  0  0  0  0
  152.4268  143.9580  158.3427 H   0  0  0  0  0  0  0  0  0  0  0  0
  150.5893  141.9131  159.6017 H   0  0  0  0  0  0  0  0  0  0  0  0
  149.8013  142.7281  157.4073 H   0  0  0  0  0  0  0  0  0  0  0  0
  151.3372  142.3056  156.6609 H   0  0  0  0  0  0  0  0  0  0  0  0
  147.4694  138.1655  159.2698 H   0  0  0  0  0  0  0  0  0  0  0  0
  149.1793  135.6480  161.4554 H   0  0  0  0  0  0  0  0  0  0  0  0
  147.9415  134.4369  163.2047 H   0  0  0  0  0  0  0  0  0  0  0  0
  145.4532  134.7025  163.3415 H   0  0  0  0  0  0  0  0  0  0  0  0
  144.7787  136.4815  158.0667 H   0  0  0  0  0  0  0  0  0  0  0  0
  144.1181  135.7081  159.5057 H   0  0  0  0  0  0  0  0  0  0  0  0
  143.0885  138.1336  158.0347 H   0  0  0  0  0  0  0  0  0  0  0  0
  142.1483  136.8340  158.7720 H   0  0  0  0  0  0  0  0  0  0  0  0
  142.3679  139.1875  160.0962 H   0  0  0  0  0  0  0  0  0  0  0  0
  142.6047  137.6878  161.0010 H   0  0  0  0  0  0  0  0  0  0  0  0
  144.6724  138.8461  161.4519 H   0  0  0  0  0  0  0  0  0  0  0  0
  144.7500  139.4866  159.8242 H   0  0  0  0  0  0  0  0  0  0  0  0
  1  2  2  0  0  0  0
  2  3  1  0  0  0  0
  2 14  1  0  0  0  0
  3  4  1  0  0  0  0
  3 26  1  0  0  0  0
  4  5  1  0  0  0  0
  4 27  1  0  0  0  0
  4 28  1  0  0  0  0
  5 13  1  0  0  0  0
  5  6  1  0  0  0  0
  5 29  1  0  0  0  0
  6  7  1  0  0  0  0
  6 30  1  0  0  0  0
  6 31  1  0  0  0  0
  7 11  1  0  0  0  0
  7  8  1  0  0  0  0
  8  9  1  0  0  0  0
  8 32  1  0  0  0  0
  8 33  1  0  0  0  0
  9 10  1  0  0  0  0
  9 34  1  0  0  0  0
  9 35  1  0  0  0  0
 10 11  1  0  0  0  0
 10 36  1  0  0  0  0
 10 37  1  0  0  0  0
 11 12  1  0  0  0  0
 11 38  1  0  0  0  0
 12 13  1  0  0  0  0
 12 39  1  0  0  0  0
 12 40  1  0  0  0  0
 14 15  1  0  0  0  0
 14 41  1  0  0  0  0
 15 20  1  0  0  0  0
 15 16  2  0  0  0  0
 16 17  1  0  0  0  0
 16 42  1  0  0  0  0
 17 18  2  0  0  0  0
 17 43  1  0  0  0  0
 18 19  1  0  0  0  0
 18 44  1  0  0  0  0
 19 20  2  0  0  0  0
 20 21  1  0  0  0  0
 21 25  1  0  0  0  0
 21 22  1  0  0  0  0
 22 23  1  0  0  0  0
 22 45  1  0  0  0  0
 22 46  1  0  0  0  0
 23 24  1  0  0  0  0
 23 47  1  0  0  0  0
 23 48  1  0  0  0  0
 24 25  1  0  0  0  0
 24 49  1  0  0  0  0
 24 50  1  0  0  0  0
 25 51  1  0  0  0  0
 25 52  1  0  0  0  0
M  END
> <s_m_source_file>
AV-unprocessed.smi

> <i_m_source_file_index>
1830

> <i_lp_mmshare_version>
43012

> <i_f3d_flags>
0

> <s_epik_input>
W0NIMl0xW0NIMl1bQ0gyXVtDQEhdKE4xMilbQ0gyXU9bQ0BASF0oW0NIMl0yKVtDSDJdW05IXUMoPU8pW05IXWMzW2NIXVtjSF1bY0hdbmMzTjRbQ0gyXVtDSDJdW0NIMl1bQ0gyXTQ=

> <s_epik_cmdline>
J2VwaWtfcHl0aG9uJywgJy1waCcsICc3LjAnLCAnLXRuJywgJzgnLCAnLW1hJywgJzIwMCcsICctbWV0YWxfYmluZGluZycsICctaW1hZScsICc8aW5maWxlLm1hZT4nLCAnLW9tYWUnLCAnPG91dGZpbGUubWFlPic=

> <r_lp_tautomer_probability>
1

> <r_epik_Ionization_Penalty>
1.16487

> <r_epik_Ionization_Penalty_Charging>
0

> <r_epik_Ionization_Penalty_Neutral>
1.16487

> <r_epik_State_Penalty>
1.21807

> <r_epik_Charging_Adjusted_Penalty>
1.21807

> <i_epik_Tot_Q>
0

> <i_epik_Tot_abs_Q>
0

> <r_epik_Metal_State_Penalty>
1.19922

> <b_epik_Metal_Only>
0

> <s_lp_Force_Field>
OPLS_2005

> <r_lp_Energy>
77.1598

> <b_lp_Chiralities_Consistent>
1

> <s_lp_Variant>
AV-unprocessed.smi:1830-9

> <Gold.Version>
5.8.1

> <Gold.Id.Protein>
6NUR|6NUR_protein|mol2

> <Gold.PLP.Fitness>
37.8482

> <Gold.PLP.PLP>
-35.2327

> <Gold.PLP.part.hbond>
-1.0000

> <Gold.PLP.part.metal>
0.0000

> <Gold.PLP.part.buried>
-6.6848

> <Gold.PLP.part.nonpolar>
-29.0516

> <Gold.PLP.part.repulsive>
0.9610

> <Gold.PLP.ligand.clash>
0.0000

> <Gold.PLP.ligand.torsion>
0.2513

> <Gold.PLP.Chemscore.Hbond>
1.0000

> <Gold.PLP.Chemscore.CHOScore>
0.0000

> <Gold.PLP.Chemscore.Metal>
0.0000

> <Gold.Chemscore.Hbonds>
donor molecule, donor type, donor heavy atom, donor atom, acceptor molecule, acceptor atom, score
      P1  H  6896  6907       L1     1  1.00

> <Gold.PLP.Chemscore.Internal.Correction>
0.1181

> <Gold.Rescore>
     Score         DG    S(hbond)    S(metal)    S(lipo)     H(rot)  DE(clash)    DE(int)     intcor
     15.17     -16.25       0.98        0.00      94.05       1.37       0.19       0.89       ----

> <Gold.Chemscore.Fitness>
15.1727

> <Gold.Chemscore.DG>
-16.2531

> <Gold.Chemscore.ZeroCoef>
-5.4800

> <Gold.Chemscore.Hbond>
0.9846

> <Gold.Chemscore.Metal>
0.0000

> <Gold.Chemscore.Lipo>
94.0468

> <Gold.Chemscore.Internal_Hbond>
0.0000

> <Gold.Chemscore.DEClash>
0.1889

> <Gold.Chemscore.DEInternal>
0.8915

> <Gold.Chemscore.Rot>
1.3746

> <Gold.Chemscore.Internal.Correction>
   9.000000E+99

> <Gold.Chemscore.Hbonds>
donor molecule, donor type, donor heavy atom, donor atom, acceptor molecule, acceptor atom, score
      P1  H  6896  6907       L1     1  0.98

> <Gold.Chemscore.Hbond.Weighted>
-3.2885

> <Gold.Chemscore.Metal.Weighted>
-0.0000

> <Gold.Chemscore.Lipo.Weighted>
-11.0035

> <Gold.Chemscore.Internal_Hbond.Weighted>
0.0000

> <Gold.Chemscore.DEClash.Weighted>
0.1889

> <Gold.Chemscore.DEInternal.Weighted>
0.8915

> <Gold.Chemscore.Rot.Weighted>
3.5189

> <Gold.Chemscore.Internal.Correction.Weighted>
   9.000000E+99

> <Gold.Protein.RotatedTorsions>
[ 6907 6896 6895 6894 ] final  -60.08 input  -60.11 | X-H torsion
[ 7974 7965 7964 7962 ] final  153.46 input  175.53 | X-H torsion
[ 8008 7997 7996 7995 ] final -103.89 input   59.86 | X-H torsion
[ 10167 10162 10161 10158 ] final   31.54 input  -65.29 | X-H torsion
[ 10718 10713 10712 10709 ] final  -34.46 input   66.30 | X-H torsion
[ 10763 10752 10751 10750 ] final  -41.74 input  -60.55 | X-H torsion
[ 11005 11000 10999 10996 ] final   48.61 input  -57.11 | X-H torsion

> <Gold.Protein.ActiveResidues>
 VAL166  LYS551  ARG553  GLY616  TRP617  ASP618  TYR619  PRO620  LYS621  CYS622 
 ASP623  PHE694  ASN695  SER759  ASP760  ASP761  ALA762  ILE779  LEU786  VAL792 
 PHE793  MET794  SER795  GLU796  ALA797  LYS798  CYS799  TRP800  GLU811  SER814 

> <Gold.Protein.RotatedAtoms>
  150.7882  134.6884  159.6482 H   0  0  0  0  0  0  0  0  0  0  0  0  # atno 6907 bound_to 6896
  152.3983  134.6326  160.0089 H   0  0  0  0  0  0  0  0  0  0  0  0  # atno 6908 bound_to 6896
  151.6605  133.3280  159.3209 H   0  0  0  0  0  0  0  0  0  0  0  0  # atno 6909 bound_to 6896
  144.8153  139.6803  143.6124 H   0  0  0  0  0  0  0  0  0  0  0  0  # atno 7974 bound_to 7965
  154.8775  140.0420  157.1762 H   0  0  0  0  0  0  0  0  0  0  0  0  # atno 8008 bound_to 7997
  154.8674  140.2953  155.5481 H   0  0  0  0  0  0  0  0  0  0  0  0  # atno 8009 bound_to 7997
  156.2999  140.2435  156.3658 H   0  0  0  0  0  0  0  0  0  0  0  0  # atno 8010 bound_to 7997
  140.4580  144.0949  150.6206 H   0  0  0  0  0  0  0  0  0  0  0  0  # atno 10167 bound_to 10162
  156.3503  130.4307  149.7710 H   0  0  0  0  0  0  0  0  0  0  0  0  # atno 10718 bound_to 10713
  153.9675  135.6732  153.4746 H   0  0  0  0  0  0  0  0  0  0  0  0  # atno 10763 bound_to 10752
  153.0809  135.4924  154.8497 H   0  0  0  0  0  0  0  0  0  0  0  0  # atno 10764 bound_to 10752
  154.7238  135.3123  154.8965 H   0  0  0  0  0  0  0  0  0  0  0  0  # atno 10765 bound_to 10752
  140.1175  134.4873  155.8625 H   0  0  0  0  0  0  0  0  0  0  0  0  # atno 11005 bound_to 11000
  146.2456  139.6091  142.9462 LP  0  0  0  0  0  0  0  0  0  0  0  0  # atno 17320 bound_to 7965
  145.5228  141.0431  143.2426 LP  0  0  0  0  0  0  0  0  0  0  0  0  # atno 17321 bound_to 7965
  140.4128  143.2648  151.9812 LP  0  0  0  0  0  0  0  0  0  0  0  0  # atno 17342 bound_to 10162
  139.4803  144.5900  151.7787 LP  0  0  0  0  0  0  0  0  0  0  0  0  # atno 17343 bound_to 10162
  156.4913  130.8086  151.3096 LP  0  0  0  0  0  0  0  0  0  0  0  0  # atno 17370 bound_to 10713
  157.7460  130.9974  150.2815 LP  0  0  0  0  0  0  0  0  0  0  0  0  # atno 17371 bound_to 10713
  141.2144  133.6749  156.6825 LP  0  0  0  0  0  0  0  0  0  0  0  0  # atno 17394 bound_to 11000
  140.3008  134.8165  157.4096 LP  0  0  0  0  0  0  0  0  0  0  0  0  # atno 17395 bound_to 11000

$$$$
