AV-unprocessed.smi:1285|AV-procd|sdf|5369|dock9
  -GOLD-   22720 4513D 1   1.00000     0.00000
 Structure written by MMmdl.
 46 47  0  0  0  0  0  0  0  0  1 V2000
  151.1251  141.3956  155.8406 C   0  0  0  0  0  0  0  0  0  0  0  0
  151.3208  140.0228  156.5097 C   0  0  0  0  0  0  0  0  0  0  0  0
  150.5441  139.8035  157.8471 C   0  0  1  0  0  0  0  0  0  0  0  0
  149.1051  140.3362  157.6081 C   0  0  0  0  0  0  0  0  0  0  0  0
  150.4539  138.2686  158.1302 C   0  0  0  0  0  0  0  0  0  0  0  0
  149.1132  137.8130  158.4986 N   0  0  0  0  0  0  0  0  0  0  0  0
  148.6966  136.5365  158.5271 C   0  0  0  0  0  0  0  0  0  0  0  0
  149.4233  135.5833  158.2446 O   0  0  0  0  0  0  0  0  0  0  0  0
  147.2308  136.3093  158.9266 C   0  0  1  0  0  0  0  0  0  0  0  0
  146.5418  135.2444  158.0491 C   0  0  0  0  0  0  0  0  0  0  0  0
  147.1390  136.0030  160.3489 N   0  0  0  0  0  0  0  0  0  0  0  0
  146.7938  134.8672  160.9596 C   0  0  0  0  0  0  0  0  0  0  0  0
  146.7698  134.9516  162.2823 N   0  0  0  0  0  0  0  0  0  0  0  0
  147.1215  136.2629  162.4331 C   0  0  0  0  0  0  0  0  0  0  0  0
  147.3430  136.9412  161.3073 N   0  0  0  0  0  0  0  0  0  0  0  0
  151.1956  140.5410  158.9666 N   0  0  0  0  0  0  0  0  0  0  0  0
  152.5298  140.0601  159.3445 C   0  0  0  0  0  0  0  0  0  0  0  0
  153.0643  140.7730  160.5985 C   0  0  0  0  0  0  0  0  0  0  0  0
  153.0813  142.1790  160.3814 O   0  0  0  0  0  0  0  0  0  0  0  0
  151.7940  142.6952  160.0649 C   0  0  0  0  0  0  0  0  0  0  0  0
  151.2539  141.9990  158.8045 C   0  0  0  0  0  0  0  0  0  0  0  0
  151.7137  141.4587  154.9252 H   0  0  0  0  0  0  0  0  0  0  0  0
  151.4439  142.2132  156.4868 H   0  0  0  0  0  0  0  0  0  0  0  0
  150.0844  141.5683  155.5682 H   0  0  0  0  0  0  0  0  0  0  0  0
  151.0275  139.2676  155.7804 H   0  0  0  0  0  0  0  0  0  0  0  0
  152.3870  139.8537  156.6605 H   0  0  0  0  0  0  0  0  0  0  0  0
  148.6901  139.9862  156.6622 H   0  0  0  0  0  0  0  0  0  0  0  0
  149.0776  141.4260  157.5857 H   0  0  0  0  0  0  0  0  0  0  0  0
  148.4140  140.0097  158.3852 H   0  0  0  0  0  0  0  0  0  0  0  0
  150.8165  137.6926  157.2786 H   0  0  0  0  0  0  0  0  0  0  0  0
  151.1001  137.9966  158.9639 H   0  0  0  0  0  0  0  0  0  0  0  0
  148.4459  138.5308  158.7405 H   0  0  0  0  0  0  0  0  0  0  0  0
  146.6964  137.2478  158.7682 H   0  0  0  0  0  0  0  0  0  0  0  0
  146.5784  135.5225  156.9953 H   0  0  0  0  0  0  0  0  0  0  0  0
  145.4915  135.1365  158.3214 H   0  0  0  0  0  0  0  0  0  0  0  0
  147.0104  134.2642  158.1464 H   0  0  0  0  0  0  0  0  0  0  0  0
  146.5518  133.9600  160.4255 H   0  0  0  0  0  0  0  0  0  0  0  0
  147.2117  136.7331  163.4011 H   0  0  0  0  0  0  0  0  0  0  0  0
  152.5157  138.9916  159.5520 H   0  0  0  0  0  0  0  0  0  0  0  0
  153.2343  140.2164  158.5277 H   0  0  0  0  0  0  0  0  0  0  0  0
  152.4474  140.5392  161.4678 H   0  0  0  0  0  0  0  0  0  0  0  0
  154.0760  140.4358  160.8240 H   0  0  0  0  0  0  0  0  0  0  0  0
  151.1162  142.5484  160.9073 H   0  0  0  0  0  0  0  0  0  0  0  0
  151.8720  143.7700  159.9000 H   0  0  0  0  0  0  0  0  0  0  0  0
  151.8939  142.2608  157.9621 H   0  0  0  0  0  0  0  0  0  0  0  0
  150.2689  142.4103  158.5929 H   0  0  0  0  0  0  0  0  0  0  0  0
  1  2  1  0  0  0  0
  1 22  1  0  0  0  0
  1 23  1  0  0  0  0
  1 24  1  0  0  0  0
  2  3  1  0  0  0  0
  2 25  1  0  0  0  0
  2 26  1  0  0  0  0
  3  4  1  0  0  0  0
  3  5  1  0  0  0  0
  3 16  1  0  0  0  0
  4 27  1  0  0  0  0
  4 28  1  0  0  0  0
  4 29  1  0  0  0  0
  5  6  1  0  0  0  0
  5 30  1  0  0  0  0
  5 31  1  0  0  0  0
  6  7  1  0  0  0  0
  6 32  1  0  0  0  0
  7  8  2  0  0  0  0
  7  9  1  0  0  0  0
  9 10  1  0  0  0  0
  9 11  1  0  0  0  0
  9 33  1  0  0  0  0
 10 34  1  0  0  0  0
 10 35  1  0  0  0  0
 10 36  1  0  0  0  0
 11 15  1  0  0  0  0
 11 12  1  0  0  0  0
 12 13  2  0  0  0  0
 12 37  1  0  0  0  0
 13 14  1  0  0  0  0
 14 15  2  0  0  0  0
 14 38  1  0  0  0  0
 16 21  1  0  0  0  0
 16 17  1  0  0  0  0
 17 18  1  0  0  0  0
 17 39  1  0  0  0  0
 17 40  1  0  0  0  0
 18 19  1  0  0  0  0
 18 41  1  0  0  0  0
 18 42  1  0  0  0  0
 19 20  1  0  0  0  0
 20 21  1  0  0  0  0
 20 43  1  0  0  0  0
 20 44  1  0  0  0  0
 21 45  1  0  0  0  0
 21 46  1  0  0  0  0
M  END
> <s_m_source_file>
AV-unprocessed.smi

> <i_m_source_file_index>
1285

> <i_lp_mmshare_version>
43012

> <i_f3d_flags>
0

> <s_epik_input>
W0NIMl0xW0NIMl1PW0NIMl1bQ0gyXU4xW0NAQF0oW0NIM10pKFtDSDJdW0NIM10pW0NIMl1bTkhdQyg9TylbQ0BIXShbQ0gzXSluMltjSF1uW2NIXW4y

> <s_epik_cmdline>
J2VwaWtfcHl0aG9uJywgJy1waCcsICc3LjAnLCAnLXRuJywgJzgnLCAnLW1hJywgJzIwMCcsICctbWV0YWxfYmluZGluZycsICctaW1hZScsICc8aW5maWxlLm1hZT4nLCAnLW9tYWUnLCAnPG91dGZpbGUubWFlPic=

> <r_lp_tautomer_probability>
1

> <r_epik_Ionization_Penalty>
0.285697

> <r_epik_Ionization_Penalty_Charging>
0

> <r_epik_Ionization_Penalty_Neutral>
0.285697

> <r_epik_State_Penalty>
0.278478

> <r_epik_Charging_Adjusted_Penalty>
0.278478

> <i_epik_Tot_Q>
0

> <i_epik_Tot_abs_Q>
0

> <r_epik_Metal_State_Penalty>
0.278477

> <b_epik_Metal_Only>
0

> <s_lp_Force_Field>
OPLS_2005

> <r_lp_Energy>
48.702

> <b_lp_Chiralities_Consistent>
1

> <s_lp_Variant>
AV-unprocessed.smi:1285-3

> <Gold.Version>
5.8.1

> <Gold.Id.Protein>
6NUR|6NUR_protein|mol2

> <Gold.PLP.Fitness>
37.7087

> <Gold.PLP.PLP>
-37.1567

> <Gold.PLP.part.hbond>
-3.0000

> <Gold.PLP.part.metal>
0.0000

> <Gold.PLP.part.buried>
-6.0556

> <Gold.PLP.part.nonpolar>
-26.8792

> <Gold.PLP.part.repulsive>
0.2229

> <Gold.PLP.ligand.clash>
2.6626

> <Gold.PLP.ligand.torsion>
2.1531

> <Gold.PLP.Chemscore.Hbond>
2.4248

> <Gold.PLP.Chemscore.CHOScore>
0.0000

> <Gold.PLP.Chemscore.Metal>
0.0000

> <Gold.Chemscore.Hbonds>
donor molecule, donor type, donor heavy atom, donor atom, acceptor molecule, acceptor atom, score
      P1  H  6896  6908       L1     8  0.86
      P1  H  6931  6943       L1    15  0.52
      P1  H  6934  6947       L1    15  0.78

> <Gold.PLP.Chemscore.Internal.Correction>
0.2462

> <Gold.Rescore>
     Score         DG    S(hbond)    S(metal)    S(lipo)     H(rot)  DE(clash)    DE(int)     intcor
     10.64     -12.48       1.98        0.00      62.03       2.68       0.05       1.79       ----

> <Gold.Chemscore.Fitness>
10.6413

> <Gold.Chemscore.DG>
-12.4788

> <Gold.Chemscore.ZeroCoef>
-5.4800

> <Gold.Chemscore.Hbond>
1.9782

> <Gold.Chemscore.Metal>
0.0000

> <Gold.Chemscore.Lipo>
62.0309

> <Gold.Chemscore.Internal_Hbond>
0.0000

> <Gold.Chemscore.DEClash>
0.0462

> <Gold.Chemscore.DEInternal>
1.7913

> <Gold.Chemscore.Rot>
2.6821

> <Gold.Chemscore.Internal.Correction>
   9.000000E+99

> <Gold.Chemscore.Hbonds>
donor molecule, donor type, donor heavy atom, donor atom, acceptor molecule, acceptor atom, score
      P1  H  6896  6908       L1     8  0.82
      P1  H  6931  6943       L1    15  0.15
      P1  H  6934  6947       L1    15  0.73

> <Gold.Chemscore.Hbond.Weighted>
-6.6073

> <Gold.Chemscore.Metal.Weighted>
-0.0000

> <Gold.Chemscore.Lipo.Weighted>
-7.2576

> <Gold.Chemscore.Internal_Hbond.Weighted>
0.0000

> <Gold.Chemscore.DEClash.Weighted>
0.0462

> <Gold.Chemscore.DEInternal.Weighted>
1.7913

> <Gold.Chemscore.Rot.Weighted>
6.8661

> <Gold.Chemscore.Internal.Correction.Weighted>
   9.000000E+99

> <Gold.Protein.RotatedTorsions>
[ 6907 6896 6895 6894 ] final -179.90 input  -60.11 | X-H torsion
[ 7974 7965 7964 7962 ] final  176.15 input  175.53 | X-H torsion
[ 8008 7997 7996 7995 ] final  103.10 input   59.86 | X-H torsion
[ 10167 10162 10161 10158 ] final  143.03 input  -65.29 | X-H torsion
[ 10718 10713 10712 10709 ] final    3.29 input   66.30 | X-H torsion
[ 10763 10752 10751 10750 ] final -176.01 input  -60.55 | X-H torsion
[ 11005 11000 10999 10996 ] final   78.18 input  -57.11 | X-H torsion

> <Gold.Protein.ActiveResidues>
 VAL166  LYS551  ARG553  GLY616  TRP617  ASP618  TYR619  PRO620  LYS621  CYS622 
 ASP623  PHE694  ASN695  SER759  ASP760  ASP761  ALA762  ILE779  LEU786  VAL792 
 PHE793  MET794  SER795  GLU796  ALA797  LYS798  CYS799  TRP800  GLU811  SER814 

> <Gold.Protein.RotatedAtoms>
  151.6610  133.3317  159.3173 H   0  0  0  0  0  0  0  0  0  0  0  0  # atno 6907 bound_to 6896
  150.7913  134.6943  159.6524 H   0  0  0  0  0  0  0  0  0  0  0  0  # atno 6908 bound_to 6896
  152.3993  134.6316  160.0128 H   0  0  0  0  0  0  0  0  0  0  0  0  # atno 6909 bound_to 6896
  144.7189  140.0054  143.6440 H   0  0  0  0  0  0  0  0  0  0  0  0  # atno 7974 bound_to 7965
  156.1453  140.3170  155.8561 H   0  0  0  0  0  0  0  0  0  0  0  0  # atno 8008 bound_to 7997
  155.4076  140.0503  157.3050 H   0  0  0  0  0  0  0  0  0  0  0  0  # atno 8009 bound_to 7997
  154.5011  140.2129  155.9357 H   0  0  0  0  0  0  0  0  0  0  0  0  # atno 8010 bound_to 7997
  139.4979  144.6067  151.6362 H   0  0  0  0  0  0  0  0  0  0  0  0  # atno 10167 bound_to 10162
  156.8757  130.5635  149.5655 H   0  0  0  0  0  0  0  0  0  0  0  0  # atno 10718 bound_to 10713
  154.5775  135.2833  155.0766 H   0  0  0  0  0  0  0  0  0  0  0  0  # atno 10763 bound_to 10752
  154.2115  135.6407  153.5120 H   0  0  0  0  0  0  0  0  0  0  0  0  # atno 10764 bound_to 10752
  153.0077  135.5493  154.6418 H   0  0  0  0  0  0  0  0  0  0  0  0  # atno 10765 bound_to 10752
  139.9223  134.7743  156.1617 H   0  0  0  0  0  0  0  0  0  0  0  0  # atno 11005 bound_to 11000
  146.0302  139.3328  143.0760 LP  0  0  0  0  0  0  0  0  0  0  0  0  # atno 17320 bound_to 7965
  145.8462  140.9554  143.0773 LP  0  0  0  0  0  0  0  0  0  0  0  0  # atno 17321 bound_to 7965
  140.5731  144.0075  150.6227 LP  0  0  0  0  0  0  0  0  0  0  0  0  # atno 17342 bound_to 10162
  140.3199  143.3144  152.0795 LP  0  0  0  0  0  0  0  0  0  0  0  0  # atno 17343 bound_to 10162
  156.0703  130.5738  150.9371 LP  0  0  0  0  0  0  0  0  0  0  0  0  # atno 17370 bound_to 10713
  157.6170  131.0932  150.8692 LP  0  0  0  0  0  0  0  0  0  0  0  0  # atno 17371 bound_to 10713
  141.0754  133.6778  156.2225 LP  0  0  0  0  0  0  0  0  0  0  0  0  # atno 17394 bound_to 11000
  140.6438  134.5138  157.5572 LP  0  0  0  0  0  0  0  0  0  0  0  0  # atno 17395 bound_to 11000

$$$$
