AV-unprocessed.smi:1155|AV-procd|sdf|4904|dock4
  -GOLD-   22720 3483D 1   1.00000     0.00000
 Structure written by MMmdl.
 38 40  0  0  0  0  0  0  0  0  1 V2000
  152.0159  130.0526  156.6113 C   0  0  0  0  0  0  0  0  0  0  0  0
  151.2531  131.2018  156.1168 N   0  0  0  0  0  0  0  0  0  0  0  0
  150.3539  130.9854  155.0545 C   0  0  0  0  0  0  0  0  0  0  0  0
  149.6068  131.9805  154.5272 C   0  0  0  0  0  0  0  0  0  0  0  0
  148.6815  131.8365  153.4826 N   0  0  0  0  0  0  0  0  0  0  0  0
  147.6011  132.5859  153.1935 C   0  0  0  0  0  0  0  0  0  0  0  0
  147.1901  133.5400  153.8534 O   0  0  0  0  0  0  0  0  0  0  0  0
  147.0007  132.1439  152.0774 N   0  0  0  0  0  0  0  0  0  0  0  0
  145.7880  132.6823  151.4639 C   0  0  0  0  0  0  0  0  0  0  0  0
  145.1919  131.7896  150.3851 C   0  0  0  0  0  0  0  0  0  0  0  0
  145.8008  131.7153  149.0052 C   0  0  0  0  0  0  0  0  0  0  0  0
  144.4545  132.3750  149.2052 C   0  0  0  0  0  0  0  0  0  0  0  0
  145.9384  134.1115  150.9647 C   0  0  0  0  0  0  0  0  0  0  0  0
  145.8001  135.2848  151.9039 C   0  0  0  0  0  0  0  0  0  0  0  0
  144.7459  135.0311  150.8494 C   0  0  0  0  0  0  0  0  0  0  0  0
  149.7607  133.2949  155.1137 C   0  0  0  0  0  0  0  0  0  0  0  0
  150.6149  133.5092  156.1331 C   0  0  0  0  0  0  0  0  0  0  0  0
  151.4239  132.4255  156.6955 C   0  0  0  0  0  0  0  0  0  0  0  0
  152.2057  132.6059  157.6295 O   0  0  0  0  0  0  0  0  0  0  0  0
  151.8416  129.1466  156.0300 H   0  0  0  0  0  0  0  0  0  0  0  0
  151.7473  129.8343  157.6459 H   0  0  0  0  0  0  0  0  0  0  0  0
  153.0870  130.2564  156.5743 H   0  0  0  0  0  0  0  0  0  0  0  0
  150.3163  129.9596  154.7245 H   0  0  0  0  0  0  0  0  0  0  0  0
  148.8575  131.0546  152.8690 H   0  0  0  0  0  0  0  0  0  0  0  0
  147.4167  131.3513  151.6107 H   0  0  0  0  0  0  0  0  0  0  0  0
  145.0643  132.7108  152.2797 H   0  0  0  0  0  0  0  0  0  0  0  0
  144.7987  130.8484  150.7650 H   0  0  0  0  0  0  0  0  0  0  0  0
  146.6467  132.3629  148.7843 H   0  0  0  0  0  0  0  0  0  0  0  0
  145.8179  130.7430  148.5169 H   0  0  0  0  0  0  0  0  0  0  0  0
  143.5746  131.8427  148.8500 H   0  0  0  0  0  0  0  0  0  0  0  0
  144.4096  133.4589  149.1216 H   0  0  0  0  0  0  0  0  0  0  0  0
  146.6873  134.2237  150.1828 H   0  0  0  0  0  0  0  0  0  0  0  0
  145.5361  135.0772  152.9390 H   0  0  0  0  0  0  0  0  0  0  0  0
  146.4715  136.1276  151.7535 H   0  0  0  0  0  0  0  0  0  0  0  0
  144.7134  135.7068  149.9972 H   0  0  0  0  0  0  0  0  0  0  0  0
  143.7803  134.6607  151.1882 H   0  0  0  0  0  0  0  0  0  0  0  0
  149.1844  134.1231  154.7279 H   0  0  0  0  0  0  0  0  0  0  0  0
  150.7075  134.5027  156.5464 H   0  0  0  0  0  0  0  0  0  0  0  0
  1  2  1  0  0  0  0
  1 20  1  0  0  0  0
  1 21  1  0  0  0  0
  1 22  1  0  0  0  0
  2 18  1  0  0  0  0
  2  3  1  0  0  0  0
  3  4  2  0  0  0  0
  3 23  1  0  0  0  0
  4  5  1  0  0  0  0
  4 16  1  0  0  0  0
  5  6  1  0  0  0  0
  5 24  1  0  0  0  0
  6  7  2  0  0  0  0
  6  8  1  0  0  0  0
  8  9  1  0  0  0  0
  8 25  1  0  0  0  0
  9 10  1  0  0  0  0
  9 13  1  0  0  0  0
  9 26  1  0  0  0  0
 10 12  1  0  0  0  0
 10 11  1  0  0  0  0
 10 27  1  0  0  0  0
 11 12  1  0  0  0  0
 11 28  1  0  0  0  0
 11 29  1  0  0  0  0
 12 30  1  0  0  0  0
 12 31  1  0  0  0  0
 13 15  1  0  0  0  0
 13 14  1  0  0  0  0
 13 32  1  0  0  0  0
 14 15  1  0  0  0  0
 14 33  1  0  0  0  0
 14 34  1  0  0  0  0
 15 35  1  0  0  0  0
 15 36  1  0  0  0  0
 16 17  2  0  0  0  0
 16 37  1  0  0  0  0
 17 18  1  0  0  0  0
 17 38  1  0  0  0  0
 18 19  2  0  0  0  0
M  END
> <s_m_source_file>
AV-unprocessed.smi

> <i_m_source_file_index>
1155

> <i_lp_mmshare_version>
43012

> <i_f3d_flags>
0

> <s_epik_input>
Tz1jMVtjSF1bY0hdYyhbY0hdbjFbQ0gzXSlbTkhdQyg9TylbTkhdW0NIXShbQ0hdMltDSDJdW0NIMl0yKVtDSF0zW0NIMl1bQ0gyXTM=

> <s_epik_cmdline>
J2VwaWtfcHl0aG9uJywgJy1waCcsICc3LjAnLCAnLXRuJywgJzgnLCAnLW1hJywgJzIwMCcsICctbWV0YWxfYmluZGluZycsICctaW1hZScsICc8aW5maWxlLm1hZT4nLCAnLW9tYWUnLCAnPG91dGZpbGUubWFlPic=

> <r_lp_tautomer_probability>
1

> <r_epik_Ionization_Penalty>
2.79104e-05

> <r_epik_Ionization_Penalty_Charging>
6.05378e-06

> <r_epik_Ionization_Penalty_Neutral>
2.18566e-05

> <r_epik_State_Penalty>
-0

> <r_epik_Charging_Adjusted_Penalty>
6.05378e-06

> <i_epik_Tot_Q>
0

> <i_epik_Tot_abs_Q>
0

> <r_epik_Metal_State_Penalty>
-0

> <b_epik_Metal_Only>
0

> <s_lp_Force_Field>
OPLS_2005

> <r_lp_Energy>
36.9075

> <b_lp_Chiralities_Consistent>
1

> <s_lp_Variant>
AV-unprocessed.smi:1155-1

> <Gold.Version>
5.8.1

> <Gold.Id.Protein>
6NUR|6NUR_protein|mol2

> <Gold.PLP.Fitness>
43.3219

> <Gold.PLP.PLP>
-37.9798

> <Gold.PLP.part.hbond>
-2.0830

> <Gold.PLP.part.metal>
0.0000

> <Gold.PLP.part.buried>
-5.3732

> <Gold.PLP.part.nonpolar>
-30.3684

> <Gold.PLP.part.repulsive>
0.0791

> <Gold.PLP.ligand.clash>
0.0000

> <Gold.PLP.ligand.torsion>
1.3160

> <Gold.PLP.Chemscore.Hbond>
1.9360

> <Gold.PLP.Chemscore.CHOScore>
0.0000

> <Gold.PLP.Chemscore.Metal>
0.0000

> <Gold.Chemscore.Hbonds>
donor molecule, donor type, donor heavy atom, donor atom, acceptor molecule, acceptor atom, score
      L1  H     8    25       P1 10747  0.66
      P1  H  6896  6909       L1    19  1.00

> <Gold.PLP.Chemscore.Internal.Correction>
2.1660

> <Gold.Rescore>
     Score         DG    S(hbond)    S(metal)    S(lipo)     H(rot)  DE(clash)    DE(int)     intcor
     15.46     -18.37       1.92        0.00      85.01       1.35       0.24       2.67       ----

> <Gold.Chemscore.Fitness>
15.4569

> <Gold.Chemscore.DG>
-18.3694

> <Gold.Chemscore.ZeroCoef>
-5.4800

> <Gold.Chemscore.Hbond>
1.9160

> <Gold.Chemscore.Metal>
0.0000

> <Gold.Chemscore.Lipo>
85.0089

> <Gold.Chemscore.Internal_Hbond>
0.0000

> <Gold.Chemscore.DEClash>
0.2393

> <Gold.Chemscore.DEInternal>
2.6732

> <Gold.Chemscore.Rot>
1.3500

> <Gold.Chemscore.Internal.Correction>
   9.000000E+99

> <Gold.Chemscore.Hbonds>
donor molecule, donor type, donor heavy atom, donor atom, acceptor molecule, acceptor atom, score
      L1  H     8    25       P1 10747  0.65
      P1  H  6896  6909       L1    19  0.96

> <Gold.Chemscore.Hbond.Weighted>
-6.3994

> <Gold.Chemscore.Metal.Weighted>
-0.0000

> <Gold.Chemscore.Lipo.Weighted>
-9.9460

> <Gold.Chemscore.Internal_Hbond.Weighted>
0.0000

> <Gold.Chemscore.DEClash.Weighted>
0.2393

> <Gold.Chemscore.DEInternal.Weighted>
2.6732

> <Gold.Chemscore.Rot.Weighted>
3.4560

> <Gold.Chemscore.Internal.Correction.Weighted>
   9.000000E+99

> <Gold.Protein.RotatedTorsions>
[ 6907 6896 6895 6894 ] final  -69.44 input  -60.11 | X-H torsion
[ 7974 7965 7964 7962 ] final  100.67 input  175.53 | X-H torsion
[ 8008 7997 7996 7995 ] final  -82.66 input   59.86 | X-H torsion
[ 10167 10162 10161 10158 ] final   50.39 input  -65.29 | X-H torsion
[ 10718 10713 10712 10709 ] final -126.94 input   66.30 | X-H torsion
[ 10763 10752 10751 10750 ] final   18.74 input  -60.55 | X-H torsion
[ 11005 11000 10999 10996 ] final   43.61 input  -57.11 | X-H torsion

> <Gold.Protein.ActiveResidues>
 VAL166  LYS551  ARG553  GLY616  TRP617  ASP618  TYR619  PRO620  LYS621  CYS622 
 ASP623  PHE694  ASN695  SER759  ASP760  ASP761  ALA762  ILE779  LEU786  VAL792 
 PHE793  MET794  SER795  GLU796  ALA797  LYS798  CYS799  TRP800  GLU811  SER814 

> <Gold.Protein.RotatedAtoms>
  150.7306  134.5597  159.5835 H   0  0  0  0  0  0  0  0  0  0  0  0  # atno 6907 bound_to 6896
  152.3063  134.7548  160.0355 H   0  0  0  0  0  0  0  0  0  0  0  0  # atno 6908 bound_to 6896
  151.8111  133.3346  159.3592 H   0  0  0  0  0  0  0  0  0  0  0  0  # atno 6909 bound_to 6896
  145.3825  139.2377  143.3395 H   0  0  0  0  0  0  0  0  0  0  0  0  # atno 7974 bound_to 7965
  154.6109  140.0630  156.9492 H   0  0  0  0  0  0  0  0  0  0  0  0  # atno 8008 bound_to 7997
  155.1975  140.3312  155.4330 H   0  0  0  0  0  0  0  0  0  0  0  0  # atno 8009 bound_to 7997
  156.2376  140.1870  156.7061 H   0  0  0  0  0  0  0  0  0  0  0  0  # atno 8010 bound_to 7997
  140.2729  144.3244  150.6285 H   0  0  0  0  0  0  0  0  0  0  0  0  # atno 10167 bound_to 10162
  156.1811  130.6733  151.0306 H   0  0  0  0  0  0  0  0  0  0  0  0  # atno 10718 bound_to 10713
  153.1223  135.6722  153.9315 H   0  0  0  0  0  0  0  0  0  0  0  0  # atno 10763 bound_to 10752
  153.8827  135.3056  155.3447 H   0  0  0  0  0  0  0  0  0  0  0  0  # atno 10764 bound_to 10752
  154.7633  135.4977  153.9585 H   0  0  0  0  0  0  0  0  0  0  0  0  # atno 10765 bound_to 10752
  140.1628  134.4319  155.8306 H   0  0  0  0  0  0  0  0  0  0  0  0  # atno 11005 bound_to 11000
  146.2835  140.4495  142.8767 LP  0  0  0  0  0  0  0  0  0  0  0  0  # atno 17320 bound_to 7965
  144.8497  140.6983  143.6176 LP  0  0  0  0  0  0  0  0  0  0  0  0  # atno 17321 bound_to 7965
  140.5875  143.2169  151.7315 LP  0  0  0  0  0  0  0  0  0  0  0  0  # atno 17342 bound_to 10162
  139.4984  144.3989  152.0202 LP  0  0  0  0  0  0  0  0  0  0  0  0  # atno 17343 bound_to 10162
  157.6869  131.0822  150.7218 LP  0  0  0  0  0  0  0  0  0  0  0  0  # atno 17370 bound_to 10713
  156.7275  130.4699  149.5507 LP  0  0  0  0  0  0  0  0  0  0  0  0  # atno 17371 bound_to 10713
  141.2211  133.6921  156.7625 LP  0  0  0  0  0  0  0  0  0  0  0  0  # atno 17394 bound_to 11000
  140.2469  134.8571  157.3629 LP  0  0  0  0  0  0  0  0  0  0  0  0  # atno 17395 bound_to 11000

$$$$
