AV-unprocessed.smi:2438|AV-procd|sdf|9602|dock3
  -GOLD-   2272013233D 1   1.00000     0.00000
 Structure written by MMmdl.
 44 45  0  0  0  0  0  0  0  0  2 V2000
  143.6210  135.4372  154.8070 C   0  0  0  0  0  0  0  0  0  0  0  0
  143.6674  136.5788  153.9030 N   0  0  0  0  0  0  0  0  0  0  0  0
  142.5015  137.4537  153.9139 C   0  0  0  0  0  0  0  0  0  0  0  0
  144.2261  136.2848  152.6427 C   0  0  0  0  0  0  0  0  0  0  0  0
  143.5731  135.4081  151.8453 N   0  0  0  0  0  0  0  0  0  0  0  0
  144.0820  135.0889  150.6508 C   0  0  0  0  0  0  0  0  0  0  0  0
  145.2265  135.6064  150.1861 N   0  3  0  0  0  0  0  0  0  0  0  0
  145.9170  136.4920  150.9429 C   0  0  0  0  0  0  0  0  0  0  0  0
  145.4458  136.8677  152.2229 C   0  0  0  0  0  0  0  0  0  0  0  0
  146.1041  137.8223  153.0487 N   0  0  0  0  0  0  0  0  0  0  0  0
  146.6946  138.9702  152.6789 C   0  0  0  0  0  0  0  0  0  0  0  0
  146.7113  139.4224  151.5344 O   0  0  0  0  0  0  0  0  0  0  0  0
  147.2946  139.5623  153.7206 N   0  0  0  0  0  0  0  0  0  0  0  0
  148.0778  140.7956  153.6604 C   0  0  1  0  0  0  0  0  0  0  0  0
  147.2976  141.9542  154.3098 C   0  0  0  0  0  0  0  0  0  0  0  0
  147.1982  141.8021  155.8376 C   0  0  0  0  0  0  0  0  0  0  0  0
  148.5857  141.6348  156.4772 C   0  0  0  0  0  0  0  0  0  0  0  0
  149.3581  140.4488  155.8625 C   0  0  2  0  0  0  0  0  0  0  0  0
  150.7427  140.2565  156.5135 C   0  0  0  0  0  0  0  0  0  0  0  0
  151.4527  141.3838  156.4622 F   0  0  0  0  0  0  0  0  0  0  0  0
  150.6005  139.8937  157.7884 F   0  0  0  0  0  0  0  0  0  0  0  0
  151.4141  139.2942  155.8808 F   0  0  0  0  0  0  0  0  0  0  0  0
  149.4590  140.6226  154.3304 C   0  0  0  0  0  0  0  0  0  0  0  0
  144.5342  134.8433  154.7683 H   0  0  0  0  0  0  0  0  0  0  0  0
  142.7835  134.7866  154.5524 H   0  0  0  0  0  0  0  0  0  0  0  0
  143.4872  135.7765  155.8344 H   0  0  0  0  0  0  0  0  0  0  0  0
  142.6554  138.3172  153.2656 H   0  0  0  0  0  0  0  0  0  0  0  0
  142.3171  137.8227  154.9230 H   0  0  0  0  0  0  0  0  0  0  0  0
  141.6105  136.9212  153.5787 H   0  0  0  0  0  0  0  0  0  0  0  0
  143.5668  134.3902  150.0081 H   0  0  0  0  0  0  0  0  0  0  0  0
  146.8127  136.8750  150.4781 H   0  0  0  0  0  0  0  0  0  0  0  0
  146.2314  137.5461  154.0118 H   0  0  0  0  0  0  0  0  0  0  0  0
  147.2253  139.1169  154.6241 H   0  0  0  0  0  0  0  0  0  0  0  0
  148.2298  141.0440  152.6085 H   0  0  0  0  0  0  0  0  0  0  0  0
  147.7999  142.8946  154.0797 H   0  0  0  0  0  0  0  0  0  0  0  0
  146.3003  142.0306  153.8749 H   0  0  0  0  0  0  0  0  0  0  0  0
  146.6979  142.6725  156.2629 H   0  0  0  0  0  0  0  0  0  0  0  0
  146.5758  140.9413  156.0841 H   0  0  0  0  0  0  0  0  0  0  0  0
  149.1571  142.5548  156.3476 H   0  0  0  0  0  0  0  0  0  0  0  0
  148.4723  141.4927  157.5522 H   0  0  0  0  0  0  0  0  0  0  0  0
  148.7843  139.5420  156.0610 H   0  0  0  0  0  0  0  0  0  0  0  0
  149.9859  139.7763  153.8890 H   0  0  0  0  0  0  0  0  0  0  0  0
  150.0691  141.4989  154.1088 H   0  0  0  0  0  0  0  0  0  0  0  0
  145.5808  135.3462  149.2654 H   0  0  0  0  0  0  0  0  0  0  0  0
  1  2  1  0  0  0  0
  1 24  1  0  0  0  0
  1 25  1  0  0  0  0
  1 26  1  0  0  0  0
  2  3  1  0  0  0  0
  2  4  1  0  0  0  0
  3 27  1  0  0  0  0
  3 28  1  0  0  0  0
  3 29  1  0  0  0  0
  4  9  1  0  0  0  0
  4  5  2  0  0  0  0
  5  6  1  0  0  0  0
  6  7  2  0  0  0  0
  6 30  1  0  0  0  0
  7  8  1  0  0  0  0
  7 44  1  0  0  0  0
  8  9  2  0  0  0  0
  8 31  1  0  0  0  0
  9 10  1  0  0  0  0
 10 11  1  0  0  0  0
 10 32  1  0  0  0  0
 11 12  2  0  0  0  0
 11 13  1  0  0  0  0
 13 14  1  0  0  0  0
 13 33  1  0  0  0  0
 14 23  1  0  0  0  0
 14 15  1  0  0  0  0
 14 34  1  0  0  0  0
 15 16  1  0  0  0  0
 15 35  1  0  0  0  0
 15 36  1  0  0  0  0
 16 17  1  0  0  0  0
 16 37  1  0  0  0  0
 16 38  1  0  0  0  0
 17 18  1  0  0  0  0
 17 39  1  0  0  0  0
 17 40  1  0  0  0  0
 18 19  1  0  0  0  0
 18 23  1  0  0  0  0
 18 41  1  0  0  0  0
 19 20  1  0  0  0  0
 19 21  1  0  0  0  0
 19 22  1  0  0  0  0
 23 42  1  0  0  0  0
 23 43  1  0  0  0  0
M  CHG  1   7   1
M  END
> <s_m_source_file>
AV-unprocessed.smi

> <i_m_source_file_index>
2438

> <i_lp_mmshare_version>
43012

> <i_f3d_flags>
0

> <s_epik_input>
W0NIM11OKFtDSDNdKWMxbltjSF1uW2NIXWMxW05IXUMoPU8pW05IXVtDQEBIXTJbQ0gyXVtDSDJdW0NIMl1bQ0BASF0oQyhGKShGKUYpW0NIMl0y

> <s_epik_cmdline>
J2VwaWtfcHl0aG9uJywgJy1waCcsICc3LjAnLCAnLXRuJywgJzgnLCAnLW1hJywgJzIwMCcsICctbWV0YWxfYmluZGluZycsICctaW1hZScsICc8aW5maWxlLm1hZT4nLCAnLW9tYWUnLCAnPG91dGZpbGUubWFlPic=

> <r_lp_tautomer_probability>
0.999336

> <r_epik_Ionization_Penalty>
2.11643

> <r_epik_Ionization_Penalty_Charging>
2.11639

> <r_epik_Ionization_Penalty_Neutral>
4.47523e-05

> <r_epik_State_Penalty>
2.25369

> <r_epik_Charging_Adjusted_Penalty>
4.37008

> <i_epik_Tot_Q>
1

> <i_epik_Tot_abs_Q>
1

> <r_epik_Metal_State_Penalty>
2.27019

> <b_epik_Metal_Only>
0

> <s_lp_Force_Field>
OPLS_2005

> <r_lp_Energy>
15.0245

> <b_lp_Chiralities_Consistent>
1

> <s_lp_Variant>
AV-unprocessed.smi:2438-8

> <Gold.Version>
5.8.1

> <Gold.Id.Protein>
6NUR|6NUR_protein|mol2

> <Gold.PLP.Fitness>
36.1631

> <Gold.PLP.PLP>
-32.0956

> <Gold.PLP.part.hbond>
-1.2108

> <Gold.PLP.part.metal>
0.0000

> <Gold.PLP.part.buried>
-3.4330

> <Gold.PLP.part.nonpolar>
-29.8820

> <Gold.PLP.part.repulsive>
1.6919

> <Gold.PLP.ligand.clash>
0.0000

> <Gold.PLP.ligand.torsion>
0.7238

> <Gold.PLP.Chemscore.Hbond>
1.0000

> <Gold.PLP.Chemscore.CHOScore>
0.7060

> <Gold.PLP.Chemscore.Metal>
0.0000

> <Gold.Chemscore.Hbonds>
donor molecule, donor type, donor heavy atom, donor atom, acceptor molecule, acceptor atom, score
      L1  H     7    44       P1  7921  1.00
      L1  C     6    30       P1 10186  0.74

> <Gold.PLP.Chemscore.Internal.Correction>
0.3969

> <Gold.Rescore>
     Score         DG    S(hbond)    S(metal)    S(lipo)     H(rot)  DE(clash)    DE(int)     intcor
     10.47     -12.21       1.00        0.00      57.71       1.31       0.51       1.23       ----

> <Gold.Chemscore.Fitness>
10.4672

> <Gold.Chemscore.DG>
-12.2074

> <Gold.Chemscore.ZeroCoef>
-5.4800

> <Gold.Chemscore.Hbond>
0.9950

> <Gold.Chemscore.Metal>
0.0000

> <Gold.Chemscore.Lipo>
57.7095

> <Gold.Chemscore.Internal_Hbond>
0.0000

> <Gold.Chemscore.DEClash>
0.5101

> <Gold.Chemscore.DEInternal>
1.2300

> <Gold.Chemscore.Rot>
1.3078

> <Gold.Chemscore.Internal.Correction>
   9.000000E+99

> <Gold.Chemscore.Hbonds>
donor molecule, donor type, donor heavy atom, donor atom, acceptor molecule, acceptor atom, score
      L1  H     7    44       P1  7921  1.00

> <Gold.Chemscore.Hbond.Weighted>
-3.3234

> <Gold.Chemscore.Metal.Weighted>
-0.0000

> <Gold.Chemscore.Lipo.Weighted>
-6.7520

> <Gold.Chemscore.Internal_Hbond.Weighted>
0.0000

> <Gold.Chemscore.DEClash.Weighted>
0.5101

> <Gold.Chemscore.DEInternal.Weighted>
1.2300

> <Gold.Chemscore.Rot.Weighted>
3.3481

> <Gold.Chemscore.Internal.Correction.Weighted>
   9.000000E+99

> <Gold.Protein.RotatedTorsions>
[ 6907 6896 6895 6894 ] final  176.20 input  -60.11 | X-H torsion
[ 7974 7965 7964 7962 ] final -174.25 input  175.53 | X-H torsion
[ 8008 7997 7996 7995 ] final  -36.55 input   59.86 | X-H torsion
[ 10167 10162 10161 10158 ] final  141.17 input  -65.29 | X-H torsion
[ 10718 10713 10712 10709 ] final  -59.43 input   66.30 | X-H torsion
[ 10763 10752 10751 10750 ] final  -34.83 input  -60.55 | X-H torsion
[ 11005 11000 10999 10996 ] final  -48.56 input  -57.11 | X-H torsion

> <Gold.Protein.ActiveResidues>
 VAL166  LYS551  ARG553  GLY616  TRP617  ASP618  TYR619  PRO620  LYS621  CYS622 
 ASP623  PHE694  ASN695  SER759  ASP760  ASP761  ALA762  ILE779  LEU786  VAL792 
 PHE793  MET794  SER795  GLU796  ALA797  LYS798  CYS799  TRP800  GLU811  SER814 

> <Gold.Protein.RotatedAtoms>
  151.7240  133.3315  159.3322 H   0  0  0  0  0  0  0  0  0  0  0  0  # atno 6907 bound_to 6896
  150.7640  134.6423  159.6253 H   0  0  0  0  0  0  0  0  0  0  0  0  # atno 6908 bound_to 6896
  152.3634  134.6842  160.0251 H   0  0  0  0  0  0  0  0  0  0  0  0  # atno 6909 bound_to 6896
  144.7133  140.1500  143.6385 H   0  0  0  0  0  0  0  0  0  0  0  0  # atno 7974 bound_to 7965
  154.4071  140.1628  156.2392 H   0  0  0  0  0  0  0  0  0  0  0  0  # atno 8008 bound_to 7997
  155.9216  140.3421  155.6154 H   0  0  0  0  0  0  0  0  0  0  0  0  # atno 8009 bound_to 7997
  155.7215  140.0769  157.2319 H   0  0  0  0  0  0  0  0  0  0  0  0  # atno 8010 bound_to 7997
  139.5028  144.6188  151.6100 H   0  0  0  0  0  0  0  0  0  0  0  0  # atno 10167 bound_to 10162
  156.1062  130.4180  150.0714 H   0  0  0  0  0  0  0  0  0  0  0  0  # atno 10718 bound_to 10713
  153.8531  135.6847  153.4790 H   0  0  0  0  0  0  0  0  0  0  0  0  # atno 10763 bound_to 10752
  153.1385  135.4667  154.9458 H   0  0  0  0  0  0  0  0  0  0  0  0  # atno 10764 bound_to 10752
  154.7793  135.3263  154.7973 H   0  0  0  0  0  0  0  0  0  0  0  0  # atno 10765 bound_to 10752
  141.0708  133.6680  156.3458 H   0  0  0  0  0  0  0  0  0  0  0  0  # atno 11005 bound_to 11000
  145.9125  139.2495  143.1429 LP  0  0  0  0  0  0  0  0  0  0  0  0  # atno 17320 bound_to 7965
  145.9702  140.8766  143.0166 LP  0  0  0  0  0  0  0  0  0  0  0  0  # atno 17321 bound_to 7965
  140.5884  143.9823  150.6309 LP  0  0  0  0  0  0  0  0  0  0  0  0  # atno 17342 bound_to 10162
  140.2995  143.3270  152.0985 LP  0  0  0  0  0  0  0  0  0  0  0  0  # atno 17343 bound_to 10162
  156.8689  130.9517  151.3611 LP  0  0  0  0  0  0  0  0  0  0  0  0  # atno 17370 bound_to 10713
  157.6239  130.8676  149.9156 LP  0  0  0  0  0  0  0  0  0  0  0  0  # atno 17371 bound_to 10713
  140.5678  134.5870  157.5450 LP  0  0  0  0  0  0  0  0  0  0  0  0  # atno 17394 bound_to 11000
  139.9521  134.7599  156.0424 LP  0  0  0  0  0  0  0  0  0  0  0  0  # atno 17395 bound_to 11000

$$$$
