AV-unprocessed.smi:2091|AV-procd|sdf|8538|dock6
  -GOLD-   2272011263D 1   1.00000     0.00000
 Structure written by MMmdl.
 36 37  0  0  0  0  0  0  0  0  1 V2000
  151.7867  140.1880  154.9369 O   0  0  0  0  0  0  0  0  0  0  0  0
  150.8271  139.6167  155.4564 C   0  0  0  0  0  0  0  0  0  0  0  0
  150.0376  138.5541  154.6805 C   0  0  0  0  0  0  0  0  0  0  0  0
  149.9413  137.2793  155.4053 N   0  0  0  0  0  0  0  0  0  0  0  0
  148.7018  136.7564  155.7457 C   0  0  0  0  0  0  0  0  0  0  0  0
  148.5433  135.5916  156.4179 C   0  0  0  0  0  0  0  0  0  0  0  0
  149.7058  134.8106  156.8266 C   0  0  0  0  0  0  0  0  0  0  0  0
  149.6648  133.7438  157.4350 O   0  0  0  0  0  0  0  0  0  0  0  0
  150.9345  135.3714  156.4688 N   0  0  0  0  0  0  0  0  0  0  0  0
  151.1051  136.5722  155.7782 C   0  0  0  0  0  0  0  0  0  0  0  0
  152.2363  136.9791  155.5149 O   0  0  0  0  0  0  0  0  0  0  0  0
  150.4205  139.8564  156.7133 N   0  0  0  0  0  0  0  0  0  0  0  0
  151.0136  140.8324  157.6302 C   0  0  2  0  0  0  0  0  0  0  0  0
  151.0261  142.1993  156.9078 C   0  0  0  0  0  0  0  0  0  0  0  0
  151.1027  143.4057  157.8593 C   0  0  0  0  0  0  0  0  0  0  0  0
  152.4041  143.5122  158.6682 C   0  0  0  0  0  0  0  0  0  0  0  0
  152.6348  142.3299  159.6245 C   0  0  0  0  0  0  0  0  0  0  0  0
  153.1179  141.1460  158.9262 N   0  0  0  0  0  0  0  0  0  0  0  0
  152.4636  140.4345  157.9956 C   0  0  0  0  0  0  0  0  0  0  0  0
  153.0143  139.4836  157.4407 O   0  0  0  0  0  0  0  0  0  0  0  0
  151.7686  134.8673  156.7324 H   0  0  0  0  0  0  0  0  0  0  0  0
  149.0424  138.9535  154.4802 H   0  0  0  0  0  0  0  0  0  0  0  0
  150.4858  138.3929  153.6978 H   0  0  0  0  0  0  0  0  0  0  0  0
  147.8123  137.3034  155.4664 H   0  0  0  0  0  0  0  0  0  0  0  0
  147.5510  135.2360  156.6548 H   0  0  0  0  0  0  0  0  0  0  0  0
  149.6211  139.3433  157.0549 H   0  0  0  0  0  0  0  0  0  0  0  0
  150.4019  140.8887  158.5324 H   0  0  0  0  0  0  0  0  0  0  0  0
  151.8322  142.2461  156.1734 H   0  0  0  0  0  0  0  0  0  0  0  0
  150.1041  142.3063  156.3342 H   0  0  0  0  0  0  0  0  0  0  0  0
  150.9854  144.3174  157.2728 H   0  0  0  0  0  0  0  0  0  0  0  0
  150.2525  143.3825  158.5419 H   0  0  0  0  0  0  0  0  0  0  0  0
  153.2576  143.6273  157.9983 H   0  0  0  0  0  0  0  0  0  0  0  0
  152.3615  144.4292  159.2567 H   0  0  0  0  0  0  0  0  0  0  0  0
  153.3968  142.6036  160.3548 H   0  0  0  0  0  0  0  0  0  0  0  0
  151.7335  142.0987  160.1940 H   0  0  0  0  0  0  0  0  0  0  0  0
  154.0585  140.8526  159.1476 H   0  0  0  0  0  0  0  0  0  0  0  0
  1  2  2  0  0  0  0
  2  3  1  0  0  0  0
  2 12  1  0  0  0  0
  3  4  1  0  0  0  0
  3 22  1  0  0  0  0
  3 23  1  0  0  0  0
  4 10  1  0  0  0  0
  4  5  1  0  0  0  0
  5  6  2  0  0  0  0
  5 24  1  0  0  0  0
  6  7  1  0  0  0  0
  6 25  1  0  0  0  0
  7  8  2  0  0  0  0
  7  9  1  0  0  0  0
  9 21  1  0  0  0  0
  9 10  1  0  0  0  0
 10 11  2  0  0  0  0
 12 13  1  0  0  0  0
 12 26  1  0  0  0  0
 13 19  1  0  0  0  0
 13 14  1  0  0  0  0
 13 27  1  0  0  0  0
 14 15  1  0  0  0  0
 14 28  1  0  0  0  0
 14 29  1  0  0  0  0
 15 16  1  0  0  0  0
 15 30  1  0  0  0  0
 15 31  1  0  0  0  0
 16 17  1  0  0  0  0
 16 32  1  0  0  0  0
 16 33  1  0  0  0  0
 17 18  1  0  0  0  0
 17 34  1  0  0  0  0
 17 35  1  0  0  0  0
 18 19  1  0  0  0  0
 18 36  1  0  0  0  0
 19 20  2  0  0  0  0
M  END
> <s_m_source_file>
AV-unprocessed.smi

> <i_m_source_file_index>
2091

> <i_lp_mmshare_version>
43012

> <i_f3d_flags>
0

> <s_epik_input>
Tz1jMVtuSF1jKD1PKVtjSF1bY0hdbjFbQ0gyXUMoPU8pW05IXVtDQEBIXTJbQ0gyXVtDSDJdW0NIMl1bQ0gyXVtOSF1DMj1P

> <s_epik_cmdline>
J2VwaWtfcHl0aG9uJywgJy1waCcsICc3LjAnLCAnLXRuJywgJzgnLCAnLW1hJywgJzIwMCcsICctbWV0YWxfYmluZGluZycsICctaW1hZScsICc8aW5maWxlLm1hZT4nLCAnLW9tYWUnLCAnPG91dGZpbGUubWFlPic=

> <r_lp_tautomer_probability>
0.999537

> <r_epik_Ionization_Penalty>
0.00356328

> <r_epik_Ionization_Penalty_Charging>
0.00356323

> <r_epik_Ionization_Penalty_Neutral>
5.33217e-08

> <r_epik_State_Penalty>
0.00253125

> <r_epik_Charging_Adjusted_Penalty>
0.00609448

> <i_epik_Tot_Q>
0

> <i_epik_Tot_abs_Q>
0

> <r_epik_Metal_State_Penalty>
0.368636

> <b_epik_Metal_Only>
0

> <s_lp_Force_Field>
OPLS_2005

> <r_lp_Energy>
10.0871

> <b_lp_Chiralities_Consistent>
1

> <s_lp_Variant>
AV-unprocessed.smi:2091-1

> <Gold.Version>
5.8.1

> <Gold.Id.Protein>
6NUR|6NUR_protein|mol2

> <Gold.PLP.Fitness>
40.2865

> <Gold.PLP.PLP>
-28.8649

> <Gold.PLP.part.hbond>
-4.0000

> <Gold.PLP.part.metal>
0.0000

> <Gold.PLP.part.buried>
-4.9289

> <Gold.PLP.part.nonpolar>
-21.0891

> <Gold.PLP.part.repulsive>
0.3272

> <Gold.PLP.ligand.clash>
0.0000

> <Gold.PLP.ligand.torsion>
0.0739

> <Gold.PLP.Chemscore.Hbond>
3.8560

> <Gold.PLP.Chemscore.CHOScore>
0.0000

> <Gold.PLP.Chemscore.Metal>
0.0000

> <Gold.Chemscore.Hbonds>
donor molecule, donor type, donor heavy atom, donor atom, acceptor molecule, acceptor atom, score
      P1  H  6896  6909       L1     8  0.71
      P1  H  7989  7998       L1     1  0.91
      P1  H  7997  8010       L1    20  1.00
      P1  H 10752 10765       L1    11  0.90

> <Gold.PLP.Chemscore.Internal.Correction>
0.0015

> <Gold.Rescore>
     Score         DG    S(hbond)    S(metal)    S(lipo)     H(rot)  DE(clash)    DE(int)     intcor
     15.37     -19.28       3.62        0.00      55.96       1.88       0.01       3.89       ----

> <Gold.Chemscore.Fitness>
15.3706

> <Gold.Chemscore.DG>
-19.2779

> <Gold.Chemscore.ZeroCoef>
-5.4800

> <Gold.Chemscore.Hbond>
3.6152

> <Gold.Chemscore.Metal>
0.0000

> <Gold.Chemscore.Lipo>
55.9609

> <Gold.Chemscore.Internal_Hbond>
0.0000

> <Gold.Chemscore.DEClash>
0.0149

> <Gold.Chemscore.DEInternal>
3.8925

> <Gold.Chemscore.Rot>
1.8844

> <Gold.Chemscore.Internal.Correction>
   9.000000E+99

> <Gold.Chemscore.Hbonds>
donor molecule, donor type, donor heavy atom, donor atom, acceptor molecule, acceptor atom, score
      P1  H  6896  6909       L1     8  0.60
      P1  H  7989  7998       L1     1  0.85
      P1  H  7997  8010       L1    20  0.60
      P1  H 10752 10765       L1    11  0.39

> <Gold.Chemscore.Hbond.Weighted>
-12.0747

> <Gold.Chemscore.Metal.Weighted>
-0.0000

> <Gold.Chemscore.Lipo.Weighted>
-6.5474

> <Gold.Chemscore.Internal_Hbond.Weighted>
0.0000

> <Gold.Chemscore.DEClash.Weighted>
0.0149

> <Gold.Chemscore.DEInternal.Weighted>
3.8925

> <Gold.Chemscore.Rot.Weighted>
4.8242

> <Gold.Chemscore.Internal.Correction.Weighted>
   9.000000E+99

> <Gold.Protein.RotatedTorsions>
[ 6907 6896 6895 6894 ] final   -1.25 input  -60.11 | X-H torsion
[ 7974 7965 7964 7962 ] final  -27.82 input  175.53 | X-H torsion
[ 8008 7997 7996 7995 ] final   49.42 input   59.86 | X-H torsion
[ 10167 10162 10161 10158 ] final  119.32 input  -65.29 | X-H torsion
[ 10718 10713 10712 10709 ] final -155.31 input   66.30 | X-H torsion
[ 10763 10752 10751 10750 ] final -161.44 input  -60.55 | X-H torsion
[ 11005 11000 10999 10996 ] final  108.79 input  -57.11 | X-H torsion

> <Gold.Protein.ActiveResidues>
 VAL166  LYS551  ARG553  GLY616  TRP617  ASP618  TYR619  PRO620  LYS621  CYS622 
 ASP623  PHE694  ASN695  SER759  ASP760  ASP761  ALA762  ILE779  LEU786  VAL792 
 PHE793  MET794  SER795  GLU796  ALA797  LYS798  CYS799  TRP800  GLU811  SER814 

> <Gold.Protein.RotatedAtoms>
  151.5491  135.1067  159.9944 H   0  0  0  0  0  0  0  0  0  0  0  0  # atno 6907 bound_to 6896
  152.4500  133.7606  159.6755 H   0  0  0  0  0  0  0  0  0  0  0  0  # atno 6908 bound_to 6896
  150.8425  133.7846  159.3079 H   0  0  0  0  0  0  0  0  0  0  0  0  # atno 6909 bound_to 6896
  146.1331  140.5202  142.8684 H   0  0  0  0  0  0  0  0  0  0  0  0  # atno 7974 bound_to 7965
  155.4019  140.3438  155.4257 H   0  0  0  0  0  0  0  0  0  0  0  0  # atno 8008 bound_to 7997
  156.1498  140.1567  156.8820 H   0  0  0  0  0  0  0  0  0  0  0  0  # atno 8009 bound_to 7997
  154.5043  140.0806  156.7843 H   0  0  0  0  0  0  0  0  0  0  0  0  # atno 8010 bound_to 7997
  139.6053  144.7068  151.2967 H   0  0  0  0  0  0  0  0  0  0  0  0  # atno 10167 bound_to 10162
  156.5111  130.8435  151.2646 H   0  0  0  0  0  0  0  0  0  0  0  0  # atno 10718 bound_to 10713
  154.7303  135.3045  154.8902 H   0  0  0  0  0  0  0  0  0  0  0  0  # atno 10763 bound_to 10752
  153.9747  135.6737  153.4752 H   0  0  0  0  0  0  0  0  0  0  0  0  # atno 10764 bound_to 10752
  153.0912  135.4958  154.8614 H   0  0  0  0  0  0  0  0  0  0  0  0  # atno 10765 bound_to 10752
  139.8850  134.9440  156.6026 H   0  0  0  0  0  0  0  0  0  0  0  0  # atno 11005 bound_to 11000
  144.7711  140.5640  143.6669 LP  0  0  0  0  0  0  0  0  0  0  0  0  # atno 17320 bound_to 7965
  145.5216  139.1476  143.3549 LP  0  0  0  0  0  0  0  0  0  0  0  0  # atno 17321 bound_to 7965
  140.7280  143.6946  150.7894 LP  0  0  0  0  0  0  0  0  0  0  0  0  # atno 17342 bound_to 10162
  140.0531  143.5230  152.2664 LP  0  0  0  0  0  0  0  0  0  0  0  0  # atno 17343 bound_to 10162
  157.7450  130.9949  150.2725 LP  0  0  0  0  0  0  0  0  0  0  0  0  # atno 17370 bound_to 10713
  156.3239  130.3790  149.7550 LP  0  0  0  0  0  0  0  0  0  0  0  0  # atno 17371 bound_to 10713
  140.7872  133.8612  155.8616 LP  0  0  0  0  0  0  0  0  0  0  0  0  # atno 17394 bound_to 11000
  140.9709  134.1532  157.4577 LP  0  0  0  0  0  0  0  0  0  0  0  0  # atno 17395 bound_to 11000

$$$$
