AV-unprocessed.smi:804|AV-procd|sdf|3794|dock2
  -GOLD-   22720 1233D 1   1.00000     0.00000
 Structure written by MMmdl.
 39 40  0  0  0  0  0  0  0  0  1 V2000
  146.3102  146.4165  159.9756 C   0  0  0  0  0  0  0  0  0  0  0  0
  146.7358  145.0203  160.4630 C   0  0  0  0  0  0  0  0  0  0  0  0
  148.0294  145.1526  161.2941 C   0  0  0  0  0  0  0  0  0  0  0  0
  145.6001  144.4176  161.3161 C   0  0  0  0  0  0  0  0  0  0  0  0
  146.9719  144.2057  159.2662 N   0  0  0  0  0  0  0  0  0  0  0  0
  146.7839  142.8835  159.1005 C   0  0  0  0  0  0  0  0  0  0  0  0
  146.3245  142.1344  159.9628 O   0  0  0  0  0  0  0  0  0  0  0  0
  147.1035  142.3609  157.7301 C   0  0  0  0  0  0  0  0  0  0  0  0
  148.3411  141.8429  157.5583 N   0  0  0  0  0  0  0  0  0  0  0  0
  148.6751  141.3630  156.3539 C   0  0  0  0  0  0  0  0  0  0  0  0
  149.9584  140.8205  156.2050 N   0  0  0  0  0  0  0  0  0  0  0  0
  150.3936  140.2140  154.9439 C   0  0  0  0  0  0  0  0  0  0  0  0
  151.4542  139.1275  155.1902 C   0  0  0  0  0  0  0  0  0  0  0  0
  152.5355  139.6679  155.9385 O   0  0  0  0  0  0  0  0  0  0  0  0
  152.1073  140.1222  157.2158 C   0  0  0  0  0  0  0  0  0  0  0  0
  151.0771  141.2513  157.0479 C   0  0  0  0  0  0  0  0  0  0  0  0
  147.8705  141.3613  155.2839 N   0  0  0  0  0  0  0  0  0  0  0  0
  146.6355  141.8855  155.4250 C   0  0  0  0  0  0  0  0  0  0  0  0
  146.1851  142.4155  156.6494 C   0  0  0  0  0  0  0  0  0  0  0  0
  144.6036  143.1112  156.7564 Cl  0  0  0  0  0  0  0  0  0  0  0  0
  146.1148  147.0874  160.8130 H   0  0  0  0  0  0  0  0  0  0  0  0
  145.4004  146.3690  159.3756 H   0  0  0  0  0  0  0  0  0  0  0  0
  147.0848  146.8773  159.3612 H   0  0  0  0  0  0  0  0  0  0  0  0
  148.8499  145.5443  160.6916 H   0  0  0  0  0  0  0  0  0  0  0  0
  148.3515  144.1970  161.7078 H   0  0  0  0  0  0  0  0  0  0  0  0
  147.8869  145.8318  162.1352 H   0  0  0  0  0  0  0  0  0  0  0  0
  145.3550  145.0669  162.1571 H   0  0  0  0  0  0  0  0  0  0  0  0
  145.8691  143.4466  161.7317 H   0  0  0  0  0  0  0  0  0  0  0  0
  144.6903  144.2846  160.7294 H   0  0  0  0  0  0  0  0  0  0  0  0
  147.3334  144.7058  158.4670 H   0  0  0  0  0  0  0  0  0  0  0  0
  149.5647  139.7593  154.4018 H   0  0  0  0  0  0  0  0  0  0  0  0
  150.8001  140.9966  154.3027 H   0  0  0  0  0  0  0  0  0  0  0  0
  151.0224  138.2742  155.7158 H   0  0  0  0  0  0  0  0  0  0  0  0
  151.8342  138.7546  154.2391 H   0  0  0  0  0  0  0  0  0  0  0  0
  151.6868  139.2940  157.7886 H   0  0  0  0  0  0  0  0  0  0  0  0
  152.9727  140.4848  157.7707 H   0  0  0  0  0  0  0  0  0  0  0  0
  151.5469  142.1212  156.5876 H   0  0  0  0  0  0  0  0  0  0  0  0
  150.7462  141.5570  158.0400 H   0  0  0  0  0  0  0  0  0  0  0  0
  146.0039  141.8882  154.5491 H   0  0  0  0  0  0  0  0  0  0  0  0
  1  2  1  0  0  0  0
  1 21  1  0  0  0  0
  1 22  1  0  0  0  0
  1 23  1  0  0  0  0
  2  3  1  0  0  0  0
  2  4  1  0  0  0  0
  2  5  1  0  0  0  0
  3 24  1  0  0  0  0
  3 25  1  0  0  0  0
  3 26  1  0  0  0  0
  4 27  1  0  0  0  0
  4 28  1  0  0  0  0
  4 29  1  0  0  0  0
  5  6  1  0  0  0  0
  5 30  1  0  0  0  0
  6  7  2  0  0  0  0
  6  8  1  0  0  0  0
  8 19  1  0  0  0  0
  8  9  2  0  0  0  0
  9 10  1  0  0  0  0
 10 11  1  0  0  0  0
 10 17  2  0  0  0  0
 11 16  1  0  0  0  0
 11 12  1  0  0  0  0
 12 13  1  0  0  0  0
 12 31  1  0  0  0  0
 12 32  1  0  0  0  0
 13 14  1  0  0  0  0
 13 33  1  0  0  0  0
 13 34  1  0  0  0  0
 14 15  1  0  0  0  0
 15 16  1  0  0  0  0
 15 35  1  0  0  0  0
 15 36  1  0  0  0  0
 16 37  1  0  0  0  0
 16 38  1  0  0  0  0
 17 18  1  0  0  0  0
 18 19  2  0  0  0  0
 18 39  1  0  0  0  0
 19 20  1  0  0  0  0
M  END
> <s_m_source_file>
AV-unprocessed.smi

> <i_m_source_file_index>
804

> <i_lp_mmshare_version>
43012

> <i_f3d_flags>
0

> <s_epik_input>
W0NIM11DKFtDSDNdKShbQ0gzXSlbTkhdQyg9TyljMW5jKG5bY0hdYzFDbClOMltDSDJdW0NIMl1PW0NIMl1bQ0gyXTI=

> <s_epik_cmdline>
J2VwaWtfcHl0aG9uJywgJy1waCcsICc3LjAnLCAnLXRuJywgJzgnLCAnLW1hJywgJzIwMCcsICctbWV0YWxfYmluZGluZycsICctaW1hZScsICc8aW5maWxlLm1hZT4nLCAnLW9tYWUnLCAnPG91dGZpbGUubWFlPic=

> <r_lp_tautomer_probability>
1

> <r_epik_Ionization_Penalty>
1.02082e-05

> <r_epik_Ionization_Penalty_Charging>
0

> <r_epik_Ionization_Penalty_Neutral>
1.02082e-05

> <r_epik_State_Penalty>
-0

> <r_epik_Charging_Adjusted_Penalty>
0

> <i_epik_Tot_Q>
0

> <i_epik_Tot_abs_Q>
0

> <r_epik_Metal_State_Penalty>
0.00994437

> <b_epik_Metal_Only>
0

> <s_lp_Force_Field>
OPLS_2005

> <r_lp_Energy>
15.0003

> <b_lp_Chiralities_Consistent>
1

> <s_lp_Variant>
AV-unprocessed.smi:804-1

> <Gold.Version>
5.8.1

> <Gold.Id.Protein>
6NUR|6NUR_protein|mol2

> <Gold.PLP.Fitness>
37.7348

> <Gold.PLP.PLP>
-32.9745

> <Gold.PLP.part.hbond>
-3.0000

> <Gold.PLP.part.metal>
0.0000

> <Gold.PLP.part.buried>
-4.5994

> <Gold.PLP.part.nonpolar>
-26.1656

> <Gold.PLP.part.repulsive>
0.3179

> <Gold.PLP.ligand.clash>
0.0000

> <Gold.PLP.ligand.torsion>
2.1942

> <Gold.PLP.Chemscore.Hbond>
3.0000

> <Gold.PLP.Chemscore.CHOScore>
0.0000

> <Gold.PLP.Chemscore.Metal>
0.0000

> <Gold.Chemscore.Hbonds>
donor molecule, donor type, donor heavy atom, donor atom, acceptor molecule, acceptor atom, score
      L1  H     5    30       P1  8029  1.00
      P1  H  6934  6946       L1     7  1.00
      P1  H  7997  8008       L1    14  1.00

> <Gold.PLP.Chemscore.Internal.Correction>
0.1486

> <Gold.Rescore>
     Score         DG    S(hbond)    S(metal)    S(lipo)     H(rot)  DE(clash)    DE(int)     intcor
     15.97     -19.33       2.89        0.00      57.74       1.00       0.01       3.35       ----

> <Gold.Chemscore.Fitness>
15.9674

> <Gold.Chemscore.DG>
-19.3280

> <Gold.Chemscore.ZeroCoef>
-5.4800

> <Gold.Chemscore.Hbond>
2.8901

> <Gold.Chemscore.Metal>
0.0000

> <Gold.Chemscore.Lipo>
57.7364

> <Gold.Chemscore.Internal_Hbond>
0.0000

> <Gold.Chemscore.DEClash>
0.0118

> <Gold.Chemscore.DEInternal>
3.3488

> <Gold.Chemscore.Rot>
1.0000

> <Gold.Chemscore.Internal.Correction>
   9.000000E+99

> <Gold.Chemscore.Hbonds>
donor molecule, donor type, donor heavy atom, donor atom, acceptor molecule, acceptor atom, score
      L1  H     5    30       P1  8029  0.98
      P1  H  6934  6946       L1     7  0.98
      P1  H  7997  8008       L1    14  0.25

> <Gold.Chemscore.Hbond.Weighted>
-9.6528

> <Gold.Chemscore.Metal.Weighted>
-0.0000

> <Gold.Chemscore.Lipo.Weighted>
-6.7552

> <Gold.Chemscore.Internal_Hbond.Weighted>
0.0000

> <Gold.Chemscore.DEClash.Weighted>
0.0118

> <Gold.Chemscore.DEInternal.Weighted>
3.3488

> <Gold.Chemscore.Rot.Weighted>
2.5600

> <Gold.Chemscore.Internal.Correction.Weighted>
   9.000000E+99

> <Gold.Protein.RotatedTorsions>
[ 6907 6896 6895 6894 ] final   53.41 input  -60.11 | X-H torsion
[ 7974 7965 7964 7962 ] final  140.82 input  175.53 | X-H torsion
[ 8008 7997 7996 7995 ] final  -21.63 input   59.86 | X-H torsion
[ 10167 10162 10161 10158 ] final -132.60 input  -65.29 | X-H torsion
[ 10718 10713 10712 10709 ] final  179.98 input   66.30 | X-H torsion
[ 10763 10752 10751 10750 ] final  -10.22 input  -60.55 | X-H torsion
[ 11005 11000 10999 10996 ] final   15.25 input  -57.11 | X-H torsion

> <Gold.Protein.ActiveResidues>
 VAL166  LYS551  ARG553  GLY616  TRP617  ASP618  TYR619  PRO620  LYS621  CYS622 
 ASP623  PHE694  ASN695  SER759  ASP760  ASP761  ALA762  ILE779  LEU786  VAL792 
 PHE793  MET794  SER795  GLU796  ALA797  LYS798  CYS799  TRP800  GLU811  SER814 

> <Gold.Protein.RotatedAtoms>
  152.3334  134.7229  160.0283 H   0  0  0  0  0  0  0  0  0  0  0  0  # atno 6907 bound_to 6896
  151.7638  133.3330  159.3433 H   0  0  0  0  0  0  0  0  0  0  0  0  # atno 6908 bound_to 6896
  150.7436  134.6013  159.6082 H   0  0  0  0  0  0  0  0  0  0  0  0  # atno 6909 bound_to 6896
  144.9152  139.5240  143.5689 H   0  0  0  0  0  0  0  0  0  0  0  0  # atno 7974 bound_to 7965
  154.4693  140.2029  156.0035 H   0  0  0  0  0  0  0  0  0  0  0  0  # atno 8008 bound_to 7997
  156.0983  140.3247  155.7879 H   0  0  0  0  0  0  0  0  0  0  0  0  # atno 8009 bound_to 7997
  155.4840  140.0541  157.2954 H   0  0  0  0  0  0  0  0  0  0  0  0  # atno 8010 bound_to 7997
  139.9069  143.6541  152.2583 H   0  0  0  0  0  0  0  0  0  0  0  0  # atno 10167 bound_to 10162
  156.8678  130.9773  151.3076 H   0  0  0  0  0  0  0  0  0  0  0  0  # atno 10718 bound_to 10713
  153.4660  135.7016  153.6022 H   0  0  0  0  0  0  0  0  0  0  0  0  # atno 10763 bound_to 10752
  153.4296  135.3806  155.2162 H   0  0  0  0  0  0  0  0  0  0  0  0  # atno 10764 bound_to 10752
  154.8726  135.3947  154.4092 H   0  0  0  0  0  0  0  0  0  0  0  0  # atno 10765 bound_to 10752
  140.4604  134.1133  155.7715 H   0  0  0  0  0  0  0  0  0  0  0  0  # atno 11005 bound_to 11000
  146.3178  139.7989  142.8969 LP  0  0  0  0  0  0  0  0  0  0  0  0  # atno 17320 bound_to 7965
  145.3387  141.0283  143.3404 LP  0  0  0  0  0  0  0  0  0  0  0  0  # atno 17321 bound_to 7965
  139.6976  144.7639  151.1328 LP  0  0  0  0  0  0  0  0  0  0  0  0  # atno 17342 bound_to 10162
  140.7694  143.5502  150.9213 LP  0  0  0  0  0  0  0  0  0  0  0  0  # atno 17343 bound_to 10162
  157.6213  130.8657  149.9114 LP  0  0  0  0  0  0  0  0  0  0  0  0  # atno 17370 bound_to 10713
  156.0743  130.3681  150.0711 LP  0  0  0  0  0  0  0  0  0  0  0  0  # atno 17371 bound_to 10713
  141.1624  133.8768  157.1812 LP  0  0  0  0  0  0  0  0  0  0  0  0  # atno 17394 bound_to 11000
  139.9949  135.0050  157.0059 LP  0  0  0  0  0  0  0  0  0  0  0  0  # atno 17395 bound_to 11000

$$$$
