AV-unprocessed.smi:1180|AV-procd|sdf|4965|dock2
  -GOLD-   22720 3553D 1   1.00000     0.00000
 Structure written by MMmdl.
 37 38  0  0  0  0  0  0  0  0  2 V2000
  153.4992  142.5443  162.1773 C   0  0  0  0  0  0  0  0  0  0  0  0
  152.7355  142.4491  160.8736 C   0  0  0  0  0  0  0  0  0  0  0  0
  151.7999  143.2869  160.6339 N   0  0  0  0  0  0  0  0  0  0  0  0
  151.0881  143.2024  159.4252 C   0  0  0  0  0  0  0  0  0  0  0  0
  149.9970  144.2395  159.2243 C   0  0  0  0  0  0  0  0  0  0  0  0
  151.3766  142.2407  158.5022 C   0  0  0  0  0  0  0  0  0  0  0  0
  150.6338  142.1057  157.1730 C   0  0  0  0  0  0  0  0  0  0  0  0
  149.3118  141.3391  157.2308 C   0  0  0  0  0  0  0  0  0  0  0  0
  149.3121  140.1251  157.4335 O   0  0  0  0  0  0  0  0  0  0  0  0
  148.1939  142.0622  157.0618 N   0  0  0  0  0  0  0  0  0  0  0  0
  146.8325  141.5379  157.0684 C   0  0  0  0  0  0  0  0  0  0  0  0
  145.8233  142.5502  156.4949 C   0  0  1  0  0  0  0  0  0  0  0  0
  145.8474  142.6469  154.9833 C   0  0  0  0  0  0  0  0  0  0  0  0
  144.5092  143.3178  154.6871 C   0  0  0  0  0  0  0  0  0  0  0  0
  143.6231  142.8930  155.7188 O   0  0  0  0  0  0  0  0  0  0  0  0
  144.3504  142.2134  156.7379 C   0  0  0  0  0  0  0  0  0  0  0  0
  152.4561  141.2887  158.8211 C   0  0  0  0  0  0  0  0  0  0  0  0
  152.7413  140.3877  158.0329 O   0  0  0  0  0  0  0  0  0  0  0  0
  153.1039  141.4412  160.0111 N   0  5  0  0  0  0  0  0  0  0  0  0
  153.2106  143.4342  162.7386 H   0  0  0  0  0  0  0  0  0  0  0  0
  154.5717  142.5954  161.9863 H   0  0  0  0  0  0  0  0  0  0  0  0
  153.2987  141.6691  162.7959 H   0  0  0  0  0  0  0  0  0  0  0  0
  149.0359  143.7571  159.0468 H   0  0  0  0  0  0  0  0  0  0  0  0
  150.2291  144.8783  158.3724 H   0  0  0  0  0  0  0  0  0  0  0  0
  149.8923  144.8776  160.1025 H   0  0  0  0  0  0  0  0  0  0  0  0
  150.4346  143.1039  156.7826 H   0  0  0  0  0  0  0  0  0  0  0  0
  151.2708  141.6414  156.4196 H   0  0  0  0  0  0  0  0  0  0  0  0
  148.2986  143.0544  156.9008 H   0  0  0  0  0  0  0  0  0  0  0  0
  146.8268  140.6344  156.4584 H   0  0  0  0  0  0  0  0  0  0  0  0
  146.5408  141.2273  158.0731 H   0  0  0  0  0  0  0  0  0  0  0  0
  146.0293  143.5401  156.9059 H   0  0  0  0  0  0  0  0  0  0  0  0
  146.6986  143.2124  154.6026 H   0  0  0  0  0  0  0  0  0  0  0  0
  145.8723  141.6508  154.5384 H   0  0  0  0  0  0  0  0  0  0  0  0
  144.6070  144.4027  154.7408 H   0  0  0  0  0  0  0  0  0  0  0  0
  144.1253  143.0611  153.6994 H   0  0  0  0  0  0  0  0  0  0  0  0
  144.1750  141.1425  156.6253 H   0  0  0  0  0  0  0  0  0  0  0  0
  144.0121  142.5083  157.7314 H   0  0  0  0  0  0  0  0  0  0  0  0
  1  2  1  0  0  0  0
  1 20  1  0  0  0  0
  1 21  1  0  0  0  0
  1 22  1  0  0  0  0
  2 19  1  0  0  0  0
  2  3  2  0  0  0  0
  3  4  1  0  0  0  0
  4  5  1  0  0  0  0
  4  6  2  0  0  0  0
  5 23  1  0  0  0  0
  5 24  1  0  0  0  0
  5 25  1  0  0  0  0
  6  7  1  0  0  0  0
  6 17  1  0  0  0  0
  7  8  1  0  0  0  0
  7 26  1  0  0  0  0
  7 27  1  0  0  0  0
  8  9  2  0  0  0  0
  8 10  1  0  0  0  0
 10 11  1  0  0  0  0
 10 28  1  0  0  0  0
 11 12  1  0  0  0  0
 11 29  1  0  0  0  0
 11 30  1  0  0  0  0
 12 16  1  0  0  0  0
 12 13  1  0  0  0  0
 12 31  1  0  0  0  0
 13 14  1  0  0  0  0
 13 32  1  0  0  0  0
 13 33  1  0  0  0  0
 14 15  1  0  0  0  0
 14 34  1  0  0  0  0
 14 35  1  0  0  0  0
 15 16  1  0  0  0  0
 16 36  1  0  0  0  0
 16 37  1  0  0  0  0
 17 18  2  0  0  0  0
 17 19  1  0  0  0  0
M  CHG  1  19  -1
M  END
> <s_m_source_file>
AV-unprocessed.smi

> <i_m_source_file_index>
1180

> <i_lp_mmshare_version>
43012

> <i_f3d_flags>
0

> <s_epik_input>
W0NIM11jMW5jKFtDSDNdKWMoYyg9TylbbkhdMSlbQ0gyXUMoPU8pW05IXVtDSDJdW0NAQEhdMltDSDJdW0NIMl1PW0NIMl0y

> <s_epik_cmdline>
J2VwaWtfcHl0aG9uJywgJy1waCcsICc3LjAnLCAnLXRuJywgJzgnLCAnLW1hJywgJzIwMCcsICctbWV0YWxfYmluZGluZycsICctaW1hZScsICc8aW5maWxlLm1hZT4nLCAnLW9tYWUnLCAnPG91dGZpbGUubWFlPic=

> <r_lp_tautomer_probability>
0.839158

> <r_epik_Ionization_Penalty>
6.60319

> <r_epik_Ionization_Penalty_Charging>
6.85407e-08

> <r_epik_Ionization_Penalty_Neutral>
6.60319

> <r_epik_State_Penalty>
4.42883

> <r_epik_Charging_Adjusted_Penalty>
4.42883

> <i_epik_Tot_Q>
-1

> <i_epik_Tot_abs_Q>
1

> <r_epik_Metal_State_Penalty>
0.797578

> <b_epik_Metal_Only>
1

> <s_lp_Force_Field>
OPLS_2005

> <r_lp_Energy>
23.195

> <b_lp_Chiralities_Consistent>
1

> <s_lp_Variant>
AV-unprocessed.smi:1180-6

> <Gold.Version>
5.8.1

> <Gold.Id.Protein>
6NUR|6NUR_protein|mol2

> <Gold.PLP.Fitness>
39.4135

> <Gold.PLP.PLP>
-34.7510

> <Gold.PLP.part.hbond>
-2.0000

> <Gold.PLP.part.metal>
0.0000

> <Gold.PLP.part.buried>
-4.9850

> <Gold.PLP.part.nonpolar>
-26.6642

> <Gold.PLP.part.repulsive>
0.2708

> <Gold.PLP.ligand.clash>
0.0000

> <Gold.PLP.ligand.torsion>
0.6167

> <Gold.PLP.Chemscore.Hbond>
1.9600

> <Gold.PLP.Chemscore.CHOScore>
0.0000

> <Gold.PLP.Chemscore.Metal>
0.0000

> <Gold.Chemscore.Hbonds>
donor molecule, donor type, donor heavy atom, donor atom, acceptor molecule, acceptor atom, score
      L1  H    10    28       P1  8028  0.71
      P1  H  7997  8009       L1    18  0.57

> <Gold.PLP.Chemscore.Internal.Correction>
0.0158

> <Gold.Rescore>
     Score         DG    S(hbond)    S(metal)    S(lipo)     H(rot)  DE(clash)    DE(int)     intcor
     13.84     -14.52       1.70        0.00      67.06       1.76       0.17       0.51       ----

> <Gold.Chemscore.Fitness>
13.8386

> <Gold.Chemscore.DG>
-14.5196

> <Gold.Chemscore.ZeroCoef>
-5.4800

> <Gold.Chemscore.Hbond>
1.7046

> <Gold.Chemscore.Metal>
0.0000

> <Gold.Chemscore.Lipo>
67.0609

> <Gold.Chemscore.Internal_Hbond>
0.0000

> <Gold.Chemscore.DEClash>
0.1684

> <Gold.Chemscore.DEInternal>
0.5126

> <Gold.Chemscore.Rot>
1.7577

> <Gold.Chemscore.Internal.Correction>
   9.000000E+99

> <Gold.Chemscore.Hbonds>
donor molecule, donor type, donor heavy atom, donor atom, acceptor molecule, acceptor atom, score
      L1  H    10    28       P1  8028  0.24
      P1  H  7997  8009       L1    18  0.56

> <Gold.Chemscore.Hbond.Weighted>
-5.6933

> <Gold.Chemscore.Metal.Weighted>
-0.0000

> <Gold.Chemscore.Lipo.Weighted>
-7.8461

> <Gold.Chemscore.Internal_Hbond.Weighted>
0.0000

> <Gold.Chemscore.DEClash.Weighted>
0.1684

> <Gold.Chemscore.DEInternal.Weighted>
0.5126

> <Gold.Chemscore.Rot.Weighted>
4.4998

> <Gold.Chemscore.Internal.Correction.Weighted>
   9.000000E+99

> <Gold.Protein.RotatedTorsions>
[ 6907 6896 6895 6894 ] final -147.87 input  -60.11 | X-H torsion
[ 7974 7965 7964 7962 ] final  110.62 input  175.53 | X-H torsion
[ 8008 7997 7996 7995 ] final  150.25 input   59.86 | X-H torsion
[ 10167 10162 10161 10158 ] final  -34.12 input  -65.29 | X-H torsion
[ 10718 10713 10712 10709 ] final   85.80 input   66.30 | X-H torsion
[ 10763 10752 10751 10750 ] final  179.75 input  -60.55 | X-H torsion
[ 11005 11000 10999 10996 ] final  133.09 input  -57.11 | X-H torsion

> <Gold.Protein.ActiveResidues>
 VAL166  LYS551  ARG553  GLY616  TRP617  ASP618  TYR619  PRO620  LYS621  CYS622 
 ASP623  PHE694  ASN695  SER759  ASP760  ASP761  ALA762  ILE779  LEU786  VAL792 
 PHE793  MET794  SER795  GLU796  ALA797  LYS798  CYS799  TRP800  GLU811  SER814 

> <Gold.Protein.RotatedAtoms>
  151.1618  133.4840  159.2594 H   0  0  0  0  0  0  0  0  0  0  0  0  # atno 6907 bound_to 6896
  151.1447  135.0197  159.8651 H   0  0  0  0  0  0  0  0  0  0  0  0  # atno 6908 bound_to 6896
  152.5463  134.1508  159.8570 H   0  0  0  0  0  0  0  0  0  0  0  0  # atno 6909 bound_to 6896
  145.2527  139.2733  143.4059 H   0  0  0  0  0  0  0  0  0  0  0  0  # atno 7974 bound_to 7965
  156.2723  140.2080  156.5988 H   0  0  0  0  0  0  0  0  0  0  0  0  # atno 8008 bound_to 7997
  154.6923  140.0529  157.0399 H   0  0  0  0  0  0  0  0  0  0  0  0  # atno 8009 bound_to 7997
  155.0849  140.3190  155.4593 H   0  0  0  0  0  0  0  0  0  0  0  0  # atno 8010 bound_to 7997
  140.7191  143.3570  151.2039 H   0  0  0  0  0  0  0  0  0  0  0  0  # atno 10167 bound_to 10162
  157.6920  131.0189  150.2877 H   0  0  0  0  0  0  0  0  0  0  0  0  # atno 10718 bound_to 10713
  154.5247  135.2796  155.1232 H   0  0  0  0  0  0  0  0  0  0  0  0  # atno 10763 bound_to 10752
  154.2776  135.6291  153.5338 H   0  0  0  0  0  0  0  0  0  0  0  0  # atno 10764 bound_to 10752
  152.9944  135.5643  154.5745 H   0  0  0  0  0  0  0  0  0  0  0  0  # atno 10765 bound_to 10752
  139.9830  134.9542  156.9675 H   0  0  0  0  0  0  0  0  0  0  0  0  # atno 11005 bound_to 11000
  146.3298  140.2922  142.8616 LP  0  0  0  0  0  0  0  0  0  0  0  0  # atno 17320 bound_to 7965
  144.9489  140.8157  143.5584 LP  0  0  0  0  0  0  0  0  0  0  0  0  # atno 17321 bound_to 7965
  139.7114  143.9370  152.2949 LP  0  0  0  0  0  0  0  0  0  0  0  0  # atno 17342 bound_to 10162
  139.9097  144.6864  150.8576 LP  0  0  0  0  0  0  0  0  0  0  0  0  # atno 17343 bound_to 10162
  156.3413  130.3816  149.7407 LP  0  0  0  0  0  0  0  0  0  0  0  0  # atno 17370 bound_to 10713
  156.4915  130.8087  151.3096 LP  0  0  0  0  0  0  0  0  0  0  0  0  # atno 17371 bound_to 10713
  140.5058  134.1051  155.7260 LP  0  0  0  0  0  0  0  0  0  0  0  0  # atno 17394 bound_to 11000
  141.1499  133.8987  157.2123 LP  0  0  0  0  0  0  0  0  0  0  0  0  # atno 17395 bound_to 11000

$$$$
