AV-unprocessed.smi:458|AV-procd|sdf|2621|dock6
  -GOLD-   2262023 23D 1   1.00000     0.00000
 Structure written by MMmdl.
 36 38  0  0  0  0  0  0  0  0  1 V2000
  153.4533  139.7167  154.6300 O   0  0  0  0  0  0  0  0  0  0  0  0
  152.4669  139.1933  155.4934 C   0  0  0  0  0  0  0  0  0  0  0  0
  151.1368  139.8630  155.3265 C   0  0  0  0  0  0  0  0  0  0  0  0
  150.4431  139.7782  154.1909 N   0  0  0  0  0  0  0  0  0  0  0  0
  149.3066  140.5104  154.4736 C   0  0  0  0  0  0  0  0  0  0  0  0
  148.1764  140.7963  153.6746 C   0  0  0  0  0  0  0  0  0  0  0  0
  147.1200  141.5784  154.1857 C   0  0  0  0  0  0  0  0  0  0  0  0
  147.1781  142.0848  155.5003 C   0  0  0  0  0  0  0  0  0  0  0  0
  148.2948  141.8115  156.3134 C   0  0  0  0  0  0  0  0  0  0  0  0
  149.3468  141.0300  155.7987 C   0  0  0  0  0  0  0  0  0  0  0  0
  150.5589  140.5858  156.3189 N   0  0  0  0  0  0  0  0  0  0  0  0
  151.0739  140.8502  157.6558 C   0  0  0  0  0  0  0  0  0  0  0  0
  151.6944  142.2549  157.7940 C   0  0  1  0  0  0  0  0  0  0  0  0
  150.8234  143.2275  157.2489 O   0  0  0  0  0  0  0  0  0  0  0  0
  152.0635  142.5491  159.2398 C   0  0  0  0  0  0  0  0  0  0  0  0
  152.9434  141.7022  159.9502 C   0  0  0  0  0  0  0  0  0  0  0  0
  153.2860  141.9941  161.2851 C   0  0  0  0  0  0  0  0  0  0  0  0
  152.7560  143.1362  161.9154 C   0  0  0  0  0  0  0  0  0  0  0  0
  153.0881  143.4178  163.1974 F   0  0  0  0  0  0  0  0  0  0  0  0
  151.8827  143.9866  161.2106 C   0  0  0  0  0  0  0  0  0  0  0  0
  151.5384  143.6943  159.8765 C   0  0  0  0  0  0  0  0  0  0  0  0
  153.0421  139.9536  153.8130 H   0  0  0  0  0  0  0  0  0  0  0  0
  152.3697  138.1218  155.3233 H   0  0  0  0  0  0  0  0  0  0  0  0
  152.8054  139.3159  156.5228 H   0  0  0  0  0  0  0  0  0  0  0  0
  148.1220  140.4125  152.6666 H   0  0  0  0  0  0  0  0  0  0  0  0
  146.2611  141.7909  153.5662 H   0  0  0  0  0  0  0  0  0  0  0  0
  146.3651  142.6837  155.8841 H   0  0  0  0  0  0  0  0  0  0  0  0
  148.3438  142.1999  157.3198 H   0  0  0  0  0  0  0  0  0  0  0  0
  150.2609  140.7240  158.3723 H   0  0  0  0  0  0  0  0  0  0  0  0
  151.8109  140.0859  157.9029 H   0  0  0  0  0  0  0  0  0  0  0  0
  152.6077  142.3008  157.2003 H   0  0  0  0  0  0  0  0  0  0  0  0
  150.7114  143.9187  157.8834 H   0  0  0  0  0  0  0  0  0  0  0  0
  153.3623  140.8278  159.4742 H   0  0  0  0  0  0  0  0  0  0  0  0
  153.9576  141.3428  161.8248 H   0  0  0  0  0  0  0  0  0  0  0  0
  151.4779  144.8645  161.6924 H   0  0  0  0  0  0  0  0  0  0  0  0
  150.8719  144.3555  159.3419 H   0  0  0  0  0  0  0  0  0  0  0  0
  1  2  1  0  0  0  0
  1 22  1  0  0  0  0
  2  3  1  0  0  0  0
  2 23  1  0  0  0  0
  2 24  1  0  0  0  0
  3 11  1  0  0  0  0
  3  4  2  0  0  0  0
  4  5  1  0  0  0  0
  5 10  2  0  0  0  0
  5  6  1  0  0  0  0
  6  7  2  0  0  0  0
  6 25  1  0  0  0  0
  7  8  1  0  0  0  0
  7 26  1  0  0  0  0
  8  9  2  0  0  0  0
  8 27  1  0  0  0  0
  9 10  1  0  0  0  0
  9 28  1  0  0  0  0
 10 11  1  0  0  0  0
 11 12  1  0  0  0  0
 12 13  1  0  0  0  0
 12 29  1  0  0  0  0
 12 30  1  0  0  0  0
 13 14  1  0  0  0  0
 13 15  1  0  0  0  0
 13 31  1  0  0  0  0
 14 32  1  0  0  0  0
 15 21  1  0  0  0  0
 15 16  2  0  0  0  0
 16 17  1  0  0  0  0
 16 33  1  0  0  0  0
 17 18  2  0  0  0  0
 17 34  1  0  0  0  0
 18 19  1  0  0  0  0
 18 20  1  0  0  0  0
 20 21  2  0  0  0  0
 20 35  1  0  0  0  0
 21 36  1  0  0  0  0
M  END
> <s_m_source_file>
AV-unprocessed.smi

> <i_m_source_file_index>
458

> <i_lp_mmshare_version>
43012

> <i_f3d_flags>
0

> <s_epik_input>
W2NIXTFbY0hdW2NIXVtjSF1jKGMxMiluKGMobjIpW0NIMl1bT0hdKVtDSDJdW0NASF0oW09IXSljM1tjSF1bY0hdYyhGKVtjSF1bY0hdMw==

> <s_epik_cmdline>
J2VwaWtfcHl0aG9uJywgJy1waCcsICc3LjAnLCAnLXRuJywgJzgnLCAnLW1hJywgJzIwMCcsICctbWV0YWxfYmluZGluZycsICctaW1hZScsICc8aW5maWxlLm1hZT4nLCAnLW9tYWUnLCAnPG91dGZpbGUubWFlPic=

> <r_epik_Ionization_Penalty>
0.0634724

> <r_epik_Ionization_Penalty_Charging>
0

> <r_epik_Ionization_Penalty_Neutral>
0.0634724

> <r_epik_State_Penalty>
0.0551572

> <r_epik_Charging_Adjusted_Penalty>
0.0551572

> <i_epik_Tot_Q>
0

> <i_epik_Tot_abs_Q>
0

> <r_epik_Metal_State_Penalty>
5.78034e-05

> <b_epik_Metal_Only>
0

> <s_lp_Force_Field>
OPLS_2005

> <r_lp_Energy>
11.6134

> <b_lp_Chiralities_Consistent>
1

> <s_lp_Variant>
AV-unprocessed.smi:458-2

> <Gold.Version>
5.8.1

> <Gold.Id.Protein>
6NUR|6NUR_protein|mol2

> <Gold.PLP.Fitness>
54.8193

> <Gold.PLP.PLP>
-51.1364

> <Gold.PLP.part.hbond>
-4.0000

> <Gold.PLP.part.metal>
0.0000

> <Gold.PLP.part.buried>
-0.9428

> <Gold.PLP.part.nonpolar>
-44.9509

> <Gold.PLP.part.repulsive>
0.1463

> <Gold.PLP.ligand.clash>
0.0000

> <Gold.PLP.ligand.torsion>
0.3477

> <Gold.PLP.Chemscore.Hbond>
1.4500

> <Gold.PLP.Chemscore.CHOScore>
0.0000

> <Gold.PLP.Chemscore.Metal>
0.0000

> <Gold.Chemscore.Hbonds>
donor molecule, donor type, donor heavy atom, donor atom, acceptor molecule, acceptor atom, score
      P1  H  7989  7998       L1     4  0.40
      P1  H  7997  8008       L1     1  0.95

> <Gold.PLP.Chemscore.Internal.Correction>
0.0283

> <Gold.Rescore>
     Score         DG    S(hbond)    S(metal)    S(lipo)     H(rot)  DE(clash)    DE(int)     intcor
     12.42     -15.06       0.89        0.00     116.74       2.75       0.24       2.40       ----

> <Gold.Chemscore.Fitness>
12.4179

> <Gold.Chemscore.DG>
-15.0585

> <Gold.Chemscore.ZeroCoef>
-5.4800

> <Gold.Chemscore.Hbond>
0.8863

> <Gold.Chemscore.Metal>
0.0000

> <Gold.Chemscore.Lipo>
116.7370

> <Gold.Chemscore.Internal_Hbond>
0.0000

> <Gold.Chemscore.DEClash>
0.2358

> <Gold.Chemscore.DEInternal>
2.4049

> <Gold.Chemscore.Rot>
2.7500

> <Gold.Chemscore.Internal.Correction>
   9.000000E+99

> <Gold.Chemscore.Hbonds>
donor molecule, donor type, donor heavy atom, donor atom, acceptor molecule, acceptor atom, score
      P1  H  7989  7998       L1     4  0.01
      P1  H  7997  8008       L1     1  0.21

> <Gold.Chemscore.Hbond.Weighted>
-2.9602

> <Gold.Chemscore.Metal.Weighted>
-0.0000

> <Gold.Chemscore.Lipo.Weighted>
-13.6582

> <Gold.Chemscore.Internal_Hbond.Weighted>
0.0000

> <Gold.Chemscore.DEClash.Weighted>
0.2358

> <Gold.Chemscore.DEInternal.Weighted>
2.4049

> <Gold.Chemscore.Rot.Weighted>
7.0399

> <Gold.Chemscore.Internal.Correction.Weighted>
   9.000000E+99

> <Gold.Protein.RotatedTorsions>
[ 6907 6896 6895 6894 ] final  146.94 input  -60.11 | X-H torsion
[ 7974 7965 7964 7962 ] final  -38.26 input  175.53 | X-H torsion
[ 8008 7997 7996 7995 ] final   -7.99 input   59.86 | X-H torsion
[ 10167 10162 10161 10158 ] final   40.32 input  -65.29 | X-H torsion
[ 10718 10713 10712 10709 ] final   63.87 input   66.30 | X-H torsion
[ 10763 10752 10751 10750 ] final  -85.50 input  -60.55 | X-H torsion
[ 11005 11000 10999 10996 ] final  -28.35 input  -57.11 | X-H torsion

> <Gold.Protein.ActiveResidues>
 VAL166  LYS551  ARG553  GLY616  TRP617  ASP618  TYR619  PRO620  LYS621  CYS622 
 ASP623  PHE694  ASN695  SER759  ASP760  ASP761  ALA762  ILE779  LEU786  VAL792 
 PHE793  MET794  SER795  GLU796  ALA797  LYS798  CYS799  TRP800  GLU811  SER814 

> <Gold.Protein.RotatedAtoms>
  152.1613  133.4583  159.4862 H   0  0  0  0  0  0  0  0  0  0  0  0  # atno 6907 bound_to 6896
  150.6907  134.2068  159.4353 H   0  0  0  0  0  0  0  0  0  0  0  0  # atno 6908 bound_to 6896
  151.9970  134.9948  160.0614 H   0  0  0  0  0  0  0  0  0  0  0  0  # atno 6909 bound_to 6896
  146.0502  140.6491  142.9045 H   0  0  0  0  0  0  0  0  0  0  0  0  # atno 7974 bound_to 7965
  154.5785  140.2393  155.8088 H   0  0  0  0  0  0  0  0  0  0  0  0  # atno 8008 bound_to 7997
  156.2161  140.3012  155.9799 H   0  0  0  0  0  0  0  0  0  0  0  0  # atno 8009 bound_to 7997
  155.2584  140.0413  157.2985 H   0  0  0  0  0  0  0  0  0  0  0  0  # atno 8010 bound_to 7997
  140.3753  144.2051  150.6132 H   0  0  0  0  0  0  0  0  0  0  0  0  # atno 10167 bound_to 10162
  157.6001  130.9129  149.9772 H   0  0  0  0  0  0  0  0  0  0  0  0  # atno 10718 bound_to 10713
  154.6117  135.5483  153.7481 H   0  0  0  0  0  0  0  0  0  0  0  0  # atno 10763 bound_to 10752
  153.0198  135.6391  154.1568 H   0  0  0  0  0  0  0  0  0  0  0  0  # atno 10764 bound_to 10752
  154.1505  135.2903  155.3116 H   0  0  0  0  0  0  0  0  0  0  0  0  # atno 10765 bound_to 10752
  140.9200  133.7405  156.0788 H   0  0  0  0  0  0  0  0  0  0  0  0  # atno 11005 bound_to 11000
  144.7118  140.4068  143.7074 LP  0  0  0  0  0  0  0  0  0  0  0  0  # atno 17320 bound_to 7965
  145.6737  139.1604  143.2740 LP  0  0  0  0  0  0  0  0  0  0  0  0  # atno 17321 bound_to 7965
  140.4992  143.2323  151.8704 LP  0  0  0  0  0  0  0  0  0  0  0  0  # atno 17342 bound_to 10162
  139.4800  144.5078  151.8973 LP  0  0  0  0  0  0  0  0  0  0  0  0  # atno 17343 bound_to 10162
  156.1072  130.3652  150.0112 LP  0  0  0  0  0  0  0  0  0  0  0  0  # atno 17370 bound_to 10713
  156.8217  130.9361  151.3641 LP  0  0  0  0  0  0  0  0  0  0  0  0  # atno 17371 bound_to 10713
  140.8000  134.3520  157.5442 LP  0  0  0  0  0  0  0  0  0  0  0  0  # atno 17394 bound_to 11000
  139.8773  134.9192  156.3220 LP  0  0  0  0  0  0  0  0  0  0  0  0  # atno 17395 bound_to 11000

$$$$
