AV-unprocessed.smi:1795|AV-procd|sdf|7241|dock1
  -GOLD-   22720 8493D 1   1.00000     0.00000
 Structure written by MMmdl.
 47 48  0  0  0  0  0  0  0  0  1 V2000
  153.4699  138.8397  154.6865 C   0  0  0  0  0  0  0  0  0  0  0  0
  152.1564  138.3930  155.3368 C   0  0  1  0  0  0  0  0  0  0  0  0
  151.0624  139.4701  155.2263 C   0  0  0  0  0  0  0  0  0  0  0  0
  149.7724  139.0338  155.7694 N   0  0  0  0  0  0  0  0  0  0  0  0
  148.7317  140.0846  155.6704 C   0  0  2  0  0  0  0  0  0  0  0  0
  148.9140  140.9964  154.4297 C   0  0  0  0  0  0  0  0  0  0  0  0
  148.6351  140.9795  156.9418 C   0  0  0  0  0  0  0  0  0  0  0  0
  149.8538  141.7366  157.2140 N   0  0  0  0  0  0  0  0  0  0  0  0
  150.9493  141.2446  157.8116 C   0  0  0  0  0  0  0  0  0  0  0  0
  151.0571  140.0681  158.1597 O   0  0  0  0  0  0  0  0  0  0  0  0
  152.1000  142.2351  158.0354 C   0  0  0  0  0  0  0  0  0  0  0  0
  152.5914  142.2371  159.4232 N   0  0  0  0  0  0  0  0  0  0  0  0
  152.1504  143.2810  160.2610 C   0  0  0  0  0  0  0  0  0  0  0  0
  152.5409  143.3767  161.5418 C   0  0  0  0  0  0  0  0  0  0  0  0
  153.4393  142.3715  162.0583 C   0  0  0  0  0  0  0  0  0  0  0  0
  153.8695  141.3703  161.2652 C   0  0  0  0  0  0  0  0  0  0  0  0
  153.4460  141.2623  159.8642 C   0  0  0  0  0  0  0  0  0  0  0  0
  153.8355  140.3522  159.1316 O   0  0  0  0  0  0  0  0  0  0  0  0
  149.3915  137.7941  155.0822 C   0  0  0  0  0  0  0  0  0  0  0  0
  150.4729  136.6962  155.1377 C   0  0  2  0  0  0  0  0  0  0  0  0
  150.5941  136.0285  156.5182 C   0  0  0  0  0  0  0  0  0  0  0  0
  151.7236  137.2056  154.6821 O   0  0  0  0  0  0  0  0  0  0  0  0
  153.8558  139.7422  155.1610 H   0  0  0  0  0  0  0  0  0  0  0  0
  153.3332  139.0510  153.6255 H   0  0  0  0  0  0  0  0  0  0  0  0
  154.2319  138.0654  154.7766 H   0  0  0  0  0  0  0  0  0  0  0  0
  152.3517  138.1793  156.3879 H   0  0  0  0  0  0  0  0  0  0  0  0
  151.4274  140.3445  155.7616 H   0  0  0  0  0  0  0  0  0  0  0  0
  150.9416  139.7650  154.1826 H   0  0  0  0  0  0  0  0  0  0  0  0
  147.7682  139.5857  155.5552 H   0  0  0  0  0  0  0  0  0  0  0  0
  148.1771  141.7978  154.3882 H   0  0  0  0  0  0  0  0  0  0  0  0
  148.7877  140.4537  153.4942 H   0  0  0  0  0  0  0  0  0  0  0  0
  149.9015  141.4589  154.4220 H   0  0  0  0  0  0  0  0  0  0  0  0
  147.8281  141.7075  156.8714 H   0  0  0  0  0  0  0  0  0  0  0  0
  148.4183  140.3620  157.8138 H   0  0  0  0  0  0  0  0  0  0  0  0
  149.8521  142.7120  156.9523 H   0  0  0  0  0  0  0  0  0  0  0  0
  152.9026  141.9840  157.3408 H   0  0  0  0  0  0  0  0  0  0  0  0
  151.7818  143.2410  157.7540 H   0  0  0  0  0  0  0  0  0  0  0  0
  151.4865  143.9956  159.7968 H   0  0  0  0  0  0  0  0  0  0  0  0
  152.1954  144.1861  162.1681 H   0  0  0  0  0  0  0  0  0  0  0  0
  153.7697  142.4239  163.0854 H   0  0  0  0  0  0  0  0  0  0  0  0
  154.5428  140.6285  161.6690 H   0  0  0  0  0  0  0  0  0  0  0  0
  148.4867  137.3707  155.5128 H   0  0  0  0  0  0  0  0  0  0  0  0
  149.1661  138.0156  154.0378 H   0  0  0  0  0  0  0  0  0  0  0  0
  150.1892  135.9141  154.4331 H   0  0  0  0  0  0  0  0  0  0  0  0
  149.6602  135.5395  156.7951 H   0  0  0  0  0  0  0  0  0  0  0  0
  150.8290  136.7472  157.3029 H   0  0  0  0  0  0  0  0  0  0  0  0
  151.3760  135.2689  156.5148 H   0  0  0  0  0  0  0  0  0  0  0  0
  1  2  1  0  0  0  0
  1 23  1  0  0  0  0
  1 24  1  0  0  0  0
  1 25  1  0  0  0  0
  2 22  1  0  0  0  0
  2  3  1  0  0  0  0
  2 26  1  0  0  0  0
  3  4  1  0  0  0  0
  3 27  1  0  0  0  0
  3 28  1  0  0  0  0
  4  5  1  0  0  0  0
  4 19  1  0  0  0  0
  5  6  1  0  0  0  0
  5  7  1  0  0  0  0
  5 29  1  0  0  0  0
  6 30  1  0  0  0  0
  6 31  1  0  0  0  0
  6 32  1  0  0  0  0
  7  8  1  0  0  0  0
  7 33  1  0  0  0  0
  7 34  1  0  0  0  0
  8  9  1  0  0  0  0
  8 35  1  0  0  0  0
  9 10  2  0  0  0  0
  9 11  1  0  0  0  0
 11 12  1  0  0  0  0
 11 36  1  0  0  0  0
 11 37  1  0  0  0  0
 12 17  1  0  0  0  0
 12 13  1  0  0  0  0
 13 14  2  0  0  0  0
 13 38  1  0  0  0  0
 14 15  1  0  0  0  0
 14 39  1  0  0  0  0
 15 16  2  0  0  0  0
 15 40  1  0  0  0  0
 16 17  1  0  0  0  0
 16 41  1  0  0  0  0
 17 18  2  0  0  0  0
 19 20  1  0  0  0  0
 19 42  1  0  0  0  0
 19 43  1  0  0  0  0
 20 21  1  0  0  0  0
 20 22  1  0  0  0  0
 20 44  1  0  0  0  0
 21 45  1  0  0  0  0
 21 46  1  0  0  0  0
 21 47  1  0  0  0  0
M  END
> <s_m_source_file>
AV-unprocessed.smi

> <i_m_source_file_index>
1795

> <i_lp_mmshare_version>
43012

> <i_f3d_flags>
0

> <s_epik_input>
W0NIM11bQ0BASF0xW0NIMl1OKFtDSDJdW0NASF0oTzEpW0NIM10pW0NASF0oW0NIM10pW0NIMl1bTkhdQyg9TylbQ0gyXW4yW2NIXVtjSF1bY0hdW2NIXWMyPU8=

> <s_epik_cmdline>
J2VwaWtfcHl0aG9uJywgJy1waCcsICc3LjAnLCAnLXRuJywgJzgnLCAnLW1hJywgJzIwMCcsICctbWV0YWxfYmluZGluZycsICctaW1hZScsICc8aW5maWxlLm1hZT4nLCAnLW9tYWUnLCAnPG91dGZpbGUubWFlPic=

> <r_lp_tautomer_probability>
1

> <r_epik_Ionization_Penalty>
0.237383

> <r_epik_Ionization_Penalty_Charging>
3.58805e-07

> <r_epik_Ionization_Penalty_Neutral>
0.237382

> <r_epik_State_Penalty>
0.228245

> <r_epik_Charging_Adjusted_Penalty>
0.228245

> <i_epik_Tot_Q>
0

> <i_epik_Tot_abs_Q>
0

> <r_epik_Metal_State_Penalty>
0.228221

> <b_epik_Metal_Only>
0

> <s_lp_Force_Field>
OPLS_2005

> <r_lp_Energy>
40.4957

> <b_lp_Chiralities_Consistent>
1

> <s_lp_Variant>
AV-unprocessed.smi:1795-5

> <Gold.Version>
5.8.1

> <Gold.Id.Protein>
6NUR|6NUR_protein|mol2

> <Gold.PLP.Fitness>
45.6263

> <Gold.PLP.PLP>
-42.1189

> <Gold.PLP.part.hbond>
-2.0000

> <Gold.PLP.part.metal>
0.0000

> <Gold.PLP.part.buried>
-5.3120

> <Gold.PLP.part.nonpolar>
-35.1690

> <Gold.PLP.part.repulsive>
0.2180

> <Gold.PLP.ligand.clash>
0.0000

> <Gold.PLP.ligand.torsion>
1.2874

> <Gold.PLP.Chemscore.Hbond>
1.9833

> <Gold.PLP.Chemscore.CHOScore>
0.0000

> <Gold.PLP.Chemscore.Metal>
0.0000

> <Gold.Chemscore.Hbonds>
donor molecule, donor type, donor heavy atom, donor atom, acceptor molecule, acceptor atom, score
      P1  H  7997  8010       L1    18  0.56
      P1  H 10752 10765       L1    22  0.92

> <Gold.PLP.Chemscore.Internal.Correction>
0.1321

> <Gold.Rescore>
     Score         DG    S(hbond)    S(metal)    S(lipo)     H(rot)  DE(clash)    DE(int)     intcor
     16.99     -18.76       1.67        0.00     105.66       1.83       0.15       1.61       ----

> <Gold.Chemscore.Fitness>
16.9905

> <Gold.Chemscore.DG>
-18.7551

> <Gold.Chemscore.ZeroCoef>
-5.4800

> <Gold.Chemscore.Hbond>
1.6721

> <Gold.Chemscore.Metal>
0.0000

> <Gold.Chemscore.Lipo>
105.6645

> <Gold.Chemscore.Internal_Hbond>
0.0000

> <Gold.Chemscore.DEClash>
0.1543

> <Gold.Chemscore.DEInternal>
1.6103

> <Gold.Chemscore.Rot>
1.8251

> <Gold.Chemscore.Internal.Correction>
   9.000000E+99

> <Gold.Chemscore.Hbonds>
donor molecule, donor type, donor heavy atom, donor atom, acceptor molecule, acceptor atom, score
      P1  H  7997  8010       L1    18  0.55
      P1  H 10752 10765       L1    22  0.65

> <Gold.Chemscore.Hbond.Weighted>
-5.5847

> <Gold.Chemscore.Metal.Weighted>
-0.0000

> <Gold.Chemscore.Lipo.Weighted>
-12.3627

> <Gold.Chemscore.Internal_Hbond.Weighted>
0.0000

> <Gold.Chemscore.DEClash.Weighted>
0.1543

> <Gold.Chemscore.DEInternal.Weighted>
1.6103

> <Gold.Chemscore.Rot.Weighted>
4.6724

> <Gold.Chemscore.Internal.Correction.Weighted>
   9.000000E+99

> <Gold.Protein.RotatedTorsions>
[ 6907 6896 6895 6894 ] final -170.91 input  -60.11 | X-H torsion
[ 7974 7965 7964 7962 ] final  -35.08 input  175.53 | X-H torsion
[ 8008 7997 7996 7995 ] final   15.11 input   59.86 | X-H torsion
[ 10167 10162 10161 10158 ] final -118.47 input  -65.29 | X-H torsion
[ 10718 10713 10712 10709 ] final   15.44 input   66.30 | X-H torsion
[ 10763 10752 10751 10750 ] final  152.99 input  -60.55 | X-H torsion
[ 11005 11000 10999 10996 ] final -141.63 input  -57.11 | X-H torsion

> <Gold.Protein.ActiveResidues>
 VAL166  LYS551  ARG553  GLY616  TRP617  ASP618  TYR619  PRO620  LYS621  CYS622 
 ASP623  PHE694  ASN695  SER759  ASP760  ASP761  ALA762  ILE779  LEU786  VAL792 
 PHE793  MET794  SER795  GLU796  ALA797  LYS798  CYS799  TRP800  GLU811  SER814 

> <Gold.Protein.RotatedAtoms>
  151.5154  133.3477  159.2891 H   0  0  0  0  0  0  0  0  0  0  0  0  # atno 6907 bound_to 6896
  150.8686  134.8057  159.7148 H   0  0  0  0  0  0  0  0  0  0  0  0  # atno 6908 bound_to 6896
  152.4682  134.5034  159.9783 H   0  0  0  0  0  0  0  0  0  0  0  0  # atno 6909 bound_to 6896
  146.0776  140.6116  142.8923 H   0  0  0  0  0  0  0  0  0  0  0  0  # atno 7974 bound_to 7965
  154.8580  140.2940  155.5557 H   0  0  0  0  0  0  0  0  0  0  0  0  # atno 8008 bound_to 7997
  156.3019  140.2483  156.3482 H   0  0  0  0  0  0  0  0  0  0  0  0  # atno 8009 bound_to 7997
  154.8949  140.0393  157.1849 H   0  0  0  0  0  0  0  0  0  0  0  0  # atno 8010 bound_to 7997
  140.0572  143.5003  152.2051 H   0  0  0  0  0  0  0  0  0  0  0  0  # atno 10167 bound_to 10162
  157.0535  130.6280  149.5772 H   0  0  0  0  0  0  0  0  0  0  0  0  # atno 10718 bound_to 10713
  154.1290  135.2828  155.3190 H   0  0  0  0  0  0  0  0  0  0  0  0  # atno 10763 bound_to 10752
  154.6369  135.5416  153.7747 H   0  0  0  0  0  0  0  0  0  0  0  0  # atno 10764 bound_to 10752
  153.0287  135.6476  154.1441 H   0  0  0  0  0  0  0  0  0  0  0  0  # atno 10765 bound_to 10752
  140.8305  134.2523  157.4859 H   0  0  0  0  0  0  0  0  0  0  0  0  # atno 11005 bound_to 11000
  144.7272  140.4560  143.6964 LP  0  0  0  0  0  0  0  0  0  0  0  0  # atno 17320 bound_to 7965
  145.6277  139.1532  143.2986 LP  0  0  0  0  0  0  0  0  0  0  0  0  # atno 17321 bound_to 7965
  139.5916  144.7552  151.3386 LP  0  0  0  0  0  0  0  0  0  0  0  0  # atno 17342 bound_to 10162
  140.7189  143.7190  150.7710 LP  0  0  0  0  0  0  0  0  0  0  0  0  # atno 17343 bound_to 10162
  156.0000  130.5077  150.7627 LP  0  0  0  0  0  0  0  0  0  0  0  0  # atno 17370 bound_to 10713
  157.5011  131.0918  151.0313 LP  0  0  0  0  0  0  0  0  0  0  0  0  # atno 17371 bound_to 10713
  139.8705  134.9583  156.4297 LP  0  0  0  0  0  0  0  0  0  0  0  0  # atno 17394 bound_to 11000
  140.9003  133.7784  155.9673 LP  0  0  0  0  0  0  0  0  0  0  0  0  # atno 17395 bound_to 11000

$$$$
