AV-unprocessed.smi:879|AV-procd|sdf|4033|dock7
  -GOLD-   22720 1523D 1   1.00000     0.00000
 Structure written by MMmdl.
 39 40  0  0  0  0  0  0  0  0  1 V2000
  146.9586  139.3894  152.4713 C   0  0  0  0  0  0  0  0  0  0  0  0
  147.7232  140.3895  153.2007 N   0  0  0  0  0  0  0  0  0  0  0  0
  148.6868  140.1036  154.0882 C   0  0  0  0  0  0  0  0  0  0  0  0
  149.0172  138.9500  154.3686 O   0  0  0  0  0  0  0  0  0  0  0  0
  149.3762  141.3100  154.7396 C   0  0  0  0  0  0  0  0  0  0  0  0
  150.5318  140.9114  155.6048 C   0  0  0  0  0  0  0  0  0  0  0  0
  151.4921  140.1147  155.1493 N   0  0  0  0  0  0  0  0  0  0  0  0
  152.3537  139.9853  156.2477 O   0  0  0  0  0  0  0  0  0  0  0  0
  151.8060  140.7307  157.2378 C   0  0  0  0  0  0  0  0  0  0  0  0
  152.4777  140.7707  158.5725 C   0  0  0  0  0  0  0  0  0  0  0  0
  153.0399  142.1591  158.9526 C   0  0  0  0  0  0  0  0  0  0  0  0
  153.4482  142.2035  160.4428 C   0  0  0  0  0  0  0  0  0  0  0  0
  152.3273  142.5734  161.4297 C   0  0  0  0  0  0  0  0  0  0  0  0
  152.2066  144.0906  161.6522 C   0  0  0  0  0  0  0  0  0  0  0  0
  151.6207  144.8714  160.4662 C   0  0  0  0  0  0  0  0  0  0  0  0
  152.3663  144.6808  159.1336 C   0  0  0  0  0  0  0  0  0  0  0  0
  152.1062  143.3056  158.4951 C   0  0  0  0  0  0  0  0  0  0  0  0
  150.6594  141.3149  156.8998 N   0  0  0  0  0  0  0  0  0  0  0  0
  146.2668  139.8778  151.7853 H   0  0  0  0  0  0  0  0  0  0  0  0
  146.3793  138.7698  153.1567 H   0  0  0  0  0  0  0  0  0  0  0  0
  147.6169  138.7431  151.8890 H   0  0  0  0  0  0  0  0  0  0  0  0
  147.5068  141.3592  153.0198 H   0  0  0  0  0  0  0  0  0  0  0  0
  149.7260  141.9844  153.9573 H   0  0  0  0  0  0  0  0  0  0  0  0
  148.6532  141.8668  155.3380 H   0  0  0  0  0  0  0  0  0  0  0  0
  151.7648  140.4371  159.3276 H   0  0  0  0  0  0  0  0  0  0  0  0
  153.2795  140.0315  158.5636 H   0  0  0  0  0  0  0  0  0  0  0  0
  153.9700  142.2741  158.3935 H   0  0  0  0  0  0  0  0  0  0  0  0
  153.8605  141.2341  160.7254 H   0  0  0  0  0  0  0  0  0  0  0  0
  154.2780  142.9000  160.5697 H   0  0  0  0  0  0  0  0  0  0  0  0
  151.3733  142.1428  161.1236 H   0  0  0  0  0  0  0  0  0  0  0  0
  152.5632  142.1184  162.3922 H   0  0  0  0  0  0  0  0  0  0  0  0
  151.5716  144.2656  162.5212 H   0  0  0  0  0  0  0  0  0  0  0  0
  153.1819  144.5017  161.9152 H   0  0  0  0  0  0  0  0  0  0  0  0
  150.5694  144.6108  160.3396 H   0  0  0  0  0  0  0  0  0  0  0  0
  151.6307  145.9313  160.7217 H   0  0  0  0  0  0  0  0  0  0  0  0
  152.0018  145.4429  158.4441 H   0  0  0  0  0  0  0  0  0  0  0  0
  153.4345  144.8696  159.2456 H   0  0  0  0  0  0  0  0  0  0  0  0
  152.2036  143.4089  157.4135 H   0  0  0  0  0  0  0  0  0  0  0  0
  151.0650  143.0273  158.6626 H   0  0  0  0  0  0  0  0  0  0  0  0
  1  2  1  0  0  0  0
  1 19  1  0  0  0  0
  1 20  1  0  0  0  0
  1 21  1  0  0  0  0
  2  3  1  0  0  0  0
  2 22  1  0  0  0  0
  3  4  2  0  0  0  0
  3  5  1  0  0  0  0
  5  6  1  0  0  0  0
  5 23  1  0  0  0  0
  5 24  1  0  0  0  0
  6 18  1  0  0  0  0
  6  7  2  0  0  0  0
  7  8  1  0  0  0  0
  8  9  1  0  0  0  0
  9 10  1  0  0  0  0
  9 18  2  0  0  0  0
 10 11  1  0  0  0  0
 10 25  1  0  0  0  0
 10 26  1  0  0  0  0
 11 17  1  0  0  0  0
 11 12  1  0  0  0  0
 11 27  1  0  0  0  0
 12 13  1  0  0  0  0
 12 28  1  0  0  0  0
 12 29  1  0  0  0  0
 13 14  1  0  0  0  0
 13 30  1  0  0  0  0
 13 31  1  0  0  0  0
 14 15  1  0  0  0  0
 14 32  1  0  0  0  0
 14 33  1  0  0  0  0
 15 16  1  0  0  0  0
 15 34  1  0  0  0  0
 15 35  1  0  0  0  0
 16 17  1  0  0  0  0
 16 36  1  0  0  0  0
 16 37  1  0  0  0  0
 17 38  1  0  0  0  0
 17 39  1  0  0  0  0
M  END
> <s_m_source_file>
AV-unprocessed.smi

> <i_m_source_file_index>
879

> <i_lp_mmshare_version>
43012

> <i_f3d_flags>
0

> <s_epik_input>
W0NIM11bTkhdQyg9TylbQ0gyXWMxbm9jKG4xKVtDSDJdW0NIXTJbQ0gyXVtDSDJdW0NIMl1bQ0gyXVtDSDJdW0NIMl0y

> <s_epik_cmdline>
J2VwaWtfcHl0aG9uJywgJy1waCcsICc3LjAnLCAnLXRuJywgJzgnLCAnLW1hJywgJzIwMCcsICctbWV0YWxfYmluZGluZycsICctaW1hZScsICc8aW5maWxlLm1hZT4nLCAnLW9tYWUnLCAnPG91dGZpbGUubWFlPic=

> <r_lp_tautomer_probability>
1

> <r_epik_Ionization_Penalty>
1.02915e-07

> <r_epik_Ionization_Penalty_Charging>
0

> <r_epik_Ionization_Penalty_Neutral>
1.02915e-07

> <r_epik_State_Penalty>
-0

> <r_epik_Charging_Adjusted_Penalty>
0

> <i_epik_Tot_Q>
0

> <i_epik_Tot_abs_Q>
0

> <r_epik_Metal_State_Penalty>
-0

> <b_epik_Metal_Only>
0

> <s_lp_Force_Field>
OPLS_2005

> <r_lp_Energy>
15.7019

> <b_lp_Chiralities_Consistent>
1

> <s_lp_Variant>
AV-unprocessed.smi:879-1

> <Gold.Version>
5.8.1

> <Gold.Id.Protein>
6NUR|6NUR_protein|mol2

> <Gold.PLP.Fitness>
49.6393

> <Gold.PLP.PLP>
-44.1891

> <Gold.PLP.part.hbond>
-3.0000

> <Gold.PLP.part.metal>
0.0000

> <Gold.PLP.part.buried>
-4.1762

> <Gold.PLP.part.nonpolar>
-37.0707

> <Gold.PLP.part.repulsive>
0.3177

> <Gold.PLP.ligand.clash>
0.0000

> <Gold.PLP.ligand.torsion>
0.2937

> <Gold.PLP.Chemscore.Hbond>
2.0000

> <Gold.PLP.Chemscore.CHOScore>
0.0000

> <Gold.PLP.Chemscore.Metal>
0.0000

> <Gold.Chemscore.Hbonds>
donor molecule, donor type, donor heavy atom, donor atom, acceptor molecule, acceptor atom, score
      P1  H  7989  7998       L1     7  0.85
      P1  H  7997  8008       L1     8  1.00

> <Gold.PLP.Chemscore.Internal.Correction>
0.0375

> <Gold.Rescore>
     Score         DG    S(hbond)    S(metal)    S(lipo)     H(rot)  DE(clash)    DE(int)     intcor
     15.43     -18.45       1.66        0.00     103.63       1.84       0.12       2.90       ----

> <Gold.Chemscore.Fitness>
15.4290

> <Gold.Chemscore.DG>
-18.4509

> <Gold.Chemscore.ZeroCoef>
-5.4800

> <Gold.Chemscore.Hbond>
1.6636

> <Gold.Chemscore.Metal>
0.0000

> <Gold.Chemscore.Lipo>
103.6279

> <Gold.Chemscore.Internal_Hbond>
0.0000

> <Gold.Chemscore.DEClash>
0.1225

> <Gold.Chemscore.DEInternal>
2.8994

> <Gold.Chemscore.Rot>
1.8399

> <Gold.Chemscore.Internal.Correction>
   9.000000E+99

> <Gold.Chemscore.Hbonds>
donor molecule, donor type, donor heavy atom, donor atom, acceptor molecule, acceptor atom, score
      P1  H  7989  7998       L1     7  0.14
      P1  H  7997  8008       L1     8  0.63

> <Gold.Chemscore.Hbond.Weighted>
-5.5565

> <Gold.Chemscore.Metal.Weighted>
-0.0000

> <Gold.Chemscore.Lipo.Weighted>
-12.1245

> <Gold.Chemscore.Internal_Hbond.Weighted>
0.0000

> <Gold.Chemscore.DEClash.Weighted>
0.1225

> <Gold.Chemscore.DEInternal.Weighted>
2.8994

> <Gold.Chemscore.Rot.Weighted>
4.7101

> <Gold.Chemscore.Internal.Correction.Weighted>
   9.000000E+99

> <Gold.Protein.RotatedTorsions>
[ 6907 6896 6895 6894 ] final   83.78 input  -60.11 | X-H torsion
[ 7974 7965 7964 7962 ] final   68.73 input  175.53 | X-H torsion
[ 8008 7997 7996 7995 ] final  -45.38 input   59.86 | X-H torsion
[ 10167 10162 10161 10158 ] final   21.87 input  -65.29 | X-H torsion
[ 10718 10713 10712 10709 ] final  121.86 input   66.30 | X-H torsion
[ 10763 10752 10751 10750 ] final  179.66 input  -60.55 | X-H torsion
[ 11005 11000 10999 10996 ] final -121.50 input  -57.11 | X-H torsion

> <Gold.Protein.ActiveResidues>
 VAL166  LYS551  ARG553  GLY616  TRP617  ASP618  TYR619  PRO620  LYS621  CYS622 
 ASP623  PHE694  ASN695  SER759  ASP760  ASP761  ALA762  ILE779  LEU786  VAL792 
 PHE793  MET794  SER795  GLU796  ALA797  LYS798  CYS799  TRP800  GLU811  SER814 

> <Gold.Protein.RotatedAtoms>
  152.5336  134.2843  159.9018 H   0  0  0  0  0  0  0  0  0  0  0  0  # atno 6907 bound_to 6896
  151.2796  133.4209  159.2634 H   0  0  0  0  0  0  0  0  0  0  0  0  # atno 6908 bound_to 6896
  151.0295  134.9544  159.8160 H   0  0  0  0  0  0  0  0  0  0  0  0  # atno 6909 bound_to 6896
  145.7990  139.2972  143.1166 H   0  0  0  0  0  0  0  0  0  0  0  0  # atno 7974 bound_to 7965
  154.4001  140.1398  156.3837 H   0  0  0  0  0  0  0  0  0  0  0  0  # atno 8008 bound_to 7997
  155.7979  140.3477  155.5365 H   0  0  0  0  0  0  0  0  0  0  0  0  # atno 8009 bound_to 7997
  155.8513  140.0942  157.1663 H   0  0  0  0  0  0  0  0  0  0  0  0  # atno 8010 bound_to 7997
  140.5393  143.9706  150.6509 H   0  0  0  0  0  0  0  0  0  0  0  0  # atno 10167 bound_to 10162
  157.5786  131.1077  150.8232 H   0  0  0  0  0  0  0  0  0  0  0  0  # atno 10718 bound_to 10713
  154.5236  135.2795  155.1241 H   0  0  0  0  0  0  0  0  0  0  0  0  # atno 10763 bound_to 10752
  154.2789  135.6289  153.5343 H   0  0  0  0  0  0  0  0  0  0  0  0  # atno 10764 bound_to 10752
  152.9942  135.5646  154.5731 H   0  0  0  0  0  0  0  0  0  0  0  0  # atno 10765 bound_to 10752
  141.0065  134.0327  157.3470 H   0  0  0  0  0  0  0  0  0  0  0  0  # atno 11005 bound_to 11000
  145.9898  140.8612  143.0072 LP  0  0  0  0  0  0  0  0  0  0  0  0  # atno 17320 bound_to 7965
  144.6771  140.2199  143.7367 LP  0  0  0  0  0  0  0  0  0  0  0  0  # atno 17321 bound_to 7965
  140.3102  143.3203  152.0886 LP  0  0  0  0  0  0  0  0  0  0  0  0  # atno 17342 bound_to 10162
  139.4982  144.6641  151.6397 LP  0  0  0  0  0  0  0  0  0  0  0  0  # atno 17343 bound_to 10162
  156.8684  130.5137  149.5298 LP  0  0  0  0  0  0  0  0  0  0  0  0  # atno 17370 bound_to 10713
  156.0831  130.5836  150.9598 LP  0  0  0  0  0  0  0  0  0  0  0  0  # atno 17371 bound_to 10713
  139.9066  135.0181  156.7513 LP  0  0  0  0  0  0  0  0  0  0  0  0  # atno 17394 bound_to 11000
  140.6804  133.9480  155.7907 LP  0  0  0  0  0  0  0  0  0  0  0  0  # atno 17395 bound_to 11000

$$$$
