AV-unprocessed.smi:1677|AV-procd|sdf|6721|dock3
  -GOLD-   22720 7463D 1   1.00000     0.00000
 Structure written by MMmdl.
 37 38  0  0  0  0  0  0  0  0  2 V2000
  149.3989  139.6287  156.2487 C   0  0  0  0  0  0  0  0  0  0  0  0
  150.2014  140.7430  155.5575 C   0  0  1  0  0  0  0  0  0  0  0  0
  149.5255  141.2705  154.2734 C   0  0  0  0  0  0  0  0  0  0  0  0
  148.0628  141.2899  154.3669 N   0  0  0  0  0  0  0  0  0  0  0  0
  147.2974  142.0549  155.2091 C   0  0  0  0  0  0  0  0  0  0  0  0
  145.9898  141.7380  154.9451 C   0  0  0  0  0  0  0  0  0  0  0  0
  146.0124  140.7908  153.9564 N   0  3  0  0  0  0  0  0  0  0  0  0
  147.2741  140.5167  153.6090 C   0  0  0  0  0  0  0  0  0  0  0  0
  150.4132  141.8363  156.5012 N   0  0  0  0  0  0  0  0  0  0  0  0
  151.1512  141.7641  157.6202 C   0  0  0  0  0  0  0  0  0  0  0  0
  151.7524  140.7465  157.9660 O   0  0  0  0  0  0  0  0  0  0  0  0
  151.2176  143.0334  158.4798 C   0  0  2  0  0  0  0  0  0  0  0  0
  151.6889  144.2513  157.6514 C   0  0  0  0  0  0  0  0  0  0  0  0
  152.0072  145.4506  158.5271 C   0  0  0  0  0  0  0  0  0  0  0  0
  152.1903  145.3676  159.8561 C   0  0  0  0  0  0  0  0  0  0  0  0
  152.1048  144.0651  160.6323 C   0  0  0  0  0  0  0  0  0  0  0  0
  152.1278  142.8331  159.7079 C   0  0  0  0  0  0  0  0  0  0  0  0
  149.3000  138.7512  155.6096 H   0  0  0  0  0  0  0  0  0  0  0  0
  148.3955  139.9664  156.5103 H   0  0  0  0  0  0  0  0  0  0  0  0
  149.8905  139.3043  157.1666 H   0  0  0  0  0  0  0  0  0  0  0  0
  151.1742  140.3246  155.2921 H   0  0  0  0  0  0  0  0  0  0  0  0
  149.8703  142.2806  154.0453 H   0  0  0  0  0  0  0  0  0  0  0  0
  149.7852  140.6482  153.4159 H   0  0  0  0  0  0  0  0  0  0  0  0
  147.7298  142.7511  155.9136 H   0  0  0  0  0  0  0  0  0  0  0  0
  145.0696  142.1052  155.3758 H   0  0  0  0  0  0  0  0  0  0  0  0
  147.5916  139.8127  152.8603 H   0  0  0  0  0  0  0  0  0  0  0  0
  149.9536  142.7119  156.2960 H   0  0  0  0  0  0  0  0  0  0  0  0
  150.2120  143.2471  158.8477 H   0  0  0  0  0  0  0  0  0  0  0  0
  152.5810  144.0162  157.0692 H   0  0  0  0  0  0  0  0  0  0  0  0
  150.9124  144.5368  156.9408 H   0  0  0  0  0  0  0  0  0  0  0  0
  152.0986  146.4058  158.0313 H   0  0  0  0  0  0  0  0  0  0  0  0
  152.4018  146.2607  160.4256 H   0  0  0  0  0  0  0  0  0  0  0  0
  152.9312  144.0126  161.3415 H   0  0  0  0  0  0  0  0  0  0  0  0
  151.1844  144.0809  161.2167 H   0  0  0  0  0  0  0  0  0  0  0  0
  151.8303  141.9475  160.2712 H   0  0  0  0  0  0  0  0  0  0  0  0
  153.1523  142.6562  159.3760 H   0  0  0  0  0  0  0  0  0  0  0  0
  145.1941  140.3581  153.5464 H   0  0  0  0  0  0  0  0  0  0  0  0
  1  2  1  0  0  0  0
  1 18  1  0  0  0  0
  1 19  1  0  0  0  0
  1 20  1  0  0  0  0
  2  3  1  0  0  0  0
  2  9  1  0  0  0  0
  2 21  1  0  0  0  0
  3  4  1  0  0  0  0
  3 22  1  0  0  0  0
  3 23  1  0  0  0  0
  4  8  1  0  0  0  0
  4  5  1  0  0  0  0
  5  6  2  0  0  0  0
  5 24  1  0  0  0  0
  6  7  1  0  0  0  0
  6 25  1  0  0  0  0
  7  8  2  0  0  0  0
  7 37  1  0  0  0  0
  8 26  1  0  0  0  0
  9 10  1  0  0  0  0
  9 27  1  0  0  0  0
 10 11  2  0  0  0  0
 10 12  1  0  0  0  0
 12 17  1  0  0  0  0
 12 13  1  0  0  0  0
 12 28  1  0  0  0  0
 13 14  1  0  0  0  0
 13 29  1  0  0  0  0
 13 30  1  0  0  0  0
 14 15  2  0  0  0  0
 14 31  1  0  0  0  0
 15 16  1  0  0  0  0
 15 32  1  0  0  0  0
 16 17  1  0  0  0  0
 16 33  1  0  0  0  0
 16 34  1  0  0  0  0
 17 35  1  0  0  0  0
 17 36  1  0  0  0  0
M  CHG  1   7   1
M  END
> <s_m_source_file>
AV-unprocessed.smi

> <i_m_source_file_index>
1677

> <i_lp_mmshare_version>
43012

> <i_f3d_flags>
0

> <s_epik_input>
W2NIXTFuW2NIXVtjSF1uMVtDSDJdW0NAQEhdKFtDSDNdKVtOSF1DKD1PKVtDQEBIXTJbQ0gyXVtDSF09W0NIXVtDSDJdW0NIMl0y

> <s_epik_cmdline>
J2VwaWtfcHl0aG9uJywgJy1waCcsICc3LjAnLCAnLXRuJywgJzgnLCAnLW1hJywgJzIwMCcsICctbWV0YWxfYmluZGluZycsICctaW1hZScsICc8aW5maWxlLm1hZT4nLCAnLW9tYWUnLCAnPG91dGZpbGUubWFlPic=

> <r_lp_tautomer_probability>
1

> <r_epik_Ionization_Penalty>
0.245541

> <r_epik_Ionization_Penalty_Charging>
0

> <r_epik_Ionization_Penalty_Neutral>
0.245541

> <r_epik_State_Penalty>
0.236686

> <r_epik_Charging_Adjusted_Penalty>
0.236686

> <i_epik_Tot_Q>
1

> <i_epik_Tot_abs_Q>
1

> <r_epik_Metal_State_Penalty>
0.529594

> <b_epik_Metal_Only>
0

> <s_lp_Force_Field>
OPLS_2005

> <r_lp_Energy>
11.4362

> <b_lp_Chiralities_Consistent>
1

> <s_lp_Variant>
AV-unprocessed.smi:1677-2

> <Gold.Version>
5.8.1

> <Gold.Id.Protein>
6NUR|6NUR_protein|mol2

> <Gold.PLP.Fitness>
48.3062

> <Gold.PLP.PLP>
-37.1368

> <Gold.PLP.part.hbond>
-1.0000

> <Gold.PLP.part.metal>
0.0000

> <Gold.PLP.part.buried>
-1.7252

> <Gold.PLP.part.nonpolar>
-34.1872

> <Gold.PLP.part.repulsive>
0.0547

> <Gold.PLP.ligand.clash>
0.0000

> <Gold.PLP.ligand.torsion>
0.4295

> <Gold.PLP.Chemscore.Hbond>
2.0000

> <Gold.PLP.Chemscore.CHOScore>
1.9987

> <Gold.PLP.Chemscore.Metal>
0.0000

> <Gold.Chemscore.Hbonds>
donor molecule, donor type, donor heavy atom, donor atom, acceptor molecule, acceptor atom, score
      L1  H     7    37       P1 10175  1.98
      L1  H     9    27       P1  8028  0.18
      L1  C     5    24       P1  8028  1.00
      L1  C     8    26       P1  7957  0.72

> <Gold.PLP.Chemscore.Internal.Correction>
0.0325

> <Gold.Rescore>
     Score         DG    S(hbond)    S(metal)    S(lipo)     H(rot)  DE(clash)    DE(int)     intcor
     14.17     -15.22       0.99        0.00      94.74       1.81       0.09       0.97       ----

> <Gold.Chemscore.Fitness>
14.1691

> <Gold.Chemscore.DG>
-15.2238

> <Gold.Chemscore.ZeroCoef>
-5.4800

> <Gold.Chemscore.Hbond>
0.9895

> <Gold.Chemscore.Metal>
0.0000

> <Gold.Chemscore.Lipo>
94.7388

> <Gold.Chemscore.Internal_Hbond>
0.0000

> <Gold.Chemscore.DEClash>
0.0866

> <Gold.Chemscore.DEInternal>
0.9680

> <Gold.Chemscore.Rot>
1.8147

> <Gold.Chemscore.Internal.Correction>
   9.000000E+99

> <Gold.Chemscore.Hbonds>
donor molecule, donor type, donor heavy atom, donor atom, acceptor molecule, acceptor atom, score
      L1  H     7    37       P1 10175  0.93
      L1  H     9    27       P1  8028  0.19

> <Gold.Chemscore.Hbond.Weighted>
-3.3049

> <Gold.Chemscore.Metal.Weighted>
-0.0000

> <Gold.Chemscore.Lipo.Weighted>
-11.0844

> <Gold.Chemscore.Internal_Hbond.Weighted>
0.0000

> <Gold.Chemscore.DEClash.Weighted>
0.0866

> <Gold.Chemscore.DEInternal.Weighted>
0.9680

> <Gold.Chemscore.Rot.Weighted>
4.6456

> <Gold.Chemscore.Internal.Correction.Weighted>
   9.000000E+99

> <Gold.Protein.RotatedTorsions>
[ 6907 6896 6895 6894 ] final -106.81 input  -60.11 | X-H torsion
[ 7974 7965 7964 7962 ] final  146.66 input  175.53 | X-H torsion
[ 8008 7997 7996 7995 ] final   76.77 input   59.86 | X-H torsion
[ 10167 10162 10161 10158 ] final -143.22 input  -65.29 | X-H torsion
[ 10718 10713 10712 10709 ] final -170.53 input   66.30 | X-H torsion
[ 10763 10752 10751 10750 ] final   71.99 input  -60.55 | X-H torsion
[ 11005 11000 10999 10996 ] final   82.77 input  -57.11 | X-H torsion

> <Gold.Protein.ActiveResidues>
 VAL166  LYS551  ARG553  GLY616  TRP617  ASP618  TYR619  PRO620  LYS621  CYS622 
 ASP623  PHE694  ASN695  SER759  ASP760  ASP761  ALA762  ILE779  LEU786  VAL792 
 PHE793  MET794  SER795  GLU796  ALA797  LYS798  CYS799  TRP800  GLU811  SER814 

> <Gold.Protein.RotatedAtoms>
  150.7409  133.9920  159.3610 H   0  0  0  0  0  0  0  0  0  0  0  0  # atno 6907 bound_to 6896
  151.7869  135.0744  160.0391 H   0  0  0  0  0  0  0  0  0  0  0  0  # atno 6908 bound_to 6896
  152.3235  133.5843  159.5797 H   0  0  0  0  0  0  0  0  0  0  0  0  # atno 6909 bound_to 6896
  144.8653  139.5932  143.5911 H   0  0  0  0  0  0  0  0  0  0  0  0  # atno 7974 bound_to 7965
  155.8321  140.3466  155.5578 H   0  0  0  0  0  0  0  0  0  0  0  0  # atno 8008 bound_to 7997
  155.8231  140.0916  157.1857 H   0  0  0  0  0  0  0  0  0  0  0  0  # atno 8009 bound_to 7997
  154.4004  140.1426  156.3511 H   0  0  0  0  0  0  0  0  0  0  0  0  # atno 8010 bound_to 7997
  139.8013  143.7829  152.2658 H   0  0  0  0  0  0  0  0  0  0  0  0  # atno 10167 bound_to 10162
  156.7276  130.9294  151.3102 H   0  0  0  0  0  0  0  0  0  0  0  0  # atno 10718 bound_to 10713
  153.0431  135.5116  154.7676 H   0  0  0  0  0  0  0  0  0  0  0  0  # atno 10763 bound_to 10752
  154.6597  135.2937  154.9884 H   0  0  0  0  0  0  0  0  0  0  0  0  # atno 10764 bound_to 10752
  154.0740  135.6673  153.4881 H   0  0  0  0  0  0  0  0  0  0  0  0  # atno 10765 bound_to 10752
  139.9052  134.8096  156.2219 H   0  0  0  0  0  0  0  0  0  0  0  0  # atno 11005 bound_to 11000
  146.2891  139.7088  142.9174 LP  0  0  0  0  0  0  0  0  0  0  0  0  # atno 17320 bound_to 7965
  145.4233  141.0408  143.2952 LP  0  0  0  0  0  0  0  0  0  0  0  0  # atno 17321 bound_to 7965
  139.7950  144.7396  150.9903 LP  0  0  0  0  0  0  0  0  0  0  0  0  # atno 17342 bound_to 10162
  140.7820  143.4403  151.0561 LP  0  0  0  0  0  0  0  0  0  0  0  0  # atno 17343 bound_to 10162
  157.6872  130.9197  150.0418 LP  0  0  0  0  0  0  0  0  0  0  0  0  # atno 17370 bound_to 10713
  156.1551  130.3643  149.9381 LP  0  0  0  0  0  0  0  0  0  0  0  0  # atno 17371 bound_to 10713
  141.0400  133.6943  156.1581 LP  0  0  0  0  0  0  0  0  0  0  0  0  # atno 17394 bound_to 11000
  140.6970  134.4605  157.5587 LP  0  0  0  0  0  0  0  0  0  0  0  0  # atno 17395 bound_to 11000

$$$$
