AV-unprocessed.smi:1796|AV-procd|sdf|7251|dock9
  -GOLD-   22720 8503D 1   1.00000     0.00000
 Structure written by MMmdl.
 42 43  0  0  0  0  0  0  0  0  1 V2000
  140.1635  140.9609  153.8955 C   0  0  0  0  0  0  0  0  0  0  0  0
  139.2647  139.7244  153.8127 C   0  0  0  0  0  0  0  0  0  0  0  0
  138.1149  139.8157  154.2430 O   0  0  0  0  0  0  0  0  0  0  0  0
  139.7578  138.5814  153.2785 N   0  0  0  0  0  0  0  0  0  0  0  0
  138.9921  137.3292  153.2288 C   0  0  0  0  0  0  0  0  0  0  0  0
  139.6245  136.3168  154.2022 C   0  0  0  0  0  0  0  0  0  0  0  0
  141.1189  136.1056  153.8912 C   0  0  0  0  0  0  0  0  0  0  0  0
  141.8708  137.4520  153.7921 C   0  0  1  0  0  0  0  0  0  0  0  0
  143.3289  137.2550  153.3634 C   0  0  0  0  0  0  0  0  0  0  0  0
  144.2359  137.8182  153.9765 O   0  0  0  0  0  0  0  0  0  0  0  0
  143.5370  136.4172  152.3351 N   0  0  0  0  0  0  0  0  0  0  0  0
  144.8398  135.9355  151.8777 C   0  0  2  0  0  0  0  0  0  0  0  0
  145.7838  137.1300  151.6858 C   0  0  0  0  0  0  0  0  0  0  0  0
  144.6762  135.1247  150.5749 C   0  0  0  0  0  0  0  0  0  0  0  0
  144.8541  133.6970  150.7796 N   0  0  0  0  0  0  0  0  0  0  0  0
  143.8983  132.7027  150.7470 C   0  0  0  0  0  0  0  0  0  0  0  0
  144.5281  131.5243  151.0271 C   0  0  0  0  0  0  0  0  0  0  0  0
  145.8870  131.9041  151.2120 C   0  0  0  0  0  0  0  0  0  0  0  0
  146.0795  133.2048  151.0610 N   0  0  0  0  0  0  0  0  0  0  0  0
  141.1364  138.3924  152.8100 C   0  0  0  0  0  0  0  0  0  0  0  0
  141.0622  140.7496  154.4756 H   0  0  0  0  0  0  0  0  0  0  0  0
  139.6396  141.7844  154.3821 H   0  0  0  0  0  0  0  0  0  0  0  0
  140.4547  141.2946  152.8991 H   0  0  0  0  0  0  0  0  0  0  0  0
  137.9380  137.4678  153.4725 H   0  0  0  0  0  0  0  0  0  0  0  0
  139.0122  136.9345  152.2120 H   0  0  0  0  0  0  0  0  0  0  0  0
  139.5130  136.6793  155.2249 H   0  0  0  0  0  0  0  0  0  0  0  0
  139.0945  135.3652  154.1518 H   0  0  0  0  0  0  0  0  0  0  0  0
  141.5700  135.4743  154.6577 H   0  0  0  0  0  0  0  0  0  0  0  0
  141.2087  135.5598  152.9506 H   0  0  0  0  0  0  0  0  0  0  0  0
  141.8634  137.9205  154.7784 H   0  0  0  0  0  0  0  0  0  0  0  0
  142.7260  136.0161  151.8870 H   0  0  0  0  0  0  0  0  0  0  0  0
  145.2888  135.2862  152.6313 H   0  0  0  0  0  0  0  0  0  0  0  0
  146.7715  136.7996  151.3626 H   0  0  0  0  0  0  0  0  0  0  0  0
  145.9112  137.6837  152.6165 H   0  0  0  0  0  0  0  0  0  0  0  0
  145.4024  137.8225  150.9346 H   0  0  0  0  0  0  0  0  0  0  0  0
  143.6879  135.2911  150.1438 H   0  0  0  0  0  0  0  0  0  0  0  0
  145.4007  135.4568  149.8297 H   0  0  0  0  0  0  0  0  0  0  0  0
  142.8598  132.9160  150.5407 H   0  0  0  0  0  0  0  0  0  0  0  0
  144.0852  130.5416  151.0923 H   0  0  0  0  0  0  0  0  0  0  0  0
  146.7335  131.2771  151.4505 H   0  0  0  0  0  0  0  0  0  0  0  0
  141.1083  137.9539  151.8109 H   0  0  0  0  0  0  0  0  0  0  0  0
  141.6868  139.3256  152.6952 H   0  0  0  0  0  0  0  0  0  0  0  0
  1  2  1  0  0  0  0
  1 21  1  0  0  0  0
  1 22  1  0  0  0  0
  1 23  1  0  0  0  0
  2  3  2  0  0  0  0
  2  4  1  0  0  0  0
  4 20  1  0  0  0  0
  4  5  1  0  0  0  0
  5  6  1  0  0  0  0
  5 24  1  0  0  0  0
  5 25  1  0  0  0  0
  6  7  1  0  0  0  0
  6 26  1  0  0  0  0
  6 27  1  0  0  0  0
  7  8  1  0  0  0  0
  7 28  1  0  0  0  0
  7 29  1  0  0  0  0
  8  9  1  0  0  0  0
  8 20  1  0  0  0  0
  8 30  1  0  0  0  0
  9 10  2  0  0  0  0
  9 11  1  0  0  0  0
 11 12  1  0  0  0  0
 11 31  1  0  0  0  0
 12 13  1  0  0  0  0
 12 14  1  0  0  0  0
 12 32  1  0  0  0  0
 13 33  1  0  0  0  0
 13 34  1  0  0  0  0
 13 35  1  0  0  0  0
 14 15  1  0  0  0  0
 14 36  1  0  0  0  0
 14 37  1  0  0  0  0
 15 19  1  0  0  0  0
 15 16  1  0  0  0  0
 16 17  2  0  0  0  0
 16 38  1  0  0  0  0
 17 18  1  0  0  0  0
 17 39  1  0  0  0  0
 18 19  2  0  0  0  0
 18 40  1  0  0  0  0
 20 41  1  0  0  0  0
 20 42  1  0  0  0  0
M  END
> <s_m_source_file>
AV-unprocessed.smi

> <i_m_source_file_index>
1796

> <i_lp_mmshare_version>
43012

> <i_f3d_flags>
0

> <s_epik_input>
W0NIM11DKD1PKU4xW0NIMl1bQ0gyXVtDSDJdW0NASF0oW0NIMl0xKUMoPU8pW05IXVtDQEhdKFtDSDNdKVtDSDJdbjJbY0hdW2NIXVtjSF1uMg==

> <s_epik_cmdline>
J2VwaWtfcHl0aG9uJywgJy1waCcsICc3LjAnLCAnLXRuJywgJzgnLCAnLW1hJywgJzIwMCcsICctbWV0YWxfYmluZGluZycsICctaW1hZScsICc8aW5maWxlLm1hZT4nLCAnLW9tYWUnLCAnPG91dGZpbGUubWFlPic=

> <r_lp_tautomer_probability>
1

> <r_epik_Ionization_Penalty>
0.000315051

> <r_epik_Ionization_Penalty_Charging>
0

> <r_epik_Ionization_Penalty_Neutral>
0.000315051

> <r_epik_State_Penalty>
-0

> <r_epik_Charging_Adjusted_Penalty>
0

> <i_epik_Tot_Q>
0

> <i_epik_Tot_abs_Q>
0

> <r_epik_Metal_State_Penalty>
-0

> <b_epik_Metal_Only>
0

> <s_lp_Force_Field>
OPLS_2005

> <r_lp_Energy>
23.171

> <b_lp_Chiralities_Consistent>
1

> <s_lp_Variant>
AV-unprocessed.smi:1796-1

> <Gold.Version>
5.8.1

> <Gold.Id.Protein>
6NUR|6NUR_protein|mol2

> <Gold.PLP.Fitness>
41.8174

> <Gold.PLP.PLP>
-38.2057

> <Gold.PLP.part.hbond>
-0.0069

> <Gold.PLP.part.metal>
0.0000

> <Gold.PLP.part.buried>
-1.7222

> <Gold.PLP.part.nonpolar>
-36.1356

> <Gold.PLP.part.repulsive>
0.3609

> <Gold.PLP.ligand.clash>
0.0000

> <Gold.PLP.ligand.torsion>
1.2109

> <Gold.PLP.Chemscore.Hbond>
0.0000

> <Gold.PLP.Chemscore.CHOScore>
2.0000

> <Gold.PLP.Chemscore.Metal>
0.0000

> <Gold.Chemscore.Hbonds>
donor molecule, donor type, donor heavy atom, donor atom, acceptor molecule, acceptor atom, score
      L1  C    16    38       P1 10186  0.87
      L1  C    18    40       P1 10747  0.91

> <Gold.PLP.Chemscore.Internal.Correction>
0.0334

> <Gold.Rescore>
     Score         DG    S(hbond)    S(metal)    S(lipo)     H(rot)  DE(clash)    DE(int)     intcor
      8.77     -11.08       0.00        0.00      83.63       1.63       0.10       2.22       ----

> <Gold.Chemscore.Fitness>
8.7706

> <Gold.Chemscore.DG>
-11.0830

> <Gold.Chemscore.ZeroCoef>
-5.4800

> <Gold.Chemscore.Hbond>
0.0000

> <Gold.Chemscore.Metal>
0.0000

> <Gold.Chemscore.Lipo>
83.6339

> <Gold.Chemscore.Internal_Hbond>
0.0000

> <Gold.Chemscore.DEClash>
0.0960

> <Gold.Chemscore.DEInternal>
2.2164

> <Gold.Chemscore.Rot>
1.6336

> <Gold.Chemscore.Internal.Correction>
   9.000000E+99

> <Gold.Chemscore.Hbond.Weighted>
-0.0000

> <Gold.Chemscore.Metal.Weighted>
-0.0000

> <Gold.Chemscore.Lipo.Weighted>
-9.7852

> <Gold.Chemscore.Internal_Hbond.Weighted>
0.0000

> <Gold.Chemscore.DEClash.Weighted>
0.0960

> <Gold.Chemscore.DEInternal.Weighted>
2.2164

> <Gold.Chemscore.Rot.Weighted>
4.1821

> <Gold.Chemscore.Internal.Correction.Weighted>
   9.000000E+99

> <Gold.Protein.RotatedTorsions>
[ 6907 6896 6895 6894 ] final    3.57 input  -60.11 | X-H torsion
[ 7974 7965 7964 7962 ] final   -2.08 input  175.53 | X-H torsion
[ 8008 7997 7996 7995 ] final  116.27 input   59.86 | X-H torsion
[ 10167 10162 10161 10158 ] final  -59.34 input  -65.29 | X-H torsion
[ 10718 10713 10712 10709 ] final -164.30 input   66.30 | X-H torsion
[ 10763 10752 10751 10750 ] final   70.20 input  -60.55 | X-H torsion
[ 11005 11000 10999 10996 ] final   14.03 input  -57.11 | X-H torsion

> <Gold.Protein.ActiveResidues>
 VAL166  LYS551  ARG553  GLY616  TRP617  ASP618  TYR619  PRO620  LYS621  CYS622 
 ASP623  PHE694  ASN695  SER759  ASP760  ASP761  ALA762  ILE779  LEU786  VAL792 
 PHE793  MET794  SER795  GLU796  ALA797  LYS798  CYS799  TRP800  GLU811  SER814 

> <Gold.Protein.RotatedAtoms>
  151.6272  135.1026  160.0113 H   0  0  0  0  0  0  0  0  0  0  0  0  # atno 6907 bound_to 6896
  152.4126  133.6983  159.6419 H   0  0  0  0  0  0  0  0  0  0  0  0  # atno 6908 bound_to 6896
  150.8015  133.8514  159.3247 H   0  0  0  0  0  0  0  0  0  0  0  0  # atno 6909 bound_to 6896
  146.2409  140.1518  142.8334 H   0  0  0  0  0  0  0  0  0  0  0  0  # atno 7974 bound_to 7965
  156.2429  140.2921  156.0497 H   0  0  0  0  0  0  0  0  0  0  0  0  # atno 8008 bound_to 7997
  155.1895  140.0406  157.2915 H   0  0  0  0  0  0  0  0  0  0  0  0  # atno 8009 bound_to 7997
  154.6204  140.2474  155.7563 H   0  0  0  0  0  0  0  0  0  0  0  0  # atno 8010 bound_to 7997
  140.6141  143.2396  151.5639 H   0  0  0  0  0  0  0  0  0  0  0  0  # atno 10167 bound_to 10162
  156.6371  130.8953  151.2989 H   0  0  0  0  0  0  0  0  0  0  0  0  # atno 10718 bound_to 10713
  153.0328  135.5183  154.7404 H   0  0  0  0  0  0  0  0  0  0  0  0  # atno 10763 bound_to 10752
  154.6405  135.2912  155.0111 H   0  0  0  0  0  0  0  0  0  0  0  0  # atno 10764 bound_to 10752
  154.1030  135.6633  153.4924 H   0  0  0  0  0  0  0  0  0  0  0  0  # atno 10765 bound_to 10752
  140.4741  134.1001  155.7738 H   0  0  0  0  0  0  0  0  0  0  0  0  # atno 11005 bound_to 11000
  145.0161  140.8755  143.5194 LP  0  0  0  0  0  0  0  0  0  0  0  0  # atno 17320 bound_to 7965
  145.1559  139.2487  143.5417 LP  0  0  0  0  0  0  0  0  0  0  0  0  # atno 17321 bound_to 7965
  139.5384  144.2715  152.1300 LP  0  0  0  0  0  0  0  0  0  0  0  0  # atno 17342 bound_to 10162
  140.1921  144.4742  150.6474 LP  0  0  0  0  0  0  0  0  0  0  0  0  # atno 17343 bound_to 10162
  157.7182  130.9524  150.1336 LP  0  0  0  0  0  0  0  0  0  0  0  0  # atno 17370 bound_to 10713
  156.2188  130.3672  149.8581 LP  0  0  0  0  0  0  0  0  0  0  0  0  # atno 17371 bound_to 10713
  141.1563  133.8877  157.1969 LP  0  0  0  0  0  0  0  0  0  0  0  0  # atno 17394 bound_to 11000
  139.9866  135.0079  156.9878 LP  0  0  0  0  0  0  0  0  0  0  0  0  # atno 17395 bound_to 11000

$$$$
