AV-unprocessed.smi:1335|AV-procd|sdf|5494|dock3
  -GOLD-   22720 5 73D 1   1.00000     0.00000
 Structure written by MMmdl.
 47 49  0  0  0  0  0  0  0  0  1 V2000
  154.8581  132.0391  160.4480 C   0  0  0  0  0  0  0  0  0  0  0  0
  154.8988  133.2568  161.1780 O   0  0  0  0  0  0  0  0  0  0  0  0
  154.5708  133.2312  162.5187 C   0  0  0  0  0  0  0  0  0  0  0  0
  154.2065  132.0460  163.2086 C   0  0  0  0  0  0  0  0  0  0  0  0
  153.8935  132.0804  164.5806 C   0  0  0  0  0  0  0  0  0  0  0  0
  153.9452  133.2955  165.2844 C   0  0  0  0  0  0  0  0  0  0  0  0
  154.3045  134.4771  164.6127 C   0  0  0  0  0  0  0  0  0  0  0  0
  154.6049  134.4550  163.2329 C   0  0  0  0  0  0  0  0  0  0  0  0
  155.0005  135.7495  162.5375 C   0  0  0  0  0  0  0  0  0  0  0  0
  154.0084  136.7534  162.6777 O   0  0  0  0  0  0  0  0  0  0  0  0
  154.5170  138.0685  162.5267 C   0  0  0  0  0  0  0  0  0  0  0  0
  153.9110  138.6841  161.2567 C   0  0  2  0  0  0  0  0  0  0  0  0
  154.2262  137.8274  160.1782 O   0  0  0  0  0  0  0  0  0  0  0  0
  154.4762  140.0885  160.9582 C   0  0  0  0  0  0  0  0  0  0  0  0
  153.5505  140.8735  160.1459 N   0  0  0  0  0  0  0  0  0  0  0  0
  153.0564  140.5374  158.9312 C   0  0  0  0  0  0  0  0  0  0  0  0
  153.3241  139.5150  158.3003 O   0  0  0  0  0  0  0  0  0  0  0  0
  152.2101  141.5186  158.5383 N   0  0  0  0  0  0  0  0  0  0  0  0
  151.4425  141.5721  157.3002 C   0  0  0  0  0  0  0  0  0  0  0  0
  152.1486  142.5001  159.5359 C   0  0  0  0  0  0  0  0  0  0  0  0
  151.4135  143.6956  159.6113 C   0  0  0  0  0  0  0  0  0  0  0  0
  151.5702  144.4771  160.7803 C   0  0  0  0  0  0  0  0  0  0  0  0
  152.4347  144.0579  161.8251 C   0  0  0  0  0  0  0  0  0  0  0  0
  153.1620  142.8488  161.7226 C   0  0  0  0  0  0  0  0  0  0  0  0
  152.9904  142.0940  160.5491 C   0  0  0  0  0  0  0  0  0  0  0  0
  155.1329  132.2329  159.4111 H   0  0  0  0  0  0  0  0  0  0  0  0
  153.8565  131.6069  160.4471 H   0  0  0  0  0  0  0  0  0  0  0  0
  155.5668  131.3114  160.8455 H   0  0  0  0  0  0  0  0  0  0  0  0
  154.1615  131.0911  162.7079 H   0  0  0  0  0  0  0  0  0  0  0  0
  153.6185  131.1709  165.0942 H   0  0  0  0  0  0  0  0  0  0  0  0
  153.7121  133.3214  166.3388 H   0  0  0  0  0  0  0  0  0  0  0  0
  154.3491  135.4035  165.1659 H   0  0  0  0  0  0  0  0  0  0  0  0
  155.9435  136.0932  162.9652 H   0  0  0  0  0  0  0  0  0  0  0  0
  155.1687  135.5716  161.4746 H   0  0  0  0  0  0  0  0  0  0  0  0
  154.2789  138.6750  163.4023 H   0  0  0  0  0  0  0  0  0  0  0  0
  155.6042  138.0260  162.4403 H   0  0  0  0  0  0  0  0  0  0  0  0
  152.8261  138.7156  161.3677 H   0  0  0  0  0  0  0  0  0  0  0  0
  154.9293  137.2548  160.4444 H   0  0  0  0  0  0  0  0  0  0  0  0
  154.6310  140.6366  161.8881 H   0  0  0  0  0  0  0  0  0  0  0  0
  155.4613  140.0303  160.4917 H   0  0  0  0  0  0  0  0  0  0  0  0
  151.5903  142.5313  156.8034 H   0  0  0  0  0  0  0  0  0  0  0  0
  150.3795  141.4573  157.5133 H   0  0  0  0  0  0  0  0  0  0  0  0
  151.7350  140.7859  156.6030 H   0  0  0  0  0  0  0  0  0  0  0  0
  150.7552  144.0058  158.8134 H   0  0  0  0  0  0  0  0  0  0  0  0
  151.0237  145.4033  160.8794 H   0  0  0  0  0  0  0  0  0  0  0  0
  152.5386  144.6684  162.7099 H   0  0  0  0  0  0  0  0  0  0  0  0
  153.8180  142.5221  162.5153 H   0  0  0  0  0  0  0  0  0  0  0  0
  1  2  1  0  0  0  0
  1 26  1  0  0  0  0
  1 27  1  0  0  0  0
  1 28  1  0  0  0  0
  2  3  1  0  0  0  0
  3  8  1  0  0  0  0
  3  4  2  0  0  0  0
  4  5  1  0  0  0  0
  4 29  1  0  0  0  0
  5  6  2  0  0  0  0
  5 30  1  0  0  0  0
  6  7  1  0  0  0  0
  6 31  1  0  0  0  0
  7  8  2  0  0  0  0
  7 32  1  0  0  0  0
  8  9  1  0  0  0  0
  9 10  1  0  0  0  0
  9 33  1  0  0  0  0
  9 34  1  0  0  0  0
 10 11  1  0  0  0  0
 11 12  1  0  0  0  0
 11 35  1  0  0  0  0
 11 36  1  0  0  0  0
 12 13  1  0  0  0  0
 12 14  1  0  0  0  0
 12 37  1  0  0  0  0
 13 38  1  0  0  0  0
 14 15  1  0  0  0  0
 14 39  1  0  0  0  0
 14 40  1  0  0  0  0
 15 25  1  0  0  0  0
 15 16  1  0  0  0  0
 16 17  2  0  0  0  0
 16 18  1  0  0  0  0
 18 19  1  0  0  0  0
 18 20  1  0  0  0  0
 19 41  1  0  0  0  0
 19 42  1  0  0  0  0
 19 43  1  0  0  0  0
 20 25  2  0  0  0  0
 20 21  1  0  0  0  0
 21 22  2  0  0  0  0
 21 44  1  0  0  0  0
 22 23  1  0  0  0  0
 22 45  1  0  0  0  0
 23 24  2  0  0  0  0
 23 46  1  0  0  0  0
 24 25  1  0  0  0  0
 24 47  1  0  0  0  0
M  END
> <s_m_source_file>
AV-unprocessed.smi

> <i_m_source_file_index>
1335

> <i_lp_mmshare_version>
43012

> <i_f3d_flags>
0

> <s_epik_input>
W0NIM11PYzFbY0hdW2NIXVtjSF1bY0hdYzFbQ0gyXU9bQ0gyXVtDQEhdKFtPSF0pW0NIMl1uKGMoPU8pbjJbQ0gzXSljKGMyMylbY0hdW2NIXVtjSF1bY0hdMw==

> <s_epik_cmdline>
J2VwaWtfcHl0aG9uJywgJy1waCcsICc3LjAnLCAnLXRuJywgJzgnLCAnLW1hJywgJzIwMCcsICctbWV0YWxfYmluZGluZycsICctaW1hZScsICc8aW5maWxlLm1hZT4nLCAnLW9tYWUnLCAnPG91dGZpbGUubWFlPic=

> <r_lp_tautomer_probability>
1

> <r_epik_Ionization_Penalty>
1.07897e-06

> <r_epik_Ionization_Penalty_Charging>
2.2947e-09

> <r_epik_Ionization_Penalty_Neutral>
1.07667e-06

> <r_epik_State_Penalty>
-0

> <r_epik_Charging_Adjusted_Penalty>
2.2947e-09

> <i_epik_Tot_Q>
0

> <i_epik_Tot_abs_Q>
0

> <r_epik_Metal_State_Penalty>
-0

> <b_epik_Metal_Only>
0

> <s_lp_Force_Field>
OPLS_2005

> <r_lp_Energy>
50.1795

> <b_lp_Chiralities_Consistent>
1

> <s_lp_Variant>
AV-unprocessed.smi:1335-1

> <Gold.Version>
5.8.1

> <Gold.Id.Protein>
6NUR|6NUR_protein|mol2

> <Gold.PLP.Fitness>
53.3223

> <Gold.PLP.PLP>
-51.7309

> <Gold.PLP.part.hbond>
-1.0000

> <Gold.PLP.part.metal>
0.0000

> <Gold.PLP.part.buried>
-6.0062

> <Gold.PLP.part.nonpolar>
-43.3131

> <Gold.PLP.part.repulsive>
0.0000

> <Gold.PLP.ligand.clash>
0.0000

> <Gold.PLP.ligand.torsion>
0.7806

> <Gold.PLP.Chemscore.Hbond>
1.0000

> <Gold.PLP.Chemscore.CHOScore>
0.0000

> <Gold.PLP.Chemscore.Metal>
0.0000

> <Gold.Chemscore.Hbonds>
donor molecule, donor type, donor heavy atom, donor atom, acceptor molecule, acceptor atom, score
      P1  H  7997  8009       L1    17  1.00

> <Gold.PLP.Chemscore.Internal.Correction>
0.1527

> <Gold.Rescore>
     Score         DG    S(hbond)    S(metal)    S(lipo)     H(rot)  DE(clash)    DE(int)     intcor
     17.43     -19.80       0.94        0.00     150.46       2.50       0.11       2.26       ----

> <Gold.Chemscore.Fitness>
17.4305

> <Gold.Chemscore.DG>
-19.7996

> <Gold.Chemscore.ZeroCoef>
-5.4800

> <Gold.Chemscore.Hbond>
0.9357

> <Gold.Chemscore.Metal>
0.0000

> <Gold.Chemscore.Lipo>
150.4633

> <Gold.Chemscore.Internal_Hbond>
0.0000

> <Gold.Chemscore.DEClash>
0.1099

> <Gold.Chemscore.DEInternal>
2.2592

> <Gold.Chemscore.Rot>
2.5038

> <Gold.Chemscore.Internal.Correction>
   9.000000E+99

> <Gold.Chemscore.Hbonds>
donor molecule, donor type, donor heavy atom, donor atom, acceptor molecule, acceptor atom, score
      P1  H  7997  8009       L1    17  0.45

> <Gold.Chemscore.Hbond.Weighted>
-3.1251

> <Gold.Chemscore.Metal.Weighted>
-0.0000

> <Gold.Chemscore.Lipo.Weighted>
-17.6042

> <Gold.Chemscore.Internal_Hbond.Weighted>
0.0000

> <Gold.Chemscore.DEClash.Weighted>
0.1099

> <Gold.Chemscore.DEInternal.Weighted>
2.2592

> <Gold.Chemscore.Rot.Weighted>
6.4098

> <Gold.Chemscore.Internal.Correction.Weighted>
   9.000000E+99

> <Gold.Protein.RotatedTorsions>
[ 6907 6896 6895 6894 ] final  163.12 input  -60.11 | X-H torsion
[ 7974 7965 7964 7962 ] final   59.51 input  175.53 | X-H torsion
[ 8008 7997 7996 7995 ] final  141.45 input   59.86 | X-H torsion
[ 10167 10162 10161 10158 ] final  137.90 input  -65.29 | X-H torsion
[ 10718 10713 10712 10709 ] final  -90.76 input   66.30 | X-H torsion
[ 10763 10752 10751 10750 ] final -153.85 input  -60.55 | X-H torsion
[ 11005 11000 10999 10996 ] final -133.31 input  -57.11 | X-H torsion

> <Gold.Protein.ActiveResidues>
 VAL166  LYS551  ARG553  GLY616  TRP617  ASP618  TYR619  PRO620  LYS621  CYS622 
 ASP623  PHE694  ASN695  SER759  ASP760  ASP761  ALA762  ILE779  LEU786  VAL792 
 PHE793  MET794  SER795  GLU796  ALA797  LYS798  CYS799  TRP800  GLU811  SER814 

> <Gold.Protein.RotatedAtoms>
  151.9300  133.3608  159.3927 H   0  0  0  0  0  0  0  0  0  0  0  0  # atno 6907 bound_to 6896
  150.7019  134.4547  159.5362 H   0  0  0  0  0  0  0  0  0  0  0  0  # atno 6908 bound_to 6896
  152.2186  134.8434  160.0539 H   0  0  0  0  0  0  0  0  0  0  0  0  # atno 6909 bound_to 6896
  145.9063  139.3620  143.0562 H   0  0  0  0  0  0  0  0  0  0  0  0  # atno 7974 bound_to 7965
  156.2965  140.2315  156.4567 H   0  0  0  0  0  0  0  0  0  0  0  0  # atno 8008 bound_to 7997
  154.8054  140.0446  157.1324 H   0  0  0  0  0  0  0  0  0  0  0  0  # atno 8009 bound_to 7997
  154.9485  140.3039  155.5090 H   0  0  0  0  0  0  0  0  0  0  0  0  # atno 8010 bound_to 7997
  139.5128  144.6384  151.5636 H   0  0  0  0  0  0  0  0  0  0  0  0  # atno 10167 bound_to 10162
  155.9989  130.4922  150.5372 H   0  0  0  0  0  0  0  0  0  0  0  0  # atno 10718 bound_to 10713
  154.7899  135.3203  154.7801 H   0  0  0  0  0  0  0  0  0  0  0  0  # atno 10763 bound_to 10752
  153.8492  135.6864  153.4798 H   0  0  0  0  0  0  0  0  0  0  0  0  # atno 10764 bound_to 10752
  153.1565  135.4678  154.9652 H   0  0  0  0  0  0  0  0  0  0  0  0  # atno 10765 bound_to 10752
  140.9092  134.1590  157.4402 H   0  0  0  0  0  0  0  0  0  0  0  0  # atno 11005 bound_to 11000
  145.8728  140.9410  143.0642 LP  0  0  0  0  0  0  0  0  0  0  0  0  # atno 17320 bound_to 7965
  144.6739  140.0676  143.7474 LP  0  0  0  0  0  0  0  0  0  0  0  0  # atno 17321 bound_to 7965
  140.6141  143.9381  150.6475 LP  0  0  0  0  0  0  0  0  0  0  0  0  # atno 17342 bound_to 10162
  140.2634  143.3508  152.1303 LP  0  0  0  0  0  0  0  0  0  0  0  0  # atno 17343 bound_to 10162
  157.3313  131.0700  151.1859 LP  0  0  0  0  0  0  0  0  0  0  0  0  # atno 17370 bound_to 10713
  157.2738  130.6717  149.6032 LP  0  0  0  0  0  0  0  0  0  0  0  0  # atno 17371 bound_to 10713
  139.8754  134.9929  156.5618 LP  0  0  0  0  0  0  0  0  0  0  0  0  # atno 17394 bound_to 11000
  140.8132  133.8412  155.8829 LP  0  0  0  0  0  0  0  0  0  0  0  0  # atno 17395 bound_to 11000

$$$$
