AV-unprocessed.smi:2959|AV-procd|sdf|11310|dock6
  -GOLD-   2272016213D 1   1.00000     0.00000
 Structure written by MMmdl.
 46 48  0  0  0  0  0  0  0  0  2 V2000
  148.3441  135.9624  158.2442 C   0  0  0  0  0  0  0  0  0  0  0  0
  149.4378  135.5106  157.2825 C   0  0  0  0  0  0  0  0  0  0  0  0
  150.0843  134.4900  157.5156 O   0  0  0  0  0  0  0  0  0  0  0  0
  149.6349  136.2800  156.2029 N   0  0  0  0  0  0  0  0  0  0  0  0
  150.6260  136.0058  155.1718 C   0  0  0  0  0  0  0  0  0  0  0  0
  151.2867  137.3060  154.6962 C   0  0  0  0  0  0  0  0  0  0  0  0
  150.2731  138.3749  154.4441 C   0  0  0  0  0  0  0  0  0  0  0  0
  149.1569  138.2504  153.6715 N   0  3  0  0  0  0  0  0  0  0  0  0
  148.4462  139.4516  153.6703 C   0  0  0  0  0  0  0  0  0  0  0  0
  147.2628  139.8105  153.0322 C   0  0  0  0  0  0  0  0  0  0  0  0
  146.8064  141.1288  153.2401 C   0  0  0  0  0  0  0  0  0  0  0  0
  147.5190  142.0329  154.0546 C   0  0  0  0  0  0  0  0  0  0  0  0
  148.7178  141.6574  154.6963 C   0  0  0  0  0  0  0  0  0  0  0  0
  149.1607  140.3519  154.4867 C   0  0  0  0  0  0  0  0  0  0  0  0
  150.2762  139.6439  154.9461 N   0  0  0  0  0  0  0  0  0  0  0  0
  151.2401  140.3187  155.8276 C   0  0  0  0  0  0  0  0  0  0  0  0
  150.6025  140.7563  157.1537 C   0  0  0  0  0  0  0  0  0  0  0  0
  151.6309  140.9644  158.1127 O   0  0  0  0  0  0  0  0  0  0  0  0
  151.8445  142.2425  158.5796 C   0  0  0  0  0  0  0  0  0  0  0  0
  151.5304  143.3018  157.7034 C   0  0  0  0  0  0  0  0  0  0  0  0
  151.7152  144.6411  158.0968 C   0  0  0  0  0  0  0  0  0  0  0  0
  152.2200  144.9346  159.3768 C   0  0  0  0  0  0  0  0  0  0  0  0
  152.5388  143.8871  160.2608 C   0  0  0  0  0  0  0  0  0  0  0  0
  152.3536  142.5472  159.8675 C   0  0  0  0  0  0  0  0  0  0  0  0
  148.5585  136.9618  158.6237 H   0  0  0  0  0  0  0  0  0  0  0  0
  148.2706  135.2833  159.0941 H   0  0  0  0  0  0  0  0  0  0  0  0
  147.3777  135.9833  157.7397 H   0  0  0  0  0  0  0  0  0  0  0  0
  149.0574  137.1000  156.0855 H   0  0  0  0  0  0  0  0  0  0  0  0
  151.3820  135.3237  155.5644 H   0  0  0  0  0  0  0  0  0  0  0  0
  150.1399  135.5012  154.3354 H   0  0  0  0  0  0  0  0  0  0  0  0
  152.0031  137.6604  155.4381 H   0  0  0  0  0  0  0  0  0  0  0  0
  151.8500  137.1289  153.7791 H   0  0  0  0  0  0  0  0  0  0  0  0
  146.7156  139.1206  152.4066 H   0  0  0  0  0  0  0  0  0  0  0  0
  145.8922  141.4536  152.7644 H   0  0  0  0  0  0  0  0  0  0  0  0
  147.1388  143.0352  154.1900 H   0  0  0  0  0  0  0  0  0  0  0  0
  149.2575  142.3577  155.3165 H   0  0  0  0  0  0  0  0  0  0  0  0
  152.0907  139.6579  155.9973 H   0  0  0  0  0  0  0  0  0  0  0  0
  151.6271  141.1884  155.2961 H   0  0  0  0  0  0  0  0  0  0  0  0
  150.0352  141.6760  157.0024 H   0  0  0  0  0  0  0  0  0  0  0  0
  149.9118  139.9858  157.4991 H   0  0  0  0  0  0  0  0  0  0  0  0
  151.1426  143.0851  156.7188 H   0  0  0  0  0  0  0  0  0  0  0  0
  151.4698  145.4430  157.4162 H   0  0  0  0  0  0  0  0  0  0  0  0
  152.3623  145.9614  159.6800 H   0  0  0  0  0  0  0  0  0  0  0  0
  152.9273  144.1114  161.2433 H   0  0  0  0  0  0  0  0  0  0  0  0
  152.6114  141.7710  160.5716 H   0  0  0  0  0  0  0  0  0  0  0  0
  148.9042  137.4041  153.1776 H   0  0  0  0  0  0  0  0  0  0  0  0
  1  2  1  0  0  0  0
  1 25  1  0  0  0  0
  1 26  1  0  0  0  0
  1 27  1  0  0  0  0
  2  3  2  0  0  0  0
  2  4  1  0  0  0  0
  4  5  1  0  0  0  0
  4 28  1  0  0  0  0
  5  6  1  0  0  0  0
  5 29  1  0  0  0  0
  5 30  1  0  0  0  0
  6  7  1  0  0  0  0
  6 31  1  0  0  0  0
  6 32  1  0  0  0  0
  7 15  1  0  0  0  0
  7  8  2  0  0  0  0
  8  9  1  0  0  0  0
  8 46  1  0  0  0  0
  9 14  2  0  0  0  0
  9 10  1  0  0  0  0
 10 11  2  0  0  0  0
 10 33  1  0  0  0  0
 11 12  1  0  0  0  0
 11 34  1  0  0  0  0
 12 13  2  0  0  0  0
 12 35  1  0  0  0  0
 13 14  1  0  0  0  0
 13 36  1  0  0  0  0
 14 15  1  0  0  0  0
 15 16  1  0  0  0  0
 16 17  1  0  0  0  0
 16 37  1  0  0  0  0
 16 38  1  0  0  0  0
 17 18  1  0  0  0  0
 17 39  1  0  0  0  0
 17 40  1  0  0  0  0
 18 19  1  0  0  0  0
 19 24  1  0  0  0  0
 19 20  2  0  0  0  0
 20 21  1  0  0  0  0
 20 41  1  0  0  0  0
 21 22  2  0  0  0  0
 21 42  1  0  0  0  0
 22 23  1  0  0  0  0
 22 43  1  0  0  0  0
 23 24  2  0  0  0  0
 23 44  1  0  0  0  0
 24 45  1  0  0  0  0
M  CHG  1   8   1
M  END
> <s_m_source_file>
AV-unprocessed.smi

> <i_m_source_file_index>
2959

> <i_lp_mmshare_version>
43012

> <i_f3d_flags>
0

> <s_epik_input>
W0NIM11DKD1PKVtOSF1bQ0gyXVtDSDJdYyhuMSluKGMoYzEyKVtjSF1bY0hdW2NIXVtjSF0yKVtDSDJdW0NIMl1PYzNbY0hdW2NIXVtjSF1bY0hdW2NIXTM=

> <s_epik_cmdline>
J2VwaWtfcHl0aG9uJywgJy1waCcsICc3LjAnLCAnLXRuJywgJzgnLCAnLW1hJywgJzIwMCcsICctbWV0YWxfYmluZGluZycsICctaW1hZScsICc8aW5maWxlLm1hZT4nLCAnLW9tYWUnLCAnPG91dGZpbGUubWFlPic=

> <r_lp_tautomer_probability>
1

> <r_epik_Ionization_Penalty>
1.04698

> <r_epik_Ionization_Penalty_Charging>
1.04698

> <r_epik_Ionization_Penalty_Neutral>
3.05925e-07

> <r_epik_State_Penalty>
1.0995

> <r_epik_Charging_Adjusted_Penalty>
2.14648

> <i_epik_Tot_Q>
1

> <i_epik_Tot_abs_Q>
1

> <r_epik_Metal_State_Penalty>
1.19436

> <b_epik_Metal_Only>
0

> <s_lp_Force_Field>
OPLS_2005

> <r_lp_Energy>
17.9669

> <b_lp_Chiralities_Consistent>
1

> <s_lp_Variant>
AV-unprocessed.smi:2959-2

> <Gold.Version>
5.8.1

> <Gold.Id.Protein>
6NUR|6NUR_protein|mol2

> <Gold.PLP.Fitness>
58.4783

> <Gold.PLP.PLP>
-52.1282

> <Gold.PLP.part.hbond>
-2.7640

> <Gold.PLP.part.metal>
0.0000

> <Gold.PLP.part.buried>
-1.9627

> <Gold.PLP.part.nonpolar>
-47.9113

> <Gold.PLP.part.repulsive>
0.0735

> <Gold.PLP.ligand.clash>
0.0000

> <Gold.PLP.ligand.torsion>
1.0982

> <Gold.PLP.Chemscore.Hbond>
2.8160

> <Gold.PLP.Chemscore.CHOScore>
0.0000

> <Gold.PLP.Chemscore.Metal>
0.0000

> <Gold.Chemscore.Hbonds>
donor molecule, donor type, donor heavy atom, donor atom, acceptor molecule, acceptor atom, score
      L1  H     8    46       P1  7948  2.00
      P1  H  6896  6908       L1     3  0.83

> <Gold.PLP.Chemscore.Internal.Correction>
0.0985

> <Gold.Rescore>
     Score         DG    S(hbond)    S(metal)    S(lipo)     H(rot)  DE(clash)    DE(int)     intcor
     20.20     -22.29       1.81        0.00     140.40       2.21       0.93       1.16       ----

> <Gold.Chemscore.Fitness>
20.2033

> <Gold.Chemscore.DG>
-22.2905

> <Gold.Chemscore.ZeroCoef>
-5.4800

> <Gold.Chemscore.Hbond>
1.8082

> <Gold.Chemscore.Metal>
0.0000

> <Gold.Chemscore.Lipo>
140.4016

> <Gold.Chemscore.Internal_Hbond>
0.0000

> <Gold.Chemscore.DEClash>
0.9262

> <Gold.Chemscore.DEInternal>
1.1610

> <Gold.Chemscore.Rot>
2.2093

> <Gold.Chemscore.Internal.Correction>
   9.000000E+99

> <Gold.Chemscore.Hbonds>
donor molecule, donor type, donor heavy atom, donor atom, acceptor molecule, acceptor atom, score
      L1  H     8    46       P1  7948  0.98
      P1  H  6896  6908       L1     3  0.79

> <Gold.Chemscore.Hbond.Weighted>
-6.0395

> <Gold.Chemscore.Metal.Weighted>
-0.0000

> <Gold.Chemscore.Lipo.Weighted>
-16.4270

> <Gold.Chemscore.Internal_Hbond.Weighted>
0.0000

> <Gold.Chemscore.DEClash.Weighted>
0.9262

> <Gold.Chemscore.DEInternal.Weighted>
1.1610

> <Gold.Chemscore.Rot.Weighted>
5.6559

> <Gold.Chemscore.Internal.Correction.Weighted>
   9.000000E+99

> <Gold.Protein.RotatedTorsions>
[ 6907 6896 6895 6894 ] final  138.05 input  -60.11 | X-H torsion
[ 7974 7965 7964 7962 ] final  -13.95 input  175.53 | X-H torsion
[ 8008 7997 7996 7995 ] final -166.81 input   59.86 | X-H torsion
[ 10167 10162 10161 10158 ] final   85.30 input  -65.29 | X-H torsion
[ 10718 10713 10712 10709 ] final  177.49 input   66.30 | X-H torsion
[ 10763 10752 10751 10750 ] final  -19.35 input  -60.55 | X-H torsion
[ 11005 11000 10999 10996 ] final  -11.98 input  -57.11 | X-H torsion

> <Gold.Protein.ActiveResidues>
 VAL166  LYS551  ARG553  GLY616  TRP617  ASP618  TYR619  PRO620  LYS621  CYS622 
 ASP623  PHE694  ASN695  SER759  ASP760  ASP761  ALA762  ILE779  LEU786  VAL792 
 PHE793  MET794  SER795  GLU796  ALA797  LYS798  CYS799  TRP800  GLU811  SER814 

> <Gold.Protein.RotatedAtoms>
  152.2711  133.5383  159.5439 H   0  0  0  0  0  0  0  0  0  0  0  0  # atno 6907 bound_to 6896
  150.7159  134.0696  159.3869 H   0  0  0  0  0  0  0  0  0  0  0  0  # atno 6908 bound_to 6896
  151.8611  135.0524  160.0520 H   0  0  0  0  0  0  0  0  0  0  0  0  # atno 6909 bound_to 6896
  146.2094  140.3277  142.8396 H   0  0  0  0  0  0  0  0  0  0  0  0  # atno 7974 bound_to 7965
  155.8690  140.0990  157.1563 H   0  0  0  0  0  0  0  0  0  0  0  0  # atno 8008 bound_to 7997
  154.3995  140.1350  156.4117 H   0  0  0  0  0  0  0  0  0  0  0  0  # atno 8009 bound_to 7997
  155.7772  140.3459  155.5280 H   0  0  0  0  0  0  0  0  0  0  0  0  # atno 8010 bound_to 7997
  139.8991  144.6340  150.8656 H   0  0  0  0  0  0  0  0  0  0  0  0  # atno 10167 bound_to 10162
  156.9046  130.9890  151.3030 H   0  0  0  0  0  0  0  0  0  0  0  0  # atno 10718 bound_to 10713
  153.6034  135.6998  153.5375 H   0  0  0  0  0  0  0  0  0  0  0  0  # atno 10763 bound_to 10752
  153.3077  135.4110  155.1308 H   0  0  0  0  0  0  0  0  0  0  0  0  # atno 10764 bound_to 10752
  154.8578  135.3664  154.5571 H   0  0  0  0  0  0  0  0  0  0  0  0  # atno 10765 bound_to 10752
  140.7609  133.8516  155.9124 H   0  0  0  0  0  0  0  0  0  0  0  0  # atno 11005 bound_to 11000
  144.8874  140.7480  143.5948 LP  0  0  0  0  0  0  0  0  0  0  0  0  # atno 17320 bound_to 7965
  145.3199  139.1792  143.4593 LP  0  0  0  0  0  0  0  0  0  0  0  0  # atno 17321 bound_to 7965
  140.7710  143.3450  151.2129 LP  0  0  0  0  0  0  0  0  0  0  0  0  # atno 17342 bound_to 10162
  139.7041  143.9484  152.2919 LP  0  0  0  0  0  0  0  0  0  0  0  0  # atno 17343 bound_to 10162
  157.6005  130.8509  149.8795 LP  0  0  0  0  0  0  0  0  0  0  0  0  # atno 17370 bound_to 10713
  156.0565  130.3707  150.1078 LP  0  0  0  0  0  0  0  0  0  0  0  0  # atno 17371 bound_to 10713
  140.9664  134.1589  157.4612 LP  0  0  0  0  0  0  0  0  0  0  0  0  # atno 17394 bound_to 11000
  139.8771  134.9963  156.5788 LP  0  0  0  0  0  0  0  0  0  0  0  0  # atno 17395 bound_to 11000

$$$$
