AV-unprocessed.smi:37|AV-procd|sdf|330|dock4
  -GOLD-   2262016163D 1   1.00000     0.00000
 Structure written by MMmdl.
 43 44  0  0  0  0  0  0  0  0  2 V2000
  144.8990  134.0731  150.8325 C   0  0  0  0  0  0  0  0  0  0  0  0
  145.3168  135.5463  150.7297 C   0  0  0  0  0  0  0  0  0  0  0  0
  144.8618  136.3586  151.9397 C   0  0  0  0  0  0  0  0  0  0  0  0
  143.6742  136.4310  152.2560 O   0  0  0  0  0  0  0  0  0  0  0  0
  145.8827  136.9533  152.5733 O   0  0  0  0  0  0  0  0  0  0  0  0
  145.6288  137.8153  153.6689 C   0  0  0  0  0  0  0  0  0  0  0  0
  146.9458  138.2682  154.3147 C   0  0  1  0  0  0  0  0  0  0  0  0
  147.5391  139.3113  153.5384 O   0  0  0  0  0  0  0  0  0  0  0  0
  148.1267  140.2617  154.3771 C   0  0  2  0  0  0  0  0  0  0  0  0
  149.5711  139.8845  154.6797 N   0  0  0  0  0  0  0  0  0  0  0  0
  150.1662  138.7632  154.1204 C   0  0  0  0  0  0  0  0  0  0  0  0
  151.4469  138.4379  154.3894 C   0  0  0  0  0  0  0  0  0  0  0  0
  151.9898  137.3413  153.8333 F   0  0  0  0  0  0  0  0  0  0  0  0
  152.2372  139.2870  155.2769 C   0  0  0  0  0  0  0  0  0  0  0  0
  153.3925  138.9654  155.5497 O   0  0  0  0  0  0  0  0  0  0  0  0
  151.6497  140.4166  155.7650 N   0  5  0  0  0  0  0  0  0  0  0  0
  150.3595  140.7589  155.4802 C   0  0  0  0  0  0  0  0  0  0  0  0
  149.8411  141.8010  155.8808 O   0  0  0  0  0  0  0  0  0  0  0  0
  147.2637  140.2545  155.6477 C   0  0  1  0  0  0  0  0  0  0  0  0
  145.6785  141.4287  155.3742 Br  0  0  0  0  0  0  0  0  0  0  0  0
  146.8166  138.7997  155.7530 C   0  0  2  0  0  0  0  0  0  0  0  0
  147.7191  138.0739  156.5808 O   0  0  0  0  0  0  0  0  0  0  0  0
  147.7875  138.3190  157.9017 C   0  0  0  0  0  0  0  0  0  0  0  0
  147.0613  139.0875  158.5321 O   0  0  0  0  0  0  0  0  0  0  0  0
  148.8995  137.5301  158.5888 C   0  0  0  0  0  0  0  0  0  0  0  0
  148.3535  136.5623  159.6487 C   0  0  0  0  0  0  0  0  0  0  0  0
  145.2300  133.5191  149.9542 H   0  0  0  0  0  0  0  0  0  0  0  0
  143.8152  133.9721  150.8981 H   0  0  0  0  0  0  0  0  0  0  0  0
  145.3351  133.5916  151.7086 H   0  0  0  0  0  0  0  0  0  0  0  0
  146.4012  135.6210  150.6449 H   0  0  0  0  0  0  0  0  0  0  0  0
  144.8972  135.9896  149.8263 H   0  0  0  0  0  0  0  0  0  0  0  0
  145.0693  138.6846  153.3207 H   0  0  0  0  0  0  0  0  0  0  0  0
  145.0104  137.3047  154.4084 H   0  0  0  0  0  0  0  0  0  0  0  0
  147.6202  137.4115  154.3010 H   0  0  0  0  0  0  0  0  0  0  0  0
  148.1954  141.2338  153.8862 H   0  0  0  0  0  0  0  0  0  0  0  0
  149.6179  138.1271  153.4442 H   0  0  0  0  0  0  0  0  0  0  0  0
  147.7860  140.6224  156.5299 H   0  0  0  0  0  0  0  0  0  0  0  0
  145.7986  138.7104  156.1355 H   0  0  0  0  0  0  0  0  0  0  0  0
  149.4494  136.9720  157.8305 H   0  0  0  0  0  0  0  0  0  0  0  0
  149.6040  138.2271  159.0427 H   0  0  0  0  0  0  0  0  0  0  0  0
  149.1510  135.9331  160.0429 H   0  0  0  0  0  0  0  0  0  0  0  0
  147.5875  135.9050  159.2349 H   0  0  0  0  0  0  0  0  0  0  0  0
  147.9148  137.0999  160.4896 H   0  0  0  0  0  0  0  0  0  0  0  0
  1  2  1  0  0  0  0
  1 27  1  0  0  0  0
  1 28  1  0  0  0  0
  1 29  1  0  0  0  0
  2  3  1  0  0  0  0
  2 30  1  0  0  0  0
  2 31  1  0  0  0  0
  3  4  2  0  0  0  0
  3  5  1  0  0  0  0
  5  6  1  0  0  0  0
  6  7  1  0  0  0  0
  6 32  1  0  0  0  0
  6 33  1  0  0  0  0
  7 21  1  0  0  0  0
  7  8  1  0  0  0  0
  7 34  1  0  0  0  0
  8  9  1  0  0  0  0
  9 10  1  0  0  0  0
  9 19  1  0  0  0  0
  9 35  1  0  0  0  0
 10 17  1  0  0  0  0
 10 11  1  0  0  0  0
 11 12  2  0  0  0  0
 11 36  1  0  0  0  0
 12 13  1  0  0  0  0
 12 14  1  0  0  0  0
 14 15  2  0  0  0  0
 14 16  1  0  0  0  0
 16 17  1  0  0  0  0
 17 18  2  0  0  0  0
 19 20  1  0  0  0  0
 19 21  1  0  0  0  0
 19 37  1  0  0  0  0
 21 22  1  0  0  0  0
 21 38  1  0  0  0  0
 22 23  1  0  0  0  0
 23 24  2  0  0  0  0
 23 25  1  0  0  0  0
 25 26  1  0  0  0  0
 25 39  1  0  0  0  0
 25 40  1  0  0  0  0
 26 41  1  0  0  0  0
 26 42  1  0  0  0  0
 26 43  1  0  0  0  0
M  CHG  1  16  -1
M  END
> <s_m_source_file>
AV-unprocessed.smi

> <i_m_source_file_index>
37

> <i_lp_mmshare_version>
43012

> <i_f3d_flags>
0

> <s_epik_input>
W0NIM11bQ0gyXUMoPU8pT1tDSDJdW0NAQEhdMU9bQ0BASF0objJbY0hdYyhGKWMoPU8pW25IXWMyPU8pW0NAQEhdKEJyKVtDQEhdMU9DKD1PKVtDSDJdW0NIM10=

> <s_epik_cmdline>
J2VwaWtfcHl0aG9uJywgJy1waCcsICc3LjAnLCAnLXRuJywgJzgnLCAnLW1hJywgJzIwMCcsICctbWV0YWxfYmluZGluZycsICctaW1hZScsICc8aW5maWxlLm1hZT4nLCAnLW9tYWUnLCAnPG91dGZpbGUubWFlPic=

> <r_epik_Ionization_Penalty>
1.08158

> <r_epik_Ionization_Penalty_Charging>
9.05154e-09

> <r_epik_Ionization_Penalty_Neutral>
1.08158

> <r_epik_State_Penalty>
1.13706

> <r_epik_Charging_Adjusted_Penalty>
1.13706

> <i_epik_Tot_Q>
-1

> <i_epik_Tot_abs_Q>
1

> <r_epik_Metal_State_Penalty>
0.00343535

> <b_epik_Metal_Only>
0

> <s_epik_Chemistry_Notes>
This compound has an ester and may undergo hydrolysis at high or low pH. This compound contains an acetal/aminal-like group ( X-CH(R)-Y where X, Y are N, S, or O) that may be acid/base labile, releasing an aldehyde.

> <s_lp_Force_Field>
OPLS_2005

> <r_lp_Energy>
28.0261

> <b_lp_Chiralities_Consistent>
1

> <s_lp_Variant>
AV-unprocessed.smi:37-28

> <Gold.Version>
5.8.1

> <Gold.Id.Protein>
6NUR|6NUR_protein|mol2

> <Gold.PLP.Fitness>
37.0673

> <Gold.PLP.PLP>
-31.4868

> <Gold.PLP.part.hbond>
-2.7227

> <Gold.PLP.part.metal>
0.0000

> <Gold.PLP.part.buried>
-2.4062

> <Gold.PLP.part.nonpolar>
-28.3972

> <Gold.PLP.part.repulsive>
1.1869

> <Gold.PLP.ligand.clash>
0.0000

> <Gold.PLP.ligand.torsion>
0.2787

> <Gold.PLP.Chemscore.Hbond>
1.0000

> <Gold.PLP.Chemscore.CHOScore>
1.0000

> <Gold.PLP.Chemscore.Metal>
0.0000

> <Gold.Chemscore.Hbonds>
donor molecule, donor type, donor heavy atom, donor atom, acceptor molecule, acceptor atom, score
      P1  H  7997  8008       L1    15  1.00
      L1  C    11    36       P1  7948  1.00

> <Gold.PLP.Chemscore.Internal.Correction>
0.1379

> <Gold.Rescore>
     Score         DG    S(hbond)    S(metal)    S(lipo)     H(rot)  DE(clash)    DE(int)     intcor
      2.58      -5.77       0.93        0.00      47.34       3.27       1.64       1.55       ----

> <Gold.Chemscore.Fitness>
2.5784

> <Gold.Chemscore.DG>
-5.7691

> <Gold.Chemscore.ZeroCoef>
-5.4800

> <Gold.Chemscore.Hbond>
0.9323

> <Gold.Chemscore.Metal>
0.0000

> <Gold.Chemscore.Lipo>
47.3388

> <Gold.Chemscore.Internal_Hbond>
0.0000

> <Gold.Chemscore.DEClash>
1.6390

> <Gold.Chemscore.DEInternal>
1.5517

> <Gold.Chemscore.Rot>
3.2669

> <Gold.Chemscore.Internal.Correction>
   9.000000E+99

> <Gold.Chemscore.Hbonds>
donor molecule, donor type, donor heavy atom, donor atom, acceptor molecule, acceptor atom, score
      P1  H  6934  6947       L1    24  0.01
      P1  H  7997  8008       L1    15  0.91

> <Gold.Chemscore.Hbond.Weighted>
-3.1138

> <Gold.Chemscore.Metal.Weighted>
-0.0000

> <Gold.Chemscore.Lipo.Weighted>
-5.5386

> <Gold.Chemscore.Internal_Hbond.Weighted>
0.0000

> <Gold.Chemscore.DEClash.Weighted>
1.6390

> <Gold.Chemscore.DEInternal.Weighted>
1.5517

> <Gold.Chemscore.Rot.Weighted>
8.3634

> <Gold.Chemscore.Internal.Correction.Weighted>
   9.000000E+99

> <Gold.Protein.RotatedTorsions>
[ 6907 6896 6895 6894 ] final -159.91 input  -60.11 | X-H torsion
[ 7974 7965 7964 7962 ] final   93.65 input  175.53 | X-H torsion
[ 8008 7997 7996 7995 ] final  -18.86 input   59.86 | X-H torsion
[ 10167 10162 10161 10158 ] final   22.74 input  -65.29 | X-H torsion
[ 10718 10713 10712 10709 ] final  -67.98 input   66.30 | X-H torsion
[ 10763 10752 10751 10750 ] final  131.52 input  -60.55 | X-H torsion
[ 11005 11000 10999 10996 ] final  -71.73 input  -57.11 | X-H torsion

> <Gold.Protein.ActiveResidues>
 VAL166  LYS551  ARG553  GLY616  TRP617  ASP618  TYR619  PRO620  LYS621  CYS622 
 ASP623  PHE694  ASN695  SER759  ASP760  ASP761  ALA762  ILE779  LEU786  VAL792 
 PHE793  MET794  SER795  GLU796  ALA797  LYS798  CYS799  TRP800  GLU811  SER814 

> <Gold.Protein.RotatedAtoms>
  151.3409  133.3963  159.2670 H   0  0  0  0  0  0  0  0  0  0  0  0  # atno 6907 bound_to 6896
  150.9879  134.9221  159.7892 H   0  0  0  0  0  0  0  0  0  0  0  0  # atno 6908 bound_to 6896
  152.5238  134.3374  159.9257 H   0  0  0  0  0  0  0  0  0  0  0  0  # atno 6909 bound_to 6896
  145.4761  139.2280  143.2908 H   0  0  0  0  0  0  0  0  0  0  0  0  # atno 7974 bound_to 7965
  154.4876  140.2104  155.9620 H   0  0  0  0  0  0  0  0  0  0  0  0  # atno 8008 bound_to 7997
  156.1259  140.3205  155.8245 H   0  0  0  0  0  0  0  0  0  0  0  0  # atno 8009 bound_to 7997
  155.4384  140.0508  157.3003 H   0  0  0  0  0  0  0  0  0  0  0  0  # atno 8010 bound_to 7997
  140.5324  143.9818  150.6473 H   0  0  0  0  0  0  0  0  0  0  0  0  # atno 10167 bound_to 10162
  156.0529  130.4287  150.1934 H   0  0  0  0  0  0  0  0  0  0  0  0  # atno 10718 bound_to 10713
  153.7758  135.3175  155.3358 H   0  0  0  0  0  0  0  0  0  0  0  0  # atno 10763 bound_to 10752
  154.8180  135.4623  154.0700 H   0  0  0  0  0  0  0  0  0  0  0  0  # atno 10764 bound_to 10752
  153.1973  135.6917  153.8360 H   0  0  0  0  0  0  0  0  0  0  0  0  # atno 10765 bound_to 10752
  141.1597  133.6826  156.6951 H   0  0  0  0  0  0  0  0  0  0  0  0  # atno 11005 bound_to 11000
  146.2368  140.5544  142.8951 LP  0  0  0  0  0  0  0  0  0  0  0  0  # atno 17320 bound_to 7965
  144.7916  140.6043  143.6537 LP  0  0  0  0  0  0  0  0  0  0  0  0  # atno 17321 bound_to 7965
  140.3197  143.3145  152.0797 LP  0  0  0  0  0  0  0  0  0  0  0  0  # atno 17342 bound_to 10162
  139.4959  144.6582  151.6524 LP  0  0  0  0  0  0  0  0  0  0  0  0  # atno 17343 bound_to 10162
  157.0015  130.9924  151.3389 LP  0  0  0  0  0  0  0  0  0  0  0  0  # atno 17370 bound_to 10713
  157.5472  130.8158  149.8100 LP  0  0  0  0  0  0  0  0  0  0  0  0  # atno 17371 bound_to 10713
  140.3001  134.8171  157.4090 LP  0  0  0  0  0  0  0  0  0  0  0  0  # atno 17394 bound_to 11000
  140.1270  134.5145  155.8137 LP  0  0  0  0  0  0  0  0  0  0  0  0  # atno 17395 bound_to 11000

$$$$
