AV-unprocessed.smi:1051|AV-procd|sdf|4614|dock5
  -GOLD-   22720 3113D 1   1.00000     0.00000
 Structure written by MMmdl.
 45 47  0  0  0  0  0  0  0  0  1 V2000
  153.9858  132.6340  165.2346 C   0  0  0  0  0  0  0  0  0  0  0  0
  154.6439  133.1419  163.9526 C   0  0  0  0  0  0  0  0  0  0  0  0
  155.2640  132.3432  163.2514 O   0  0  0  0  0  0  0  0  0  0  0  0
  154.4960  134.5878  163.6202 C   0  0  0  0  0  0  0  0  0  0  0  0
  154.1757  135.5485  164.6073 C   0  0  0  0  0  0  0  0  0  0  0  0
  154.0437  136.9055  164.2605 C   0  0  0  0  0  0  0  0  0  0  0  0
  154.2284  137.3201  162.9288 C   0  0  0  0  0  0  0  0  0  0  0  0
  154.5490  136.3740  161.9248 C   0  0  0  0  0  0  0  0  0  0  0  0
  154.7453  136.6894  160.5973 O   0  0  0  0  0  0  0  0  0  0  0  0
  154.9112  138.0584  160.2456 C   0  0  0  0  0  0  0  0  0  0  0  0
  153.5536  138.6786  159.8734 C   0  0  2  0  0  0  0  0  0  0  0  0
  152.9326  137.8276  158.9310 O   0  0  0  0  0  0  0  0  0  0  0  0
  153.6734  140.1087  159.3090 C   0  0  0  0  0  0  0  0  0  0  0  0
  153.5226  141.1153  160.3577 N   0  0  0  0  0  0  0  0  0  0  0  0
  154.0849  141.0864  161.5889 C   0  0  0  0  0  0  0  0  0  0  0  0
  154.8202  140.2014  162.0262 O   0  0  0  0  0  0  0  0  0  0  0  0
  153.7107  142.2086  162.2470 N   0  0  0  0  0  0  0  0  0  0  0  0
  154.0859  142.5988  163.6006 C   0  0  0  0  0  0  0  0  0  0  0  0
  152.9065  142.9879  161.4059 C   0  0  0  0  0  0  0  0  0  0  0  0
  152.2914  144.2344  161.6129 C   0  0  0  0  0  0  0  0  0  0  0  0
  151.5376  144.7681  160.5412 C   0  0  0  0  0  0  0  0  0  0  0  0
  151.4185  144.0640  159.3146 C   0  0  0  0  0  0  0  0  0  0  0  0
  152.0490  142.8105  159.1336 C   0  0  0  0  0  0  0  0  0  0  0  0
  152.7887  142.3020  160.2156 C   0  0  0  0  0  0  0  0  0  0  0  0
  154.6801  135.0171  162.2854 C   0  0  0  0  0  0  0  0  0  0  0  0
  154.3962  133.1475  166.1042 H   0  0  0  0  0  0  0  0  0  0  0  0
  154.1620  131.5648  165.3562 H   0  0  0  0  0  0  0  0  0  0  0  0
  152.9089  132.7999  165.2032 H   0  0  0  0  0  0  0  0  0  0  0  0
  154.0262  135.2677  165.6390 H   0  0  0  0  0  0  0  0  0  0  0  0
  153.7989  137.6328  165.0206 H   0  0  0  0  0  0  0  0  0  0  0  0
  154.1184  138.3699  162.7044 H   0  0  0  0  0  0  0  0  0  0  0  0
  155.3764  138.6212  161.0571 H   0  0  0  0  0  0  0  0  0  0  0  0
  155.5716  138.1218  159.3791 H   0  0  0  0  0  0  0  0  0  0  0  0
  152.9322  138.6820  160.7702 H   0  0  0  0  0  0  0  0  0  0  0  0
  152.1091  137.5317  159.2883 H   0  0  0  0  0  0  0  0  0  0  0  0
  154.6573  140.2458  158.8590 H   0  0  0  0  0  0  0  0  0  0  0  0
  152.9576  140.2744  158.5017 H   0  0  0  0  0  0  0  0  0  0  0  0
  153.2006  142.8757  164.1736 H   0  0  0  0  0  0  0  0  0  0  0  0
  154.7580  143.4571  163.5717 H   0  0  0  0  0  0  0  0  0  0  0  0
  154.5891  141.7914  164.1344 H   0  0  0  0  0  0  0  0  0  0  0  0
  152.3898  144.7654  162.5481 H   0  0  0  0  0  0  0  0  0  0  0  0
  151.0482  145.7238  160.6577 H   0  0  0  0  0  0  0  0  0  0  0  0
  150.8398  144.4911  158.5085 H   0  0  0  0  0  0  0  0  0  0  0  0
  151.9643  142.2721  158.2013 H   0  0  0  0  0  0  0  0  0  0  0  0
  154.9249  134.3014  161.5135 H   0  0  0  0  0  0  0  0  0  0  0  0
  1  2  1  0  0  0  0
  1 26  1  0  0  0  0
  1 27  1  0  0  0  0
  1 28  1  0  0  0  0
  2  3  2  0  0  0  0
  2  4  1  0  0  0  0
  4 25  1  0  0  0  0
  4  5  2  0  0  0  0
  5  6  1  0  0  0  0
  5 29  1  0  0  0  0
  6  7  2  0  0  0  0
  6 30  1  0  0  0  0
  7  8  1  0  0  0  0
  7 31  1  0  0  0  0
  8  9  1  0  0  0  0
  8 25  2  0  0  0  0
  9 10  1  0  0  0  0
 10 11  1  0  0  0  0
 10 32  1  0  0  0  0
 10 33  1  0  0  0  0
 11 12  1  0  0  0  0
 11 13  1  0  0  0  0
 11 34  1  0  0  0  0
 12 35  1  0  0  0  0
 13 14  1  0  0  0  0
 13 36  1  0  0  0  0
 13 37  1  0  0  0  0
 14 24  1  0  0  0  0
 14 15  1  0  0  0  0
 15 16  2  0  0  0  0
 15 17  1  0  0  0  0
 17 18  1  0  0  0  0
 17 19  1  0  0  0  0
 18 38  1  0  0  0  0
 18 39  1  0  0  0  0
 18 40  1  0  0  0  0
 19 24  2  0  0  0  0
 19 20  1  0  0  0  0
 20 21  2  0  0  0  0
 20 41  1  0  0  0  0
 21 22  1  0  0  0  0
 21 42  1  0  0  0  0
 22 23  2  0  0  0  0
 22 43  1  0  0  0  0
 23 24  1  0  0  0  0
 23 44  1  0  0  0  0
 25 45  1  0  0  0  0
M  END
> <s_m_source_file>
AV-unprocessed.smi

> <i_m_source_file_index>
1051

> <i_lp_mmshare_version>
43012

> <i_f3d_flags>
0

> <s_epik_input>
W0NIM11DKD1PKWMxW2NIXVtjSF1bY0hdYyhbY0hdMSlPW0NIMl1bQ0BIXShbT0hdKVtDSDJdbihjKD1PKW4yW0NIM10pYyhjMjMpW2NIXVtjSF1bY0hdW2NIXTM=

> <s_epik_cmdline>
J2VwaWtfcHl0aG9uJywgJy1waCcsICc3LjAnLCAnLXRuJywgJzgnLCAnLW1hJywgJzIwMCcsICctbWV0YWxfYmluZGluZycsICctaW1hZScsICc8aW5maWxlLm1hZT4nLCAnLW9tYWUnLCAnPG91dGZpbGUubWFlPic=

> <r_lp_tautomer_probability>
1

> <r_epik_Ionization_Penalty>
2.40143e-06

> <r_epik_Ionization_Penalty_Charging>
2.1343e-09

> <r_epik_Ionization_Penalty_Neutral>
2.3993e-06

> <r_epik_State_Penalty>
-0

> <r_epik_Charging_Adjusted_Penalty>
2.1343e-09

> <i_epik_Tot_Q>
0

> <i_epik_Tot_abs_Q>
0

> <r_epik_Metal_State_Penalty>
-0

> <b_epik_Metal_Only>
0

> <s_lp_Force_Field>
OPLS_2005

> <r_lp_Energy>
56.3875

> <b_lp_Chiralities_Consistent>
1

> <s_lp_Variant>
AV-unprocessed.smi:1051-1

> <Gold.Version>
5.8.1

> <Gold.Id.Protein>
6NUR|6NUR_protein|mol2

> <Gold.PLP.Fitness>
58.0859

> <Gold.PLP.PLP>
-60.6177

> <Gold.PLP.part.hbond>
0.0000

> <Gold.PLP.part.metal>
0.0000

> <Gold.PLP.part.buried>
-4.1754

> <Gold.PLP.part.nonpolar>
-56.2951

> <Gold.PLP.part.repulsive>
0.0000

> <Gold.PLP.ligand.clash>
0.0000

> <Gold.PLP.ligand.torsion>
1.2825

> <Gold.PLP.Chemscore.Hbond>
0.0000

> <Gold.PLP.Chemscore.CHOScore>
0.0000

> <Gold.PLP.Chemscore.Metal>
0.0000

> <Gold.PLP.Chemscore.Internal.Correction>
0.0333

> <Gold.Rescore>
     Score         DG    S(hbond)    S(metal)    S(lipo)     H(rot)  DE(clash)    DE(int)     intcor
     13.52     -17.41       0.00        0.00     152.29       2.30       0.05       3.84       ----

> <Gold.Chemscore.Fitness>
13.5198

> <Gold.Chemscore.DG>
-17.4144

> <Gold.Chemscore.ZeroCoef>
-5.4800

> <Gold.Chemscore.Hbond>
0.0000

> <Gold.Chemscore.Metal>
0.0000

> <Gold.Chemscore.Lipo>
152.2932

> <Gold.Chemscore.Internal_Hbond>
0.0000

> <Gold.Chemscore.DEClash>
0.0532

> <Gold.Chemscore.DEInternal>
3.8415

> <Gold.Chemscore.Rot>
2.2984

> <Gold.Chemscore.Internal.Correction>
   9.000000E+99

> <Gold.Chemscore.Hbond.Weighted>
-0.0000

> <Gold.Chemscore.Metal.Weighted>
-0.0000

> <Gold.Chemscore.Lipo.Weighted>
-17.8183

> <Gold.Chemscore.Internal_Hbond.Weighted>
0.0000

> <Gold.Chemscore.DEClash.Weighted>
0.0532

> <Gold.Chemscore.DEInternal.Weighted>
3.8415

> <Gold.Chemscore.Rot.Weighted>
5.8839

> <Gold.Chemscore.Internal.Correction.Weighted>
   9.000000E+99

> <Gold.Protein.RotatedTorsions>
[ 6907 6896 6895 6894 ] final -178.10 input  -60.11 | X-H torsion
[ 7974 7965 7964 7962 ] final  122.77 input  175.53 | X-H torsion
[ 8008 7997 7996 7995 ] final  159.60 input   59.86 | X-H torsion
[ 10167 10162 10161 10158 ] final   36.98 input  -65.29 | X-H torsion
[ 10718 10713 10712 10709 ] final   94.39 input   66.30 | X-H torsion
[ 10763 10752 10751 10750 ] final  -75.58 input  -60.55 | X-H torsion
[ 11005 11000 10999 10996 ] final  139.75 input  -57.11 | X-H torsion

> <Gold.Protein.ActiveResidues>
 VAL166  LYS551  ARG553  GLY616  TRP617  ASP618  TYR619  PRO620  LYS621  CYS622 
 ASP623  PHE694  ASN695  SER759  ASP760  ASP761  ALA762  ILE779  LEU786  VAL792 
 PHE793  MET794  SER795  GLU796  ALA797  LYS798  CYS799  TRP800  GLU811  SER814 

> <Gold.Protein.RotatedAtoms>
  151.6318  133.3331  159.3110 H   0  0  0  0  0  0  0  0  0  0  0  0  # atno 6907 bound_to 6896
  150.8052  134.7177  159.6649 H   0  0  0  0  0  0  0  0  0  0  0  0  # atno 6908 bound_to 6896
  152.4147  134.6066  160.0066 H   0  0  0  0  0  0  0  0  0  0  0  0  # atno 6909 bound_to 6896
  145.1036  139.3501  143.4799 H   0  0  0  0  0  0  0  0  0  0  0  0  # atno 7974 bound_to 7965
  156.2228  140.1827  156.7435 H   0  0  0  0  0  0  0  0  0  0  0  0  # atno 8008 bound_to 7997
  154.5893  140.0653  156.9244 H   0  0  0  0  0  0  0  0  0  0  0  0  # atno 8009 bound_to 7997
  155.2365  140.3318  155.4299 H   0  0  0  0  0  0  0  0  0  0  0  0  # atno 8010 bound_to 7997
  140.4076  144.1637  150.6137 H   0  0  0  0  0  0  0  0  0  0  0  0  # atno 10167 bound_to 10162
  157.6948  131.0510  150.4179 H   0  0  0  0  0  0  0  0  0  0  0  0  # atno 10718 bound_to 10713
  154.4884  135.5826  153.6441 H   0  0  0  0  0  0  0  0  0  0  0  0  # atno 10763 bound_to 10752
  152.9858  135.6107  154.3156 H   0  0  0  0  0  0  0  0  0  0  0  0  # atno 10764 bound_to 10752
  154.3053  135.2846  155.2571 H   0  0  0  0  0  0  0  0  0  0  0  0  # atno 10765 bound_to 10752
  140.0277  134.9367  157.0601 H   0  0  0  0  0  0  0  0  0  0  0  0  # atno 11005 bound_to 11000
  146.3529  140.0924  142.8612 LP  0  0  0  0  0  0  0  0  0  0  0  0  # atno 17320 bound_to 7965
  145.0927  140.9295  143.4759 LP  0  0  0  0  0  0  0  0  0  0  0  0  # atno 17321 bound_to 7965
  140.4673  143.2426  151.9138 LP  0  0  0  0  0  0  0  0  0  0  0  0  # atno 17342 bound_to 10162
  139.4783  144.5406  151.8533 LP  0  0  0  0  0  0  0  0  0  0  0  0  # atno 17343 bound_to 10162
  156.4557  130.4021  149.6608 LP  0  0  0  0  0  0  0  0  0  0  0  0  # atno 17370 bound_to 10713
  156.3741  130.7546  151.2532 LP  0  0  0  0  0  0  0  0  0  0  0  0  # atno 17371 bound_to 10713
  140.4278  134.1812  155.7167 LP  0  0  0  0  0  0  0  0  0  0  0  0  # atno 17394 bound_to 11000
  141.1813  133.8408  157.1249 LP  0  0  0  0  0  0  0  0  0  0  0  0  # atno 17395 bound_to 11000

$$$$
