AV-unprocessed.smi:3293|AV-procd|sdf|12629|dock4
  -GOLD-   2272018563D 1   1.00000     0.00000
 Structure written by MMmdl.
 44 45  0  0  0  0  0  0  0  0  2 V2000
  153.6682  141.4139  160.5060 C   0  0  0  0  0  0  0  0  0  0  0  0
  152.8085  142.3189  159.6388 C   0  0  0  0  0  0  0  0  0  0  0  0
  153.1028  143.6273  159.5039 C   0  0  0  0  0  0  0  0  0  0  0  0
  152.2793  144.6231  158.7055 C   0  0  0  0  0  0  0  0  0  0  0  0
  151.1568  143.9609  157.8895 C   0  0  0  0  0  0  0  0  0  0  0  0
  150.5215  142.7893  158.6577 C   0  0  1  0  0  0  0  0  0  0  0  0
  149.2459  142.2694  157.9725 C   0  0  0  0  0  0  0  0  0  0  0  0
  151.5772  141.6916  158.9708 C   0  0  1  0  0  0  0  0  0  0  0  0
  151.9535  140.8401  157.7300 C   0  0  0  0  0  0  0  0  0  0  0  0
  151.0741  139.6685  157.5502 N   0  3  0  0  0  0  0  0  0  0  0  0
  151.4103  138.8365  156.3791 C   0  0  0  0  0  0  0  0  0  0  0  0
  151.3774  139.6641  155.0877 C   0  0  0  0  0  0  0  0  0  0  0  0
  149.9679  139.9734  154.6681 C   0  0  0  0  0  0  0  0  0  0  0  0
  149.0122  139.0847  154.0976 C   0  0  0  0  0  0  0  0  0  0  0  0
  147.8571  139.6724  153.8332 N   0  0  0  0  0  0  0  0  0  0  0  0
  148.0322  140.9508  154.2256 N   0  0  0  0  0  0  0  0  0  0  0  0
  146.9472  141.8973  154.0781 C   0  0  0  0  0  0  0  0  0  0  0  0
  149.2952  141.1614  154.7355 C   0  0  0  0  0  0  0  0  0  0  0  0
  153.0461  140.8297  161.1845 H   0  0  0  0  0  0  0  0  0  0  0  0
  154.3605  141.9981  161.1137 H   0  0  0  0  0  0  0  0  0  0  0  0
  154.2647  140.7317  159.9026 H   0  0  0  0  0  0  0  0  0  0  0  0
  153.9646  144.0364  160.0113 H   0  0  0  0  0  0  0  0  0  0  0  0
  151.8487  145.3318  159.4134 H   0  0  0  0  0  0  0  0  0  0  0  0
  152.9354  145.1945  158.0485 H   0  0  0  0  0  0  0  0  0  0  0  0
  150.4033  144.7088  157.6397 H   0  0  0  0  0  0  0  0  0  0  0  0
  151.5550  143.6062  156.9387 H   0  0  0  0  0  0  0  0  0  0  0  0
  150.1934  143.1865  159.6202 H   0  0  0  0  0  0  0  0  0  0  0  0
  149.4239  141.9906  156.9340 H   0  0  0  0  0  0  0  0  0  0  0  0
  148.4705  143.0359  157.9685 H   0  0  0  0  0  0  0  0  0  0  0  0
  148.8433  141.4008  158.4944 H   0  0  0  0  0  0  0  0  0  0  0  0
  151.1191  141.0260  159.7041 H   0  0  0  0  0  0  0  0  0  0  0  0
  151.8771  141.4304  156.8181 H   0  0  0  0  0  0  0  0  0  0  0  0
  152.9878  140.5019  157.8039 H   0  0  0  0  0  0  0  0  0  0  0  0
  151.1333  139.0942  158.3791 H   0  0  0  0  0  0  0  0  0  0  0  0
  152.4016  138.4029  156.5181 H   0  0  0  0  0  0  0  0  0  0  0  0
  150.7017  138.0095  156.3128 H   0  0  0  0  0  0  0  0  0  0  0  0
  151.9419  140.5857  155.2355 H   0  0  0  0  0  0  0  0  0  0  0  0
  151.8981  139.1210  154.2979 H   0  0  0  0  0  0  0  0  0  0  0  0
  149.1250  138.0356  153.8671 H   0  0  0  0  0  0  0  0  0  0  0  0
  147.2818  142.8973  154.3561 H   0  0  0  0  0  0  0  0  0  0  0  0
  146.1167  141.6089  154.7230 H   0  0  0  0  0  0  0  0  0  0  0  0
  146.6085  141.9132  153.0419 H   0  0  0  0  0  0  0  0  0  0  0  0
  149.6085  142.1296  155.0976 H   0  0  0  0  0  0  0  0  0  0  0  0
  150.1234  139.9949  157.4506 H   0  0  0  0  0  0  0  0  0  0  0  0
  1  2  1  0  0  0  0
  1 19  1  0  0  0  0
  1 20  1  0  0  0  0
  1 21  1  0  0  0  0
  2  8  1  0  0  0  0
  2  3  2  0  0  0  0
  3  4  1  0  0  0  0
  3 22  1  0  0  0  0
  4  5  1  0  0  0  0
  4 23  1  0  0  0  0
  4 24  1  0  0  0  0
  5  6  1  0  0  0  0
  5 25  1  0  0  0  0
  5 26  1  0  0  0  0
  6  7  1  0  0  0  0
  6  8  1  0  0  0  0
  6 27  1  0  0  0  0
  7 28  1  0  0  0  0
  7 29  1  0  0  0  0
  7 30  1  0  0  0  0
  8  9  1  0  0  0  0
  8 31  1  0  0  0  0
  9 10  1  0  0  0  0
  9 32  1  0  0  0  0
  9 33  1  0  0  0  0
 10 11  1  0  0  0  0
 10 34  1  0  0  0  0
 10 44  1  0  0  0  0
 11 12  1  0  0  0  0
 11 35  1  0  0  0  0
 11 36  1  0  0  0  0
 12 13  1  0  0  0  0
 12 37  1  0  0  0  0
 12 38  1  0  0  0  0
 13 18  2  0  0  0  0
 13 14  1  0  0  0  0
 14 15  2  0  0  0  0
 14 39  1  0  0  0  0
 15 16  1  0  0  0  0
 16 17  1  0  0  0  0
 16 18  1  0  0  0  0
 17 40  1  0  0  0  0
 17 41  1  0  0  0  0
 17 42  1  0  0  0  0
 18 43  1  0  0  0  0
M  CHG  1  10   1
M  END
> <s_m_source_file>
AV-unprocessed.smi

> <i_m_source_file_index>
3293

> <i_lp_mmshare_version>
43012

> <i_f3d_flags>
0

> <s_epik_input>
W0NIM11DMT1bQ0hdW0NIMl1bQ0gyXVtDQEBIXShbQ0gzXSlbQ0BIXTFbQ0gyXVtOSF1bQ0gyXVtDSDJdYzJbY0hdbm4oW0NIM10pW2NIXTI=

> <s_epik_cmdline>
J2VwaWtfcHl0aG9uJywgJy1waCcsICc3LjAnLCAnLXRuJywgJzgnLCAnLW1hJywgJzIwMCcsICctbWV0YWxfYmluZGluZycsICctaW1hZScsICc8aW5maWxlLm1hZT4nLCAnLW9tYWUnLCAnPG91dGZpbGUubWFlPic=

> <r_lp_tautomer_probability>
1

> <r_epik_Ionization_Penalty>
0.000598621

> <r_epik_Ionization_Penalty_Charging>
0.000582095

> <r_epik_Ionization_Penalty_Neutral>
1.65262e-05

> <r_epik_State_Penalty>
-0

> <r_epik_Charging_Adjusted_Penalty>
0.000582095

> <i_epik_Tot_Q>
1

> <i_epik_Tot_abs_Q>
1

> <r_epik_Metal_State_Penalty>
-0

> <b_epik_Metal_Only>
0

> <s_lp_Force_Field>
OPLS_2005

> <r_lp_Energy>
11.7739

> <b_lp_Chiralities_Consistent>
1

> <s_lp_Variant>
AV-unprocessed.smi:3293-1

> <Gold.Version>
5.8.1

> <Gold.Id.Protein>
6NUR|6NUR_protein|mol2

> <Gold.PLP.Fitness>
45.4881

> <Gold.PLP.PLP>
-43.0957

> <Gold.PLP.part.hbond>
0.0000

> <Gold.PLP.part.metal>
0.0000

> <Gold.PLP.part.buried>
-1.0748

> <Gold.PLP.part.nonpolar>
-42.1871

> <Gold.PLP.part.repulsive>
0.1952

> <Gold.PLP.ligand.clash>
0.0000

> <Gold.PLP.ligand.torsion>
0.6031

> <Gold.PLP.Chemscore.Hbond>
0.0000

> <Gold.PLP.Chemscore.CHOScore>
1.1933

> <Gold.PLP.Chemscore.Metal>
0.0000

> <Gold.Chemscore.Hbonds>
donor molecule, donor type, donor heavy atom, donor atom, acceptor molecule, acceptor atom, score
      L1  C    14    39       P1  7948  0.62
      L1  C    18    43       P1  8028  0.47

> <Gold.PLP.Chemscore.Internal.Correction>
0.0187

> <Gold.Rescore>
     Score         DG    S(hbond)    S(metal)    S(lipo)     H(rot)  DE(clash)    DE(int)     intcor
     16.46     -16.95       0.00        0.00     130.54       1.48       0.02       0.47       ----

> <Gold.Chemscore.Fitness>
16.4638

> <Gold.Chemscore.DG>
-16.9520

> <Gold.Chemscore.ZeroCoef>
-5.4800

> <Gold.Chemscore.Hbond>
0.0000

> <Gold.Chemscore.Metal>
0.0000

> <Gold.Chemscore.Lipo>
130.5369

> <Gold.Chemscore.Internal_Hbond>
0.0000

> <Gold.Chemscore.DEClash>
0.0216

> <Gold.Chemscore.DEInternal>
0.4666

> <Gold.Chemscore.Rot>
1.4847

> <Gold.Chemscore.Internal.Correction>
   9.000000E+99

> <Gold.Chemscore.Hbond.Weighted>
-0.0000

> <Gold.Chemscore.Metal.Weighted>
-0.0000

> <Gold.Chemscore.Lipo.Weighted>
-15.2728

> <Gold.Chemscore.Internal_Hbond.Weighted>
0.0000

> <Gold.Chemscore.DEClash.Weighted>
0.0216

> <Gold.Chemscore.DEInternal.Weighted>
0.4666

> <Gold.Chemscore.Rot.Weighted>
3.8008

> <Gold.Chemscore.Internal.Correction.Weighted>
   9.000000E+99

> <Gold.Protein.RotatedTorsions>
[ 6907 6896 6895 6894 ] final -130.17 input  -60.11 | X-H torsion
[ 7974 7965 7964 7962 ] final  179.58 input  175.53 | X-H torsion
[ 8008 7997 7996 7995 ] final -146.63 input   59.86 | X-H torsion
[ 10167 10162 10161 10158 ] final  -40.66 input  -65.29 | X-H torsion
[ 10718 10713 10712 10709 ] final  127.08 input   66.30 | X-H torsion
[ 10763 10752 10751 10750 ] final  -70.45 input  -60.55 | X-H torsion
[ 11005 11000 10999 10996 ] final   91.98 input  -57.11 | X-H torsion

> <Gold.Protein.ActiveResidues>
 VAL166  LYS551  ARG553  GLY616  TRP617  ASP618  TYR619  PRO620  LYS621  CYS622 
 ASP623  PHE694  ASN695  SER759  ASP760  ASP761  ALA762  ILE779  LEU786  VAL792 
 PHE793  MET794  SER795  GLU796  ALA797  LYS798  CYS799  TRP800  GLU811  SER814 

> <Gold.Protein.RotatedAtoms>
  150.9368  133.6702  159.2798 H   0  0  0  0  0  0  0  0  0  0  0  0  # atno 6907 bound_to 6896
  151.4105  135.0983  159.9593 H   0  0  0  0  0  0  0  0  0  0  0  0  # atno 6908 bound_to 6896
  152.5051  133.8842  159.7416 H   0  0  0  0  0  0  0  0  0  0  0  0  # atno 6909 bound_to 6896
  144.7144  140.0570  143.6433 H   0  0  0  0  0  0  0  0  0  0  0  0  # atno 7974 bound_to 7965
  155.5625  140.0626  157.2825 H   0  0  0  0  0  0  0  0  0  0  0  0  # atno 8008 bound_to 7997
  154.4386  140.1883  156.0842 H   0  0  0  0  0  0  0  0  0  0  0  0  # atno 8009 bound_to 7997
  156.0436  140.3292  155.7275 H   0  0  0  0  0  0  0  0  0  0  0  0  # atno 8010 bound_to 7997
  140.7027  143.3140  151.2956 H   0  0  0  0  0  0  0  0  0  0  0  0  # atno 10167 bound_to 10162
  157.5364  131.1097  150.8929 H   0  0  0  0  0  0  0  0  0  0  0  0  # atno 10718 bound_to 10713
  154.4178  135.5994  153.5991 H   0  0  0  0  0  0  0  0  0  0  0  0  # atno 10763 bound_to 10752
  152.9792  135.5945  154.3992 H   0  0  0  0  0  0  0  0  0  0  0  0  # atno 10764 bound_to 10752
  154.3813  135.2841  155.2188 H   0  0  0  0  0  0  0  0  0  0  0  0  # atno 10765 bound_to 10752
  139.8830  134.8706  156.3506 H   0  0  0  0  0  0  0  0  0  0  0  0  # atno 11005 bound_to 11000
  145.9896  139.3004  143.0993 LP  0  0  0  0  0  0  0  0  0  0  0  0  # atno 17320 bound_to 7965
  145.8918  140.9299  143.0548 LP  0  0  0  0  0  0  0  0  0  0  0  0  # atno 17321 bound_to 7965
  139.6573  144.0254  152.2668 LP  0  0  0  0  0  0  0  0  0  0  0  0  # atno 17342 bound_to 10162
  139.9809  144.6429  150.7901 LP  0  0  0  0  0  0  0  0  0  0  0  0  # atno 17343 bound_to 10162
  156.9495  130.5414  149.5282 LP  0  0  0  0  0  0  0  0  0  0  0  0  # atno 17370 bound_to 10713
  156.0462  130.5538  150.8885 LP  0  0  0  0  0  0  0  0  0  0  0  0  # atno 17371 bound_to 10713
  140.9597  133.7397  156.0384 LP  0  0  0  0  0  0  0  0  0  0  0  0  # atno 17394 bound_to 11000
  140.8005  134.3514  157.5440 LP  0  0  0  0  0  0  0  0  0  0  0  0  # atno 17395 bound_to 11000

$$$$
