AV-unprocessed.smi:1285|AV-procd|sdf|5372|dock3
  -GOLD-   22720 4513D 1   1.00000     0.00000
 Structure written by MMmdl.
 47 48  0  0  0  0  0  0  0  0  2 V2000
  147.0941  131.4127  154.4078 C   0  0  0  0  0  0  0  0  0  0  0  0
  147.0703  132.8202  155.0303 C   0  0  0  0  0  0  0  0  0  0  0  0
  147.9054  133.9037  154.2799 C   0  0  2  0  0  0  0  0  0  0  0  0
  149.2662  133.2560  153.9083 C   0  0  0  0  0  0  0  0  0  0  0  0
  148.1456  135.1161  155.2341 C   0  0  0  0  0  0  0  0  0  0  0  0
  148.8944  136.2014  154.6047 N   0  0  0  0  0  0  0  0  0  0  0  0
  149.5245  137.1993  155.2445 C   0  0  0  0  0  0  0  0  0  0  0  0
  149.6144  137.2644  156.4709 O   0  0  0  0  0  0  0  0  0  0  0  0
  150.1022  138.3058  154.3495 C   0  0  2  0  0  0  0  0  0  0  0  0
  151.6047  138.5514  154.5860 C   0  0  0  0  0  0  0  0  0  0  0  0
  149.3279  139.5272  154.5277 N   0  0  0  0  0  0  0  0  0  0  0  0
  148.0451  139.7965  154.2693 C   0  0  0  0  0  0  0  0  0  0  0  0
  147.7022  141.0551  154.5047 N   0  0  0  0  0  0  0  0  0  0  0  0
  148.9041  141.5427  154.9330 C   0  0  0  0  0  0  0  0  0  0  0  0
  149.9133  140.6723  154.9549 N   0  0  0  0  0  0  0  0  0  0  0  0
  147.1856  134.3447  153.0295 N   0  3  0  0  0  0  0  0  0  0  0  0
  146.8651  133.2688  152.0491 C   0  0  0  0  0  0  0  0  0  0  0  0
  146.3285  133.8746  150.7422 C   0  0  0  0  0  0  0  0  0  0  0  0
  145.1730  134.6528  151.0192 O   0  0  0  0  0  0  0  0  0  0  0  0
  145.4665  135.7377  151.8882 C   0  0  0  0  0  0  0  0  0  0  0  0
  145.9844  135.2033  153.2343 C   0  0  0  0  0  0  0  0  0  0  0  0
  146.4827  130.7275  154.9953 H   0  0  0  0  0  0  0  0  0  0  0  0
  148.1018  130.9992  154.3786 H   0  0  0  0  0  0  0  0  0  0  0  0
  146.6982  131.4093  153.3923 H   0  0  0  0  0  0  0  0  0  0  0  0
  146.0347  133.1416  155.1363 H   0  0  0  0  0  0  0  0  0  0  0  0
  147.4289  132.7277  156.0563 H   0  0  0  0  0  0  0  0  0  0  0  0
  149.6975  132.7098  154.7477 H   0  0  0  0  0  0  0  0  0  0  0  0
  150.0069  134.0000  153.6144 H   0  0  0  0  0  0  0  0  0  0  0  0
  149.1671  132.5476  153.0855 H   0  0  0  0  0  0  0  0  0  0  0  0
  147.2042  135.4965  155.6313 H   0  0  0  0  0  0  0  0  0  0  0  0
  148.7320  134.8114  156.1002 H   0  0  0  0  0  0  0  0  0  0  0  0
  148.8789  136.2336  153.5952 H   0  0  0  0  0  0  0  0  0  0  0  0
  149.9844  137.9807  153.3141 H   0  0  0  0  0  0  0  0  0  0  0  0
  152.1839  137.6437  154.4118 H   0  0  0  0  0  0  0  0  0  0  0  0
  151.8090  138.8854  155.6041 H   0  0  0  0  0  0  0  0  0  0  0  0
  151.9849  139.3148  153.9067 H   0  0  0  0  0  0  0  0  0  0  0  0
  147.3516  139.0607  153.8891 H   0  0  0  0  0  0  0  0  0  0  0  0
  149.0415  142.5724  155.2294 H   0  0  0  0  0  0  0  0  0  0  0  0
  147.7419  132.6716  151.8076 H   0  0  0  0  0  0  0  0  0  0  0  0
  146.1162  132.5915  152.4603 H   0  0  0  0  0  0  0  0  0  0  0  0
  147.0894  134.4851  150.2533 H   0  0  0  0  0  0  0  0  0  0  0  0
  146.0591  133.0820  150.0439 H   0  0  0  0  0  0  0  0  0  0  0  0
  146.1975  136.4032  151.4259 H   0  0  0  0  0  0  0  0  0  0  0  0
  144.5588  136.3215  152.0412 H   0  0  0  0  0  0  0  0  0  0  0  0
  145.1946  134.6370  153.7282 H   0  0  0  0  0  0  0  0  0  0  0  0
  146.2049  136.0632  153.8636 H   0  0  0  0  0  0  0  0  0  0  0  0
  147.8510  134.9403  152.5573 H   0  0  0  0  0  0  0  0  0  0  0  0
  1  2  1  0  0  0  0
  1 22  1  0  0  0  0
  1 23  1  0  0  0  0
  1 24  1  0  0  0  0
  2  3  1  0  0  0  0
  2 25  1  0  0  0  0
  2 26  1  0  0  0  0
  3  4  1  0  0  0  0
  3  5  1  0  0  0  0
  3 16  1  0  0  0  0
  4 27  1  0  0  0  0
  4 28  1  0  0  0  0
  4 29  1  0  0  0  0
  5  6  1  0  0  0  0
  5 30  1  0  0  0  0
  5 31  1  0  0  0  0
  6  7  1  0  0  0  0
  6 32  1  0  0  0  0
  7  8  2  0  0  0  0
  7  9  1  0  0  0  0
  9 10  1  0  0  0  0
  9 11  1  0  0  0  0
  9 33  1  0  0  0  0
 10 34  1  0  0  0  0
 10 35  1  0  0  0  0
 10 36  1  0  0  0  0
 11 15  1  0  0  0  0
 11 12  1  0  0  0  0
 12 13  2  0  0  0  0
 12 37  1  0  0  0  0
 13 14  1  0  0  0  0
 14 15  2  0  0  0  0
 14 38  1  0  0  0  0
 16 21  1  0  0  0  0
 16 17  1  0  0  0  0
 16 47  1  0  0  0  0
 17 18  1  0  0  0  0
 17 39  1  0  0  0  0
 17 40  1  0  0  0  0
 18 19  1  0  0  0  0
 18 41  1  0  0  0  0
 18 42  1  0  0  0  0
 19 20  1  0  0  0  0
 20 21  1  0  0  0  0
 20 43  1  0  0  0  0
 20 44  1  0  0  0  0
 21 45  1  0  0  0  0
 21 46  1  0  0  0  0
M  CHG  1  16   1
M  END
> <s_m_source_file>
AV-unprocessed.smi

> <i_m_source_file_index>
1285

> <i_lp_mmshare_version>
43012

> <i_f3d_flags>
0

> <s_epik_input>
W0NIMl0xW0NIMl1PW0NIMl1bQ0gyXU4xW0NAQF0oW0NIM10pKFtDSDJdW0NIM10pW0NIMl1bTkhdQyg9TylbQ0BIXShbQ0gzXSluMltjSF1uW2NIXW4y

> <s_epik_cmdline>
J2VwaWtfcHl0aG9uJywgJy1waCcsICc3LjAnLCAnLXRuJywgJzgnLCAnLW1hJywgJzIwMCcsICctbWV0YWxfYmluZGluZycsICctaW1hZScsICc8aW5maWxlLm1hZT4nLCAnLW9tYWUnLCAnPG91dGZpbGUubWFlPic=

> <r_lp_tautomer_probability>
1

> <r_epik_Ionization_Penalty>
0.569304

> <r_epik_Ionization_Penalty_Charging>
0.569295

> <r_epik_Ionization_Penalty_Neutral>
8.22697e-06

> <r_epik_State_Penalty>
0.581114

> <r_epik_Charging_Adjusted_Penalty>
1.15041

> <i_epik_Tot_Q>
1

> <i_epik_Tot_abs_Q>
1

> <r_epik_Metal_State_Penalty>
0.581117

> <b_epik_Metal_Only>
0

> <s_lp_Force_Field>
OPLS_2005

> <r_lp_Energy>
32.2271

> <b_lp_Chiralities_Consistent>
1

> <s_lp_Variant>
AV-unprocessed.smi:1285-6

> <Gold.Version>
5.8.1

> <Gold.Id.Protein>
6NUR|6NUR_protein|mol2

> <Gold.PLP.Fitness>
45.8395

> <Gold.PLP.PLP>
-31.5973

> <Gold.PLP.part.hbond>
-3.0000

> <Gold.PLP.part.metal>
0.0000

> <Gold.PLP.part.buried>
-4.4803

> <Gold.PLP.part.nonpolar>
-24.7800

> <Gold.PLP.part.repulsive>
0.4243

> <Gold.PLP.ligand.clash>
0.0000

> <Gold.PLP.ligand.torsion>
0.5839

> <Gold.PLP.Chemscore.Hbond>
4.0000

> <Gold.PLP.Chemscore.CHOScore>
1.0000

> <Gold.PLP.Chemscore.Metal>
0.0000

> <Gold.Chemscore.Hbonds>
donor molecule, donor type, donor heavy atom, donor atom, acceptor molecule, acceptor atom, score
      L1  H     6    32       P1  7948  1.00
      L1  H    16    47       P1  7948  2.00
      P1  H  7989  7998       L1    15  0.37
      L1  C    14    38       P1  8028  1.00

> <Gold.PLP.Chemscore.Internal.Correction>
0.4101

> <Gold.Rescore>
     Score         DG    S(hbond)    S(metal)    S(lipo)     H(rot)  DE(clash)    DE(int)     intcor
     13.08     -13.77       2.84        0.00      50.12       2.76       0.01       0.69       ----

> <Gold.Chemscore.Fitness>
13.0772

> <Gold.Chemscore.DG>
-13.7730

> <Gold.Chemscore.ZeroCoef>
-5.4800

> <Gold.Chemscore.Hbond>
2.8417

> <Gold.Chemscore.Metal>
0.0000

> <Gold.Chemscore.Lipo>
50.1226

> <Gold.Chemscore.Internal_Hbond>
0.0000

> <Gold.Chemscore.DEClash>
0.0073

> <Gold.Chemscore.DEInternal>
0.6884

> <Gold.Chemscore.Rot>
2.7589

> <Gold.Chemscore.Internal.Correction>
   9.000000E+99

> <Gold.Chemscore.Hbonds>
donor molecule, donor type, donor heavy atom, donor atom, acceptor molecule, acceptor atom, score
      L1  H     6    32       P1  7948  1.00
      L1  H    16    47       P1  7948  0.93
      P1  H  7989  7998       L1    15  0.12

> <Gold.Chemscore.Hbond.Weighted>
-9.4913

> <Gold.Chemscore.Metal.Weighted>
-0.0000

> <Gold.Chemscore.Lipo.Weighted>
-5.8643

> <Gold.Chemscore.Internal_Hbond.Weighted>
0.0000

> <Gold.Chemscore.DEClash.Weighted>
0.0073

> <Gold.Chemscore.DEInternal.Weighted>
0.6884

> <Gold.Chemscore.Rot.Weighted>
7.0627

> <Gold.Chemscore.Internal.Correction.Weighted>
   9.000000E+99

> <Gold.Protein.RotatedTorsions>
[ 6907 6896 6895 6894 ] final -108.44 input  -60.11 | X-H torsion
[ 7974 7965 7964 7962 ] final  100.87 input  175.53 | X-H torsion
[ 8008 7997 7996 7995 ] final  -69.65 input   59.86 | X-H torsion
[ 10167 10162 10161 10158 ] final   65.06 input  -65.29 | X-H torsion
[ 10718 10713 10712 10709 ] final  160.58 input   66.30 | X-H torsion
[ 10763 10752 10751 10750 ] final  -41.29 input  -60.55 | X-H torsion
[ 11005 11000 10999 10996 ] final  -40.62 input  -57.11 | X-H torsion

> <Gold.Protein.ActiveResidues>
 VAL166  LYS551  ARG553  GLY616  TRP617  ASP618  TYR619  PRO620  LYS621  CYS622 
 ASP623  PHE694  ASN695  SER759  ASP760  ASP761  ALA762  ILE779  LEU786  VAL792 
 PHE793  MET794  SER795  GLU796  ALA797  LYS798  CYS799  TRP800  GLU811  SER814 

> <Gold.Protein.RotatedAtoms>
  150.7502  133.9678  159.3535 H   0  0  0  0  0  0  0  0  0  0  0  0  # atno 6907 bound_to 6896
  151.7609  135.0808  160.0355 H   0  0  0  0  0  0  0  0  0  0  0  0  # atno 6908 bound_to 6896
  152.3404  133.6023  159.5908 H   0  0  0  0  0  0  0  0  0  0  0  0  # atno 6909 bound_to 6896
  145.3799  139.2382  143.3409 H   0  0  0  0  0  0  0  0  0  0  0  0  # atno 7974 bound_to 7965
  154.4954  140.0849  156.7684 H   0  0  0  0  0  0  0  0  0  0  0  0  # atno 8008 bound_to 7997
  155.4130  140.3442  155.4247 H   0  0  0  0  0  0  0  0  0  0  0  0  # atno 8009 bound_to 7997
  156.1386  140.1522  156.8943 H   0  0  0  0  0  0  0  0  0  0  0  0  # atno 8010 bound_to 7997
  140.1154  144.4780  150.6952 H   0  0  0  0  0  0  0  0  0  0  0  0  # atno 10167 bound_to 10162
  157.1484  131.0558  151.2292 H   0  0  0  0  0  0  0  0  0  0  0  0  # atno 10718 bound_to 10713
  153.9600  135.6740  153.4745 H   0  0  0  0  0  0  0  0  0  0  0  0  # atno 10763 bound_to 10752
  153.0842  135.4907  154.8561 H   0  0  0  0  0  0  0  0  0  0  0  0  # atno 10764 bound_to 10752
  154.7278  135.3131  154.8902 H   0  0  0  0  0  0  0  0  0  0  0  0  # atno 10765 bound_to 10752
  141.0187  133.6873  156.2346 H   0  0  0  0  0  0  0  0  0  0  0  0  # atno 11005 bound_to 11000
  146.2847  140.4464  142.8762 LP  0  0  0  0  0  0  0  0  0  0  0  0  # atno 17320 bound_to 7965
  144.8515  140.7008  143.6165 LP  0  0  0  0  0  0  0  0  0  0  0  0  # atno 17321 bound_to 7965
  140.6902  143.2372  151.5152 LP  0  0  0  0  0  0  0  0  0  0  0  0  # atno 17342 bound_to 10162
  139.5597  144.2188  152.1670 LP  0  0  0  0  0  0  0  0  0  0  0  0  # atno 17343 bound_to 10162
  157.4243  130.7455  149.6938 LP  0  0  0  0  0  0  0  0  0  0  0  0  # atno 17370 bound_to 10713
  155.9775  130.4062  150.3708 LP  0  0  0  0  0  0  0  0  0  0  0  0  # atno 17371 bound_to 10713
  140.6609  134.4968  157.5583 LP  0  0  0  0  0  0  0  0  0  0  0  0  # atno 17394 bound_to 11000
  139.9133  134.8299  156.1453 LP  0  0  0  0  0  0  0  0  0  0  0  0  # atno 17395 bound_to 11000

$$$$
