AV-unprocessed.smi:2840|AV-procd|sdf|10934|dock3
  -GOLD-   2272015383D 1   1.00000     0.00000
 Structure written by MMmdl.
 36 37  0  0  0  0  0  0  0  0  1 V2000
  150.9958  145.2616  158.5909 C   0  0  0  0  0  0  0  0  0  0  0  0
  151.8810  144.0030  158.5545 C   0  0  1  0  0  0  0  0  0  0  0  0
  152.8023  143.9593  159.7906 C   0  0  0  0  0  0  0  0  0  0  0  0
  153.7102  142.7206  159.7866 C   0  0  0  0  0  0  0  0  0  0  0  0
  152.8817  141.4325  159.6953 C   0  0  0  0  0  0  0  0  0  0  0  0
  151.9722  141.4520  158.4585 C   0  0  0  0  0  0  0  0  0  0  0  0
  151.0581  142.6933  158.4397 C   0  0  2  0  0  0  0  0  0  0  0  0
  150.2724  142.6763  157.2063 N   0  0  0  0  0  0  0  0  0  0  0  0
  149.7025  141.5974  156.6486 C   0  0  0  0  0  0  0  0  0  0  0  0
  149.7671  140.4655  157.1289 O   0  0  0  0  0  0  0  0  0  0  0  0
  149.0621  141.9241  155.5124 N   0  0  0  0  0  0  0  0  0  0  0  0
  148.3246  141.0763  154.6437 C   0  0  0  0  0  0  0  0  0  0  0  0
  148.6928  139.7125  154.6848 C   0  0  0  0  0  0  0  0  0  0  0  0
  148.0243  138.7891  153.8580 C   0  0  0  0  0  0  0  0  0  0  0  0
  147.0028  139.2536  153.0103 C   0  0  0  0  0  0  0  0  0  0  0  0
  146.6985  140.6273  153.0300 C   0  0  0  0  0  0  0  0  0  0  0  0
  147.3384  141.5140  153.8214 N   0  0  0  0  0  0  0  0  0  0  0  0
  150.2977  145.2280  159.4280 H   0  0  0  0  0  0  0  0  0  0  0  0
  150.4136  145.3729  157.6764 H   0  0  0  0  0  0  0  0  0  0  0  0
  151.6000  146.1628  158.6983 H   0  0  0  0  0  0  0  0  0  0  0  0
  152.5194  144.0790  157.6726 H   0  0  0  0  0  0  0  0  0  0  0  0
  153.4179  144.8587  159.8287 H   0  0  0  0  0  0  0  0  0  0  0  0
  152.1987  143.9619  160.6995 H   0  0  0  0  0  0  0  0  0  0  0  0
  154.4004  142.7743  158.9438 H   0  0  0  0  0  0  0  0  0  0  0  0
  154.3228  142.7052  160.6885 H   0  0  0  0  0  0  0  0  0  0  0  0
  153.5430  140.5665  159.6573 H   0  0  0  0  0  0  0  0  0  0  0  0
  152.2754  141.3210  160.5951 H   0  0  0  0  0  0  0  0  0  0  0  0
  152.5894  141.4324  157.5590 H   0  0  0  0  0  0  0  0  0  0  0  0
  151.3681  140.5440  158.4365 H   0  0  0  0  0  0  0  0  0  0  0  0
  150.3967  142.6280  159.3060 H   0  0  0  0  0  0  0  0  0  0  0  0
  150.1583  143.5626  156.7370 H   0  0  0  0  0  0  0  0  0  0  0  0
  149.1041  142.8944  155.2382 H   0  0  0  0  0  0  0  0  0  0  0  0
  149.4800  139.3726  155.3425 H   0  0  0  0  0  0  0  0  0  0  0  0
  148.2919  137.7431  153.8743 H   0  0  0  0  0  0  0  0  0  0  0  0
  146.4675  138.5759  152.3618 H   0  0  0  0  0  0  0  0  0  0  0  0
  145.9220  141.0251  152.3934 H   0  0  0  0  0  0  0  0  0  0  0  0
  1  2  1  0  0  0  0
  1 18  1  0  0  0  0
  1 19  1  0  0  0  0
  1 20  1  0  0  0  0
  2  7  1  0  0  0  0
  2  3  1  0  0  0  0
  2 21  1  0  0  0  0
  3  4  1  0  0  0  0
  3 22  1  0  0  0  0
  3 23  1  0  0  0  0
  4  5  1  0  0  0  0
  4 24  1  0  0  0  0
  4 25  1  0  0  0  0
  5  6  1  0  0  0  0
  5 26  1  0  0  0  0
  5 27  1  0  0  0  0
  6  7  1  0  0  0  0
  6 28  1  0  0  0  0
  6 29  1  0  0  0  0
  7  8  1  0  0  0  0
  7 30  1  0  0  0  0
  8  9  1  0  0  0  0
  8 31  1  0  0  0  0
  9 10  2  0  0  0  0
  9 11  1  0  0  0  0
 11 12  1  0  0  0  0
 11 32  1  0  0  0  0
 12 17  1  0  0  0  0
 12 13  2  0  0  0  0
 13 14  1  0  0  0  0
 13 33  1  0  0  0  0
 14 15  2  0  0  0  0
 14 34  1  0  0  0  0
 15 16  1  0  0  0  0
 15 35  1  0  0  0  0
 16 17  2  0  0  0  0
 16 36  1  0  0  0  0
M  END
> <s_m_source_file>
AV-unprocessed.smi

> <i_m_source_file_index>
2840

> <i_lp_mmshare_version>
43012

> <i_f3d_flags>
0

> <s_epik_input>
W0NIM11bQ0BASF0xW0NIMl1bQ0gyXVtDSDJdW0NIMl1bQ0BIXTFbTkhdQyg9TylbTkhdYzJbY0hdW2NIXVtjSF1bY0hdbjI=

> <s_epik_cmdline>
J2VwaWtfcHl0aG9uJywgJy1waCcsICc3LjAnLCAnLXRuJywgJzgnLCAnLW1hJywgJzIwMCcsICctbWV0YWxfYmluZGluZycsICctaW1hZScsICc8aW5maWxlLm1hZT4nLCAnLW9tYWUnLCAnPG91dGZpbGUubWFlPic=

> <r_lp_tautomer_probability>
1

> <r_epik_Ionization_Penalty>
5.29956e-05

> <r_epik_Ionization_Penalty_Charging>
0

> <r_epik_Ionization_Penalty_Neutral>
5.29956e-05

> <r_epik_State_Penalty>
-0

> <r_epik_Charging_Adjusted_Penalty>
0

> <i_epik_Tot_Q>
0

> <i_epik_Tot_abs_Q>
0

> <r_epik_Metal_State_Penalty>
-0

> <b_epik_Metal_Only>
0

> <s_lp_Force_Field>
OPLS_2005

> <r_lp_Energy>
13.2298

> <b_lp_Chiralities_Consistent>
1

> <s_lp_Variant>
AV-unprocessed.smi:2840-4

> <Gold.Version>
5.8.1

> <Gold.Id.Protein>
6NUR|6NUR_protein|mol2

> <Gold.PLP.Fitness>
40.7564

> <Gold.PLP.PLP>
-34.0413

> <Gold.PLP.part.hbond>
-2.0000

> <Gold.PLP.part.metal>
0.0000

> <Gold.PLP.part.buried>
-3.1136

> <Gold.PLP.part.nonpolar>
-29.0453

> <Gold.PLP.part.repulsive>
0.3491

> <Gold.PLP.ligand.clash>
0.0000

> <Gold.PLP.ligand.torsion>
0.3727

> <Gold.PLP.Chemscore.Hbond>
1.9040

> <Gold.PLP.Chemscore.CHOScore>
0.5815

> <Gold.PLP.Chemscore.Metal>
0.0000

> <Gold.Chemscore.Hbonds>
donor molecule, donor type, donor heavy atom, donor atom, acceptor molecule, acceptor atom, score
      L1  H     8    31       P1  8028  0.91
      L1  H    11    32       P1  8028  1.00
      L1  C    16    36       P1 10175  0.61

> <Gold.PLP.Chemscore.Internal.Correction>
0.0040

> <Gold.Rescore>
     Score         DG    S(hbond)    S(metal)    S(lipo)     H(rot)  DE(clash)    DE(int)     intcor
     17.73     -21.12       1.93        0.00     100.57       1.00       0.10       3.29       ----

> <Gold.Chemscore.Fitness>
17.7265

> <Gold.Chemscore.DG>
-21.1194

> <Gold.Chemscore.ZeroCoef>
-5.4800

> <Gold.Chemscore.Hbond>
1.9260

> <Gold.Chemscore.Metal>
0.0000

> <Gold.Chemscore.Lipo>
100.5683

> <Gold.Chemscore.Internal_Hbond>
0.0000

> <Gold.Chemscore.DEClash>
0.1040

> <Gold.Chemscore.DEInternal>
3.2890

> <Gold.Chemscore.Rot>
1.0000

> <Gold.Chemscore.Internal.Correction>
   9.000000E+99

> <Gold.Chemscore.Hbonds>
donor molecule, donor type, donor heavy atom, donor atom, acceptor molecule, acceptor atom, score
      L1  H     8    31       P1  8028  0.85
      L1  H    11    32       P1  8028  0.95

> <Gold.Chemscore.Hbond.Weighted>
-6.4329

> <Gold.Chemscore.Metal.Weighted>
-0.0000

> <Gold.Chemscore.Lipo.Weighted>
-11.7665

> <Gold.Chemscore.Internal_Hbond.Weighted>
0.0000

> <Gold.Chemscore.DEClash.Weighted>
0.1040

> <Gold.Chemscore.DEInternal.Weighted>
3.2890

> <Gold.Chemscore.Rot.Weighted>
2.5600

> <Gold.Chemscore.Internal.Correction.Weighted>
   9.000000E+99

> <Gold.Protein.RotatedTorsions>
[ 6907 6896 6895 6894 ] final   66.45 input  -60.11 | X-H torsion
[ 7974 7965 7964 7962 ] final    0.73 input  175.53 | X-H torsion
[ 8008 7997 7996 7995 ] final -116.24 input   59.86 | X-H torsion
[ 10167 10162 10161 10158 ] final  158.68 input  -65.29 | X-H torsion
[ 10718 10713 10712 10709 ] final  -78.54 input   66.30 | X-H torsion
[ 10763 10752 10751 10750 ] final    1.88 input  -60.55 | X-H torsion
[ 11005 11000 10999 10996 ] final   50.40 input  -57.11 | X-H torsion

> <Gold.Protein.ActiveResidues>
 VAL166  LYS551  ARG553  GLY616  TRP617  ASP618  TYR619  PRO620  LYS621  CYS622 
 ASP623  PHE694  ASN695  SER759  ASP760  ASP761  ALA762  ILE779  LEU786  VAL792 
 PHE793  MET794  SER795  GLU796  ALA797  LYS798  CYS799  TRP800  GLU811  SER814 

> <Gold.Protein.RotatedAtoms>
  152.4482  134.5450  159.9850 H   0  0  0  0  0  0  0  0  0  0  0  0  # atno 6907 bound_to 6896
  151.5530  133.3409  159.2964 H   0  0  0  0  0  0  0  0  0  0  0  0  # atno 6908 bound_to 6896
  150.8403  134.7725  159.6990 H   0  0  0  0  0  0  0  0  0  0  0  0  # atno 6909 bound_to 6896
  146.2436  140.1094  142.8344 H   0  0  0  0  0  0  0  0  0  0  0  0  # atno 7974 bound_to 7965
  155.0647  140.0393  157.2588 H   0  0  0  0  0  0  0  0  0  0  0  0  # atno 8008 bound_to 7997
  154.7031  140.2677  155.6676 H   0  0  0  0  0  0  0  0  0  0  0  0  # atno 8009 bound_to 7997
  156.2766  140.2736  156.1648 H   0  0  0  0  0  0  0  0  0  0  0  0  # atno 8010 bound_to 7997
  139.4828  144.4802  151.8455 H   0  0  0  0  0  0  0  0  0  0  0  0  # atno 10167 bound_to 10162
  156.0115  130.4521  150.3512 H   0  0  0  0  0  0  0  0  0  0  0  0  # atno 10718 bound_to 10713
  153.3025  135.6957  153.7190 H   0  0  0  0  0  0  0  0  0  0  0  0  # atno 10763 bound_to 10752
  153.6099  135.3446  155.2975 H   0  0  0  0  0  0  0  0  0  0  0  0  # atno 10764 bound_to 10752
  154.8554  135.4361  154.2140 H   0  0  0  0  0  0  0  0  0  0  0  0  # atno 10765 bound_to 10752
  140.1020  134.5068  155.8754 H   0  0  0  0  0  0  0  0  0  0  0  0  # atno 11005 bound_to 11000
  145.0500  140.9010  143.5001 LP  0  0  0  0  0  0  0  0  0  0  0  0  # atno 17320 bound_to 7965
  145.1190  139.2706  143.5598 LP  0  0  0  0  0  0  0  0  0  0  0  0  # atno 17321 bound_to 7965
  140.4277  144.2157  150.5887 LP  0  0  0  0  0  0  0  0  0  0  0  0  # atno 17342 bound_to 10162
  140.4810  143.2379  151.8955 LP  0  0  0  0  0  0  0  0  0  0  0  0  # atno 17343 bound_to 10162
  157.1604  131.0343  151.2843 LP  0  0  0  0  0  0  0  0  0  0  0  0  # atno 17370 bound_to 10713
  157.4316  130.7493  149.6995 LP  0  0  0  0  0  0  0  0  0  0  0  0  # atno 17371 bound_to 10713
  141.2108  133.6699  156.6537 LP  0  0  0  0  0  0  0  0  0  0  0  0  # atno 17394 bound_to 11000
  140.3207  134.8010  157.4250 LP  0  0  0  0  0  0  0  0  0  0  0  0  # atno 17395 bound_to 11000

$$$$
