AV-unprocessed.smi:1169|AV-procd|sdf|4940|dock9
  -GOLD-   22720 3523D 1   1.00000     0.00000
 Structure written by MMmdl.
 29 30  0  0  0  0  0  0  0  0  1 V2000
  152.4462  140.0038  155.2814 O   0  0  0  0  0  0  0  0  0  0  0  0
  151.9247  140.3367  156.3453 C   0  0  0  0  0  0  0  0  0  0  0  0
  152.5322  139.8597  157.6700 C   0  0  0  0  0  0  0  0  0  0  0  0
  152.6024  140.9174  158.6656 N   0  0  0  0  0  0  0  0  0  0  0  0
  153.1727  140.8760  159.9198 C   0  0  0  0  0  0  0  0  0  0  0  0
  152.9826  142.1005  160.4921 C   0  0  0  0  0  0  0  0  0  0  0  0
  152.2789  142.8425  159.4993 C   0  0  0  0  0  0  0  0  0  0  0  0
  151.7936  144.2666  159.5660 C   0  0  0  0  0  0  0  0  0  0  0  0
  150.4707  144.3121  159.4093 F   0  0  0  0  0  0  0  0  0  0  0  0
  152.1038  144.7981  160.7482 F   0  0  0  0  0  0  0  0  0  0  0  0
  152.3640  144.9875  158.6009 F   0  0  0  0  0  0  0  0  0  0  0  0
  152.0573  142.1253  158.4059 N   0  0  0  0  0  0  0  0  0  0  0  0
  150.8160  141.0916  156.4144 N   0  0  0  0  0  0  0  0  0  0  0  0
  150.0839  141.6162  155.2700 C   0  0  0  0  0  0  0  0  0  0  0  0
  148.6425  141.1551  155.1745 C   0  0  0  0  0  0  0  0  0  0  0  0
  148.2226  140.1638  154.1149 C   0  0  0  0  0  0  0  0  0  0  0  0
  147.7587  141.5987  154.0326 C   0  0  0  0  0  0  0  0  0  0  0  0
  151.9309  139.0410  158.0665 H   0  0  0  0  0  0  0  0  0  0  0  0
  153.5361  139.4667  157.5006 H   0  0  0  0  0  0  0  0  0  0  0  0
  153.6569  139.9876  160.2979 H   0  0  0  0  0  0  0  0  0  0  0  0
  153.2986  142.4197  161.4742 H   0  0  0  0  0  0  0  0  0  0  0  0
  150.4540  141.3186  157.3292 H   0  0  0  0  0  0  0  0  0  0  0  0
  150.1086  142.7050  155.3256 H   0  0  0  0  0  0  0  0  0  0  0  0
  150.5996  141.3475  154.3466 H   0  0  0  0  0  0  0  0  0  0  0  0
  148.1546  141.0388  156.1406 H   0  0  0  0  0  0  0  0  0  0  0  0
  148.9738  139.8378  153.3982 H   0  0  0  0  0  0  0  0  0  0  0  0
  147.4866  139.4124  154.3934 H   0  0  0  0  0  0  0  0  0  0  0  0
  146.7144  141.8046  154.2586 H   0  0  0  0  0  0  0  0  0  0  0  0
  148.2014  142.2271  153.2624 H   0  0  0  0  0  0  0  0  0  0  0  0
  1  2  2  0  0  0  0
  2  3  1  0  0  0  0
  2 13  1  0  0  0  0
  3  4  1  0  0  0  0
  3 18  1  0  0  0  0
  3 19  1  0  0  0  0
  4 12  1  0  0  0  0
  4  5  1  0  0  0  0
  5  6  2  0  0  0  0
  5 20  1  0  0  0  0
  6  7  1  0  0  0  0
  6 21  1  0  0  0  0
  7  8  1  0  0  0  0
  7 12  2  0  0  0  0
  8  9  1  0  0  0  0
  8 10  1  0  0  0  0
  8 11  1  0  0  0  0
 13 14  1  0  0  0  0
 13 22  1  0  0  0  0
 14 15  1  0  0  0  0
 14 23  1  0  0  0  0
 14 24  1  0  0  0  0
 15 17  1  0  0  0  0
 15 16  1  0  0  0  0
 15 25  1  0  0  0  0
 16 17  1  0  0  0  0
 16 26  1  0  0  0  0
 16 27  1  0  0  0  0
 17 28  1  0  0  0  0
 17 29  1  0  0  0  0
M  END
> <s_m_source_file>
AV-unprocessed.smi

> <i_m_source_file_index>
1169

> <i_lp_mmshare_version>
43012

> <i_f3d_flags>
0

> <s_epik_input>
W0NIMl0xW0NIMl1bQ0hdMVtDSDJdW05IXUMoPU8pW0NIMl1uMltjSF1bY0hdYyhuMilDKEYpKEYpRg==

> <s_epik_cmdline>
J2VwaWtfcHl0aG9uJywgJy1waCcsICc3LjAnLCAnLXRuJywgJzgnLCAnLW1hJywgJzIwMCcsICctbWV0YWxfYmluZGluZycsICctaW1hZScsICc8aW5maWxlLm1hZT4nLCAnLW9tYWUnLCAnPG91dGZpbGUubWFlPic=

> <r_lp_tautomer_probability>
1

> <r_epik_Ionization_Penalty>
8.05593e-08

> <r_epik_Ionization_Penalty_Charging>
0

> <r_epik_Ionization_Penalty_Neutral>
8.05593e-08

> <r_epik_State_Penalty>
-0

> <r_epik_Charging_Adjusted_Penalty>
0

> <i_epik_Tot_Q>
0

> <i_epik_Tot_abs_Q>
0

> <r_epik_Metal_State_Penalty>
-0

> <b_epik_Metal_Only>
0

> <s_lp_Force_Field>
OPLS_2005

> <r_lp_Energy>
14.9907

> <b_lp_Chiralities_Consistent>
1

> <s_lp_Variant>
AV-unprocessed.smi:1169-1

> <Gold.Version>
5.8.1

> <Gold.Id.Protein>
6NUR|6NUR_protein|mol2

> <Gold.PLP.Fitness>
44.7923

> <Gold.PLP.PLP>
-42.2698

> <Gold.PLP.part.hbond>
-1.7105

> <Gold.PLP.part.metal>
0.0000

> <Gold.PLP.part.buried>
-3.7338

> <Gold.PLP.part.nonpolar>
-34.8537

> <Gold.PLP.part.repulsive>
0.0882

> <Gold.PLP.ligand.clash>
0.0000

> <Gold.PLP.ligand.torsion>
0.5648

> <Gold.PLP.Chemscore.Hbond>
1.0369

> <Gold.PLP.Chemscore.CHOScore>
0.0000

> <Gold.PLP.Chemscore.Metal>
0.0000

> <Gold.Chemscore.Hbonds>
donor molecule, donor type, donor heavy atom, donor atom, acceptor molecule, acceptor atom, score
      P1  H  7989  7998       L1     1  0.49
      P1  H  7997  8010       L1     1  0.65

> <Gold.PLP.Chemscore.Internal.Correction>
0.5416

> <Gold.Rescore>
     Score         DG    S(hbond)    S(metal)    S(lipo)     H(rot)  DE(clash)    DE(int)     intcor
     11.53     -12.11       0.80        0.00      73.95       1.84       0.02       0.56       ----

> <Gold.Chemscore.Fitness>
11.5308

> <Gold.Chemscore.DG>
-12.1056

> <Gold.Chemscore.ZeroCoef>
-5.4800

> <Gold.Chemscore.Hbond>
0.8003

> <Gold.Chemscore.Metal>
0.0000

> <Gold.Chemscore.Lipo>
73.9538

> <Gold.Chemscore.Internal_Hbond>
0.0000

> <Gold.Chemscore.DEClash>
0.0164

> <Gold.Chemscore.DEInternal>
0.5584

> <Gold.Chemscore.Rot>
1.8359

> <Gold.Chemscore.Internal.Correction>
   9.000000E+99

> <Gold.Chemscore.Hbonds>
donor molecule, donor type, donor heavy atom, donor atom, acceptor molecule, acceptor atom, score
      P1  H  7989  7998       L1     1  0.46
      P1  H  7997  8010       L1     1  0.08

> <Gold.Chemscore.Hbond.Weighted>
-2.6730

> <Gold.Chemscore.Metal.Weighted>
-0.0000

> <Gold.Chemscore.Lipo.Weighted>
-8.6526

> <Gold.Chemscore.Internal_Hbond.Weighted>
0.0000

> <Gold.Chemscore.DEClash.Weighted>
0.0164

> <Gold.Chemscore.DEInternal.Weighted>
0.5584

> <Gold.Chemscore.Rot.Weighted>
4.7000

> <Gold.Chemscore.Internal.Correction.Weighted>
   9.000000E+99

> <Gold.Protein.RotatedTorsions>
[ 6907 6896 6895 6894 ] final -123.27 input  -60.11 | X-H torsion
[ 7974 7965 7964 7962 ] final -105.37 input  175.53 | X-H torsion
[ 8008 7997 7996 7995 ] final   98.46 input   59.86 | X-H torsion
[ 10167 10162 10161 10158 ] final  171.98 input  -65.29 | X-H torsion
[ 10718 10713 10712 10709 ] final  128.36 input   66.30 | X-H torsion
[ 10763 10752 10751 10750 ] final  -11.77 input  -60.55 | X-H torsion
[ 11005 11000 10999 10996 ] final  105.13 input  -57.11 | X-H torsion

> <Gold.Protein.ActiveResidues>
 VAL166  LYS551  ARG553  GLY616  TRP617  ASP618  TYR619  PRO620  LYS621  CYS622 
 ASP623  PHE694  ASN695  SER759  ASP760  ASP761  ALA762  ILE779  LEU786  VAL792 
 PHE793  MET794  SER795  GLU796  ALA797  LYS798  CYS799  TRP800  GLU811  SER814 

> <Gold.Protein.RotatedAtoms>
  150.8655  133.7581  159.2978 H   0  0  0  0  0  0  0  0  0  0  0  0  # atno 6907 bound_to 6896
  151.5210  135.1065  159.9888 H   0  0  0  0  0  0  0  0  0  0  0  0  # atno 6908 bound_to 6896
  152.4657  133.7874  159.6939 H   0  0  0  0  0  0  0  0  0  0  0  0  # atno 6909 bound_to 6896
  145.2313  140.9171  143.3203 H   0  0  0  0  0  0  0  0  0  0  0  0  # atno 7974 bound_to 7965
  156.1007  140.3243  155.7938 H   0  0  0  0  0  0  0  0  0  0  0  0  # atno 8008 bound_to 7997
  155.4842  140.0556  157.2980 H   0  0  0  0  0  0  0  0  0  0  0  0  # atno 8009 bound_to 7997
  154.4695  140.2004  156.0047 H   0  0  0  0  0  0  0  0  0  0  0  0  # atno 8010 bound_to 7997
  139.5063  144.3425  152.0004 H   0  0  0  0  0  0  0  0  0  0  0  0  # atno 10167 bound_to 10162
  157.5251  131.1098  150.9094 H   0  0  0  0  0  0  0  0  0  0  0  0  # atno 10718 bound_to 10713
  153.4887  135.7017  153.5896 H   0  0  0  0  0  0  0  0  0  0  0  0  # atno 10763 bound_to 10752
  153.4078  135.3856  155.2030 H   0  0  0  0  0  0  0  0  0  0  0  0  # atno 10764 bound_to 10752
  154.8718  135.3897  154.4345 H   0  0  0  0  0  0  0  0  0  0  0  0  # atno 10765 bound_to 10752
  139.8799  134.9325  156.5467 H   0  0  0  0  0  0  0  0  0  0  0  0  # atno 11005 bound_to 11000
  144.9674  139.3916  143.6326 LP  0  0  0  0  0  0  0  0  0  0  0  0  # atno 17320 bound_to 7965
  146.3352  139.8755  142.8833 LP  0  0  0  0  0  0  0  0  0  0  0  0  # atno 17321 bound_to 7965
  140.2863  144.3804  150.6103 LP  0  0  0  0  0  0  0  0  0  0  0  0  # atno 17342 bound_to 10162
  140.5980  143.2167  151.7126 LP  0  0  0  0  0  0  0  0  0  0  0  0  # atno 17343 bound_to 10162
  156.9693  130.5485  149.5289 LP  0  0  0  0  0  0  0  0  0  0  0  0  # atno 17370 bound_to 10713
  156.0381  130.5467  150.8704 LP  0  0  0  0  0  0  0  0  0  0  0  0  # atno 17371 bound_to 10713
  140.8271  133.8308  155.8949 LP  0  0  0  0  0  0  0  0  0  0  0  0  # atno 17394 bound_to 11000
  140.9364  134.1956  157.4828 LP  0  0  0  0  0  0  0  0  0  0  0  0  # atno 17395 bound_to 11000

$$$$
