AV-unprocessed.smi:802|AV-procd|sdf|3791|dock1
  -GOLD-   22720 1223D 1   1.00000     0.00000
 Structure written by MMmdl.
 38 39  0  0  0  0  0  0  0  0  1 V2000
  144.2766  144.0763  155.1037 C   0  0  0  0  0  0  0  0  0  0  0  0
  145.4700  143.1734  154.9999 C   0  0  0  0  0  0  0  0  0  0  0  0
  146.1055  142.6782  153.8284 C   0  0  0  0  0  0  0  0  0  0  0  0
  147.1207  141.9048  154.3154 C   0  0  0  0  0  0  0  0  0  0  0  0
  148.1750  141.0795  153.6598 C   0  0  0  0  0  0  0  0  0  0  0  0
  149.3253  140.4326  154.9430 S   0  0  0  0  0  0  0  0  0  0  0  0
  148.5822  139.5508  155.8557 O   0  0  0  0  0  0  0  0  0  0  0  0
  150.5386  139.9410  154.2719 O   0  0  0  0  0  0  0  0  0  0  0  0
  149.7391  141.8581  155.8241 N   0  0  0  0  0  0  0  0  0  0  0  0
  149.8498  141.7885  157.2842 C   0  0  0  0  0  0  0  0  0  0  0  0
  151.1780  142.3873  157.7920 C   0  0  0  0  0  0  0  0  0  0  0  0
  151.5250  141.9344  159.2261 C   0  0  0  0  0  0  0  0  0  0  0  0
  152.8872  142.4873  159.6769 C   0  0  0  0  0  0  0  0  0  0  0  0
  152.9357  144.0186  159.5559 C   0  0  0  0  0  0  0  0  0  0  0  0
  152.6003  144.4736  158.1268 C   0  0  0  0  0  0  0  0  0  0  0  0
  151.2379  143.9250  157.6722 C   0  0  0  0  0  0  0  0  0  0  0  0
  147.1165  141.9256  155.6732 O   0  0  0  0  0  0  0  0  0  0  0  0
  146.0595  142.7364  156.1005 N   0  0  0  0  0  0  0  0  0  0  0  0
  144.0500  144.5400  154.1436 H   0  0  0  0  0  0  0  0  0  0  0  0
  144.4464  144.8759  155.8255 H   0  0  0  0  0  0  0  0  0  0  0  0
  143.3934  143.5214  155.4211 H   0  0  0  0  0  0  0  0  0  0  0  0
  145.8520  142.8562  152.7939 H   0  0  0  0  0  0  0  0  0  0  0  0
  147.7349  140.2351  153.1294 H   0  0  0  0  0  0  0  0  0  0  0  0
  148.7449  141.6723  152.9445 H   0  0  0  0  0  0  0  0  0  0  0  0
  149.1654  142.6504  155.5358 H   0  0  0  0  0  0  0  0  0  0  0  0
  149.0084  142.3284  157.7191 H   0  0  0  0  0  0  0  0  0  0  0  0
  149.7500  140.7534  157.6132 H   0  0  0  0  0  0  0  0  0  0  0  0
  151.9565  141.9900  157.1388 H   0  0  0  0  0  0  0  0  0  0  0  0
  150.7547  142.2703  159.9216 H   0  0  0  0  0  0  0  0  0  0  0  0
  151.5375  140.8453  159.2816 H   0  0  0  0  0  0  0  0  0  0  0  0
  153.0867  142.1893  160.7065 H   0  0  0  0  0  0  0  0  0  0  0  0
  153.6790  142.0480  159.0688 H   0  0  0  0  0  0  0  0  0  0  0  0
  152.2281  144.4635  160.2566 H   0  0  0  0  0  0  0  0  0  0  0  0
  153.9233  144.3829  159.8402 H   0  0  0  0  0  0  0  0  0  0  0  0
  152.5976  145.5628  158.0754 H   0  0  0  0  0  0  0  0  0  0  0  0
  153.3786  144.1341  157.4425 H   0  0  0  0  0  0  0  0  0  0  0  0
  151.0480  144.2273  156.6419 H   0  0  0  0  0  0  0  0  0  0  0  0
  150.4519  144.3775  158.2778 H   0  0  0  0  0  0  0  0  0  0  0  0
  1  2  1  0  0  0  0
  1 19  1  0  0  0  0
  1 20  1  0  0  0  0
  1 21  1  0  0  0  0
  2 18  2  0  0  0  0
  2  3  1  0  0  0  0
  3  4  2  0  0  0  0
  3 22  1  0  0  0  0
  4  5  1  0  0  0  0
  4 17  1  0  0  0  0
  5  6  1  0  0  0  0
  5 23  1  0  0  0  0
  5 24  1  0  0  0  0
  6  7  2  0  0  0  0
  6  8  2  0  0  0  0
  6  9  1  0  0  0  0
  9 10  1  0  0  0  0
  9 25  1  0  0  0  0
 10 11  1  0  0  0  0
 10 26  1  0  0  0  0
 10 27  1  0  0  0  0
 11 16  1  0  0  0  0
 11 12  1  0  0  0  0
 11 28  1  0  0  0  0
 12 13  1  0  0  0  0
 12 29  1  0  0  0  0
 12 30  1  0  0  0  0
 13 14  1  0  0  0  0
 13 31  1  0  0  0  0
 13 32  1  0  0  0  0
 14 15  1  0  0  0  0
 14 33  1  0  0  0  0
 14 34  1  0  0  0  0
 15 16  1  0  0  0  0
 15 35  1  0  0  0  0
 15 36  1  0  0  0  0
 16 37  1  0  0  0  0
 16 38  1  0  0  0  0
 17 18  1  0  0  0  0
M  END
> <s_m_source_file>
AV-unprocessed.smi

> <i_m_source_file_index>
802

> <i_lp_mmshare_version>
43012

> <i_f3d_flags>
0

> <s_epik_input>
W0NIM11jMVtjSF1jKG9uMSlbQ0gyXVMoPU8pKD1PKVtOSF1bQ0gyXVtDSF0yW0NIMl1bQ0gyXVtDSDJdW0NIMl1bQ0gyXTI=

> <s_epik_cmdline>
J2VwaWtfcHl0aG9uJywgJy1waCcsICc3LjAnLCAnLXRuJywgJzgnLCAnLW1hJywgJzIwMCcsICctbWV0YWxfYmluZGluZycsICctaW1hZScsICc8aW5maWxlLm1hZT4nLCAnLW9tYWUnLCAnPG91dGZpbGUubWFlPic=

> <r_lp_tautomer_probability>
1

> <r_epik_Ionization_Penalty>
5.14394e-05

> <r_epik_Ionization_Penalty_Charging>
0

> <r_epik_Ionization_Penalty_Neutral>
5.14394e-05

> <r_epik_State_Penalty>
-0

> <r_epik_Charging_Adjusted_Penalty>
0

> <i_epik_Tot_Q>
0

> <i_epik_Tot_abs_Q>
0

> <r_epik_Metal_State_Penalty>
0.0455401

> <b_epik_Metal_Only>
0

> <s_lp_Force_Field>
OPLS_2005

> <r_lp_Energy>
6.71551

> <b_lp_Chiralities_Consistent>
1

> <s_lp_Variant>
AV-unprocessed.smi:802-1

> <Gold.Version>
5.8.1

> <Gold.Id.Protein>
6NUR|6NUR_protein|mol2

> <Gold.PLP.Fitness>
43.8785

> <Gold.PLP.PLP>
-39.8201

> <Gold.PLP.part.hbond>
-1.7785

> <Gold.PLP.part.metal>
0.0000

> <Gold.PLP.part.buried>
-5.2546

> <Gold.PLP.part.nonpolar>
-33.5625

> <Gold.PLP.part.repulsive>
1.0429

> <Gold.PLP.ligand.clash>
0.0000

> <Gold.PLP.ligand.torsion>
1.0432

> <Gold.PLP.Chemscore.Hbond>
1.9920

> <Gold.PLP.Chemscore.CHOScore>
0.0000

> <Gold.PLP.Chemscore.Metal>
0.0000

> <Gold.Chemscore.Hbonds>
donor molecule, donor type, donor heavy atom, donor atom, acceptor molecule, acceptor atom, score
      L1  H     9    25       P1  8028  0.80
      P1  H  7989  7998       L1     8  1.00

> <Gold.PLP.Chemscore.Internal.Correction>
0.1689

> <Gold.Rescore>
     Score         DG    S(hbond)    S(metal)    S(lipo)     H(rot)  DE(clash)    DE(int)     intcor
     15.68     -19.89       1.95        0.00     105.72       1.74       0.28       3.93       ----

> <Gold.Chemscore.Fitness>
15.6775

> <Gold.Chemscore.DG>
-19.8892

> <Gold.Chemscore.ZeroCoef>
-5.4800

> <Gold.Chemscore.Hbond>
1.9469

> <Gold.Chemscore.Metal>
0.0000

> <Gold.Chemscore.Lipo>
105.7206

> <Gold.Chemscore.Internal_Hbond>
0.0000

> <Gold.Chemscore.DEClash>
0.2846

> <Gold.Chemscore.DEInternal>
3.9271

> <Gold.Chemscore.Rot>
1.7432

> <Gold.Chemscore.Internal.Correction>
   9.000000E+99

> <Gold.Chemscore.Hbonds>
donor molecule, donor type, donor heavy atom, donor atom, acceptor molecule, acceptor atom, score
      L1  H     9    25       P1  8028  0.75
      P1  H  7989  7998       L1     8  0.99

> <Gold.Chemscore.Hbond.Weighted>
-6.5025

> <Gold.Chemscore.Metal.Weighted>
-0.0000

> <Gold.Chemscore.Lipo.Weighted>
-12.3693

> <Gold.Chemscore.Internal_Hbond.Weighted>
0.0000

> <Gold.Chemscore.DEClash.Weighted>
0.2846

> <Gold.Chemscore.DEInternal.Weighted>
3.9271

> <Gold.Chemscore.Rot.Weighted>
4.4626

> <Gold.Chemscore.Internal.Correction.Weighted>
   9.000000E+99

> <Gold.Protein.RotatedTorsions>
[ 6907 6896 6895 6894 ] final  124.28 input  -60.11 | X-H torsion
[ 7974 7965 7964 7962 ] final  -33.34 input  175.53 | X-H torsion
[ 8008 7997 7996 7995 ] final   75.50 input   59.86 | X-H torsion
[ 10167 10162 10161 10158 ] final   30.69 input  -65.29 | X-H torsion
[ 10718 10713 10712 10709 ] final -115.16 input   66.30 | X-H torsion
[ 10763 10752 10751 10750 ] final -153.90 input  -60.55 | X-H torsion
[ 11005 11000 10999 10996 ] final  -38.53 input  -57.11 | X-H torsion

> <Gold.Protein.ActiveResidues>
 VAL166  LYS551  ARG553  GLY616  TRP617  ASP618  TYR619  PRO620  LYS621  CYS622 
 ASP623  PHE694  ASN695  SER759  ASP760  ASP761  ALA762  ILE779  LEU786  VAL792 
 PHE793  MET794  SER795  GLU796  ALA797  LYS798  CYS799  TRP800  GLU811  SER814 

> <Gold.Protein.RotatedAtoms>
  152.4091  133.6935  159.6382 H   0  0  0  0  0  0  0  0  0  0  0  0  # atno 6907 bound_to 6896
  150.7973  133.8656  159.3253 H   0  0  0  0  0  0  0  0  0  0  0  0  # atno 6908 bound_to 6896
  151.6403  135.1015  160.0191 H   0  0  0  0  0  0  0  0  0  0  0  0  # atno 6909 bound_to 6896
  146.0919  140.5903  142.8860 H   0  0  0  0  0  0  0  0  0  0  0  0  # atno 7974 bound_to 7965
  155.8138  140.3472  155.5473 H   0  0  0  0  0  0  0  0  0  0  0  0  # atno 8008 bound_to 7997
  155.8413  140.0942  157.1753 H   0  0  0  0  0  0  0  0  0  0  0  0  # atno 8009 bound_to 7997
  154.4005  140.1394  156.3719 H   0  0  0  0  0  0  0  0  0  0  0  0  # atno 8010 bound_to 7997
  140.4655  144.0841  150.6223 H   0  0  0  0  0  0  0  0  0  0  0  0  # atno 10167 bound_to 10162
  156.0877  130.6066  150.8870 H   0  0  0  0  0  0  0  0  0  0  0  0  # atno 10718 bound_to 10713
  154.7896  135.3202  154.7807 H   0  0  0  0  0  0  0  0  0  0  0  0  # atno 10763 bound_to 10752
  153.8499  135.6863  153.4798 H   0  0  0  0  0  0  0  0  0  0  0  0  # atno 10764 bound_to 10752
  153.1561  135.4679  154.9646 H   0  0  0  0  0  0  0  0  0  0  0  0  # atno 10765 bound_to 10752
  141.0034  133.6944  156.2065 H   0  0  0  0  0  0  0  0  0  0  0  0  # atno 11005 bound_to 11000
  144.7366  140.4826  143.6899 LP  0  0  0  0  0  0  0  0  0  0  0  0  # atno 17320 bound_to 7965
  145.6023  139.1505  143.3122 LP  0  0  0  0  0  0  0  0  0  0  0  0  # atno 17321 bound_to 7965
  140.4041  143.2689  151.9912 LP  0  0  0  0  0  0  0  0  0  0  0  0  # atno 17342 bound_to 10162
  139.4811  144.5972  151.7669 LP  0  0  0  0  0  0  0  0  0  0  0  0  # atno 17343 bound_to 10162
  157.6017  131.0941  150.8948 LP  0  0  0  0  0  0  0  0  0  0  0  0  # atno 17370 bound_to 10713
  156.9104  130.5279  149.5280 LP  0  0  0  0  0  0  0  0  0  0  0  0  # atno 17371 bound_to 10713
  140.6852  134.4725  157.5589 LP  0  0  0  0  0  0  0  0  0  0  0  0  # atno 17394 bound_to 11000
  139.9051  134.8468  156.1740 LP  0  0  0  0  0  0  0  0  0  0  0  0  # atno 17395 bound_to 11000

$$$$
