AV-unprocessed.smi:868|AV-procd|sdf|4002|dock4
  -GOLD-   22720 1483D 1   1.00000     0.00000
 Structure written by MMmdl.
 47 49  0  0  0  0  0  0  0  0  1 V2000
  153.6047  142.1243  162.1126 C   0  0  0  0  0  0  0  0  0  0  0  0
  153.7784  141.6395  160.6639 C   0  0  0  0  0  0  0  0  0  0  0  0
  155.0517  140.7898  160.5351 C   0  0  0  0  0  0  0  0  0  0  0  0
  153.7926  142.7913  159.6243 C   0  0  0  0  0  0  0  0  0  0  0  0
  152.4761  143.5700  159.4055 C   0  0  0  0  0  0  0  0  0  0  0  0
  151.3694  142.6212  158.8809 C   0  0  0  0  0  0  0  0  0  0  0  0
  150.3804  142.3572  159.5655 O   0  0  0  0  0  0  0  0  0  0  0  0
  151.5641  142.0982  157.6594 N   0  0  0  0  0  0  0  0  0  0  0  0
  150.6863  141.1328  157.0103 C   0  0  0  0  0  0  0  0  0  0  0  0
  150.3454  141.5662  155.5757 C   0  0  0  0  0  0  0  0  0  0  0  0
  149.3830  140.6336  154.9094 C   0  0  0  0  0  0  0  0  0  0  0  0
  148.2386  141.0361  154.3436 N   0  0  0  0  0  0  0  0  0  0  0  0
  147.6744  139.9009  153.7975 N   0  0  0  0  0  0  0  0  0  0  0  0
  148.5393  138.9280  154.0806 C   0  0  0  0  0  0  0  0  0  0  0  0
  149.6165  139.3104  154.7850 N   0  0  0  0  0  0  0  0  0  0  0  0
  150.7608  138.5193  155.2062 C   0  0  0  0  0  0  0  0  0  0  0  0
  152.1048  139.0372  154.7438 C   0  0  0  0  0  0  0  0  0  0  0  0
  151.4895  137.8272  154.0774 C   0  0  0  0  0  0  0  0  0  0  0  0
  151.9977  144.5030  160.5498 C   0  0  0  0  0  0  0  0  0  0  0  0
  151.6937  145.6040  159.5351 C   0  0  0  0  0  0  0  0  0  0  0  0
  152.5586  144.8441  158.5300 C   0  0  0  0  0  0  0  0  0  0  0  0
  154.3706  142.8518  162.3830 H   0  0  0  0  0  0  0  0  0  0  0  0
  153.6747  141.2929  162.8147 H   0  0  0  0  0  0  0  0  0  0  0  0
  152.6301  142.5854  162.2672 H   0  0  0  0  0  0  0  0  0  0  0  0
  152.9434  140.9752  160.4401 H   0  0  0  0  0  0  0  0  0  0  0  0
  155.9440  141.3760  160.7576 H   0  0  0  0  0  0  0  0  0  0  0  0
  155.1584  140.3898  159.5264 H   0  0  0  0  0  0  0  0  0  0  0  0
  155.0309  139.9424  161.2210 H   0  0  0  0  0  0  0  0  0  0  0  0
  154.5724  143.4962  159.9156 H   0  0  0  0  0  0  0  0  0  0  0  0
  154.1325  142.3906  158.6681 H   0  0  0  0  0  0  0  0  0  0  0  0
  152.3975  142.3680  157.1571 H   0  0  0  0  0  0  0  0  0  0  0  0
  151.1439  140.1419  157.0149 H   0  0  0  0  0  0  0  0  0  0  0  0
  149.7738  141.0570  157.6021 H   0  0  0  0  0  0  0  0  0  0  0  0
  149.9370  142.5765  155.5738 H   0  0  0  0  0  0  0  0  0  0  0  0
  151.2537  141.6075  154.9729 H   0  0  0  0  0  0  0  0  0  0  0  0
  148.3834  137.9084  153.7600 H   0  0  0  0  0  0  0  0  0  0  0  0
  150.6385  138.0425  156.1766 H   0  0  0  0  0  0  0  0  0  0  0  0
  152.1433  139.9558  154.1613 H   0  0  0  0  0  0  0  0  0  0  0  0
  152.9580  138.8669  155.3970 H   0  0  0  0  0  0  0  0  0  0  0  0
  151.9356  136.8578  154.2892 H   0  0  0  0  0  0  0  0  0  0  0  0
  151.1086  137.9527  153.0654 H   0  0  0  0  0  0  0  0  0  0  0  0
  151.1249  144.1810  161.1184 H   0  0  0  0  0  0  0  0  0  0  0  0
  152.8071  144.7803  161.2269 H   0  0  0  0  0  0  0  0  0  0  0  0
  150.6415  145.6352  159.2485 H   0  0  0  0  0  0  0  0  0  0  0  0
  152.0710  146.5901  159.8071 H   0  0  0  0  0  0  0  0  0  0  0  0
  153.5722  145.2432  158.4671 H   0  0  0  0  0  0  0  0  0  0  0  0
  152.1120  144.7744  157.5370 H   0  0  0  0  0  0  0  0  0  0  0  0
  1  2  1  0  0  0  0
  1 22  1  0  0  0  0
  1 23  1  0  0  0  0
  1 24  1  0  0  0  0
  2  3  1  0  0  0  0
  2  4  1  0  0  0  0
  2 25  1  0  0  0  0
  3 26  1  0  0  0  0
  3 27  1  0  0  0  0
  3 28  1  0  0  0  0
  4  5  1  0  0  0  0
  4 29  1  0  0  0  0
  4 30  1  0  0  0  0
  5 21  1  0  0  0  0
  5  6  1  0  0  0  0
  5 19  1  0  0  0  0
  6  7  2  0  0  0  0
  6  8  1  0  0  0  0
  8  9  1  0  0  0  0
  8 31  1  0  0  0  0
  9 10  1  0  0  0  0
  9 32  1  0  0  0  0
  9 33  1  0  0  0  0
 10 11  1  0  0  0  0
 10 34  1  0  0  0  0
 10 35  1  0  0  0  0
 11 15  1  0  0  0  0
 11 12  2  0  0  0  0
 12 13  1  0  0  0  0
 13 14  2  0  0  0  0
 14 15  1  0  0  0  0
 14 36  1  0  0  0  0
 15 16  1  0  0  0  0
 16 18  1  0  0  0  0
 16 17  1  0  0  0  0
 16 37  1  0  0  0  0
 17 18  1  0  0  0  0
 17 38  1  0  0  0  0
 17 39  1  0  0  0  0
 18 40  1  0  0  0  0
 18 41  1  0  0  0  0
 19 20  1  0  0  0  0
 19 42  1  0  0  0  0
 19 43  1  0  0  0  0
 20 21  1  0  0  0  0
 20 44  1  0  0  0  0
 20 45  1  0  0  0  0
 21 46  1  0  0  0  0
 21 47  1  0  0  0  0
M  END
> <s_m_source_file>
AV-unprocessed.smi

> <i_m_source_file_index>
868

> <i_lp_mmshare_version>
43012

> <i_f3d_flags>
0

> <s_epik_input>
W0NIM11bQ0hdKFtDSDNdKVtDSDJdQzEoW0NIMl1bQ0gyXVtDSDJdMSlDKD1PKVtOSF1bQ0gyXVtDSDJdYzJubltjSF1uMltDSF0zW0NIMl1bQ0gyXTM=

> <s_epik_cmdline>
J2VwaWtfcHl0aG9uJywgJy1waCcsICc3LjAnLCAnLXRuJywgJzgnLCAnLW1hJywgJzIwMCcsICctbWV0YWxfYmluZGluZycsICctaW1hZScsICc8aW5maWxlLm1hZT4nLCAnLW9tYWUnLCAnPG91dGZpbGUubWFlPic=

> <r_lp_tautomer_probability>
1

> <r_epik_Ionization_Penalty>
0.000232087

> <r_epik_Ionization_Penalty_Charging>
0

> <r_epik_Ionization_Penalty_Neutral>
0.000232087

> <r_epik_State_Penalty>
-0

> <r_epik_Charging_Adjusted_Penalty>
0

> <i_epik_Tot_Q>
0

> <i_epik_Tot_abs_Q>
0

> <r_epik_Metal_State_Penalty>
-0

> <b_epik_Metal_Only>
0

> <s_lp_Force_Field>
OPLS_2005

> <r_lp_Energy>
30.4352

> <b_lp_Chiralities_Consistent>
1

> <s_lp_Variant>
AV-unprocessed.smi:868-1

> <Gold.Version>
5.8.1

> <Gold.Id.Protein>
6NUR|6NUR_protein|mol2

> <Gold.PLP.Fitness>
54.3626

> <Gold.PLP.PLP>
-51.5269

> <Gold.PLP.part.hbond>
-1.0000

> <Gold.PLP.part.metal>
0.0000

> <Gold.PLP.part.buried>
-2.5872

> <Gold.PLP.part.nonpolar>
-47.2525

> <Gold.PLP.part.repulsive>
0.4404

> <Gold.PLP.ligand.clash>
0.0000

> <Gold.PLP.ligand.torsion>
0.5742

> <Gold.PLP.Chemscore.Hbond>
0.0000

> <Gold.PLP.Chemscore.CHOScore>
1.0000

> <Gold.PLP.Chemscore.Metal>
0.0000

> <Gold.Chemscore.Hbonds>
donor molecule, donor type, donor heavy atom, donor atom, acceptor molecule, acceptor atom, score
      L1  C    14    36       P1  7948  0.86

> <Gold.PLP.Chemscore.Internal.Correction>
0.9840

> <Gold.Rescore>
     Score         DG    S(hbond)    S(metal)    S(lipo)     H(rot)  DE(clash)    DE(int)     intcor
     14.69     -15.28       0.00        0.00     131.18       2.17       0.02       0.57       ----

> <Gold.Chemscore.Fitness>
14.6899

> <Gold.Chemscore.DG>
-15.2818

> <Gold.Chemscore.ZeroCoef>
-5.4800

> <Gold.Chemscore.Hbond>
0.0000

> <Gold.Chemscore.Metal>
0.0000

> <Gold.Chemscore.Lipo>
131.1785

> <Gold.Chemscore.Internal_Hbond>
0.0000

> <Gold.Chemscore.DEClash>
0.0191

> <Gold.Chemscore.DEInternal>
0.5729

> <Gold.Chemscore.Rot>
2.1664

> <Gold.Chemscore.Internal.Correction>
   9.000000E+99

> <Gold.Chemscore.Hbond.Weighted>
-0.0000

> <Gold.Chemscore.Metal.Weighted>
-0.0000

> <Gold.Chemscore.Lipo.Weighted>
-15.3479

> <Gold.Chemscore.Internal_Hbond.Weighted>
0.0000

> <Gold.Chemscore.DEClash.Weighted>
0.0191

> <Gold.Chemscore.DEInternal.Weighted>
0.5729

> <Gold.Chemscore.Rot.Weighted>
5.5461

> <Gold.Chemscore.Internal.Correction.Weighted>
   9.000000E+99

> <Gold.Protein.RotatedTorsions>
[ 6907 6896 6895 6894 ] final  -56.82 input  -60.11 | X-H torsion
[ 7974 7965 7964 7962 ] final   94.88 input  175.53 | X-H torsion
[ 8008 7997 7996 7995 ] final  -55.43 input   59.86 | X-H torsion
[ 10167 10162 10161 10158 ] final -116.85 input  -65.29 | X-H torsion
[ 10718 10713 10712 10709 ] final   77.58 input   66.30 | X-H torsion
[ 10763 10752 10751 10750 ] final   58.26 input  -60.55 | X-H torsion
[ 11005 11000 10999 10996 ] final -176.73 input  -57.11 | X-H torsion

> <Gold.Protein.ActiveResidues>
 VAL166  LYS551  ARG553  GLY616  TRP617  ASP618  TYR619  PRO620  LYS621  CYS622 
 ASP623  PHE694  ASN695  SER759  ASP760  ASP761  ALA762  ILE779  LEU786  VAL792 
 PHE793  MET794  SER795  GLU796  ALA797  LYS798  CYS799  TRP800  GLU811  SER814 

> <Gold.Protein.RotatedAtoms>
  150.8136  134.7306  159.6709 H   0  0  0  0  0  0  0  0  0  0  0  0  # atno 6907 bound_to 6896
  152.4256  134.5872  159.9974 H   0  0  0  0  0  0  0  0  0  0  0  0  # atno 6908 bound_to 6896
  151.6075  133.3313  159.3096 H   0  0  0  0  0  0  0  0  0  0  0  0  # atno 6909 bound_to 6896
  145.4597  139.2288  143.2994 H   0  0  0  0  0  0  0  0  0  0  0  0  # atno 7974 bound_to 7965
  154.4195  140.1153  156.5475 H   0  0  0  0  0  0  0  0  0  0  0  0  # atno 8008 bound_to 7997
  155.6444  140.3496  155.4707 H   0  0  0  0  0  0  0  0  0  0  0  0  # atno 8009 bound_to 7997
  155.9844  140.1167  157.0686 H   0  0  0  0  0  0  0  0  0  0  0  0  # atno 8010 bound_to 7997
  140.0747  143.4843  152.1959 H   0  0  0  0  0  0  0  0  0  0  0  0  # atno 10167 bound_to 10162
  157.6715  130.9828  150.1661 H   0  0  0  0  0  0  0  0  0  0  0  0  # atno 10718 bound_to 10713
  152.9867  135.5613  154.5523 H   0  0  0  0  0  0  0  0  0  0  0  0  # atno 10763 bound_to 10752
  154.4957  135.2795  155.1463 H   0  0  0  0  0  0  0  0  0  0  0  0  # atno 10764 bound_to 10752
  154.2914  135.6325  153.5440 H   0  0  0  0  0  0  0  0  0  0  0  0  # atno 10765 bound_to 10752
  140.4489  134.6362  157.4792 H   0  0  0  0  0  0  0  0  0  0  0  0  # atno 11005 bound_to 11000
  146.2458  140.5365  142.8914 LP  0  0  0  0  0  0  0  0  0  0  0  0  # atno 17320 bound_to 7965
  144.8010  140.6213  143.6478 LP  0  0  0  0  0  0  0  0  0  0  0  0  # atno 17321 bound_to 7965
  139.5815  144.7512  151.3629 LP  0  0  0  0  0  0  0  0  0  0  0  0  # atno 17342 bound_to 10162
  140.7108  143.7396  150.7563 LP  0  0  0  0  0  0  0  0  0  0  0  0  # atno 17343 bound_to 10162
  156.2426  130.3692  149.8320 LP  0  0  0  0  0  0  0  0  0  0  0  0  # atno 17370 bound_to 10713
  156.6116  130.8589  151.3455 LP  0  0  0  0  0  0  0  0  0  0  0  0  # atno 17371 bound_to 10713
  140.0020  134.6822  155.9515 LP  0  0  0  0  0  0  0  0  0  0  0  0  # atno 17394 bound_to 11000
  141.1673  133.6537  156.4525 LP  0  0  0  0  0  0  0  0  0  0  0  0  # atno 17395 bound_to 11000

$$$$
