AV-unprocessed.smi:2762|AV-procd|sdf|10637|dock1
  -GOLD-   2272015 83D 1   1.00000     0.00000
 Structure written by MMmdl.
 40 41  0  0  0  0  0  0  0  0  2 V2000
  152.5595  139.2706  156.2075 O   0  0  0  0  0  0  0  0  0  0  0  0
  151.4377  139.7784  156.1953 C   0  0  0  0  0  0  0  0  0  0  0  0
  150.5194  139.5091  155.2557 N   0  0  0  0  0  0  0  0  0  0  0  0
  150.7162  138.5955  154.1359 C   0  0  0  0  0  0  0  0  0  0  0  0
  151.0347  137.1682  154.6221 C   0  0  0  0  0  0  0  0  0  0  0  0
  149.8514  136.2734  154.5780 N   0  3  0  0  0  0  0  0  0  0  0  0
  150.1581  134.8626  154.9225 C   0  0  0  0  0  0  0  0  0  0  0  0
  148.8902  133.9967  154.8298 C   0  0  0  0  0  0  0  0  0  0  0  0
  147.8829  134.5294  155.6806 O   0  0  0  0  0  0  0  0  0  0  0  0
  147.5140  135.8498  155.3040 C   0  0  0  0  0  0  0  0  0  0  0  0
  148.7353  136.7776  155.4141 C   0  0  0  0  0  0  0  0  0  0  0  0
  150.9724  140.6633  157.0944 N   0  0  0  0  0  0  0  0  0  0  0  0
  151.6459  141.2064  158.2209 C   0  0  0  0  0  0  0  0  0  0  0  0
  151.3671  142.5654  158.4854 C   0  0  0  0  0  0  0  0  0  0  0  0
  151.9852  143.2073  159.5795 C   0  0  0  0  0  0  0  0  0  0  0  0
  151.6887  144.6696  159.8732 C   0  0  0  0  0  0  0  0  0  0  0  0
  152.2496  145.0673  161.0156 F   0  0  0  0  0  0  0  0  0  0  0  0
  152.1572  145.4326  158.8857 F   0  0  0  0  0  0  0  0  0  0  0  0
  150.3704  144.8430  159.9617 F   0  0  0  0  0  0  0  0  0  0  0  0
  152.8662  142.4561  160.3845 C   0  0  0  0  0  0  0  0  0  0  0  0
  153.0878  141.1075  160.0519 C   0  0  0  0  0  0  0  0  0  0  0  0
  152.4984  140.4983  159.0020 N   0  0  0  0  0  0  0  0  0  0  0  0
  149.6219  139.9674  155.3198 H   0  0  0  0  0  0  0  0  0  0  0  0
  149.8322  138.5943  153.4960 H   0  0  0  0  0  0  0  0  0  0  0  0
  151.5337  138.9932  153.5359 H   0  0  0  0  0  0  0  0  0  0  0  0
  151.8496  136.7339  154.0410 H   0  0  0  0  0  0  0  0  0  0  0  0
  151.3884  137.2254  155.6526 H   0  0  0  0  0  0  0  0  0  0  0  0
  150.9148  134.4594  154.2505 H   0  0  0  0  0  0  0  0  0  0  0  0
  150.5680  134.8127  155.9326 H   0  0  0  0  0  0  0  0  0  0  0  0
  148.5264  133.9456  153.8021 H   0  0  0  0  0  0  0  0  0  0  0  0
  149.1099  132.9752  155.1407 H   0  0  0  0  0  0  0  0  0  0  0  0
  147.1101  135.8539  154.2902 H   0  0  0  0  0  0  0  0  0  0  0  0
  146.7191  136.1960  155.9648 H   0  0  0  0  0  0  0  0  0  0  0  0
  149.0593  136.8469  156.4538 H   0  0  0  0  0  0  0  0  0  0  0  0
  148.4584  137.7837  155.0969 H   0  0  0  0  0  0  0  0  0  0  0  0
  150.0291  140.9933  156.9543 H   0  0  0  0  0  0  0  0  0  0  0  0
  150.6844  143.1173  157.8555 H   0  0  0  0  0  0  0  0  0  0  0  0
  153.3632  142.8936  161.2375 H   0  0  0  0  0  0  0  0  0  0  0  0
  153.7560  140.5006  160.6449 H   0  0  0  0  0  0  0  0  0  0  0  0
  149.5167  136.2820  153.6248 H   0  0  0  0  0  0  0  0  0  0  0  0
  1  2  2  0  0  0  0
  2  3  1  0  0  0  0
  2 12  1  0  0  0  0
  3  4  1  0  0  0  0
  3 23  1  0  0  0  0
  4  5  1  0  0  0  0
  4 24  1  0  0  0  0
  4 25  1  0  0  0  0
  5  6  1  0  0  0  0
  5 26  1  0  0  0  0
  5 27  1  0  0  0  0
  6 11  1  0  0  0  0
  6  7  1  0  0  0  0
  6 40  1  0  0  0  0
  7  8  1  0  0  0  0
  7 28  1  0  0  0  0
  7 29  1  0  0  0  0
  8  9  1  0  0  0  0
  8 30  1  0  0  0  0
  8 31  1  0  0  0  0
  9 10  1  0  0  0  0
 10 11  1  0  0  0  0
 10 32  1  0  0  0  0
 10 33  1  0  0  0  0
 11 34  1  0  0  0  0
 11 35  1  0  0  0  0
 12 13  1  0  0  0  0
 12 36  1  0  0  0  0
 13 22  1  0  0  0  0
 13 14  2  0  0  0  0
 14 15  1  0  0  0  0
 14 37  1  0  0  0  0
 15 16  1  0  0  0  0
 15 20  2  0  0  0  0
 16 17  1  0  0  0  0
 16 18  1  0  0  0  0
 16 19  1  0  0  0  0
 20 21  1  0  0  0  0
 20 38  1  0  0  0  0
 21 22  2  0  0  0  0
 21 39  1  0  0  0  0
M  CHG  1   6   1
M  END
> <s_m_source_file>
AV-unprocessed.smi

> <i_m_source_file_index>
2762

> <i_lp_mmshare_version>
43012

> <i_f3d_flags>
0

> <s_epik_input>
bjFbY0hdW2NIXWMoQyhGKShGKUYpW2NIXWMxW05IXUMoPU8pW05IXVtDSDJdW0NIMl1OMltDSDJdW0NIMl1PW0NIMl1bQ0gyXTI=

> <s_epik_cmdline>
J2VwaWtfcHl0aG9uJywgJy1waCcsICc3LjAnLCAnLXRuJywgJzgnLCAnLW1hJywgJzIwMCcsICctbWV0YWxfYmluZGluZycsICctaW1hZScsICc8aW5maWxlLm1hZT4nLCAnLW9tYWUnLCAnPG91dGZpbGUubWFlPic=

> <r_epik_Ionization_Penalty>
0.602556

> <r_epik_Ionization_Penalty_Charging>
0.602531

> <r_epik_Ionization_Penalty_Neutral>
2.56546e-05

> <r_epik_State_Penalty>
0.617039

> <r_epik_Charging_Adjusted_Penalty>
1.21957

> <i_epik_Tot_Q>
1

> <i_epik_Tot_abs_Q>
1

> <r_epik_Metal_State_Penalty>
0.617039

> <b_epik_Metal_Only>
0

> <s_lp_Force_Field>
OPLS_2005

> <r_lp_Energy>
17.0947

> <b_lp_Chiralities_Consistent>
1

> <s_lp_Variant>
AV-unprocessed.smi:2762-2

> <Gold.Version>
5.8.1

> <Gold.Id.Protein>
6NUR|6NUR_protein|mol2

> <Gold.PLP.Fitness>
50.2380

> <Gold.PLP.PLP>
-42.5715

> <Gold.PLP.part.hbond>
-2.3969

> <Gold.PLP.part.metal>
0.0000

> <Gold.PLP.part.buried>
-6.3420

> <Gold.PLP.part.nonpolar>
-35.0621

> <Gold.PLP.part.repulsive>
0.2474

> <Gold.PLP.ligand.clash>
0.0000

> <Gold.PLP.ligand.torsion>
0.6834

> <Gold.PLP.Chemscore.Hbond>
3.0000

> <Gold.PLP.Chemscore.CHOScore>
0.0000

> <Gold.PLP.Chemscore.Metal>
0.0000

> <Gold.Chemscore.Hbonds>
donor molecule, donor type, donor heavy atom, donor atom, acceptor molecule, acceptor atom, score
      L1  H     6    40       P1  7948  2.00
      P1  H  7997  8010       L1     1  0.99

> <Gold.PLP.Chemscore.Internal.Correction>
0.0333

> <Gold.Rescore>
     Score         DG    S(hbond)    S(metal)    S(lipo)     H(rot)  DE(clash)    DE(int)     intcor
     14.84     -17.21       1.91        0.00      82.38       1.68       0.28       2.09       ----

> <Gold.Chemscore.Fitness>
14.8372

> <Gold.Chemscore.DG>
-17.2079

> <Gold.Chemscore.ZeroCoef>
-5.4800

> <Gold.Chemscore.Hbond>
1.9104

> <Gold.Chemscore.Metal>
0.0000

> <Gold.Chemscore.Lipo>
82.3769

> <Gold.Chemscore.Internal_Hbond>
0.0000

> <Gold.Chemscore.DEClash>
0.2808

> <Gold.Chemscore.DEInternal>
2.0898

> <Gold.Chemscore.Rot>
1.6762

> <Gold.Chemscore.Internal.Correction>
   9.000000E+99

> <Gold.Chemscore.Hbonds>
donor molecule, donor type, donor heavy atom, donor atom, acceptor molecule, acceptor atom, score
      L1  H     6    40       P1  7948  0.60
      P1  H  7997  8010       L1     1  0.91

> <Gold.Chemscore.Hbond.Weighted>
-6.3807

> <Gold.Chemscore.Metal.Weighted>
-0.0000

> <Gold.Chemscore.Lipo.Weighted>
-9.6381

> <Gold.Chemscore.Internal_Hbond.Weighted>
0.0000

> <Gold.Chemscore.DEClash.Weighted>
0.2808

> <Gold.Chemscore.DEInternal.Weighted>
2.0898

> <Gold.Chemscore.Rot.Weighted>
4.2910

> <Gold.Chemscore.Internal.Correction.Weighted>
   9.000000E+99

> <Gold.Protein.RotatedTorsions>
[ 6907 6896 6895 6894 ] final  120.34 input  -60.11 | X-H torsion
[ 7974 7965 7964 7962 ] final  -14.11 input  175.53 | X-H torsion
[ 8008 7997 7996 7995 ] final   94.03 input   59.86 | X-H torsion
[ 10167 10162 10161 10158 ] final   14.93 input  -65.29 | X-H torsion
[ 10718 10713 10712 10709 ] final  102.58 input   66.30 | X-H torsion
[ 10763 10752 10751 10750 ] final  -38.61 input  -60.55 | X-H torsion
[ 11005 11000 10999 10996 ] final  111.89 input  -57.11 | X-H torsion

> <Gold.Protein.ActiveResidues>
 VAL166  LYS551  ARG553  GLY616  TRP617  ASP618  TYR619  PRO620  LYS621  CYS622 
 ASP623  PHE694  ASN695  SER759  ASP760  ASP761  ALA762  ILE779  LEU786  VAL792 
 PHE793  MET794  SER795  GLU796  ALA797  LYS798  CYS799  TRP800  GLU811  SER814 

> <Gold.Protein.RotatedAtoms>
  152.4405  133.7439  159.6656 H   0  0  0  0  0  0  0  0  0  0  0  0  # atno 6907 bound_to 6896
  150.8295  133.8104  159.3110 H   0  0  0  0  0  0  0  0  0  0  0  0  # atno 6908 bound_to 6896
  151.5762  135.1063  160.0058 H   0  0  0  0  0  0  0  0  0  0  0  0  # atno 6909 bound_to 6896
  146.2087  140.3301  142.8398 H   0  0  0  0  0  0  0  0  0  0  0  0  # atno 7974 bound_to 7965
  156.0534  140.3305  155.7377 H   0  0  0  0  0  0  0  0  0  0  0  0  # atno 8008 bound_to 7997
  155.5566  140.0615  157.2856 H   0  0  0  0  0  0  0  0  0  0  0  0  # atno 8009 bound_to 7997
  154.4446  140.1885  156.0728 H   0  0  0  0  0  0  0  0  0  0  0  0  # atno 8010 bound_to 7997
  140.5902  143.8810  150.6867 H   0  0  0  0  0  0  0  0  0  0  0  0  # atno 10167 bound_to 10162
  157.6798  131.0757  150.5426 H   0  0  0  0  0  0  0  0  0  0  0  0  # atno 10718 bound_to 10713
  153.9157  135.6787  153.4749 H   0  0  0  0  0  0  0  0  0  0  0  0  # atno 10763 bound_to 10752
  153.1055  135.4808  154.8940 H   0  0  0  0  0  0  0  0  0  0  0  0  # atno 10764 bound_to 10752
  154.7504  135.3183  154.8524 H   0  0  0  0  0  0  0  0  0  0  0  0  # atno 10765 bound_to 10752
  139.8914  134.9518  156.6501 H   0  0  0  0  0  0  0  0  0  0  0  0  # atno 11005 bound_to 11000
  144.8858  140.7460  143.5958 LP  0  0  0  0  0  0  0  0  0  0  0  0  # atno 17320 bound_to 7965
  145.3222  139.1785  143.4581 LP  0  0  0  0  0  0  0  0  0  0  0  0  # atno 17321 bound_to 7965
  140.2331  143.3720  152.1549 LP  0  0  0  0  0  0  0  0  0  0  0  0  # atno 17342 bound_to 10162
  139.5223  144.7057  151.5362 LP  0  0  0  0  0  0  0  0  0  0  0  0  # atno 17343 bound_to 10162
  156.5733  130.4285  149.6010 LP  0  0  0  0  0  0  0  0  0  0  0  0  # atno 17370 bound_to 10713
  156.2723  130.7024  151.1824 LP  0  0  0  0  0  0  0  0  0  0  0  0  # atno 17371 bound_to 10713
  140.7527  133.8884  155.8359 LP  0  0  0  0  0  0  0  0  0  0  0  0  # atno 17394 bound_to 11000
  140.9987  134.1180  157.4338 LP  0  0  0  0  0  0  0  0  0  0  0  0  # atno 17395 bound_to 11000

$$$$
