AV-unprocessed.smi:213|AV-procd|sdf|1635|dock3
  -GOLD-   2262019593D 1   1.00000     0.00000
 Structure written by MMmdl.
 59 62  0  0  0  0  0  0  0  0  2 V2000
  151.9084  143.6789  157.9581 C   0  0  0  0  0  0  0  0  0  0  0  0
  152.2608  142.2334  158.3444 C   0  0  2  0  0  0  0  0  0  0  0  0
  150.9881  141.3696  158.5172 C   0  0  0  0  0  0  0  0  0  0  0  0
  150.5849  140.6753  157.2681 N   0  3  0  0  0  0  0  0  0  0  0  0
  150.1218  141.6018  156.2100 C   0  0  0  0  0  0  0  0  0  0  0  0
  149.6313  140.8061  154.9883 C   0  0  0  0  0  0  0  0  0  0  0  0
  150.6731  139.9592  154.5180 O   0  0  0  0  0  0  0  0  0  0  0  0
  151.0761  139.0121  155.4999 C   0  0  0  0  0  0  0  0  0  0  0  0
  151.6156  139.7510  156.7355 C   0  0  0  0  0  0  0  0  0  0  0  0
  153.1374  142.1902  159.5247 N   0  0  0  0  0  0  0  0  0  0  0  0
  153.0507  143.2509  160.5281 C   0  0  0  0  0  0  0  0  0  0  0  0
  153.5018  140.9571  159.9658 C   0  0  0  0  0  0  0  0  0  0  0  0
  153.4314  139.8973  159.1153 N   0  0  0  0  0  0  0  0  0  0  0  0
  153.8227  138.6834  159.5130 C   0  0  0  0  0  0  0  0  0  0  0  0
  154.3139  138.3128  160.6963 N   0  0  0  0  0  0  0  0  0  0  0  0
  154.3784  139.3673  161.5579 C   0  0  0  0  0  0  0  0  0  0  0  0
  153.9957  140.7097  161.2784 C   0  0  0  0  0  0  0  0  0  0  0  0
  154.1992  141.5012  162.4029 N   0  0  0  0  0  0  0  0  0  0  0  0
  154.6775  140.6762  163.2939 C   0  0  0  0  0  0  0  0  0  0  0  0
  154.8159  139.3744  162.8704 N   0  0  0  0  0  0  0  0  0  0  0  0
  155.3128  138.2576  163.6547 C   0  0  0  0  0  0  0  0  0  0  0  0
  154.3532  137.0490  163.6216 C   0  0  1  0  0  0  0  0  0  0  0  0
  154.5359  136.3028  162.4346 O   0  0  0  0  0  0  0  0  0  0  0  0
  154.4822  136.0973  164.8294 C   0  0  2  0  0  0  0  0  0  0  0  0
  155.9023  135.5882  165.0841 C   0  0  0  0  0  0  0  0  0  0  0  0
  155.6877  134.2785  165.8279 C   0  0  0  0  0  0  0  0  0  0  0  0
  154.2014  133.9704  165.6263 C   0  0  0  0  0  0  0  0  0  0  0  0
  153.7637  134.8883  164.6347 O   0  0  0  0  0  0  0  0  0  0  0  0
  151.3591  143.7047  157.0166 H   0  0  0  0  0  0  0  0  0  0  0  0
  152.8092  144.2792  157.8264 H   0  0  0  0  0  0  0  0  0  0  0  0
  151.2864  144.1651  158.7094 H   0  0  0  0  0  0  0  0  0  0  0  0
  152.8027  141.8352  157.4893 H   0  0  0  0  0  0  0  0  0  0  0  0
  151.1741  140.6279  159.2954 H   0  0  0  0  0  0  0  0  0  0  0  0
  150.1571  141.9791  158.8759 H   0  0  0  0  0  0  0  0  0  0  0  0
  149.3106  142.2239  156.5902 H   0  0  0  0  0  0  0  0  0  0  0  0
  150.9354  142.2705  155.9244 H   0  0  0  0  0  0  0  0  0  0  0  0
  148.7502  140.2127  155.2386 H   0  0  0  0  0  0  0  0  0  0  0  0
  149.3407  141.4872  154.1881 H   0  0  0  0  0  0  0  0  0  0  0  0
  150.2382  138.3663  155.7672 H   0  0  0  0  0  0  0  0  0  0  0  0
  151.8496  138.3707  155.0778 H   0  0  0  0  0  0  0  0  0  0  0  0
  152.5133  140.3130  156.4733 H   0  0  0  0  0  0  0  0  0  0  0  0
  151.9048  139.0211  157.4908 H   0  0  0  0  0  0  0  0  0  0  0  0
  153.9030  143.2113  161.2078 H   0  0  0  0  0  0  0  0  0  0  0  0
  152.1382  143.1570  161.1176 H   0  0  0  0  0  0  0  0  0  0  0  0
  153.0546  144.2359  160.0638 H   0  0  0  0  0  0  0  0  0  0  0  0
  153.7342  137.8976  158.7770 H   0  0  0  0  0  0  0  0  0  0  0  0
  154.9399  140.9948  164.2924 H   0  0  0  0  0  0  0  0  0  0  0  0
  156.2981  137.9790  163.2789 H   0  0  0  0  0  0  0  0  0  0  0  0
  155.4584  138.6040  164.6778 H   0  0  0  0  0  0  0  0  0  0  0  0
  153.3262  137.4150  163.5888 H   0  0  0  0  0  0  0  0  0  0  0  0
  153.8749  135.6285  162.3984 H   0  0  0  0  0  0  0  0  0  0  0  0
  154.1205  136.5852  165.7373 H   0  0  0  0  0  0  0  0  0  0  0  0
  156.4168  135.3885  164.1440 H   0  0  0  0  0  0  0  0  0  0  0  0
  156.5058  136.3003  165.6480 H   0  0  0  0  0  0  0  0  0  0  0  0
  156.3203  133.4914  165.4167 H   0  0  0  0  0  0  0  0  0  0  0  0
  155.9201  134.3755  166.8889 H   0  0  0  0  0  0  0  0  0  0  0  0
  154.0248  132.9408  165.3145 H   0  0  0  0  0  0  0  0  0  0  0  0
  153.6454  134.1465  166.5482 H   0  0  0  0  0  0  0  0  0  0  0  0
  149.7829  140.1097  157.5095 H   0  0  0  0  0  0  0  0  0  0  0  0
  1  2  1  0  0  0  0
  1 29  1  0  0  0  0
  1 30  1  0  0  0  0
  1 31  1  0  0  0  0
  2  3  1  0  0  0  0
  2 10  1  0  0  0  0
  2 32  1  0  0  0  0
  3  4  1  0  0  0  0
  3 33  1  0  0  0  0
  3 34  1  0  0  0  0
  4  9  1  0  0  0  0
  4  5  1  0  0  0  0
  4 59  1  0  0  0  0
  5  6  1  0  0  0  0
  5 35  1  0  0  0  0
  5 36  1  0  0  0  0
  6  7  1  0  0  0  0
  6 37  1  0  0  0  0
  6 38  1  0  0  0  0
  7  8  1  0  0  0  0
  8  9  1  0  0  0  0
  8 39  1  0  0  0  0
  8 40  1  0  0  0  0
  9 41  1  0  0  0  0
  9 42  1  0  0  0  0
 10 11  1  0  0  0  0
 10 12  1  0  0  0  0
 11 43  1  0  0  0  0
 11 44  1  0  0  0  0
 11 45  1  0  0  0  0
 12 17  1  0  0  0  0
 12 13  2  0  0  0  0
 13 14  1  0  0  0  0
 14 15  2  0  0  0  0
 14 46  1  0  0  0  0
 15 16  1  0  0  0  0
 16 20  1  0  0  0  0
 16 17  2  0  0  0  0
 17 18  1  0  0  0  0
 18 19  2  0  0  0  0
 19 20  1  0  0  0  0
 19 47  1  0  0  0  0
 20 21  1  0  0  0  0
 21 22  1  0  0  0  0
 21 48  1  0  0  0  0
 21 49  1  0  0  0  0
 22 23  1  0  0  0  0
 22 24  1  0  0  0  0
 22 50  1  0  0  0  0
 23 51  1  0  0  0  0
 24 28  1  0  0  0  0
 24 25  1  0  0  0  0
 24 52  1  0  0  0  0
 25 26  1  0  0  0  0
 25 53  1  0  0  0  0
 25 54  1  0  0  0  0
 26 27  1  0  0  0  0
 26 55  1  0  0  0  0
 26 56  1  0  0  0  0
 27 28  1  0  0  0  0
 27 57  1  0  0  0  0
 27 58  1  0  0  0  0
M  CHG  1   4   1
M  END
> <s_m_source_file>
AV-unprocessed.smi

> <i_m_source_file_index>
213

> <i_lp_mmshare_version>
43012

> <i_f3d_flags>
0

> <s_epik_input>
W0NIMl0xW0NIMl1PW0NIMl1bQ0gyXU4xW0NIMl1bQ0BASF0oW0NIM10pTihbQ0gzXSljKG5bY0hdbjIpYyhjMjMpbltjSF1uM1tDSDJdW0NASF0oW09IXSlbQ0BASF00W0NIMl1bQ0gyXVtDSDJdTzQ=

> <s_epik_cmdline>
J2VwaWtfcHl0aG9uJywgJy1waCcsICc3LjAnLCAnLXRuJywgJzgnLCAnLW1hJywgJzIwMCcsICctbWV0YWxfYmluZGluZycsICctaW1hZScsICc8aW5maWxlLm1hZT4nLCAnLW9tYWUnLCAnPG91dGZpbGUubWFlPic=

> <r_lp_tautomer_probability>
1

> <r_epik_Ionization_Penalty>
0.399679

> <r_epik_Ionization_Penalty_Charging>
0.399433

> <r_epik_Ionization_Penalty_Neutral>
0.000246213

> <r_epik_State_Penalty>
0.286032

> <r_epik_Charging_Adjusted_Penalty>
0.685465

> <i_epik_Tot_Q>
1

> <i_epik_Tot_abs_Q>
1

> <r_epik_Metal_State_Penalty>
0.286072

> <b_epik_Metal_Only>
0

> <s_lp_Force_Field>
OPLS_2005

> <r_lp_Energy>
46.8913

> <b_lp_Chiralities_Consistent>
1

> <s_lp_Variant>
AV-unprocessed.smi:213-3

> <Gold.Version>
5.8.1

> <Gold.Id.Protein>
6NUR|6NUR_protein|mol2

> <Gold.PLP.Fitness>
51.6346

> <Gold.PLP.PLP>
-48.4704

> <Gold.PLP.part.hbond>
-2.9194

> <Gold.PLP.part.metal>
0.0000

> <Gold.PLP.part.buried>
-6.7340

> <Gold.PLP.part.nonpolar>
-39.2215

> <Gold.PLP.part.repulsive>
0.2004

> <Gold.PLP.ligand.clash>
0.0000

> <Gold.PLP.ligand.torsion>
1.3792

> <Gold.PLP.Chemscore.Hbond>
1.5688

> <Gold.PLP.Chemscore.CHOScore>
0.0000

> <Gold.PLP.Chemscore.Metal>
0.0000

> <Gold.Chemscore.Hbonds>
donor molecule, donor type, donor heavy atom, donor atom, acceptor molecule, acceptor atom, score
      P1  H  7989  7998       L1     7  1.00
      P1  H  7997  8009       L1    13  0.15

> <Gold.PLP.Chemscore.Internal.Correction>
1.2165

> <Gold.Rescore>
     Score         DG    S(hbond)    S(metal)    S(lipo)     H(rot)  DE(clash)    DE(int)     intcor
      9.36     -14.40       0.94        0.00     111.18       2.83       0.06       4.98       ----

> <Gold.Chemscore.Fitness>
9.3629

> <Gold.Chemscore.DG>
-14.4028

> <Gold.Chemscore.ZeroCoef>
-5.4800

> <Gold.Chemscore.Hbond>
0.9426

> <Gold.Chemscore.Metal>
0.0000

> <Gold.Chemscore.Lipo>
111.1753

> <Gold.Chemscore.Internal_Hbond>
0.0000

> <Gold.Chemscore.DEClash>
0.0645

> <Gold.Chemscore.DEInternal>
4.9755

> <Gold.Chemscore.Rot>
2.8254

> <Gold.Chemscore.Internal.Correction>
   9.000000E+99

> <Gold.Chemscore.Hbonds>
donor molecule, donor type, donor heavy atom, donor atom, acceptor molecule, acceptor atom, score
      P1  H  7989  7998       L1     7  0.60
      P1  H  7997  8009       L1    13  0.04

> <Gold.Chemscore.Hbond.Weighted>
-3.1483

> <Gold.Chemscore.Metal.Weighted>
-0.0000

> <Gold.Chemscore.Lipo.Weighted>
-13.0075

> <Gold.Chemscore.Internal_Hbond.Weighted>
0.0000

> <Gold.Chemscore.DEClash.Weighted>
0.0645

> <Gold.Chemscore.DEInternal.Weighted>
4.9755

> <Gold.Chemscore.Rot.Weighted>
7.2330

> <Gold.Chemscore.Internal.Correction.Weighted>
   9.000000E+99

> <Gold.Protein.RotatedTorsions>
[ 6907 6896 6895 6894 ] final  111.10 input  -60.11 | X-H torsion
[ 7974 7965 7964 7962 ] final  163.00 input  175.53 | X-H torsion
[ 8008 7997 7996 7995 ] final  152.46 input   59.86 | X-H torsion
[ 10167 10162 10161 10158 ] final   19.75 input  -65.29 | X-H torsion
[ 10718 10713 10712 10709 ] final   -1.18 input   66.30 | X-H torsion
[ 10763 10752 10751 10750 ] final   87.32 input  -60.55 | X-H torsion
[ 11005 11000 10999 10996 ] final   63.97 input  -57.11 | X-H torsion

> <Gold.Protein.ActiveResidues>
 VAL166  LYS551  ARG553  GLY616  TRP617  ASP618  TYR619  PRO620  LYS621  CYS622 
 ASP623  PHE694  ASN695  SER759  ASP760  ASP761  ALA762  ILE779  LEU786  VAL792 
 PHE793  MET794  SER795  GLU796  ALA797  LYS798  CYS799  TRP800  GLU811  SER814 

> <Gold.Protein.RotatedAtoms>
  152.4987  133.8706  159.7296 H   0  0  0  0  0  0  0  0  0  0  0  0  # atno 6907 bound_to 6896
  150.9194  133.6890  159.2842 H   0  0  0  0  0  0  0  0  0  0  0  0  # atno 6908 bound_to 6896
  151.4272  135.1009  159.9684 H   0  0  0  0  0  0  0  0  0  0  0  0  # atno 6909 bound_to 6896
  144.7610  139.8120  143.6332 H   0  0  0  0  0  0  0  0  0  0  0  0  # atno 7974 bound_to 7965
  156.2628  140.2020  156.6336 H   0  0  0  0  0  0  0  0  0  0  0  0  # atno 8008 bound_to 7997
  154.6663  140.0555  157.0142 H   0  0  0  0  0  0  0  0  0  0  0  0  # atno 8009 bound_to 7997
  155.1202  140.3224  155.4502 H   0  0  0  0  0  0  0  0  0  0  0  0  # atno 8010 bound_to 7997
  140.5556  143.9431  150.6607 H   0  0  0  0  0  0  0  0  0  0  0  0  # atno 10167 bound_to 10162
  156.8094  130.5419  149.5711 H   0  0  0  0  0  0  0  0  0  0  0  0  # atno 10718 bound_to 10713
  153.1657  135.4548  154.9834 H   0  0  0  0  0  0  0  0  0  0  0  0  # atno 10763 bound_to 10752
  154.7930  135.3227  154.7735 H   0  0  0  0  0  0  0  0  0  0  0  0  # atno 10764 bound_to 10752
  153.8218  135.6946  153.4881 H   0  0  0  0  0  0  0  0  0  0  0  0  # atno 10765 bound_to 10752
  139.9990  134.6472  155.9963 H   0  0  0  0  0  0  0  0  0  0  0  0  # atno 11005 bound_to 11000
  146.1673  139.4809  142.9950 LP  0  0  0  0  0  0  0  0  0  0  0  0  # atno 17320 bound_to 7965
  145.6620  141.0238  143.1704 LP  0  0  0  0  0  0  0  0  0  0  0  0  # atno 17321 bound_to 7965
  140.2868  143.3351  152.1099 LP  0  0  0  0  0  0  0  0  0  0  0  0  # atno 17342 bound_to 10162
  139.5046  144.6779  151.6082 LP  0  0  0  0  0  0  0  0  0  0  0  0  # atno 17343 bound_to 10162
  156.1053  130.6000  150.9961 LP  0  0  0  0  0  0  0  0  0  0  0  0  # atno 17370 bound_to 10713
  157.6513  131.0896  150.8043 LP  0  0  0  0  0  0  0  0  0  0  0  0  # atno 17371 bound_to 10713
  141.1627  133.6538  156.4372 LP  0  0  0  0  0  0  0  0  0  0  0  0  # atno 17394 bound_to 11000
  140.4764  134.6705  157.5152 LP  0  0  0  0  0  0  0  0  0  0  0  0  # atno 17395 bound_to 11000

$$$$
