AV-unprocessed.smi:155|AV-procd|sdf|1282|dock5
  -GOLD-   2262018553D 1   1.00000     0.00000
 Structure written by MMmdl.
 64 67  0  0  0  0  0  0  0  0  3 V2000
  145.6346  132.0755  150.0597 C   0  0  0  0  0  0  0  0  0  0  0  0
  146.5569  131.8023  151.1871 N   0  3  0  0  0  0  0  0  0  0  0  0
  146.0502  130.7048  152.0418 C   0  0  0  0  0  0  0  0  0  0  0  0
  146.8989  133.0141  151.9769 C   0  0  0  0  0  0  0  0  0  0  0  0
  148.3132  132.9453  152.5929 C   0  0  0  0  0  0  0  0  0  0  0  0
  148.4734  133.8259  153.7813 N   0  3  1  0  0  0  0  0  0  0  0  0
  147.1860  134.1088  154.4815 C   0  0  0  0  0  0  0  0  0  0  0  0
  147.3460  134.7323  155.8837 C   0  0  0  0  0  0  0  0  0  0  0  0
  148.2097  136.0039  155.9122 C   0  0  0  0  0  0  0  0  0  0  0  0
  149.5469  135.8138  155.3470 N   0  0  0  0  0  0  0  0  0  0  0  0
  150.3021  136.9386  155.2950 C   0  0  0  0  0  0  0  0  0  0  0  0
  151.4478  136.8870  154.5682 N   0  0  0  0  0  0  0  0  0  0  0  0
  152.2388  137.9604  154.4787 C   0  0  0  0  0  0  0  0  0  0  0  0
  152.0735  139.1664  155.0249 N   0  0  0  0  0  0  0  0  0  0  0  0
  150.9198  139.2274  155.7489 C   0  0  0  0  0  0  0  0  0  0  0  0
  149.9830  138.1713  155.9367 C   0  0  0  0  0  0  0  0  0  0  0  0
  148.9263  138.6174  156.7239 N   0  0  0  0  0  0  0  0  0  0  0  0
  149.2257  139.8593  156.9921 C   0  0  0  0  0  0  0  0  0  0  0  0
  150.4047  140.3071  156.4425 N   0  0  0  0  0  0  0  0  0  0  0  0
  150.9758  141.6359  156.5694 C   0  0  0  0  0  0  0  0  0  0  0  0
  151.3936  141.9559  158.0202 C   0  0  1  0  0  0  0  0  0  0  0  0
  152.4410  141.1013  158.4358 O   0  0  0  0  0  0  0  0  0  0  0  0
  151.8207  143.4203  158.2500 C   0  0  2  0  0  0  0  0  0  0  0  0
  152.4321  143.6833  159.6277 C   0  0  0  0  0  0  0  0  0  0  0  0
  152.1973  145.1678  159.7869 C   0  0  0  0  0  0  0  0  0  0  0  0
  150.8147  145.3301  159.1631 C   0  0  0  0  0  0  0  0  0  0  0  0
  150.7123  144.3157  158.1670 O   0  0  0  0  0  0  0  0  0  0  0  0
  150.2366  134.5262  155.4689 C   0  0  0  0  0  0  0  0  0  0  0  0
  149.5605  133.3681  154.6920 C   0  0  0  0  0  0  0  0  0  0  0  0
  144.6817  132.4663  150.4194 H   0  0  0  0  0  0  0  0  0  0  0  0
  145.4340  131.1615  149.4993 H   0  0  0  0  0  0  0  0  0  0  0  0
  146.0552  132.7945  149.3579 H   0  0  0  0  0  0  0  0  0  0  0  0
  145.1237  130.9938  152.5404 H   0  0  0  0  0  0  0  0  0  0  0  0
  146.7815  130.4366  152.8054 H   0  0  0  0  0  0  0  0  0  0  0  0
  145.8540  129.8108  151.4484 H   0  0  0  0  0  0  0  0  0  0  0  0
  146.7900  133.9020  151.3517 H   0  0  0  0  0  0  0  0  0  0  0  0
  146.1715  133.1120  152.7832 H   0  0  0  0  0  0  0  0  0  0  0  0
  148.5653  131.9178  152.8591 H   0  0  0  0  0  0  0  0  0  0  0  0
  149.0377  133.2577  151.8420 H   0  0  0  0  0  0  0  0  0  0  0  0
  146.5913  134.7830  153.8650 H   0  0  0  0  0  0  0  0  0  0  0  0
  146.6157  133.1837  154.5776 H   0  0  0  0  0  0  0  0  0  0  0  0
  146.3562  134.9772  156.2700 H   0  0  0  0  0  0  0  0  0  0  0  0
  147.7441  133.9988  156.5855 H   0  0  0  0  0  0  0  0  0  0  0  0
  147.6896  136.7877  155.3600 H   0  0  0  0  0  0  0  0  0  0  0  0
  148.3061  136.3584  156.9394 H   0  0  0  0  0  0  0  0  0  0  0  0
  153.1315  137.8362  153.8831 H   0  0  0  0  0  0  0  0  0  0  0  0
  148.5879  140.4890  157.5959 H   0  0  0  0  0  0  0  0  0  0  0  0
  151.8318  141.7086  155.8973 H   0  0  0  0  0  0  0  0  0  0  0  0
  150.2387  142.3558  156.2130 H   0  0  0  0  0  0  0  0  0  0  0  0
  150.5553  141.7427  158.6849 H   0  0  0  0  0  0  0  0  0  0  0  0
  152.8236  141.4587  159.2225 H   0  0  0  0  0  0  0  0  0  0  0  0
  152.5527  143.7221  157.4983 H   0  0  0  0  0  0  0  0  0  0  0  0
  151.8979  143.1392  160.4074 H   0  0  0  0  0  0  0  0  0  0  0  0
  153.4861  143.4090  159.6833 H   0  0  0  0  0  0  0  0  0  0  0  0
  152.2408  145.5029  160.8236 H   0  0  0  0  0  0  0  0  0  0  0  0
  152.9380  145.7275  159.2137 H   0  0  0  0  0  0  0  0  0  0  0  0
  150.0374  145.1594  159.9089 H   0  0  0  0  0  0  0  0  0  0  0  0
  150.6647  146.3229  158.7383 H   0  0  0  0  0  0  0  0  0  0  0  0
  151.2525  134.6293  155.0852 H   0  0  0  0  0  0  0  0  0  0  0  0
  150.3332  134.2649  156.5234 H   0  0  0  0  0  0  0  0  0  0  0  0
  149.1716  132.6136  155.3775 H   0  0  0  0  0  0  0  0  0  0  0  0
  150.3419  132.8608  154.1254 H   0  0  0  0  0  0  0  0  0  0  0  0
  147.4193  131.4627  150.7852 H   0  0  0  0  0  0  0  0  0  0  0  0
  148.7999  134.7136  153.4255 H   0  0  0  0  0  0  0  0  0  0  0  0
  1  2  1  0  0  0  0
  1 30  1  0  0  0  0
  1 31  1  0  0  0  0
  1 32  1  0  0  0  0
  2  3  1  0  0  0  0
  2  4  1  0  0  0  0
  2 63  1  0  0  0  0
  3 33  1  0  0  0  0
  3 34  1  0  0  0  0
  3 35  1  0  0  0  0
  4  5  1  0  0  0  0
  4 36  1  0  0  0  0
  4 37  1  0  0  0  0
  5  6  1  0  0  0  0
  5 38  1  0  0  0  0
  5 39  1  0  0  0  0
  6 29  1  0  0  0  0
  6  7  1  0  0  0  0
  6 64  1  0  0  0  0
  7  8  1  0  0  0  0
  7 40  1  0  0  0  0
  7 41  1  0  0  0  0
  8  9  1  0  0  0  0
  8 42  1  0  0  0  0
  8 43  1  0  0  0  0
  9 10  1  0  0  0  0
  9 44  1  0  0  0  0
  9 45  1  0  0  0  0
 10 11  1  0  0  0  0
 10 28  1  0  0  0  0
 11 16  1  0  0  0  0
 11 12  2  0  0  0  0
 12 13  1  0  0  0  0
 13 14  2  0  0  0  0
 13 46  1  0  0  0  0
 14 15  1  0  0  0  0
 15 19  1  0  0  0  0
 15 16  2  0  0  0  0
 16 17  1  0  0  0  0
 17 18  2  0  0  0  0
 18 19  1  0  0  0  0
 18 47  1  0  0  0  0
 19 20  1  0  0  0  0
 20 21  1  0  0  0  0
 20 48  1  0  0  0  0
 20 49  1  0  0  0  0
 21 22  1  0  0  0  0
 21 23  1  0  0  0  0
 21 50  1  0  0  0  0
 22 51  1  0  0  0  0
 23 27  1  0  0  0  0
 23 24  1  0  0  0  0
 23 52  1  0  0  0  0
 24 25  1  0  0  0  0
 24 53  1  0  0  0  0
 24 54  1  0  0  0  0
 25 26  1  0  0  0  0
 25 55  1  0  0  0  0
 25 56  1  0  0  0  0
 26 27  1  0  0  0  0
 26 57  1  0  0  0  0
 26 58  1  0  0  0  0
 28 29  1  0  0  0  0
 28 59  1  0  0  0  0
 28 60  1  0  0  0  0
 29 61  1  0  0  0  0
 29 62  1  0  0  0  0
M  CHG  1   2   1
M  CHG  1   6   1
M  END
> <s_m_source_file>
AV-unprocessed.smi

> <i_m_source_file_index>
155

> <i_lp_mmshare_version>
43012

> <i_f3d_flags>
0

> <s_epik_input>
W0NIM11OKFtDSDNdKVtDSDJdW0NIMl1OMVtDSDJdW0NIMl1bQ0gyXU4oW0NIMl1bQ0gyXTEpYyhuW2NIXW4yKWMoYzIzKW5bY0hdbjNbQ0gyXVtDQEhdKFtPSF0pW0NAQEhdNFtDSDJdW0NIMl1bQ0gyXU80

> <s_epik_cmdline>
J2VwaWtfcHl0aG9uJywgJy1waCcsICc3LjAnLCAnLXRuJywgJzgnLCAnLW1hJywgJzIwMCcsICctbWV0YWxfYmluZGluZycsICctaW1hZScsICc8aW5maWxlLm1hZT4nLCAnLW9tYWUnLCAnPG91dGZpbGUubWFlPic=

> <r_lp_tautomer_probability>
1

> <r_epik_Ionization_Penalty>
3.0333

> <r_epik_Ionization_Penalty_Charging>
3.03317

> <r_epik_Ionization_Penalty_Neutral>
0.000131872

> <r_epik_State_Penalty>
1.99939

> <r_epik_Charging_Adjusted_Penalty>
5.03256

> <i_epik_Tot_Q>
2

> <i_epik_Tot_abs_Q>
2

> <r_epik_Metal_State_Penalty>
2.00021

> <b_epik_Metal_Only>
0

> <s_lp_Force_Field>
OPLS_2005

> <r_lp_Energy>
68.073

> <b_lp_Chiralities_Consistent>
1

> <s_lp_Variant>
AV-unprocessed.smi:155-16

> <Gold.Version>
5.8.1

> <Gold.Id.Protein>
6NUR|6NUR_protein|mol2

> <Gold.PLP.Fitness>
62.2715

> <Gold.PLP.PLP>
-49.9638

> <Gold.PLP.part.hbond>
-4.0000

> <Gold.PLP.part.metal>
0.0000

> <Gold.PLP.part.buried>
-7.9099

> <Gold.PLP.part.nonpolar>
-38.3682

> <Gold.PLP.part.repulsive>
0.7519

> <Gold.PLP.ligand.clash>
0.0570

> <Gold.PLP.ligand.torsion>
1.3332

> <Gold.PLP.Chemscore.Hbond>
4.8596

> <Gold.PLP.Chemscore.CHOScore>
0.0000

> <Gold.PLP.Chemscore.Metal>
0.0000

> <Gold.Chemscore.Hbonds>
donor molecule, donor type, donor heavy atom, donor atom, acceptor molecule, acceptor atom, score
      L1  H     2    63       P1 10747  1.00
      L1  H     6    64       P1  7948  1.43
      P1  H  7989  7998       L1    14  0.27
      P1  H 10752 10765       L1    12  0.65

> <Gold.PLP.Chemscore.Internal.Correction>
0.4523

> <Gold.Rescore>
     Score         DG    S(hbond)    S(metal)    S(lipo)     H(rot)  DE(clash)    DE(int)     intcor
     15.38     -18.01       2.00        0.00     110.18       2.75       0.04       2.59       ----

> <Gold.Chemscore.Fitness>
15.3796

> <Gold.Chemscore.DG>
-18.0091

> <Gold.Chemscore.ZeroCoef>
-5.4800

> <Gold.Chemscore.Hbond>
1.9990

> <Gold.Chemscore.Metal>
0.0000

> <Gold.Chemscore.Lipo>
110.1764

> <Gold.Chemscore.Internal_Hbond>
0.0000

> <Gold.Chemscore.DEClash>
0.0384

> <Gold.Chemscore.DEInternal>
2.5911

> <Gold.Chemscore.Rot>
2.7493

> <Gold.Chemscore.Internal.Correction>
   9.000000E+99

> <Gold.Chemscore.Hbonds>
donor molecule, donor type, donor heavy atom, donor atom, acceptor molecule, acceptor atom, score
      L1  H     2    63       P1 10747  1.00
      L1  H     6    64       P1  7948  0.24
      P1  H  7989  7998       L1    14  0.06
      P1  H 10752 10765       L1    12  0.06

> <Gold.Chemscore.Hbond.Weighted>
-6.6768

> <Gold.Chemscore.Metal.Weighted>
-0.0000

> <Gold.Chemscore.Lipo.Weighted>
-12.8906

> <Gold.Chemscore.Internal_Hbond.Weighted>
0.0000

> <Gold.Chemscore.DEClash.Weighted>
0.0384

> <Gold.Chemscore.DEInternal.Weighted>
2.5911

> <Gold.Chemscore.Rot.Weighted>
7.0383

> <Gold.Chemscore.Internal.Correction.Weighted>
   9.000000E+99

> <Gold.Protein.RotatedTorsions>
[ 6907 6896 6895 6894 ] final -102.27 input  -60.11 | X-H torsion
[ 7974 7965 7964 7962 ] final -134.94 input  175.53 | X-H torsion
[ 8008 7997 7996 7995 ] final   30.62 input   59.86 | X-H torsion
[ 10167 10162 10161 10158 ] final  171.44 input  -65.29 | X-H torsion
[ 10718 10713 10712 10709 ] final  -37.79 input   66.30 | X-H torsion
[ 10763 10752 10751 10750 ] final  163.68 input  -60.55 | X-H torsion
[ 11005 11000 10999 10996 ] final -143.82 input  -57.11 | X-H torsion

> <Gold.Protein.ActiveResidues>
 VAL166  LYS551  ARG553  GLY616  TRP617  ASP618  TYR619  PRO620  LYS621  CYS622 
 ASP623  PHE694  ASN695  SER759  ASP760  ASP761  ALA762  ILE779  LEU786  VAL792 
 PHE793  MET794  SER795  GLU796  ALA797  LYS798  CYS799  TRP800  GLU811  SER814 

> <Gold.Protein.RotatedAtoms>
  150.7189  134.0607  159.3830 H   0  0  0  0  0  0  0  0  0  0  0  0  # atno 6907 bound_to 6896
  151.8587  135.0530  160.0476 H   0  0  0  0  0  0  0  0  0  0  0  0  # atno 6908 bound_to 6896
  152.2734  133.5367  159.5489 H   0  0  0  0  0  0  0  0  0  0  0  0  # atno 6909 bound_to 6896
  144.9058  140.6830  143.5056 H   0  0  0  0  0  0  0  0  0  0  0  0  # atno 7974 bound_to 7965
  155.0934  140.3222  155.4567 H   0  0  0  0  0  0  0  0  0  0  0  0  # atno 8008 bound_to 7997
  156.2736  140.2074  156.6007 H   0  0  0  0  0  0  0  0  0  0  0  0  # atno 8009 bound_to 7997
  154.6886  140.0519  157.0327 H   0  0  0  0  0  0  0  0  0  0  0  0  # atno 8010 bound_to 7997
  139.5047  144.3486  151.9946 H   0  0  0  0  0  0  0  0  0  0  0  0  # atno 10167 bound_to 10162
  156.3112  130.4253  149.8049 H   0  0  0  0  0  0  0  0  0  0  0  0  # atno 10718 bound_to 10713
  154.2973  135.2759  155.2627 H   0  0  0  0  0  0  0  0  0  0  0  0  # atno 10763 bound_to 10752
  154.5079  135.5790  153.6585 H   0  0  0  0  0  0  0  0  0  0  0  0  # atno 10764 bound_to 10752
  152.9905  135.6174  154.3142 H   0  0  0  0  0  0  0  0  0  0  0  0  # atno 10765 bound_to 10752
  140.8086  134.2771  157.4950 H   0  0  0  0  0  0  0  0  0  0  0  0  # atno 11005 bound_to 11000
  145.3539  139.1699  143.4420 LP  0  0  0  0  0  0  0  0  0  0  0  0  # atno 17320 bound_to 7965
  146.3132  140.3594  142.8663 LP  0  0  0  0  0  0  0  0  0  0  0  0  # atno 17321 bound_to 7965
  140.2923  144.3740  150.6085 LP  0  0  0  0  0  0  0  0  0  0  0  0  # atno 17342 bound_to 10162
  140.5937  143.2167  151.7204 LP  0  0  0  0  0  0  0  0  0  0  0  0  # atno 17343 bound_to 10162
  156.5391  130.8292  151.3263 LP  0  0  0  0  0  0  0  0  0  0  0  0  # atno 17370 bound_to 10713
  157.7391  130.9826  150.2294 LP  0  0  0  0  0  0  0  0  0  0  0  0  # atno 17371 bound_to 10713
  139.8716  134.9470  156.3955 LP  0  0  0  0  0  0  0  0  0  0  0  0  # atno 17394 bound_to 11000
  140.9221  133.7638  155.9919 LP  0  0  0  0  0  0  0  0  0  0  0  0  # atno 17395 bound_to 11000

$$$$
