AV-unprocessed.smi:1535|AV-procd|sdf|6179|dock1
  -GOLD-   22720 6333D 1   1.00000     0.00000
 Structure written by MMmdl.
 47 48  0  0  0  0  0  0  0  0  2 V2000
  152.1940  143.5712  160.0995 C   0  0  0  0  0  0  0  0  0  0  0  0
  152.2482  142.2107  159.4271 C   0  0  0  0  0  0  0  0  0  0  0  0
  153.1442  141.2358  159.9209 C   0  0  0  0  0  0  0  0  0  0  0  0
  153.2240  139.9579  159.3255 C   0  0  0  0  0  0  0  0  0  0  0  0
  154.0149  138.8664  159.6406 N   0  0  0  0  0  0  0  0  0  0  0  0
  153.6303  137.9827  158.7243 C   0  0  0  0  0  0  0  0  0  0  0  0
  152.6837  138.3746  157.8494 N   0  0  0  0  0  0  0  0  0  0  0  0
  152.1128  137.5983  156.7635 C   0  0  0  0  0  0  0  0  0  0  0  0
  152.0418  138.3988  155.4493 C   0  0  1  0  0  0  0  0  0  0  0  0
  153.3455  138.8069  155.0797 O   0  0  0  0  0  0  0  0  0  0  0  0
  151.4373  137.5692  154.2994 C   0  0  0  0  0  0  0  0  0  0  0  0
  149.9641  137.4134  154.4306 N   0  3  2  0  0  0  0  0  0  0  0  0
  149.2606  138.7163  154.5254 C   0  0  0  0  0  0  0  0  0  0  0  0
  149.5848  136.4784  155.5233 C   0  0  0  0  0  0  0  0  0  0  0  0
  150.3296  135.1310  155.4493 C   0  0  2  0  0  0  0  0  0  0  0  0
  149.8102  134.2665  154.2934 C   0  0  0  0  0  0  0  0  0  0  0  0
  150.2420  134.4009  156.7247 C   0  0  0  0  0  0  0  0  0  0  0  0
  150.1728  133.8237  157.7243 N   0  0  0  0  0  0  0  0  0  0  0  0
  152.3784  139.6814  158.2118 C   0  0  0  0  0  0  0  0  0  0  0  0
  151.4833  140.6427  157.7108 C   0  0  0  0  0  0  0  0  0  0  0  0
  151.4134  141.9132  158.3199 C   0  0  0  0  0  0  0  0  0  0  0  0
  150.4397  142.9433  157.7756 C   0  0  0  0  0  0  0  0  0  0  0  0
  152.9267  143.6473  160.9033 H   0  0  0  0  0  0  0  0  0  0  0  0
  151.2069  143.7452  160.5281 H   0  0  0  0  0  0  0  0  0  0  0  0
  152.4045  144.3633  159.3805 H   0  0  0  0  0  0  0  0  0  0  0  0
  153.7795  141.4619  160.7645 H   0  0  0  0  0  0  0  0  0  0  0  0
  154.0662  136.9952  158.6829 H   0  0  0  0  0  0  0  0  0  0  0  0
  152.7033  136.6903  156.6315 H   0  0  0  0  0  0  0  0  0  0  0  0
  151.1142  137.2794  157.0651 H   0  0  0  0  0  0  0  0  0  0  0  0
  151.4459  139.2942  155.6235 H   0  0  0  0  0  0  0  0  0  0  0  0
  153.9561  138.1231  155.3105 H   0  0  0  0  0  0  0  0  0  0  0  0
  151.6886  138.0620  153.3591 H   0  0  0  0  0  0  0  0  0  0  0  0
  151.8997  136.5817  154.2526 H   0  0  0  0  0  0  0  0  0  0  0  0
  149.5018  139.2232  155.4604 H   0  0  0  0  0  0  0  0  0  0  0  0
  148.1802  138.5885  154.4774 H   0  0  0  0  0  0  0  0  0  0  0  0
  149.5319  139.3798  153.7054 H   0  0  0  0  0  0  0  0  0  0  0  0
  149.8202  136.9318  156.4874 H   0  0  0  0  0  0  0  0  0  0  0  0
  148.5049  136.3227  155.5112 H   0  0  0  0  0  0  0  0  0  0  0  0
  151.3898  135.3063  155.2710 H   0  0  0  0  0  0  0  0  0  0  0  0
  150.3606  133.3274  154.2307 H   0  0  0  0  0  0  0  0  0  0  0  0
  149.9212  134.7783  153.3372 H   0  0  0  0  0  0  0  0  0  0  0  0
  148.7549  134.0241  154.4233 H   0  0  0  0  0  0  0  0  0  0  0  0
  150.8545  140.4033  156.8663 H   0  0  0  0  0  0  0  0  0  0  0  0
  149.8523  142.5393  156.9506 H   0  0  0  0  0  0  0  0  0  0  0  0
  150.9760  143.8184  157.4083 H   0  0  0  0  0  0  0  0  0  0  0  0
  149.7464  143.2628  158.5541 H   0  0  0  0  0  0  0  0  0  0  0  0
  149.6637  136.9739  153.5715 H   0  0  0  0  0  0  0  0  0  0  0  0
  1  2  1  0  0  0  0
  1 23  1  0  0  0  0
  1 24  1  0  0  0  0
  1 25  1  0  0  0  0
  2 21  1  0  0  0  0
  2  3  2  0  0  0  0
  3  4  1  0  0  0  0
  3 26  1  0  0  0  0
  4 19  2  0  0  0  0
  4  5  1  0  0  0  0
  5  6  2  0  0  0  0
  6  7  1  0  0  0  0
  6 27  1  0  0  0  0
  7  8  1  0  0  0  0
  7 19  1  0  0  0  0
  8  9  1  0  0  0  0
  8 28  1  0  0  0  0
  8 29  1  0  0  0  0
  9 10  1  0  0  0  0
  9 11  1  0  0  0  0
  9 30  1  0  0  0  0
 10 31  1  0  0  0  0
 11 12  1  0  0  0  0
 11 32  1  0  0  0  0
 11 33  1  0  0  0  0
 12 13  1  0  0  0  0
 12 14  1  0  0  0  0
 12 47  1  0  0  0  0
 13 34  1  0  0  0  0
 13 35  1  0  0  0  0
 13 36  1  0  0  0  0
 14 15  1  0  0  0  0
 14 37  1  0  0  0  0
 14 38  1  0  0  0  0
 15 16  1  0  0  0  0
 15 17  1  0  0  0  0
 15 39  1  0  0  0  0
 16 40  1  0  0  0  0
 16 41  1  0  0  0  0
 16 42  1  0  0  0  0
 17 18  3  0  0  0  0
 19 20  1  0  0  0  0
 20 21  2  0  0  0  0
 20 43  1  0  0  0  0
 21 22  1  0  0  0  0
 22 44  1  0  0  0  0
 22 45  1  0  0  0  0
 22 46  1  0  0  0  0
M  CHG  1  12   1
M  END
> <s_m_source_file>
AV-unprocessed.smi

> <i_m_source_file_index>
1535

> <i_lp_mmshare_version>
43012

> <i_f3d_flags>
0

> <s_epik_input>
W0NIM11jKFtjSF0xKWMoW0NIM10pW2NIXWMoYzEyKW4oW2NIXW4yKVtDSDJdW0NASF0oW09IXSlbQ0gyXU4oW0NIM10pW0NIMl1bQ0BIXShbQ0gzXSlDI04=

> <s_epik_cmdline>
J2VwaWtfcHl0aG9uJywgJy1waCcsICc3LjAnLCAnLXRuJywgJzgnLCAnLW1hJywgJzIwMCcsICctbWV0YWxfYmluZGluZycsICctaW1hZScsICc8aW5maWxlLm1hZT4nLCAnLW9tYWUnLCAnPG91dGZpbGUubWFlPic=

> <r_epik_Ionization_Penalty>
2.21058

> <r_epik_Ionization_Penalty_Charging>
2.12381

> <r_epik_Ionization_Penalty_Neutral>
0.0867699

> <r_epik_State_Penalty>
2.36208

> <r_epik_Charging_Adjusted_Penalty>
4.48589

> <i_epik_Tot_Q>
1

> <i_epik_Tot_abs_Q>
1

> <r_epik_Metal_State_Penalty>
2.2818

> <b_epik_Metal_Only>
0

> <s_lp_Force_Field>
OPLS_2005

> <r_lp_Energy>
14.9944

> <b_lp_Chiralities_Consistent>
1

> <s_lp_Variant>
AV-unprocessed.smi:1535-10

> <Gold.Version>
5.8.1

> <Gold.Id.Protein>
6NUR|6NUR_protein|mol2

> <Gold.PLP.Fitness>
49.4045

> <Gold.PLP.PLP>
-37.9601

> <Gold.PLP.part.hbond>
-2.9762

> <Gold.PLP.part.metal>
0.0000

> <Gold.PLP.part.buried>
-3.7792

> <Gold.PLP.part.nonpolar>
-31.7788

> <Gold.PLP.part.repulsive>
0.0392

> <Gold.PLP.ligand.clash>
0.0000

> <Gold.PLP.ligand.torsion>
0.4490

> <Gold.PLP.Chemscore.Hbond>
3.9120

> <Gold.PLP.Chemscore.CHOScore>
0.0000

> <Gold.PLP.Chemscore.Metal>
0.0000

> <Gold.Chemscore.Hbonds>
donor molecule, donor type, donor heavy atom, donor atom, acceptor molecule, acceptor atom, score
      L1  H    12    47       P1  7948  2.00
      P1  H  6896  6908       L1    18  0.99
      P1  H  7997  8008       L1    10  0.60

> <Gold.PLP.Chemscore.Internal.Correction>
0.6064

> <Gold.Rescore>
     Score         DG    S(hbond)    S(metal)    S(lipo)     H(rot)  DE(clash)    DE(int)     intcor
     18.67     -19.98       2.46        0.00     110.74       2.60       0.07       1.25       ----

> <Gold.Chemscore.Fitness>
18.6662

> <Gold.Chemscore.DG>
-19.9796

> <Gold.Chemscore.ZeroCoef>
-5.4800

> <Gold.Chemscore.Hbond>
2.4572

> <Gold.Chemscore.Metal>
0.0000

> <Gold.Chemscore.Lipo>
110.7390

> <Gold.Chemscore.Internal_Hbond>
0.0000

> <Gold.Chemscore.DEClash>
0.0673

> <Gold.Chemscore.DEInternal>
1.2461

> <Gold.Chemscore.Rot>
2.6031

> <Gold.Chemscore.Internal.Correction>
   9.000000E+99

> <Gold.Chemscore.Hbonds>
donor molecule, donor type, donor heavy atom, donor atom, acceptor molecule, acceptor atom, score
      L1  H    12    47       P1  7948  0.69
      P1  H  6896  6908       L1    18  0.94
      P1  H  7997  8008       L1    10  0.04

> <Gold.Chemscore.Hbond.Weighted>
-8.2071

> <Gold.Chemscore.Metal.Weighted>
-0.0000

> <Gold.Chemscore.Lipo.Weighted>
-12.9565

> <Gold.Chemscore.Internal_Hbond.Weighted>
0.0000

> <Gold.Chemscore.DEClash.Weighted>
0.0673

> <Gold.Chemscore.DEInternal.Weighted>
1.2461

> <Gold.Chemscore.Rot.Weighted>
6.6640

> <Gold.Chemscore.Internal.Correction.Weighted>
   9.000000E+99

> <Gold.Protein.RotatedTorsions>
[ 6907 6896 6895 6894 ] final  117.74 input  -60.11 | X-H torsion
[ 7974 7965 7964 7962 ] final   34.08 input  175.53 | X-H torsion
[ 8008 7997 7996 7995 ] final  -12.17 input   59.86 | X-H torsion
[ 10167 10162 10161 10158 ] final  -58.02 input  -65.29 | X-H torsion
[ 10718 10713 10712 10709 ] final  -36.45 input   66.30 | X-H torsion
[ 10763 10752 10751 10750 ] final  167.20 input  -60.55 | X-H torsion
[ 11005 11000 10999 10996 ] final -131.15 input  -57.11 | X-H torsion

> <Gold.Protein.ActiveResidues>
 VAL166  LYS551  ARG553  GLY616  TRP617  ASP618  TYR619  PRO620  LYS621  CYS622 
 ASP623  PHE694  ASN695  SER759  ASP760  ASP761  ALA762  ILE779  LEU786  VAL792 
 PHE793  MET794  SER795  GLU796  ALA797  LYS798  CYS799  TRP800  GLU811  SER814 

> <Gold.Protein.RotatedAtoms>
  152.4591  133.7785  159.6837 H   0  0  0  0  0  0  0  0  0  0  0  0  # atno 6907 bound_to 6896
  150.8528  133.7750  159.3025 H   0  0  0  0  0  0  0  0  0  0  0  0  # atno 6908 bound_to 6896
  151.5340  135.1071  159.9961 H   0  0  0  0  0  0  0  0  0  0  0  0  # atno 6909 bound_to 6896
  146.1377  139.6315  142.9184 H   0  0  0  0  0  0  0  0  0  0  0  0  # atno 7974 bound_to 7965
  154.5401  140.2283  155.8656 H   0  0  0  0  0  0  0  0  0  0  0  0  # atno 8008 bound_to 7997
  156.1850  140.3091  155.9182 H   0  0  0  0  0  0  0  0  0  0  0  0  # atno 8009 bound_to 7997
  155.3276  140.0443  157.3032 H   0  0  0  0  0  0  0  0  0  0  0  0  # atno 8010 bound_to 7997
  140.6223  143.2424  151.5451 H   0  0  0  0  0  0  0  0  0  0  0  0  # atno 10167 bound_to 10162
  156.3267  130.4273  149.7910 H   0  0  0  0  0  0  0  0  0  0  0  0  # atno 10718 bound_to 10713
  154.3503  135.2753  155.2375 H   0  0  0  0  0  0  0  0  0  0  0  0  # atno 10763 bound_to 10752
  154.4608  135.5907  153.6258 H   0  0  0  0  0  0  0  0  0  0  0  0  # atno 10764 bound_to 10752
  152.9850  135.6064  154.3713 H   0  0  0  0  0  0  0  0  0  0  0  0  # atno 10765 bound_to 10752
  140.9283  134.1353  157.4256 H   0  0  0  0  0  0  0  0  0  0  0  0  # atno 11005 bound_to 11000
  145.5118  141.0435  143.2484 LP  0  0  0  0  0  0  0  0  0  0  0  0  # atno 17320 bound_to 7965
  144.7758  139.6634  143.7175 LP  0  0  0  0  0  0  0  0  0  0  0  0  # atno 17321 bound_to 7965
  139.5449  144.2548  152.1423 LP  0  0  0  0  0  0  0  0  0  0  0  0  # atno 17342 bound_to 10162
  140.1771  144.4880  150.6548 LP  0  0  0  0  0  0  0  0  0  0  0  0  # atno 17343 bound_to 10162
  156.5198  130.8209  151.3199 LP  0  0  0  0  0  0  0  0  0  0  0  0  # atno 17370 bound_to 10713
  157.7422  130.9886  150.2503 LP  0  0  0  0  0  0  0  0  0  0  0  0  # atno 17371 bound_to 10713
  139.8790  134.9996  156.5964 LP  0  0  0  0  0  0  0  0  0  0  0  0  # atno 17394 bound_to 11000
  140.7896  133.8593  155.8635 LP  0  0  0  0  0  0  0  0  0  0  0  0  # atno 17395 bound_to 11000

$$$$
