AV-unprocessed.smi:249|AV-procd|sdf|1925|dock7
  -GOLD-   2262021 33D 1   1.00000     0.00000
 Structure written by MMmdl.
 64 67  0  0  0  0  0  0  0  0  2 V2000
  146.2327  130.2004  152.4576 C   0  0  0  0  0  0  0  0  0  0  0  0
  146.1241  131.7362  152.4575 C   0  0  0  0  0  0  0  0  0  0  0  0
  147.1029  132.4214  153.3484 N   0  3  1  0  0  0  0  0  0  0  0  0
  148.4969  131.9542  153.1184 C   0  0  0  0  0  0  0  0  0  0  0  0
  149.4456  132.4594  154.2138 C   0  0  0  0  0  0  0  0  0  0  0  0
  149.3942  133.9966  154.2972 C   0  0  2  0  0  0  0  0  0  0  0  0
  150.3523  134.5738  155.2513 N   0  0  0  0  0  0  0  0  0  0  0  0
  151.0918  133.6536  156.1089 C   0  0  0  0  0  0  0  0  0  0  0  0
  150.1897  135.8108  155.7923 C   0  0  0  0  0  0  0  0  0  0  0  0
  149.3929  135.9864  156.8790 N   0  0  0  0  0  0  0  0  0  0  0  0
  149.2487  137.1964  157.4267 C   0  0  0  0  0  0  0  0  0  0  0  0
  149.8063  138.3502  157.0575 N   0  0  0  0  0  0  0  0  0  0  0  0
  150.6132  138.1830  155.9714 C   0  0  0  0  0  0  0  0  0  0  0  0
  150.8564  136.9613  155.2820 C   0  0  0  0  0  0  0  0  0  0  0  0
  151.7184  137.1860  154.2150 N   0  0  0  0  0  0  0  0  0  0  0  0
  151.9755  138.4639  154.2743 C   0  0  0  0  0  0  0  0  0  0  0  0
  151.3703  139.1359  155.3124 N   0  0  0  0  0  0  0  0  0  0  0  0
  151.4769  140.5539  155.6079 C   0  0  0  0  0  0  0  0  0  0  0  0
  150.4652  141.0823  156.6634 C   0  0  2  0  0  0  0  0  0  0  0  0
  149.0870  141.2815  155.9872 C   0  0  0  0  0  0  0  0  0  0  0  0
  149.1807  142.1411  154.8696 O   0  0  0  0  0  0  0  0  0  0  0  0
  150.9446  142.3839  157.3741 C   0  0  1  0  0  0  0  0  0  0  0  0
  150.0020  142.9224  158.4411 C   0  0  0  0  0  0  0  0  0  0  0  0
  150.9063  143.8517  159.2365 C   0  0  0  0  0  0  0  0  0  0  0  0
  152.1525  143.1760  159.2811 O   0  0  0  0  0  0  0  0  0  0  0  0
  152.2420  142.2607  158.1928 C   0  0  0  0  0  0  0  0  0  0  0  0
  147.9396  134.4682  154.4994 C   0  0  0  0  0  0  0  0  0  0  0  0
  147.0042  133.9142  153.4038 C   0  0  2  0  0  0  0  0  0  0  0  0
  145.5674  134.4102  153.6606 C   0  0  0  0  0  0  0  0  0  0  0  0
  145.4797  129.7684  151.7983 H   0  0  0  0  0  0  0  0  0  0  0  0
  146.0695  129.7807  153.4497 H   0  0  0  0  0  0  0  0  0  0  0  0
  147.2043  129.8589  152.1014 H   0  0  0  0  0  0  0  0  0  0  0  0
  146.2267  132.1133  151.4405 H   0  0  0  0  0  0  0  0  0  0  0  0
  145.1165  132.0223  152.7615 H   0  0  0  0  0  0  0  0  0  0  0  0
  148.5238  130.8641  153.1000 H   0  0  0  0  0  0  0  0  0  0  0  0
  148.8483  132.2958  152.1443 H   0  0  0  0  0  0  0  0  0  0  0  0
  149.1662  132.0021  155.1622 H   0  0  0  0  0  0  0  0  0  0  0  0
  150.4603  132.1246  153.9972 H   0  0  0  0  0  0  0  0  0  0  0  0
  149.7027  134.3769  153.3221 H   0  0  0  0  0  0  0  0  0  0  0  0
  152.1650  133.8201  156.0153 H   0  0  0  0  0  0  0  0  0  0  0  0
  150.8964  132.6158  155.8370 H   0  0  0  0  0  0  0  0  0  0  0  0
  150.8124  133.7811  157.1558 H   0  0  0  0  0  0  0  0  0  0  0  0
  148.5966  137.2470  158.2860 H   0  0  0  0  0  0  0  0  0  0  0  0
  152.6274  138.9517  153.5641 H   0  0  0  0  0  0  0  0  0  0  0  0
  152.4960  140.7637  155.9355 H   0  0  0  0  0  0  0  0  0  0  0  0
  151.3511  141.0788  154.6606 H   0  0  0  0  0  0  0  0  0  0  0  0
  150.3326  140.3190  157.4310 H   0  0  0  0  0  0  0  0  0  0  0  0
  148.6832  140.3408  155.6156 H   0  0  0  0  0  0  0  0  0  0  0  0
  148.3618  141.6845  156.6947 H   0  0  0  0  0  0  0  0  0  0  0  0
  149.1794  143.0349  155.1766 H   0  0  0  0  0  0  0  0  0  0  0  0
  151.0797  143.1677  156.6268 H   0  0  0  0  0  0  0  0  0  0  0  0
  149.1387  143.4468  158.0308 H   0  0  0  0  0  0  0  0  0  0  0  0
  149.6436  142.1136  159.0798 H   0  0  0  0  0  0  0  0  0  0  0  0
  151.0355  144.8002  158.7132 H   0  0  0  0  0  0  0  0  0  0  0  0
  150.5247  144.0606  160.2362 H   0  0  0  0  0  0  0  0  0  0  0  0
  152.3559  141.2588  158.6082 H   0  0  0  0  0  0  0  0  0  0  0  0
  153.1264  142.4828  157.5971 H   0  0  0  0  0  0  0  0  0  0  0  0
  147.5569  134.1589  155.4714 H   0  0  0  0  0  0  0  0  0  0  0  0
  147.9098  135.5588  154.4919 H   0  0  0  0  0  0  0  0  0  0  0  0
  147.3357  134.3152  152.4447 H   0  0  0  0  0  0  0  0  0  0  0  0
  145.5475  135.4934  153.7833 H   0  0  0  0  0  0  0  0  0  0  0  0
  145.1500  133.9698  154.5668 H   0  0  0  0  0  0  0  0  0  0  0  0
  144.8973  134.1804  152.8326 H   0  0  0  0  0  0  0  0  0  0  0  0
  146.8691  132.1052  154.2789 H   0  0  0  0  0  0  0  0  0  0  0  0
  1  2  1  0  0  0  0
  1 30  1  0  0  0  0
  1 31  1  0  0  0  0
  1 32  1  0  0  0  0
  2  3  1  0  0  0  0
  2 33  1  0  0  0  0
  2 34  1  0  0  0  0
  3 28  1  0  0  0  0
  3  4  1  0  0  0  0
  3 64  1  0  0  0  0
  4  5  1  0  0  0  0
  4 35  1  0  0  0  0
  4 36  1  0  0  0  0
  5  6  1  0  0  0  0
  5 37  1  0  0  0  0
  5 38  1  0  0  0  0
  6  7  1  0  0  0  0
  6 27  1  0  0  0  0
  6 39  1  0  0  0  0
  7  8  1  0  0  0  0
  7  9  1  0  0  0  0
  8 40  1  0  0  0  0
  8 41  1  0  0  0  0
  8 42  1  0  0  0  0
  9 14  1  0  0  0  0
  9 10  2  0  0  0  0
 10 11  1  0  0  0  0
 11 12  2  0  0  0  0
 11 43  1  0  0  0  0
 12 13  1  0  0  0  0
 13 17  1  0  0  0  0
 13 14  2  0  0  0  0
 14 15  1  0  0  0  0
 15 16  2  0  0  0  0
 16 17  1  0  0  0  0
 16 44  1  0  0  0  0
 17 18  1  0  0  0  0
 18 19  1  0  0  0  0
 18 45  1  0  0  0  0
 18 46  1  0  0  0  0
 19 20  1  0  0  0  0
 19 22  1  0  0  0  0
 19 47  1  0  0  0  0
 20 21  1  0  0  0  0
 20 48  1  0  0  0  0
 20 49  1  0  0  0  0
 21 50  1  0  0  0  0
 22 26  1  0  0  0  0
 22 23  1  0  0  0  0
 22 51  1  0  0  0  0
 23 24  1  0  0  0  0
 23 52  1  0  0  0  0
 23 53  1  0  0  0  0
 24 25  1  0  0  0  0
 24 54  1  0  0  0  0
 24 55  1  0  0  0  0
 25 26  1  0  0  0  0
 26 56  1  0  0  0  0
 26 57  1  0  0  0  0
 27 28  1  0  0  0  0
 27 58  1  0  0  0  0
 27 59  1  0  0  0  0
 28 29  1  0  0  0  0
 28 60  1  0  0  0  0
 29 61  1  0  0  0  0
 29 62  1  0  0  0  0
 29 63  1  0  0  0  0
M  CHG  1   3   1
M  END
> <s_m_source_file>
AV-unprocessed.smi

> <i_m_source_file_index>
249

> <i_lp_mmshare_version>
43012

> <i_f3d_flags>
0

> <s_epik_input>
W0NIM11bQ0gyXU4xW0NIMl1bQ0gyXVtDQEhdKFtDSDJdW0NASF0xW0NIM10pTihbQ0gzXSljKG5bY0hdbjIpYyhjMjMpbltjSF1uM1tDSDJdW0NASF0oW0NIMl1bT0hdKVtDQEBIXTRbQ0gyXVtDSDJdT1tDSDJdNA==

> <s_epik_cmdline>
J2VwaWtfcHl0aG9uJywgJy1waCcsICc3LjAnLCAnLXRuJywgJzgnLCAnLW1hJywgJzIwMCcsICctbWV0YWxfYmluZGluZycsICctaW1hZScsICc8aW5maWxlLm1hZT4nLCAnLW9tYWUnLCAnPG91dGZpbGUubWFlPic=

> <r_lp_tautomer_probability>
1

> <r_epik_Ionization_Penalty>
0.00294688

> <r_epik_Ionization_Penalty_Charging>
0.00169971

> <r_epik_Ionization_Penalty_Neutral>
0.00124717

> <r_epik_State_Penalty>
-0

> <r_epik_Charging_Adjusted_Penalty>
0.00169971

> <i_epik_Tot_Q>
1

> <i_epik_Tot_abs_Q>
1

> <r_epik_Metal_State_Penalty>
-0

> <b_epik_Metal_Only>
0

> <s_lp_Force_Field>
OPLS_2005

> <r_lp_Energy>
53.7488

> <b_lp_Chiralities_Consistent>
1

> <s_lp_Variant>
AV-unprocessed.smi:249-28

> <Gold.Version>
5.8.1

> <Gold.Id.Protein>
6NUR|6NUR_protein|mol2

> <Gold.PLP.Fitness>
48.2937

> <Gold.PLP.PLP>
-45.4350

> <Gold.PLP.part.hbond>
-3.3518

> <Gold.PLP.part.metal>
0.0000

> <Gold.PLP.part.buried>
-3.9308

> <Gold.PLP.part.nonpolar>
-36.9641

> <Gold.PLP.part.repulsive>
0.1505

> <Gold.PLP.ligand.clash>
0.0000

> <Gold.PLP.ligand.torsion>
2.1368

> <Gold.PLP.Chemscore.Hbond>
2.0198

> <Gold.PLP.Chemscore.CHOScore>
0.0000

> <Gold.PLP.Chemscore.Metal>
0.0000

> <Gold.Chemscore.Hbonds>
donor molecule, donor type, donor heavy atom, donor atom, acceptor molecule, acceptor atom, score
      L1  H    21    50       P1  8028  1.00
      P1  H 10752 10764       L1    15  1.00

> <Gold.PLP.Chemscore.Internal.Correction>
1.0729

> <Gold.Rescore>
     Score         DG    S(hbond)    S(metal)    S(lipo)     H(rot)  DE(clash)    DE(int)     intcor
     13.67     -17.14       1.94        0.00     102.32       2.65       0.06       3.41       ----

> <Gold.Chemscore.Fitness>
13.6731

> <Gold.Chemscore.DG>
-17.1438

> <Gold.Chemscore.ZeroCoef>
-5.4800

> <Gold.Chemscore.Hbond>
1.9403

> <Gold.Chemscore.Metal>
0.0000

> <Gold.Chemscore.Lipo>
102.3182

> <Gold.Chemscore.Internal_Hbond>
0.0000

> <Gold.Chemscore.DEClash>
0.0602

> <Gold.Chemscore.DEInternal>
3.4105

> <Gold.Chemscore.Rot>
2.6515

> <Gold.Chemscore.Internal.Correction>
   9.000000E+99

> <Gold.Chemscore.Hbonds>
donor molecule, donor type, donor heavy atom, donor atom, acceptor molecule, acceptor atom, score
      L1  H    21    50       P1  8028  1.00
      P1  H 10752 10764       L1    15  0.49

> <Gold.Chemscore.Hbond.Weighted>
-6.4805

> <Gold.Chemscore.Metal.Weighted>
-0.0000

> <Gold.Chemscore.Lipo.Weighted>
-11.9712

> <Gold.Chemscore.Internal_Hbond.Weighted>
0.0000

> <Gold.Chemscore.DEClash.Weighted>
0.0602

> <Gold.Chemscore.DEInternal.Weighted>
3.4105

> <Gold.Chemscore.Rot.Weighted>
6.7880

> <Gold.Chemscore.Internal.Correction.Weighted>
   9.000000E+99

> <Gold.Protein.RotatedTorsions>
[ 6907 6896 6895 6894 ] final   -1.31 input  -60.11 | X-H torsion
[ 7974 7965 7964 7962 ] final  172.02 input  175.53 | X-H torsion
[ 8008 7997 7996 7995 ] final  -71.28 input   59.86 | X-H torsion
[ 10167 10162 10161 10158 ] final -120.39 input  -65.29 | X-H torsion
[ 10718 10713 10712 10709 ] final   30.19 input   66.30 | X-H torsion
[ 10763 10752 10751 10750 ] final  -81.29 input  -60.55 | X-H torsion
[ 11005 11000 10999 10996 ] final -120.40 input  -57.11 | X-H torsion

> <Gold.Protein.ActiveResidues>
 VAL166  LYS551  ARG553  GLY616  TRP617  ASP618  TYR619  PRO620  LYS621  CYS622 
 ASP623  PHE694  ASN695  SER759  ASP760  ASP761  ALA762  ILE779  LEU786  VAL792 
 PHE793  MET794  SER795  GLU796  ALA797  LYS798  CYS799  TRP800  GLU811  SER814 

> <Gold.Protein.RotatedAtoms>
  151.5482  135.1068  159.9942 H   0  0  0  0  0  0  0  0  0  0  0  0  # atno 6907 bound_to 6896
  152.4504  133.7613  159.6759 H   0  0  0  0  0  0  0  0  0  0  0  0  # atno 6908 bound_to 6896
  150.8430  133.7838  159.3078 H   0  0  0  0  0  0  0  0  0  0  0  0  # atno 6909 bound_to 6896
  144.7279  139.9436  143.6429 H   0  0  0  0  0  0  0  0  0  0  0  0  # atno 7974 bound_to 7965
  154.5076  140.0818  156.7925 H   0  0  0  0  0  0  0  0  0  0  0  0  # atno 8008 bound_to 7997
  155.3858  140.3430  155.4231 H   0  0  0  0  0  0  0  0  0  0  0  0  # atno 8009 bound_to 7997
  156.1534  140.1565  156.8719 H   0  0  0  0  0  0  0  0  0  0  0  0  # atno 8010 bound_to 7997
  140.0364  143.5197  152.2151 H   0  0  0  0  0  0  0  0  0  0  0  0  # atno 10167 bound_to 10162
  157.2564  130.7140  149.6431 H   0  0  0  0  0  0  0  0  0  0  0  0  # atno 10718 bound_to 10713
  154.5617  135.5631  153.7014 H   0  0  0  0  0  0  0  0  0  0  0  0  # atno 10763 bound_to 10752
  153.0020  135.6275  154.2235 H   0  0  0  0  0  0  0  0  0  0  0  0  # atno 10764 bound_to 10752
  154.2173  135.2871  155.2917 H   0  0  0  0  0  0  0  0  0  0  0  0  # atno 10765 bound_to 10752
  141.0146  134.0214  157.3367 H   0  0  0  0  0  0  0  0  0  0  0  0  # atno 11005 bound_to 11000
  146.0766  139.3753  143.0490 LP  0  0  0  0  0  0  0  0  0  0  0  0  # atno 17320 bound_to 7965
  145.7897  140.9820  143.1055 LP  0  0  0  0  0  0  0  0  0  0  0  0  # atno 17321 bound_to 7965
  139.6042  144.7591  151.3100 LP  0  0  0  0  0  0  0  0  0  0  0  0  # atno 17342 bound_to 10162
  140.7279  143.6949  150.7892 LP  0  0  0  0  0  0  0  0  0  0  0  0  # atno 17343 bound_to 10162
  155.9665  130.4411  150.5328 LP  0  0  0  0  0  0  0  0  0  0  0  0  # atno 17370 bound_to 10713
  157.3223  131.0684  151.1923 LP  0  0  0  0  0  0  0  0  0  0  0  0  # atno 17371 bound_to 10713
  139.9109  135.0190  156.7689 LP  0  0  0  0  0  0  0  0  0  0  0  0  # atno 17394 bound_to 11000
  140.6676  133.9589  155.7839 LP  0  0  0  0  0  0  0  0  0  0  0  0  # atno 17395 bound_to 11000

$$$$
