AV-unprocessed.smi:1983|AV-procd|sdf|8032|dock5
  -GOLD-   2272010223D 1   1.00000     0.00000
 Structure written by MMmdl.
 49 50  0  0  0  0  0  0  0  0  1 V2000
  149.8392  133.5436  154.8099 C   0  0  0  0  0  0  0  0  0  0  0  0
  149.7794  134.9029  155.5301 C   0  0  2  0  0  0  0  0  0  0  0  0
  148.9157  134.8871  156.8050 C   0  0  0  0  0  0  0  0  0  0  0  0
  149.4864  134.0723  157.8093 O   0  0  0  0  0  0  0  0  0  0  0  0
  149.3230  135.9621  154.6342 N   0  0  0  0  0  0  0  0  0  0  0  0
  148.9979  137.2082  155.0048 C   0  0  0  0  0  0  0  0  0  0  0  0
  149.0311  137.6158  156.1663 O   0  0  0  0  0  0  0  0  0  0  0  0
  148.6420  137.9615  153.9551 N   0  0  0  0  0  0  0  0  0  0  0  0
  148.2608  139.3683  154.0310 C   0  0  0  0  0  0  0  0  0  0  0  0
  149.0657  140.1835  155.0337 C   0  0  0  0  0  0  0  0  0  0  0  0
  150.4668  140.0573  155.0878 C   0  0  0  0  0  0  0  0  0  0  0  0
  151.1896  140.8196  156.0250 C   0  0  0  0  0  0  0  0  0  0  0  0
  150.4888  141.6946  156.8935 C   0  0  0  0  0  0  0  0  0  0  0  0
  151.1493  142.4842  157.8612 N   0  0  0  0  0  0  0  0  0  0  0  0
  152.0545  141.8315  158.8007 C   0  0  0  0  0  0  0  0  0  0  0  0
  152.3615  142.7599  159.9890 C   0  0  1  0  0  0  0  0  0  0  0  0
  153.4202  142.1623  160.9218 C   0  0  0  0  0  0  0  0  0  0  0  0
  152.8519  144.0101  159.5081 O   0  0  0  0  0  0  0  0  0  0  0  0
  151.9651  144.6977  158.6232 C   0  0  2  0  0  0  0  0  0  0  0  0
  150.7332  145.2625  159.3534 C   0  0  0  0  0  0  0  0  0  0  0  0
  151.6070  143.8014  157.4216 C   0  0  0  0  0  0  0  0  0  0  0  0
  149.1393  141.8050  156.8423 N   0  0  0  0  0  0  0  0  0  0  0  0
  148.4520  141.0716  155.9423 C   0  0  0  0  0  0  0  0  0  0  0  0
  150.1675  132.7566  155.4890 H   0  0  0  0  0  0  0  0  0  0  0  0
  150.5412  133.5701  153.9759 H   0  0  0  0  0  0  0  0  0  0  0  0
  148.8658  133.2559  154.4114 H   0  0  0  0  0  0  0  0  0  0  0  0
  150.7933  135.1519  155.8485 H   0  0  0  0  0  0  0  0  0  0  0  0
  148.8226  135.8984  157.2021 H   0  0  0  0  0  0  0  0  0  0  0  0
  147.9054  134.5394  156.5865 H   0  0  0  0  0  0  0  0  0  0  0  0
  149.0773  133.2213  157.7742 H   0  0  0  0  0  0  0  0  0  0  0  0
  149.2669  135.7274  153.6539 H   0  0  0  0  0  0  0  0  0  0  0  0
  148.6458  137.5370  153.0391 H   0  0  0  0  0  0  0  0  0  0  0  0
  148.3980  139.8108  153.0442 H   0  0  0  0  0  0  0  0  0  0  0  0
  147.1964  139.4464  154.2592 H   0  0  0  0  0  0  0  0  0  0  0  0
  150.9859  139.3887  154.4170 H   0  0  0  0  0  0  0  0  0  0  0  0
  152.2645  140.7243  156.0488 H   0  0  0  0  0  0  0  0  0  0  0  0
  151.6072  140.9127  159.1811 H   0  0  0  0  0  0  0  0  0  0  0  0
  152.9749  141.5616  158.2810 H   0  0  0  0  0  0  0  0  0  0  0  0
  151.4540  142.9201  160.5712 H   0  0  0  0  0  0  0  0  0  0  0  0
  153.0908  141.2051  161.3268 H   0  0  0  0  0  0  0  0  0  0  0  0
  153.6186  142.8278  161.7620 H   0  0  0  0  0  0  0  0  0  0  0  0
  154.3616  141.9983  160.3968 H   0  0  0  0  0  0  0  0  0  0  0  0
  152.5227  145.5535  158.2418 H   0  0  0  0  0  0  0  0  0  0  0  0
  150.1482  145.8964  158.6869 H   0  0  0  0  0  0  0  0  0  0  0  0
  151.0324  145.8699  160.2078 H   0  0  0  0  0  0  0  0  0  0  0  0
  150.0696  144.4776  159.7148 H   0  0  0  0  0  0  0  0  0  0  0  0
  152.4883  143.6607  156.7947 H   0  0  0  0  0  0  0  0  0  0  0  0
  150.8641  144.3095  156.8065 H   0  0  0  0  0  0  0  0  0  0  0  0
  147.3800  141.2011  155.9544 H   0  0  0  0  0  0  0  0  0  0  0  0
  1  2  1  0  0  0  0
  1 24  1  0  0  0  0
  1 25  1  0  0  0  0
  1 26  1  0  0  0  0
  2  3  1  0  0  0  0
  2  5  1  0  0  0  0
  2 27  1  0  0  0  0
  3  4  1  0  0  0  0
  3 28  1  0  0  0  0
  3 29  1  0  0  0  0
  4 30  1  0  0  0  0
  5  6  1  0  0  0  0
  5 31  1  0  0  0  0
  6  7  2  0  0  0  0
  6  8  1  0  0  0  0
  8  9  1  0  0  0  0
  8 32  1  0  0  0  0
  9 10  1  0  0  0  0
  9 33  1  0  0  0  0
  9 34  1  0  0  0  0
 10 23  1  0  0  0  0
 10 11  2  0  0  0  0
 11 12  1  0  0  0  0
 11 35  1  0  0  0  0
 12 13  2  0  0  0  0
 12 36  1  0  0  0  0
 13 14  1  0  0  0  0
 13 22  1  0  0  0  0
 14 21  1  0  0  0  0
 14 15  1  0  0  0  0
 15 16  1  0  0  0  0
 15 37  1  0  0  0  0
 15 38  1  0  0  0  0
 16 17  1  0  0  0  0
 16 18  1  0  0  0  0
 16 39  1  0  0  0  0
 17 40  1  0  0  0  0
 17 41  1  0  0  0  0
 17 42  1  0  0  0  0
 18 19  1  0  0  0  0
 19 20  1  0  0  0  0
 19 21  1  0  0  0  0
 19 43  1  0  0  0  0
 20 44  1  0  0  0  0
 20 45  1  0  0  0  0
 20 46  1  0  0  0  0
 21 47  1  0  0  0  0
 21 48  1  0  0  0  0
 22 23  2  0  0  0  0
 23 49  1  0  0  0  0
M  END
> <s_m_source_file>
AV-unprocessed.smi

> <i_m_source_file_index>
1983

> <i_lp_mmshare_version>
43012

> <i_f3d_flags>
0

> <s_epik_input>
W09IXVtDSDJdW0NAQEhdKFtDSDNdKVtOSF1DKD1PKVtOSF1bQ0gyXWMxW2NIXVtjSF1jKG5bY0hdMSlOMltDSDJdW0NAQEhdKFtDSDNdKU9bQ0BASF0oW0NIM10pW0NIMl0y

> <s_epik_cmdline>
J2VwaWtfcHl0aG9uJywgJy1waCcsICc3LjAnLCAnLXRuJywgJzgnLCAnLW1hJywgJzIwMCcsICctbWV0YWxfYmluZGluZycsICctaW1hZScsICc8aW5maWxlLm1hZT4nLCAnLW9tYWUnLCAnPG91dGZpbGUubWFlPic=

> <r_lp_tautomer_probability>
1

> <r_epik_Ionization_Penalty>
0.00801967

> <r_epik_Ionization_Penalty_Charging>
0

> <r_epik_Ionization_Penalty_Neutral>
0.00801967

> <r_epik_State_Penalty>
0.00598289

> <r_epik_Charging_Adjusted_Penalty>
0.00598289

> <i_epik_Tot_Q>
0

> <i_epik_Tot_abs_Q>
0

> <r_epik_Metal_State_Penalty>
0.00590297

> <b_epik_Metal_Only>
0

> <s_lp_Force_Field>
OPLS_2005

> <r_lp_Energy>
17.8108

> <b_lp_Chiralities_Consistent>
1

> <s_lp_Variant>
AV-unprocessed.smi:1983-5

> <Gold.Version>
5.8.1

> <Gold.Id.Protein>
6NUR|6NUR_protein|mol2

> <Gold.PLP.Fitness>
50.2202

> <Gold.PLP.PLP>
-42.6141

> <Gold.PLP.part.hbond>
-3.0000

> <Gold.PLP.part.metal>
0.0000

> <Gold.PLP.part.buried>
-5.3514

> <Gold.PLP.part.nonpolar>
-35.0241

> <Gold.PLP.part.repulsive>
0.2489

> <Gold.PLP.ligand.clash>
0.0000

> <Gold.PLP.ligand.torsion>
0.9343

> <Gold.PLP.Chemscore.Hbond>
3.0000

> <Gold.PLP.Chemscore.CHOScore>
0.0000

> <Gold.PLP.Chemscore.Metal>
0.0000

> <Gold.Chemscore.Hbonds>
donor molecule, donor type, donor heavy atom, donor atom, acceptor molecule, acceptor atom, score
      L1  H     5    31       P1  7948  1.00
      L1  H     8    32       P1  7948  1.00
      P1  H  6896  6907       L1     4  1.00

> <Gold.PLP.Chemscore.Internal.Correction>
0.4748

> <Gold.Rescore>
     Score         DG    S(hbond)    S(metal)    S(lipo)     H(rot)  DE(clash)    DE(int)     intcor
     16.70     -20.30       2.66        0.00     107.79       2.61       0.01       3.59       ----

> <Gold.Chemscore.Fitness>
16.6978

> <Gold.Chemscore.DG>
-20.2971

> <Gold.Chemscore.ZeroCoef>
-5.4800

> <Gold.Chemscore.Hbond>
2.6607

> <Gold.Chemscore.Metal>
0.0000

> <Gold.Chemscore.Lipo>
107.7893

> <Gold.Chemscore.Internal_Hbond>
0.0000

> <Gold.Chemscore.DEClash>
0.0103

> <Gold.Chemscore.DEInternal>
3.5890

> <Gold.Chemscore.Rot>
2.6097

> <Gold.Chemscore.Internal.Correction>
   9.000000E+99

> <Gold.Chemscore.Hbonds>
donor molecule, donor type, donor heavy atom, donor atom, acceptor molecule, acceptor atom, score
      L1  H     5    31       P1  7948  0.58
      L1  H     8    32       P1  7948  0.98
      P1  H  6896  6907       L1     4  0.23

> <Gold.Chemscore.Hbond.Weighted>
-8.8867

> <Gold.Chemscore.Metal.Weighted>
-0.0000

> <Gold.Chemscore.Lipo.Weighted>
-12.6113

> <Gold.Chemscore.Internal_Hbond.Weighted>
0.0000

> <Gold.Chemscore.DEClash.Weighted>
0.0103

> <Gold.Chemscore.DEInternal.Weighted>
3.5890

> <Gold.Chemscore.Rot.Weighted>
6.6809

> <Gold.Chemscore.Internal.Correction.Weighted>
   9.000000E+99

> <Gold.Protein.RotatedTorsions>
[ 6907 6896 6895 6894 ] final -124.23 input  -60.11 | X-H torsion
[ 7974 7965 7964 7962 ] final  158.28 input  175.53 | X-H torsion
[ 8008 7997 7996 7995 ] final  -30.37 input   59.86 | X-H torsion
[ 10167 10162 10161 10158 ] final -169.87 input  -65.29 | X-H torsion
[ 10718 10713 10712 10709 ] final   -6.10 input   66.30 | X-H torsion
[ 10763 10752 10751 10750 ] final -176.45 input  -60.55 | X-H torsion
[ 11005 11000 10999 10996 ] final -141.95 input  -57.11 | X-H torsion

> <Gold.Protein.ActiveResidues>
 VAL166  LYS551  ARG553  GLY616  TRP617  ASP618  TYR619  PRO620  LYS621  CYS622 
 ASP623  PHE694  ASN695  SER759  ASP760  ASP761  ALA762  ILE779  LEU786  VAL792 
 PHE793  MET794  SER795  GLU796  ALA797  LYS798  CYS799  TRP800  GLU811  SER814 

> <Gold.Protein.RotatedAtoms>
  150.8747  133.7455  159.2950 H   0  0  0  0  0  0  0  0  0  0  0  0  # atno 6907 bound_to 6896
  151.5056  135.1062  159.9850 H   0  0  0  0  0  0  0  0  0  0  0  0  # atno 6908 bound_to 6896
  152.4720  133.8005  159.7006 H   0  0  0  0  0  0  0  0  0  0  0  0  # atno 6909 bound_to 6896
  144.7855  139.7456  143.6242 H   0  0  0  0  0  0  0  0  0  0  0  0  # atno 7974 bound_to 7965
  154.4253  140.1793  156.1396 H   0  0  0  0  0  0  0  0  0  0  0  0  # atno 8008 bound_to 7997
  156.0002  140.3360  155.6813 H   0  0  0  0  0  0  0  0  0  0  0  0  # atno 8009 bound_to 7997
  155.6253  140.0664  157.2656 H   0  0  0  0  0  0  0  0  0  0  0  0  # atno 8010 bound_to 7997
  139.5896  144.1242  152.1618 H   0  0  0  0  0  0  0  0  0  0  0  0  # atno 10167 bound_to 10162
  156.7368  130.5197  149.5833 H   0  0  0  0  0  0  0  0  0  0  0  0  # atno 10718 bound_to 10713
  154.5721  135.2829  155.0816 H   0  0  0  0  0  0  0  0  0  0  0  0  # atno 10763 bound_to 10752
  154.2185  135.6395  153.5141 H   0  0  0  0  0  0  0  0  0  0  0  0  # atno 10764 bound_to 10752
  153.0061  135.5508  154.6348 H   0  0  0  0  0  0  0  0  0  0  0  0  # atno 10765 bound_to 10752
  140.8273  134.2559  157.4873 H   0  0  0  0  0  0  0  0  0  0  0  0  # atno 11005 bound_to 11000
  146.2084  139.5424  142.9697 LP  0  0  0  0  0  0  0  0  0  0  0  0  # atno 17320 bound_to 7965
  145.5934  141.0366  143.2058 LP  0  0  0  0  0  0  0  0  0  0  0  0  # atno 17321 bound_to 7965
  140.0814  144.5698  150.7120 LP  0  0  0  0  0  0  0  0  0  0  0  0  # atno 17342 bound_to 10162
  140.7161  143.2546  151.4428 LP  0  0  0  0  0  0  0  0  0  0  0  0  # atno 17343 bound_to 10162
  156.1492  130.6298  151.0572 LP  0  0  0  0  0  0  0  0  0  0  0  0  # atno 17370 bound_to 10713
  157.6835  131.0831  150.7305 LP  0  0  0  0  0  0  0  0  0  0  0  0  # atno 17371 bound_to 10713
  139.8706  134.9567  156.4247 LP  0  0  0  0  0  0  0  0  0  0  0  0  # atno 17394 bound_to 11000
  140.9035  133.7762  155.9708 LP  0  0  0  0  0  0  0  0  0  0  0  0  # atno 17395 bound_to 11000

$$$$
