AV-unprocessed.smi:2493|AV-procd|sdf|9820|dock10
  -GOLD-   2272013453D 1   1.00000     0.00000
 Structure written by MMmdl.
 41 42  0  0  0  0  0  0  0  0  1 V2000
  152.3627  144.8289  158.2576 C   0  0  0  0  0  0  0  0  0  0  0  0
  151.8034  143.6513  159.0898 C   0  0  0  0  0  0  0  0  0  0  0  0
  150.5893  143.0247  158.3461 C   0  0  0  0  0  0  0  0  0  0  0  0
  150.9546  142.3033  157.1275 N   0  0  0  0  0  0  0  0  0  0  0  0
  150.6144  141.0389  156.8307 C   0  0  0  0  0  0  0  0  0  0  0  0
  149.9502  140.3188  157.5761 O   0  0  0  0  0  0  0  0  0  0  0  0
  151.1056  140.5004  155.4867 C   0  0  0  0  0  0  0  0  0  0  0  0
  149.9360  140.0826  154.6366 C   0  0  0  0  0  0  0  0  0  0  0  0
  148.7387  140.8122  154.3723 C   0  0  0  0  0  0  0  0  0  0  0  0
  148.0200  139.9890  153.5534 C   0  0  0  0  0  0  0  0  0  0  0  0
  148.7781  138.8564  153.3740 N   0  0  0  0  0  0  0  0  0  0  0  0
  149.9509  138.9006  154.0334 N   0  0  0  0  0  0  0  0  0  0  0  0
  152.9231  142.5788  159.1919 C   0  0  0  0  0  0  0  0  0  0  0  0
  152.7904  141.5519  160.3322 C   0  0  0  0  0  0  0  0  0  0  0  0
  153.4641  142.0182  161.6341 C   0  0  0  0  0  0  0  0  0  0  0  0
  152.7179  143.1367  162.3751 C   0  0  0  0  0  0  0  0  0  0  0  0
  152.4454  144.3946  161.5323 C   0  0  0  0  0  0  0  0  0  0  0  0
  151.3434  144.1820  160.4774 C   0  0  0  0  0  0  0  0  0  0  0  0
  148.5122  138.0580  152.8151 H   0  0  0  0  0  0  0  0  0  0  0  0
  152.6457  144.5047  157.2554 H   0  0  0  0  0  0  0  0  0  0  0  0
  153.2485  145.2637  158.7208 H   0  0  0  0  0  0  0  0  0  0  0  0
  151.6375  145.6349  158.1467 H   0  0  0  0  0  0  0  0  0  0  0  0
  150.0257  142.3735  159.0167 H   0  0  0  0  0  0  0  0  0  0  0  0
  149.8920  143.8084  158.0496 H   0  0  0  0  0  0  0  0  0  0  0  0
  151.5014  142.8126  156.4482 H   0  0  0  0  0  0  0  0  0  0  0  0
  151.7056  141.2603  154.9835 H   0  0  0  0  0  0  0  0  0  0  0  0
  151.7677  139.6515  155.6614 H   0  0  0  0  0  0  0  0  0  0  0  0
  148.4556  141.7915  154.7288 H   0  0  0  0  0  0  0  0  0  0  0  0
  147.0507  140.1121  153.0930 H   0  0  0  0  0  0  0  0  0  0  0  0
  152.9761  142.0393  158.2453 H   0  0  0  0  0  0  0  0  0  0  0  0
  153.8977  143.0612  159.2789 H   0  0  0  0  0  0  0  0  0  0  0  0
  151.7500  141.2759  160.5055 H   0  0  0  0  0  0  0  0  0  0  0  0
  153.2897  140.6351  160.0165 H   0  0  0  0  0  0  0  0  0  0  0  0
  153.5534  141.1645  162.3069 H   0  0  0  0  0  0  0  0  0  0  0  0
  154.4868  142.3355  161.4260 H   0  0  0  0  0  0  0  0  0  0  0  0
  151.7790  142.7497  162.7728 H   0  0  0  0  0  0  0  0  0  0  0  0
  153.3097  143.4215  163.2457 H   0  0  0  0  0  0  0  0  0  0  0  0
  152.1085  145.1766  162.2136 H   0  0  0  0  0  0  0  0  0  0  0  0
  153.3633  144.7724  161.0819 H   0  0  0  0  0  0  0  0  0  0  0  0
  150.8225  145.1297  160.3337 H   0  0  0  0  0  0  0  0  0  0  0  0
  150.5875  143.5168  160.8973 H   0  0  0  0  0  0  0  0  0  0  0  0
  1  2  1  0  0  0  0
  1 20  1  0  0  0  0
  1 21  1  0  0  0  0
  1 22  1  0  0  0  0
  2 18  1  0  0  0  0
  2  3  1  0  0  0  0
  2 13  1  0  0  0  0
  3  4  1  0  0  0  0
  3 23  1  0  0  0  0
  3 24  1  0  0  0  0
  4  5  1  0  0  0  0
  4 25  1  0  0  0  0
  5  6  2  0  0  0  0
  5  7  1  0  0  0  0
  7 26  1  0  0  0  0
  7 27  1  0  0  0  0
  7  8  1  0  0  0  0
  8 12  2  0  0  0  0
  8  9  1  0  0  0  0
  9 10  2  0  0  0  0
  9 28  1  0  0  0  0
 10 11  1  0  0  0  0
 10 29  1  0  0  0  0
 11 12  1  0  0  0  0
 11 19  1  0  0  0  0
 13 14  1  0  0  0  0
 13 30  1  0  0  0  0
 13 31  1  0  0  0  0
 14 15  1  0  0  0  0
 14 32  1  0  0  0  0
 14 33  1  0  0  0  0
 15 16  1  0  0  0  0
 15 34  1  0  0  0  0
 15 35  1  0  0  0  0
 16 17  1  0  0  0  0
 16 36  1  0  0  0  0
 16 37  1  0  0  0  0
 17 18  1  0  0  0  0
 17 38  1  0  0  0  0
 17 39  1  0  0  0  0
 18 40  1  0  0  0  0
 18 41  1  0  0  0  0
M  END
> <s_m_source_file>
AV-unprocessed.smi

> <i_m_source_file_index>
2493

> <i_lp_mmshare_version>
43012

> <i_f3d_flags>
0

> <s_epik_input>
W0NIMl0xW0NIMl1bQ0gyXVtDSDJdW0NIMl1bQ0gyXUMxKFtDSDNdKVtDSDJdW05IXUMoPU8pW0NIMl1jMltjSF1bY0hdbltuSF0y

> <s_epik_cmdline>
J2VwaWtfcHl0aG9uJywgJy1waCcsICc3LjAnLCAnLXRuJywgJzgnLCAnLW1hJywgJzIwMCcsICctbWV0YWxfYmluZGluZycsICctaW1hZScsICc8aW5maWxlLm1hZT4nLCAnLW9tYWUnLCAnPG91dGZpbGUubWFlPic=

> <r_lp_tautomer_probability>
0.5

> <r_epik_Ionization_Penalty>
1.58956e-05

> <r_epik_Ionization_Penalty_Charging>
0

> <r_epik_Ionization_Penalty_Neutral>
1.58956e-05

> <r_epik_State_Penalty>
0.41068

> <r_epik_Charging_Adjusted_Penalty>
0.41068

> <i_epik_Tot_Q>
0

> <i_epik_Tot_abs_Q>
0

> <r_epik_Metal_State_Penalty>
0.410685

> <b_epik_Metal_Only>
0

> <s_lp_Force_Field>
OPLS_2005

> <r_lp_Energy>
20.7964

> <b_lp_Chiralities_Consistent>
1

> <s_lp_Variant>
AV-unprocessed.smi:2493-2

> <Gold.Version>
5.8.1

> <Gold.Id.Protein>
6NUR|6NUR_protein|mol2

> <Gold.PLP.Fitness>
46.5581

> <Gold.PLP.PLP>
-44.0358

> <Gold.PLP.part.hbond>
-2.0000

> <Gold.PLP.part.metal>
0.0000

> <Gold.PLP.part.buried>
-2.8247

> <Gold.PLP.part.nonpolar>
-39.4012

> <Gold.PLP.part.repulsive>
0.3228

> <Gold.PLP.ligand.clash>
0.0000

> <Gold.PLP.ligand.torsion>
0.2469

> <Gold.PLP.Chemscore.Hbond>
1.0000

> <Gold.PLP.Chemscore.CHOScore>
0.0000

> <Gold.PLP.Chemscore.Metal>
0.0000

> <Gold.Chemscore.Hbonds>
donor molecule, donor type, donor heavy atom, donor atom, acceptor molecule, acceptor atom, score
      L1  H    11    19       P1  7948  0.86

> <Gold.PLP.Chemscore.Internal.Correction>
0.0161

> <Gold.Rescore>
     Score         DG    S(hbond)    S(metal)    S(lipo)     H(rot)  DE(clash)    DE(int)     intcor
     18.93     -19.79       0.99        0.00     130.35       1.66       0.72       0.14       ----

> <Gold.Chemscore.Fitness>
18.9254

> <Gold.Chemscore.DG>
-19.7859

> <Gold.Chemscore.ZeroCoef>
-5.4800

> <Gold.Chemscore.Hbond>
0.9886

> <Gold.Chemscore.Metal>
0.0000

> <Gold.Chemscore.Lipo>
130.3549

> <Gold.Chemscore.Internal_Hbond>
0.0000

> <Gold.Chemscore.DEClash>
0.7178

> <Gold.Chemscore.DEInternal>
0.1428

> <Gold.Chemscore.Rot>
1.6592

> <Gold.Chemscore.Internal.Correction>
   9.000000E+99

> <Gold.Chemscore.Hbonds>
donor molecule, donor type, donor heavy atom, donor atom, acceptor molecule, acceptor atom, score
      L1  H    11    19       P1  7948  0.80

> <Gold.Chemscore.Hbond.Weighted>
-3.3019

> <Gold.Chemscore.Metal.Weighted>
-0.0000

> <Gold.Chemscore.Lipo.Weighted>
-15.2515

> <Gold.Chemscore.Internal_Hbond.Weighted>
0.0000

> <Gold.Chemscore.DEClash.Weighted>
0.7178

> <Gold.Chemscore.DEInternal.Weighted>
0.1428

> <Gold.Chemscore.Rot.Weighted>
4.2475

> <Gold.Chemscore.Internal.Correction.Weighted>
   9.000000E+99

> <Gold.Protein.RotatedTorsions>
[ 6907 6896 6895 6894 ] final   -4.27 input  -60.11 | X-H torsion
[ 7974 7965 7964 7962 ] final  125.59 input  175.53 | X-H torsion
[ 8008 7997 7996 7995 ] final   41.78 input   59.86 | X-H torsion
[ 10167 10162 10161 10158 ] final  -81.20 input  -65.29 | X-H torsion
[ 10718 10713 10712 10709 ] final  119.68 input   66.30 | X-H torsion
[ 10763 10752 10751 10750 ] final  -90.69 input  -60.55 | X-H torsion
[ 11005 11000 10999 10996 ] final  -96.75 input  -57.11 | X-H torsion

> <Gold.Protein.ActiveResidues>
 VAL166  LYS551  ARG553  GLY616  TRP617  ASP618  TYR619  PRO620  LYS621  CYS622 
 ASP623  PHE694  ASN695  SER759  ASP760  ASP761  ALA762  ILE779  LEU786  VAL792 
 PHE793  MET794  SER795  GLU796  ALA797  LYS798  CYS799  TRP800  GLU811  SER814 

> <Gold.Protein.RotatedAtoms>
  151.5003  135.1061  159.9826 H   0  0  0  0  0  0  0  0  0  0  0  0  # atno 6907 bound_to 6896
  152.4704  133.8014  159.6965 H   0  0  0  0  0  0  0  0  0  0  0  0  # atno 6908 bound_to 6896
  150.8711  133.7442  159.2987 H   0  0  0  0  0  0  0  0  0  0  0  0  # atno 6909 bound_to 6896
  145.0713  139.3728  143.4956 H   0  0  0  0  0  0  0  0  0  0  0  0  # atno 7974 bound_to 7965
  155.2754  140.3369  155.4262 H   0  0  0  0  0  0  0  0  0  0  0  0  # atno 8008 bound_to 7997
  156.2114  140.1771  156.7728 H   0  0  0  0  0  0  0  0  0  0  0  0  # atno 8009 bound_to 7997
  154.5692  140.0673  156.8922 H   0  0  0  0  0  0  0  0  0  0  0  0  # atno 8010 bound_to 7997
  140.4434  143.2507  151.8593 H   0  0  0  0  0  0  0  0  0  0  0  0  # atno 10167 bound_to 10162
  157.5944  131.1060  150.7930 H   0  0  0  0  0  0  0  0  0  0  0  0  # atno 10718 bound_to 10713
  154.6684  135.5295  153.8107 H   0  0  0  0  0  0  0  0  0  0  0  0  # atno 10763 bound_to 10752
  153.0486  135.6523  154.0763 H   0  0  0  0  0  0  0  0  0  0  0  0  # atno 10764 bound_to 10752
  154.0664  135.2957  155.3296 H   0  0  0  0  0  0  0  0  0  0  0  0  # atno 10765 bound_to 10752
  141.1401  133.8121  157.0614 H   0  0  0  0  0  0  0  0  0  0  0  0  # atno 11005 bound_to 11000
  146.3529  140.0459  142.8639 LP  0  0  0  0  0  0  0  0  0  0  0  0  # atno 17320 bound_to 7965
  145.1289  140.9506  143.4556 LP  0  0  0  0  0  0  0  0  0  0  0  0  # atno 17321 bound_to 7965
  139.4791  144.5203  151.8811 LP  0  0  0  0  0  0  0  0  0  0  0  0  # atno 17342 bound_to 10162
  140.4292  144.2139  150.5887 LP  0  0  0  0  0  0  0  0  0  0  0  0  # atno 17343 bound_to 10162
  156.8344  130.5027  149.5328 LP  0  0  0  0  0  0  0  0  0  0  0  0  # atno 17370 bound_to 10713
  156.1004  130.5965  150.9885 LP  0  0  0  0  0  0  0  0  0  0  0  0  # atno 17371 bound_to 10713
  140.0569  134.9776  157.1236 LP  0  0  0  0  0  0  0  0  0  0  0  0  # atno 17394 bound_to 11000
  140.3906  134.2188  155.7166 LP  0  0  0  0  0  0  0  0  0  0  0  0  # atno 17395 bound_to 11000

$$$$
