AV-unprocessed.smi:1762|AV-procd|sdf|7106|dock10
  -GOLD-   22720 8333D 1   1.00000     0.00000
 Structure written by MMmdl.
 53 54  0  0  0  0  0  0  0  0  2 V2000
  146.3871  135.7636  157.2142 C   0  0  0  0  0  0  0  0  0  0  0  0
  147.4364  135.8890  156.1038 C   0  0  1  0  0  0  0  0  0  0  0  0
  147.6053  137.3420  155.6184 C   0  0  0  0  0  0  0  0  0  0  0  0
  148.6729  137.4883  154.6136 N   0  0  0  0  0  0  0  0  0  0  0  0
  148.8600  138.8801  154.1155 C   0  0  2  0  0  0  0  0  0  0  0  0
  149.7321  139.7538  155.0487 C   0  0  0  0  0  0  0  0  0  0  0  0
  150.8531  140.1204  154.6941 O   0  0  0  0  0  0  0  0  0  0  0  0
  149.1972  140.0882  156.2339 N   0  0  0  0  0  0  0  0  0  0  0  0
  149.8590  140.8946  157.2521 C   0  0  0  0  0  0  0  0  0  0  0  0
  150.5475  142.1255  156.6384 C   0  0  0  0  0  0  0  0  0  0  0  0
  151.2165  142.9916  157.6881 C   0  0  0  0  0  0  0  0  0  0  0  0
  152.1925  142.4810  158.5714 C   0  0  0  0  0  0  0  0  0  0  0  0
  152.7817  143.3428  159.5201 C   0  0  0  0  0  0  0  0  0  0  0  0
  152.3845  144.6954  159.5643 C   0  0  0  0  0  0  0  0  0  0  0  0
  151.4064  145.1525  158.6577 C   0  0  0  0  0  0  0  0  0  0  0  0
  150.8648  144.2958  157.7639 N   0  3  0  0  0  0  0  0  0  0  0  0
  147.5388  139.6300  153.7350 C   0  0  0  0  0  0  0  0  0  0  0  0
  146.7828  138.9874  152.5542 C   0  0  0  0  0  0  0  0  0  0  0  0
  147.7284  141.1400  153.4904 C   0  0  0  0  0  0  0  0  0  0  0  0
  149.9055  136.9052  155.1579 C   0  0  0  0  0  0  0  0  0  0  0  0
  149.7171  135.4550  155.6426 C   0  0  1  0  0  0  0  0  0  0  0  0
  150.9890  134.8843  156.2801 C   0  0  0  0  0  0  0  0  0  0  0  0
  148.6779  135.4177  156.6122 O   0  0  0  0  0  0  0  0  0  0  0  0
  145.4086  136.0992  156.8698 H   0  0  0  0  0  0  0  0  0  0  0  0
  146.6595  136.3614  158.0844 H   0  0  0  0  0  0  0  0  0  0  0  0
  146.2867  134.7281  157.5399 H   0  0  0  0  0  0  0  0  0  0  0  0
  147.1337  135.2580  155.2662 H   0  0  0  0  0  0  0  0  0  0  0  0
  146.6402  137.6528  155.2201 H   0  0  0  0  0  0  0  0  0  0  0  0
  147.8138  137.9897  156.4719 H   0  0  0  0  0  0  0  0  0  0  0  0
  149.4255  138.7990  153.1846 H   0  0  0  0  0  0  0  0  0  0  0  0
  148.2673  139.7550  156.4445 H   0  0  0  0  0  0  0  0  0  0  0  0
  149.1382  141.1989  158.0133 H   0  0  0  0  0  0  0  0  0  0  0  0
  150.5941  140.2656  157.7547 H   0  0  0  0  0  0  0  0  0  0  0  0
  151.2954  141.8110  155.9089 H   0  0  0  0  0  0  0  0  0  0  0  0
  149.8233  142.7311  156.0917 H   0  0  0  0  0  0  0  0  0  0  0  0
  152.4884  141.4428  158.5234 H   0  0  0  0  0  0  0  0  0  0  0  0
  153.5300  142.9709  160.2049 H   0  0  0  0  0  0  0  0  0  0  0  0
  152.8243  145.3716  160.2830 H   0  0  0  0  0  0  0  0  0  0  0  0
  151.0435  146.1694  158.6207 H   0  0  0  0  0  0  0  0  0  0  0  0
  146.8488  139.5290  154.5711 H   0  0  0  0  0  0  0  0  0  0  0  0
  147.3096  139.1177  151.6082 H   0  0  0  0  0  0  0  0  0  0  0  0
  145.7956  139.4352  152.4366 H   0  0  0  0  0  0  0  0  0  0  0  0
  146.6381  137.9186  152.7139 H   0  0  0  0  0  0  0  0  0  0  0  0
  148.3365  141.3369  152.6079 H   0  0  0  0  0  0  0  0  0  0  0  0
  148.2067  141.6274  154.3401 H   0  0  0  0  0  0  0  0  0  0  0  0
  146.7670  141.6309  153.3373 H   0  0  0  0  0  0  0  0  0  0  0  0
  150.6886  136.8837  154.4028 H   0  0  0  0  0  0  0  0  0  0  0  0
  150.2758  137.5208  155.9797 H   0  0  0  0  0  0  0  0  0  0  0  0
  149.4372  134.8222  154.7984 H   0  0  0  0  0  0  0  0  0  0  0  0
  151.8155  134.8775  155.5690 H   0  0  0  0  0  0  0  0  0  0  0  0
  150.8305  133.8589  156.6144 H   0  0  0  0  0  0  0  0  0  0  0  0
  151.2958  135.4732  157.1449 H   0  0  0  0  0  0  0  0  0  0  0  0
  150.1583  144.6484  157.1176 H   0  0  0  0  0  0  0  0  0  0  0  0
  1  2  1  0  0  0  0
  1 24  1  0  0  0  0
  1 25  1  0  0  0  0
  1 26  1  0  0  0  0
  2 23  1  0  0  0  0
  2  3  1  0  0  0  0
  2 27  1  0  0  0  0
  3  4  1  0  0  0  0
  3 28  1  0  0  0  0
  3 29  1  0  0  0  0
  4  5  1  0  0  0  0
  4 20  1  0  0  0  0
  5  6  1  0  0  0  0
  5 17  1  0  0  0  0
  5 30  1  0  0  0  0
  6  7  2  0  0  0  0
  6  8  1  0  0  0  0
  8  9  1  0  0  0  0
  8 31  1  0  0  0  0
  9 10  1  0  0  0  0
  9 32  1  0  0  0  0
  9 33  1  0  0  0  0
 10 11  1  0  0  0  0
 10 34  1  0  0  0  0
 10 35  1  0  0  0  0
 11 16  1  0  0  0  0
 11 12  2  0  0  0  0
 12 13  1  0  0  0  0
 12 36  1  0  0  0  0
 13 14  2  0  0  0  0
 13 37  1  0  0  0  0
 14 15  1  0  0  0  0
 14 38  1  0  0  0  0
 15 16  2  0  0  0  0
 15 39  1  0  0  0  0
 16 53  1  0  0  0  0
 17 18  1  0  0  0  0
 17 19  1  0  0  0  0
 17 40  1  0  0  0  0
 18 41  1  0  0  0  0
 18 42  1  0  0  0  0
 18 43  1  0  0  0  0
 19 44  1  0  0  0  0
 19 45  1  0  0  0  0
 19 46  1  0  0  0  0
 20 21  1  0  0  0  0
 20 47  1  0  0  0  0
 20 48  1  0  0  0  0
 21 22  1  0  0  0  0
 21 23  1  0  0  0  0
 21 49  1  0  0  0  0
 22 50  1  0  0  0  0
 22 51  1  0  0  0  0
 22 52  1  0  0  0  0
M  CHG  1  16   1
M  END
> <s_m_source_file>
AV-unprocessed.smi

> <i_m_source_file_index>
1762

> <i_lp_mmshare_version>
43012

> <i_f3d_flags>
0

> <s_epik_input>
W0NIM11bQ0BASF0xW0NIMl1OKFtDSDJdW0NASF0oTzEpW0NIM10pW0NAQEhdKFtDSF0oW0NIM10pW0NIM10pQyg9TylbTkhdW0NIMl1bQ0gyXWMyW2NIXVtjSF1bY0hdW2NIXW4y

> <s_epik_cmdline>
J2VwaWtfcHl0aG9uJywgJy1waCcsICc3LjAnLCAnLXRuJywgJzgnLCAnLW1hJywgJzIwMCcsICctbWV0YWxfYmluZGluZycsICctaW1hZScsICc8aW5maWxlLm1hZT4nLCAnLW9tYWUnLCAnPG91dGZpbGUubWFlPic=

> <r_epik_Ionization_Penalty>
1.86475

> <r_epik_Ionization_Penalty_Charging>
1.85347

> <r_epik_Ionization_Penalty_Neutral>
0.0112771

> <r_epik_State_Penalty>
1.99714

> <r_epik_Charging_Adjusted_Penalty>
3.85061

> <i_epik_Tot_Q>
1

> <i_epik_Tot_abs_Q>
1

> <r_epik_Metal_State_Penalty>
2.02271

> <b_epik_Metal_Only>
0

> <s_lp_Force_Field>
OPLS_2005

> <r_lp_Energy>
32.9979

> <b_lp_Chiralities_Consistent>
1

> <s_lp_Variant>
AV-unprocessed.smi:1762-8

> <Gold.Version>
5.8.1

> <Gold.Id.Protein>
6NUR|6NUR_protein|mol2

> <Gold.PLP.Fitness>
46.3379

> <Gold.PLP.PLP>
-38.3100

> <Gold.PLP.part.hbond>
-2.0000

> <Gold.PLP.part.metal>
0.0000

> <Gold.PLP.part.buried>
-4.7461

> <Gold.PLP.part.nonpolar>
-32.7360

> <Gold.PLP.part.repulsive>
1.1916

> <Gold.PLP.ligand.clash>
0.0000

> <Gold.PLP.ligand.torsion>
0.6433

> <Gold.PLP.Chemscore.Hbond>
3.0000

> <Gold.PLP.Chemscore.CHOScore>
0.0000

> <Gold.PLP.Chemscore.Metal>
0.0000

> <Gold.Chemscore.Hbonds>
donor molecule, donor type, donor heavy atom, donor atom, acceptor molecule, acceptor atom, score
      L1  H    16    53       P1  8028  2.00
      P1  H  7989  7998       L1     7  1.00

> <Gold.PLP.Chemscore.Internal.Correction>
0.3144

> <Gold.Rescore>
     Score         DG    S(hbond)    S(metal)    S(lipo)     H(rot)  DE(clash)    DE(int)     intcor
     18.39     -20.49       1.94        0.00     110.50       1.72       0.09       2.00       ----

> <Gold.Chemscore.Fitness>
18.3931

> <Gold.Chemscore.DG>
-20.4864

> <Gold.Chemscore.ZeroCoef>
-5.4800

> <Gold.Chemscore.Hbond>
1.9384

> <Gold.Chemscore.Metal>
0.0000

> <Gold.Chemscore.Lipo>
110.5001

> <Gold.Chemscore.Internal_Hbond>
0.0000

> <Gold.Chemscore.DEClash>
0.0922

> <Gold.Chemscore.DEInternal>
2.0011

> <Gold.Chemscore.Rot>
1.7174

> <Gold.Chemscore.Internal.Correction>
   9.000000E+99

> <Gold.Chemscore.Hbonds>
donor molecule, donor type, donor heavy atom, donor atom, acceptor molecule, acceptor atom, score
      L1  H    16    53       P1  8028  0.45
      P1  H  7989  7998       L1     7  0.99

> <Gold.Chemscore.Hbond.Weighted>
-6.4744

> <Gold.Chemscore.Metal.Weighted>
-0.0000

> <Gold.Chemscore.Lipo.Weighted>
-12.9285

> <Gold.Chemscore.Internal_Hbond.Weighted>
0.0000

> <Gold.Chemscore.DEClash.Weighted>
0.0922

> <Gold.Chemscore.DEInternal.Weighted>
2.0011

> <Gold.Chemscore.Rot.Weighted>
4.3966

> <Gold.Chemscore.Internal.Correction.Weighted>
   9.000000E+99

> <Gold.Protein.RotatedTorsions>
[ 6907 6896 6895 6894 ] final   20.12 input  -60.11 | X-H torsion
[ 7974 7965 7964 7962 ] final  -12.61 input  175.53 | X-H torsion
[ 8008 7997 7996 7995 ] final -115.84 input   59.86 | X-H torsion
[ 10167 10162 10161 10158 ] final  -77.45 input  -65.29 | X-H torsion
[ 10718 10713 10712 10709 ] final   37.59 input   66.30 | X-H torsion
[ 10763 10752 10751 10750 ] final  -51.50 input  -60.55 | X-H torsion
[ 11005 11000 10999 10996 ] final   48.34 input  -57.11 | X-H torsion

> <Gold.Protein.ActiveResidues>
 VAL166  LYS551  ARG553  GLY616  TRP617  ASP618  TYR619  PRO620  LYS621  CYS622 
 ASP623  PHE694  ASN695  SER759  ASP760  ASP761  ALA762  ILE779  LEU786  VAL792 
 PHE793  MET794  SER795  GLU796  ALA797  LYS798  CYS799  TRP800  GLU811  SER814 

> <Gold.Protein.RotatedAtoms>
  151.8915  135.0414  160.0497 H   0  0  0  0  0  0  0  0  0  0  0  0  # atno 6907 bound_to 6896
  152.2432  133.5148  159.5290 H   0  0  0  0  0  0  0  0  0  0  0  0  # atno 6908 bound_to 6896
  150.7060  134.0977  159.3997 H   0  0  0  0  0  0  0  0  0  0  0  0  # atno 6909 bound_to 6896
  146.2146  140.3082  142.8380 H   0  0  0  0  0  0  0  0  0  0  0  0  # atno 7974 bound_to 7965
  155.0584  140.0393  157.2568 H   0  0  0  0  0  0  0  0  0  0  0  0  # atno 8008 bound_to 7997
  154.7079  140.2687  155.6632 H   0  0  0  0  0  0  0  0  0  0  0  0  # atno 8009 bound_to 7997
  156.2781  140.2727  156.1711 H   0  0  0  0  0  0  0  0  0  0  0  0  # atno 8010 bound_to 7997
  140.4769  143.2412  151.8119 H   0  0  0  0  0  0  0  0  0  0  0  0  # atno 10167 bound_to 10162
  157.3488  130.7587  149.6963 H   0  0  0  0  0  0  0  0  0  0  0  0  # atno 10718 bound_to 10713
  154.1276  135.6525  153.4915 H   0  0  0  0  0  0  0  0  0  0  0  0  # atno 10763 bound_to 10752
  153.0205  135.5285  154.7033 H   0  0  0  0  0  0  0  0  0  0  0  0  # atno 10764 bound_to 10752
  154.6259  135.2970  155.0243 H   0  0  0  0  0  0  0  0  0  0  0  0  # atno 10765 bound_to 10752
  140.1200  134.4842  155.8606 H   0  0  0  0  0  0  0  0  0  0  0  0  # atno 11005 bound_to 11000
  144.9007  140.7639  143.5868 LP  0  0  0  0  0  0  0  0  0  0  0  0  # atno 17320 bound_to 7965
  145.3008  139.1851  143.4690 LP  0  0  0  0  0  0  0  0  0  0  0  0  # atno 17321 bound_to 7965
  139.4827  144.4822  151.9292 LP  0  0  0  0  0  0  0  0  0  0  0  0  # atno 17342 bound_to 10162
  140.3907  144.2619  150.5900 LP  0  0  0  0  0  0  0  0  0  0  0  0  # atno 17343 bound_to 10162
  155.9718  130.4146  150.4143 LP  0  0  0  0  0  0  0  0  0  0  0  0  # atno 17370 bound_to 10713
  157.2202  131.0481  151.2550 LP  0  0  0  0  0  0  0  0  0  0  0  0  # atno 17371 bound_to 10713
  141.2149  133.6757  156.6869 LP  0  0  0  0  0  0  0  0  0  0  0  0  # atno 17394 bound_to 11000
  140.2978  134.8188  157.4072 LP  0  0  0  0  0  0  0  0  0  0  0  0  # atno 17395 bound_to 11000

$$$$
