AV-unprocessed.smi:1492|AV-procd|sdf|6045|dock7
  -GOLD-   22720 6163D 1   1.00000     0.00000
 Structure written by MMmdl.
 51 52  0  0  0  0  0  0  0  0  2 V2000
  148.7844  140.9251  154.0031 C   0  0  0  0  0  0  0  0  0  0  0  0
  149.3037  141.5667  155.3029 C   0  0  0  0  0  0  0  0  0  0  0  0
  149.8661  140.5937  156.3872 C   0  0  2  0  0  0  0  0  0  0  0  0
  150.8266  139.5880  155.6976 C   0  0  0  0  0  0  0  0  0  0  0  0
  148.6849  139.7545  156.9711 C   0  0  0  0  0  0  0  0  0  0  0  0
  149.1513  138.5905  157.7200 N   0  0  0  0  0  0  0  0  0  0  0  0
  148.3917  137.7384  158.4233 C   0  0  0  0  0  0  0  0  0  0  0  0
  147.1974  137.9199  158.6589 O   0  0  0  0  0  0  0  0  0  0  0  0
  149.0885  136.4643  158.9009 C   0  0  0  0  0  0  0  0  0  0  0  0
  148.1716  135.4568  159.5974 C   0  0  0  0  0  0  0  0  0  0  0  0
  147.9261  134.2077  159.1080 C   0  0  0  0  0  0  0  0  0  0  0  0
  148.5250  133.6970  157.8092 C   0  0  0  0  0  0  0  0  0  0  0  0
  147.0949  133.3076  159.7959 N   0  0  0  0  0  0  0  0  0  0  0  0
  146.5567  133.6646  160.8989 C   0  0  0  0  0  0  0  0  0  0  0  0
  145.6732  132.6777  161.6320 C   0  0  0  0  0  0  0  0  0  0  0  0
  146.7359  134.9017  161.4761 N   0  5  0  0  0  0  0  0  0  0  0  0
  147.5405  135.8250  160.8779 C   0  0  0  0  0  0  0  0  0  0  0  0
  147.7550  136.9271  161.3810 O   0  0  0  0  0  0  0  0  0  0  0  0
  150.5867  141.3183  157.4761 N   0  0  0  0  0  0  0  0  0  0  0  0
  151.4660  140.4938  158.3127 C   0  0  0  0  0  0  0  0  0  0  0  0
  152.0401  141.2882  159.4981 C   0  0  0  0  0  0  0  0  0  0  0  0
  152.7380  142.4304  159.0163 O   0  0  0  0  0  0  0  0  0  0  0  0
  151.9040  143.2892  158.2479 C   0  0  0  0  0  0  0  0  0  0  0  0
  151.3255  142.5139  157.0521 C   0  0  0  0  0  0  0  0  0  0  0  0
  148.4302  141.6957  153.3185 H   0  0  0  0  0  0  0  0  0  0  0  0
  147.9472  140.2520  154.1845 H   0  0  0  0  0  0  0  0  0  0  0  0
  149.5631  140.3693  153.4818 H   0  0  0  0  0  0  0  0  0  0  0  0
  150.0691  142.2886  155.0204 H   0  0  0  0  0  0  0  0  0  0  0  0
  148.4856  142.1531  155.7202 H   0  0  0  0  0  0  0  0  0  0  0  0
  150.2912  138.8593  155.0886 H   0  0  0  0  0  0  0  0  0  0  0  0
  151.4057  139.0231  156.4287 H   0  0  0  0  0  0  0  0  0  0  0  0
  151.5347  140.0857  155.0348 H   0  0  0  0  0  0  0  0  0  0  0  0
  148.0784  140.3595  157.6451 H   0  0  0  0  0  0  0  0  0  0  0  0
  147.9984  139.4372  156.1852 H   0  0  0  0  0  0  0  0  0  0  0  0
  150.1225  138.3420  157.5931 H   0  0  0  0  0  0  0  0  0  0  0  0
  149.5984  136.0054  158.0532 H   0  0  0  0  0  0  0  0  0  0  0  0
  149.8877  136.7434  159.5878 H   0  0  0  0  0  0  0  0  0  0  0  0
  149.6128  133.7581  157.8356 H   0  0  0  0  0  0  0  0  0  0  0  0
  148.1640  134.2851  156.9656 H   0  0  0  0  0  0  0  0  0  0  0  0
  148.2543  132.6554  157.6326 H   0  0  0  0  0  0  0  0  0  0  0  0
  146.2741  131.8590  162.0287 H   0  0  0  0  0  0  0  0  0  0  0  0
  144.9261  132.2619  160.9554 H   0  0  0  0  0  0  0  0  0  0  0  0
  145.1515  133.1536  162.4638 H   0  0  0  0  0  0  0  0  0  0  0  0
  150.9296  139.6377  158.7185 H   0  0  0  0  0  0  0  0  0  0  0  0
  152.2926  140.1003  157.7213 H   0  0  0  0  0  0  0  0  0  0  0  0
  151.2441  141.5975  160.1762 H   0  0  0  0  0  0  0  0  0  0  0  0
  152.7269  140.6674  160.0734 H   0  0  0  0  0  0  0  0  0  0  0  0
  151.1052  143.6895  158.8729 H   0  0  0  0  0  0  0  0  0  0  0  0
  152.4921  144.1382  157.8996 H   0  0  0  0  0  0  0  0  0  0  0  0
  152.1453  142.2355  156.3901 H   0  0  0  0  0  0  0  0  0  0  0  0
  150.6843  143.1926  156.4929 H   0  0  0  0  0  0  0  0  0  0  0  0
  1  2  1  0  0  0  0
  1 25  1  0  0  0  0
  1 26  1  0  0  0  0
  1 27  1  0  0  0  0
  2  3  1  0  0  0  0
  2 28  1  0  0  0  0
  2 29  1  0  0  0  0
  3  4  1  0  0  0  0
  3  5  1  0  0  0  0
  3 19  1  0  0  0  0
  4 30  1  0  0  0  0
  4 31  1  0  0  0  0
  4 32  1  0  0  0  0
  5  6  1  0  0  0  0
  5 33  1  0  0  0  0
  5 34  1  0  0  0  0
  6  7  1  0  0  0  0
  6 35  1  0  0  0  0
  7  8  2  0  0  0  0
  7  9  1  0  0  0  0
  9 10  1  0  0  0  0
  9 36  1  0  0  0  0
  9 37  1  0  0  0  0
 10 17  1  0  0  0  0
 10 11  2  0  0  0  0
 11 12  1  0  0  0  0
 11 13  1  0  0  0  0
 12 38  1  0  0  0  0
 12 39  1  0  0  0  0
 12 40  1  0  0  0  0
 13 14  2  0  0  0  0
 14 15  1  0  0  0  0
 14 16  1  0  0  0  0
 15 41  1  0  0  0  0
 15 42  1  0  0  0  0
 15 43  1  0  0  0  0
 16 17  1  0  0  0  0
 17 18  2  0  0  0  0
 19 24  1  0  0  0  0
 19 20  1  0  0  0  0
 20 21  1  0  0  0  0
 20 44  1  0  0  0  0
 20 45  1  0  0  0  0
 21 22  1  0  0  0  0
 21 46  1  0  0  0  0
 21 47  1  0  0  0  0
 22 23  1  0  0  0  0
 23 24  1  0  0  0  0
 23 48  1  0  0  0  0
 23 49  1  0  0  0  0
 24 50  1  0  0  0  0
 24 51  1  0  0  0  0
M  CHG  1  16  -1
M  END
> <s_m_source_file>
AV-unprocessed.smi

> <i_m_source_file_index>
1492

> <i_lp_mmshare_version>
43012

> <i_f3d_flags>
0

> <s_epik_input>
W0NIMl0xW0NIMl1PW0NIMl1bQ0gyXU4xW0NAQF0oW0NIM10pKFtDSDJdW0NIM10pW0NIMl1bTkhdQyg9TylbQ0gyXWMyYyhbQ0gzXSluYyhbQ0gzXSlbbkhdYzI9Tw==

> <s_epik_cmdline>
J2VwaWtfcHl0aG9uJywgJy1waCcsICc3LjAnLCAnLXRuJywgJzgnLCAnLW1hJywgJzIwMCcsICctbWV0YWxfYmluZGluZycsICctaW1hZScsICc8aW5maWxlLm1hZT4nLCAnLW9tYWUnLCAnPG91dGZpbGUubWFlPic=

> <r_lp_tautomer_probability>
0.839158

> <r_epik_Ionization_Penalty>
6.88574

> <r_epik_Ionization_Penalty_Charging>
6.74373e-08

> <r_epik_Ionization_Penalty_Neutral>
6.88574

> <r_epik_State_Penalty>
4.79448

> <r_epik_Charging_Adjusted_Penalty>
4.79448

> <i_epik_Tot_Q>
-1

> <i_epik_Tot_abs_Q>
1

> <r_epik_Metal_State_Penalty>
1.16421

> <b_epik_Metal_Only>
1

> <s_lp_Force_Field>
OPLS_2005

> <r_lp_Energy>
46.4707

> <b_lp_Chiralities_Consistent>
1

> <s_lp_Variant>
AV-unprocessed.smi:1492-10

> <Gold.Version>
5.8.1

> <Gold.Id.Protein>
6NUR|6NUR_protein|mol2

> <Gold.PLP.Fitness>
38.7050

> <Gold.PLP.PLP>
-35.3082

> <Gold.PLP.part.hbond>
-3.0000

> <Gold.PLP.part.metal>
0.0000

> <Gold.PLP.part.buried>
-4.3130

> <Gold.PLP.part.nonpolar>
-27.8935

> <Gold.PLP.part.repulsive>
0.1680

> <Gold.PLP.ligand.clash>
0.0000

> <Gold.PLP.ligand.torsion>
0.8818

> <Gold.PLP.Chemscore.Hbond>
1.6820

> <Gold.PLP.Chemscore.CHOScore>
0.0000

> <Gold.PLP.Chemscore.Metal>
0.0000

> <Gold.Chemscore.Hbonds>
donor molecule, donor type, donor heavy atom, donor atom, acceptor molecule, acceptor atom, score
      P1  H  6931  6943       L1    18  1.00
      P1  H  6934  6947       L1    18  0.45

> <Gold.PLP.Chemscore.Internal.Correction>
0.1144

> <Gold.Rescore>
     Score         DG    S(hbond)    S(metal)    S(lipo)     H(rot)  DE(clash)    DE(int)     intcor
     13.79     -15.21       1.60        0.00      82.28       2.05       0.19       1.23       ----

> <Gold.Chemscore.Fitness>
13.7947

> <Gold.Chemscore.DG>
-15.2113

> <Gold.Chemscore.ZeroCoef>
-5.4800

> <Gold.Chemscore.Hbond>
1.5997

> <Gold.Chemscore.Metal>
0.0000

> <Gold.Chemscore.Lipo>
82.2761

> <Gold.Chemscore.Internal_Hbond>
0.0000

> <Gold.Chemscore.DEClash>
0.1876

> <Gold.Chemscore.DEInternal>
1.2290

> <Gold.Chemscore.Rot>
2.0461

> <Gold.Chemscore.Internal.Correction>
   9.000000E+99

> <Gold.Chemscore.Hbonds>
donor molecule, donor type, donor heavy atom, donor atom, acceptor molecule, acceptor atom, score
      P1  H  6931  6943       L1    18  0.98
      P1  H  6934  6947       L1    18  0.44

> <Gold.Chemscore.Hbond.Weighted>
-5.3430

> <Gold.Chemscore.Metal.Weighted>
-0.0000

> <Gold.Chemscore.Lipo.Weighted>
-9.6263

> <Gold.Chemscore.Internal_Hbond.Weighted>
0.0000

> <Gold.Chemscore.DEClash.Weighted>
0.1876

> <Gold.Chemscore.DEInternal.Weighted>
1.2290

> <Gold.Chemscore.Rot.Weighted>
5.2381

> <Gold.Chemscore.Internal.Correction.Weighted>
   9.000000E+99

> <Gold.Protein.RotatedTorsions>
[ 6907 6896 6895 6894 ] final  -15.29 input  -60.11 | X-H torsion
[ 7974 7965 7964 7962 ] final  167.61 input  175.53 | X-H torsion
[ 8008 7997 7996 7995 ] final   91.51 input   59.86 | X-H torsion
[ 10167 10162 10161 10158 ] final   52.07 input  -65.29 | X-H torsion
[ 10718 10713 10712 10709 ] final  146.72 input   66.30 | X-H torsion
[ 10763 10752 10751 10750 ] final  121.36 input  -60.55 | X-H torsion
[ 11005 11000 10999 10996 ] final  100.59 input  -57.11 | X-H torsion

> <Gold.Protein.ActiveResidues>
 VAL166  LYS551  ARG553  GLY616  TRP617  ASP618  TYR619  PRO620  LYS621  CYS622 
 ASP623  PHE694  ASN695  SER759  ASP760  ASP761  ALA762  ILE779  LEU786  VAL792 
 PHE793  MET794  SER795  GLU796  ALA797  LYS798  CYS799  TRP800  GLU811  SER814 

> <Gold.Protein.RotatedAtoms>
  151.3262  135.0831  159.9322 H   0  0  0  0  0  0  0  0  0  0  0  0  # atno 6907 bound_to 6896
  152.5245  133.9588  159.7718 H   0  0  0  0  0  0  0  0  0  0  0  0  # atno 6908 bound_to 6896
  150.9919  133.6089  159.2737 H   0  0  0  0  0  0  0  0  0  0  0  0  # atno 6909 bound_to 6896
  144.7418  139.8786  143.6394 H   0  0  0  0  0  0  0  0  0  0  0  0  # atno 7974 bound_to 7965
  156.0246  140.3337  155.7075 H   0  0  0  0  0  0  0  0  0  0  0  0  # atno 8008 bound_to 7997
  155.5973  140.0652  157.2760 H   0  0  0  0  0  0  0  0  0  0  0  0  # atno 8009 bound_to 7997
  154.4329  140.1816  156.1125 H   0  0  0  0  0  0  0  0  0  0  0  0  # atno 8010 bound_to 7997
  140.2552  144.3435  150.6335 H   0  0  0  0  0  0  0  0  0  0  0  0  # atno 10167 bound_to 10162
  157.3297  131.0918  151.1172 H   0  0  0  0  0  0  0  0  0  0  0  0  # atno 10718 bound_to 10713
  153.6129  135.3427  155.2985 H   0  0  0  0  0  0  0  0  0  0  0  0  # atno 10763 bound_to 10752
  154.8615  135.4254  154.2291 H   0  0  0  0  0  0  0  0  0  0  0  0  # atno 10764 bound_to 10752
  153.3145  135.7034  153.7158 H   0  0  0  0  0  0  0  0  0  0  0  0  # atno 10765 bound_to 10752
  139.8771  134.9146  156.4778 H   0  0  0  0  0  0  0  0  0  0  0  0  # atno 11005 bound_to 11000
  146.1228  139.4248  143.0218 LP  0  0  0  0  0  0  0  0  0  0  0  0  # atno 17320 bound_to 7965
  145.7280  141.0052  143.1367 LP  0  0  0  0  0  0  0  0  0  0  0  0  # atno 17321 bound_to 7965
  140.6009  143.2167  151.7073 LP  0  0  0  0  0  0  0  0  0  0  0  0  # atno 17342 bound_to 10162
  139.5034  144.3794  152.0391 LP  0  0  0  0  0  0  0  0  0  0  0  0  # atno 17343 bound_to 10162
  157.2425  130.6576  149.5896 LP  0  0  0  0  0  0  0  0  0  0  0  0  # atno 17370 bound_to 10713
  155.9694  130.4564  150.5923 LP  0  0  0  0  0  0  0  0  0  0  0  0  # atno 17371 bound_to 10713
  140.8749  133.7961  155.9404 LP  0  0  0  0  0  0  0  0  0  0  0  0  # atno 17394 bound_to 11000
  140.8914  134.2490  157.5092 LP  0  0  0  0  0  0  0  0  0  0  0  0  # atno 17395 bound_to 11000

$$$$
