AV-unprocessed.smi:1453|AV-procd|sdf|5912|dock6
  -GOLD-   22720 5593D 1   1.00000     0.00000
 Structure written by MMmdl.
 43 44  0  0  0  0  0  0  0  0  1 V2000
  148.4526  135.0059  155.4695 C   0  0  0  0  0  0  0  0  0  0  0  0
  149.9754  134.9692  155.6769 C   0  0  1  0  0  0  0  0  0  0  0  0
  150.6436  136.2698  155.2105 C   0  0  0  0  0  0  0  0  0  0  0  0
  151.8595  136.4249  155.3271 O   0  0  0  0  0  0  0  0  0  0  0  0
  149.8336  137.2044  154.6879 N   0  0  0  0  0  0  0  0  0  0  0  0
  150.2712  138.5052  154.1915 C   0  0  0  0  0  0  0  0  0  0  0  0
  150.7483  139.4647  155.2729 C   0  0  0  0  0  0  0  0  0  0  0  0
  149.9745  140.5922  155.6091 C   0  0  0  0  0  0  0  0  0  0  0  0
  150.4292  141.4590  156.6212 C   0  0  0  0  0  0  0  0  0  0  0  0
  151.6490  141.1734  157.2794 C   0  0  0  0  0  0  0  0  0  0  0  0
  152.1228  142.0266  158.3000 N   0  0  0  0  0  0  0  0  0  0  0  0
  151.4872  143.3400  158.3723 C   0  0  0  0  0  0  0  0  0  0  0  0
  152.2834  144.2709  159.3028 C   0  0  0  0  0  0  0  0  0  0  0  0
  152.4368  143.6607  160.5799 O   0  0  0  0  0  0  0  0  0  0  0  0
  153.1602  142.4373  160.4975 C   0  0  0  0  0  0  0  0  0  0  0  0
  152.3938  141.4407  159.6118 C   0  0  0  0  0  0  0  0  0  0  0  0
  152.3926  140.0875  156.9519 N   0  0  0  0  0  0  0  0  0  0  0  0
  151.9516  139.2598  155.9815 C   0  0  0  0  0  0  0  0  0  0  0  0
  150.3625  134.6591  157.4639 S   0  0  0  0  0  0  0  0  0  0  0  0
  148.6958  134.6071  158.2477 C   0  0  0  0  0  0  0  0  0  0  0  0
  150.9706  133.3265  157.5982 O   0  0  0  0  0  0  0  0  0  0  0  0
  151.0781  135.8335  157.9856 O   0  0  0  0  0  0  0  0  0  0  0  0
  148.1979  135.2227  154.4315 H   0  0  0  0  0  0  0  0  0  0  0  0
  147.9807  135.7638  156.0961 H   0  0  0  0  0  0  0  0  0  0  0  0
  148.0039  134.0453  155.7227 H   0  0  0  0  0  0  0  0  0  0  0  0
  150.3825  134.1316  155.1095 H   0  0  0  0  0  0  0  0  0  0  0  0
  148.8459  137.0031  154.6298 H   0  0  0  0  0  0  0  0  0  0  0  0
  151.0560  138.3692  153.4451 H   0  0  0  0  0  0  0  0  0  0  0  0
  149.4317  138.9683  153.6729 H   0  0  0  0  0  0  0  0  0  0  0  0
  149.0453  140.7956  155.0973 H   0  0  0  0  0  0  0  0  0  0  0  0
  149.8474  142.3342  156.8686 H   0  0  0  0  0  0  0  0  0  0  0  0
  151.4078  143.8055  157.3912 H   0  0  0  0  0  0  0  0  0  0  0  0
  150.4708  143.2180  158.7488 H   0  0  0  0  0  0  0  0  0  0  0  0
  153.2617  144.5013  158.8780 H   0  0  0  0  0  0  0  0  0  0  0  0
  151.7584  145.2185  159.4233 H   0  0  0  0  0  0  0  0  0  0  0  0
  154.1610  142.6193  160.1022 H   0  0  0  0  0  0  0  0  0  0  0  0
  153.2839  142.0296  161.5008 H   0  0  0  0  0  0  0  0  0  0  0  0
  151.4512  141.1671  160.0876 H   0  0  0  0  0  0  0  0  0  0  0  0
  152.9821  140.5289  159.5032 H   0  0  0  0  0  0  0  0  0  0  0  0
  152.5819  138.4079  155.7733 H   0  0  0  0  0  0  0  0  0  0  0  0
  148.8102  134.5141  159.3274 H   0  0  0  0  0  0  0  0  0  0  0  0
  148.1361  133.7498  157.8751 H   0  0  0  0  0  0  0  0  0  0  0  0
  148.1554  135.5256  158.0211 H   0  0  0  0  0  0  0  0  0  0  0  0
  1  2  1  0  0  0  0
  1 23  1  0  0  0  0
  1 24  1  0  0  0  0
  1 25  1  0  0  0  0
  2  3  1  0  0  0  0
  2 19  1  0  0  0  0
  2 26  1  0  0  0  0
  3  4  2  0  0  0  0
  3  5  1  0  0  0  0
  5  6  1  0  0  0  0
  5 27  1  0  0  0  0
  6  7  1  0  0  0  0
  6 28  1  0  0  0  0
  6 29  1  0  0  0  0
  7 18  1  0  0  0  0
  7  8  2  0  0  0  0
  8  9  1  0  0  0  0
  8 30  1  0  0  0  0
  9 10  2  0  0  0  0
  9 31  1  0  0  0  0
 10 11  1  0  0  0  0
 10 17  1  0  0  0  0
 11 16  1  0  0  0  0
 11 12  1  0  0  0  0
 12 13  1  0  0  0  0
 12 32  1  0  0  0  0
 12 33  1  0  0  0  0
 13 14  1  0  0  0  0
 13 34  1  0  0  0  0
 13 35  1  0  0  0  0
 14 15  1  0  0  0  0
 15 16  1  0  0  0  0
 15 36  1  0  0  0  0
 15 37  1  0  0  0  0
 16 38  1  0  0  0  0
 16 39  1  0  0  0  0
 17 18  2  0  0  0  0
 18 40  1  0  0  0  0
 19 20  1  0  0  0  0
 19 21  2  0  0  0  0
 19 22  2  0  0  0  0
 20 41  1  0  0  0  0
 20 42  1  0  0  0  0
 20 43  1  0  0  0  0
M  END
> <s_m_source_file>
AV-unprocessed.smi

> <i_m_source_file_index>
1453

> <i_lp_mmshare_version>
43012

> <i_f3d_flags>
0

> <s_epik_input>
W0NIM11TKD1PKSg9TylbQ0BIXShbQ0gzXSlDKD1PKVtOSF1bQ0gyXWMxW2NIXVtjSF1jKG5bY0hdMSlOMltDSDJdW0NIMl1PW0NIMl1bQ0gyXTI=

> <s_epik_cmdline>
J2VwaWtfcHl0aG9uJywgJy1waCcsICc3LjAnLCAnLXRuJywgJzgnLCAnLW1hJywgJzIwMCcsICctbWV0YWxfYmluZGluZycsICctaW1hZScsICc8aW5maWxlLm1hZT4nLCAnLW9tYWUnLCAnPG91dGZpbGUubWFlPic=

> <r_lp_tautomer_probability>
1

> <r_epik_Ionization_Penalty>
0.00349781

> <r_epik_Ionization_Penalty_Charging>
0

> <r_epik_Ionization_Penalty_Neutral>
0.00349781

> <r_epik_State_Penalty>
0.00248024

> <r_epik_Charging_Adjusted_Penalty>
0.00248024

> <i_epik_Tot_Q>
0

> <i_epik_Tot_abs_Q>
0

> <r_epik_Metal_State_Penalty>
-0

> <b_epik_Metal_Only>
0

> <s_lp_Force_Field>
OPLS_2005

> <r_lp_Energy>
14.4852

> <b_lp_Chiralities_Consistent>
1

> <s_lp_Variant>
AV-unprocessed.smi:1453-2

> <Gold.Version>
5.8.1

> <Gold.Id.Protein>
6NUR|6NUR_protein|mol2

> <Gold.PLP.Fitness>
46.1058

> <Gold.PLP.PLP>
-38.6143

> <Gold.PLP.part.hbond>
-5.0000

> <Gold.PLP.part.metal>
0.0000

> <Gold.PLP.part.buried>
-2.9902

> <Gold.PLP.part.nonpolar>
-30.5420

> <Gold.PLP.part.repulsive>
0.1738

> <Gold.PLP.ligand.clash>
1.3952

> <Gold.PLP.ligand.torsion>
0.4332

> <Gold.PLP.Chemscore.Hbond>
3.0835

> <Gold.PLP.Chemscore.CHOScore>
0.0000

> <Gold.PLP.Chemscore.Metal>
0.0000

> <Gold.Chemscore.Hbonds>
donor molecule, donor type, donor heavy atom, donor atom, acceptor molecule, acceptor atom, score
      P1  H  6896  6907       L1    21  0.37
      P1  H  6896  6908       L1    22  0.21
      P1  H  7997  8009       L1    17  1.00
      P1  H 10752 10763       L1     4  1.00

> <Gold.PLP.Chemscore.Internal.Correction>
0.5027

> <Gold.Rescore>
     Score         DG    S(hbond)    S(metal)    S(lipo)     H(rot)  DE(clash)    DE(int)     intcor
     15.56     -18.87       2.48        0.00      88.99       2.08       0.33       2.98       ----

> <Gold.Chemscore.Fitness>
15.5615

> <Gold.Chemscore.DG>
-18.8717

> <Gold.Chemscore.ZeroCoef>
-5.4800

> <Gold.Chemscore.Hbond>
2.4838

> <Gold.Chemscore.Metal>
0.0000

> <Gold.Chemscore.Lipo>
88.9870

> <Gold.Chemscore.Internal_Hbond>
0.0000

> <Gold.Chemscore.DEClash>
0.3264

> <Gold.Chemscore.DEInternal>
2.9839

> <Gold.Chemscore.Rot>
2.0764

> <Gold.Chemscore.Internal.Correction>
   9.000000E+99

> <Gold.Chemscore.Hbonds>
donor molecule, donor type, donor heavy atom, donor atom, acceptor molecule, acceptor atom, score
      P1  H  6896  6907       L1    21  0.01
      P1  H  6896  6908       L1    22  0.02
      P1  H  7997  8009       L1    17  0.29
      P1  H 10752 10763       L1     4  0.94

> <Gold.Chemscore.Hbond.Weighted>
-8.2958

> <Gold.Chemscore.Metal.Weighted>
-0.0000

> <Gold.Chemscore.Lipo.Weighted>
-10.4115

> <Gold.Chemscore.Internal_Hbond.Weighted>
0.0000

> <Gold.Chemscore.DEClash.Weighted>
0.3264

> <Gold.Chemscore.DEInternal.Weighted>
2.9839

> <Gold.Chemscore.Rot.Weighted>
5.3155

> <Gold.Chemscore.Internal.Correction.Weighted>
   9.000000E+99

> <Gold.Protein.RotatedTorsions>
[ 6907 6896 6895 6894 ] final -139.49 input  -60.11 | X-H torsion
[ 7974 7965 7964 7962 ] final  -46.84 input  175.53 | X-H torsion
[ 8008 7997 7996 7995 ] final -175.73 input   59.86 | X-H torsion
[ 10167 10162 10161 10158 ] final  -50.80 input  -65.29 | X-H torsion
[ 10718 10713 10712 10709 ] final   73.90 input   66.30 | X-H torsion
[ 10763 10752 10751 10750 ] final   78.91 input  -60.55 | X-H torsion
[ 11005 11000 10999 10996 ] final   23.51 input  -57.11 | X-H torsion

> <Gold.Protein.ActiveResidues>
 VAL166  LYS551  ARG553  GLY616  TRP617  ASP618  TYR619  PRO620  LYS621  CYS622 
 ASP623  PHE694  ASN695  SER759  ASP760  ASP761  ALA762  ILE779  LEU786  VAL792 
 PHE793  MET794  SER795  GLU796  ALA797  LYS798  CYS799  TRP800  GLU811  SER814 

> <Gold.Protein.RotatedAtoms>
  151.0485  133.5644  159.2644 H   0  0  0  0  0  0  0  0  0  0  0  0  # atno 6907 bound_to 6896
  151.2664  135.0670  159.9127 H   0  0  0  0  0  0  0  0  0  0  0  0  # atno 6908 bound_to 6896
  152.5377  134.0223  159.8041 H   0  0  0  0  0  0  0  0  0  0  0  0  # atno 6909 bound_to 6896
  145.9677  140.7415  142.9426 H   0  0  0  0  0  0  0  0  0  0  0  0  # atno 7974 bound_to 7965
  155.9861  140.1191  157.0681 H   0  0  0  0  0  0  0  0  0  0  0  0  # atno 8008 bound_to 7997
  154.4197  140.1135  156.5570 H   0  0  0  0  0  0  0  0  0  0  0  0  # atno 8009 bound_to 7997
  155.6405  140.3473  155.4715 H   0  0  0  0  0  0  0  0  0  0  0  0  # atno 8010 bound_to 7997
  140.6620  143.2644  151.4411 H   0  0  0  0  0  0  0  0  0  0  0  0  # atno 10167 bound_to 10162
  157.6568  130.9651  150.1134 H   0  0  0  0  0  0  0  0  0  0  0  0  # atno 10718 bound_to 10713
  153.0911  135.4859  154.8691 H   0  0  0  0  0  0  0  0  0  0  0  0  # atno 10763 bound_to 10752
  154.7270  135.3051  154.8957 H   0  0  0  0  0  0  0  0  0  0  0  0  # atno 10764 bound_to 10752
  153.9604  135.6813  153.4798 H   0  0  0  0  0  0  0  0  0  0  0  0  # atno 10765 bound_to 10752
  140.3689  134.2044  155.7668 H   0  0  0  0  0  0  0  0  0  0  0  0  # atno 11005 bound_to 11000
  144.6829  140.2697  143.7307 LP  0  0  0  0  0  0  0  0  0  0  0  0  # atno 17320 bound_to 7965
  145.7950  139.1942  143.2081 LP  0  0  0  0  0  0  0  0  0  0  0  0  # atno 17321 bound_to 7965
  139.5856  144.1611  152.2025 LP  0  0  0  0  0  0  0  0  0  0  0  0  # atno 17342 bound_to 10162
  140.0950  144.5588  150.7028 LP  0  0  0  0  0  0  0  0  0  0  0  0  # atno 17343 bound_to 10162
  156.2025  130.3661  149.8771 LP  0  0  0  0  0  0  0  0  0  0  0  0  # atno 17370 bound_to 10713
  156.6671  130.8805  151.3556 LP  0  0  0  0  0  0  0  0  0  0  0  0  # atno 17371 bound_to 10713
  141.1961  133.8090  157.0687 LP  0  0  0  0  0  0  0  0  0  0  0  0  # atno 17394 bound_to 11000
  140.0568  134.9776  157.1234 LP  0  0  0  0  0  0  0  0  0  0  0  0  # atno 17395 bound_to 11000

$$$$
