AV-unprocessed.smi:1979|AV-procd|sdf|8016|dock10
  -GOLD-   2272010213D 1   1.00000     0.00000
 Structure written by MMmdl.
 28 28  0  0  0  0  0  0  0  0  1 V2000
  151.1535  132.1188  157.7463 N   0  0  0  0  0  0  0  0  0  0  0  0
  150.5489  132.3467  156.7867 C   0  0  0  0  0  0  0  0  0  0  0  0
  149.7900  132.6329  155.5813 C   0  0  0  0  0  0  0  0  0  0  0  0
  149.4448  131.6042  154.6834 C   0  0  0  0  0  0  0  0  0  0  0  0
  148.7075  131.9297  153.5283 C   0  0  0  0  0  0  0  0  0  0  0  0
  148.3402  133.2801  153.3126 C   0  0  0  0  0  0  0  0  0  0  0  0
  147.6050  133.6935  152.1944 N   0  0  0  0  0  0  0  0  0  0  0  0
  146.4484  132.9332  151.7456 C   0  0  0  0  0  0  0  0  0  0  0  0
  145.1754  133.7856  151.7555 C   0  0  0  0  0  0  0  0  0  0  0  0
  144.6958  133.9166  150.4276 O   0  0  0  0  0  0  0  0  0  0  0  0
  143.8944  132.8195  150.0211 C   0  0  0  0  0  0  0  0  0  0  0  0
  143.8651  132.7612  148.4891 C   0  0  0  0  0  0  0  0  0  0  0  0
  143.5400  134.0292  147.9612 O   0  0  0  0  0  0  0  0  0  0  0  0
  148.6741  134.2664  154.1736 N   0  0  0  0  0  0  0  0  0  0  0  0
  149.3804  133.9472  155.2798 C   0  0  0  0  0  0  0  0  0  0  0  0
  149.7371  130.5808  154.8708 H   0  0  0  0  0  0  0  0  0  0  0  0
  148.4404  131.1474  152.8336 H   0  0  0  0  0  0  0  0  0  0  0  0
  147.7158  134.6397  151.8591 H   0  0  0  0  0  0  0  0  0  0  0  0
  146.6371  132.5845  150.7299 H   0  0  0  0  0  0  0  0  0  0  0  0
  146.3136  132.0509  152.3726 H   0  0  0  0  0  0  0  0  0  0  0  0
  144.4173  133.3413  152.4028 H   0  0  0  0  0  0  0  0  0  0  0  0
  145.4072  134.7741  152.1546 H   0  0  0  0  0  0  0  0  0  0  0  0
  144.3414  131.9012  150.4051 H   0  0  0  0  0  0  0  0  0  0  0  0
  142.8856  132.8859  150.4326 H   0  0  0  0  0  0  0  0  0  0  0  0
  144.8162  132.4111  148.0866 H   0  0  0  0  0  0  0  0  0  0  0  0
  143.0971  132.0609  148.1601 H   0  0  0  0  0  0  0  0  0  0  0  0
  144.3035  134.3793  147.5284 H   0  0  0  0  0  0  0  0  0  0  0  0
  149.6224  134.7680  155.9395 H   0  0  0  0  0  0  0  0  0  0  0  0
  1  2  3  0  0  0  0
  2  3  1  0  0  0  0
  3 15  1  0  0  0  0
  3  4  2  0  0  0  0
  4  5  1  0  0  0  0
  4 16  1  0  0  0  0
  5  6  2  0  0  0  0
  5 17  1  0  0  0  0
  6  7  1  0  0  0  0
  6 14  1  0  0  0  0
  7  8  1  0  0  0  0
  7 18  1  0  0  0  0
  8  9  1  0  0  0  0
  8 19  1  0  0  0  0
  8 20  1  0  0  0  0
  9 10  1  0  0  0  0
  9 21  1  0  0  0  0
  9 22  1  0  0  0  0
 10 11  1  0  0  0  0
 11 12  1  0  0  0  0
 11 23  1  0  0  0  0
 11 24  1  0  0  0  0
 12 13  1  0  0  0  0
 12 25  1  0  0  0  0
 12 26  1  0  0  0  0
 13 27  1  0  0  0  0
 14 15  2  0  0  0  0
 15 28  1  0  0  0  0
M  END
> <s_m_source_file>
AV-unprocessed.smi

> <i_m_source_file_index>
1979

> <i_lp_mmshare_version>
43012

> <i_f3d_flags>
0

> <s_epik_input>
TiNDYzFbY0hdW2NIXWMobltjSF0xKVtOSF1bQ0gyXVtDSDJdT1tDSDJdW0NIMl1bT0hd

> <s_epik_cmdline>
J2VwaWtfcHl0aG9uJywgJy1waCcsICc3LjAnLCAnLXRuJywgJzgnLCAnLW1hJywgJzIwMCcsICctbWV0YWxfYmluZGluZycsICctaW1hZScsICc8aW5maWxlLm1hZT4nLCAnLW9tYWUnLCAnPG91dGZpbGUubWFlPic=

> <r_lp_tautomer_probability>
1

> <r_epik_Ionization_Penalty>
1.11368e-05

> <r_epik_Ionization_Penalty_Charging>
0

> <r_epik_Ionization_Penalty_Neutral>
1.11368e-05

> <r_epik_State_Penalty>
-0

> <r_epik_Charging_Adjusted_Penalty>
0

> <i_epik_Tot_Q>
0

> <i_epik_Tot_abs_Q>
0

> <r_epik_Metal_State_Penalty>
-0

> <b_epik_Metal_Only>
0

> <s_lp_Force_Field>
OPLS_2005

> <r_lp_Energy>
5.28627

> <b_lp_Chiralities_Consistent>
1

> <s_lp_Variant>
AV-unprocessed.smi:1979-1

> <Gold.Version>
5.8.1

> <Gold.Id.Protein>
6NUR|6NUR_protein|mol2

> <Gold.PLP.Fitness>
41.1695

> <Gold.PLP.PLP>
-31.7569

> <Gold.PLP.part.hbond>
-5.4745

> <Gold.PLP.part.metal>
0.0000

> <Gold.PLP.part.buried>
-3.7757

> <Gold.PLP.part.nonpolar>
-23.0835

> <Gold.PLP.part.repulsive>
1.3179

> <Gold.PLP.ligand.clash>
0.0000

> <Gold.PLP.ligand.torsion>
0.9962

> <Gold.PLP.Chemscore.Hbond>
3.7895

> <Gold.PLP.Chemscore.CHOScore>
0.0000

> <Gold.PLP.Chemscore.Metal>
0.0000

> <Gold.Chemscore.Hbonds>
donor molecule, donor type, donor heavy atom, donor atom, acceptor molecule, acceptor atom, score
      L1  H     7    18       P1  7948  0.86
      L1  H    13    27       P1  7921  0.99
      P1  H  6896  6909       L1     1  1.00
      P1  H 10192 10197       L1    13  0.93

> <Gold.PLP.Chemscore.Internal.Correction>
0.0365

> <Gold.Rescore>
     Score         DG    S(hbond)    S(metal)    S(lipo)     H(rot)  DE(clash)    DE(int)     intcor
     13.62     -14.95       3.23        0.00      51.68       2.88       0.28       1.06       ----

> <Gold.Chemscore.Fitness>
13.6205

> <Gold.Chemscore.DG>
-14.9527

> <Gold.Chemscore.ZeroCoef>
-5.4800

> <Gold.Chemscore.Hbond>
3.2324

> <Gold.Chemscore.Metal>
0.0000

> <Gold.Chemscore.Lipo>
51.6787

> <Gold.Chemscore.Internal_Hbond>
0.0000

> <Gold.Chemscore.DEClash>
0.2751

> <Gold.Chemscore.DEInternal>
1.0572

> <Gold.Chemscore.Rot>
2.8788

> <Gold.Chemscore.Internal.Correction>
   9.000000E+99

> <Gold.Chemscore.Hbonds>
donor molecule, donor type, donor heavy atom, donor atom, acceptor molecule, acceptor atom, score
      L1  H     7    18       P1  7948  0.34
      L1  H    13    27       P1  7921  0.93
      P1  H  6896  6909       L1     1  0.99
      P1  H 10192 10197       L1    13  0.31

> <Gold.Chemscore.Hbond.Weighted>
-10.7962

> <Gold.Chemscore.Metal.Weighted>
-0.0000

> <Gold.Chemscore.Lipo.Weighted>
-6.0464

> <Gold.Chemscore.Internal_Hbond.Weighted>
0.0000

> <Gold.Chemscore.DEClash.Weighted>
0.2751

> <Gold.Chemscore.DEInternal.Weighted>
1.0572

> <Gold.Chemscore.Rot.Weighted>
7.3699

> <Gold.Chemscore.Internal.Correction.Weighted>
   9.000000E+99

> <Gold.Protein.RotatedTorsions>
[ 6907 6896 6895 6894 ] final  -52.28 input  -60.11 | X-H torsion
[ 7974 7965 7964 7962 ] final  -92.23 input  175.53 | X-H torsion
[ 8008 7997 7996 7995 ] final   70.77 input   59.86 | X-H torsion
[ 10167 10162 10161 10158 ] final -176.98 input  -65.29 | X-H torsion
[ 10718 10713 10712 10709 ] final   68.50 input   66.30 | X-H torsion
[ 10763 10752 10751 10750 ] final  132.32 input  -60.55 | X-H torsion
[ 11005 11000 10999 10996 ] final   37.78 input  -57.11 | X-H torsion

> <Gold.Protein.ActiveResidues>
 VAL166  LYS551  ARG553  GLY616  TRP617  ASP618  TYR619  PRO620  LYS621  CYS622 
 ASP623  PHE694  ASN695  SER759  ASP760  ASP761  ALA762  ILE779  LEU786  VAL792 
 PHE793  MET794  SER795  GLU796  ALA797  LYS798  CYS799  TRP800  GLU811  SER814 

> <Gold.Protein.RotatedAtoms>
  150.8532  134.7863  159.7024 H   0  0  0  0  0  0  0  0  0  0  0  0  # atno 6907 bound_to 6896
  152.4591  134.5221  159.9795 H   0  0  0  0  0  0  0  0  0  0  0  0  # atno 6908 bound_to 6896
  151.5339  133.3406  159.2959 H   0  0  0  0  0  0  0  0  0  0  0  0  # atno 6909 bound_to 6896
  145.4026  140.9538  143.2279 H   0  0  0  0  0  0  0  0  0  0  0  0  # atno 7974 bound_to 7965
  155.7438  140.3490  155.5117 H   0  0  0  0  0  0  0  0  0  0  0  0  # atno 8008 bound_to 7997
  155.9069  140.1043  157.1330 H   0  0  0  0  0  0  0  0  0  0  0  0  # atno 8009 bound_to 7997
  154.4051  140.1275  156.4494 H   0  0  0  0  0  0  0  0  0  0  0  0  # atno 8010 bound_to 7997
  139.5503  144.2128  152.1064 H   0  0  0  0  0  0  0  0  0  0  0  0  # atno 10167 bound_to 10162
  157.6293  130.9377  150.0386 H   0  0  0  0  0  0  0  0  0  0  0  0  # atno 10718 bound_to 10713
  153.7888  135.3158  155.3376 H   0  0  0  0  0  0  0  0  0  0  0  0  # atno 10763 bound_to 10752
  154.8134  135.4652  154.0579 H   0  0  0  0  0  0  0  0  0  0  0  0  # atno 10764 bound_to 10752
  153.1891  135.6905  153.8463 H   0  0  0  0  0  0  0  0  0  0  0  0  # atno 10765 bound_to 10752
  140.2192  134.3662  155.8013 H   0  0  0  0  0  0  0  0  0  0  0  0  # atno 11005 bound_to 11000
  144.8364  139.5544  143.6920 LP  0  0  0  0  0  0  0  0  0  0  0  0  # atno 17320 bound_to 7965
  146.2744  139.6717  142.9273 LP  0  0  0  0  0  0  0  0  0  0  0  0  # atno 17321 bound_to 7965
  140.1622  144.5015  150.6626 LP  0  0  0  0  0  0  0  0  0  0  0  0  # atno 17342 bound_to 10162
  140.6763  143.2306  151.5499 LP  0  0  0  0  0  0  0  0  0  0  0  0  # atno 17343 bound_to 10162
  156.1485  130.3642  149.9474 LP  0  0  0  0  0  0  0  0  0  0  0  0  # atno 17370 bound_to 10713
  156.7499  130.9111  151.3637 LP  0  0  0  0  0  0  0  0  0  0  0  0  # atno 17371 bound_to 10713
  141.2223  133.7184  156.8547 LP  0  0  0  0  0  0  0  0  0  0  0  0  # atno 17394 bound_to 11000
  140.1868  134.8994  157.3013 LP  0  0  0  0  0  0  0  0  0  0  0  0  # atno 17395 bound_to 11000

$$$$
