AV-unprocessed.smi:2032|AV-procd|sdf|8248|dock1
  -GOLD-   2272010513D 1   1.00000     0.00000
 Structure written by MMmdl.
 41 42  0  0  0  0  0  0  0  0  2 V2000
  154.2190  140.9659  160.9558 C   0  0  0  0  0  0  0  0  0  0  0  0
  153.4653  141.5864  159.7748 C   0  0  1  0  0  0  0  0  0  0  0  0
  152.1561  140.8370  159.4613 C   0  0  0  0  0  0  0  0  0  0  0  0
  151.3869  141.4603  158.3791 N   0  0  0  0  0  0  0  0  0  0  0  0
  150.1175  140.7501  158.0933 C   0  0  1  0  0  0  0  0  0  0  0  0
  149.2419  141.4896  157.0495 C   0  0  0  0  0  0  0  0  0  0  0  0
  150.3255  139.2788  157.6275 C   0  0  0  0  0  0  0  0  0  0  0  0
  149.2492  138.3770  158.0318 N   0  0  0  0  0  0  0  0  0  0  0  0
  149.3953  137.2247  158.7013 C   0  0  0  0  0  0  0  0  0  0  0  0
  150.5211  136.8380  159.0233 O   0  0  0  0  0  0  0  0  0  0  0  0
  148.2261  136.5955  158.9594 N   0  5  0  0  0  0  0  0  0  0  0  0
  148.0177  136.0246  160.1570 C   0  0  0  0  0  0  0  0  0  0  0  0
  147.9411  136.7242  161.2951 N   0  0  0  0  0  0  0  0  0  0  0  0
  147.7331  135.9283  162.4230 C   0  0  0  0  0  0  0  0  0  0  0  0
  147.6583  134.5907  162.1384 C   0  0  0  0  0  0  0  0  0  0  0  0
  147.8464  134.2890  160.4343 S   0  0  0  0  0  0  0  0  0  0  0  0
  151.1738  142.8681  158.7316 C   0  0  0  0  0  0  0  0  0  0  0  0
  152.4839  143.6141  159.0488 C   0  0  1  0  0  0  0  0  0  0  0  0
  152.2332  145.0590  159.4932 C   0  0  0  0  0  0  0  0  0  0  0  0
  153.1650  142.9381  160.0980 O   0  0  0  0  0  0  0  0  0  0  0  0
  154.4838  139.9286  160.7499 H   0  0  0  0  0  0  0  0  0  0  0  0
  153.6146  140.9836  161.8631 H   0  0  0  0  0  0  0  0  0  0  0  0
  155.1417  141.5101  161.1587 H   0  0  0  0  0  0  0  0  0  0  0  0
  154.1150  141.5678  158.8981 H   0  0  0  0  0  0  0  0  0  0  0  0
  152.4328  139.8185  159.1967 H   0  0  0  0  0  0  0  0  0  0  0  0
  151.5429  140.7763  160.3619 H   0  0  0  0  0  0  0  0  0  0  0  0
  149.5419  140.7140  159.0194 H   0  0  0  0  0  0  0  0  0  0  0  0
  148.3292  140.9450  156.8107 H   0  0  0  0  0  0  0  0  0  0  0  0
  149.7859  141.6419  156.1170 H   0  0  0  0  0  0  0  0  0  0  0  0
  148.9026  142.4609  157.4058 H   0  0  0  0  0  0  0  0  0  0  0  0
  150.4041  139.2419  156.5406 H   0  0  0  0  0  0  0  0  0  0  0  0
  151.2494  138.8540  158.0177 H   0  0  0  0  0  0  0  0  0  0  0  0
  148.3094  138.6534  157.7889 H   0  0  0  0  0  0  0  0  0  0  0  0
  147.6529  136.3987  163.3918 H   0  0  0  0  0  0  0  0  0  0  0  0
  147.5065  133.7690  162.8220 H   0  0  0  0  0  0  0  0  0  0  0  0
  150.6956  143.3997  157.9111 H   0  0  0  0  0  0  0  0  0  0  0  0
  150.4999  142.9344  159.5872 H   0  0  0  0  0  0  0  0  0  0  0  0
  153.1206  143.6268  158.1622 H   0  0  0  0  0  0  0  0  0  0  0  0
  151.7183  145.6252  158.7168 H   0  0  0  0  0  0  0  0  0  0  0  0
  153.1727  145.5687  159.7086 H   0  0  0  0  0  0  0  0  0  0  0  0
  151.6212  145.0937  160.3952 H   0  0  0  0  0  0  0  0  0  0  0  0
  1  2  1  0  0  0  0
  1 21  1  0  0  0  0
  1 22  1  0  0  0  0
  1 23  1  0  0  0  0
  2 20  1  0  0  0  0
  2  3  1  0  0  0  0
  2 24  1  0  0  0  0
  3  4  1  0  0  0  0
  3 25  1  0  0  0  0
  3 26  1  0  0  0  0
  4  5  1  0  0  0  0
  4 17  1  0  0  0  0
  5  6  1  0  0  0  0
  5  7  1  0  0  0  0
  5 27  1  0  0  0  0
  6 28  1  0  0  0  0
  6 29  1  0  0  0  0
  6 30  1  0  0  0  0
  7  8  1  0  0  0  0
  7 31  1  0  0  0  0
  7 32  1  0  0  0  0
  8  9  1  0  0  0  0
  8 33  1  0  0  0  0
  9 10  2  0  0  0  0
  9 11  1  0  0  0  0
 11 12  1  0  0  0  0
 12 16  1  0  0  0  0
 12 13  2  0  0  0  0
 13 14  1  0  0  0  0
 14 15  2  0  0  0  0
 14 34  1  0  0  0  0
 15 16  1  0  0  0  0
 15 35  1  0  0  0  0
 17 18  1  0  0  0  0
 17 36  1  0  0  0  0
 17 37  1  0  0  0  0
 18 19  1  0  0  0  0
 18 20  1  0  0  0  0
 18 38  1  0  0  0  0
 19 39  1  0  0  0  0
 19 40  1  0  0  0  0
 19 41  1  0  0  0  0
M  CHG  1  11  -1
M  END
> <s_m_source_file>
AV-unprocessed.smi

> <i_m_source_file_index>
2032

> <i_lp_mmshare_version>
43012

> <i_f3d_flags>
0

> <s_epik_input>
W0NIM11bQ0BASF0xW0NIMl1OKFtDSDJdW0NASF0oTzEpW0NIM10pW0NASF0oW0NIM10pW0NIMl1bTkhdQyg9TylbTkhdYzJuW2NIXVtjSF1zMg==

> <s_epik_cmdline>
J2VwaWtfcHl0aG9uJywgJy1waCcsICc3LjAnLCAnLXRuJywgJzgnLCAnLW1hJywgJzIwMCcsICctbWV0YWxfYmluZGluZycsICctaW1hZScsICc8aW5maWxlLm1hZT4nLCAnLW9tYWUnLCAnPG91dGZpbGUubWFlPic=

> <r_lp_tautomer_probability>
0.999

> <r_epik_Ionization_Penalty>
7.22375

> <r_epik_Ionization_Penalty_Charging>
5.82415

> <r_epik_Ionization_Penalty_Neutral>
1.39959

> <r_epik_State_Penalty>
6.03347

> <r_epik_Charging_Adjusted_Penalty>
11.8576

> <i_epik_Tot_Q>
-1

> <i_epik_Tot_abs_Q>
1

> <r_epik_Metal_State_Penalty>
2.01024

> <b_epik_Metal_Only>
1

> <s_lp_Force_Field>
OPLS_2005

> <r_lp_Energy>
22.8045

> <b_lp_Chiralities_Consistent>
1

> <s_lp_Variant>
AV-unprocessed.smi:2032-18

> <Gold.Version>
5.8.1

> <Gold.Id.Protein>
6NUR|6NUR_protein|mol2

> <Gold.PLP.Fitness>
50.1770

> <Gold.PLP.PLP>
-44.5257

> <Gold.PLP.part.hbond>
-3.0000

> <Gold.PLP.part.metal>
0.0000

> <Gold.PLP.part.buried>
-6.6319

> <Gold.PLP.part.nonpolar>
-35.0563

> <Gold.PLP.part.repulsive>
0.1448

> <Gold.PLP.ligand.clash>
0.0000

> <Gold.PLP.ligand.torsion>
1.3521

> <Gold.PLP.Chemscore.Hbond>
2.7360

> <Gold.PLP.Chemscore.CHOScore>
0.0000

> <Gold.PLP.Chemscore.Metal>
0.0000

> <Gold.Chemscore.Hbonds>
donor molecule, donor type, donor heavy atom, donor atom, acceptor molecule, acceptor atom, score
      P1  H  6896  6909       L1    10  1.00
      P1  H  6931  6943       L1    13  1.00

> <Gold.PLP.Chemscore.Internal.Correction>
0.1474

> <Gold.Rescore>
     Score         DG    S(hbond)    S(metal)    S(lipo)     H(rot)  DE(clash)    DE(int)     intcor
     18.30     -20.29       1.94        0.00     104.89       1.54       0.05       1.94       ----

> <Gold.Chemscore.Fitness>
18.2980

> <Gold.Chemscore.DG>
-20.2904

> <Gold.Chemscore.ZeroCoef>
-5.4800

> <Gold.Chemscore.Hbond>
1.9428

> <Gold.Chemscore.Metal>
0.0000

> <Gold.Chemscore.Lipo>
104.8859

> <Gold.Chemscore.Internal_Hbond>
0.0000

> <Gold.Chemscore.DEClash>
0.0489

> <Gold.Chemscore.DEInternal>
1.9435

> <Gold.Chemscore.Rot>
1.5431

> <Gold.Chemscore.Internal.Correction>
   9.000000E+99

> <Gold.Chemscore.Hbonds>
donor molecule, donor type, donor heavy atom, donor atom, acceptor molecule, acceptor atom, score
      P1  H  6896  6909       L1    10  0.93
      P1  H  6931  6943       L1    13  0.54
      P1  H  6934  6947       L1    13  0.04

> <Gold.Chemscore.Hbond.Weighted>
-6.4890

> <Gold.Chemscore.Metal.Weighted>
-0.0000

> <Gold.Chemscore.Lipo.Weighted>
-12.2717

> <Gold.Chemscore.Internal_Hbond.Weighted>
0.0000

> <Gold.Chemscore.DEClash.Weighted>
0.0489

> <Gold.Chemscore.DEInternal.Weighted>
1.9435

> <Gold.Chemscore.Rot.Weighted>
3.9503

> <Gold.Chemscore.Internal.Correction.Weighted>
   9.000000E+99

> <Gold.Protein.RotatedTorsions>
[ 6907 6896 6895 6894 ] final   88.94 input  -60.11 | X-H torsion
[ 7974 7965 7964 7962 ] final    6.00 input  175.53 | X-H torsion
[ 8008 7997 7996 7995 ] final   41.81 input   59.86 | X-H torsion
[ 10167 10162 10161 10158 ] final -113.97 input  -65.29 | X-H torsion
[ 10718 10713 10712 10709 ] final   85.06 input   66.30 | X-H torsion
[ 10763 10752 10751 10750 ] final   -5.69 input  -60.55 | X-H torsion
[ 11005 11000 10999 10996 ] final -168.50 input  -57.11 | X-H torsion

> <Gold.Protein.ActiveResidues>
 VAL166  LYS551  ARG553  GLY616  TRP617  ASP618  TYR619  PRO620  LYS621  CYS622 
 ASP623  PHE694  ASN695  SER759  ASP760  ASP761  ALA762  ILE779  LEU786  VAL792 
 PHE793  MET794  SER795  GLU796  ALA797  LYS798  CYS799  TRP800  GLU811  SER814 

> <Gold.Protein.RotatedAtoms>
  152.5431  134.2044  159.8724 H   0  0  0  0  0  0  0  0  0  0  0  0  # atno 6907 bound_to 6896
  151.2031  133.4592  159.2604 H   0  0  0  0  0  0  0  0  0  0  0  0  # atno 6908 bound_to 6896
  151.0970  134.9962  159.8486 H   0  0  0  0  0  0  0  0  0  0  0  0  # atno 6909 bound_to 6896
  146.2437  140.0299  142.8390 H   0  0  0  0  0  0  0  0  0  0  0  0  # atno 7974 bound_to 7965
  155.2757  140.3369  155.4262 H   0  0  0  0  0  0  0  0  0  0  0  0  # atno 8008 bound_to 7997
  156.2112  140.1771  156.7731 H   0  0  0  0  0  0  0  0  0  0  0  0  # atno 8009 bound_to 7997
  154.5689  140.0673  156.8919 H   0  0  0  0  0  0  0  0  0  0  0  0  # atno 8010 bound_to 7997
  140.1061  143.4569  152.1782 H   0  0  0  0  0  0  0  0  0  0  0  0  # atno 10167 bound_to 10162
  157.6908  131.0159  150.2766 H   0  0  0  0  0  0  0  0  0  0  0  0  # atno 10718 bound_to 10713
  153.4020  135.7005  153.6419 H   0  0  0  0  0  0  0  0  0  0  0  0  # atno 10763 bound_to 10752
  153.4949  135.3665  155.2511 H   0  0  0  0  0  0  0  0  0  0  0  0  # atno 10764 bound_to 10752
  154.8711  135.4098  154.3356 H   0  0  0  0  0  0  0  0  0  0  0  0  # atno 10765 bound_to 10752
  140.5413  134.5520  157.5100 H   0  0  0  0  0  0  0  0  0  0  0  0  # atno 11005 bound_to 11000
  145.1164  140.9436  143.4626 LP  0  0  0  0  0  0  0  0  0  0  0  0  # atno 17320 bound_to 7965
  145.0524  139.3170  143.5921 LP  0  0  0  0  0  0  0  0  0  0  0  0  # atno 17321 bound_to 7965
  139.5645  144.7426  151.4062 LP  0  0  0  0  0  0  0  0  0  0  0  0  # atno 17342 bound_to 10162
  140.6951  143.7767  150.7315 LP  0  0  0  0  0  0  0  0  0  0  0  0  # atno 17343 bound_to 10162
  156.3319  130.3802  149.7483 LP  0  0  0  0  0  0  0  0  0  0  0  0  # atno 17370 bound_to 10713
  156.5020  130.8133  151.3136 LP  0  0  0  0  0  0  0  0  0  0  0  0  # atno 17371 bound_to 10713
  139.9503  134.7629  156.0465 LP  0  0  0  0  0  0  0  0  0  0  0  0  # atno 17394 bound_to 11000
  141.1226  133.6608  156.3253 LP  0  0  0  0  0  0  0  0  0  0  0  0  # atno 17395 bound_to 11000

$$$$
