AV-unprocessed.smi:1817|AV-procd|sdf|7377|dock3
  -GOLD-   22720 9 43D 1   1.00000     0.00000
 Structure written by MMmdl.
 42 43  0  0  0  0  0  0  0  0  3 V2000
  143.6159  132.5252  150.6149 C   0  0  0  0  0  0  0  0  0  0  0  0
  144.3502  133.3249  151.7013 C   0  0  0  0  0  0  0  0  0  0  0  0
  145.5386  134.0014  151.1760 N   0  0  0  0  0  0  0  0  0  0  0  0
  145.9132  135.2318  151.8826 C   0  0  0  0  0  0  0  0  0  0  0  0
  146.4621  134.9508  153.2973 C   0  0  0  0  0  0  0  0  0  0  0  0
  147.6311  134.0406  153.2219 N   0  3  0  0  0  0  0  0  0  0  0  0
  148.3449  133.8669  154.5195 C   0  0  1  0  0  0  0  0  0  0  0  0
  149.5592  132.9174  154.4231 C   0  0  0  0  0  0  0  0  0  0  0  0
  148.7089  135.2426  155.1239 C   0  0  0  0  0  0  0  0  0  0  0  0
  149.1534  135.1444  156.5104 N   0  0  0  0  0  0  0  0  0  0  0  0
  148.4338  135.4894  157.5873 C   0  0  0  0  0  0  0  0  0  0  0  0
  147.3012  135.9562  157.4452 O   0  0  0  0  0  0  0  0  0  0  0  0
  149.0677  135.2654  158.7597 N   0  5  0  0  0  0  0  0  0  0  0  0
  148.5133  135.6774  159.9119 C   0  0  0  0  0  0  0  0  0  0  0  0
  148.6693  136.9280  160.3750 N   0  0  0  0  0  0  0  0  0  0  0  0
  148.0157  137.1498  161.5795 N   0  0  0  0  0  0  0  0  0  0  0  0
  147.3726  136.0577  161.9916 C   0  0  0  0  0  0  0  0  0  0  0  0
  147.5043  134.6605  160.9443 S   0  0  0  0  0  0  0  0  0  0  0  0
  147.2645  132.7882  152.5117 C   0  0  0  0  0  0  0  0  0  0  0  0
  146.7046  133.1155  151.1114 C   0  0  0  0  0  0  0  0  0  0  0  0
  142.8194  131.9265  151.0569 H   0  0  0  0  0  0  0  0  0  0  0  0
  144.2922  131.8423  150.0994 H   0  0  0  0  0  0  0  0  0  0  0  0
  143.1543  133.1729  149.8702 H   0  0  0  0  0  0  0  0  0  0  0  0
  143.6665  134.0249  152.1803 H   0  0  0  0  0  0  0  0  0  0  0  0
  144.6669  132.6247  152.4751 H   0  0  0  0  0  0  0  0  0  0  0  0
  146.6776  135.7432  151.2960 H   0  0  0  0  0  0  0  0  0  0  0  0
  145.0693  135.9189  151.9322 H   0  0  0  0  0  0  0  0  0  0  0  0
  146.7647  135.8960  153.7490 H   0  0  0  0  0  0  0  0  0  0  0  0
  145.6898  134.5322  153.9424 H   0  0  0  0  0  0  0  0  0  0  0  0
  147.6321  133.4048  155.2039 H   0  0  0  0  0  0  0  0  0  0  0  0
  149.9572  132.6902  155.4124 H   0  0  0  0  0  0  0  0  0  0  0  0
  150.3716  133.3560  153.8435 H   0  0  0  0  0  0  0  0  0  0  0  0
  149.2928  131.9659  153.9639 H   0  0  0  0  0  0  0  0  0  0  0  0
  149.5170  135.7075  154.5601 H   0  0  0  0  0  0  0  0  0  0  0  0
  147.8591  135.9246  155.0612 H   0  0  0  0  0  0  0  0  0  0  0  0
  150.0778  134.7711  156.6711 H   0  0  0  0  0  0  0  0  0  0  0  0
  146.8145  136.0757  162.9158 H   0  0  0  0  0  0  0  0  0  0  0  0
  148.1421  132.1524  152.4010 H   0  0  0  0  0  0  0  0  0  0  0  0
  146.5358  132.2166  153.0868 H   0  0  0  0  0  0  0  0  0  0  0  0
  146.4416  132.1980  150.5839 H   0  0  0  0  0  0  0  0  0  0  0  0
  147.4782  133.6001  150.5139 H   0  0  0  0  0  0  0  0  0  0  0  0
  148.2917  134.5151  152.6230 H   0  0  0  0  0  0  0  0  0  0  0  0
  1  2  1  0  0  0  0
  1 21  1  0  0  0  0
  1 22  1  0  0  0  0
  1 23  1  0  0  0  0
  2  3  1  0  0  0  0
  2 24  1  0  0  0  0
  2 25  1  0  0  0  0
  3 20  1  0  0  0  0
  3  4  1  0  0  0  0
  4  5  1  0  0  0  0
  4 26  1  0  0  0  0
  4 27  1  0  0  0  0
  5  6  1  0  0  0  0
  5 28  1  0  0  0  0
  5 29  1  0  0  0  0
  6  7  1  0  0  0  0
  6 19  1  0  0  0  0
  6 42  1  0  0  0  0
  7  8  1  0  0  0  0
  7  9  1  0  0  0  0
  7 30  1  0  0  0  0
  8 31  1  0  0  0  0
  8 32  1  0  0  0  0
  8 33  1  0  0  0  0
  9 10  1  0  0  0  0
  9 34  1  0  0  0  0
  9 35  1  0  0  0  0
 10 11  1  0  0  0  0
 10 36  1  0  0  0  0
 11 12  2  0  0  0  0
 11 13  1  0  0  0  0
 13 14  1  0  0  0  0
 14 18  1  0  0  0  0
 14 15  2  0  0  0  0
 15 16  1  0  0  0  0
 16 17  2  0  0  0  0
 17 18  1  0  0  0  0
 17 37  1  0  0  0  0
 19 20  1  0  0  0  0
 19 38  1  0  0  0  0
 19 39  1  0  0  0  0
 20 40  1  0  0  0  0
 20 41  1  0  0  0  0
M  CHG  1   6   1
M  CHG  1  13  -1
M  END
> <s_m_source_file>
AV-unprocessed.smi

> <i_m_source_file_index>
1817

> <i_lp_mmshare_version>
43012

> <i_f3d_flags>
0

> <s_epik_input>
W0NIM11bQ0gyXU4xW0NIMl1bQ0gyXU4oW0NIMl1bQ0gyXTEpW0NASF0oW0NIM10pW0NIMl1bTkhdQyg9TylbTkhdYzJubltjSF1zMg==

> <s_epik_cmdline>
J2VwaWtfcHl0aG9uJywgJy1waCcsICc3LjAnLCAnLXRuJywgJzgnLCAnLW1hJywgJzIwMCcsICctbWV0YWxfYmluZGluZycsICctaW1hZScsICc8aW5maWxlLm1hZT4nLCAnLW9tYWUnLCAnPG91dGZpbGUubWFlPic=

> <r_epik_Ionization_Penalty>
3.16835

> <r_epik_Ionization_Penalty_Charging>
3.13468

> <r_epik_Ionization_Penalty_Neutral>
0.0336711

> <r_epik_State_Penalty>
3.95884

> <r_epik_Charging_Adjusted_Penalty>
7.09351

> <i_epik_Tot_Q>
0

> <i_epik_Tot_abs_Q>
2

> <r_epik_Metal_State_Penalty>
1.39003

> <b_epik_Metal_Only>
1

> <s_lp_Force_Field>
OPLS_2005

> <r_lp_Energy>
12.939

> <b_lp_Chiralities_Consistent>
1

> <s_lp_Variant>
AV-unprocessed.smi:1817-10

> <Gold.Version>
5.8.1

> <Gold.Id.Protein>
6NUR|6NUR_protein|mol2

> <Gold.PLP.Fitness>
43.0498

> <Gold.PLP.PLP>
-30.5773

> <Gold.PLP.part.hbond>
-5.2143

> <Gold.PLP.part.metal>
0.0000

> <Gold.PLP.part.buried>
-2.2404

> <Gold.PLP.part.nonpolar>
-22.9715

> <Gold.PLP.part.repulsive>
0.1665

> <Gold.PLP.ligand.clash>
0.0000

> <Gold.PLP.ligand.torsion>
1.2123

> <Gold.PLP.Chemscore.Hbond>
4.9092

> <Gold.PLP.Chemscore.CHOScore>
0.0000

> <Gold.PLP.Chemscore.Metal>
0.0000

> <Gold.Chemscore.Hbonds>
donor molecule, donor type, donor heavy atom, donor atom, acceptor molecule, acceptor atom, score
      L1  H     6    42       P1  7948  1.98
      P1  H  6896  6909       L1    13  1.90
      P1  H  6931  6943       L1    16  0.50
      P1  H  6934  6947       L1    16  0.32

> <Gold.PLP.Chemscore.Internal.Correction>
0.1695

> <Gold.Rescore>
     Score         DG    S(hbond)    S(metal)    S(lipo)     H(rot)  DE(clash)    DE(int)     intcor
     12.83     -14.01       1.89        0.00      60.03       1.88       0.00       1.18       ----

> <Gold.Chemscore.Fitness>
12.8348

> <Gold.Chemscore.DG>
-14.0115

> <Gold.Chemscore.ZeroCoef>
-5.4800

> <Gold.Chemscore.Hbond>
1.8944

> <Gold.Chemscore.Metal>
0.0000

> <Gold.Chemscore.Lipo>
60.0277

> <Gold.Chemscore.Internal_Hbond>
0.0000

> <Gold.Chemscore.DEClash>
0.0000

> <Gold.Chemscore.DEInternal>
1.1767

> <Gold.Chemscore.Rot>
1.8825

> <Gold.Chemscore.Internal.Correction>
   9.000000E+99

> <Gold.Chemscore.Hbonds>
donor molecule, donor type, donor heavy atom, donor atom, acceptor molecule, acceptor atom, score
      L1  H     6    42       P1  7948  0.24
      P1  H  6896  6909       L1    13  0.21
      P1  H  6931  6943       L1    16  0.02
      P1  H  6934  6947       L1    16  0.03

> <Gold.Chemscore.Hbond.Weighted>
-6.3274

> <Gold.Chemscore.Metal.Weighted>
-0.0000

> <Gold.Chemscore.Lipo.Weighted>
-7.0232

> <Gold.Chemscore.Internal_Hbond.Weighted>
0.0000

> <Gold.Chemscore.DEClash.Weighted>
0.0000

> <Gold.Chemscore.DEInternal.Weighted>
1.1767

> <Gold.Chemscore.Rot.Weighted>
4.8191

> <Gold.Chemscore.Internal.Correction.Weighted>
   9.000000E+99

> <Gold.Protein.RotatedTorsions>
[ 6907 6896 6895 6894 ] final   35.96 input  -60.11 | X-H torsion
[ 7974 7965 7964 7962 ] final -135.27 input  175.53 | X-H torsion
[ 8008 7997 7996 7995 ] final -155.14 input   59.86 | X-H torsion
[ 10167 10162 10161 10158 ] final -146.80 input  -65.29 | X-H torsion
[ 10718 10713 10712 10709 ] final  115.94 input   66.30 | X-H torsion
[ 10763 10752 10751 10750 ] final   37.02 input  -60.55 | X-H torsion
[ 11005 11000 10999 10996 ] final   73.36 input  -57.11 | X-H torsion

> <Gold.Protein.ActiveResidues>
 VAL166  LYS551  ARG553  GLY616  TRP617  ASP618  TYR619  PRO620  LYS621  CYS622 
 ASP623  PHE694  ASN695  SER759  ASP760  ASP761  ALA762  ILE779  LEU786  VAL792 
 PHE793  MET794  SER795  GLU796  ALA797  LYS798  CYS799  TRP800  GLU811  SER814 

> <Gold.Protein.RotatedAtoms>
  152.1233  134.9189  160.0561 H   0  0  0  0  0  0  0  0  0  0  0  0  # atno 6907 bound_to 6896
  152.0322  133.3937  159.4310 H   0  0  0  0  0  0  0  0  0  0  0  0  # atno 6908 bound_to 6896
  150.6850  134.3429  159.4919 H   0  0  0  0  0  0  0  0  0  0  0  0  # atno 6909 bound_to 6896
  144.9029  140.6795  143.5073 H   0  0  0  0  0  0  0  0  0  0  0  0  # atno 7974 bound_to 7965
  155.6972  140.0762  157.2425 H   0  0  0  0  0  0  0  0  0  0  0  0  # atno 8008 bound_to 7997
  154.4079  140.1654  156.2204 H   0  0  0  0  0  0  0  0  0  0  0  0  # atno 8009 bound_to 7997
  155.9400  140.3385  155.6322 H   0  0  0  0  0  0  0  0  0  0  0  0  # atno 8010 bound_to 7997
  139.7680  143.8280  152.2619 H   0  0  0  0  0  0  0  0  0  0  0  0  # atno 10167 bound_to 10162
  157.6191  131.1019  150.7402 H   0  0  0  0  0  0  0  0  0  0  0  0  # atno 10718 bound_to 10713
  153.0054  135.6289  154.2078 H   0  0  0  0  0  0  0  0  0  0  0  0  # atno 10763 bound_to 10752
  154.1821  135.2813  155.3050 H   0  0  0  0  0  0  0  0  0  0  0  0  # atno 10764 bound_to 10752
  154.5826  135.5642  153.7260 H   0  0  0  0  0  0  0  0  0  0  0  0  # atno 10765 bound_to 10752
  139.9444  134.7340  156.1017 H   0  0  0  0  0  0  0  0  0  0  0  0  # atno 11005 bound_to 11000
  145.3585  139.1688  143.4396 LP  0  0  0  0  0  0  0  0  0  0  0  0  # atno 17320 bound_to 7965
  146.3118  140.3645  142.8668 LP  0  0  0  0  0  0  0  0  0  0  0  0  # atno 17321 bound_to 7965
  139.8305  144.7255  150.9456 LP  0  0  0  0  0  0  0  0  0  0  0  0  # atno 17342 bound_to 10162
  140.7812  143.4074  151.1049 LP  0  0  0  0  0  0  0  0  0  0  0  0  # atno 17343 bound_to 10162
  156.7763  130.4845  149.5409 LP  0  0  0  0  0  0  0  0  0  0  0  0  # atno 17370 bound_to 10713
  156.1327  130.6189  151.0357 LP  0  0  0  0  0  0  0  0  0  0  0  0  # atno 17371 bound_to 10713
  141.1090  133.6650  156.2932 LP  0  0  0  0  0  0  0  0  0  0  0  0  # atno 17394 bound_to 11000
  140.5871  134.5687  157.5492 LP  0  0  0  0  0  0  0  0  0  0  0  0  # atno 17395 bound_to 11000

$$$$
