AV-unprocessed.smi:104|AV-procd|sdf|995|dock9
  -GOLD-   2262017573D 1   1.00000     0.00000
 Structure written by MMmdl.
 47 49  0  0  0  0  0  0  0  0  1 V2000
  146.9207  135.0205  162.5638 C   0  0  0  0  0  0  0  0  0  0  0  0
  147.3773  136.0318  161.5206 C   0  0  0  0  0  0  0  0  0  0  0  0
  147.6424  137.1945  161.8273 O   0  0  0  0  0  0  0  0  0  0  0  0
  147.4443  135.5013  160.2890 O   0  0  0  0  0  0  0  0  0  0  0  0
  147.9637  136.2669  159.2127 C   0  0  0  0  0  0  0  0  0  0  0  0
  147.0958  137.5163  159.0125 C   0  0  2  0  0  0  0  0  0  0  0  0
  145.7880  137.1014  158.6058 O   0  0  0  0  0  0  0  0  0  0  0  0
  145.4913  137.6177  157.3473 C   0  0  2  0  0  0  0  0  0  0  0  0
  144.7189  136.6105  156.5604 N   0  0  0  0  0  0  0  0  0  0  0  0
  144.2236  135.3944  156.9713 C   0  0  0  0  0  0  0  0  0  0  0  0
  144.4495  134.7560  158.7514 Br  0  0  0  0  0  0  0  0  0  0  0  0
  143.5685  134.6894  156.0919 N   0  0  0  0  0  0  0  0  0  0  0  0
  143.6022  135.5005  154.9641 C   0  0  0  0  0  0  0  0  0  0  0  0
  143.0915  135.3784  153.6470 C   0  0  0  0  0  0  0  0  0  0  0  0
  142.4051  134.3074  153.2248 N   0  0  0  0  0  0  0  0  0  0  0  0
  143.3044  136.3903  152.7735 N   0  0  0  0  0  0  0  0  0  0  0  0
  143.9840  137.4713  153.1695 C   0  0  0  0  0  0  0  0  0  0  0  0
  144.5219  137.7272  154.3646 N   0  0  0  0  0  0  0  0  0  0  0  0
  144.3110  136.7056  155.2448 C   0  0  0  0  0  0  0  0  0  0  0  0
  146.8225  137.9141  156.6793 C   0  0  1  0  0  0  0  0  0  0  0  0
  146.6733  138.8802  155.6473 O   0  0  0  0  0  0  0  0  0  0  0  0
  147.7071  139.1647  154.8407 C   0  0  0  0  0  0  0  0  0  0  0  0
  147.3440  140.1858  153.7709 C   0  0  0  0  0  0  0  0  0  0  0  0
  148.8393  138.6881  154.9188 O   0  0  0  0  0  0  0  0  0  0  0  0
  147.6290  138.4011  157.8721 C   0  0  1  0  0  0  0  0  0  0  0  0
  147.3449  139.7711  158.1454 O   0  0  0  0  0  0  0  0  0  0  0  0
  148.0747  140.7434  157.5725 C   0  0  0  0  0  0  0  0  0  0  0  0
  147.6077  142.1344  157.9792 C   0  0  0  0  0  0  0  0  0  0  0  0
  149.0235  140.5816  156.8051 O   0  0  0  0  0  0  0  0  0  0  0  0
  147.3998  134.0557  162.3957 H   0  0  0  0  0  0  0  0  0  0  0  0
  145.8401  134.8860  162.5115 H   0  0  0  0  0  0  0  0  0  0  0  0
  147.1788  135.3628  163.5662 H   0  0  0  0  0  0  0  0  0  0  0  0
  148.9866  136.5556  159.4565 H   0  0  0  0  0  0  0  0  0  0  0  0
  148.0049  135.6902  158.2880 H   0  0  0  0  0  0  0  0  0  0  0  0
  147.0373  138.0728  159.9489 H   0  0  0  0  0  0  0  0  0  0  0  0
  144.8458  138.4905  157.4495 H   0  0  0  0  0  0  0  0  0  0  0  0
  142.2315  133.5394  153.8573 H   0  0  0  0  0  0  0  0  0  0  0  0
  142.0646  134.2695  152.2750 H   0  0  0  0  0  0  0  0  0  0  0  0
  144.1164  138.2412  152.4235 H   0  0  0  0  0  0  0  0  0  0  0  0
  147.2335  136.9759  156.3019 H   0  0  0  0  0  0  0  0  0  0  0  0
  146.3765  139.9468  153.3284 H   0  0  0  0  0  0  0  0  0  0  0  0
  148.0933  140.1922  152.9788 H   0  0  0  0  0  0  0  0  0  0  0  0
  147.2905  141.1842  154.2052 H   0  0  0  0  0  0  0  0  0  0  0  0
  148.6969  138.2602  157.6976 H   0  0  0  0  0  0  0  0  0  0  0  0
  146.5271  142.2213  157.8630 H   0  0  0  0  0  0  0  0  0  0  0  0
  148.0835  142.8944  157.3591 H   0  0  0  0  0  0  0  0  0  0  0  0
  147.8620  142.3285  159.0213 H   0  0  0  0  0  0  0  0  0  0  0  0
  1  2  1  0  0  0  0
  1 30  1  0  0  0  0
  1 31  1  0  0  0  0
  1 32  1  0  0  0  0
  2  3  2  0  0  0  0
  2  4  1  0  0  0  0
  4  5  1  0  0  0  0
  5  6  1  0  0  0  0
  5 33  1  0  0  0  0
  5 34  1  0  0  0  0
  6 25  1  0  0  0  0
  6  7  1  0  0  0  0
  6 35  1  0  0  0  0
  7  8  1  0  0  0  0
  8  9  1  0  0  0  0
  8 20  1  0  0  0  0
  8 36  1  0  0  0  0
  9 19  1  0  0  0  0
  9 10  1  0  0  0  0
 10 11  1  0  0  0  0
 10 12  2  0  0  0  0
 12 13  1  0  0  0  0
 13 19  2  0  0  0  0
 13 14  1  0  0  0  0
 14 15  1  0  0  0  0
 14 16  2  0  0  0  0
 15 37  1  0  0  0  0
 15 38  1  0  0  0  0
 16 17  1  0  0  0  0
 17 18  2  0  0  0  0
 17 39  1  0  0  0  0
 18 19  1  0  0  0  0
 20 21  1  0  0  0  0
 20 25  1  0  0  0  0
 20 40  1  0  0  0  0
 21 22  1  0  0  0  0
 22 23  1  0  0  0  0
 22 24  2  0  0  0  0
 23 41  1  0  0  0  0
 23 42  1  0  0  0  0
 23 43  1  0  0  0  0
 25 26  1  0  0  0  0
 25 44  1  0  0  0  0
 26 27  1  0  0  0  0
 27 28  1  0  0  0  0
 27 29  2  0  0  0  0
 28 45  1  0  0  0  0
 28 46  1  0  0  0  0
 28 47  1  0  0  0  0
M  END
> <s_m_source_file>
AV-unprocessed.smi

> <i_m_source_file_index>
104

> <i_lp_mmshare_version>
43012

> <i_f3d_flags>
0

> <s_epik_input>
W0NIM11DKD1PKU9bQ0gyXVtDQEBIXTFPW0NASF0oW0NAQEhdKE9DKD1PKVtDSDNdKVtDQEhdMU9DKD1PKVtDSDNdKW4oYyhCciluMiljKGMyMyluW2NIXW5jM1tOSDJd

> <s_epik_cmdline>
J2VwaWtfcHl0aG9uJywgJy1waCcsICc3LjAnLCAnLXRuJywgJzgnLCAnLW1hJywgJzIwMCcsICctbWV0YWxfYmluZGluZycsICctaW1hZScsICc8aW5maWxlLm1hZT4nLCAnLW9tYWUnLCAnPG91dGZpbGUubWFlPic=

> <r_lp_tautomer_probability>
1

> <r_epik_Ionization_Penalty>
7.36622e-05

> <r_epik_Ionization_Penalty_Charging>
0

> <r_epik_Ionization_Penalty_Neutral>
7.36622e-05

> <r_epik_State_Penalty>
-0

> <r_epik_Charging_Adjusted_Penalty>
0

> <i_epik_Tot_Q>
0

> <i_epik_Tot_abs_Q>
0

> <r_epik_Metal_State_Penalty>
-0

> <b_epik_Metal_Only>
0

> <s_epik_Chemistry_Notes>
This compound has an ester and may undergo hydrolysis at high or low pH. This compound contains an acetal/aminal-like group ( X-CH(R)-Y where X, Y are N, S, or O) that may be acid/base labile, releasing an aldehyde.

> <s_lp_Force_Field>
OPLS_2005

> <r_lp_Energy>
18.6996

> <b_lp_Chiralities_Consistent>
1

> <s_lp_Variant>
AV-unprocessed.smi:104-3

> <Gold.Version>
5.8.1

> <Gold.Id.Protein>
6NUR|6NUR_protein|mol2

> <Gold.PLP.Fitness>
38.2527

> <Gold.PLP.PLP>
-24.9188

> <Gold.PLP.part.hbond>
-4.1216

> <Gold.PLP.part.metal>
0.0000

> <Gold.PLP.part.buried>
-5.6110

> <Gold.PLP.part.nonpolar>
-15.2187

> <Gold.PLP.part.repulsive>
0.6275

> <Gold.PLP.ligand.clash>
0.0000

> <Gold.PLP.ligand.torsion>
0.4537

> <Gold.PLP.Chemscore.Hbond>
2.7520

> <Gold.PLP.Chemscore.CHOScore>
1.9519

> <Gold.PLP.Chemscore.Metal>
0.0000

> <Gold.Chemscore.Hbonds>
donor molecule, donor type, donor heavy atom, donor atom, acceptor molecule, acceptor atom, score
      L1  H    15    37       P1 10957  0.99
      P1  H  6931  6943       L1     3  0.99
      P1  H  6934  6947       L1     3  0.60
      L1  C    17    39       P1 10171  0.74
      L1  C    17    39       P1 10175  1.00

> <Gold.PLP.Chemscore.Internal.Correction>
0.1297

> <Gold.Rescore>
     Score         DG    S(hbond)    S(metal)    S(lipo)     H(rot)  DE(clash)    DE(int)     intcor
      1.15      -6.43       2.70        0.00      25.34       4.31       0.03       5.24       ----

> <Gold.Chemscore.Fitness>
1.1545

> <Gold.Chemscore.DG>
-6.4293

> <Gold.Chemscore.ZeroCoef>
-5.4800

> <Gold.Chemscore.Hbond>
2.6978

> <Gold.Chemscore.Metal>
0.0000

> <Gold.Chemscore.Lipo>
25.3363

> <Gold.Chemscore.Internal_Hbond>
0.0000

> <Gold.Chemscore.DEClash>
0.0314

> <Gold.Chemscore.DEInternal>
5.2434

> <Gold.Chemscore.Rot>
4.3070

> <Gold.Chemscore.Internal.Correction>
   9.000000E+99

> <Gold.Chemscore.Hbonds>
donor molecule, donor type, donor heavy atom, donor atom, acceptor molecule, acceptor atom, score
      L1  H    15    37       P1 10957  0.91
      P1  H  6931  6943       L1     3  0.94
      P1  H  6934  6947       L1     3  0.60

> <Gold.Chemscore.Hbond.Weighted>
-9.0108

> <Gold.Chemscore.Metal.Weighted>
-0.0000

> <Gold.Chemscore.Lipo.Weighted>
-2.9644

> <Gold.Chemscore.Internal_Hbond.Weighted>
0.0000

> <Gold.Chemscore.DEClash.Weighted>
0.0314

> <Gold.Chemscore.DEInternal.Weighted>
5.2434

> <Gold.Chemscore.Rot.Weighted>
11.0259

> <Gold.Chemscore.Internal.Correction.Weighted>
   9.000000E+99

> <Gold.Protein.RotatedTorsions>
[ 6907 6896 6895 6894 ] final   -0.46 input  -60.11 | X-H torsion
[ 7974 7965 7964 7962 ] final   51.91 input  175.53 | X-H torsion
[ 8008 7997 7996 7995 ] final  -48.41 input   59.86 | X-H torsion
[ 10167 10162 10161 10158 ] final   48.88 input  -65.29 | X-H torsion
[ 10718 10713 10712 10709 ] final -143.89 input   66.30 | X-H torsion
[ 10763 10752 10751 10750 ] final  -45.42 input  -60.55 | X-H torsion
[ 11005 11000 10999 10996 ] final -111.39 input  -57.11 | X-H torsion

> <Gold.Protein.ActiveResidues>
 VAL166  LYS551  ARG553  GLY616  TRP617  ASP618  TYR619  PRO620  LYS621  CYS622 
 ASP623  PHE694  ASN695  SER759  ASP760  ASP761  ALA762  ILE779  LEU786  VAL792 
 PHE793  MET794  SER795  GLU796  ALA797  LYS798  CYS799  TRP800  GLU811  SER814 

> <Gold.Protein.RotatedAtoms>
  151.5620  135.1065  159.9974 H   0  0  0  0  0  0  0  0  0  0  0  0  # atno 6907 bound_to 6896
  152.4442  133.7501  159.6700 H   0  0  0  0  0  0  0  0  0  0  0  0  # atno 6908 bound_to 6896
  150.8354  133.7954  159.3105 H   0  0  0  0  0  0  0  0  0  0  0  0  # atno 6909 bound_to 6896
  145.9866  139.4296  143.0099 H   0  0  0  0  0  0  0  0  0  0  0  0  # atno 7974 bound_to 7965
  154.4028  140.1322  156.4334 H   0  0  0  0  0  0  0  0  0  0  0  0  # atno 8008 bound_to 7997
  155.7529  140.3487  155.5139 H   0  0  0  0  0  0  0  0  0  0  0  0  # atno 8009 bound_to 7997
  155.8932  140.1007  157.1394 H   0  0  0  0  0  0  0  0  0  0  0  0  # atno 8010 bound_to 7997
  140.2887  144.3071  150.6246 H   0  0  0  0  0  0  0  0  0  0  0  0  # atno 10167 bound_to 10162
  156.3634  130.7750  151.1921 H   0  0  0  0  0  0  0  0  0  0  0  0  # atno 10718 bound_to 10713
  154.0282  135.6660  153.4778 H   0  0  0  0  0  0  0  0  0  0  0  0  # atno 10763 bound_to 10752
  153.0551  135.5061  154.7958 H   0  0  0  0  0  0  0  0  0  0  0  0  # atno 10764 bound_to 10752
  154.6895  135.3059  154.9465 H   0  0  0  0  0  0  0  0  0  0  0  0  # atno 10765 bound_to 10752
  141.0737  133.9337  157.2433 H   0  0  0  0  0  0  0  0  0  0  0  0  # atno 11005 bound_to 11000
  145.7691  140.9904  143.1159 LP  0  0  0  0  0  0  0  0  0  0  0  0  # atno 17320 bound_to 7965
  144.6876  139.9425  143.7475 LP  0  0  0  0  0  0  0  0  0  0  0  0  # atno 17321 bound_to 7965
  140.5750  143.2177  151.7531 LP  0  0  0  0  0  0  0  0  0  0  0  0  # atno 17342 bound_to 10162
  139.4943  144.4162  152.0027 LP  0  0  0  0  0  0  0  0  0  0  0  0  # atno 17343 bound_to 10162
  157.7476  131.0393  150.4545 LP  0  0  0  0  0  0  0  0  0  0  0  0  # atno 17370 bound_to 10713
  156.4760  130.4063  149.6490 LP  0  0  0  0  0  0  0  0  0  0  0  0  # atno 17371 bound_to 10713
  139.9549  135.0167  156.9101 LP  0  0  0  0  0  0  0  0  0  0  0  0  # atno 17394 bound_to 11000
  140.5619  134.0526  155.7401 LP  0  0  0  0  0  0  0  0  0  0  0  0  # atno 17395 bound_to 11000

$$$$
