AV-unprocessed.smi:1060|AV-procd|sdf|4659|dock8
  -GOLD-   22720 3173D 1   1.00000     0.00000
 Structure written by MMmdl.
 36 37  0  0  0  0  0  0  0  0  2 V2000
  151.1478  139.6487  154.5930 O   0  0  0  0  0  0  0  0  0  0  0  0
  150.3784  139.1042  155.3838 C   0  0  0  0  0  0  0  0  0  0  0  0
  149.2194  138.2717  154.8406 C   0  0  0  0  0  0  0  0  0  0  0  0
  149.2801  136.9738  155.4098 O   0  0  0  0  0  0  0  0  0  0  0  0
  148.1803  136.1629  155.0315 C   0  0  0  0  0  0  0  0  0  0  0  0
  148.5521  134.6876  155.2260 C   0  0  1  0  0  0  0  0  0  0  0  0
  148.5578  133.8810  153.9313 C   0  0  0  0  0  0  0  0  0  0  0  0
  149.4277  132.6918  154.2905 C   0  0  0  0  0  0  0  0  0  0  0  0
  150.3420  133.2335  155.3940 C   0  0  0  0  0  0  0  0  0  0  0  0
  149.8990  134.5612  155.6567 O   0  0  0  0  0  0  0  0  0  0  0  0
  150.4395  139.1982  156.7268 N   0  0  0  0  0  0  0  0  0  0  0  0
  151.3595  139.8893  157.5342 C   0  0  0  0  0  0  0  0  0  0  0  0
  151.2163  141.1790  157.9480 C   0  0  0  0  0  0  0  0  0  0  0  0
  152.2077  141.8456  158.7830 C   0  0  0  0  0  0  0  0  0  0  0  0
  152.1142  143.3030  159.1992 C   0  0  0  0  0  0  0  0  0  0  0  0
  150.9529  143.8378  158.8215 F   0  0  0  0  0  0  0  0  0  0  0  0
  152.2247  143.4296  160.5217 F   0  0  0  0  0  0  0  0  0  0  0  0
  153.0972  144.0007  158.6320 F   0  0  0  0  0  0  0  0  0  0  0  0
  153.2898  141.0332  159.0617 C   0  0  0  0  0  0  0  0  0  0  0  0
  153.5067  139.7505  158.6974 N   0  5  0  0  0  0  0  0  0  0  0  0
  152.5692  139.1346  157.9230 C   0  0  0  0  0  0  0  0  0  0  0  0
  152.7095  137.9707  157.5458 O   0  0  0  0  0  0  0  0  0  0  0  0
  148.2766  138.7599  155.0932 H   0  0  0  0  0  0  0  0  0  0  0  0
  149.2826  138.2123  153.7525 H   0  0  0  0  0  0  0  0  0  0  0  0
  147.3256  136.4118  155.6625 H   0  0  0  0  0  0  0  0  0  0  0  0
  147.8908  136.3514  153.9963 H   0  0  0  0  0  0  0  0  0  0  0  0
  147.8883  134.2137  155.9515 H   0  0  0  0  0  0  0  0  0  0  0  0
  147.5581  133.5942  153.6033 H   0  0  0  0  0  0  0  0  0  0  0  0
  149.0277  134.4544  153.1307 H   0  0  0  0  0  0  0  0  0  0  0  0
  148.8145  131.8783  154.6804 H   0  0  0  0  0  0  0  0  0  0  0  0
  149.9841  132.3140  153.4321 H   0  0  0  0  0  0  0  0  0  0  0  0
  150.2589  132.6289  156.2978 H   0  0  0  0  0  0  0  0  0  0  0  0
  151.3885  133.2456  155.0889 H   0  0  0  0  0  0  0  0  0  0  0  0
  149.6950  138.7472  157.2386 H   0  0  0  0  0  0  0  0  0  0  0  0
  150.3583  141.7616  157.6561 H   0  0  0  0  0  0  0  0  0  0  0  0
  154.1069  141.4835  159.6648 H   0  0  0  0  0  0  0  0  0  0  0  0
  1  2  2  0  0  0  0
  2  3  1  0  0  0  0
  2 11  1  0  0  0  0
  3  4  1  0  0  0  0
  3 23  1  0  0  0  0
  3 24  1  0  0  0  0
  4  5  1  0  0  0  0
  5  6  1  0  0  0  0
  5 25  1  0  0  0  0
  5 26  1  0  0  0  0
  6 10  1  0  0  0  0
  6  7  1  0  0  0  0
  6 27  1  0  0  0  0
  7  8  1  0  0  0  0
  7 28  1  0  0  0  0
  7 29  1  0  0  0  0
  8  9  1  0  0  0  0
  8 30  1  0  0  0  0
  8 31  1  0  0  0  0
  9 10  1  0  0  0  0
  9 32  1  0  0  0  0
  9 33  1  0  0  0  0
 11 12  1  0  0  0  0
 11 34  1  0  0  0  0
 12 21  1  0  0  0  0
 12 13  2  0  0  0  0
 13 14  1  0  0  0  0
 13 35  1  0  0  0  0
 14 15  1  0  0  0  0
 14 19  2  0  0  0  0
 15 16  1  0  0  0  0
 15 17  1  0  0  0  0
 15 18  1  0  0  0  0
 19 20  1  0  0  0  0
 19 36  1  0  0  0  0
 20 21  1  0  0  0  0
 21 22  2  0  0  0  0
M  CHG  1  20  -1
M  END
> <s_m_source_file>
AV-unprocessed.smi

> <i_m_source_file_index>
1060

> <i_lp_mmshare_version>
43012

> <i_f3d_flags>
0

> <s_epik_input>
Tz1jMVtuSF1bY0hdYyhDKEYpKEYpRilbY0hdYzFbTkhdQyg9TylbQ0gyXU9bQ0gyXVtDQEBIXTJbQ0gyXVtDSDJdW0NIMl1PMg==

> <s_epik_cmdline>
J2VwaWtfcHl0aG9uJywgJy1waCcsICc3LjAnLCAnLXRuJywgJzgnLCAnLW1hJywgJzIwMCcsICctbWV0YWxfYmluZGluZycsICctaW1hZScsICc8aW5maWxlLm1hZT4nLCAnLW9tYWUnLCAnPG91dGZpbGUubWFlPic=

> <r_epik_Ionization_Penalty>
2.50578

> <r_epik_Ionization_Penalty_Charging>
0.0523173

> <r_epik_Ionization_Penalty_Neutral>
2.45346

> <r_epik_State_Penalty>
2.61512

> <r_epik_Charging_Adjusted_Penalty>
2.66744

> <i_epik_Tot_Q>
-1

> <i_epik_Tot_abs_Q>
1

> <r_epik_Metal_State_Penalty>
0.513209

> <b_epik_Metal_Only>
0

> <s_lp_Force_Field>
OPLS_2005

> <r_lp_Energy>
36.6163

> <b_lp_Chiralities_Consistent>
1

> <s_lp_Variant>
AV-unprocessed.smi:1060-4

> <Gold.Version>
5.8.1

> <Gold.Id.Protein>
6NUR|6NUR_protein|mol2

> <Gold.PLP.Fitness>
40.2368

> <Gold.PLP.PLP>
-34.8251

> <Gold.PLP.part.hbond>
-2.0000

> <Gold.PLP.part.metal>
0.0000

> <Gold.PLP.part.buried>
-4.0391

> <Gold.PLP.part.nonpolar>
-28.8812

> <Gold.PLP.part.repulsive>
0.2543

> <Gold.PLP.ligand.clash>
0.0000

> <Gold.PLP.ligand.torsion>
1.6933

> <Gold.PLP.Chemscore.Hbond>
2.8880

> <Gold.PLP.Chemscore.CHOScore>
0.0000

> <Gold.PLP.Chemscore.Metal>
0.0000

> <Gold.Chemscore.Hbonds>
donor molecule, donor type, donor heavy atom, donor atom, acceptor molecule, acceptor atom, score
      P1  H  7989  7998       L1     1  1.00
      P1  H  7997  8009       L1    20  1.72

> <Gold.PLP.Chemscore.Internal.Correction>
0.1344

> <Gold.Rescore>
     Score         DG    S(hbond)    S(metal)    S(lipo)     H(rot)  DE(clash)    DE(int)     intcor
     10.86     -12.57       1.32        0.00      64.91       1.92       0.07       1.63       ----

> <Gold.Chemscore.Fitness>
10.8641

> <Gold.Chemscore.DG>
-12.5685

> <Gold.Chemscore.ZeroCoef>
-5.4800

> <Gold.Chemscore.Hbond>
1.3193

> <Gold.Chemscore.Metal>
0.0000

> <Gold.Chemscore.Lipo>
64.9102

> <Gold.Chemscore.Internal_Hbond>
0.0000

> <Gold.Chemscore.DEClash>
0.0739

> <Gold.Chemscore.DEInternal>
1.6304

> <Gold.Chemscore.Rot>
1.9190

> <Gold.Chemscore.Internal.Correction>
   9.000000E+99

> <Gold.Chemscore.Hbonds>
donor molecule, donor type, donor heavy atom, donor atom, acceptor molecule, acceptor atom, score
      P1  H  7989  7998       L1     1  1.00
      P1  H  7997  8009       L1    20  0.05

> <Gold.Chemscore.Hbond.Weighted>
-4.4066

> <Gold.Chemscore.Metal.Weighted>
-0.0000

> <Gold.Chemscore.Lipo.Weighted>
-7.5945

> <Gold.Chemscore.Internal_Hbond.Weighted>
0.0000

> <Gold.Chemscore.DEClash.Weighted>
0.0739

> <Gold.Chemscore.DEInternal.Weighted>
1.6304

> <Gold.Chemscore.Rot.Weighted>
4.9126

> <Gold.Chemscore.Internal.Correction.Weighted>
   9.000000E+99

> <Gold.Protein.RotatedTorsions>
[ 6907 6896 6895 6894 ] final  106.59 input  -60.11 | X-H torsion
[ 7974 7965 7964 7962 ] final   11.57 input  175.53 | X-H torsion
[ 8008 7997 7996 7995 ] final  125.53 input   59.86 | X-H torsion
[ 10167 10162 10161 10158 ] final  148.94 input  -65.29 | X-H torsion
[ 10718 10713 10712 10709 ] final  -56.01 input   66.30 | X-H torsion
[ 10763 10752 10751 10750 ] final   79.98 input  -60.55 | X-H torsion
[ 11005 11000 10999 10996 ] final   20.86 input  -57.11 | X-H torsion

> <Gold.Protein.ActiveResidues>
 VAL166  LYS551  ARG553  GLY616  TRP617  ASP618  TYR619  PRO620  LYS621  CYS622 
 ASP623  PHE694  ASN695  SER759  ASP760  ASP761  ALA762  ILE779  LEU786  VAL792 
 PHE793  MET794  SER795  GLU796  ALA797  LYS798  CYS799  TRP800  GLU811  SER814 

> <Gold.Protein.RotatedAtoms>
  152.5188  133.9358  159.7602 H   0  0  0  0  0  0  0  0  0  0  0  0  # atno 6907 bound_to 6896
  150.9699  133.6347  159.2746 H   0  0  0  0  0  0  0  0  0  0  0  0  # atno 6908 bound_to 6896
  151.3562  135.0900  159.9472 H   0  0  0  0  0  0  0  0  0  0  0  0  # atno 6909 bound_to 6896
  146.2368  139.9466  142.8476 H   0  0  0  0  0  0  0  0  0  0  0  0  # atno 7974 bound_to 7965
  156.2837  140.2714  156.1964 H   0  0  0  0  0  0  0  0  0  0  0  0  # atno 8008 bound_to 7997
  155.0406  140.0386  157.2526 H   0  0  0  0  0  0  0  0  0  0  0  0  # atno 8009 bound_to 7997
  154.7278  140.2700  155.6489 H   0  0  0  0  0  0  0  0  0  0  0  0  # atno 8010 bound_to 7997
  139.4868  144.5640  151.7178 H   0  0  0  0  0  0  0  0  0  0  0  0  # atno 10167 bound_to 10162
  156.1323  130.4159  150.0247 H   0  0  0  0  0  0  0  0  0  0  0  0  # atno 10718 bound_to 10713
  153.0996  135.4819  154.8843 H   0  0  0  0  0  0  0  0  0  0  0  0  # atno 10763 bound_to 10752
  154.7364  135.3072  154.8807 H   0  0  0  0  0  0  0  0  0  0  0  0  # atno 10764 bound_to 10752
  153.9427  135.6832  153.4797 H   0  0  0  0  0  0  0  0  0  0  0  0  # atno 10765 bound_to 10752
  140.3980  134.1749  155.7663 H   0  0  0  0  0  0  0  0  0  0  0  0  # atno 11005 bound_to 11000
  145.1901  140.9808  143.4216 LP  0  0  0  0  0  0  0  0  0  0  0  0  # atno 17320 bound_to 7965
  144.9864  139.3732  143.6236 LP  0  0  0  0  0  0  0  0  0  0  0  0  # atno 17321 bound_to 7965
  140.5215  144.0871  150.6024 LP  0  0  0  0  0  0  0  0  0  0  0  0  # atno 17342 bound_to 10162
  140.3830  143.2792  152.0148 LP  0  0  0  0  0  0  0  0  0  0  0  0  # atno 17343 bound_to 10162
  156.8156  130.9340  151.3643 LP  0  0  0  0  0  0  0  0  0  0  0  0  # atno 17370 bound_to 10713
  157.6499  130.8876  149.9613 LP  0  0  0  0  0  0  0  0  0  0  0  0  # atno 17371 bound_to 10713
  141.1867  133.8296  157.1058 LP  0  0  0  0  0  0  0  0  0  0  0  0  # atno 17394 bound_to 11000
  140.0358  134.9879  157.0867 LP  0  0  0  0  0  0  0  0  0  0  0  0  # atno 17395 bound_to 11000

$$$$
