AV-unprocessed.smi:573|AV-procd|sdf|2970|dock5
  -GOLD-   2262023473D 1   1.00000     0.00000
 Structure written by MMmdl.
 45 47  0  0  0  0  0  0  0  0  2 V2000
  146.5141  142.2083  153.8492 C   0  0  0  0  0  0  0  0  0  0  0  0
  147.7864  141.5842  154.4452 C   0  0  1  0  0  0  0  0  0  0  0  0
  148.9179  142.3535  154.0948 O   0  0  0  0  0  0  0  0  0  0  0  0
  147.7510  141.3453  155.9718 C   0  0  0  0  0  0  0  0  0  0  0  0
  148.9698  140.7543  156.5102 N   0  0  0  0  0  0  0  0  0  0  0  0
  149.8859  141.5524  157.2050 C   0  0  0  0  0  0  0  0  0  0  0  0
  149.9429  142.9106  157.1899 N   0  3  0  0  0  0  0  0  0  0  0  0
  150.9843  143.3167  158.0285 C   0  0  0  0  0  0  0  0  0  0  0  0
  151.4388  144.5898  158.3584 C   0  0  0  0  0  0  0  0  0  0  0  0
  152.5224  144.6626  159.2581 C   0  0  0  0  0  0  0  0  0  0  0  0
  153.1116  143.4995  159.7947 C   0  0  0  0  0  0  0  0  0  0  0  0
  152.6464  142.2129  159.4529 C   0  0  0  0  0  0  0  0  0  0  0  0
  151.5769  142.1457  158.5601 C   0  0  0  0  0  0  0  0  0  0  0  0
  150.8676  141.0700  158.0092 N   0  0  0  0  0  0  0  0  0  0  0  0
  151.2248  139.6883  158.3626 C   0  0  0  0  0  0  0  0  0  0  0  0
  151.5842  138.8545  157.1226 C   0  0  1  0  0  0  0  0  0  0  0  0
  150.3760  138.0734  156.5740 C   0  0  0  0  0  0  0  0  0  0  0  0
  150.7692  137.2986  155.3110 C   0  0  0  0  0  0  0  0  0  0  0  0
  151.4203  138.2495  154.3006 C   0  0  0  0  0  0  0  0  0  0  0  0
  152.5688  139.0285  154.9612 C   0  0  0  0  0  0  0  0  0  0  0  0
  152.0856  139.7219  156.1071 O   0  0  0  0  0  0  0  0  0  0  0  0
  145.6292  141.6342  154.1241 H   0  0  0  0  0  0  0  0  0  0  0  0
  146.5657  142.2328  152.7602 H   0  0  0  0  0  0  0  0  0  0  0  0
  146.3704  143.2335  154.1901 H   0  0  0  0  0  0  0  0  0  0  0  0
  147.9350  140.6146  153.9691 H   0  0  0  0  0  0  0  0  0  0  0  0
  148.8037  143.2272  154.4361 H   0  0  0  0  0  0  0  0  0  0  0  0
  147.6405  142.3099  156.4676 H   0  0  0  0  0  0  0  0  0  0  0  0
  146.8758  140.7616  156.2596 H   0  0  0  0  0  0  0  0  0  0  0  0
  148.9963  139.7535  156.6440 H   0  0  0  0  0  0  0  0  0  0  0  0
  150.9866  145.4832  157.9534 H   0  0  0  0  0  0  0  0  0  0  0  0
  152.9076  145.6304  159.5453 H   0  0  0  0  0  0  0  0  0  0  0  0
  153.9372  143.5953  160.4849 H   0  0  0  0  0  0  0  0  0  0  0  0
  153.1019  141.3307  159.8775 H   0  0  0  0  0  0  0  0  0  0  0  0
  152.0728  139.7314  159.0469 H   0  0  0  0  0  0  0  0  0  0  0  0
  150.4049  139.2351  158.9192 H   0  0  0  0  0  0  0  0  0  0  0  0
  152.3688  138.1493  157.4004 H   0  0  0  0  0  0  0  0  0  0  0  0
  149.9950  137.3857  157.3295 H   0  0  0  0  0  0  0  0  0  0  0  0
  149.5648  138.7643  156.3407 H   0  0  0  0  0  0  0  0  0  0  0  0
  151.4703  136.5042  155.5709 H   0  0  0  0  0  0  0  0  0  0  0  0
  149.8955  136.8160  154.8723 H   0  0  0  0  0  0  0  0  0  0  0  0
  151.7884  137.6914  153.4391 H   0  0  0  0  0  0  0  0  0  0  0  0
  150.6748  138.9510  153.9246 H   0  0  0  0  0  0  0  0  0  0  0  0
  153.3833  138.3600  155.2444 H   0  0  0  0  0  0  0  0  0  0  0  0
  152.9827  139.7536  154.2604 H   0  0  0  0  0  0  0  0  0  0  0  0
  149.3153  143.5055  156.6652 H   0  0  0  0  0  0  0  0  0  0  0  0
  1  2  1  0  0  0  0
  1 22  1  0  0  0  0
  1 23  1  0  0  0  0
  1 24  1  0  0  0  0
  2  3  1  0  0  0  0
  2  4  1  0  0  0  0
  2 25  1  0  0  0  0
  3 26  1  0  0  0  0
  4  5  1  0  0  0  0
  4 27  1  0  0  0  0
  4 28  1  0  0  0  0
  5  6  1  0  0  0  0
  5 29  1  0  0  0  0
  6 14  1  0  0  0  0
  6  7  2  0  0  0  0
  7  8  1  0  0  0  0
  7 45  1  0  0  0  0
  8 13  2  0  0  0  0
  8  9  1  0  0  0  0
  9 10  2  0  0  0  0
  9 30  1  0  0  0  0
 10 11  1  0  0  0  0
 10 31  1  0  0  0  0
 11 12  2  0  0  0  0
 11 32  1  0  0  0  0
 12 13  1  0  0  0  0
 12 33  1  0  0  0  0
 13 14  1  0  0  0  0
 14 15  1  0  0  0  0
 15 16  1  0  0  0  0
 15 34  1  0  0  0  0
 15 35  1  0  0  0  0
 16 21  1  0  0  0  0
 16 17  1  0  0  0  0
 16 36  1  0  0  0  0
 17 18  1  0  0  0  0
 17 37  1  0  0  0  0
 17 38  1  0  0  0  0
 18 19  1  0  0  0  0
 18 39  1  0  0  0  0
 18 40  1  0  0  0  0
 19 20  1  0  0  0  0
 19 41  1  0  0  0  0
 19 42  1  0  0  0  0
 20 21  1  0  0  0  0
 20 43  1  0  0  0  0
 20 44  1  0  0  0  0
M  CHG  1   7   1
M  END
> <s_m_source_file>
AV-unprocessed.smi

> <i_m_source_file_index>
573

> <i_lp_mmshare_version>
43012

> <i_f3d_flags>
0

> <s_epik_input>
W0NIM11bQ0BIXShbT0hdKVtDSDJdW05IXWMobjEpbihjKGMxMilbY0hdW2NIXVtjSF1bY0hdMilbQ0gyXVtDQEBIXTNbQ0gyXVtDSDJdW0NIMl1bQ0gyXU8z

> <s_epik_cmdline>
J2VwaWtfcHl0aG9uJywgJy1waCcsICc3LjAnLCAnLXRuJywgJzgnLCAnLW1hJywgJzIwMCcsICctbWV0YWxfYmluZGluZycsICctaW1hZScsICc8aW5maWxlLm1hZT4nLCAnLW9tYWUnLCAnPG91dGZpbGUubWFlPic=

> <r_epik_Ionization_Penalty>
0.0692245

> <r_epik_Ionization_Penalty_Charging>
0.0692223

> <r_epik_Ionization_Penalty_Neutral>
2.1869e-06

> <r_epik_State_Penalty>
0.0606215

> <r_epik_Charging_Adjusted_Penalty>
0.129844

> <i_epik_Tot_Q>
1

> <i_epik_Tot_abs_Q>
1

> <r_epik_Metal_State_Penalty>
2.77811

> <b_epik_Metal_Only>
0

> <s_lp_Force_Field>
OPLS_2005

> <r_lp_Energy>
24.0167

> <b_lp_Chiralities_Consistent>
1

> <s_lp_Variant>
AV-unprocessed.smi:573-4

> <Gold.Version>
5.8.1

> <Gold.Id.Protein>
6NUR|6NUR_protein|mol2

> <Gold.PLP.Fitness>
53.9620

> <Gold.PLP.PLP>
-45.3290

> <Gold.PLP.part.hbond>
-3.1001

> <Gold.PLP.part.metal>
0.0000

> <Gold.PLP.part.buried>
-7.0834

> <Gold.PLP.part.nonpolar>
-35.2227

> <Gold.PLP.part.repulsive>
0.0216

> <Gold.PLP.ligand.clash>
0.0000

> <Gold.PLP.ligand.torsion>
0.5605

> <Gold.PLP.Chemscore.Hbond>
3.2400

> <Gold.PLP.Chemscore.CHOScore>
0.0000

> <Gold.PLP.Chemscore.Metal>
0.0000

> <Gold.Chemscore.Hbonds>
donor molecule, donor type, donor heavy atom, donor atom, acceptor molecule, acceptor atom, score
      L1  H     3    26       P1  8028  1.00
      L1  H     7    45       P1  8028  2.00
      P1  H  8011  8017       L1     3  0.21

> <Gold.PLP.Chemscore.Internal.Correction>
0.0339

> <Gold.Rescore>
     Score         DG    S(hbond)    S(metal)    S(lipo)     H(rot)  DE(clash)    DE(int)     intcor
     20.82     -21.58       2.20        0.00     120.03       2.07       0.07       0.69       ----

> <Gold.Chemscore.Fitness>
20.8231

> <Gold.Chemscore.DG>
-21.5828

> <Gold.Chemscore.ZeroCoef>
-5.4800

> <Gold.Chemscore.Hbond>
2.2031

> <Gold.Chemscore.Metal>
0.0000

> <Gold.Chemscore.Lipo>
120.0290

> <Gold.Chemscore.Internal_Hbond>
0.0000

> <Gold.Chemscore.DEClash>
0.0663

> <Gold.Chemscore.DEInternal>
0.6934

> <Gold.Chemscore.Rot>
2.0699

> <Gold.Chemscore.Internal.Correction>
   9.000000E+99

> <Gold.Chemscore.Hbonds>
donor molecule, donor type, donor heavy atom, donor atom, acceptor molecule, acceptor atom, score
      L1  H     3    26       P1  8028  1.00
      L1  H     7    45       P1  8028  0.97
      P1  H  8011  8017       L1     3  0.15

> <Gold.Chemscore.Hbond.Weighted>
-7.3585

> <Gold.Chemscore.Metal.Weighted>
-0.0000

> <Gold.Chemscore.Lipo.Weighted>
-14.0434

> <Gold.Chemscore.Internal_Hbond.Weighted>
0.0000

> <Gold.Chemscore.DEClash.Weighted>
0.0663

> <Gold.Chemscore.DEInternal.Weighted>
0.6934

> <Gold.Chemscore.Rot.Weighted>
5.2991

> <Gold.Chemscore.Internal.Correction.Weighted>
   9.000000E+99

> <Gold.Protein.RotatedTorsions>
[ 6907 6896 6895 6894 ] final  104.28 input  -60.11 | X-H torsion
[ 7974 7965 7964 7962 ] final  129.92 input  175.53 | X-H torsion
[ 8008 7997 7996 7995 ] final   83.35 input   59.86 | X-H torsion
[ 10167 10162 10161 10158 ] final -163.54 input  -65.29 | X-H torsion
[ 10718 10713 10712 10709 ] final -139.21 input   66.30 | X-H torsion
[ 10763 10752 10751 10750 ] final -166.30 input  -60.55 | X-H torsion
[ 11005 11000 10999 10996 ] final -140.81 input  -57.11 | X-H torsion

> <Gold.Protein.ActiveResidues>
 VAL166  LYS551  ARG553  GLY616  TRP617  ASP618  TYR619  PRO620  LYS621  CYS622 
 ASP623  PHE694  ASN695  SER759  ASP760  ASP761  ALA762  ILE779  LEU786  VAL792 
 PHE793  MET794  SER795  GLU796  ALA797  LYS798  CYS799  TRP800  GLU811  SER814 

> <Gold.Protein.RotatedAtoms>
  152.5269  133.9701  159.7757 H   0  0  0  0  0  0  0  0  0  0  0  0  # atno 6907 bound_to 6896
  150.9974  133.6081  159.2707 H   0  0  0  0  0  0  0  0  0  0  0  0  # atno 6908 bound_to 6896
  151.3202  135.0823  159.9356 H   0  0  0  0  0  0  0  0  0  0  0  0  # atno 6909 bound_to 6896
  145.0235  139.4110  143.5185 H   0  0  0  0  0  0  0  0  0  0  0  0  # atno 7974 bound_to 7965
  155.9227  140.3420  155.6186 H   0  0  0  0  0  0  0  0  0  0  0  0  # atno 8008 bound_to 7997
  155.7254  140.0788  157.2331 H   0  0  0  0  0  0  0  0  0  0  0  0  # atno 8009 bound_to 7997
  154.4072  140.1598  156.2436 H   0  0  0  0  0  0  0  0  0  0  0  0  # atno 8010 bound_to 7997
  139.6313  144.0434  152.2018 H   0  0  0  0  0  0  0  0  0  0  0  0  # atno 10167 bound_to 10162
  156.3081  130.7466  151.1535 H   0  0  0  0  0  0  0  0  0  0  0  0  # atno 10718 bound_to 10713
  154.6847  135.2960  154.9564 H   0  0  0  0  0  0  0  0  0  0  0  0  # atno 10763 bound_to 10752
  154.0548  135.6639  153.4808 H   0  0  0  0  0  0  0  0  0  0  0  0  # atno 10764 bound_to 10752
  153.0571  135.5138  154.7908 H   0  0  0  0  0  0  0  0  0  0  0  0  # atno 10765 bound_to 10752
  140.8386  134.2429  157.4821 H   0  0  0  0  0  0  0  0  0  0  0  0  # atno 11005 bound_to 11000
  146.3489  139.9745  142.8702 LP  0  0  0  0  0  0  0  0  0  0  0  0  # atno 17320 bound_to 7965
  145.1864  140.9791  143.4236 LP  0  0  0  0  0  0  0  0  0  0  0  0  # atno 17321 bound_to 7965
  140.0100  144.6231  150.7655 LP  0  0  0  0  0  0  0  0  0  0  0  0  # atno 17342 bound_to 10162
  140.7440  143.2855  151.3476 LP  0  0  0  0  0  0  0  0  0  0  0  0  # atno 17343 bound_to 10162
  157.7384  131.0541  150.5294 LP  0  0  0  0  0  0  0  0  0  0  0  0  # atno 17370 bound_to 10713
  156.5430  130.4213  149.6144 LP  0  0  0  0  0  0  0  0  0  0  0  0  # atno 17371 bound_to 10713
  139.8703  134.9624  156.4427 LP  0  0  0  0  0  0  0  0  0  0  0  0  # atno 17394 bound_to 11000
  140.8919  133.7842  155.9582 LP  0  0  0  0  0  0  0  0  0  0  0  0  # atno 17395 bound_to 11000

$$$$
