AV-unprocessed.smi:914|AV-procd|sdf|4151|dock2
  -GOLD-   22720 2 53D 1   1.00000     0.00000
 Structure written by MMmdl.
 33 34  0  0  0  0  0  0  0  0  1 V2000
  146.8967  139.4400  152.5611 O   0  0  0  0  0  0  0  0  0  0  0  0
  147.8312  139.7237  153.3077 C   0  0  0  0  0  0  0  0  0  0  0  0
  148.8666  138.8053  153.5070 N   0  0  0  0  0  0  0  0  0  0  0  0
  149.9797  139.0010  154.3253 C   0  0  0  0  0  0  0  0  0  0  0  0
  150.8221  138.1104  154.4392 O   0  0  0  0  0  0  0  0  0  0  0  0
  150.0664  140.2428  154.9952 N   0  0  0  0  0  0  0  0  0  0  0  0
  151.1813  140.4575  155.8855 C   0  0  0  0  0  0  0  0  0  0  0  0
  150.7618  140.4484  157.3638 C   0  0  0  0  0  0  0  0  0  0  0  0
  151.6476  141.2871  158.0852 O   0  0  0  0  0  0  0  0  0  0  0  0
  151.5940  142.6426  157.6775 C   0  0  0  0  0  0  0  0  0  0  0  0
  151.9864  143.5184  158.8729 C   0  0  1  0  0  0  0  0  0  0  0  0
  152.0668  145.0098  158.5502 C   0  0  0  0  0  0  0  0  0  0  0  0
  151.8708  145.6232  159.9172 C   0  0  0  0  0  0  0  0  0  0  0  0
  150.8298  144.6913  160.5326 C   0  0  0  0  0  0  0  0  0  0  0  0
  151.0145  143.4212  159.9101 O   0  0  0  0  0  0  0  0  0  0  0  0
  149.0577  141.1801  154.8343 C   0  0  0  0  0  0  0  0  0  0  0  0
  147.9758  140.9788  154.0442 C   0  0  0  0  0  0  0  0  0  0  0  0
  146.7544  142.1922  153.9045 Cl  0  0  0  0  0  0  0  0  0  0  0  0
  148.8001  137.9225  153.0214 H   0  0  0  0  0  0  0  0  0  0  0  0
  151.9390  139.7043  155.6612 H   0  0  0  0  0  0  0  0  0  0  0  0
  151.6166  141.4189  155.6083 H   0  0  0  0  0  0  0  0  0  0  0  0
  149.7317  140.7918  157.4719 H   0  0  0  0  0  0  0  0  0  0  0  0
  150.8114  139.4342  157.7621 H   0  0  0  0  0  0  0  0  0  0  0  0
  152.2725  142.8187  156.8414 H   0  0  0  0  0  0  0  0  0  0  0  0
  150.5856  142.8898  157.3431 H   0  0  0  0  0  0  0  0  0  0  0  0
  152.9413  143.1849  159.2823 H   0  0  0  0  0  0  0  0  0  0  0  0
  153.0101  145.2938  158.0822 H   0  0  0  0  0  0  0  0  0  0  0  0
  151.2528  145.3063  157.8869 H   0  0  0  0  0  0  0  0  0  0  0  0
  152.8014  145.5752  160.4846 H   0  0  0  0  0  0  0  0  0  0  0  0
  151.5450  146.6630  159.8801 H   0  0  0  0  0  0  0  0  0  0  0  0
  150.9281  144.6211  161.6160 H   0  0  0  0  0  0  0  0  0  0  0  0
  149.8224  145.0429  160.3071 H   0  0  0  0  0  0  0  0  0  0  0  0
  149.1303  142.1157  155.3711 H   0  0  0  0  0  0  0  0  0  0  0  0
  1  2  2  0  0  0  0
  2 17  1  0  0  0  0
  2  3  1  0  0  0  0
  3 19  1  0  0  0  0
  3  4  1  0  0  0  0
  4  5  2  0  0  0  0
  4  6  1  0  0  0  0
  6  7  1  0  0  0  0
  6 16  1  0  0  0  0
  7  8  1  0  0  0  0
  7 20  1  0  0  0  0
  7 21  1  0  0  0  0
  8  9  1  0  0  0  0
  8 22  1  0  0  0  0
  8 23  1  0  0  0  0
  9 10  1  0  0  0  0
 10 11  1  0  0  0  0
 10 24  1  0  0  0  0
 10 25  1  0  0  0  0
 11 15  1  0  0  0  0
 11 12  1  0  0  0  0
 11 26  1  0  0  0  0
 12 13  1  0  0  0  0
 12 27  1  0  0  0  0
 12 28  1  0  0  0  0
 13 14  1  0  0  0  0
 13 29  1  0  0  0  0
 13 30  1  0  0  0  0
 14 15  1  0  0  0  0
 14 31  1  0  0  0  0
 14 32  1  0  0  0  0
 16 17  2  0  0  0  0
 16 33  1  0  0  0  0
 17 18  1  0  0  0  0
M  END
> <s_m_source_file>
AV-unprocessed.smi

> <i_m_source_file_index>
914

> <i_lp_mmshare_version>
43012

> <i_f3d_flags>
0

> <s_epik_input>
Tz1jMVtuSF1jKD1PKW4oW2NIXWMxQ2wpW0NIMl1bQ0gyXU9bQ0gyXVtDQEBIXTJbQ0gyXVtDSDJdW0NIMl1PMg==

> <s_epik_cmdline>
J2VwaWtfcHl0aG9uJywgJy1waCcsICc3LjAnLCAnLXRuJywgJzgnLCAnLW1hJywgJzIwMCcsICctbWV0YWxfYmluZGluZycsICctaW1hZScsICc8aW5maWxlLm1hZT4nLCAnLW9tYWUnLCAnPG91dGZpbGUubWFlPic=

> <r_lp_tautomer_probability>
0.999537

> <r_epik_Ionization_Penalty>
0.030751

> <r_epik_Ionization_Penalty_Charging>
0.030751

> <r_epik_Ionization_Penalty_Neutral>
1.46719e-11

> <r_epik_State_Penalty>
0.0253757

> <r_epik_Charging_Adjusted_Penalty>
0.0561266

> <i_epik_Tot_Q>
0

> <i_epik_Tot_abs_Q>
0

> <r_epik_Metal_State_Penalty>
2.25222

> <b_epik_Metal_Only>
0

> <s_lp_Force_Field>
OPLS_2005

> <r_lp_Energy>
21.1237

> <b_lp_Chiralities_Consistent>
1

> <s_lp_Variant>
AV-unprocessed.smi:914-2

> <Gold.Version>
5.8.1

> <Gold.Id.Protein>
6NUR|6NUR_protein|mol2

> <Gold.PLP.Fitness>
45.7702

> <Gold.PLP.PLP>
-41.3698

> <Gold.PLP.part.hbond>
-2.2827

> <Gold.PLP.part.metal>
0.0000

> <Gold.PLP.part.buried>
-4.1009

> <Gold.PLP.part.nonpolar>
-35.5108

> <Gold.PLP.part.repulsive>
0.8651

> <Gold.PLP.ligand.clash>
0.0000

> <Gold.PLP.ligand.torsion>
0.4631

> <Gold.PLP.Chemscore.Hbond>
0.8450

> <Gold.PLP.Chemscore.CHOScore>
0.9173

> <Gold.PLP.Chemscore.Metal>
0.0000

> <Gold.Chemscore.Hbonds>
donor molecule, donor type, donor heavy atom, donor atom, acceptor molecule, acceptor atom, score
      L1  H     3    19       P1  7948  0.99
      L1  C    16    33       P1  8028  0.76

> <Gold.PLP.Chemscore.Internal.Correction>
0.0395

> <Gold.Rescore>
     Score         DG    S(hbond)    S(metal)    S(lipo)     H(rot)  DE(clash)    DE(int)     intcor
     12.95     -13.81       1.00        0.00      89.58       2.14       0.55       0.32       ----

> <Gold.Chemscore.Fitness>
12.9507

> <Gold.Chemscore.DG>
-13.8145

> <Gold.Chemscore.ZeroCoef>
-5.4800

> <Gold.Chemscore.Hbond>
0.9960

> <Gold.Chemscore.Metal>
0.0000

> <Gold.Chemscore.Lipo>
89.5797

> <Gold.Chemscore.Internal_Hbond>
0.0000

> <Gold.Chemscore.DEClash>
0.5457

> <Gold.Chemscore.DEInternal>
0.3181

> <Gold.Chemscore.Rot>
2.1379

> <Gold.Chemscore.Internal.Correction>
   9.000000E+99

> <Gold.Chemscore.Hbonds>
donor molecule, donor type, donor heavy atom, donor atom, acceptor molecule, acceptor atom, score
      L1  H     3    19       P1  7948  0.92

> <Gold.Chemscore.Hbond.Weighted>
-3.3267

> <Gold.Chemscore.Metal.Weighted>
-0.0000

> <Gold.Chemscore.Lipo.Weighted>
-10.4808

> <Gold.Chemscore.Internal_Hbond.Weighted>
0.0000

> <Gold.Chemscore.DEClash.Weighted>
0.5457

> <Gold.Chemscore.DEInternal.Weighted>
0.3181

> <Gold.Chemscore.Rot.Weighted>
5.4730

> <Gold.Chemscore.Internal.Correction.Weighted>
   9.000000E+99

> <Gold.Protein.RotatedTorsions>
[ 6907 6896 6895 6894 ] final -177.98 input  -60.11 | X-H torsion
[ 7974 7965 7964 7962 ] final  115.37 input  175.53 | X-H torsion
[ 8008 7997 7996 7995 ] final  -30.92 input   59.86 | X-H torsion
[ 10167 10162 10161 10158 ] final  -97.95 input  -65.29 | X-H torsion
[ 10718 10713 10712 10709 ] final -138.13 input   66.30 | X-H torsion
[ 10763 10752 10751 10750 ] final  141.25 input  -60.55 | X-H torsion
[ 11005 11000 10999 10996 ] final  -49.02 input  -57.11 | X-H torsion

> <Gold.Protein.ActiveResidues>
 VAL166  LYS551  ARG553  GLY616  TRP617  ASP618  TYR619  PRO620  LYS621  CYS622 
 ASP623  PHE694  ASN695  SER759  ASP760  ASP761  ALA762  ILE779  LEU786  VAL792 
 PHE793  MET794  SER795  GLU796  ALA797  LYS798  CYS799  TRP800  GLU811  SER814 

> <Gold.Protein.RotatedAtoms>
  151.6298  133.3333  159.3106 H   0  0  0  0  0  0  0  0  0  0  0  0  # atno 6907 bound_to 6896
  150.8062  134.7193  159.6658 H   0  0  0  0  0  0  0  0  0  0  0  0  # atno 6908 bound_to 6896
  152.4158  134.6049  160.0061 H   0  0  0  0  0  0  0  0  0  0  0  0  # atno 6909 bound_to 6896
  145.1928  139.2991  143.4359 H   0  0  0  0  0  0  0  0  0  0  0  0  # atno 7974 bound_to 7965
  154.4232  140.1778  156.1483 H   0  0  0  0  0  0  0  0  0  0  0  0  # atno 8008 bound_to 7997
  155.9935  140.3366  155.6752 H   0  0  0  0  0  0  0  0  0  0  0  0  # atno 8009 bound_to 7997
  155.6339  140.0673  157.2631 H   0  0  0  0  0  0  0  0  0  0  0  0  # atno 8010 bound_to 7997
  140.2781  143.3300  152.0468 H   0  0  0  0  0  0  0  0  0  0  0  0  # atno 10167 bound_to 10162
  156.2959  130.7401  151.1440 H   0  0  0  0  0  0  0  0  0  0  0  0  # atno 10718 bound_to 10713
  153.9361  135.2985  155.3444 H   0  0  0  0  0  0  0  0  0  0  0  0  # atno 10763 bound_to 10752
  154.7501  135.4984  153.9277 H   0  0  0  0  0  0  0  0  0  0  0  0  # atno 10764 bound_to 10752
  153.1066  135.6748  153.9681 H   0  0  0  0  0  0  0  0  0  0  0  0  # atno 10765 bound_to 10752
  141.0735  133.6672  156.3526 H   0  0  0  0  0  0  0  0  0  0  0  0  # atno 11005 bound_to 11000
  146.3433  140.2146  142.8590 LP  0  0  0  0  0  0  0  0  0  0  0  0  # atno 17320 bound_to 7965
  145.0025  140.8644  143.5273 LP  0  0  0  0  0  0  0  0  0  0  0  0  # atno 17321 bound_to 7965
  139.4970  144.6610  151.6463 LP  0  0  0  0  0  0  0  0  0  0  0  0  # atno 17342 bound_to 10162
  140.5834  143.9906  150.6281 LP  0  0  0  0  0  0  0  0  0  0  0  0  # atno 17343 bound_to 10162
  157.7355  131.0571  150.5465 LP  0  0  0  0  0  0  0  0  0  0  0  0  # atno 17370 bound_to 10713
  156.5587  130.4250  149.6073 LP  0  0  0  0  0  0  0  0  0  0  0  0  # atno 17371 bound_to 10713
  140.5623  134.5922  157.5437 LP  0  0  0  0  0  0  0  0  0  0  0  0  # atno 17394 bound_to 11000
  139.9548  134.7555  156.0367 LP  0  0  0  0  0  0  0  0  0  0  0  0  # atno 17395 bound_to 11000

$$$$
