AV-unprocessed.smi:2864|AV-procd|sdf|11013|dock2
  -GOLD-   2272015473D 1   1.00000     0.00000
 Structure written by MMmdl.
 37 38  0  0  0  0  0  0  0  0  1 V2000
  153.6558  139.7138  160.3135 C   0  0  0  0  0  0  0  0  0  0  0  0
  153.0977  141.0663  159.9216 C   0  0  0  0  0  0  0  0  0  0  0  0
  153.5646  142.2336  160.5540 C   0  0  0  0  0  0  0  0  0  0  0  0
  153.0524  143.4889  160.1795 C   0  0  0  0  0  0  0  0  0  0  0  0
  152.0682  143.5927  159.1734 C   0  0  0  0  0  0  0  0  0  0  0  0
  151.5608  144.9735  158.7920 C   0  0  0  0  0  0  0  0  0  0  0  0
  151.5826  142.4182  158.5395 C   0  0  0  0  0  0  0  0  0  0  0  0
  150.5237  142.4886  157.4388 C   0  0  2  0  0  0  0  0  0  0  0  0
  149.3421  143.1268  157.8858 O   0  0  0  0  0  0  0  0  0  0  0  0
  150.1614  141.0748  156.9335 C   0  0  0  0  0  0  0  0  0  0  0  0
  149.2330  141.1198  155.7973 N   0  0  0  0  0  0  0  0  0  0  0  0
  148.0300  141.7463  156.0763 N   0  0  0  0  0  0  0  0  0  0  0  0
  147.1019  141.8512  155.1810 C   0  0  0  0  0  0  0  0  0  0  0  0
  145.8240  142.5452  155.5841 C   0  0  0  0  0  0  0  0  0  0  0  0
  145.5600  143.5439  154.7410 F   0  0  0  0  0  0  0  0  0  0  0  0
  144.7940  141.6985  155.5745 F   0  0  0  0  0  0  0  0  0  0  0  0
  145.9455  143.0503  156.8124 F   0  0  0  0  0  0  0  0  0  0  0  0
  147.3350  141.3018  153.8557 C   0  0  0  0  0  0  0  0  0  0  0  0
  148.5072  140.6875  153.5875 C   0  0  0  0  0  0  0  0  0  0  0  0
  149.5558  140.5583  154.5965 C   0  0  0  0  0  0  0  0  0  0  0  0
  150.6272  139.9906  154.3868 O   0  0  0  0  0  0  0  0  0  0  0  0
  152.1147  141.1629  158.9172 C   0  0  0  0  0  0  0  0  0  0  0  0
  153.9475  139.7032  161.3641 H   0  0  0  0  0  0  0  0  0  0  0  0
  154.5336  139.4807  159.7105 H   0  0  0  0  0  0  0  0  0  0  0  0
  152.9152  138.9281  160.1610 H   0  0  0  0  0  0  0  0  0  0  0  0
  154.3199  142.1711  161.3237 H   0  0  0  0  0  0  0  0  0  0  0  0
  153.4249  144.3770  160.6689 H   0  0  0  0  0  0  0  0  0  0  0  0
  151.6343  145.1295  157.7158 H   0  0  0  0  0  0  0  0  0  0  0  0
  152.1412  145.7581  159.2782 H   0  0  0  0  0  0  0  0  0  0  0  0
  150.5197  145.0937  159.0922 H   0  0  0  0  0  0  0  0  0  0  0  0
  150.9019  143.0952  156.6166 H   0  0  0  0  0  0  0  0  0  0  0  0
  149.0110  143.6699  157.1866 H   0  0  0  0  0  0  0  0  0  0  0  0
  151.0700  140.5797  156.5842 H   0  0  0  0  0  0  0  0  0  0  0  0
  149.7997  140.4418  157.7462 H   0  0  0  0  0  0  0  0  0  0  0  0
  146.5741  141.3853  153.0941 H   0  0  0  0  0  0  0  0  0  0  0  0
  148.6764  140.2797  152.6015 H   0  0  0  0  0  0  0  0  0  0  0  0
  151.7707  140.2613  158.4315 H   0  0  0  0  0  0  0  0  0  0  0  0
  1  2  1  0  0  0  0
  1 23  1  0  0  0  0
  1 24  1  0  0  0  0
  1 25  1  0  0  0  0
  2 22  1  0  0  0  0
  2  3  2  0  0  0  0
  3  4  1  0  0  0  0
  3 26  1  0  0  0  0
  4  5  2  0  0  0  0
  4 27  1  0  0  0  0
  5  6  1  0  0  0  0
  5  7  1  0  0  0  0
  6 28  1  0  0  0  0
  6 29  1  0  0  0  0
  6 30  1  0  0  0  0
  7  8  1  0  0  0  0
  7 22  2  0  0  0  0
  8  9  1  0  0  0  0
  8 10  1  0  0  0  0
  8 31  1  0  0  0  0
  9 32  1  0  0  0  0
 10 11  1  0  0  0  0
 10 33  1  0  0  0  0
 10 34  1  0  0  0  0
 11 20  1  0  0  0  0
 11 12  1  0  0  0  0
 12 13  2  0  0  0  0
 13 14  1  0  0  0  0
 13 18  1  0  0  0  0
 14 15  1  0  0  0  0
 14 16  1  0  0  0  0
 14 17  1  0  0  0  0
 18 19  2  0  0  0  0
 18 35  1  0  0  0  0
 19 20  1  0  0  0  0
 19 36  1  0  0  0  0
 20 21  2  0  0  0  0
 22 37  1  0  0  0  0
M  END
> <s_m_source_file>
AV-unprocessed.smi

> <i_m_source_file_index>
2864

> <i_lp_mmshare_version>
43012

> <i_f3d_flags>
0

> <s_epik_input>
W0NIM11jMVtjSF1bY0hdYyhbQ0gzXSljKFtjSF0xKVtDQEhdKFtPSF0pW0NIMl1uMm5jKEMoRikoRilGKVtjSF1bY0hdYzI9Tw==

> <s_epik_cmdline>
J2VwaWtfcHl0aG9uJywgJy1waCcsICc3LjAnLCAnLXRuJywgJzgnLCAnLW1hJywgJzIwMCcsICctbWV0YWxfYmluZGluZycsICctaW1hZScsICc8aW5maWxlLm1hZT4nLCAnLW9tYWUnLCAnPG91dGZpbGUubWFlPic=

> <r_lp_tautomer_probability>
1

> <r_epik_Ionization_Penalty>
5.25156e-08

> <r_epik_Ionization_Penalty_Charging>
3.92872e-09

> <r_epik_Ionization_Penalty_Neutral>
4.85868e-08

> <r_epik_State_Penalty>
-0

> <r_epik_Charging_Adjusted_Penalty>
3.92872e-09

> <i_epik_Tot_Q>
0

> <i_epik_Tot_abs_Q>
0

> <r_epik_Metal_State_Penalty>
-0

> <b_epik_Metal_Only>
0

> <s_lp_Force_Field>
OPLS_2005

> <r_lp_Energy>
30.6225

> <b_lp_Chiralities_Consistent>
1

> <s_lp_Variant>
AV-unprocessed.smi:2864-1

> <Gold.Version>
5.8.1

> <Gold.Id.Protein>
6NUR|6NUR_protein|mol2

> <Gold.PLP.Fitness>
51.4856

> <Gold.PLP.PLP>
-45.6921

> <Gold.PLP.part.hbond>
-2.3168

> <Gold.PLP.part.metal>
0.0000

> <Gold.PLP.part.buried>
-3.0415

> <Gold.PLP.part.nonpolar>
-41.0165

> <Gold.PLP.part.repulsive>
0.2509

> <Gold.PLP.ligand.clash>
0.0000

> <Gold.PLP.ligand.torsion>
0.1104

> <Gold.PLP.Chemscore.Hbond>
2.0000

> <Gold.PLP.Chemscore.CHOScore>
0.0000

> <Gold.PLP.Chemscore.Metal>
0.0000

> <Gold.Chemscore.Hbonds>
donor molecule, donor type, donor heavy atom, donor atom, acceptor molecule, acceptor atom, score
      L1  H     9    32       P1  8028  1.00
      P1  H  7989  7998       L1    21  1.00

> <Gold.PLP.Chemscore.Internal.Correction>
0.0143

> <Gold.Rescore>
     Score         DG    S(hbond)    S(metal)    S(lipo)     H(rot)  DE(clash)    DE(int)     intcor
     17.08     -18.95       1.57        0.00     115.14       2.05       0.08       1.79       ----

> <Gold.Chemscore.Fitness>
17.0849

> <Gold.Chemscore.DG>
-18.9514

> <Gold.Chemscore.ZeroCoef>
-5.4800

> <Gold.Chemscore.Hbond>
1.5725

> <Gold.Chemscore.Metal>
0.0000

> <Gold.Chemscore.Lipo>
115.1432

> <Gold.Chemscore.Internal_Hbond>
0.0000

> <Gold.Chemscore.DEClash>
0.0782

> <Gold.Chemscore.DEInternal>
1.7882

> <Gold.Chemscore.Rot>
2.0517

> <Gold.Chemscore.Internal.Correction>
   9.000000E+99

> <Gold.Chemscore.Hbonds>
donor molecule, donor type, donor heavy atom, donor atom, acceptor molecule, acceptor atom, score
      L1  H     9    32       P1  8028  0.35
      P1  H  7989  7998       L1    21  0.84

> <Gold.Chemscore.Hbond.Weighted>
-5.2520

> <Gold.Chemscore.Metal.Weighted>
-0.0000

> <Gold.Chemscore.Lipo.Weighted>
-13.4718

> <Gold.Chemscore.Internal_Hbond.Weighted>
0.0000

> <Gold.Chemscore.DEClash.Weighted>
0.0782

> <Gold.Chemscore.DEInternal.Weighted>
1.7882

> <Gold.Chemscore.Rot.Weighted>
5.2524

> <Gold.Chemscore.Internal.Correction.Weighted>
   9.000000E+99

> <Gold.Protein.RotatedTorsions>
[ 6907 6896 6895 6894 ] final  -50.58 input  -60.11 | X-H torsion
[ 7974 7965 7964 7962 ] final  -72.84 input  175.53 | X-H torsion
[ 8008 7997 7996 7995 ] final -123.16 input   59.86 | X-H torsion
[ 10167 10162 10161 10158 ] final   24.77 input  -65.29 | X-H torsion
[ 10718 10713 10712 10709 ] final   52.74 input   66.30 | X-H torsion
[ 10763 10752 10751 10750 ] final  127.24 input  -60.55 | X-H torsion
[ 11005 11000 10999 10996 ] final   16.72 input  -57.11 | X-H torsion

> <Gold.Protein.ActiveResidues>
 VAL166  LYS551  ARG553  GLY616  TRP617  ASP618  TYR619  PRO620  LYS621  CYS622 
 ASP623  PHE694  ASN695  SER759  ASP760  ASP761  ALA762  ILE779  LEU786  VAL792 
 PHE793  MET794  SER795  GLU796  ALA797  LYS798  CYS799  TRP800  GLU811  SER814 

> <Gold.Protein.RotatedAtoms>
  150.8694  134.8064  159.7142 H   0  0  0  0  0  0  0  0  0  0  0  0  # atno 6907 bound_to 6896
  152.4704  134.4971  159.9723 H   0  0  0  0  0  0  0  0  0  0  0  0  # atno 6908 bound_to 6896
  151.5062  133.3455  159.2913 H   0  0  0  0  0  0  0  0  0  0  0  0  # atno 6909 bound_to 6896
  145.6600  140.9256  143.0939 H   0  0  0  0  0  0  0  0  0  0  0  0  # atno 7974 bound_to 7965
  155.1760  140.0409  157.2872 H   0  0  0  0  0  0  0  0  0  0  0  0  # atno 8008 bound_to 7997
  154.6236  140.2507  155.7491 H   0  0  0  0  0  0  0  0  0  0  0  0  # atno 8009 bound_to 7997
  156.2447  140.2890  156.0556 H   0  0  0  0  0  0  0  0  0  0  0  0  # atno 8010 bound_to 7997
  140.5161  144.0080  150.6395 H   0  0  0  0  0  0  0  0  0  0  0  0  # atno 10167 bound_to 10162
  157.5102  130.8496  149.8426 H   0  0  0  0  0  0  0  0  0  0  0  0  # atno 10718 bound_to 10713
  153.7062  135.3275  155.3236 H   0  0  0  0  0  0  0  0  0  0  0  0  # atno 10763 bound_to 10752
  154.8398  135.4466  154.1360 H   0  0  0  0  0  0  0  0  0  0  0  0  # atno 10764 bound_to 10752
  153.2441  135.6974  153.7829 H   0  0  0  0  0  0  0  0  0  0  0  0  # atno 10765 bound_to 10752
  140.4440  134.1293  155.7694 H   0  0  0  0  0  0  0  0  0  0  0  0  # atno 11005 bound_to 11000
  144.7092  139.8436  143.7420 LP  0  0  0  0  0  0  0  0  0  0  0  0  # atno 17320 bound_to 7965
  146.1133  139.4141  143.0274 LP  0  0  0  0  0  0  0  0  0  0  0  0  # atno 17321 bound_to 7965
  140.3416  143.3016  152.0582 LP  0  0  0  0  0  0  0  0  0  0  0  0  # atno 17342 bound_to 10162
  139.4910  144.6438  151.6820 LP  0  0  0  0  0  0  0  0  0  0  0  0  # atno 17343 bound_to 10162
  156.0284  130.3772  150.1756 LP  0  0  0  0  0  0  0  0  0  0  0  0  # atno 17370 bound_to 10713
  156.9946  130.9903  151.3406 LP  0  0  0  0  0  0  0  0  0  0  0  0  # atno 17371 bound_to 10713
  141.1693  133.8640  157.1619 LP  0  0  0  0  0  0  0  0  0  0  0  0  # atno 17394 bound_to 11000
  140.0051  135.0012  157.0275 LP  0  0  0  0  0  0  0  0  0  0  0  0  # atno 17395 bound_to 11000

$$$$
