AV-unprocessed.smi:1839|AV-procd|sdf|7484|dock10
  -GOLD-   22720 9183D 1   1.00000     0.00000
 Structure written by MMmdl.
 46 47  0  0  0  0  0  0  0  0  1 V2000
  153.7938  142.4478  162.8258 C   0  0  0  0  0  0  0  0  0  0  0  0
  153.1303  142.8296  161.5790 N   0  0  0  0  0  0  0  0  0  0  0  0
  152.2145  143.9693  161.7105 C   0  0  0  0  0  0  0  0  0  0  0  0
  153.1525  141.9955  160.5096 C   0  0  0  0  0  0  0  0  0  0  0  0
  153.4778  140.8108  160.6122 O   0  0  0  0  0  0  0  0  0  0  0  0
  152.7581  142.5296  159.3293 N   0  0  0  0  0  0  0  0  0  0  0  0
  153.1849  143.8606  158.8727 C   0  0  0  0  0  0  0  0  0  0  0  0
  151.9986  144.5859  158.2128 C   0  0  0  0  0  0  0  0  0  0  0  0
  151.4036  143.7419  157.0720 C   0  0  0  0  0  0  0  0  0  0  0  0
  151.0855  142.3069  157.5459 C   0  0  1  0  0  0  0  0  0  0  0  0
  150.5903  141.4235  156.3944 C   0  0  0  0  0  0  0  0  0  0  0  0
  150.9400  140.2456  156.3157 O   0  0  0  0  0  0  0  0  0  0  0  0
  149.7507  142.0020  155.5227 N   0  0  0  0  0  0  0  0  0  0  0  0
  149.0606  141.3133  154.4372 C   0  0  0  0  0  0  0  0  0  0  0  0
  147.7097  140.7064  154.8721 C   0  0  0  0  0  0  0  0  0  0  0  0
  146.5611  141.7036  154.8824 C   0  0  0  0  0  0  0  0  0  0  0  0
  146.3572  142.5751  153.7915 C   0  0  0  0  0  0  0  0  0  0  0  0
  145.2959  143.4987  153.8598 C   0  0  0  0  0  0  0  0  0  0  0  0
  144.4848  143.5176  155.0112 C   0  0  0  0  0  0  0  0  0  0  0  0
  144.7702  142.6058  156.0468 C   0  0  0  0  0  0  0  0  0  0  0  0
  145.7835  141.7156  155.9894 N   0  0  0  0  0  0  0  0  0  0  0  0
  152.3280  141.6792  158.2147 C   0  0  0  0  0  0  0  0  0  0  0  0
  154.7552  141.9674  162.6368 H   0  0  0  0  0  0  0  0  0  0  0  0
  153.1699  141.7550  163.3917 H   0  0  0  0  0  0  0  0  0  0  0  0
  153.9891  143.3190  163.4523 H   0  0  0  0  0  0  0  0  0  0  0  0
  151.3247  143.8580  161.0891 H   0  0  0  0  0  0  0  0  0  0  0  0
  152.7146  144.8974  161.4347 H   0  0  0  0  0  0  0  0  0  0  0  0
  151.8640  144.0765  162.7379 H   0  0  0  0  0  0  0  0  0  0  0  0
  153.5941  144.4690  159.6795 H   0  0  0  0  0  0  0  0  0  0  0  0
  153.9953  143.7439  158.1518 H   0  0  0  0  0  0  0  0  0  0  0  0
  151.2290  144.7864  158.9588 H   0  0  0  0  0  0  0  0  0  0  0  0
  152.3180  145.5559  157.8309 H   0  0  0  0  0  0  0  0  0  0  0  0
  150.5042  144.2231  156.6862 H   0  0  0  0  0  0  0  0  0  0  0  0
  152.1174  143.7138  156.2472 H   0  0  0  0  0  0  0  0  0  0  0  0
  150.2939  142.3685  158.2954 H   0  0  0  0  0  0  0  0  0  0  0  0
  149.5202  142.9749  155.6633 H   0  0  0  0  0  0  0  0  0  0  0  0
  148.8888  142.0453  153.6477 H   0  0  0  0  0  0  0  0  0  0  0  0
  149.7032  140.5437  154.0076 H   0  0  0  0  0  0  0  0  0  0  0  0
  147.4533  139.8765  154.2128 H   0  0  0  0  0  0  0  0  0  0  0  0
  147.8076  140.2741  155.8692 H   0  0  0  0  0  0  0  0  0  0  0  0
  147.0013  142.5415  152.9250 H   0  0  0  0  0  0  0  0  0  0  0  0
  145.1097  144.1829  153.0452 H   0  0  0  0  0  0  0  0  0  0  0  0
  143.6639  144.2137  155.0990 H   0  0  0  0  0  0  0  0  0  0  0  0
  144.1709  142.5914  156.9452 H   0  0  0  0  0  0  0  0  0  0  0  0
  153.1476  141.5707  157.5019 H   0  0  0  0  0  0  0  0  0  0  0  0
  152.0804  140.6731  158.5590 H   0  0  0  0  0  0  0  0  0  0  0  0
  1  2  1  0  0  0  0
  1 23  1  0  0  0  0
  1 24  1  0  0  0  0
  1 25  1  0  0  0  0
  2  3  1  0  0  0  0
  2  4  1  0  0  0  0
  3 26  1  0  0  0  0
  3 27  1  0  0  0  0
  3 28  1  0  0  0  0
  4  5  2  0  0  0  0
  4  6  1  0  0  0  0
  6 22  1  0  0  0  0
  6  7  1  0  0  0  0
  7  8  1  0  0  0  0
  7 29  1  0  0  0  0
  7 30  1  0  0  0  0
  8  9  1  0  0  0  0
  8 31  1  0  0  0  0
  8 32  1  0  0  0  0
  9 10  1  0  0  0  0
  9 33  1  0  0  0  0
  9 34  1  0  0  0  0
 10 11  1  0  0  0  0
 10 22  1  0  0  0  0
 10 35  1  0  0  0  0
 11 12  2  0  0  0  0
 11 13  1  0  0  0  0
 13 14  1  0  0  0  0
 13 36  1  0  0  0  0
 14 15  1  0  0  0  0
 14 37  1  0  0  0  0
 14 38  1  0  0  0  0
 15 16  1  0  0  0  0
 15 39  1  0  0  0  0
 15 40  1  0  0  0  0
 16 21  1  0  0  0  0
 16 17  2  0  0  0  0
 17 18  1  0  0  0  0
 17 41  1  0  0  0  0
 18 19  2  0  0  0  0
 18 42  1  0  0  0  0
 19 20  1  0  0  0  0
 19 43  1  0  0  0  0
 20 21  2  0  0  0  0
 20 44  1  0  0  0  0
 22 45  1  0  0  0  0
 22 46  1  0  0  0  0
M  END
> <s_m_source_file>
AV-unprocessed.smi

> <i_m_source_file_index>
1839

> <i_lp_mmshare_version>
43012

> <i_f3d_flags>
0

> <s_epik_input>
W0NIM11OKFtDSDNdKUMoPU8pTjFbQ0gyXVtDSDJdW0NIMl1bQ0BIXShbQ0gyXTEpQyg9TylbTkhdW0NIMl1bQ0gyXWMyW2NIXVtjSF1bY0hdW2NIXW4y

> <s_epik_cmdline>
J2VwaWtfcHl0aG9uJywgJy1waCcsICc3LjAnLCAnLXRuJywgJzgnLCAnLW1hJywgJzIwMCcsICctbWV0YWxfYmluZGluZycsICctaW1hZScsICc8aW5maWxlLm1hZT4nLCAnLW9tYWUnLCAnPG91dGZpbGUubWFlPic=

> <r_epik_Ionization_Penalty>
0.0268631

> <r_epik_Ionization_Penalty_Charging>
0

> <r_epik_Ionization_Penalty_Neutral>
0.0268631

> <r_epik_State_Penalty>
0.0219025

> <r_epik_Charging_Adjusted_Penalty>
0.0219025

> <i_epik_Tot_Q>
0

> <i_epik_Tot_abs_Q>
0

> <r_epik_Metal_State_Penalty>
0.0209511

> <b_epik_Metal_Only>
0

> <s_lp_Force_Field>
OPLS_2005

> <r_lp_Energy>
49.2306

> <b_lp_Chiralities_Consistent>
1

> <s_lp_Variant>
AV-unprocessed.smi:1839-1

> <Gold.Version>
5.8.1

> <Gold.Id.Protein>
6NUR|6NUR_protein|mol2

> <Gold.PLP.Fitness>
56.5563

> <Gold.PLP.PLP>
-55.4438

> <Gold.PLP.part.hbond>
-1.0000

> <Gold.PLP.part.metal>
0.0000

> <Gold.PLP.part.buried>
-6.0763

> <Gold.PLP.part.nonpolar>
-48.4838

> <Gold.PLP.part.repulsive>
0.2812

> <Gold.PLP.ligand.clash>
0.0000

> <Gold.PLP.ligand.torsion>
1.6063

> <Gold.PLP.Chemscore.Hbond>
1.0000

> <Gold.PLP.Chemscore.CHOScore>
0.0000

> <Gold.PLP.Chemscore.Metal>
0.0000

> <Gold.Chemscore.Hbonds>
donor molecule, donor type, donor heavy atom, donor atom, acceptor molecule, acceptor atom, score
      L1  H    13    36       P1  8028  1.00

> <Gold.PLP.Chemscore.Internal.Correction>
1.3251

> <Gold.Rescore>
     Score         DG    S(hbond)    S(metal)    S(lipo)     H(rot)  DE(clash)    DE(int)     intcor
     16.14     -18.81       1.00        0.00     118.53       1.52       0.47       2.20       ----

> <Gold.Chemscore.Fitness>
16.1432

> <Gold.Chemscore.DG>
-18.8084

> <Gold.Chemscore.ZeroCoef>
-5.4800

> <Gold.Chemscore.Hbond>
0.9998

> <Gold.Chemscore.Metal>
0.0000

> <Gold.Chemscore.Lipo>
118.5340

> <Gold.Chemscore.Internal_Hbond>
0.0000

> <Gold.Chemscore.DEClash>
0.4686

> <Gold.Chemscore.DEInternal>
2.1965

> <Gold.Chemscore.Rot>
1.5155

> <Gold.Chemscore.Internal.Correction>
   9.000000E+99

> <Gold.Chemscore.Hbonds>
donor molecule, donor type, donor heavy atom, donor atom, acceptor molecule, acceptor atom, score
      L1  H    13    36       P1  8028  1.00

> <Gold.Chemscore.Hbond.Weighted>
-3.3395

> <Gold.Chemscore.Metal.Weighted>
-0.0000

> <Gold.Chemscore.Lipo.Weighted>
-13.8685

> <Gold.Chemscore.Internal_Hbond.Weighted>
0.0000

> <Gold.Chemscore.DEClash.Weighted>
0.4686

> <Gold.Chemscore.DEInternal.Weighted>
2.1965

> <Gold.Chemscore.Rot.Weighted>
3.8796

> <Gold.Chemscore.Internal.Correction.Weighted>
   9.000000E+99

> <Gold.Protein.RotatedTorsions>
[ 6907 6896 6895 6894 ] final  164.86 input  -60.11 | X-H torsion
[ 7974 7965 7964 7962 ] final  103.95 input  175.53 | X-H torsion
[ 8008 7997 7996 7995 ] final  -55.17 input   59.86 | X-H torsion
[ 10167 10162 10161 10158 ] final   89.94 input  -65.29 | X-H torsion
[ 10718 10713 10712 10709 ] final   78.56 input   66.30 | X-H torsion
[ 10763 10752 10751 10750 ] final  -50.40 input  -60.55 | X-H torsion
[ 11005 11000 10999 10996 ] final  -29.81 input  -57.11 | X-H torsion

> <Gold.Protein.ActiveResidues>
 VAL166  LYS551  ARG553  GLY616  TRP617  ASP618  TYR619  PRO620  LYS621  CYS622 
 ASP623  PHE694  ASN695  SER759  ASP760  ASP761  ALA762  ILE779  LEU786  VAL792 
 PHE793  MET794  SER795  GLU796  ALA797  LYS798  CYS799  TRP800  GLU811  SER814 

> <Gold.Protein.RotatedAtoms>
  151.9033  133.3543  159.3837 H   0  0  0  0  0  0  0  0  0  0  0  0  # atno 6907 bound_to 6896
  150.7075  134.4806  159.5478 H   0  0  0  0  0  0  0  0  0  0  0  0  # atno 6908 bound_to 6896
  152.2399  134.8239  160.0512 H   0  0  0  0  0  0  0  0  0  0  0  0  # atno 6909 bound_to 6896
  145.3391  139.2467  143.3619 H   0  0  0  0  0  0  0  0  0  0  0  0  # atno 7974 bound_to 7965
  154.4186  140.1159  156.5433 H   0  0  0  0  0  0  0  0  0  0  0  0  # atno 8008 bound_to 7997
  155.6486  140.3496  155.4721 H   0  0  0  0  0  0  0  0  0  0  0  0  # atno 8009 bound_to 7997
  155.9812  140.1160  157.0715 H   0  0  0  0  0  0  0  0  0  0  0  0  # atno 8010 bound_to 7997
  139.8522  144.6587  150.9156 H   0  0  0  0  0  0  0  0  0  0  0  0  # atno 10167 bound_to 10162
  157.6749  130.9874  150.1805 H   0  0  0  0  0  0  0  0  0  0  0  0  # atno 10718 bound_to 10713
  154.1097  135.6551  153.4883 H   0  0  0  0  0  0  0  0  0  0  0  0  # atno 10763 bound_to 10752
  153.0260  135.5245  154.7204 H   0  0  0  0  0  0  0  0  0  0  0  0  # atno 10764 bound_to 10752
  154.6380  135.2984  155.0107 H   0  0  0  0  0  0  0  0  0  0  0  0  # atno 10765 bound_to 10752
  140.9329  133.7327  156.0962 H   0  0  0  0  0  0  0  0  0  0  0  0  # atno 11005 bound_to 11000
  146.3014  140.3985  142.8702 LP  0  0  0  0  0  0  0  0  0  0  0  0  # atno 17320 bound_to 7965
  144.8804  140.7392  143.5990 LP  0  0  0  0  0  0  0  0  0  0  0  0  # atno 17321 bound_to 7965
  140.7786  143.3817  151.1465 LP  0  0  0  0  0  0  0  0  0  0  0  0  # atno 17342 bound_to 10162
  139.7454  143.8860  152.3062 LP  0  0  0  0  0  0  0  0  0  0  0  0  # atno 17343 bound_to 10162
  156.2538  130.3703  149.8203 LP  0  0  0  0  0  0  0  0  0  0  0  0  # atno 17370 bound_to 10713
  156.5968  130.8530  151.3422 LP  0  0  0  0  0  0  0  0  0  0  0  0  # atno 17371 bound_to 10713
  140.7838  134.3695  157.5481 LP  0  0  0  0  0  0  0  0  0  0  0  0  # atno 17394 bound_to 11000
  139.8800  134.9098  156.3000 LP  0  0  0  0  0  0  0  0  0  0  0  0  # atno 17395 bound_to 11000

$$$$
