AV-unprocessed.smi:1672|AV-procd|sdf|6703|dock8
  -GOLD-   22720 7443D 1   1.00000     0.00000
 Structure written by MMmdl.
 48 50  0  0  0  0  0  0  0  0  2 V2000
  144.6412  132.8976  152.0997 C   0  0  0  0  0  0  0  0  0  0  0  0
  146.0661  133.4755  152.0411 C   0  0  2  0  0  0  0  0  0  0  0  0
  146.4749  134.1850  153.3450 C   0  0  0  0  0  0  0  0  0  0  0  0
  145.7852  135.5516  153.5060 C   0  0  0  0  0  0  0  0  0  0  0  0
  146.0444  136.4259  152.3336 N   0  3  2  0  0  0  0  0  0  0  0  0
  145.5151  137.8005  152.5285 C   0  0  0  0  0  0  0  0  0  0  0  0
  146.6246  138.8263  152.8316 C   0  0  2  0  0  0  0  0  0  0  0  0
  147.5808  138.7750  151.7909 O   0  0  0  0  0  0  0  0  0  0  0  0
  147.3117  138.5391  154.1821 C   0  0  0  0  0  0  0  0  0  0  0  0
  148.4701  139.3920  154.4200 N   0  0  0  0  0  0  0  0  0  0  0  0
  148.5456  140.7469  154.3608 C   0  0  0  0  0  0  0  0  0  0  0  0
  147.3623  141.6099  154.0398 C   0  0  0  0  0  0  0  0  0  0  0  0
  147.6537  142.9903  154.0811 O   0  0  0  0  0  0  0  0  0  0  0  0
  149.7439  141.2719  154.6179 N   0  0  0  0  0  0  0  0  0  0  0  0
  150.5163  140.1579  154.8800 C   0  0  0  0  0  0  0  0  0  0  0  0
  151.8829  140.0481  155.2234 C   0  0  0  0  0  0  0  0  0  0  0  0
  152.4622  138.7825  155.4506 C   0  0  0  0  0  0  0  0  0  0  0  0
  151.6849  137.6116  155.3392 C   0  0  0  0  0  0  0  0  0  0  0  0
  150.3215  137.6988  154.9984 C   0  0  0  0  0  0  0  0  0  0  0  0
  149.7483  138.9645  154.7700 C   0  0  0  0  0  0  0  0  0  0  0  0
  145.5892  135.7915  151.0677 C   0  0  0  0  0  0  0  0  0  0  0  0
  146.2745  134.4303  150.8513 C   0  0  0  0  0  0  0  0  0  0  0  0
  143.8873  133.6713  152.2406 H   0  0  0  0  0  0  0  0  0  0  0  0
  144.5424  132.1882  152.9219 H   0  0  0  0  0  0  0  0  0  0  0  0
  144.3988  132.3649  151.1796 H   0  0  0  0  0  0  0  0  0  0  0  0
  146.7373  132.6266  151.9034 H   0  0  0  0  0  0  0  0  0  0  0  0
  146.2569  133.5515  154.2058 H   0  0  0  0  0  0  0  0  0  0  0  0
  147.5558  134.3336  153.3464 H   0  0  0  0  0  0  0  0  0  0  0  0
  144.7100  135.4275  153.6410 H   0  0  0  0  0  0  0  0  0  0  0  0
  146.1616  136.0305  154.4108 H   0  0  0  0  0  0  0  0  0  0  0  0
  144.9493  138.0953  151.6435 H   0  0  0  0  0  0  0  0  0  0  0  0
  144.8055  137.8091  153.3577 H   0  0  0  0  0  0  0  0  0  0  0  0
  146.2127  139.8331  152.8552 H   0  0  0  0  0  0  0  0  0  0  0  0
  147.8587  137.8772  151.6837 H   0  0  0  0  0  0  0  0  0  0  0  0
  146.6027  138.6673  154.9995 H   0  0  0  0  0  0  0  0  0  0  0  0
  147.6339  137.4979  154.2290 H   0  0  0  0  0  0  0  0  0  0  0  0
  146.9692  141.3465  153.0580 H   0  0  0  0  0  0  0  0  0  0  0  0
  146.5653  141.4068  154.7563 H   0  0  0  0  0  0  0  0  0  0  0  0
  147.8603  143.2246  154.9732 H   0  0  0  0  0  0  0  0  0  0  0  0
  152.4865  140.9390  155.3131 H   0  0  0  0  0  0  0  0  0  0  0  0
  153.5075  138.7100  155.7131 H   0  0  0  0  0  0  0  0  0  0  0  0
  152.1364  136.6462  155.5158 H   0  0  0  0  0  0  0  0  0  0  0  0
  149.7253  136.8026  154.9123 H   0  0  0  0  0  0  0  0  0  0  0  0
  144.5051  135.6737  151.0853 H   0  0  0  0  0  0  0  0  0  0  0  0
  145.8162  136.4331  150.2173 H   0  0  0  0  0  0  0  0  0  0  0  0
  147.3436  134.5931  150.7074 H   0  0  0  0  0  0  0  0  0  0  0  0
  145.9133  133.9713  149.9302 H   0  0  0  0  0  0  0  0  0  0  0  0
  147.0486  136.5206  152.2723 H   0  0  0  0  0  0  0  0  0  0  0  0
  1  2  1  0  0  0  0
  1 23  1  0  0  0  0
  1 24  1  0  0  0  0
  1 25  1  0  0  0  0
  2 22  1  0  0  0  0
  2  3  1  0  0  0  0
  2 26  1  0  0  0  0
  3  4  1  0  0  0  0
  3 27  1  0  0  0  0
  3 28  1  0  0  0  0
  4  5  1  0  0  0  0
  4 29  1  0  0  0  0
  4 30  1  0  0  0  0
  5  6  1  0  0  0  0
  5 21  1  0  0  0  0
  5 48  1  0  0  0  0
  6  7  1  0  0  0  0
  6 31  1  0  0  0  0
  6 32  1  0  0  0  0
  7  8  1  0  0  0  0
  7  9  1  0  0  0  0
  7 33  1  0  0  0  0
  8 34  1  0  0  0  0
  9 10  1  0  0  0  0
  9 35  1  0  0  0  0
  9 36  1  0  0  0  0
 10 20  1  0  0  0  0
 10 11  1  0  0  0  0
 11 12  1  0  0  0  0
 11 14  2  0  0  0  0
 12 13  1  0  0  0  0
 12 37  1  0  0  0  0
 12 38  1  0  0  0  0
 13 39  1  0  0  0  0
 14 15  1  0  0  0  0
 15 20  2  0  0  0  0
 15 16  1  0  0  0  0
 16 17  2  0  0  0  0
 16 40  1  0  0  0  0
 17 18  1  0  0  0  0
 17 41  1  0  0  0  0
 18 19  2  0  0  0  0
 18 42  1  0  0  0  0
 19 20  1  0  0  0  0
 19 43  1  0  0  0  0
 21 22  1  0  0  0  0
 21 44  1  0  0  0  0
 21 45  1  0  0  0  0
 22 46  1  0  0  0  0
 22 47  1  0  0  0  0
M  CHG  1   5   1
M  END
> <s_m_source_file>
AV-unprocessed.smi

> <i_m_source_file_index>
1672

> <i_lp_mmshare_version>
43012

> <i_f3d_flags>
0

> <s_epik_input>
W0NIM11bQ0hdMVtDSDJdW0NIMl1OKFtDSDJdW0NIMl0xKVtDSDJdW0NASF0oW09IXSlbQ0gyXW4oYyhuMilbQ0gyXVtPSF0pYyhjMjMpW2NIXVtjSF1bY0hdW2NIXTM=

> <s_epik_cmdline>
J2VwaWtfcHl0aG9uJywgJy1waCcsICc3LjAnLCAnLXRuJywgJzgnLCAnLW1hJywgJzIwMCcsICctbWV0YWxfYmluZGluZycsICctaW1hZScsICc8aW5maWxlLm1hZT4nLCAnLW9tYWUnLCAnPG91dGZpbGUubWFlPic=

> <r_epik_Ionization_Penalty>
0.0498263

> <r_epik_Ionization_Penalty_Charging>
0.00181365

> <r_epik_Ionization_Penalty_Neutral>
0.0480127

> <r_epik_State_Penalty>
0.0408546

> <r_epik_Charging_Adjusted_Penalty>
0.0426682

> <i_epik_Tot_Q>
1

> <i_epik_Tot_abs_Q>
1

> <r_epik_Metal_State_Penalty>
4.22946e-05

> <b_epik_Metal_Only>
0

> <s_lp_Force_Field>
OPLS_2005

> <r_lp_Energy>
23.4925

> <b_lp_Chiralities_Consistent>
1

> <s_lp_Variant>
AV-unprocessed.smi:1672-3

> <Gold.Version>
5.8.1

> <Gold.Id.Protein>
6NUR|6NUR_protein|mol2

> <Gold.PLP.Fitness>
50.7804

> <Gold.PLP.PLP>
-40.6544

> <Gold.PLP.part.hbond>
-7.4728

> <Gold.PLP.part.metal>
0.0000

> <Gold.PLP.part.buried>
2.9616

> <Gold.PLP.part.nonpolar>
-34.5973

> <Gold.PLP.part.repulsive>
0.1621

> <Gold.PLP.ligand.clash>
0.0000

> <Gold.PLP.ligand.torsion>
0.7800

> <Gold.PLP.Chemscore.Hbond>
3.8837

> <Gold.PLP.Chemscore.CHOScore>
0.0000

> <Gold.PLP.Chemscore.Metal>
0.0000

> <Gold.Chemscore.Hbonds>
donor molecule, donor type, donor heavy atom, donor atom, acceptor molecule, acceptor atom, score
      L1  H     5    48       P1  7948  2.00
      L1  H     8    34       P1  7948  1.00
      L1  H    13    39       P1  8028  0.58
      P1  H  8022  8030       L1    13  0.18

> <Gold.PLP.Chemscore.Internal.Correction>
0.0351

> <Gold.Rescore>
     Score         DG    S(hbond)    S(metal)    S(lipo)     H(rot)  DE(clash)    DE(int)     intcor
     15.19     -16.58       2.52        0.00      85.86       2.88       0.07       1.32       ----

> <Gold.Chemscore.Fitness>
15.1905

> <Gold.Chemscore.DG>
-16.5790

> <Gold.Chemscore.ZeroCoef>
-5.4800

> <Gold.Chemscore.Hbond>
2.5210

> <Gold.Chemscore.Metal>
0.0000

> <Gold.Chemscore.Lipo>
85.8621

> <Gold.Chemscore.Internal_Hbond>
0.0000

> <Gold.Chemscore.DEClash>
0.0710

> <Gold.Chemscore.DEInternal>
1.3175

> <Gold.Chemscore.Rot>
2.8778

> <Gold.Chemscore.Internal.Correction>
   9.000000E+99

> <Gold.Chemscore.Hbonds>
donor molecule, donor type, donor heavy atom, donor atom, acceptor molecule, acceptor atom, score
      L1  H     5    48       P1  7948  0.98
      L1  H     8    34       P1  7948  0.98
      L1  H    13    39       P1  8028  0.41

> <Gold.Chemscore.Hbond.Weighted>
-8.4202

> <Gold.Chemscore.Metal.Weighted>
-0.0000

> <Gold.Chemscore.Lipo.Weighted>
-10.0459

> <Gold.Chemscore.Internal_Hbond.Weighted>
0.0000

> <Gold.Chemscore.DEClash.Weighted>
0.0710

> <Gold.Chemscore.DEInternal.Weighted>
1.3175

> <Gold.Chemscore.Rot.Weighted>
7.3671

> <Gold.Chemscore.Internal.Correction.Weighted>
   9.000000E+99

> <Gold.Protein.RotatedTorsions>
[ 6907 6896 6895 6894 ] final  -51.41 input  -60.11 | X-H torsion
[ 7974 7965 7964 7962 ] final  -83.31 input  175.53 | X-H torsion
[ 8008 7997 7996 7995 ] final  113.25 input   59.86 | X-H torsion
[ 10167 10162 10161 10158 ] final  148.17 input  -65.29 | X-H torsion
[ 10718 10713 10712 10709 ] final  -17.70 input   66.30 | X-H torsion
[ 10763 10752 10751 10750 ] final  136.17 input  -60.55 | X-H torsion
[ 11005 11000 10999 10996 ] final  161.75 input  -57.11 | X-H torsion

> <Gold.Protein.ActiveResidues>
 VAL166  LYS551  ARG553  GLY616  TRP617  ASP618  TYR619  PRO620  LYS621  CYS622 
 ASP623  PHE694  ASN695  SER759  ASP760  ASP761  ALA762  ILE779  LEU786  VAL792 
 PHE793  MET794  SER795  GLU796  ALA797  LYS798  CYS799  TRP800  GLU811  SER814 

> <Gold.Protein.RotatedAtoms>
  150.8614  134.7967  159.7085 H   0  0  0  0  0  0  0  0  0  0  0  0  # atno 6907 bound_to 6896
  152.4650  134.5093  159.9759 H   0  0  0  0  0  0  0  0  0  0  0  0  # atno 6908 bound_to 6896
  151.5197  133.3430  159.2935 H   0  0  0  0  0  0  0  0  0  0  0  0  # atno 6909 bound_to 6896
  145.5217  140.9530  143.1652 H   0  0  0  0  0  0  0  0  0  0  0  0  # atno 7974 bound_to 7965
  156.2246  140.2983  156.0035 H   0  0  0  0  0  0  0  0  0  0  0  0  # atno 8008 bound_to 7997
  155.2392  140.0422  157.2990 H   0  0  0  0  0  0  0  0  0  0  0  0  # atno 8009 bound_to 7997
  154.5894  140.2397  155.7949 H   0  0  0  0  0  0  0  0  0  0  0  0  # atno 8010 bound_to 7997
  139.4879  144.5699  151.7074 H   0  0  0  0  0  0  0  0  0  0  0  0  # atno 10167 bound_to 10162
  156.5699  130.4747  149.6367 H   0  0  0  0  0  0  0  0  0  0  0  0  # atno 10718 bound_to 10713
  153.8520  135.3078  155.3433 H   0  0  0  0  0  0  0  0  0  0  0  0  # atno 10763 bound_to 10752
  154.7887  135.4795  154.0006 H   0  0  0  0  0  0  0  0  0  0  0  0  # atno 10764 bound_to 10752
  153.1512  135.6843  153.8972 H   0  0  0  0  0  0  0  0  0  0  0  0  # atno 10765 bound_to 10752
  140.2189  134.8211  157.3199 H   0  0  0  0  0  0  0  0  0  0  0  0  # atno 11005 bound_to 11000
  144.7673  139.6816  143.7209 LP  0  0  0  0  0  0  0  0  0  0  0  0  # atno 17320 bound_to 7965
  146.2102  139.5453  142.9686 LP  0  0  0  0  0  0  0  0  0  0  0  0  # atno 17321 bound_to 7965
  140.5285  144.0768  150.6045 LP  0  0  0  0  0  0  0  0  0  0  0  0  # atno 17342 bound_to 10162
  140.3750  143.2834  152.0235 LP  0  0  0  0  0  0  0  0  0  0  0  0  # atno 17343 bound_to 10162
  156.2724  130.7024  151.1825 LP  0  0  0  0  0  0  0  0  0  0  0  0  # atno 17370 bound_to 10713
  157.7350  131.0576  150.5492 LP  0  0  0  0  0  0  0  0  0  0  0  0  # atno 17371 bound_to 10713
  140.1871  134.4418  155.7737 LP  0  0  0  0  0  0  0  0  0  0  0  0  # atno 17394 bound_to 11000
  141.2224  133.7010  156.7965 LP  0  0  0  0  0  0  0  0  0  0  0  0  # atno 17395 bound_to 11000

$$$$
