AV-unprocessed.smi:1240|AV-procd|sdf|5214|dock2
  -GOLD-   22720 4303D 1   1.00000     0.00000
 Structure written by MMmdl.
 48 50  0  0  0  0  0  0  0  0  4 V2000
  147.2545  132.2231  153.8661 O   0  0  0  0  0  0  0  0  0  0  0  0
  147.9082  133.1201  153.3220 C   0  0  0  0  0  0  0  0  0  0  0  0
  149.1564  133.5510  153.6469 N   0  5  0  0  0  0  0  0  0  0  0  0
  149.5405  134.1338  154.9340 C   0  0  0  0  0  0  0  0  0  0  0  0
  148.7290  135.4464  155.2232 C   0  0  1  0  0  0  0  0  0  0  0  0
  148.3738  135.6761  156.7297 C   0  0  1  0  0  0  0  0  0  0  0  0
  147.9100  134.4192  157.4526 C   0  0  0  0  0  0  0  0  0  0  0  0
  148.0440  134.8146  158.9175 C   0  0  0  0  0  0  0  0  0  0  0  0
  149.1753  135.6728  158.9718 O   0  0  0  0  0  0  0  0  0  0  0  0
  149.5306  136.0910  157.6574 C   0  0  0  0  0  0  0  0  0  0  0  0
  149.3522  136.6958  154.6586 N   0  3  0  0  0  0  0  0  0  0  0  0
  148.6179  137.9829  154.8208 C   0  0  0  0  0  0  0  0  0  0  0  0
  149.2571  139.0617  153.9320 C   0  0  0  0  0  0  0  0  0  0  0  0
  150.6351  139.1981  154.2597 O   0  0  0  0  0  0  0  0  0  0  0  0
  151.3633  137.9972  154.0310 C   0  0  0  0  0  0  0  0  0  0  0  0
  150.8058  136.8731  154.9193 C   0  0  0  0  0  0  0  0  0  0  0  0
  147.3878  133.8109  152.2916 N   0  0  0  0  0  0  0  0  0  0  0  0
  146.1040  133.6902  151.6950 C   0  0  0  0  0  0  0  0  0  0  0  0
  145.5287  134.8520  151.1349 C   0  0  0  0  0  0  0  0  0  0  0  0
  144.2619  134.7735  150.5220 C   0  0  0  0  0  0  0  0  0  0  0  0
  143.6159  133.5891  150.4625 N   0  3  0  0  0  0  0  0  0  0  0  0
  144.1351  132.4480  150.9648 C   0  0  0  0  0  0  0  0  0  0  0  0
  145.3987  132.4649  151.5898 C   0  0  0  0  0  0  0  0  0  0  0  0
  149.3821  133.4327  155.7534 H   0  0  0  0  0  0  0  0  0  0  0  0
  150.6048  134.3676  154.9690 H   0  0  0  0  0  0  0  0  0  0  0  0
  147.7757  135.3533  154.6997 H   0  0  0  0  0  0  0  0  0  0  0  0
  147.5821  136.4224  156.8244 H   0  0  0  0  0  0  0  0  0  0  0  0
  146.8921  134.1234  157.1971 H   0  0  0  0  0  0  0  0  0  0  0  0
  148.5747  133.5834  157.2292 H   0  0  0  0  0  0  0  0  0  0  0  0
  147.1664  135.3749  159.2419 H   0  0  0  0  0  0  0  0  0  0  0  0
  148.1607  133.9535  159.5758 H   0  0  0  0  0  0  0  0  0  0  0  0
  150.4538  135.5805  157.3794 H   0  0  0  0  0  0  0  0  0  0  0  0
  149.7200  137.1646  157.6352 H   0  0  0  0  0  0  0  0  0  0  0  0
  147.5697  137.8652  154.5480 H   0  0  0  0  0  0  0  0  0  0  0  0
  148.6455  138.3138  155.8598 H   0  0  0  0  0  0  0  0  0  0  0  0
  149.1441  138.8128  152.8755 H   0  0  0  0  0  0  0  0  0  0  0  0
  148.7604  140.0195  154.0878 H   0  0  0  0  0  0  0  0  0  0  0  0
  151.3102  137.7220  152.9762 H   0  0  0  0  0  0  0  0  0  0  0  0
  152.4142  138.1720  154.2619 H   0  0  0  0  0  0  0  0  0  0  0  0
  150.9795  137.1176  155.9679 H   0  0  0  0  0  0  0  0  0  0  0  0
  151.3409  135.9458  154.7121 H   0  0  0  0  0  0  0  0  0  0  0  0
  147.9499  134.5832  151.9647 H   0  0  0  0  0  0  0  0  0  0  0  0
  146.0482  135.7983  151.1828 H   0  0  0  0  0  0  0  0  0  0  0  0
  143.7508  135.6160  150.0802 H   0  0  0  0  0  0  0  0  0  0  0  0
  143.5313  131.5599  150.8481 H   0  0  0  0  0  0  0  0  0  0  0  0
  145.8097  131.5408  151.9676 H   0  0  0  0  0  0  0  0  0  0  0  0
  149.3165  136.5231  153.6647 H   0  0  0  0  0  0  0  0  0  0  0  0
  142.6997  133.5536  150.0151 H   0  0  0  0  0  0  0  0  0  0  0  0
  1  2  2  0  0  0  0
  2  3  1  0  0  0  0
  2 17  1  0  0  0  0
  3  4  1  0  0  0  0
  4  5  1  0  0  0  0
  4 24  1  0  0  0  0
  4 25  1  0  0  0  0
  5  6  1  0  0  0  0
  5 11  1  0  0  0  0
  5 26  1  0  0  0  0
  6 10  1  0  0  0  0
  6  7  1  0  0  0  0
  6 27  1  0  0  0  0
  7  8  1  0  0  0  0
  7 28  1  0  0  0  0
  7 29  1  0  0  0  0
  8  9  1  0  0  0  0
  8 30  1  0  0  0  0
  8 31  1  0  0  0  0
  9 10  1  0  0  0  0
 10 32  1  0  0  0  0
 10 33  1  0  0  0  0
 11 16  1  0  0  0  0
 11 12  1  0  0  0  0
 11 47  1  0  0  0  0
 12 13  1  0  0  0  0
 12 34  1  0  0  0  0
 12 35  1  0  0  0  0
 13 14  1  0  0  0  0
 13 36  1  0  0  0  0
 13 37  1  0  0  0  0
 14 15  1  0  0  0  0
 15 16  1  0  0  0  0
 15 38  1  0  0  0  0
 15 39  1  0  0  0  0
 16 40  1  0  0  0  0
 16 41  1  0  0  0  0
 17 18  1  0  0  0  0
 17 42  1  0  0  0  0
 18 23  1  0  0  0  0
 18 19  2  0  0  0  0
 19 20  1  0  0  0  0
 19 43  1  0  0  0  0
 20 21  2  0  0  0  0
 20 44  1  0  0  0  0
 21 22  1  0  0  0  0
 21 48  1  0  0  0  0
 22 23  2  0  0  0  0
 22 45  1  0  0  0  0
 23 46  1  0  0  0  0
M  CHG  1   3  -1
M  CHG  1  11   1
M  CHG  1  21   1
M  END
> <s_m_source_file>
AV-unprocessed.smi

> <i_m_source_file_index>
1240

> <i_lp_mmshare_version>
43012

> <i_f3d_flags>
0

> <s_epik_input>
W2NIXTFbY0hdbltjSF1bY0hdYzFbTkhdQyg9TylbTkhdW0NIMl1bQ0BIXShbQ0BASF0yW0NIMl1bQ0gyXU9bQ0gyXTIpTjNbQ0gyXVtDSDJdT1tDSDJdW0NIMl0z

> <s_epik_cmdline>
J2VwaWtfcHl0aG9uJywgJy1waCcsICc3LjAnLCAnLXRuJywgJzgnLCAnLW1hJywgJzIwMCcsICctbWV0YWxfYmluZGluZycsICctaW1hZScsICc8aW5maWxlLm1hZT4nLCAnLW9tYWUnLCAnPG91dGZpbGUubWFlPic=

> <r_epik_Ionization_Penalty>
8.41087

> <r_epik_Ionization_Penalty_Charging>
8.41087

> <r_epik_Ionization_Penalty_Neutral>
3.12936e-06

> <r_epik_State_Penalty>
8.81894

> <r_epik_Charging_Adjusted_Penalty>
17.2298

> <i_epik_Tot_Q>
1

> <i_epik_Tot_abs_Q>
3

> <r_epik_Metal_State_Penalty>
4.82983

> <b_epik_Metal_Only>
1

> <s_lp_Force_Field>
OPLS_2005

> <r_lp_Energy>
49.5446

> <b_lp_Chiralities_Consistent>
1

> <s_lp_Variant>
AV-unprocessed.smi:1240-20

> <Gold.Version>
5.8.1

> <Gold.Id.Protein>
6NUR|6NUR_protein|mol2

> <Gold.PLP.Fitness>
52.4340

> <Gold.PLP.PLP>
-33.8248

> <Gold.PLP.part.hbond>
-5.0000

> <Gold.PLP.part.metal>
0.0000

> <Gold.PLP.part.buried>
-4.2556

> <Gold.PLP.part.nonpolar>
-24.5470

> <Gold.PLP.part.repulsive>
1.0501

> <Gold.PLP.ligand.clash>
0.0000

> <Gold.PLP.ligand.torsion>
1.4907

> <Gold.PLP.Chemscore.Hbond>
7.0000

> <Gold.PLP.Chemscore.CHOScore>
0.0000

> <Gold.PLP.Chemscore.Metal>
0.0000

> <Gold.Chemscore.Hbonds>
donor molecule, donor type, donor heavy atom, donor atom, acceptor molecule, acceptor atom, score
      L1  H    11    47       P1  7948  2.00
      L1  H    17    42       P1  7948  0.95
      L1  H    21    48       P1 10186  1.98
      P1  H  6896  6908       L1     9  1.00
      P1  H  7989  7998       L1    14  0.88

> <Gold.PLP.Chemscore.Internal.Correction>
0.5906

> <Gold.Rescore>
     Score         DG    S(hbond)    S(metal)    S(lipo)     H(rot)  DE(clash)    DE(int)     intcor
     18.53     -21.66       3.65        0.00      71.40       1.70       0.31       2.81       ----

> <Gold.Chemscore.Fitness>
18.5320

> <Gold.Chemscore.DG>
-21.6566

> <Gold.Chemscore.ZeroCoef>
-5.4800

> <Gold.Chemscore.Hbond>
3.6467

> <Gold.Chemscore.Metal>
0.0000

> <Gold.Chemscore.Lipo>
71.4033

> <Gold.Chemscore.Internal_Hbond>
0.0000

> <Gold.Chemscore.DEClash>
0.3143

> <Gold.Chemscore.DEInternal>
2.8102

> <Gold.Chemscore.Rot>
1.7021

> <Gold.Chemscore.Internal.Correction>
   9.000000E+99

> <Gold.Chemscore.Hbonds>
donor molecule, donor type, donor heavy atom, donor atom, acceptor molecule, acceptor atom, score
      L1  H    11    47       P1  7948  0.93
      L1  H    17    42       P1  7948  0.22
      L1  H    21    48       P1 10186  0.93
      P1  H  6896  6908       L1     9  0.14
      P1  H  7989  7998       L1    14  0.63

> <Gold.Chemscore.Hbond.Weighted>
-12.1799

> <Gold.Chemscore.Metal.Weighted>
-0.0000

> <Gold.Chemscore.Lipo.Weighted>
-8.3542

> <Gold.Chemscore.Internal_Hbond.Weighted>
0.0000

> <Gold.Chemscore.DEClash.Weighted>
0.3143

> <Gold.Chemscore.DEInternal.Weighted>
2.8102

> <Gold.Chemscore.Rot.Weighted>
4.3575

> <Gold.Chemscore.Internal.Correction.Weighted>
   9.000000E+99

> <Gold.Protein.RotatedTorsions>
[ 6907 6896 6895 6894 ] final  155.70 input  -60.11 | X-H torsion
[ 7974 7965 7964 7962 ] final -171.78 input  175.53 | X-H torsion
[ 8008 7997 7996 7995 ] final  -28.43 input   59.86 | X-H torsion
[ 10167 10162 10161 10158 ] final -152.03 input  -65.29 | X-H torsion
[ 10718 10713 10712 10709 ] final   14.77 input   66.30 | X-H torsion
[ 10763 10752 10751 10750 ] final -112.17 input  -60.55 | X-H torsion
[ 11005 11000 10999 10996 ] final   74.72 input  -57.11 | X-H torsion

> <Gold.Protein.ActiveResidues>
 VAL166  LYS551  ARG553  GLY616  TRP617  ASP618  TYR619  PRO620  LYS621  CYS622 
 ASP623  PHE694  ASN695  SER759  ASP760  ASP761  ALA762  ILE779  LEU786  VAL792 
 PHE793  MET794  SER795  GLU796  ALA797  LYS798  CYS799  TRP800  GLU811  SER814 

> <Gold.Protein.RotatedAtoms>
  152.0403  133.3974  159.4333 H   0  0  0  0  0  0  0  0  0  0  0  0  # atno 6907 bound_to 6896
  150.6876  134.3422  159.4882 H   0  0  0  0  0  0  0  0  0  0  0  0  # atno 6908 bound_to 6896
  152.1219  134.9198  160.0613 H   0  0  0  0  0  0  0  0  0  0  0  0  # atno 6909 bound_to 6896
  144.7153  140.1871  143.6352 H   0  0  0  0  0  0  0  0  0  0  0  0  # atno 7974 bound_to 7965
  154.4332  140.1845  156.1089 H   0  0  0  0  0  0  0  0  0  0  0  0  # atno 8008 bound_to 7997
  156.0234  140.3338  155.7037 H   0  0  0  0  0  0  0  0  0  0  0  0  # atno 8009 bound_to 7997
  155.5944  140.0634  157.2741 H   0  0  0  0  0  0  0  0  0  0  0  0  # atno 8010 bound_to 7997
  139.7217  143.8947  152.2505 H   0  0  0  0  0  0  0  0  0  0  0  0  # atno 10167 bound_to 10162
  157.0439  130.6242  149.5756 H   0  0  0  0  0  0  0  0  0  0  0  0  # atno 10718 bound_to 10713
  154.8336  135.4500  154.1152 H   0  0  0  0  0  0  0  0  0  0  0  0  # atno 10763 bound_to 10752
  153.2403  135.6915  153.7796 H   0  0  0  0  0  0  0  0  0  0  0  0  # atno 10764 bound_to 10752
  153.7146  135.3351  155.3230 H   0  0  0  0  0  0  0  0  0  0  0  0  # atno 10765 bound_to 10752
  139.9378  134.7456  156.1182 H   0  0  0  0  0  0  0  0  0  0  0  0  # atno 11005 bound_to 11000
  145.8802  139.2319  143.1609 LP  0  0  0  0  0  0  0  0  0  0  0  0  # atno 17320 bound_to 7965
  146.0002  140.8527  143.0022 LP  0  0  0  0  0  0  0  0  0  0  0  0  # atno 17321 bound_to 7965
  139.8845  144.6999  150.8840 LP  0  0  0  0  0  0  0  0  0  0  0  0  # atno 17342 bound_to 10162
  140.7755  143.3635  151.1784 LP  0  0  0  0  0  0  0  0  0  0  0  0  # atno 17343 bound_to 10162
  156.0029  130.5111  150.7727 LP  0  0  0  0  0  0  0  0  0  0  0  0  # atno 17370 bound_to 10713
  157.5083  131.0923  151.0230 LP  0  0  0  0  0  0  0  0  0  0  0  0  # atno 17371 bound_to 10713
  141.0999  133.6681  156.2730 LP  0  0  0  0  0  0  0  0  0  0  0  0  # atno 17394 bound_to 11000
  140.6031  134.5534  157.5521 LP  0  0  0  0  0  0  0  0  0  0  0  0  # atno 17395 bound_to 11000

$$$$
