AV-unprocessed.smi:34|AV-procd|sdf|226|dock10
  -GOLD-   2262015553D 1   1.00000     0.00000
 Structure written by MMmdl.
 55 59  0  0  0  0  0  0  0  0  1 V2000
  145.8342  132.3161  152.3625 O   0  0  0  0  0  0  0  0  0  0  0  0
  146.7685  131.8367  153.0055 C   0  0  0  0  0  0  0  0  0  0  0  0
  147.4755  132.5940  154.0231 N   0  0  0  0  0  0  0  0  0  0  0  0
  147.2961  133.8871  154.3809 C   0  0  0  0  0  0  0  0  0  0  0  0
  146.0636  134.4446  154.5069 N   0  0  0  0  0  0  0  0  0  0  0  0
  145.9400  135.7260  154.8617 C   0  0  0  0  0  0  0  0  0  0  0  0
  146.9012  136.6089  155.1381 N   0  0  0  0  0  0  0  0  0  0  0  0
  148.1456  136.0580  155.0258 C   0  0  0  0  0  0  0  0  0  0  0  0
  148.4194  134.7138  154.6455 C   0  0  0  0  0  0  0  0  0  0  0  0
  149.7905  134.5047  154.6081 N   0  0  0  0  0  0  0  0  0  0  0  0
  150.2944  135.6613  154.9426 C   0  0  0  0  0  0  0  0  0  0  0  0
  149.3789  136.6464  155.2510 N   0  0  0  0  0  0  0  0  0  0  0  0
  149.6641  138.0731  155.6439 C   0  0  1  0  0  0  0  0  0  0  0  0
  150.3309  138.0819  156.8682 O   0  0  0  0  0  0  0  0  0  0  0  0
  151.7273  138.0087  156.6236 C   0  0  2  0  0  0  0  0  0  0  0  0
  152.5305  138.3555  157.8851 C   0  0  0  0  0  0  0  0  0  0  0  0
  152.5968  139.7673  158.0362 O   0  0  0  0  0  0  0  0  0  0  0  0
  152.8966  140.3223  159.2313 C   0  0  0  0  0  0  0  0  0  0  0  0
  153.4549  139.7153  160.1474 O   0  0  0  0  0  0  0  0  0  0  0  0
  152.4970  141.7557  159.3213 C   0  0  0  0  0  0  0  0  0  0  0  0
  152.6303  142.4355  160.5544 C   0  0  0  0  0  0  0  0  0  0  0  0
  152.2780  143.7942  160.6662 C   0  0  0  0  0  0  0  0  0  0  0  0
  151.7884  144.4901  159.5457 C   0  0  0  0  0  0  0  0  0  0  0  0
  151.6519  143.8254  158.3131 C   0  0  0  0  0  0  0  0  0  0  0  0
  152.0035  142.4664  158.1995 C   0  0  0  0  0  0  0  0  0  0  0  0
  151.8612  139.0218  155.4926 C   0  0  1  0  0  0  0  0  0  0  0  0
  152.9912  138.8544  154.8049 F   0  0  0  0  0  0  0  0  0  0  0  0
  150.6322  138.7349  154.6369 C   0  0  2  0  0  0  0  0  0  0  0  0
  150.1119  139.9292  154.0912 O   0  0  0  0  0  0  0  0  0  0  0  0
  147.1920  130.4063  152.8354 C   0  0  0  0  0  0  0  0  0  0  0  0
  146.5150  129.5735  151.9160 C   0  0  0  0  0  0  0  0  0  0  0  0
  146.9134  128.2340  151.7391 C   0  0  0  0  0  0  0  0  0  0  0  0
  147.9970  127.7179  152.4740 C   0  0  0  0  0  0  0  0  0  0  0  0
  148.6851  128.5433  153.3829 C   0  0  0  0  0  0  0  0  0  0  0  0
  148.2875  129.8829  153.5609 C   0  0  0  0  0  0  0  0  0  0  0  0
  148.2085  132.0996  154.5106 H   0  0  0  0  0  0  0  0  0  0  0  0
  144.9277  136.0953  154.9366 H   0  0  0  0  0  0  0  0  0  0  0  0
  151.3618  135.8247  154.9793 H   0  0  0  0  0  0  0  0  0  0  0  0
  148.6799  138.5378  155.7129 H   0  0  0  0  0  0  0  0  0  0  0  0
  151.9926  137.0116  156.2653 H   0  0  0  0  0  0  0  0  0  0  0  0
  152.0135  137.9611  158.7599 H   0  0  0  0  0  0  0  0  0  0  0  0
  153.5185  137.8927  157.8713 H   0  0  0  0  0  0  0  0  0  0  0  0
  153.0069  141.9222  161.4275 H   0  0  0  0  0  0  0  0  0  0  0  0
  152.3844  144.3028  161.6130 H   0  0  0  0  0  0  0  0  0  0  0  0
  151.5192  145.5325  159.6312 H   0  0  0  0  0  0  0  0  0  0  0  0
  151.2784  144.3591  157.4515 H   0  0  0  0  0  0  0  0  0  0  0  0
  151.8921  141.9880  157.2374 H   0  0  0  0  0  0  0  0  0  0  0  0
  151.8469  140.0390  155.8882 H   0  0  0  0  0  0  0  0  0  0  0  0
  150.8880  138.0447  153.8328 H   0  0  0  0  0  0  0  0  0  0  0  0
  149.2089  140.0120  154.3583 H   0  0  0  0  0  0  0  0  0  0  0  0
  145.6819  129.9544  151.3430 H   0  0  0  0  0  0  0  0  0  0  0  0
  146.3874  127.6026  151.0382 H   0  0  0  0  0  0  0  0  0  0  0  0
  148.3024  126.6909  152.3381 H   0  0  0  0  0  0  0  0  0  0  0  0
  149.5203  128.1495  153.9429 H   0  0  0  0  0  0  0  0  0  0  0  0
  148.8360  130.5004  154.2573 H   0  0  0  0  0  0  0  0  0  0  0  0
  1  2  2  0  0  0  0
  2  3  1  0  0  0  0
  2 30  1  0  0  0  0
  3  4  1  0  0  0  0
  3 36  1  0  0  0  0
  4  9  1  0  0  0  0
  4  5  2  0  0  0  0
  5  6  1  0  0  0  0
  6  7  2  0  0  0  0
  6 37  1  0  0  0  0
  7  8  1  0  0  0  0
  8 12  1  0  0  0  0
  8  9  2  0  0  0  0
  9 10  1  0  0  0  0
 10 11  2  0  0  0  0
 11 12  1  0  0  0  0
 11 38  1  0  0  0  0
 12 13  1  0  0  0  0
 13 28  1  0  0  0  0
 13 14  1  0  0  0  0
 13 39  1  0  0  0  0
 14 15  1  0  0  0  0
 15 16  1  0  0  0  0
 15 26  1  0  0  0  0
 15 40  1  0  0  0  0
 16 17  1  0  0  0  0
 16 41  1  0  0  0  0
 16 42  1  0  0  0  0
 17 18  1  0  0  0  0
 18 19  2  0  0  0  0
 18 20  1  0  0  0  0
 20 25  1  0  0  0  0
 20 21  2  0  0  0  0
 21 22  1  0  0  0  0
 21 43  1  0  0  0  0
 22 23  2  0  0  0  0
 22 44  1  0  0  0  0
 23 24  1  0  0  0  0
 23 45  1  0  0  0  0
 24 25  2  0  0  0  0
 24 46  1  0  0  0  0
 25 47  1  0  0  0  0
 26 27  1  0  0  0  0
 26 28  1  0  0  0  0
 26 48  1  0  0  0  0
 28 29  1  0  0  0  0
 28 49  1  0  0  0  0
 29 50  1  0  0  0  0
 30 35  1  0  0  0  0
 30 31  2  0  0  0  0
 31 32  1  0  0  0  0
 31 51  1  0  0  0  0
 32 33  2  0  0  0  0
 32 52  1  0  0  0  0
 33 34  1  0  0  0  0
 33 53  1  0  0  0  0
 34 35  2  0  0  0  0
 34 54  1  0  0  0  0
 35 55  1  0  0  0  0
M  END
> <s_m_source_file>
AV-unprocessed.smi

> <i_m_source_file_index>
34

> <i_lp_mmshare_version>
43012

> <i_f3d_flags>
0

> <s_epik_input>
W2NIXTFbY0hdW2NIXVtjSF1bY0hdYzFDKD1PKVtOSF1jKG5bY0hdbjIpYyhjMjMpbltjSF1uM1tDQEBIXTRPW0NASF0oW0NAQEhdKEYpW0NASF00W09IXSlbQ0gyXU9DKD1PKWM1W2NIXVtjSF1bY0hdW2NIXVtjSF01

> <s_epik_cmdline>
J2VwaWtfcHl0aG9uJywgJy1waCcsICc3LjAnLCAnLXRuJywgJzgnLCAnLW1hJywgJzIwMCcsICctbWV0YWxfYmluZGluZycsICctaW1hZScsICc8aW5maWxlLm1hZT4nLCAnLW9tYWUnLCAnPG91dGZpbGUubWFlPic=

> <r_lp_tautomer_probability>
1

> <r_epik_Ionization_Penalty>
0.00257489

> <r_epik_Ionization_Penalty_Charging>
0

> <r_epik_Ionization_Penalty_Neutral>
0.00257489

> <r_epik_State_Penalty>
0.00519398

> <r_epik_Charging_Adjusted_Penalty>
0.00519398

> <i_epik_Tot_Q>
0

> <i_epik_Tot_abs_Q>
0

> <r_epik_Metal_State_Penalty>
0.335891

> <b_epik_Metal_Only>
0

> <s_epik_Chemistry_Notes>
This compound has an ester and may undergo hydrolysis at high or low pH. This compound contains an acetal/aminal-like group ( X-CH(R)-Y where X, Y are N, S, or O) that may be acid/base labile, releasing an aldehyde.

> <s_lp_Force_Field>
OPLS_2005

> <r_lp_Energy>
40.9193

> <b_lp_Chiralities_Consistent>
1

> <s_lp_Variant>
AV-unprocessed.smi:34-12

> <Gold.Version>
5.8.1

> <Gold.Id.Protein>
6NUR|6NUR_protein|mol2

> <Gold.PLP.Fitness>
56.7067

> <Gold.PLP.PLP>
-55.6207

> <Gold.PLP.part.hbond>
-3.0000

> <Gold.PLP.part.metal>
0.0000

> <Gold.PLP.part.buried>
-7.1436

> <Gold.PLP.part.nonpolar>
-46.4497

> <Gold.PLP.part.repulsive>
0.4127

> <Gold.PLP.ligand.clash>
0.0000

> <Gold.PLP.ligand.torsion>
1.0360

> <Gold.PLP.Chemscore.Hbond>
0.9920

> <Gold.PLP.Chemscore.CHOScore>
0.0000

> <Gold.PLP.Chemscore.Metal>
0.0000

> <Gold.Chemscore.Hbonds>
donor molecule, donor type, donor heavy atom, donor atom, acceptor molecule, acceptor atom, score
      P1  H  7989  7998       L1    29  0.99

> <Gold.PLP.Chemscore.Internal.Correction>
0.1821

> <Gold.Rescore>
     Score         DG    S(hbond)    S(metal)    S(lipo)     H(rot)  DE(clash)    DE(int)     intcor
     16.40     -18.28       0.98        0.00     141.04       2.72       0.04       1.84       ----

> <Gold.Chemscore.Fitness>
16.4024

> <Gold.Chemscore.DG>
-18.2812

> <Gold.Chemscore.ZeroCoef>
-5.4800

> <Gold.Chemscore.Hbond>
0.9781

> <Gold.Chemscore.Metal>
0.0000

> <Gold.Chemscore.Lipo>
141.0383

> <Gold.Chemscore.Internal_Hbond>
0.0000

> <Gold.Chemscore.DEClash>
0.0391

> <Gold.Chemscore.DEInternal>
1.8397

> <Gold.Chemscore.Rot>
2.7215

> <Gold.Chemscore.Internal.Correction>
   9.000000E+99

> <Gold.Chemscore.Hbonds>
donor molecule, donor type, donor heavy atom, donor atom, acceptor molecule, acceptor atom, score
      P1  H  7989  7998       L1    29  0.47

> <Gold.Chemscore.Hbond.Weighted>
-3.2668

> <Gold.Chemscore.Metal.Weighted>
-0.0000

> <Gold.Chemscore.Lipo.Weighted>
-16.5015

> <Gold.Chemscore.Internal_Hbond.Weighted>
0.0000

> <Gold.Chemscore.DEClash.Weighted>
0.0391

> <Gold.Chemscore.DEInternal.Weighted>
1.8397

> <Gold.Chemscore.Rot.Weighted>
6.9670

> <Gold.Chemscore.Internal.Correction.Weighted>
   9.000000E+99

> <Gold.Protein.RotatedTorsions>
[ 6907 6896 6895 6894 ] final   93.13 input  -60.11 | X-H torsion
[ 7974 7965 7964 7962 ] final  123.90 input  175.53 | X-H torsion
[ 8008 7997 7996 7995 ] final  -90.98 input   59.86 | X-H torsion
[ 10167 10162 10161 10158 ] final  -30.28 input  -65.29 | X-H torsion
[ 10718 10713 10712 10709 ] final   78.13 input   66.30 | X-H torsion
[ 10763 10752 10751 10750 ] final -114.47 input  -60.55 | X-H torsion
[ 11005 11000 10999 10996 ] final  -74.52 input  -57.11 | X-H torsion

> <Gold.Protein.ActiveResidues>
 VAL166  LYS551  ARG553  GLY616  TRP617  ASP618  TYR619  PRO620  LYS621  CYS622 
 ASP623  PHE694  ASN695  SER759  ASP760  ASP761  ALA762  ILE779  LEU786  VAL792 
 PHE793  MET794  SER795  GLU796  ALA797  LYS798  CYS799  TRP800  GLU811  SER814 

> <Gold.Protein.RotatedAtoms>
  152.5453  134.1395  159.8472 H   0  0  0  0  0  0  0  0  0  0  0  0  # atno 6907 bound_to 6896
  151.1433  133.4949  159.2604 H   0  0  0  0  0  0  0  0  0  0  0  0  # atno 6908 bound_to 6896
  151.1550  135.0256  159.8740 H   0  0  0  0  0  0  0  0  0  0  0  0  # atno 6909 bound_to 6896
  145.0906  139.3589  143.4862 H   0  0  0  0  0  0  0  0  0  0  0  0  # atno 7974 bound_to 7965
  154.7052  140.0524  157.0496 H   0  0  0  0  0  0  0  0  0  0  0  0  # atno 8008 bound_to 7997
  155.0630  140.3191  155.4635 H   0  0  0  0  0  0  0  0  0  0  0  0  # atno 8009 bound_to 7997
  156.2772  140.2095  156.5757 H   0  0  0  0  0  0  0  0  0  0  0  0  # atno 8010 bound_to 7997
  140.7251  143.3861  151.1513 H   0  0  0  0  0  0  0  0  0  0  0  0  # atno 10167 bound_to 10162
  157.6734  130.9854  150.1741 H   0  0  0  0  0  0  0  0  0  0  0  0  # atno 10718 bound_to 10713
  154.8441  135.4416  154.1512 H   0  0  0  0  0  0  0  0  0  0  0  0  # atno 10763 bound_to 10752
  153.2672  135.6942  153.7524 H   0  0  0  0  0  0  0  0  0  0  0  0  # atno 10764 bound_to 10752
  153.6778  135.3408  155.3145 H   0  0  0  0  0  0  0  0  0  0  0  0  # atno 10765 bound_to 10752
  141.1636  133.6914  156.7377 H   0  0  0  0  0  0  0  0  0  0  0  0  # atno 11005 bound_to 11000
  146.3531  140.0739  142.8621 LP  0  0  0  0  0  0  0  0  0  0  0  0  # atno 17320 bound_to 7965
  145.1070  140.9381  143.4679 LP  0  0  0  0  0  0  0  0  0  0  0  0  # atno 17321 bound_to 7965
  139.7458  143.8853  152.3063 LP  0  0  0  0  0  0  0  0  0  0  0  0  # atno 17342 bound_to 10162
  139.8690  144.7078  150.9009 LP  0  0  0  0  0  0  0  0  0  0  0  0  # atno 17343 bound_to 10162
  156.2489  130.3698  149.8254 LP  0  0  0  0  0  0  0  0  0  0  0  0  # atno 17370 bound_to 10713
  156.6033  130.8556  151.3437 LP  0  0  0  0  0  0  0  0  0  0  0  0  # atno 17371 bound_to 10713
  140.2698  134.8401  157.3836 LP  0  0  0  0  0  0  0  0  0  0  0  0  # atno 17394 bound_to 11000
  140.1532  134.4823  155.7946 LP  0  0  0  0  0  0  0  0  0  0  0  0  # atno 17395 bound_to 11000

$$$$
