AV-unprocessed.smi:3193|AV-procd|sdf|12208|dock6
  -GOLD-   2272018 43D 1   1.00000     0.00000
 Structure written by MMmdl.
 41 42  0  0  0  0  0  0  0  0  3 V2000
  153.0987  141.3476  159.4575 C   0  0  0  0  0  0  0  0  0  0  0  0
  152.0989  142.5078  159.6246 C   0  0  1  0  0  0  0  0  0  0  0  0
  152.8294  143.7355  160.2088 C   0  0  0  0  0  0  0  0  0  0  0  0
  151.8756  144.9122  160.4544 C   0  0  0  0  0  0  0  0  0  0  0  0
  151.1371  145.2926  159.1667 C   0  0  0  0  0  0  0  0  0  0  0  0
  150.3968  144.0807  158.5839 C   0  0  0  0  0  0  0  0  0  0  0  0
  151.3441  142.8901  158.3154 C   0  0  2  0  0  0  0  0  0  0  0  0
  150.5388  141.7232  157.7005 C   0  0  0  0  0  0  0  0  0  0  0  0
  149.9744  142.0805  156.3843 N   0  3  0  0  0  0  0  0  0  0  0  0
  148.8966  141.1860  155.9177 C   0  0  0  0  0  0  0  0  0  0  0  0
  148.4029  141.5855  154.5174 C   0  0  0  0  0  0  0  0  0  0  0  0
  147.9797  140.4261  153.7228 N   0  0  0  0  0  0  0  0  0  0  0  0
  146.8316  140.3019  152.9825 C   0  0  0  0  0  0  0  0  0  0  0  0
  146.8633  139.0533  152.4169 C   0  0  0  0  0  0  0  0  0  0  0  0
  148.0312  138.4703  152.8300 N   0  3  0  0  0  0  0  0  0  0  0  0
  148.7116  139.3083  153.6190 C   0  0  0  0  0  0  0  0  0  0  0  0
  153.8093  141.5459  158.6544 H   0  0  0  0  0  0  0  0  0  0  0  0
  152.5951  140.4052  159.2442 H   0  0  0  0  0  0  0  0  0  0  0  0
  153.6714  141.1909  160.3722 H   0  0  0  0  0  0  0  0  0  0  0  0
  151.3583  142.1898  160.3605 H   0  0  0  0  0  0  0  0  0  0  0  0
  153.3156  143.4695  161.1481 H   0  0  0  0  0  0  0  0  0  0  0  0
  153.6244  144.0488  159.5304 H   0  0  0  0  0  0  0  0  0  0  0  0
  151.1542  144.6456  161.2279 H   0  0  0  0  0  0  0  0  0  0  0  0
  152.4316  145.7707  160.8326 H   0  0  0  0  0  0  0  0  0  0  0  0
  150.4319  146.0996  159.3677 H   0  0  0  0  0  0  0  0  0  0  0  0
  151.8479  145.6778  158.4346 H   0  0  0  0  0  0  0  0  0  0  0  0
  149.6055  143.7754  159.2703 H   0  0  0  0  0  0  0  0  0  0  0  0
  149.9008  144.3806  157.6599 H   0  0  0  0  0  0  0  0  0  0  0  0
  152.0758  143.2255  157.5782 H   0  0  0  0  0  0  0  0  0  0  0  0
  151.1682  140.8360  157.6163 H   0  0  0  0  0  0  0  0  0  0  0  0
  149.7022  141.4544  158.3471 H   0  0  0  0  0  0  0  0  0  0  0  0
  149.6241  143.0273  156.4266 H   0  0  0  0  0  0  0  0  0  0  0  0
  149.2550  140.1556  155.9039 H   0  0  0  0  0  0  0  0  0  0  0  0
  148.0710  141.2259  156.6291 H   0  0  0  0  0  0  0  0  0  0  0  0
  147.5455  142.2547  154.5983 H   0  0  0  0  0  0  0  0  0  0  0  0
  149.1779  142.1258  153.9711 H   0  0  0  0  0  0  0  0  0  0  0  0
  146.0945  141.0895  152.9148 H   0  0  0  0  0  0  0  0  0  0  0  0
  146.1624  138.5502  151.7661 H   0  0  0  0  0  0  0  0  0  0  0  0
  149.6636  139.1154  154.0814 H   0  0  0  0  0  0  0  0  0  0  0  0
  150.7264  142.0437  155.7111 H   0  0  0  0  0  0  0  0  0  0  0  0
  148.3412  137.5421  152.5691 H   0  0  0  0  0  0  0  0  0  0  0  0
  1  2  1  0  0  0  0
  1 17  1  0  0  0  0
  1 18  1  0  0  0  0
  1 19  1  0  0  0  0
  2  7  1  0  0  0  0
  2  3  1  0  0  0  0
  2 20  1  0  0  0  0
  3  4  1  0  0  0  0
  3 21  1  0  0  0  0
  3 22  1  0  0  0  0
  4  5  1  0  0  0  0
  4 23  1  0  0  0  0
  4 24  1  0  0  0  0
  5  6  1  0  0  0  0
  5 25  1  0  0  0  0
  5 26  1  0  0  0  0
  6  7  1  0  0  0  0
  6 27  1  0  0  0  0
  6 28  1  0  0  0  0
  7  8  1  0  0  0  0
  7 29  1  0  0  0  0
  8  9  1  0  0  0  0
  8 30  1  0  0  0  0
  8 31  1  0  0  0  0
  9 10  1  0  0  0  0
  9 32  1  0  0  0  0
  9 40  1  0  0  0  0
 10 11  1  0  0  0  0
 10 33  1  0  0  0  0
 10 34  1  0  0  0  0
 11 12  1  0  0  0  0
 11 35  1  0  0  0  0
 11 36  1  0  0  0  0
 12 16  1  0  0  0  0
 12 13  1  0  0  0  0
 13 14  2  0  0  0  0
 13 37  1  0  0  0  0
 14 15  1  0  0  0  0
 14 38  1  0  0  0  0
 15 16  2  0  0  0  0
 15 41  1  0  0  0  0
 16 39  1  0  0  0  0
M  CHG  1   9   1
M  CHG  1  15   1
M  END
> <s_m_source_file>
AV-unprocessed.smi

> <i_m_source_file_index>
3193

> <i_lp_mmshare_version>
43012

> <i_f3d_flags>
0

> <s_epik_input>
W0NIM11bQ0BASF0xW0NIMl1bQ0gyXVtDSDJdW0NIMl1bQ0BIXTFbQ0gyXVtOSF1bQ0gyXVtDSDJdbjJbY0hdW2NIXW5bY0hdMg==

> <s_epik_cmdline>
J2VwaWtfcHl0aG9uJywgJy1waCcsICc3LjAnLCAnLXRuJywgJzgnLCAnLW1hJywgJzIwMCcsICctbWV0YWxfYmluZGluZycsICctaW1hZScsICc8aW5maWxlLm1hZT4nLCAnLW9tYWUnLCAnPG91dGZpbGUubWFlPic=

> <r_lp_tautomer_probability>
1

> <r_epik_Ionization_Penalty>
1.50262

> <r_epik_Ionization_Penalty_Charging>
0.00193432

> <r_epik_Ionization_Penalty_Neutral>
1.50068

> <r_epik_State_Penalty>
1.11854

> <r_epik_Charging_Adjusted_Penalty>
1.12048

> <i_epik_Tot_Q>
2

> <i_epik_Tot_abs_Q>
2

> <r_epik_Metal_State_Penalty>
5.11322

> <b_epik_Metal_Only>
0

> <s_lp_Force_Field>
OPLS_2005

> <r_lp_Energy>
27.1702

> <b_lp_Chiralities_Consistent>
1

> <s_lp_Variant>
AV-unprocessed.smi:3193-8

> <Gold.Version>
5.8.1

> <Gold.Id.Protein>
6NUR|6NUR_protein|mol2

> <Gold.PLP.Fitness>
51.1963

> <Gold.PLP.PLP>
-37.6662

> <Gold.PLP.part.hbond>
-3.0000

> <Gold.PLP.part.metal>
0.0000

> <Gold.PLP.part.buried>
-0.9125

> <Gold.PLP.part.nonpolar>
-34.7730

> <Gold.PLP.part.repulsive>
0.1236

> <Gold.PLP.ligand.clash>
0.0000

> <Gold.PLP.ligand.torsion>
0.4524

> <Gold.PLP.Chemscore.Hbond>
4.0000

> <Gold.PLP.Chemscore.CHOScore>
0.8048

> <Gold.PLP.Chemscore.Metal>
0.0000

> <Gold.Chemscore.Hbonds>
donor molecule, donor type, donor heavy atom, donor atom, acceptor molecule, acceptor atom, score
      L1  H     9    32       P1  8028  2.00
      L1  H    15    41       P1  7948  2.00
      L1  C    13    37       P1 10175  0.76

> <Gold.PLP.Chemscore.Internal.Correction>
0.0204

> <Gold.Rescore>
     Score         DG    S(hbond)    S(metal)    S(lipo)     H(rot)  DE(clash)    DE(int)     intcor
     18.75     -19.37       1.90        0.00     107.72       1.98       0.15       0.46       ----

> <Gold.Chemscore.Fitness>
18.7540

> <Gold.Chemscore.DG>
-19.3708

> <Gold.Chemscore.ZeroCoef>
-5.4800

> <Gold.Chemscore.Hbond>
1.9010

> <Gold.Chemscore.Metal>
0.0000

> <Gold.Chemscore.Lipo>
107.7244

> <Gold.Chemscore.Internal_Hbond>
0.0000

> <Gold.Chemscore.DEClash>
0.1521

> <Gold.Chemscore.DEInternal>
0.4647

> <Gold.Chemscore.Rot>
1.9774

> <Gold.Chemscore.Internal.Correction>
   9.000000E+99

> <Gold.Chemscore.Hbonds>
donor molecule, donor type, donor heavy atom, donor atom, acceptor molecule, acceptor atom, score
      L1  H     9    32       P1  8028  0.94
      L1  H    15    41       P1  7948  0.98

> <Gold.Chemscore.Hbond.Weighted>
-6.3493

> <Gold.Chemscore.Metal.Weighted>
-0.0000

> <Gold.Chemscore.Lipo.Weighted>
-12.6038

> <Gold.Chemscore.Internal_Hbond.Weighted>
0.0000

> <Gold.Chemscore.DEClash.Weighted>
0.1521

> <Gold.Chemscore.DEInternal.Weighted>
0.4647

> <Gold.Chemscore.Rot.Weighted>
5.0622

> <Gold.Chemscore.Internal.Correction.Weighted>
   9.000000E+99

> <Gold.Protein.RotatedTorsions>
[ 6907 6896 6895 6894 ] final -169.70 input  -60.11 | X-H torsion
[ 7974 7965 7964 7962 ] final   58.77 input  175.53 | X-H torsion
[ 8008 7997 7996 7995 ] final  -83.81 input   59.86 | X-H torsion
[ 10167 10162 10161 10158 ] final  151.84 input  -65.29 | X-H torsion
[ 10718 10713 10712 10709 ] final   11.90 input   66.30 | X-H torsion
[ 10763 10752 10751 10750 ] final -134.49 input  -60.55 | X-H torsion
[ 11005 11000 10999 10996 ] final  145.74 input  -57.11 | X-H torsion

> <Gold.Protein.ActiveResidues>
 VAL166  LYS551  ARG553  GLY616  TRP617  ASP618  TYR619  PRO620  LYS621  CYS622 
 ASP623  PHE694  ASN695  SER759  ASP760  ASP761  ALA762  ILE779  LEU786  VAL792 
 PHE793  MET794  SER795  GLU796  ALA797  LYS798  CYS799  TRP800  GLU811  SER814 

> <Gold.Protein.RotatedAtoms>
  151.4959  133.3515  159.2860 H   0  0  0  0  0  0  0  0  0  0  0  0  # atno 6907 bound_to 6896
  150.8804  134.8197  159.7232 H   0  0  0  0  0  0  0  0  0  0  0  0  # atno 6908 bound_to 6896
  152.4759  134.4855  159.9731 H   0  0  0  0  0  0  0  0  0  0  0  0  # atno 6909 bound_to 6896
  145.9146  139.3681  143.0515 H   0  0  0  0  0  0  0  0  0  0  0  0  # atno 7974 bound_to 7965
  154.6230  140.0613  156.9639 H   0  0  0  0  0  0  0  0  0  0  0  0  # atno 8008 bound_to 7997
  155.1786  140.3297  155.4361 H   0  0  0  0  0  0  0  0  0  0  0  0  # atno 8009 bound_to 7997
  156.2442  140.1901  156.6884 H   0  0  0  0  0  0  0  0  0  0  0  0  # atno 8010 bound_to 7997
  139.4837  144.5408  151.7568 H   0  0  0  0  0  0  0  0  0  0  0  0  # atno 10167 bound_to 10162
  157.0024  130.6084  149.5698 H   0  0  0  0  0  0  0  0  0  0  0  0  # atno 10718 bound_to 10713
  154.8718  135.3733  154.4744 H   0  0  0  0  0  0  0  0  0  0  0  0  # atno 10763 bound_to 10752
  153.5402  135.7026  153.5645 H   0  0  0  0  0  0  0  0  0  0  0  0  # atno 10764 bound_to 10752
  153.3810  135.3996  155.1821 H   0  0  0  0  0  0  0  0  0  0  0  0  # atno 10765 bound_to 10752
  140.0737  134.9137  157.1387 H   0  0  0  0  0  0  0  0  0  0  0  0  # atno 11005 bound_to 11000
  145.8628  140.9465  143.0691 LP  0  0  0  0  0  0  0  0  0  0  0  0  # atno 17320 bound_to 7965
  144.6746  140.0553  143.7477 LP  0  0  0  0  0  0  0  0  0  0  0  0  # atno 17321 bound_to 7965
  140.4947  144.1258  150.5957 LP  0  0  0  0  0  0  0  0  0  0  0  0  # atno 17342 bound_to 10162
  140.4131  143.2647  151.9808 LP  0  0  0  0  0  0  0  0  0  0  0  0  # atno 17343 bound_to 10162
  156.0166  130.5260  150.8153 LP  0  0  0  0  0  0  0  0  0  0  0  0  # atno 17370 bound_to 10713
  157.5381  131.0939  150.9865 LP  0  0  0  0  0  0  0  0  0  0  0  0  # atno 17371 bound_to 10713
  140.3590  134.2515  155.7189 LP  0  0  0  0  0  0  0  0  0  0  0  0  # atno 17394 bound_to 11000
  141.2021  133.7945  157.0406 LP  0  0  0  0  0  0  0  0  0  0  0  0  # atno 17395 bound_to 11000

$$$$
