AV-unprocessed.smi:320|AV-procd|sdf|2333|dock5
  -GOLD-   2262022233D 1   1.00000     0.00000
 Structure written by MMmdl.
 49 52  0  0  0  0  0  0  0  0  1 V2000
  150.8049  136.8330  157.2691 C   0  0  0  0  0  0  0  0  0  0  0  0
  149.5100  137.6211  157.5461 C   0  0  1  0  0  0  0  0  0  0  0  0
  149.1902  137.4763  158.9676 N   0  0  0  0  0  0  0  0  0  0  0  0
  148.9913  136.3223  159.6236 C   0  0  0  0  0  0  0  0  0  0  0  0
  149.0851  135.2140  159.0951 O   0  0  0  0  0  0  0  0  0  0  0  0
  148.6437  136.4489  161.1130 C   0  0  0  0  0  0  0  0  0  0  0  0
  147.3974  135.7517  161.4708 N   0  0  0  0  0  0  0  0  0  0  0  0
  147.5094  134.4183  161.9133 C   0  0  0  0  0  0  0  0  0  0  0  0
  146.4342  133.6922  162.2583 C   0  0  0  0  0  0  0  0  0  0  0  0
  145.1337  134.3125  162.1677 C   0  0  0  0  0  0  0  0  0  0  0  0
  145.0152  135.5865  161.7437 C   0  0  0  0  0  0  0  0  0  0  0  0
  146.1875  136.3840  161.3644 C   0  0  0  0  0  0  0  0  0  0  0  0
  146.0882  137.5483  160.9750 O   0  0  0  0  0  0  0  0  0  0  0  0
  149.5361  139.1255  157.1214 C   0  0  0  0  0  0  0  0  0  0  0  0
  149.9926  139.3147  155.6456 C   0  0  0  0  0  0  0  0  0  0  0  0
  150.0187  140.8131  155.2719 C   0  0  2  0  0  0  0  0  0  0  0  0
  151.0082  141.5604  156.1893 C   0  0  0  0  0  0  0  0  0  0  0  0
  150.5507  141.4115  157.6546 C   0  0  1  0  0  0  0  0  0  0  0  0
  149.1427  142.0143  157.8263 C   0  0  0  0  0  0  0  0  0  0  0  0
  148.1600  141.2656  156.9047 C   0  0  1  0  0  0  0  0  0  0  0  0
  148.6073  141.4145  155.4359 C   0  0  0  0  0  0  0  0  0  0  0  0
  148.1290  139.7697  157.2837 C   0  0  0  0  0  0  0  0  0  0  0  0
  150.5220  139.9165  158.0333 C   0  0  0  0  0  0  0  0  0  0  0  0
  151.0490  136.8035  156.2083 H   0  0  0  0  0  0  0  0  0  0  0  0
  150.6976  135.7964  157.5907 H   0  0  0  0  0  0  0  0  0  0  0  0
  151.6597  137.2483  157.8027 H   0  0  0  0  0  0  0  0  0  0  0  0
  148.7317  137.1375  156.9531 H   0  0  0  0  0  0  0  0  0  0  0  0
  149.0920  138.3332  159.4925 H   0  0  0  0  0  0  0  0  0  0  0  0
  149.4841  136.0606  161.6898 H   0  0  0  0  0  0  0  0  0  0  0  0
  148.5706  137.5031  161.3880 H   0  0  0  0  0  0  0  0  0  0  0  0
  148.5155  134.0260  161.9457 H   0  0  0  0  0  0  0  0  0  0  0  0
  146.5385  132.6697  162.5903 H   0  0  0  0  0  0  0  0  0  0  0  0
  144.2513  133.7516  162.4390 H   0  0  0  0  0  0  0  0  0  0  0  0
  144.0339  136.0330  161.6808 H   0  0  0  0  0  0  0  0  0  0  0  0
  150.9829  138.8857  155.4897 H   0  0  0  0  0  0  0  0  0  0  0  0
  149.3223  138.7898  154.9651 H   0  0  0  0  0  0  0  0  0  0  0  0
  150.3376  140.9201  154.2347 H   0  0  0  0  0  0  0  0  0  0  0  0
  152.0153  141.1605  156.0646 H   0  0  0  0  0  0  0  0  0  0  0  0
  151.0578  142.6146  155.9138 H   0  0  0  0  0  0  0  0  0  0  0  0
  151.2501  141.9359  158.3064 H   0  0  0  0  0  0  0  0  0  0  0  0
  148.8214  141.9364  158.8658 H   0  0  0  0  0  0  0  0  0  0  0  0
  149.1540  143.0780  157.5848 H   0  0  0  0  0  0  0  0  0  0  0  0
  147.1620  141.6887  157.0226 H   0  0  0  0  0  0  0  0  0  0  0  0
  148.6082  142.4659  155.1459 H   0  0  0  0  0  0  0  0  0  0  0  0
  147.9021  140.9122  154.7723 H   0  0  0  0  0  0  0  0  0  0  0  0
  147.3968  139.2705  156.6497 H   0  0  0  0  0  0  0  0  0  0  0  0
  147.7760  139.6538  158.3095 H   0  0  0  0  0  0  0  0  0  0  0  0
  150.2375  139.8061  159.0807 H   0  0  0  0  0  0  0  0  0  0  0  0
  151.5339  139.5184  157.9527 H   0  0  0  0  0  0  0  0  0  0  0  0
  1  2  1  0  0  0  0
  1 24  1  0  0  0  0
  1 25  1  0  0  0  0
  1 26  1  0  0  0  0
  2  3  1  0  0  0  0
  2 14  1  0  0  0  0
  2 27  1  0  0  0  0
  3  4  1  0  0  0  0
  3 28  1  0  0  0  0
  4  5  2  0  0  0  0
  4  6  1  0  0  0  0
  6  7  1  0  0  0  0
  6 29  1  0  0  0  0
  6 30  1  0  0  0  0
  7 12  1  0  0  0  0
  7  8  1  0  0  0  0
  8  9  2  0  0  0  0
  8 31  1  0  0  0  0
  9 10  1  0  0  0  0
  9 32  1  0  0  0  0
 10 11  2  0  0  0  0
 10 33  1  0  0  0  0
 11 12  1  0  0  0  0
 11 34  1  0  0  0  0
 12 13  2  0  0  0  0
 14 22  1  0  0  0  0
 14 23  1  0  0  0  0
 14 15  1  0  0  0  0
 15 16  1  0  0  0  0
 15 35  1  0  0  0  0
 15 36  1  0  0  0  0
 16 21  1  0  0  0  0
 16 17  1  0  0  0  0
 16 37  1  0  0  0  0
 17 18  1  0  0  0  0
 17 38  1  0  0  0  0
 17 39  1  0  0  0  0
 18 19  1  0  0  0  0
 18 23  1  0  0  0  0
 18 40  1  0  0  0  0
 19 20  1  0  0  0  0
 19 41  1  0  0  0  0
 19 42  1  0  0  0  0
 20 21  1  0  0  0  0
 20 22  1  0  0  0  0
 20 43  1  0  0  0  0
 21 44  1  0  0  0  0
 21 45  1  0  0  0  0
 22 46  1  0  0  0  0
 22 47  1  0  0  0  0
 23 48  1  0  0  0  0
 23 49  1  0  0  0  0
M  END
> <s_m_source_file>
AV-unprocessed.smi

> <i_m_source_file_index>
320

> <i_lp_mmshare_version>
43012

> <i_f3d_flags>
0

> <s_epik_input>
W0NIMl0xW0NAQEhdKFtDSDJdMilbQ0gyXVtDQEBIXShbQ0gyXTMpW0NIMl1bQ0BIXTFbQ0gyXUMyM1tDQEhdKFtDSDNdKVtOSF1DKD1PKVtDSDJdbjRbY0hdW2NIXVtjSF1bY0hdYzQ9Tw==

> <s_epik_cmdline>
J2VwaWtfcHl0aG9uJywgJy1waCcsICc3LjAnLCAnLXRuJywgJzgnLCAnLW1hJywgJzIwMCcsICctbWV0YWxfYmluZGluZycsICctaW1hZScsICc8aW5maWxlLm1hZT4nLCAnLW9tYWUnLCAnPG91dGZpbGUubWFlPic=

> <r_lp_tautomer_probability>
1

> <r_epik_Ionization_Penalty>
4.15949e-07

> <r_epik_Ionization_Penalty_Charging>
3.97363e-07

> <r_epik_Ionization_Penalty_Neutral>
1.85865e-08

> <r_epik_State_Penalty>
-0

> <r_epik_Charging_Adjusted_Penalty>
3.97363e-07

> <i_epik_Tot_Q>
0

> <i_epik_Tot_abs_Q>
0

> <r_epik_Metal_State_Penalty>
-0

> <b_epik_Metal_Only>
0

> <s_lp_Force_Field>
OPLS_2005

> <r_lp_Energy>
45.3355

> <b_lp_Chiralities_Consistent>
1

> <s_lp_Variant>
AV-unprocessed.smi:320-2

> <Gold.Version>
5.8.1

> <Gold.Id.Protein>
6NUR|6NUR_protein|mol2

> <Gold.PLP.Fitness>
40.4029

> <Gold.PLP.PLP>
-35.3182

> <Gold.PLP.part.hbond>
-2.0000

> <Gold.PLP.part.metal>
0.0000

> <Gold.PLP.part.buried>
-3.6692

> <Gold.PLP.part.nonpolar>
-29.4223

> <Gold.PLP.part.repulsive>
0.2135

> <Gold.PLP.ligand.clash>
0.0000

> <Gold.PLP.ligand.torsion>
0.4777

> <Gold.PLP.Chemscore.Hbond>
2.0000

> <Gold.PLP.Chemscore.CHOScore>
0.0000

> <Gold.PLP.Chemscore.Metal>
0.0000

> <Gold.Chemscore.Hbonds>
donor molecule, donor type, donor heavy atom, donor atom, acceptor molecule, acceptor atom, score
      P1  H  6896  6909       L1     5  1.00
      P1  H  6934  6947       L1    13  1.00

> <Gold.PLP.Chemscore.Internal.Correction>
0.0402

> <Gold.Rescore>
     Score         DG    S(hbond)    S(metal)    S(lipo)     H(rot)  DE(clash)    DE(int)     intcor
     15.02     -17.27       1.97        0.00      77.82       1.52       0.59       1.66       ----

> <Gold.Chemscore.Fitness>
15.0212

> <Gold.Chemscore.DG>
-17.2678

> <Gold.Chemscore.ZeroCoef>
-5.4800

> <Gold.Chemscore.Hbond>
1.9683

> <Gold.Chemscore.Metal>
0.0000

> <Gold.Chemscore.Lipo>
77.8245

> <Gold.Chemscore.Internal_Hbond>
0.0000

> <Gold.Chemscore.DEClash>
0.5851

> <Gold.Chemscore.DEInternal>
1.6616

> <Gold.Chemscore.Rot>
1.5202

> <Gold.Chemscore.Internal.Correction>
   9.000000E+99

> <Gold.Chemscore.Hbonds>
donor molecule, donor type, donor heavy atom, donor atom, acceptor molecule, acceptor atom, score
      P1  H  6896  6909       L1     5  0.30
      P1  H  6934  6947       L1    13  1.00

> <Gold.Chemscore.Hbond.Weighted>
-6.5740

> <Gold.Chemscore.Metal.Weighted>
-0.0000

> <Gold.Chemscore.Lipo.Weighted>
-9.1055

> <Gold.Chemscore.Internal_Hbond.Weighted>
0.0000

> <Gold.Chemscore.DEClash.Weighted>
0.5851

> <Gold.Chemscore.DEInternal.Weighted>
1.6616

> <Gold.Chemscore.Rot.Weighted>
3.8916

> <Gold.Chemscore.Internal.Correction.Weighted>
   9.000000E+99

> <Gold.Protein.RotatedTorsions>
[ 6907 6896 6895 6894 ] final   61.17 input  -60.11 | X-H torsion
[ 7974 7965 7964 7962 ] final  -95.79 input  175.53 | X-H torsion
[ 8008 7997 7996 7995 ] final   29.62 input   59.86 | X-H torsion
[ 10167 10162 10161 10158 ] final  -62.50 input  -65.29 | X-H torsion
[ 10718 10713 10712 10709 ] final  -96.61 input   66.30 | X-H torsion
[ 10763 10752 10751 10750 ] final -163.65 input  -60.55 | X-H torsion
[ 11005 11000 10999 10996 ] final  -31.46 input  -57.11 | X-H torsion

> <Gold.Protein.ActiveResidues>
 VAL166  LYS551  ARG553  GLY616  TRP617  ASP618  TYR619  PRO620  LYS621  CYS622 
 ASP623  PHE694  ASN695  SER759  ASP760  ASP761  ALA762  ILE779  LEU786  VAL792 
 PHE793  MET794  SER795  GLU796  ALA797  LYS798  CYS799  TRP800  GLU811  SER814 

> <Gold.Protein.RotatedAtoms>
  152.4066  134.6196  160.0047 H   0  0  0  0  0  0  0  0  0  0  0  0  # atno 6907 bound_to 6896
  151.6386  133.3322  159.3133 H   0  0  0  0  0  0  0  0  0  0  0  0  # atno 6908 bound_to 6896
  150.7960  134.7062  159.6622 H   0  0  0  0  0  0  0  0  0  0  0  0  # atno 6909 bound_to 6896
  145.3554  140.9483  143.2530 H   0  0  0  0  0  0  0  0  0  0  0  0  # atno 7974 bound_to 7965
  155.0775  140.3206  155.4611 H   0  0  0  0  0  0  0  0  0  0  0  0  # atno 8008 bound_to 7997
  156.2775  140.2101  156.5848 H   0  0  0  0  0  0  0  0  0  0  0  0  # atno 8009 bound_to 7997
  154.7005  140.0507  157.0441 H   0  0  0  0  0  0  0  0  0  0  0  0  # atno 8010 bound_to 7997
  140.5935  143.2346  151.6088 H   0  0  0  0  0  0  0  0  0  0  0  0  # atno 10167 bound_to 10162
  156.0066  130.5159  150.6252 H   0  0  0  0  0  0  0  0  0  0  0  0  # atno 10718 bound_to 10713
  154.7103  135.3005  154.9207 H   0  0  0  0  0  0  0  0  0  0  0  0  # atno 10763 bound_to 10752
  154.0111  135.6694  153.4769 H   0  0  0  0  0  0  0  0  0  0  0  0  # atno 10764 bound_to 10752
  153.0750  135.5040  154.8297 H   0  0  0  0  0  0  0  0  0  0  0  0  # atno 10765 bound_to 10752
  140.9470  133.7244  156.1162 H   0  0  0  0  0  0  0  0  0  0  0  0  # atno 11005 bound_to 11000
  144.8686  139.5071  143.6778 LP  0  0  0  0  0  0  0  0  0  0  0  0  # atno 17320 bound_to 7965
  146.2950  139.7251  142.9133 LP  0  0  0  0  0  0  0  0  0  0  0  0  # atno 17321 bound_to 7965
  139.5243  144.3109  152.0994 LP  0  0  0  0  0  0  0  0  0  0  0  0  # atno 17342 bound_to 10162
  140.2277  144.4401  150.6313 LP  0  0  0  0  0  0  0  0  0  0  0  0  # atno 17343 bound_to 10162
  157.4060  131.0817  151.1265 LP  0  0  0  0  0  0  0  0  0  0  0  0  # atno 17370 bound_to 10713
  157.1911  130.6352  149.5705 LP  0  0  0  0  0  0  0  0  0  0  0  0  # atno 17371 bound_to 10713
  140.7656  134.3891  157.5517 LP  0  0  0  0  0  0  0  0  0  0  0  0  # atno 17394 bound_to 11000
  139.8836  134.8989  156.2755 LP  0  0  0  0  0  0  0  0  0  0  0  0  # atno 17395 bound_to 11000

$$$$
