AV-unprocessed.smi:2883|AV-procd|sdf|11079|dock3
  -GOLD-   2272015553D 1   1.00000     0.00000
 Structure written by MMmdl.
 39 41  0  0  0  0  0  0  0  0  1 V2000
  147.1076  129.0513  153.2115 C   0  0  0  0  0  0  0  0  0  0  0  0
  148.2414  129.3419  154.2229 C   0  0  0  0  0  0  0  0  0  0  0  0
  147.6444  129.0736  155.6251 C   0  0  0  0  0  0  0  0  0  0  0  0
  149.4170  128.3805  153.9697 C   0  0  0  0  0  0  0  0  0  0  0  0
  148.7327  130.7945  154.1025 C   0  0  0  0  0  0  0  0  0  0  0  0
  149.6917  131.1912  154.9496 N   0  0  0  0  0  0  0  0  0  0  0  0
  150.0367  132.4961  154.9346 C   0  0  0  0  0  0  0  0  0  0  0  0
  149.3965  133.4230  154.0894 C   0  0  0  0  0  0  0  0  0  0  0  0
  148.3721  132.9166  153.2655 C   0  0  0  0  0  0  0  0  0  0  0  0
  147.6826  133.7854  152.4085 N   0  0  0  0  0  0  0  0  0  0  0  0
  146.6839  133.2799  151.4725 C   0  0  2  0  0  0  0  0  0  0  0  0
  145.8330  134.3898  150.8417 C   0  0  0  0  0  0  0  0  0  0  0  0
  144.4108  133.9400  151.1975 C   0  0  1  0  0  0  0  0  0  0  0  0
  143.9956  132.6694  150.4434 C   0  0  0  0  0  0  0  0  0  0  0  0
  144.8178  131.5982  151.1598 C   0  0  0  0  0  0  0  0  0  0  0  0
  145.6091  132.4335  152.1755 C   0  0  2  0  0  0  0  0  0  0  0  0
  144.6354  133.4151  152.4939 O   0  0  0  0  0  0  0  0  0  0  0  0
  148.0381  131.6057  153.2944 N   0  0  0  0  0  0  0  0  0  0  0  0
  146.7246  128.0365  153.3249 H   0  0  0  0  0  0  0  0  0  0  0  0
  147.4465  129.1452  152.1793 H   0  0  0  0  0  0  0  0  0  0  0  0
  146.2687  129.7348  153.3479 H   0  0  0  0  0  0  0  0  0  0  0  0
  146.8267  129.7607  155.8466 H   0  0  0  0  0  0  0  0  0  0  0  0
  148.3890  129.1816  156.4149 H   0  0  0  0  0  0  0  0  0  0  0  0
  147.2503  128.0596  155.7011 H   0  0  0  0  0  0  0  0  0  0  0  0
  149.1045  127.3390  154.0513 H   0  0  0  0  0  0  0  0  0  0  0  0
  150.2207  128.5400  154.6895 H   0  0  0  0  0  0  0  0  0  0  0  0
  149.8363  128.5218  152.9731 H   0  0  0  0  0  0  0  0  0  0  0  0
  150.8242  132.8039  155.6062 H   0  0  0  0  0  0  0  0  0  0  0  0
  149.6751  134.4664  154.0824 H   0  0  0  0  0  0  0  0  0  0  0  0
  147.9888  134.7432  152.3171 H   0  0  0  0  0  0  0  0  0  0  0  0
  147.1829  132.6792  150.7107 H   0  0  0  0  0  0  0  0  0  0  0  0
  146.0411  135.3619  151.2916 H   0  0  0  0  0  0  0  0  0  0  0  0
  145.9871  134.4766  149.7656 H   0  0  0  0  0  0  0  0  0  0  0  0
  143.6722  134.7411  151.1585 H   0  0  0  0  0  0  0  0  0  0  0  0
  142.9290  132.4758  150.5621 H   0  0  0  0  0  0  0  0  0  0  0  0
  144.2165  132.7315  149.3773 H   0  0  0  0  0  0  0  0  0  0  0  0
  144.1617  130.8915  151.6693 H   0  0  0  0  0  0  0  0  0  0  0  0
  145.4646  131.0371  150.4846 H   0  0  0  0  0  0  0  0  0  0  0  0
  145.9704  131.8557  153.0270 H   0  0  0  0  0  0  0  0  0  0  0  0
  1  2  1  0  0  0  0
  1 19  1  0  0  0  0
  1 20  1  0  0  0  0
  1 21  1  0  0  0  0
  2  3  1  0  0  0  0
  2  4  1  0  0  0  0
  2  5  1  0  0  0  0
  3 22  1  0  0  0  0
  3 23  1  0  0  0  0
  3 24  1  0  0  0  0
  4 25  1  0  0  0  0
  4 26  1  0  0  0  0
  4 27  1  0  0  0  0
  5 18  1  0  0  0  0
  5  6  2  0  0  0  0
  6  7  1  0  0  0  0
  7  8  2  0  0  0  0
  7 28  1  0  0  0  0
  8  9  1  0  0  0  0
  8 29  1  0  0  0  0
  9 10  1  0  0  0  0
  9 18  2  0  0  0  0
 10 11  1  0  0  0  0
 10 30  1  0  0  0  0
 11 16  1  0  0  0  0
 11 12  1  0  0  0  0
 11 31  1  0  0  0  0
 12 13  1  0  0  0  0
 12 32  1  0  0  0  0
 12 33  1  0  0  0  0
 13 17  1  0  0  0  0
 13 14  1  0  0  0  0
 13 34  1  0  0  0  0
 14 15  1  0  0  0  0
 14 35  1  0  0  0  0
 14 36  1  0  0  0  0
 15 16  1  0  0  0  0
 15 37  1  0  0  0  0
 15 38  1  0  0  0  0
 16 17  1  0  0  0  0
 16 39  1  0  0  0  0
M  END
> <s_m_source_file>
AV-unprocessed.smi

> <i_m_source_file_index>
2883

> <i_lp_mmshare_version>
43012

> <i_f3d_flags>
0

> <s_epik_input>
W0NIM11DKFtDSDNdKShbQ0gzXSljMW5bY0hdW2NIXWMobjEpW05IXVtDQEhdKFtDSDJdW0NAQEhdMjMpW0NAQEhdKE8zKVtDSDJdW0NIMl0y

> <s_epik_cmdline>
J2VwaWtfcHl0aG9uJywgJy1waCcsICc3LjAnLCAnLXRuJywgJzgnLCAnLW1hJywgJzIwMCcsICctbWV0YWxfYmluZGluZycsICctaW1hZScsICc8aW5maWxlLm1hZT4nLCAnLW9tYWUnLCAnPG91dGZpbGUubWFlPic=

> <r_lp_tautomer_probability>
1

> <r_epik_Ionization_Penalty>
0.453006

> <r_epik_Ionization_Penalty_Charging>
0

> <r_epik_Ionization_Penalty_Neutral>
0.453006

> <r_epik_State_Penalty>
0.455155

> <r_epik_Charging_Adjusted_Penalty>
0.455155

> <i_epik_Tot_Q>
0

> <i_epik_Tot_abs_Q>
0

> <r_epik_Metal_State_Penalty>
0.255592

> <b_epik_Metal_Only>
0

> <s_lp_Force_Field>
OPLS_2005

> <r_lp_Energy>
33.3258

> <b_lp_Chiralities_Consistent>
1

> <s_lp_Variant>
AV-unprocessed.smi:2883-5

> <Gold.Version>
5.8.1

> <Gold.Id.Protein>
6NUR|6NUR_protein|mol2

> <Gold.PLP.Fitness>
34.9603

> <Gold.PLP.PLP>
-32.2116

> <Gold.PLP.part.hbond>
-1.0000

> <Gold.PLP.part.metal>
0.0000

> <Gold.PLP.part.buried>
-4.0512

> <Gold.PLP.part.nonpolar>
-26.5325

> <Gold.PLP.part.repulsive>
0.3564

> <Gold.PLP.ligand.clash>
0.0000

> <Gold.PLP.ligand.torsion>
0.2020

> <Gold.PLP.Chemscore.Hbond>
1.0000

> <Gold.PLP.Chemscore.CHOScore>
0.0000

> <Gold.PLP.Chemscore.Metal>
0.0000

> <Gold.Chemscore.Hbonds>
donor molecule, donor type, donor heavy atom, donor atom, acceptor molecule, acceptor atom, score
      L1  H    10    30       P1  7948  1.00

> <Gold.PLP.Chemscore.Internal.Correction>
0.1526

> <Gold.Rescore>
     Score         DG    S(hbond)    S(metal)    S(lipo)     H(rot)  DE(clash)    DE(int)     intcor
     12.08     -13.59       0.72        0.00      73.96       1.15       0.07       1.43       ----

> <Gold.Chemscore.Fitness>
12.0820

> <Gold.Chemscore.DG>
-13.5894

> <Gold.Chemscore.ZeroCoef>
-5.4800

> <Gold.Chemscore.Hbond>
0.7171

> <Gold.Chemscore.Metal>
0.0000

> <Gold.Chemscore.Lipo>
73.9614

> <Gold.Chemscore.Internal_Hbond>
0.0000

> <Gold.Chemscore.DEClash>
0.0727

> <Gold.Chemscore.DEInternal>
1.4347

> <Gold.Chemscore.Rot>
1.1482

> <Gold.Chemscore.Internal.Correction>
   9.000000E+99

> <Gold.Chemscore.Hbonds>
donor molecule, donor type, donor heavy atom, donor atom, acceptor molecule, acceptor atom, score
      L1  H    10    30       P1  7948  0.55

> <Gold.Chemscore.Hbond.Weighted>
-2.3952

> <Gold.Chemscore.Metal.Weighted>
-0.0000

> <Gold.Chemscore.Lipo.Weighted>
-8.6535

> <Gold.Chemscore.Internal_Hbond.Weighted>
0.0000

> <Gold.Chemscore.DEClash.Weighted>
0.0727

> <Gold.Chemscore.DEInternal.Weighted>
1.4347

> <Gold.Chemscore.Rot.Weighted>
2.9393

> <Gold.Chemscore.Internal.Correction.Weighted>
   9.000000E+99

> <Gold.Protein.RotatedTorsions>
[ 6907 6896 6895 6894 ] final  -82.90 input  -60.11 | X-H torsion
[ 7974 7965 7964 7962 ] final   96.38 input  175.53 | X-H torsion
[ 8008 7997 7996 7995 ] final -141.94 input   59.86 | X-H torsion
[ 10167 10162 10161 10158 ] final  -94.14 input  -65.29 | X-H torsion
[ 10718 10713 10712 10709 ] final  -42.11 input   66.30 | X-H torsion
[ 10763 10752 10751 10750 ] final  167.44 input  -60.55 | X-H torsion
[ 11005 11000 10999 10996 ] final   84.52 input  -57.11 | X-H torsion

> <Gold.Protein.ActiveResidues>
 VAL166  LYS551  ARG553  GLY616  TRP617  ASP618  TYR619  PRO620  LYS621  CYS622 
 ASP623  PHE694  ASN695  SER759  ASP760  ASP761  ALA762  ILE779  LEU786  VAL792 
 PHE793  MET794  SER795  GLU796  ALA797  LYS798  CYS799  TRP800  GLU811  SER814 

> <Gold.Protein.RotatedAtoms>
  150.6891  134.3595  159.4943 H   0  0  0  0  0  0  0  0  0  0  0  0  # atno 6907 bound_to 6896
  152.1425  134.9048  160.0562 H   0  0  0  0  0  0  0  0  0  0  0  0  # atno 6908 bound_to 6896
  152.0176  133.3851  159.4282 H   0  0  0  0  0  0  0  0  0  0  0  0  # atno 6909 bound_to 6896
  145.4396  139.2302  143.3099 H   0  0  0  0  0  0  0  0  0  0  0  0  # atno 7974 bound_to 7965
  155.4860  140.0564  157.2960 H   0  0  0  0  0  0  0  0  0  0  0  0  # atno 8008 bound_to 7997
  154.4641  140.2010  156.0116 H   0  0  0  0  0  0  0  0  0  0  0  0  # atno 8009 bound_to 7997
  156.0944  140.3228  155.7862 H   0  0  0  0  0  0  0  0  0  0  0  0  # atno 8010 bound_to 7997
  140.3175  143.3069  152.0083 H   0  0  0  0  0  0  0  0  0  0  0  0  # atno 10167 bound_to 10162
  156.2631  130.4199  149.8520 H   0  0  0  0  0  0  0  0  0  0  0  0  # atno 10718 bound_to 10713
  154.3538  135.2753  155.2357 H   0  0  0  0  0  0  0  0  0  0  0  0  # atno 10763 bound_to 10752
  154.4575  135.5915  153.6237 H   0  0  0  0  0  0  0  0  0  0  0  0  # atno 10764 bound_to 10752
  152.9848  135.6057  154.3751 H   0  0  0  0  0  0  0  0  0  0  0  0  # atno 10765 bound_to 10752
  139.8998  134.8222  156.2456 H   0  0  0  0  0  0  0  0  0  0  0  0  # atno 11005 bound_to 11000
  146.2563  140.5143  142.8872 LP  0  0  0  0  0  0  0  0  0  0  0  0  # atno 17320 bound_to 7965
  144.8130  140.6418  143.6403 LP  0  0  0  0  0  0  0  0  0  0  0  0  # atno 17321 bound_to 7965
  139.4881  144.6337  151.7018 LP  0  0  0  0  0  0  0  0  0  0  0  0  # atno 17342 bound_to 10162
  140.5514  144.0420  150.6128 LP  0  0  0  0  0  0  0  0  0  0  0  0  # atno 17343 bound_to 10162
  156.6028  130.8554  151.3436 LP  0  0  0  0  0  0  0  0  0  0  0  0  # atno 17370 bound_to 10713
  157.7258  130.9620  150.1628 LP  0  0  0  0  0  0  0  0  0  0  0  0  # atno 17371 bound_to 10713
  141.0257  133.7017  156.1343 LP  0  0  0  0  0  0  0  0  0  0  0  0  # atno 17394 bound_to 11000
  140.7170  134.4400  157.5578 LP  0  0  0  0  0  0  0  0  0  0  0  0  # atno 17395 bound_to 11000

$$$$
