AV-unprocessed.smi:2119|AV-procd|sdf|8633|dock1
  -GOLD-   2272011383D 1   1.00000     0.00000
 Structure written by MMmdl.
 47 49  0  0  0  0  0  0  0  0  1 V2000
  145.9095  137.9021  154.5998 O   0  0  0  0  0  0  0  0  0  0  0  0
  146.7987  137.3571  153.9468 C   0  0  0  0  0  0  0  0  0  0  0  0
  146.7063  136.1103  153.4647 N   0  0  0  0  0  0  0  0  0  0  0  0
  145.5843  135.2033  153.6787 C   0  0  0  0  0  0  0  0  0  0  0  0
  144.6776  135.0791  152.4223 C   0  0  1  0  0  0  0  0  0  0  0  0
  144.5716  133.6107  151.9134 C   0  0  1  0  0  0  0  0  0  0  0  0
  143.7237  133.4465  150.6613 C   0  0  0  0  0  0  0  0  0  0  0  0
  144.1534  132.0753  150.1589 C   0  0  0  0  0  0  0  0  0  0  0  0
  145.5424  132.0016  150.4467 O   0  0  0  0  0  0  0  0  0  0  0  0
  145.8826  132.9641  151.4407 C   0  0  0  0  0  0  0  0  0  0  0  0
  143.3476  135.6907  152.5955 N   0  0  0  0  0  0  0  0  0  0  0  0
  143.3839  137.0985  152.9825 C   0  0  0  0  0  0  0  0  0  0  0  0
  141.9741  137.7136  152.9987 C   0  0  0  0  0  0  0  0  0  0  0  0
  141.1349  136.9600  153.8687 O   0  0  0  0  0  0  0  0  0  0  0  0
  141.0376  135.5896  153.4920 C   0  0  0  0  0  0  0  0  0  0  0  0
  142.4389  134.9552  153.4741 C   0  0  0  0  0  0  0  0  0  0  0  0
  147.9727  137.9179  153.6103 N   0  0  0  0  0  0  0  0  0  0  0  0
  148.4849  139.1921  153.9762 C   0  0  0  0  0  0  0  0  0  0  0  0
  147.5760  140.2661  154.0694 C   0  0  0  0  0  0  0  0  0  0  0  0
  148.0565  141.5451  154.4086 C   0  0  0  0  0  0  0  0  0  0  0  0
  149.4373  141.7030  154.6347 C   0  0  0  0  0  0  0  0  0  0  0  0
  150.3235  140.6900  154.5368 N   0  0  0  0  0  0  0  0  0  0  0  0
  149.8557  139.4651  154.2122 C   0  0  0  0  0  0  0  0  0  0  0  0
  147.4816  135.7514  152.9272 H   0  0  0  0  0  0  0  0  0  0  0  0
  145.9386  134.2144  153.9741 H   0  0  0  0  0  0  0  0  0  0  0  0
  145.0318  135.5980  154.5298 H   0  0  0  0  0  0  0  0  0  0  0  0
  145.1691  135.6374  151.6241 H   0  0  0  0  0  0  0  0  0  0  0  0
  144.1480  132.9789  152.6956 H   0  0  0  0  0  0  0  0  0  0  0  0
  142.6521  133.5003  150.8571 H   0  0  0  0  0  0  0  0  0  0  0  0
  143.9754  134.2117  149.9254 H   0  0  0  0  0  0  0  0  0  0  0  0
  143.6370  131.2885  150.7105 H   0  0  0  0  0  0  0  0  0  0  0  0
  143.9553  131.9343  149.0963 H   0  0  0  0  0  0  0  0  0  0  0  0
  146.5415  133.7024  150.9823 H   0  0  0  0  0  0  0  0  0  0  0  0
  146.4248  132.4879  152.2578 H   0  0  0  0  0  0  0  0  0  0  0  0
  143.8223  137.2116  153.9733 H   0  0  0  0  0  0  0  0  0  0  0  0
  144.0147  137.6590  152.2918 H   0  0  0  0  0  0  0  0  0  0  0  0
  142.0152  138.7455  153.3474 H   0  0  0  0  0  0  0  0  0  0  0  0
  141.5473  137.7304  151.9946 H   0  0  0  0  0  0  0  0  0  0  0  0
  140.3944  135.0685  154.2008 H   0  0  0  0  0  0  0  0  0  0  0  0
  140.5660  135.5079  152.5115 H   0  0  0  0  0  0  0  0  0  0  0  0
  142.3525  133.9176  153.1539 H   0  0  0  0  0  0  0  0  0  0  0  0
  142.8317  134.9392  154.4913 H   0  0  0  0  0  0  0  0  0  0  0  0
  148.5624  137.3770  152.9950 H   0  0  0  0  0  0  0  0  0  0  0  0
  146.5222  140.1148  153.8860 H   0  0  0  0  0  0  0  0  0  0  0  0
  147.3832  142.3854  154.4921 H   0  0  0  0  0  0  0  0  0  0  0  0
  149.8415  142.6699  154.8958 H   0  0  0  0  0  0  0  0  0  0  0  0
  150.6155  138.7049  154.1228 H   0  0  0  0  0  0  0  0  0  0  0  0
  1  2  2  0  0  0  0
  2  3  1  0  0  0  0
  2 17  1  0  0  0  0
  3  4  1  0  0  0  0
  3 24  1  0  0  0  0
  4  5  1  0  0  0  0
  4 25  1  0  0  0  0
  4 26  1  0  0  0  0
  5  6  1  0  0  0  0
  5 11  1  0  0  0  0
  5 27  1  0  0  0  0
  6 10  1  0  0  0  0
  6  7  1  0  0  0  0
  6 28  1  0  0  0  0
  7  8  1  0  0  0  0
  7 29  1  0  0  0  0
  7 30  1  0  0  0  0
  8  9  1  0  0  0  0
  8 31  1  0  0  0  0
  8 32  1  0  0  0  0
  9 10  1  0  0  0  0
 10 33  1  0  0  0  0
 10 34  1  0  0  0  0
 11 16  1  0  0  0  0
 11 12  1  0  0  0  0
 12 13  1  0  0  0  0
 12 35  1  0  0  0  0
 12 36  1  0  0  0  0
 13 14  1  0  0  0  0
 13 37  1  0  0  0  0
 13 38  1  0  0  0  0
 14 15  1  0  0  0  0
 15 16  1  0  0  0  0
 15 39  1  0  0  0  0
 15 40  1  0  0  0  0
 16 41  1  0  0  0  0
 16 42  1  0  0  0  0
 17 18  1  0  0  0  0
 17 43  1  0  0  0  0
 18 23  1  0  0  0  0
 18 19  2  0  0  0  0
 19 20  1  0  0  0  0
 19 44  1  0  0  0  0
 20 21  2  0  0  0  0
 20 45  1  0  0  0  0
 21 22  1  0  0  0  0
 21 46  1  0  0  0  0
 22 23  2  0  0  0  0
 23 47  1  0  0  0  0
M  END
> <s_m_source_file>
AV-unprocessed.smi

> <i_m_source_file_index>
2119

> <i_lp_mmshare_version>
43012

> <i_f3d_flags>
0

> <s_epik_input>
W2NIXTFuW2NIXVtjSF1bY0hdYzFbTkhdQyg9TylbTkhdW0NIMl1bQ0BIXShbQ0BASF0yW0NIMl1bQ0gyXU9bQ0gyXTIpTjNbQ0gyXVtDSDJdT1tDSDJdW0NIMl0z

> <s_epik_cmdline>
J2VwaWtfcHl0aG9uJywgJy1waCcsICc3LjAnLCAnLXRuJywgJzgnLCAnLW1hJywgJzIwMCcsICctbWV0YWxfYmluZGluZycsICctaW1hZScsICc8aW5maWxlLm1hZT4nLCAnLW9tYWUnLCAnPG91dGZpbGUubWFlPic=

> <r_epik_Ionization_Penalty>
0.129787

> <r_epik_Ionization_Penalty_Charging>
0

> <r_epik_Ionization_Penalty_Neutral>
0.129787

> <r_epik_State_Penalty>
0.121311

> <r_epik_Charging_Adjusted_Penalty>
0.121311

> <i_epik_Tot_Q>
0

> <i_epik_Tot_abs_Q>
0

> <r_epik_Metal_State_Penalty>
0.117931

> <b_epik_Metal_Only>
0

> <s_lp_Force_Field>
OPLS_2005

> <r_lp_Energy>
52.557

> <b_lp_Chiralities_Consistent>
1

> <s_lp_Variant>
AV-unprocessed.smi:2119-4

> <Gold.Version>
5.8.1

> <Gold.Id.Protein>
6NUR|6NUR_protein|mol2

> <Gold.PLP.Fitness>
45.7495

> <Gold.PLP.PLP>
-36.1039

> <Gold.PLP.part.hbond>
-3.0000

> <Gold.PLP.part.metal>
0.0000

> <Gold.PLP.part.buried>
-5.8594

> <Gold.PLP.part.nonpolar>
-29.2259

> <Gold.PLP.part.repulsive>
0.5255

> <Gold.PLP.ligand.clash>
0.0000

> <Gold.PLP.ligand.torsion>
1.1839

> <Gold.PLP.Chemscore.Hbond>
2.8560

> <Gold.PLP.Chemscore.CHOScore>
1.0000

> <Gold.PLP.Chemscore.Metal>
0.0000

> <Gold.Chemscore.Hbonds>
donor molecule, donor type, donor heavy atom, donor atom, acceptor molecule, acceptor atom, score
      L1  H     3    24       P1  7948  0.91
      L1  H    17    43       P1  7948  1.00
      P1  H  7989  7998       L1    22  0.85
      L1  C    21    46       P1  8028  1.00

> <Gold.PLP.Chemscore.Internal.Correction>
0.4454

> <Gold.Rescore>
     Score         DG    S(hbond)    S(metal)    S(lipo)     H(rot)  DE(clash)    DE(int)     intcor
     15.35     -17.98       2.04        0.00      84.60       1.65       0.01       2.62       ----

> <Gold.Chemscore.Fitness>
15.3486

> <Gold.Chemscore.DG>
-17.9808

> <Gold.Chemscore.ZeroCoef>
-5.4800

> <Gold.Chemscore.Hbond>
2.0445

> <Gold.Chemscore.Metal>
0.0000

> <Gold.Chemscore.Lipo>
84.6020

> <Gold.Chemscore.Internal_Hbond>
0.0000

> <Gold.Chemscore.DEClash>
0.0098

> <Gold.Chemscore.DEInternal>
2.6224

> <Gold.Chemscore.Rot>
1.6508

> <Gold.Chemscore.Internal.Correction>
   9.000000E+99

> <Gold.Chemscore.Hbonds>
donor molecule, donor type, donor heavy atom, donor atom, acceptor molecule, acceptor atom, score
      L1  H     3    24       P1  7948  0.88
      L1  H    17    43       P1  7948  0.99
      P1  H  7989  7998       L1    22  0.31

> <Gold.Chemscore.Hbond.Weighted>
-6.8285

> <Gold.Chemscore.Metal.Weighted>
-0.0000

> <Gold.Chemscore.Lipo.Weighted>
-9.8984

> <Gold.Chemscore.Internal_Hbond.Weighted>
0.0000

> <Gold.Chemscore.DEClash.Weighted>
0.0098

> <Gold.Chemscore.DEInternal.Weighted>
2.6224

> <Gold.Chemscore.Rot.Weighted>
4.2262

> <Gold.Chemscore.Internal.Correction.Weighted>
   9.000000E+99

> <Gold.Protein.RotatedTorsions>
[ 6907 6896 6895 6894 ] final  -43.95 input  -60.11 | X-H torsion
[ 7974 7965 7964 7962 ] final    8.52 input  175.53 | X-H torsion
[ 8008 7997 7996 7995 ] final  151.82 input   59.86 | X-H torsion
[ 10167 10162 10161 10158 ] final  -74.83 input  -65.29 | X-H torsion
[ 10718 10713 10712 10709 ] final   92.88 input   66.30 | X-H torsion
[ 10763 10752 10751 10750 ] final   66.69 input  -60.55 | X-H torsion
[ 11005 11000 10999 10996 ] final  -35.28 input  -57.11 | X-H torsion

> <Gold.Protein.ActiveResidues>
 VAL166  LYS551  ARG553  GLY616  TRP617  ASP618  TYR619  PRO620  LYS621  CYS622 
 ASP623  PHE694  ASN695  SER759  ASP760  ASP761  ALA762  ILE779  LEU786  VAL792 
 PHE793  MET794  SER795  GLU796  ALA797  LYS798  CYS799  TRP800  GLU811  SER814 

> <Gold.Protein.RotatedAtoms>
  150.9382  134.8793  159.7595 H   0  0  0  0  0  0  0  0  0  0  0  0  # atno 6907 bound_to 6896
  152.5069  134.3979  159.9416 H   0  0  0  0  0  0  0  0  0  0  0  0  # atno 6908 bound_to 6896
  151.4002  133.3720  159.2766 H   0  0  0  0  0  0  0  0  0  0  0  0  # atno 6909 bound_to 6896
  146.2415  139.9921  142.8424 H   0  0  0  0  0  0  0  0  0  0  0  0  # atno 7974 bound_to 7965
  156.2657  140.2037  156.6236 H   0  0  0  0  0  0  0  0  0  0  0  0  # atno 8008 bound_to 7997
  154.6738  140.0547  157.0217 H   0  0  0  0  0  0  0  0  0  0  0  0  # atno 8009 bound_to 7997
  155.1099  140.3214  155.4527 H   0  0  0  0  0  0  0  0  0  0  0  0  # atno 8010 bound_to 7997
  140.4994  143.2364  151.7778 H   0  0  0  0  0  0  0  0  0  0  0  0  # atno 10167 bound_to 10162
  157.6957  131.0459  150.3949 H   0  0  0  0  0  0  0  0  0  0  0  0  # atno 10718 bound_to 10713
  153.0151  135.5311  154.6862 H   0  0  0  0  0  0  0  0  0  0  0  0  # atno 10763 bound_to 10752
  154.6009  135.2868  155.0538 H   0  0  0  0  0  0  0  0  0  0  0  0  # atno 10764 bound_to 10752
  154.1596  135.6550  153.5035 H   0  0  0  0  0  0  0  0  0  0  0  0  # atno 10765 bound_to 10752
  140.9783  133.7070  156.1641 H   0  0  0  0  0  0  0  0  0  0  0  0  # atno 11005 bound_to 11000
  145.1494  140.9614  143.4442 LP  0  0  0  0  0  0  0  0  0  0  0  0  # atno 17320 bound_to 7965
  145.0220  139.3416  143.6067 LP  0  0  0  0  0  0  0  0  0  0  0  0  # atno 17321 bound_to 7965
  139.4868  144.4543  151.9617 LP  0  0  0  0  0  0  0  0  0  0  0  0  # atno 17342 bound_to 10162
  140.3631  144.2948  150.5930 LP  0  0  0  0  0  0  0  0  0  0  0  0  # atno 17343 bound_to 10162
  156.4348  130.3979  149.6736 LP  0  0  0  0  0  0  0  0  0  0  0  0  # atno 17370 bound_to 10713
  156.3940  130.7641  151.2644 LP  0  0  0  0  0  0  0  0  0  0  0  0  # atno 17371 bound_to 10713
  140.7225  134.4343  157.5573 LP  0  0  0  0  0  0  0  0  0  0  0  0  # atno 17394 bound_to 11000
  139.8940  134.8718  156.2199 LP  0  0  0  0  0  0  0  0  0  0  0  0  # atno 17395 bound_to 11000

$$$$
