AV-unprocessed.smi:1758|AV-procd|sdf|7086|dock3
  -GOLD-   22720 8303D 1   1.00000     0.00000
 Structure written by MMmdl.
 44 46  0  0  0  0  0  0  0  0  2 V2000
  150.9750  140.3749  155.6252 C   0  0  0  0  0  0  0  0  0  0  0  0
  149.9044  141.4340  155.3382 C   0  0  0  0  0  0  0  0  0  0  0  0
  148.7961  140.8841  154.5824 N   0  0  0  0  0  0  0  0  0  0  0  0
  148.6704  139.6153  154.0526 C   0  0  0  0  0  0  0  0  0  0  0  0
  147.4572  139.5894  153.4330 C   0  0  0  0  0  0  0  0  0  0  0  0
  146.9219  138.4697  152.7482 N   0  0  0  0  0  0  0  0  0  0  0  0
  146.0579  137.5612  153.2288 C   0  0  0  0  0  0  0  0  0  0  0  0
  145.6024  137.5524  154.3722 O   0  0  0  0  0  0  0  0  0  0  0  0
  145.7495  136.6428  152.3020 N   0  0  0  0  0  0  0  0  0  0  0  0
  144.8423  135.5162  152.5034 C   0  0  1  0  0  0  0  0  0  0  0  0
  143.4458  135.9419  152.9416 C   0  0  0  0  0  0  0  0  0  0  0  0
  142.6079  134.7079  152.6001 C   0  0  0  0  0  0  0  0  0  0  0  0
  143.2279  134.1127  151.3935 N   0  3  2  0  0  0  0  0  0  0  0  0
  143.2001  132.6299  151.3559 C   0  0  0  0  0  0  0  0  0  0  0  0
  143.8392  132.1026  150.0575 C   0  0  0  0  0  0  0  0  0  0  0  0
  145.2072  132.7467  149.7492 C   0  0  0  0  0  0  0  0  0  0  0  0
  145.6685  133.6988  150.8632 C   0  0  0  0  0  0  0  0  0  0  0  0
  144.5715  134.7318  151.2085 C   0  0  2  0  0  0  0  0  0  0  0  0
  146.8968  140.8845  153.6223 C   0  0  0  0  0  0  0  0  0  0  0  0
  147.7161  141.6597  154.3173 N   0  0  0  0  0  0  0  0  0  0  0  0
  151.8014  140.8032  156.1924 H   0  0  0  0  0  0  0  0  0  0  0  0
  151.3829  139.9651  154.7006 H   0  0  0  0  0  0  0  0  0  0  0  0
  150.5651  139.5485  156.2067 H   0  0  0  0  0  0  0  0  0  0  0  0
  149.5188  141.8430  156.2727 H   0  0  0  0  0  0  0  0  0  0  0  0
  150.3351  142.2678  154.7816 H   0  0  0  0  0  0  0  0  0  0  0  0
  149.4376  138.8627  154.1609 H   0  0  0  0  0  0  0  0  0  0  0  0
  147.2281  138.3501  151.7940 H   0  0  0  0  0  0  0  0  0  0  0  0
  146.1709  136.7317  151.3888 H   0  0  0  0  0  0  0  0  0  0  0  0
  145.2385  134.8425  153.2665 H   0  0  0  0  0  0  0  0  0  0  0  0
  143.3938  136.2086  153.9977 H   0  0  0  0  0  0  0  0  0  0  0  0
  143.1049  136.7980  152.3570 H   0  0  0  0  0  0  0  0  0  0  0  0
  142.6545  134.0016  153.4308 H   0  0  0  0  0  0  0  0  0  0  0  0
  141.5586  134.9502  152.4296 H   0  0  0  0  0  0  0  0  0  0  0  0
  143.7298  132.2313  152.2229 H   0  0  0  0  0  0  0  0  0  0  0  0
  142.1692  132.2824  151.4327 H   0  0  0  0  0  0  0  0  0  0  0  0
  143.9447  131.0190  150.1219 H   0  0  0  0  0  0  0  0  0  0  0  0
  143.1632  132.2872  149.2215 H   0  0  0  0  0  0  0  0  0  0  0  0
  145.9586  131.9740  149.5843 H   0  0  0  0  0  0  0  0  0  0  0  0
  145.1371  133.3031  148.8135 H   0  0  0  0  0  0  0  0  0  0  0  0
  145.9298  133.1172  151.7482 H   0  0  0  0  0  0  0  0  0  0  0  0
  146.5825  134.2090  150.5580 H   0  0  0  0  0  0  0  0  0  0  0  0
  144.4675  135.4313  150.3772 H   0  0  0  0  0  0  0  0  0  0  0  0
  145.9519  141.2885  153.2909 H   0  0  0  0  0  0  0  0  0  0  0  0
  142.6782  134.4236  150.6051 H   0  0  0  0  0  0  0  0  0  0  0  0
  1  2  1  0  0  0  0
  1 21  1  0  0  0  0
  1 22  1  0  0  0  0
  1 23  1  0  0  0  0
  2  3  1  0  0  0  0
  2 24  1  0  0  0  0
  2 25  1  0  0  0  0
  3 20  1  0  0  0  0
  3  4  1  0  0  0  0
  4  5  2  0  0  0  0
  4 26  1  0  0  0  0
  5  6  1  0  0  0  0
  5 19  1  0  0  0  0
  6  7  1  0  0  0  0
  6 27  1  0  0  0  0
  7  8  2  0  0  0  0
  7  9  1  0  0  0  0
  9 10  1  0  0  0  0
  9 28  1  0  0  0  0
 10 18  1  0  0  0  0
 10 11  1  0  0  0  0
 10 29  1  0  0  0  0
 11 12  1  0  0  0  0
 11 30  1  0  0  0  0
 11 31  1  0  0  0  0
 12 13  1  0  0  0  0
 12 32  1  0  0  0  0
 12 33  1  0  0  0  0
 13 18  1  0  0  0  0
 13 14  1  0  0  0  0
 13 44  1  0  0  0  0
 14 15  1  0  0  0  0
 14 34  1  0  0  0  0
 14 35  1  0  0  0  0
 15 16  1  0  0  0  0
 15 36  1  0  0  0  0
 15 37  1  0  0  0  0
 16 17  1  0  0  0  0
 16 38  1  0  0  0  0
 16 39  1  0  0  0  0
 17 18  1  0  0  0  0
 17 40  1  0  0  0  0
 17 41  1  0  0  0  0
 18 42  1  0  0  0  0
 19 20  2  0  0  0  0
 19 43  1  0  0  0  0
M  CHG  1  13   1
M  END
> <s_m_source_file>
AV-unprocessed.smi

> <i_m_source_file_index>
1758

> <i_lp_mmshare_version>
43012

> <i_f3d_flags>
0

> <s_epik_input>
W0NIM11bQ0gyXW4xW2NIXWMoW2NIXW4xKVtOSF1DKD1PKVtOSF1bQ0BIXShbQ0gyXVtDSDJdMilbQ0BASF0oTjIzKVtDSDJdW0NIMl1bQ0gyXVtDSDJdMw==

> <s_epik_cmdline>
J2VwaWtfcHl0aG9uJywgJy1waCcsICc3LjAnLCAnLXRuJywgJzgnLCAnLW1hJywgJzIwMCcsICctbWV0YWxfYmluZGluZycsICctaW1hZScsICc8aW5maWxlLm1hZT4nLCAnLW9tYWUnLCAnPG91dGZpbGUubWFlPic=

> <r_lp_tautomer_probability>
1

> <r_epik_Ionization_Penalty>
0.00111541

> <r_epik_Ionization_Penalty_Charging>
0.000974069

> <r_epik_Ionization_Penalty_Neutral>
0.000141346

> <r_epik_State_Penalty>
0.000633842

> <r_epik_Charging_Adjusted_Penalty>
0.00160791

> <i_epik_Tot_Q>
1

> <i_epik_Tot_abs_Q>
1

> <r_epik_Metal_State_Penalty>
-0

> <b_epik_Metal_Only>
0

> <s_lp_Force_Field>
OPLS_2005

> <r_lp_Energy>
44.0656

> <b_lp_Chiralities_Consistent>
1

> <s_lp_Variant>
AV-unprocessed.smi:1758-8

> <Gold.Version>
5.8.1

> <Gold.Id.Protein>
6NUR|6NUR_protein|mol2

> <Gold.PLP.Fitness>
42.5282

> <Gold.PLP.PLP>
-35.1366

> <Gold.PLP.part.hbond>
-1.9500

> <Gold.PLP.part.metal>
0.0000

> <Gold.PLP.part.buried>
-3.5085

> <Gold.PLP.part.nonpolar>
-31.1857

> <Gold.PLP.part.repulsive>
0.2959

> <Gold.PLP.ligand.clash>
0.0000

> <Gold.PLP.ligand.torsion>
0.7841

> <Gold.PLP.Chemscore.Hbond>
2.0000

> <Gold.PLP.Chemscore.CHOScore>
0.9834

> <Gold.PLP.Chemscore.Metal>
0.0000

> <Gold.Chemscore.Hbonds>
donor molecule, donor type, donor heavy atom, donor atom, acceptor molecule, acceptor atom, score
      L1  H    13    44       P1 10186  2.00
      L1  C    19    43       P1 10175  0.98

> <Gold.PLP.Chemscore.Internal.Correction>
0.0095

> <Gold.Rescore>
     Score         DG    S(hbond)    S(metal)    S(lipo)     H(rot)  DE(clash)    DE(int)     intcor
     16.21     -17.02       1.89        0.00      70.73       1.19       0.00       0.81       ----

> <Gold.Chemscore.Fitness>
16.2114

> <Gold.Chemscore.DG>
-17.0174

> <Gold.Chemscore.ZeroCoef>
-5.4800

> <Gold.Chemscore.Hbond>
1.8874

> <Gold.Chemscore.Metal>
0.0000

> <Gold.Chemscore.Lipo>
70.7316

> <Gold.Chemscore.Internal_Hbond>
0.0000

> <Gold.Chemscore.DEClash>
0.0004

> <Gold.Chemscore.DEInternal>
0.8056

> <Gold.Chemscore.Rot>
1.1884

> <Gold.Chemscore.Internal.Correction>
   9.000000E+99

> <Gold.Chemscore.Hbonds>
donor molecule, donor type, donor heavy atom, donor atom, acceptor molecule, acceptor atom, score
      L1  H    13    44       P1 10186  0.37

> <Gold.Chemscore.Hbond.Weighted>
-6.3041

> <Gold.Chemscore.Metal.Weighted>
-0.0000

> <Gold.Chemscore.Lipo.Weighted>
-8.2756

> <Gold.Chemscore.Internal_Hbond.Weighted>
0.0000

> <Gold.Chemscore.DEClash.Weighted>
0.0004

> <Gold.Chemscore.DEInternal.Weighted>
0.8056

> <Gold.Chemscore.Rot.Weighted>
3.0423

> <Gold.Chemscore.Internal.Correction.Weighted>
   9.000000E+99

> <Gold.Protein.RotatedTorsions>
[ 6907 6896 6895 6894 ] final -107.99 input  -60.11 | X-H torsion
[ 7974 7965 7964 7962 ] final  106.07 input  175.53 | X-H torsion
[ 8008 7997 7996 7995 ] final  133.66 input   59.86 | X-H torsion
[ 10167 10162 10161 10158 ] final   80.38 input  -65.29 | X-H torsion
[ 10718 10713 10712 10709 ] final  176.69 input   66.30 | X-H torsion
[ 10763 10752 10751 10750 ] final -124.45 input  -60.55 | X-H torsion
[ 11005 11000 10999 10996 ] final -105.03 input  -57.11 | X-H torsion

> <Gold.Protein.ActiveResidues>
 VAL166  LYS551  ARG553  GLY616  TRP617  ASP618  TYR619  PRO620  LYS621  CYS622 
 ASP623  PHE694  ASN695  SER759  ASP760  ASP761  ALA762  ILE779  LEU786  VAL792 
 PHE793  MET794  SER795  GLU796  ALA797  LYS798  CYS799  TRP800  GLU811  SER814 

> <Gold.Protein.RotatedAtoms>
  150.7475  133.9745  159.3556 H   0  0  0  0  0  0  0  0  0  0  0  0  # atno 6907 bound_to 6896
  151.7681  135.0791  160.0365 H   0  0  0  0  0  0  0  0  0  0  0  0  # atno 6908 bound_to 6896
  152.3358  133.5973  159.5877 H   0  0  0  0  0  0  0  0  0  0  0  0  # atno 6909 bound_to 6896
  145.3114  139.2539  143.3761 H   0  0  0  0  0  0  0  0  0  0  0  0  # atno 7974 bound_to 7965
  156.2994  140.2516  156.3289 H   0  0  0  0  0  0  0  0  0  0  0  0  # atno 8008 bound_to 7997
  154.9164  140.0402  157.1993 H   0  0  0  0  0  0  0  0  0  0  0  0  # atno 8009 bound_to 7997
  154.8354  140.2882  155.5698 H   0  0  0  0  0  0  0  0  0  0  0  0  # atno 8010 bound_to 7997
  139.9504  144.6030  150.8166 H   0  0  0  0  0  0  0  0  0  0  0  0  # atno 10167 bound_to 10162
  156.9164  130.9926  151.3012 H   0  0  0  0  0  0  0  0  0  0  0  0  # atno 10718 bound_to 10713
  154.8723  135.4063  154.3107 H   0  0  0  0  0  0  0  0  0  0  0  0  # atno 10763 bound_to 10752
  153.3952  135.7016  153.6471 H   0  0  0  0  0  0  0  0  0  0  0  0  # atno 10764 bound_to 10752
  153.5237  135.3682  155.2615 H   0  0  0  0  0  0  0  0  0  0  0  0  # atno 10765 bound_to 10752
  141.1073  133.8773  157.1684 H   0  0  0  0  0  0  0  0  0  0  0  0  # atno 11005 bound_to 11000
  146.3116  140.3651  142.8668 LP  0  0  0  0  0  0  0  0  0  0  0  0  # atno 17320 bound_to 7965
  144.9012  140.7645  143.5865 LP  0  0  0  0  0  0  0  0  0  0  0  0  # atno 17321 bound_to 7965
  140.7584  143.3107  151.2851 LP  0  0  0  0  0  0  0  0  0  0  0  0  # atno 17342 bound_to 10162
  139.6633  144.0150  152.2706 LP  0  0  0  0  0  0  0  0  0  0  0  0  # atno 17343 bound_to 10162
  157.5935  130.8461  149.8694 LP  0  0  0  0  0  0  0  0  0  0  0  0  # atno 17370 bound_to 10713
  156.0511  130.3717  150.1199 LP  0  0  0  0  0  0  0  0  0  0  0  0  # atno 17371 bound_to 10713
  139.9949  135.0050  157.0059 LP  0  0  0  0  0  0  0  0  0  0  0  0  # atno 17394 bound_to 11000
  140.4869  134.1232  155.7226 LP  0  0  0  0  0  0  0  0  0  0  0  0  # atno 17395 bound_to 11000

$$$$
