AV-unprocessed.smi:203|AV-procd|sdf|1595|dock6
  -GOLD-   2262019503D 1   1.00000     0.00000
 Structure written by MMmdl.
 57 61  0  0  0  0  0  0  0  0  1 V2000
  145.9623  129.3300  162.2789 O   0  0  0  0  0  0  0  0  0  0  0  0
  146.1721  130.1439  161.3826 C   0  0  0  0  0  0  0  0  0  0  0  0
  147.5613  130.6057  160.9768 C   0  0  0  0  0  0  0  0  0  0  0  0
  147.2881  131.7790  160.0151 C   0  0  2  0  0  0  0  0  0  0  0  0
  147.6963  133.1751  160.5855 C   0  0  2  0  0  0  0  0  0  0  0  0
  146.9714  133.5158  161.9145 C   0  0  0  0  0  0  0  0  0  0  0  0
  147.3859  134.8912  162.4535 C   0  0  0  0  0  0  0  0  0  0  0  0
  147.1384  135.9640  161.3881 C   0  0  0  0  0  0  0  0  0  0  0  0
  147.8758  135.6061  160.0911 C   0  0  0  0  0  0  0  0  0  0  0  0
  147.5066  134.2720  159.6184 N   0  0  0  0  0  0  0  0  0  0  0  0
  147.9940  134.0649  158.3746 C   0  0  0  0  0  0  0  0  0  0  0  0
  149.3375  134.1477  158.2140 N   0  0  0  0  0  0  0  0  0  0  0  0
  149.8769  133.9660  157.0047 C   0  0  0  0  0  0  0  0  0  0  0  0
  149.2653  133.6952  155.8491 N   0  0  0  0  0  0  0  0  0  0  0  0
  147.9143  133.6027  156.0120 C   0  0  0  0  0  0  0  0  0  0  0  0
  147.1995  133.7702  157.2308 C   0  0  0  0  0  0  0  0  0  0  0  0
  145.8377  133.6028  157.0098 N   0  0  0  0  0  0  0  0  0  0  0  0
  145.7515  133.3550  155.7314 C   0  0  0  0  0  0  0  0  0  0  0  0
  146.9501  133.3397  155.0552 N   0  0  0  0  0  0  0  0  0  0  0  0
  147.1396  133.0953  153.6360 C   0  0  0  0  0  0  0  0  0  0  0  0
  146.2623  134.0143  152.7588 C   0  0  1  0  0  0  0  0  0  0  0  0
  146.9689  135.2210  152.5430 O   0  0  0  0  0  0  0  0  0  0  0  0
  145.9358  133.4062  151.3800 C   0  0  1  0  0  0  0  0  0  0  0  0
  145.3324  132.0006  151.4234 C   0  0  0  0  0  0  0  0  0  0  0  0
  144.5670  131.8984  150.1147 C   0  0  0  0  0  0  0  0  0  0  0  0
  144.3875  133.3551  149.6813 C   0  0  0  0  0  0  0  0  0  0  0  0
  144.8769  134.1288  150.7683 O   0  0  0  0  0  0  0  0  0  0  0  0
  145.7881  131.6609  159.6621 C   0  0  0  0  0  0  0  0  0  0  0  0
  145.2425  130.7364  160.6365 N   0  0  0  0  0  0  0  0  0  0  0  0
  148.1653  130.8830  161.8407 H   0  0  0  0  0  0  0  0  0  0  0  0
  148.0675  129.7878  160.4629 H   0  0  0  0  0  0  0  0  0  0  0  0
  147.8691  131.5810  159.1138 H   0  0  0  0  0  0  0  0  0  0  0  0
  148.7624  133.1328  160.8105 H   0  0  0  0  0  0  0  0  0  0  0  0
  145.8911  133.5085  161.7696 H   0  0  0  0  0  0  0  0  0  0  0  0
  147.1814  132.7648  162.6754 H   0  0  0  0  0  0  0  0  0  0  0  0
  146.8271  135.1249  163.3603 H   0  0  0  0  0  0  0  0  0  0  0  0
  148.4411  134.8785  162.7292 H   0  0  0  0  0  0  0  0  0  0  0  0
  146.0688  136.0500  161.1919 H   0  0  0  0  0  0  0  0  0  0  0  0
  147.4692  136.9377  161.7501 H   0  0  0  0  0  0  0  0  0  0  0  0
  147.6451  136.3494  159.3263 H   0  0  0  0  0  0  0  0  0  0  0  0
  148.9531  135.6466  160.2586 H   0  0  0  0  0  0  0  0  0  0  0  0
  150.9524  134.0512  156.9553 H   0  0  0  0  0  0  0  0  0  0  0  0
  144.8048  133.1786  155.2420 H   0  0  0  0  0  0  0  0  0  0  0  0
  148.1946  133.2268  153.3920 H   0  0  0  0  0  0  0  0  0  0  0  0
  146.9065  132.0469  153.4494 H   0  0  0  0  0  0  0  0  0  0  0  0
  145.3356  134.2388  153.2887 H   0  0  0  0  0  0  0  0  0  0  0  0
  147.8453  135.0093  152.2599 H   0  0  0  0  0  0  0  0  0  0  0  0
  146.8135  133.4099  150.7300 H   0  0  0  0  0  0  0  0  0  0  0  0
  146.0850  131.2191  151.5327 H   0  0  0  0  0  0  0  0  0  0  0  0
  144.6350  131.9172  152.2582 H   0  0  0  0  0  0  0  0  0  0  0  0
  145.1368  131.3465  149.3662 H   0  0  0  0  0  0  0  0  0  0  0  0
  143.6121  131.3902  150.2536 H   0  0  0  0  0  0  0  0  0  0  0  0
  144.9817  133.5671  148.7915 H   0  0  0  0  0  0  0  0  0  0  0  0
  143.3479  133.6019  149.4651 H   0  0  0  0  0  0  0  0  0  0  0  0
  145.2610  132.6147  159.6899 H   0  0  0  0  0  0  0  0  0  0  0  0
  145.6568  131.2412  158.6642 H   0  0  0  0  0  0  0  0  0  0  0  0
  144.2508  130.5748  160.7356 H   0  0  0  0  0  0  0  0  0  0  0  0
  1  2  2  0  0  0  0
  2 29  1  0  0  0  0
  2  3  1  0  0  0  0
  3  4  1  0  0  0  0
  3 30  1  0  0  0  0
  3 31  1  0  0  0  0
  4  5  1  0  0  0  0
  4 28  1  0  0  0  0
  4 32  1  0  0  0  0
  5 10  1  0  0  0  0
  5  6  1  0  0  0  0
  5 33  1  0  0  0  0
  6  7  1  0  0  0  0
  6 34  1  0  0  0  0
  6 35  1  0  0  0  0
  7  8  1  0  0  0  0
  7 36  1  0  0  0  0
  7 37  1  0  0  0  0
  8  9  1  0  0  0  0
  8 38  1  0  0  0  0
  8 39  1  0  0  0  0
  9 10  1  0  0  0  0
  9 40  1  0  0  0  0
  9 41  1  0  0  0  0
 10 11  1  0  0  0  0
 11 16  1  0  0  0  0
 11 12  2  0  0  0  0
 12 13  1  0  0  0  0
 13 14  2  0  0  0  0
 13 42  1  0  0  0  0
 14 15  1  0  0  0  0
 15 19  1  0  0  0  0
 15 16  2  0  0  0  0
 16 17  1  0  0  0  0
 17 18  2  0  0  0  0
 18 19  1  0  0  0  0
 18 43  1  0  0  0  0
 19 20  1  0  0  0  0
 20 21  1  0  0  0  0
 20 44  1  0  0  0  0
 20 45  1  0  0  0  0
 21 22  1  0  0  0  0
 21 23  1  0  0  0  0
 21 46  1  0  0  0  0
 22 47  1  0  0  0  0
 23 27  1  0  0  0  0
 23 24  1  0  0  0  0
 23 48  1  0  0  0  0
 24 25  1  0  0  0  0
 24 49  1  0  0  0  0
 24 50  1  0  0  0  0
 25 26  1  0  0  0  0
 25 51  1  0  0  0  0
 25 52  1  0  0  0  0
 26 27  1  0  0  0  0
 26 53  1  0  0  0  0
 26 54  1  0  0  0  0
 28 29  1  0  0  0  0
 28 55  1  0  0  0  0
 28 56  1  0  0  0  0
 29 57  1  0  0  0  0
M  END
> <s_m_source_file>
AV-unprocessed.smi

> <i_m_source_file_index>
203

> <i_lp_mmshare_version>
43012

> <i_f3d_flags>
0

> <s_epik_input>
Tz1DMVtDSDJdW0NASF0oW0NIMl1bTkhdMSlbQ0BASF0yW0NIMl1bQ0gyXVtDSDJdW0NIMl1OMmMobltjSF1uMyljKGMzNCluW2NIXW40W0NIMl1bQ0BIXShbT0hdKVtDQEBIXTVbQ0gyXVtDSDJdW0NIMl1PNQ==

> <s_epik_cmdline>
J2VwaWtfcHl0aG9uJywgJy1waCcsICc3LjAnLCAnLXRuJywgJzgnLCAnLW1hJywgJzIwMCcsICctbWV0YWxfYmluZGluZycsICctaW1hZScsICc8aW5maWxlLm1hZT4nLCAnLW9tYWUnLCAnPG91dGZpbGUubWFlPic=

> <r_lp_tautomer_probability>
1

> <r_epik_Ionization_Penalty>
0.00175146

> <r_epik_Ionization_Penalty_Charging>
0

> <r_epik_Ionization_Penalty_Neutral>
0.00175146

> <r_epik_State_Penalty>
0.00109045

> <r_epik_Charging_Adjusted_Penalty>
0.00109045

> <i_epik_Tot_Q>
0

> <i_epik_Tot_abs_Q>
0

> <r_epik_Metal_State_Penalty>
-0

> <b_epik_Metal_Only>
0

> <s_lp_Force_Field>
OPLS_2005

> <r_lp_Energy>
56.5765

> <b_lp_Chiralities_Consistent>
1

> <s_lp_Variant>
AV-unprocessed.smi:203-14

> <Gold.Version>
5.8.1

> <Gold.Id.Protein>
6NUR|6NUR_protein|mol2

> <Gold.PLP.Fitness>
42.1062

> <Gold.PLP.PLP>
-34.2619

> <Gold.PLP.part.hbond>
-2.0000

> <Gold.PLP.part.metal>
0.0000

> <Gold.PLP.part.buried>
-6.6423

> <Gold.PLP.part.nonpolar>
-27.0096

> <Gold.PLP.part.repulsive>
0.2316

> <Gold.PLP.ligand.clash>
0.0000

> <Gold.PLP.ligand.torsion>
0.6894

> <Gold.PLP.Chemscore.Hbond>
2.0000

> <Gold.PLP.Chemscore.CHOScore>
0.9774

> <Gold.PLP.Chemscore.Metal>
0.0000

> <Gold.Chemscore.Hbonds>
donor molecule, donor type, donor heavy atom, donor atom, acceptor molecule, acceptor atom, score
      L1  H    22    47       P1  7948  0.45
      P1  H  6896  6907       L1    12  1.00
      L1  C    18    43       P1 10957  0.85

> <Gold.PLP.Chemscore.Internal.Correction>
0.2910

> <Gold.Rescore>
     Score         DG    S(hbond)    S(metal)    S(lipo)     H(rot)  DE(clash)    DE(int)     intcor
     14.29     -14.84       1.86        0.00      86.38       2.72       0.01       0.55       ----

> <Gold.Chemscore.Fitness>
14.2903

> <Gold.Chemscore.DG>
-14.8443

> <Gold.Chemscore.ZeroCoef>
-5.4800

> <Gold.Chemscore.Hbond>
1.8604

> <Gold.Chemscore.Metal>
0.0000

> <Gold.Chemscore.Lipo>
86.3766

> <Gold.Chemscore.Internal_Hbond>
0.0000

> <Gold.Chemscore.DEClash>
0.0073

> <Gold.Chemscore.DEInternal>
0.5466

> <Gold.Chemscore.Rot>
2.7171

> <Gold.Chemscore.Internal.Correction>
   9.000000E+99

> <Gold.Chemscore.Hbonds>
donor molecule, donor type, donor heavy atom, donor atom, acceptor molecule, acceptor atom, score
      L1  H    22    47       P1  7948  0.39
      P1  H  6896  6907       L1    12  0.50

> <Gold.Chemscore.Hbond.Weighted>
-6.2139

> <Gold.Chemscore.Metal.Weighted>
-0.0000

> <Gold.Chemscore.Lipo.Weighted>
-10.1061

> <Gold.Chemscore.Internal_Hbond.Weighted>
0.0000

> <Gold.Chemscore.DEClash.Weighted>
0.0073

> <Gold.Chemscore.DEInternal.Weighted>
0.5466

> <Gold.Chemscore.Rot.Weighted>
6.9557

> <Gold.Chemscore.Internal.Correction.Weighted>
   9.000000E+99

> <Gold.Protein.RotatedTorsions>
[ 6907 6896 6895 6894 ] final -105.53 input  -60.11 | X-H torsion
[ 7974 7965 7964 7962 ] final -116.94 input  175.53 | X-H torsion
[ 8008 7997 7996 7995 ] final   52.34 input   59.86 | X-H torsion
[ 10167 10162 10161 10158 ] final -129.54 input  -65.29 | X-H torsion
[ 10718 10713 10712 10709 ] final   52.66 input   66.30 | X-H torsion
[ 10763 10752 10751 10750 ] final -141.97 input  -60.55 | X-H torsion
[ 11005 11000 10999 10996 ] final  140.05 input  -57.11 | X-H torsion

> <Gold.Protein.ActiveResidues>
 VAL166  LYS551  ARG553  GLY616  TRP617  ASP618  TYR619  PRO620  LYS621  CYS622 
 ASP623  PHE694  ASN695  SER759  ASP760  ASP761  ALA762  ILE779  LEU786  VAL792 
 PHE793  MET794  SER795  GLU796  ALA797  LYS798  CYS799  TRP800  GLU811  SER814 

> <Gold.Protein.RotatedAtoms>
  150.7342  134.0112  159.3670 H   0  0  0  0  0  0  0  0  0  0  0  0  # atno 6907 bound_to 6896
  151.8072  135.0689  160.0417 H   0  0  0  0  0  0  0  0  0  0  0  0  # atno 6908 bound_to 6896
  152.3099  133.5705  159.5710 H   0  0  0  0  0  0  0  0  0  0  0  0  # atno 6909 bound_to 6896
  145.0910  140.8490  143.3982 H   0  0  0  0  0  0  0  0  0  0  0  0  # atno 7974 bound_to 7965
  155.4501  140.3458  155.4300 H   0  0  0  0  0  0  0  0  0  0  0  0  # atno 8008 bound_to 7997
  156.1225  140.1491  156.9213 H   0  0  0  0  0  0  0  0  0  0  0  0  # atno 8009 bound_to 7997
  154.4834  140.0863  156.7409 H   0  0  0  0  0  0  0  0  0  0  0  0  # atno 8010 bound_to 7997
  139.9387  143.6188  152.2509 H   0  0  0  0  0  0  0  0  0  0  0  0  # atno 10167 bound_to 10162
  157.5095  130.8491  149.8417 H   0  0  0  0  0  0  0  0  0  0  0  0  # atno 10718 bound_to 10713
  154.8526  135.3509  154.5953 H   0  0  0  0  0  0  0  0  0  0  0  0  # atno 10763 bound_to 10752
  153.6562  135.6992  153.5197 H   0  0  0  0  0  0  0  0  0  0  0  0  # atno 10764 bound_to 10752
  153.2854  135.4251  155.1075 H   0  0  0  0  0  0  0  0  0  0  0  0  # atno 10765 bound_to 10752
  140.0299  134.9357  157.0641 H   0  0  0  0  0  0  0  0  0  0  0  0  # atno 11005 bound_to 11000
  145.1066  139.2786  143.5659 LP  0  0  0  0  0  0  0  0  0  0  0  0  # atno 17320 bound_to 7965
  146.3531  140.0649  142.8627 LP  0  0  0  0  0  0  0  0  0  0  0  0  # atno 17321 bound_to 7965
  139.6722  144.7660  151.1762 LP  0  0  0  0  0  0  0  0  0  0  0  0  # atno 17342 bound_to 10162
  140.7617  143.5848  150.8857 LP  0  0  0  0  0  0  0  0  0  0  0  0  # atno 17343 bound_to 10162
  156.0280  130.3773  150.1768 LP  0  0  0  0  0  0  0  0  0  0  0  0  # atno 17370 bound_to 10713
  156.9958  130.9907  151.3403 LP  0  0  0  0  0  0  0  0  0  0  0  0  # atno 17371 bound_to 10713
  140.4244  134.1847  155.7165 LP  0  0  0  0  0  0  0  0  0  0  0  0  # atno 17394 bound_to 11000
  141.1825  133.8384  157.1208 LP  0  0  0  0  0  0  0  0  0  0  0  0  # atno 17395 bound_to 11000

$$$$
