AV-unprocessed.smi:31|AV-procd|sdf|195|dock5
  -GOLD-   2262015463D 1   1.00000     0.00000
 Structure written by MMmdl.
 49 52  0  0  0  0  0  0  0  0  1 V2000
  150.5237  134.2313  157.1067 O   0  0  0  0  0  0  0  0  0  0  0  0
  149.9341  134.9974  156.3431 C   0  0  0  0  0  0  0  0  0  0  0  0
  150.1502  134.9041  154.8240 C   0  0  0  0  0  0  0  0  0  0  0  0
  149.5316  133.7074  154.2121 N   0  0  0  0  0  0  0  0  0  0  0  0
  150.3482  132.5824  153.9369 C   0  0  0  0  0  0  0  0  0  0  0  0
  151.5559  132.5947  154.1797 O   0  0  0  0  0  0  0  0  0  0  0  0
  149.6604  131.4294  153.3667 C   0  0  0  0  0  0  0  0  0  0  0  0
  150.3550  130.3156  153.0780 F   0  0  0  0  0  0  0  0  0  0  0  0
  148.3331  131.4598  153.1293 C   0  0  0  0  0  0  0  0  0  0  0  0
  147.5487  132.5657  153.4018 N   0  0  0  0  0  0  0  0  0  0  0  0
  146.0577  132.5565  153.1470 C   0  0  2  0  0  0  0  0  0  0  0  0
  145.6150  131.1758  152.6500 C   0  0  0  0  0  0  0  0  0  0  0  0
  145.6637  131.3555  151.1486 C   0  0  0  0  0  0  0  0  0  0  0  0
  145.2297  132.8093  151.0004 C   0  0  0  0  0  0  0  0  0  0  0  0
  145.7590  133.4813  152.1406 O   0  0  0  0  0  0  0  0  0  0  0  0
  148.1381  133.7181  153.9651 C   0  0  0  0  0  0  0  0  0  0  0  0
  147.4519  134.7035  154.2459 O   0  0  0  0  0  0  0  0  0  0  0  0
  149.0629  135.9436  156.7379 N   0  0  0  0  0  0  0  0  0  0  0  0
  148.6438  136.2621  158.0578 C   0  0  0  0  0  0  0  0  0  0  0  0
  148.4340  137.6204  158.3611 C   0  0  0  0  0  0  0  0  0  0  0  0
  148.0138  138.0039  159.6472 C   0  0  0  0  0  0  0  0  0  0  0  0
  147.8047  137.0428  160.6562 C   0  0  0  0  0  0  0  0  0  0  0  0
  148.0863  135.6727  160.3795 C   0  0  0  0  0  0  0  0  0  0  0  0
  148.4816  135.2972  159.0793 C   0  0  0  0  0  0  0  0  0  0  0  0
  148.0208  134.6627  161.3146 O   0  0  0  0  0  0  0  0  0  0  0  0
  148.3778  135.0149  162.6430 C   0  0  0  0  0  0  0  0  0  0  0  0
  147.1901  135.6227  163.3920 C   0  0  0  0  0  0  0  0  0  0  0  0
  146.4263  136.6435  162.5461 C   0  0  0  0  0  0  0  0  0  0  0  0
  147.3179  137.5084  161.8579 O   0  0  0  0  0  0  0  0  0  0  0  0
  149.7662  135.8137  154.3592 H   0  0  0  0  0  0  0  0  0  0  0  0
  151.2228  134.9404  154.6274 H   0  0  0  0  0  0  0  0  0  0  0  0
  147.8769  130.5734  152.7144 H   0  0  0  0  0  0  0  0  0  0  0  0
  145.5860  132.8650  154.0811 H   0  0  0  0  0  0  0  0  0  0  0  0
  146.2517  130.3728  153.0238 H   0  0  0  0  0  0  0  0  0  0  0  0
  144.5909  130.9986  152.9805 H   0  0  0  0  0  0  0  0  0  0  0  0
  146.6836  131.2247  150.7850 H   0  0  0  0  0  0  0  0  0  0  0  0
  145.0179  130.6602  150.6119 H   0  0  0  0  0  0  0  0  0  0  0  0
  145.5798  133.2600  150.0717 H   0  0  0  0  0  0  0  0  0  0  0  0
  144.1418  132.8839  151.0255 H   0  0  0  0  0  0  0  0  0  0  0  0
  148.5856  136.4398  155.9994 H   0  0  0  0  0  0  0  0  0  0  0  0
  148.5744  138.3755  157.6012 H   0  0  0  0  0  0  0  0  0  0  0  0
  147.8247  139.0468  159.8550 H   0  0  0  0  0  0  0  0  0  0  0  0
  148.6920  134.2551  158.8951 H   0  0  0  0  0  0  0  0  0  0  0  0
  148.7176  134.1183  163.1617 H   0  0  0  0  0  0  0  0  0  0  0  0
  149.2274  135.7009  162.6405 H   0  0  0  0  0  0  0  0  0  0  0  0
  146.5023  134.8357  163.7021 H   0  0  0  0  0  0  0  0  0  0  0  0
  147.5526  136.0930  164.3064 H   0  0  0  0  0  0  0  0  0  0  0  0
  145.7604  136.1426  161.8405 H   0  0  0  0  0  0  0  0  0  0  0  0
  145.7839  137.2447  163.1895 H   0  0  0  0  0  0  0  0  0  0  0  0
  1  2  2  0  0  0  0
  2  3  1  0  0  0  0
  2 18  1  0  0  0  0
  3  4  1  0  0  0  0
  3 30  1  0  0  0  0
  3 31  1  0  0  0  0
  4 16  1  0  0  0  0
  4  5  1  0  0  0  0
  5  6  2  0  0  0  0
  5  7  1  0  0  0  0
  7  8  1  0  0  0  0
  7  9  2  0  0  0  0
  9 10  1  0  0  0  0
  9 32  1  0  0  0  0
 10 11  1  0  0  0  0
 10 16  1  0  0  0  0
 11 15  1  0  0  0  0
 11 12  1  0  0  0  0
 11 33  1  0  0  0  0
 12 13  1  0  0  0  0
 12 34  1  0  0  0  0
 12 35  1  0  0  0  0
 13 14  1  0  0  0  0
 13 36  1  0  0  0  0
 13 37  1  0  0  0  0
 14 15  1  0  0  0  0
 14 38  1  0  0  0  0
 14 39  1  0  0  0  0
 16 17  2  0  0  0  0
 18 19  1  0  0  0  0
 18 40  1  0  0  0  0
 19 24  1  0  0  0  0
 19 20  2  0  0  0  0
 20 21  1  0  0  0  0
 20 41  1  0  0  0  0
 21 22  2  0  0  0  0
 21 42  1  0  0  0  0
 22 29  1  0  0  0  0
 22 23  1  0  0  0  0
 23 24  2  0  0  0  0
 23 25  1  0  0  0  0
 24 43  1  0  0  0  0
 25 26  1  0  0  0  0
 26 27  1  0  0  0  0
 26 44  1  0  0  0  0
 26 45  1  0  0  0  0
 27 28  1  0  0  0  0
 27 46  1  0  0  0  0
 27 47  1  0  0  0  0
 28 29  1  0  0  0  0
 28 48  1  0  0  0  0
 28 49  1  0  0  0  0
M  END
> <s_m_source_file>
AV-unprocessed.smi

> <i_m_source_file_index>
31

> <i_lp_mmshare_version>
43012

> <i_f3d_flags>
0

> <s_epik_input>
TzFbQ0gyXVtDSDJdW0NIMl1PYyhjMTIpW2NIXWMoW2NIXVtjSF0yKVtOSF1DKD1PKVtDSDJdbjNjKD1PKWMoRilbY0hdbihjMz1PKVtDQEBIXTRbQ0gyXVtDSDJdW0NIMl1PNA==

> <s_epik_cmdline>
J2VwaWtfcHl0aG9uJywgJy1waCcsICc3LjAnLCAnLXRuJywgJzgnLCAnLW1hJywgJzIwMCcsICctbWV0YWxfYmluZGluZycsICctaW1hZScsICc8aW5maWxlLm1hZT4nLCAnLW9tYWUnLCAnPG91dGZpbGUubWFlPic=

> <r_lp_tautomer_probability>
1

> <r_epik_Ionization_Penalty>
1.0483e-05

> <r_epik_Ionization_Penalty_Charging>
3.88729e-08

> <r_epik_Ionization_Penalty_Neutral>
1.04441e-05

> <r_epik_State_Penalty>
-0

> <r_epik_Charging_Adjusted_Penalty>
3.88729e-08

> <i_epik_Tot_Q>
0

> <i_epik_Tot_abs_Q>
0

> <r_epik_Metal_State_Penalty>
-0

> <b_epik_Metal_Only>
0

> <s_epik_Chemistry_Notes>
This compound contains an acetal/aminal-like group ( X-CH(R)-Y where X, Y are N, S, or O) that may be acid/base labile, releasing an aldehyde.

> <s_lp_Force_Field>
OPLS_2005

> <r_lp_Energy>
45.2544

> <b_lp_Chiralities_Consistent>
1

> <s_lp_Variant>
AV-unprocessed.smi:31-1

> <Gold.Version>
5.8.1

> <Gold.Id.Protein>
6NUR|6NUR_protein|mol2

> <Gold.PLP.Fitness>
51.7125

> <Gold.PLP.PLP>
-45.0659

> <Gold.PLP.part.hbond>
-2.8305

> <Gold.PLP.part.metal>
0.0000

> <Gold.PLP.part.buried>
-3.7649

> <Gold.PLP.part.nonpolar>
-38.3180

> <Gold.PLP.part.repulsive>
0.3937

> <Gold.PLP.ligand.clash>
0.0000

> <Gold.PLP.ligand.torsion>
0.7232

> <Gold.PLP.Chemscore.Hbond>
2.6858

> <Gold.PLP.Chemscore.CHOScore>
0.0000

> <Gold.PLP.Chemscore.Metal>
0.0000

> <Gold.Chemscore.Hbonds>
donor molecule, donor type, donor heavy atom, donor atom, acceptor molecule, acceptor atom, score
      P1  H  6896  6909       L1     1  0.23
      P1  H  6931  6943       L1    29  0.04
      P1  H  6934  6947       L1    29  0.11
      L1  C     9    32       P1 10747  0.20

> <Gold.PLP.Chemscore.Internal.Correction>
0.0357

> <Gold.Rescore>
     Score         DG    S(hbond)    S(metal)    S(lipo)     H(rot)  DE(clash)    DE(int)     intcor
     12.32     -15.16       1.04        0.00      89.15       1.64       0.08       2.76       ----

> <Gold.Chemscore.Fitness>
12.3198

> <Gold.Chemscore.DG>
-15.1628

> <Gold.Chemscore.ZeroCoef>
-5.4800

> <Gold.Chemscore.Hbond>
1.0352

> <Gold.Chemscore.Metal>
0.0000

> <Gold.Chemscore.Lipo>
89.1489

> <Gold.Chemscore.Internal_Hbond>
0.0000

> <Gold.Chemscore.DEClash>
0.0843

> <Gold.Chemscore.DEInternal>
2.7587

> <Gold.Chemscore.Rot>
1.6427

> <Gold.Chemscore.Internal.Correction>
   9.000000E+99

> <Gold.Chemscore.Hbonds>
donor molecule, donor type, donor heavy atom, donor atom, acceptor molecule, acceptor atom, score
      P1  H  6896  6909       L1     1  0.23

> <Gold.Chemscore.Hbond.Weighted>
-3.4577

> <Gold.Chemscore.Metal.Weighted>
-0.0000

> <Gold.Chemscore.Lipo.Weighted>
-10.4304

> <Gold.Chemscore.Internal_Hbond.Weighted>
0.0000

> <Gold.Chemscore.DEClash.Weighted>
0.0843

> <Gold.Chemscore.DEInternal.Weighted>
2.7587

> <Gold.Chemscore.Rot.Weighted>
4.2053

> <Gold.Chemscore.Internal.Correction.Weighted>
   9.000000E+99

> <Gold.Protein.RotatedTorsions>
[ 6907 6896 6895 6894 ] final  -20.65 input  -60.11 | X-H torsion
[ 7974 7965 7964 7962 ] final   61.69 input  175.53 | X-H torsion
[ 8008 7997 7996 7995 ] final  177.56 input   59.86 | X-H torsion
[ 10167 10162 10161 10158 ] final  -18.08 input  -65.29 | X-H torsion
[ 10718 10713 10712 10709 ] final  -62.54 input   66.30 | X-H torsion
[ 10763 10752 10751 10750 ] final  -33.24 input  -60.55 | X-H torsion
[ 11005 11000 10999 10996 ] final  100.63 input  -57.11 | X-H torsion

> <Gold.Protein.ActiveResidues>
 VAL166  LYS551  ARG553  GLY616  TRP617  ASP618  TYR619  PRO620  LYS621  CYS622 
 ASP623  PHE694  ASN695  SER759  ASP760  ASP761  ALA762  ILE779  LEU786  VAL792 
 PHE793  MET794  SER795  GLU796  ALA797  LYS798  CYS799  TRP800  GLU811  SER814 

> <Gold.Protein.RotatedAtoms>
  151.2450  135.0602  159.9039 H   0  0  0  0  0  0  0  0  0  0  0  0  # atno 6907 bound_to 6896
  152.5388  134.0393  159.8070 H   0  0  0  0  0  0  0  0  0  0  0  0  # atno 6908 bound_to 6896
  151.0592  133.5509  159.2667 H   0  0  0  0  0  0  0  0  0  0  0  0  # atno 6909 bound_to 6896
  145.8819  139.3449  143.0701 H   0  0  0  0  0  0  0  0  0  0  0  0  # atno 7974 bound_to 7965
  156.0643  140.1355  156.9904 H   0  0  0  0  0  0  0  0  0  0  0  0  # atno 8008 bound_to 7997
  154.4498  140.0985  156.6635 H   0  0  0  0  0  0  0  0  0  0  0  0  # atno 8009 bound_to 7997
  155.5328  140.3459  155.4432 H   0  0  0  0  0  0  0  0  0  0  0  0  # atno 8010 bound_to 7997
  140.7255  143.4951  150.9941 H   0  0  0  0  0  0  0  0  0  0  0  0  # atno 10167 bound_to 10162
  156.0848  130.4210  150.1150 H   0  0  0  0  0  0  0  0  0  0  0  0  # atno 10718 bound_to 10713
  153.8269  135.6869  153.4819 H   0  0  0  0  0  0  0  0  0  0  0  0  # atno 10763 bound_to 10752
  153.1535  135.4608  154.9668 H   0  0  0  0  0  0  0  0  0  0  0  0  # atno 10764 bound_to 10752
  154.7903  135.3299  154.7736 H   0  0  0  0  0  0  0  0  0  0  0  0  # atno 10765 bound_to 10752
  139.8771  134.9148  156.4785 H   0  0  0  0  0  0  0  0  0  0  0  0  # atno 11005 bound_to 11000
  145.9013  140.9241  143.0501 LP  0  0  0  0  0  0  0  0  0  0  0  0  # atno 17320 bound_to 7965
  144.6727  140.1036  143.7459 LP  0  0  0  0  0  0  0  0  0  0  0  0  # atno 17321 bound_to 7965
  139.8658  143.7256  152.3170 LP  0  0  0  0  0  0  0  0  0  0  0  0  # atno 17342 bound_to 10162
  139.7487  144.7540  151.0539 LP  0  0  0  0  0  0  0  0  0  0  0  0  # atno 17343 bound_to 10162
  156.9173  130.9671  151.3554 LP  0  0  0  0  0  0  0  0  0  0  0  0  # atno 17370 bound_to 10713
  157.5979  130.8491  149.8757 LP  0  0  0  0  0  0  0  0  0  0  0  0  # atno 17371 bound_to 10713
  140.8744  133.7964  155.9399 LP  0  0  0  0  0  0  0  0  0  0  0  0  # atno 17394 bound_to 11000
  140.8919  134.2485  157.5090 LP  0  0  0  0  0  0  0  0  0  0  0  0  # atno 17395 bound_to 11000

$$$$
