AV-unprocessed.smi:3112|AV-procd|sdf|11841|dock3
  -GOLD-   2272017213D 1   1.00000     0.00000
 Structure written by MMmdl.
 37 37  0  0  0  0  0  0  0  0  2 V2000
  146.4252  142.1297  154.8618 C   0  0  0  0  0  0  0  0  0  0  0  0
  147.7390  142.0782  154.0696 C   0  0  0  0  0  0  0  0  0  0  0  0
  148.5958  140.8383  154.3833 C   0  0  1  0  0  0  0  0  0  0  0  0
  149.7415  140.8506  153.5539 O   0  0  0  0  0  0  0  0  0  0  0  0
  149.0552  140.8090  155.8505 C   0  0  0  0  0  0  0  0  0  0  0  0
  149.9572  141.9423  156.1461 N   0  3  0  0  0  0  0  0  0  0  0  0
  150.3029  142.1261  157.5755 C   0  0  2  0  0  0  0  0  0  0  0  0
  149.1089  142.7459  158.3262 C   0  0  0  0  0  0  0  0  0  0  0  0
  151.5932  142.9787  157.6975 C   0  0  1  0  0  0  0  0  0  0  0  0
  151.3240  144.4916  157.8057 C   0  0  0  0  0  0  0  0  0  0  0  0
  152.3965  142.5382  158.8334 N   0  0  0  0  0  0  0  0  0  0  0  0
  152.6997  143.2178  159.9971 C   0  0  0  0  0  0  0  0  0  0  0  0
  153.4468  142.3820  160.7761 C   0  0  0  0  0  0  0  0  0  0  0  0
  153.5433  141.1933  160.0009 C   0  0  0  0  0  0  0  0  0  0  0  0
  152.9057  141.2865  158.8452 N   0  0  0  0  0  0  0  0  0  0  0  0
  145.8713  143.0403  154.6325 H   0  0  0  0  0  0  0  0  0  0  0  0
  146.6117  142.1171  155.9360 H   0  0  0  0  0  0  0  0  0  0  0  0
  145.7809  141.2833  154.6231 H   0  0  0  0  0  0  0  0  0  0  0  0
  147.5249  142.1248  153.0010 H   0  0  0  0  0  0  0  0  0  0  0  0
  148.3115  142.9767  154.3033 H   0  0  0  0  0  0  0  0  0  0  0  0
  148.0168  139.9388  154.1681 H   0  0  0  0  0  0  0  0  0  0  0  0
  149.6393  140.1898  152.8855 H   0  0  0  0  0  0  0  0  0  0  0  0
  148.1943  140.8188  156.5197 H   0  0  0  0  0  0  0  0  0  0  0  0
  149.5982  139.8827  156.0426 H   0  0  0  0  0  0  0  0  0  0  0  0
  150.8195  141.7731  155.6468 H   0  0  0  0  0  0  0  0  0  0  0  0
  150.5100  141.1447  158.0059 H   0  0  0  0  0  0  0  0  0  0  0  0
  149.2968  142.8114  159.3975 H   0  0  0  0  0  0  0  0  0  0  0  0
  148.2046  142.1491  158.2077 H   0  0  0  0  0  0  0  0  0  0  0  0
  148.8912  143.7509  157.9631 H   0  0  0  0  0  0  0  0  0  0  0  0
  152.1888  142.8245  156.7952 H   0  0  0  0  0  0  0  0  0  0  0  0
  150.8902  144.8901  156.8890 H   0  0  0  0  0  0  0  0  0  0  0  0
  152.2499  145.0408  157.9808 H   0  0  0  0  0  0  0  0  0  0  0  0
  150.6419  144.7211  158.6249 H   0  0  0  0  0  0  0  0  0  0  0  0
  152.3622  144.2285  160.1738 H   0  0  0  0  0  0  0  0  0  0  0  0
  153.8601  142.5872  161.7525 H   0  0  0  0  0  0  0  0  0  0  0  0
  154.0485  140.2701  160.2440 H   0  0  0  0  0  0  0  0  0  0  0  0
  149.5500  142.7960  155.7906 H   0  0  0  0  0  0  0  0  0  0  0  0
  1  2  1  0  0  0  0
  1 16  1  0  0  0  0
  1 17  1  0  0  0  0
  1 18  1  0  0  0  0
  2  3  1  0  0  0  0
  2 19  1  0  0  0  0
  2 20  1  0  0  0  0
  3  4  1  0  0  0  0
  3  5  1  0  0  0  0
  3 21  1  0  0  0  0
  4 22  1  0  0  0  0
  5  6  1  0  0  0  0
  5 23  1  0  0  0  0
  5 24  1  0  0  0  0
  6  7  1  0  0  0  0
  6 25  1  0  0  0  0
  6 37  1  0  0  0  0
  7  8  1  0  0  0  0
  7  9  1  0  0  0  0
  7 26  1  0  0  0  0
  8 27  1  0  0  0  0
  8 28  1  0  0  0  0
  8 29  1  0  0  0  0
  9 10  1  0  0  0  0
  9 11  1  0  0  0  0
  9 30  1  0  0  0  0
 10 31  1  0  0  0  0
 10 32  1  0  0  0  0
 10 33  1  0  0  0  0
 11 15  1  0  0  0  0
 11 12  1  0  0  0  0
 12 13  2  0  0  0  0
 12 34  1  0  0  0  0
 13 14  1  0  0  0  0
 13 35  1  0  0  0  0
 14 15  2  0  0  0  0
 14 36  1  0  0  0  0
M  CHG  1   6   1
M  END
> <s_m_source_file>
AV-unprocessed.smi

> <i_m_source_file_index>
3112

> <i_lp_mmshare_version>
43012

> <i_f3d_flags>
0

> <s_epik_input>
W0NIM11bQ0gyXVtDQEhdKFtPSF0pW0NIMl1bTkhdW0NASF0oW0NIM10pW0NASF0oW0NIM10pbjFbY0hdW2NIXVtjSF1uMQ==

> <s_epik_cmdline>
J2VwaWtfcHl0aG9uJywgJy1waCcsICc3LjAnLCAnLXRuJywgJzgnLCAnLW1hJywgJzIwMCcsICctbWV0YWxfYmluZGluZycsICctaW1hZScsICc8aW5maWxlLm1hZT4nLCAnLW9tYWUnLCAnPG91dGZpbGUubWFlPic=

> <r_lp_tautomer_probability>
1

> <r_epik_Ionization_Penalty>
0.0154842

> <r_epik_Ionization_Penalty_Charging>
0.0154724

> <r_epik_Ionization_Penalty_Neutral>
1.17979e-05

> <r_epik_State_Penalty>
0.0121607

> <r_epik_Charging_Adjusted_Penalty>
0.0276331

> <i_epik_Tot_Q>
1

> <i_epik_Tot_abs_Q>
1

> <r_epik_Metal_State_Penalty>
0.0121863

> <b_epik_Metal_Only>
0

> <s_lp_Force_Field>
OPLS_2005

> <r_lp_Energy>
12.5622

> <b_lp_Chiralities_Consistent>
1

> <s_lp_Variant>
AV-unprocessed.smi:3112-6

> <Gold.Version>
5.8.1

> <Gold.Id.Protein>
6NUR|6NUR_protein|mol2

> <Gold.PLP.Fitness>
46.4896

> <Gold.PLP.PLP>
-36.7825

> <Gold.PLP.part.hbond>
-3.9633

> <Gold.PLP.part.metal>
0.0000

> <Gold.PLP.part.buried>
-2.8103

> <Gold.PLP.part.nonpolar>
-28.8803

> <Gold.PLP.part.repulsive>
0.0921

> <Gold.PLP.ligand.clash>
0.0000

> <Gold.PLP.ligand.torsion>
1.1168

> <Gold.PLP.Chemscore.Hbond>
3.9464

> <Gold.PLP.Chemscore.CHOScore>
0.0000

> <Gold.PLP.Chemscore.Metal>
0.0000

> <Gold.Chemscore.Hbonds>
donor molecule, donor type, donor heavy atom, donor atom, acceptor molecule, acceptor atom, score
      L1  H     4    22       P1  7957  0.80
      L1  H     6    37       P1  8028  1.95
      P1  H  7989  7998       L1     4  0.26
      P1  H  8011  8017       L1     4  0.85

> <Gold.PLP.Chemscore.Internal.Correction>
0.1014

> <Gold.Rescore>
     Score         DG    S(hbond)    S(metal)    S(lipo)     H(rot)  DE(clash)    DE(int)     intcor
     15.24     -16.60       2.00        0.00      90.59       2.41       0.16       1.20       ----

> <Gold.Chemscore.Fitness>
15.2365

> <Gold.Chemscore.DG>
-16.5956

> <Gold.Chemscore.ZeroCoef>
-5.4800

> <Gold.Chemscore.Hbond>
2.0011

> <Gold.Chemscore.Metal>
0.0000

> <Gold.Chemscore.Lipo>
90.5872

> <Gold.Chemscore.Internal_Hbond>
0.0000

> <Gold.Chemscore.DEClash>
0.1600

> <Gold.Chemscore.DEInternal>
1.1991

> <Gold.Chemscore.Rot>
2.4089

> <Gold.Chemscore.Internal.Correction>
   9.000000E+99

> <Gold.Chemscore.Hbonds>
donor molecule, donor type, donor heavy atom, donor atom, acceptor molecule, acceptor atom, score
      L1  H     4    22       P1  7957  0.80
      L1  H     6    37       P1  8028  0.92
      P1  H  7989  7998       L1     4  0.03
      P1  H  8011  8017       L1     4  0.12

> <Gold.Chemscore.Hbond.Weighted>
-6.6836

> <Gold.Chemscore.Metal.Weighted>
-0.0000

> <Gold.Chemscore.Lipo.Weighted>
-10.5987

> <Gold.Chemscore.Internal_Hbond.Weighted>
0.0000

> <Gold.Chemscore.DEClash.Weighted>
0.1600

> <Gold.Chemscore.DEInternal.Weighted>
1.1991

> <Gold.Chemscore.Rot.Weighted>
6.1667

> <Gold.Chemscore.Internal.Correction.Weighted>
   9.000000E+99

> <Gold.Protein.RotatedTorsions>
[ 6907 6896 6895 6894 ] final -114.02 input  -60.11 | X-H torsion
[ 7974 7965 7964 7962 ] final  132.19 input  175.53 | X-H torsion
[ 8008 7997 7996 7995 ] final  -70.27 input   59.86 | X-H torsion
[ 10167 10162 10161 10158 ] final  151.92 input  -65.29 | X-H torsion
[ 10718 10713 10712 10709 ] final   36.03 input   66.30 | X-H torsion
[ 10763 10752 10751 10750 ] final  -98.62 input  -60.55 | X-H torsion
[ 11005 11000 10999 10996 ] final  -34.63 input  -57.11 | X-H torsion

> <Gold.Protein.ActiveResidues>
 VAL166  LYS551  ARG553  GLY616  TRP617  ASP618  TYR619  PRO620  LYS621  CYS622 
 ASP623  PHE694  ASN695  SER759  ASP760  ASP761  ALA762  ILE779  LEU786  VAL792 
 PHE793  MET794  SER795  GLU796  ALA797  LYS798  CYS799  TRP800  GLU811  SER814 

> <Gold.Protein.RotatedAtoms>
  150.7871  133.8861  159.3299 H   0  0  0  0  0  0  0  0  0  0  0  0  # atno 6907 bound_to 6896
  151.6709  135.0974  160.0207 H   0  0  0  0  0  0  0  0  0  0  0  0  # atno 6908 bound_to 6896
  152.3937  133.6677  159.6294 H   0  0  0  0  0  0  0  0  0  0  0  0  # atno 6909 bound_to 6896
  144.9994  139.4327  143.5299 H   0  0  0  0  0  0  0  0  0  0  0  0  # atno 7974 bound_to 7965
  154.4999  140.0837  156.7776 H   0  0  0  0  0  0  0  0  0  0  0  0  # atno 8008 bound_to 7997
  155.4027  140.3438  155.4240 H   0  0  0  0  0  0  0  0  0  0  0  0  # atno 8009 bound_to 7997
  156.1443  140.1539  156.8859 H   0  0  0  0  0  0  0  0  0  0  0  0  # atno 8010 bound_to 7997
  139.4837  144.5401  151.7579 H   0  0  0  0  0  0  0  0  0  0  0  0  # atno 10167 bound_to 10162
  157.3299  130.7492  149.6841 H   0  0  0  0  0  0  0  0  0  0  0  0  # atno 10718 bound_to 10713
  154.7430  135.5002  153.9155 H   0  0  0  0  0  0  0  0  0  0  0  0  # atno 10763 bound_to 10752
  153.1062  135.6698  153.9590 H   0  0  0  0  0  0  0  0  0  0  0  0  # atno 10764 bound_to 10752
  153.9362  135.3072  155.3423 H   0  0  0  0  0  0  0  0  0  0  0  0  # atno 10765 bound_to 10752
  140.9732  133.7098  156.1558 H   0  0  0  0  0  0  0  0  0  0  0  0  # atno 11005 bound_to 11000
  146.3449  139.9374  142.8745 LP  0  0  0  0  0  0  0  0  0  0  0  0  # atno 17320 bound_to 7965
  145.2174  140.9921  143.4065 LP  0  0  0  0  0  0  0  0  0  0  0  0  # atno 17321 bound_to 7965
  140.4939  144.1269  150.5956 LP  0  0  0  0  0  0  0  0  0  0  0  0  # atno 17342 bound_to 10162
  140.4139  143.2643  151.9799 LP  0  0  0  0  0  0  0  0  0  0  0  0  # atno 17343 bound_to 10162
  155.9694  130.4198  150.4393 LP  0  0  0  0  0  0  0  0  0  0  0  0  # atno 17370 bound_to 10713
  157.2423  131.0528  151.2429 LP  0  0  0  0  0  0  0  0  0  0  0  0  # atno 17371 bound_to 10713
  140.7298  134.4267  157.5567 LP  0  0  0  0  0  0  0  0  0  0  0  0  # atno 17394 bound_to 11000
  139.8920  134.8765  156.2292 LP  0  0  0  0  0  0  0  0  0  0  0  0  # atno 17395 bound_to 11000

$$$$
