AV-unprocessed.smi:533|AV-procd|sdf|2854|dock3
  -GOLD-   2262023343D 1   1.00000     0.00000
 Structure written by MMmdl.
 36 37  0  0  0  0  0  0  0  0  1 V2000
  152.7763  144.1936  158.5394 C   0  0  0  0  0  0  0  0  0  0  0  0
  151.6794  144.5093  157.5187 C   0  0  0  0  0  0  0  0  0  0  0  0
  150.8746  143.3407  157.2199 N   0  0  0  0  0  0  0  0  0  0  0  0
  150.9757  142.0182  157.6326 C   0  0  0  0  0  0  0  0  0  0  0  0
  151.9226  141.5504  158.4499 N   0  0  0  0  0  0  0  0  0  0  0  0
  151.6026  140.2031  158.5441 C   0  0  0  0  0  0  0  0  0  0  0  0
  150.5047  139.9089  157.8016 C   0  0  0  0  0  0  0  0  0  0  0  0
  149.9555  138.5502  157.7122 C   0  0  0  0  0  0  0  0  0  0  0  0
  148.9683  138.2588  157.0406 O   0  0  0  0  0  0  0  0  0  0  0  0
  150.6517  137.6484  158.4462 N   0  0  0  0  0  0  0  0  0  0  0  0
  151.7595  137.8776  159.2165 C   0  0  0  0  0  0  0  0  0  0  0  0
  152.2802  136.9446  159.8270 O   0  0  0  0  0  0  0  0  0  0  0  0
  152.2440  139.1614  159.2698 N   0  0  0  0  0  0  0  0  0  0  0  0
  153.4249  139.5116  160.0618 C   0  0  0  0  0  0  0  0  0  0  0  0
  150.0796  141.0952  157.2032 N   0  0  0  0  0  0  0  0  0  0  0  0
  148.9435  141.3075  156.3116 C   0  0  0  0  0  0  0  0  0  0  0  0
  149.3797  141.4755  154.8489 C   0  0  0  0  0  0  0  0  0  0  0  0
  150.2561  140.4228  154.4814 O   0  0  0  0  0  0  0  0  0  0  0  0
  149.6037  139.1676  154.4165 C   0  0  0  0  0  0  0  0  0  0  0  0
  150.3151  136.6969  158.4207 H   0  0  0  0  0  0  0  0  0  0  0  0
  153.3736  145.0806  158.7507 H   0  0  0  0  0  0  0  0  0  0  0  0
  153.4501  143.4208  158.1679 H   0  0  0  0  0  0  0  0  0  0  0  0
  152.3514  143.8467  159.4819 H   0  0  0  0  0  0  0  0  0  0  0  0
  151.0284  145.2970  157.8989 H   0  0  0  0  0  0  0  0  0  0  0  0
  152.1232  144.8781  156.5935 H   0  0  0  0  0  0  0  0  0  0  0  0
  150.1053  143.5277  156.5934 H   0  0  0  0  0  0  0  0  0  0  0  0
  153.8558  138.6751  160.6129 H   0  0  0  0  0  0  0  0  0  0  0  0
  153.1699  140.2829  160.7891 H   0  0  0  0  0  0  0  0  0  0  0  0
  154.2041  139.9092  159.4107 H   0  0  0  0  0  0  0  0  0  0  0  0
  148.2457  140.4776  156.4091 H   0  0  0  0  0  0  0  0  0  0  0  0
  148.3939  142.1901  156.6398 H   0  0  0  0  0  0  0  0  0  0  0  0
  148.5019  141.4731  154.2008 H   0  0  0  0  0  0  0  0  0  0  0  0
  149.8785  142.4372  154.7181 H   0  0  0  0  0  0  0  0  0  0  0  0
  150.3211  138.3962  154.1365 H   0  0  0  0  0  0  0  0  0  0  0  0
  148.8087  139.1753  153.6696 H   0  0  0  0  0  0  0  0  0  0  0  0
  149.1757  138.8948  155.3820 H   0  0  0  0  0  0  0  0  0  0  0  0
  1  2  1  0  0  0  0
  1 21  1  0  0  0  0
  1 22  1  0  0  0  0
  1 23  1  0  0  0  0
  2  3  1  0  0  0  0
  2 24  1  0  0  0  0
  2 25  1  0  0  0  0
  3  4  1  0  0  0  0
  3 26  1  0  0  0  0
  4 15  1  0  0  0  0
  4  5  2  0  0  0  0
  5  6  1  0  0  0  0
  6 13  1  0  0  0  0
  6  7  2  0  0  0  0
  7  8  1  0  0  0  0
  7 15  1  0  0  0  0
  8  9  2  0  0  0  0
  8 10  1  0  0  0  0
 10 20  1  0  0  0  0
 10 11  1  0  0  0  0
 11 12  2  0  0  0  0
 11 13  1  0  0  0  0
 13 14  1  0  0  0  0
 14 27  1  0  0  0  0
 14 28  1  0  0  0  0
 14 29  1  0  0  0  0
 15 16  1  0  0  0  0
 16 17  1  0  0  0  0
 16 30  1  0  0  0  0
 16 31  1  0  0  0  0
 17 18  1  0  0  0  0
 17 32  1  0  0  0  0
 17 33  1  0  0  0  0
 18 19  1  0  0  0  0
 19 34  1  0  0  0  0
 19 35  1  0  0  0  0
 19 36  1  0  0  0  0
M  END
> <s_m_source_file>
AV-unprocessed.smi

> <i_m_source_file_index>
533

> <i_lp_mmshare_version>
43012

> <i_f3d_flags>
0

> <s_epik_input>
W0NIM11bQ0gyXVtOSF1jKG4xKW4oW0NIMl1bQ0gyXU9bQ0gzXSljKGMxMiljKD1PKVtuSF1jKD1PKW4yW0NIM10=

> <s_epik_cmdline>
J2VwaWtfcHl0aG9uJywgJy1waCcsICc3LjAnLCAnLXRuJywgJzgnLCAnLW1hJywgJzIwMCcsICctbWV0YWxfYmluZGluZycsICctaW1hZScsICc8aW5maWxlLm1hZT4nLCAnLW9tYWUnLCAnPG91dGZpbGUubWFlPic=

> <r_lp_tautomer_probability>
1

> <r_epik_Ionization_Penalty>
5.47603e-05

> <r_epik_Ionization_Penalty_Charging>
3.02296e-05

> <r_epik_Ionization_Penalty_Neutral>
2.45307e-05

> <r_epik_State_Penalty>
-0

> <r_epik_Charging_Adjusted_Penalty>
3.02296e-05

> <i_epik_Tot_Q>
0

> <i_epik_Tot_abs_Q>
0

> <r_epik_Metal_State_Penalty>
0.0280858

> <b_epik_Metal_Only>
0

> <s_lp_Force_Field>
OPLS_2005

> <r_lp_Energy>
19.3222

> <b_lp_Chiralities_Consistent>
1

> <s_lp_Variant>
AV-unprocessed.smi:533-1

> <Gold.Version>
5.8.1

> <Gold.Id.Protein>
6NUR|6NUR_protein|mol2

> <Gold.PLP.Fitness>
41.9019

> <Gold.PLP.PLP>
-33.3888

> <Gold.PLP.part.hbond>
-3.0000

> <Gold.PLP.part.metal>
0.0000

> <Gold.PLP.part.buried>
-5.7493

> <Gold.PLP.part.nonpolar>
-25.0859

> <Gold.PLP.part.repulsive>
0.2212

> <Gold.PLP.ligand.clash>
0.0000

> <Gold.PLP.ligand.torsion>
0.2444

> <Gold.PLP.Chemscore.Hbond>
3.0000

> <Gold.PLP.Chemscore.CHOScore>
0.0000

> <Gold.PLP.Chemscore.Metal>
0.0000

> <Gold.Chemscore.Hbonds>
donor molecule, donor type, donor heavy atom, donor atom, acceptor molecule, acceptor atom, score
      L1  H     3    26       P1  8028  1.00
      P1  H  6896  6907       L1    12  1.00
      P1  H  7989  7998       L1    18  0.98

> <Gold.PLP.Chemscore.Internal.Correction>
0.0019

> <Gold.Rescore>
     Score         DG    S(hbond)    S(metal)    S(lipo)     H(rot)  DE(clash)    DE(int)     intcor
     15.37     -16.98       2.80        0.00      59.20       1.86       0.06       1.56       ----

> <Gold.Chemscore.Fitness>
15.3666

> <Gold.Chemscore.DG>
-16.9779

> <Gold.Chemscore.ZeroCoef>
-5.4800

> <Gold.Chemscore.Hbond>
2.7968

> <Gold.Chemscore.Metal>
0.0000

> <Gold.Chemscore.Lipo>
59.2045

> <Gold.Chemscore.Internal_Hbond>
0.0000

> <Gold.Chemscore.DEClash>
0.0551

> <Gold.Chemscore.DEInternal>
1.5562

> <Gold.Chemscore.Rot>
1.8634

> <Gold.Chemscore.Internal.Correction>
   9.000000E+99

> <Gold.Chemscore.Hbonds>
donor molecule, donor type, donor heavy atom, donor atom, acceptor molecule, acceptor atom, score
      L1  H     3    26       P1  8028  0.96
      P1  H  6896  6907       L1    12  1.00
      P1  H  7989  7998       L1    18  0.86

> <Gold.Chemscore.Hbond.Weighted>
-9.3412

> <Gold.Chemscore.Metal.Weighted>
-0.0000

> <Gold.Chemscore.Lipo.Weighted>
-6.9269

> <Gold.Chemscore.Internal_Hbond.Weighted>
0.0000

> <Gold.Chemscore.DEClash.Weighted>
0.0551

> <Gold.Chemscore.DEInternal.Weighted>
1.5562

> <Gold.Chemscore.Rot.Weighted>
4.7702

> <Gold.Chemscore.Internal.Correction.Weighted>
   9.000000E+99

> <Gold.Protein.RotatedTorsions>
[ 6907 6896 6895 6894 ] final   23.14 input  -60.11 | X-H torsion
[ 7974 7965 7964 7962 ] final   87.83 input  175.53 | X-H torsion
[ 8008 7997 7996 7995 ] final  -97.74 input   59.86 | X-H torsion
[ 10167 10162 10161 10158 ] final -104.65 input  -65.29 | X-H torsion
[ 10718 10713 10712 10709 ] final  162.69 input   66.30 | X-H torsion
[ 10763 10752 10751 10750 ] final   97.05 input  -60.55 | X-H torsion
[ 11005 11000 10999 10996 ] final  -83.07 input  -57.11 | X-H torsion

> <Gold.Protein.ActiveResidues>
 VAL166  LYS551  ARG553  GLY616  TRP617  ASP618  TYR619  PRO620  LYS621  CYS622 
 ASP623  PHE694  ASN695  SER759  ASP760  ASP761  ALA762  ILE779  LEU786  VAL792 
 PHE793  MET794  SER795  GLU796  ALA797  LYS798  CYS799  TRP800  GLU811  SER814 

> <Gold.Protein.RotatedAtoms>
  151.9378  135.0227  160.0533 H   0  0  0  0  0  0  0  0  0  0  0  0  # atno 6907 bound_to 6896
  152.2062  133.4873  159.5094 H   0  0  0  0  0  0  0  0  0  0  0  0  # atno 6908 bound_to 6896
  150.6965  134.1443  159.4159 H   0  0  0  0  0  0  0  0  0  0  0  0  # atno 6909 bound_to 6896
  145.5537  139.2297  143.2498 H   0  0  0  0  0  0  0  0  0  0  0  0  # atno 7974 bound_to 7965
  154.7918  140.0460  157.1207 H   0  0  0  0  0  0  0  0  0  0  0  0  # atno 8008 bound_to 7997
  154.9582  140.3074  155.5023 H   0  0  0  0  0  0  0  0  0  0  0  0  # atno 8009 bound_to 7997
  156.2951  140.2275  156.4665 H   0  0  0  0  0  0  0  0  0  0  0  0  # atno 8010 bound_to 7997
  140.2069  143.3775  152.1083 H   0  0  0  0  0  0  0  0  0  0  0  0  # atno 10167 bound_to 10162
  157.1190  131.0487  151.2423 H   0  0  0  0  0  0  0  0  0  0  0  0  # atno 10718 bound_to 10713
  153.2723  135.4197  155.0999 H   0  0  0  0  0  0  0  0  0  0  0  0  # atno 10763 bound_to 10752
  154.8460  135.3475  154.6227 H   0  0  0  0  0  0  0  0  0  0  0  0  # atno 10764 bound_to 10752
  153.6647  135.7046  153.5223 H   0  0  0  0  0  0  0  0  0  0  0  0  # atno 10765 bound_to 10752
  141.1660  133.7276  156.8666 H   0  0  0  0  0  0  0  0  0  0  0  0  # atno 11005 bound_to 11000
  146.1899  140.6360  142.9150 LP  0  0  0  0  0  0  0  0  0  0  0  0  # atno 17320 bound_to 7965
  144.7517  140.5206  143.6797 LP  0  0  0  0  0  0  0  0  0  0  0  0  # atno 17321 bound_to 7965
  139.5195  144.7020  151.5465 LP  0  0  0  0  0  0  0  0  0  0  0  0  # atno 17342 bound_to 10162
  140.6351  143.9001  150.6640 LP  0  0  0  0  0  0  0  0  0  0  0  0  # atno 17343 bound_to 10162
  157.4493  130.7589  149.7137 LP  0  0  0  0  0  0  0  0  0  0  0  0  # atno 17370 bound_to 10713
  155.9833  130.4002  150.3372 LP  0  0  0  0  0  0  0  0  0  0  0  0  # atno 17371 bound_to 10713
  140.1811  134.9032  157.2949 LP  0  0  0  0  0  0  0  0  0  0  0  0  # atno 17394 bound_to 11000
  140.2394  134.3814  155.7487 LP  0  0  0  0  0  0  0  0  0  0  0  0  # atno 17395 bound_to 11000

$$$$
