AV-unprocessed.smi:658|AV-procd|sdf|3231|dock7
  -GOLD-   22720 0173D 1   1.00000     0.00000
 Structure written by MMmdl.
 38 38  0  0  0  0  0  0  0  0  2 V2000
  146.9789  139.1773  152.9026 C   0  0  0  0  0  0  0  0  0  0  0  0
  148.0811  139.4633  153.9389 C   0  0  1  0  0  0  0  0  0  0  0  0
  149.3028  138.7235  153.5481 N   0  3  0  0  0  0  0  0  0  0  0  0
  150.0708  138.1510  154.6729 C   0  0  0  0  0  0  0  0  0  0  0  0
  151.5649  138.0773  154.3369 C   0  0  0  0  0  0  0  0  0  0  0  0
  152.3911  139.1188  155.1023 C   0  0  0  0  0  0  0  0  0  0  0  0
  152.2501  138.8537  156.9187 S   0  0  0  0  0  0  0  0  0  0  0  0
  151.3665  140.2354  157.4358 N   0  0  0  0  0  0  0  0  0  0  0  0
  151.4097  137.6699  157.1533 O   0  0  0  0  0  0  0  0  0  0  0  0
  153.5954  138.9361  157.5066 O   0  0  0  0  0  0  0  0  0  0  0  0
  148.3870  140.9767  154.0992 C   0  0  2  0  0  0  0  0  0  0  0  0
  149.5568  141.2615  155.0593 C   0  0  0  0  0  0  0  0  0  0  0  0
  147.2089  141.7227  154.5246 N   0  0  0  0  0  0  0  0  0  0  0  0
  146.5191  142.7087  153.8471 C   0  0  0  0  0  0  0  0  0  0  0  0
  145.4952  143.1179  154.6519 C   0  0  0  0  0  0  0  0  0  0  0  0
  145.6429  142.3181  155.8191 C   0  0  0  0  0  0  0  0  0  0  0  0
  146.6697  141.4872  155.7408 N   0  0  0  0  0  0  0  0  0  0  0  0
  146.0216  139.6083  153.1970 H   0  0  0  0  0  0  0  0  0  0  0  0
  146.8212  138.1046  152.7853 H   0  0  0  0  0  0  0  0  0  0  0  0
  147.2397  139.5833  151.9246 H   0  0  0  0  0  0  0  0  0  0  0  0
  147.7226  139.0790  154.8955 H   0  0  0  0  0  0  0  0  0  0  0  0
  149.0280  137.9624  152.9437 H   0  0  0  0  0  0  0  0  0  0  0  0
  149.9217  138.7582  155.5663 H   0  0  0  0  0  0  0  0  0  0  0  0
  149.6884  137.1538  154.8941 H   0  0  0  0  0  0  0  0  0  0  0  0
  151.9417  137.0792  154.5645 H   0  0  0  0  0  0  0  0  0  0  0  0
  151.7045  138.2236  153.2651 H   0  0  0  0  0  0  0  0  0  0  0  0
  153.4453  139.0559  154.8312 H   0  0  0  0  0  0  0  0  0  0  0  0
  152.0473  140.1290  154.8783 H   0  0  0  0  0  0  0  0  0  0  0  0
  150.6862  140.5567  156.7474 H   0  0  0  0  0  0  0  0  0  0  0  0
  151.9600  140.9699  157.8205 H   0  0  0  0  0  0  0  0  0  0  0  0
  148.6756  141.3622  153.1191 H   0  0  0  0  0  0  0  0  0  0  0  0
  150.4919  140.8448  154.6853 H   0  0  0  0  0  0  0  0  0  0  0  0
  149.3759  140.8397  156.0484 H   0  0  0  0  0  0  0  0  0  0  0  0
  149.7113  142.3344  155.1794 H   0  0  0  0  0  0  0  0  0  0  0  0
  146.8100  143.0339  152.8591 H   0  0  0  0  0  0  0  0  0  0  0  0
  144.7539  143.8741  154.4400 H   0  0  0  0  0  0  0  0  0  0  0  0
  145.0395  142.3176  156.7149 H   0  0  0  0  0  0  0  0  0  0  0  0
  149.9004  139.3465  153.0235 H   0  0  0  0  0  0  0  0  0  0  0  0
  1  2  1  0  0  0  0
  1 18  1  0  0  0  0
  1 19  1  0  0  0  0
  1 20  1  0  0  0  0
  2  3  1  0  0  0  0
  2 11  1  0  0  0  0
  2 21  1  0  0  0  0
  3  4  1  0  0  0  0
  3 22  1  0  0  0  0
  3 38  1  0  0  0  0
  4  5  1  0  0  0  0
  4 23  1  0  0  0  0
  4 24  1  0  0  0  0
  5  6  1  0  0  0  0
  5 25  1  0  0  0  0
  5 26  1  0  0  0  0
  6  7  1  0  0  0  0
  6 27  1  0  0  0  0
  6 28  1  0  0  0  0
  7  8  1  0  0  0  0
  7  9  2  0  0  0  0
  7 10  2  0  0  0  0
  8 29  1  0  0  0  0
  8 30  1  0  0  0  0
 11 12  1  0  0  0  0
 11 13  1  0  0  0  0
 11 31  1  0  0  0  0
 12 32  1  0  0  0  0
 12 33  1  0  0  0  0
 12 34  1  0  0  0  0
 13 17  1  0  0  0  0
 13 14  1  0  0  0  0
 14 15  2  0  0  0  0
 14 35  1  0  0  0  0
 15 16  1  0  0  0  0
 15 36  1  0  0  0  0
 16 17  2  0  0  0  0
 16 37  1  0  0  0  0
M  CHG  1   3   1
M  END
> <s_m_source_file>
AV-unprocessed.smi

> <i_m_source_file_index>
658

> <i_lp_mmshare_version>
43012

> <i_f3d_flags>
0

> <s_epik_input>
bjFbY0hdW2NIXVtjSF1uMVtDQEBIXShbQ0gzXSlbQ0BIXShbQ0gzXSlbTkhdW0NIMl1bQ0gyXVtDSDJdUyg9TykoPU8pW05IMl0=

> <s_epik_cmdline>
J2VwaWtfcHl0aG9uJywgJy1waCcsICc3LjAnLCAnLXRuJywgJzgnLCAnLW1hJywgJzIwMCcsICctbWV0YWxfYmluZGluZycsICctaW1hZScsICc8aW5maWxlLm1hZT4nLCAnLW9tYWUnLCAnPG91dGZpbGUubWFlPic=

> <r_lp_tautomer_probability>
1

> <r_epik_Ionization_Penalty>
0.00535781

> <r_epik_Ionization_Penalty_Charging>
0.00511015

> <r_epik_Ionization_Penalty_Neutral>
0.000247661

> <r_epik_State_Penalty>
-0

> <r_epik_Charging_Adjusted_Penalty>
0.00511015

> <i_epik_Tot_Q>
1

> <i_epik_Tot_abs_Q>
1

> <r_epik_Metal_State_Penalty>
0.149106

> <b_epik_Metal_Only>
0

> <s_lp_Force_Field>
OPLS_2005

> <r_lp_Energy>
8.89673

> <b_lp_Chiralities_Consistent>
1

> <s_lp_Variant>
AV-unprocessed.smi:658-2

> <Gold.Version>
5.8.1

> <Gold.Id.Protein>
6NUR|6NUR_protein|mol2

> <Gold.PLP.Fitness>
43.0819

> <Gold.PLP.PLP>
-34.3884

> <Gold.PLP.part.hbond>
-2.7566

> <Gold.PLP.part.metal>
0.0000

> <Gold.PLP.part.buried>
-4.6128

> <Gold.PLP.part.nonpolar>
-27.4018

> <Gold.PLP.part.repulsive>
0.1683

> <Gold.PLP.ligand.clash>
0.0000

> <Gold.PLP.ligand.torsion>
1.1590

> <Gold.PLP.Chemscore.Hbond>
3.5680

> <Gold.PLP.Chemscore.CHOScore>
0.0000

> <Gold.PLP.Chemscore.Metal>
0.0000

> <Gold.Chemscore.Hbonds>
donor molecule, donor type, donor heavy atom, donor atom, acceptor molecule, acceptor atom, score
      L1  H     3    22       P1  7948  2.00
      L1  H     3    38       P1  7957  0.56
      P1  H  7997  8008       L1    10  1.00

> <Gold.PLP.Chemscore.Internal.Correction>
0.3076

> <Gold.Rescore>
     Score         DG    S(hbond)    S(metal)    S(lipo)     H(rot)  DE(clash)    DE(int)     intcor
     11.69     -14.01       2.56        0.00      68.33       3.13       0.06       2.26       ----

> <Gold.Chemscore.Fitness>
11.6857

> <Gold.Chemscore.DG>
-14.0083

> <Gold.Chemscore.ZeroCoef>
-5.4800

> <Gold.Chemscore.Hbond>
2.5598

> <Gold.Chemscore.Metal>
0.0000

> <Gold.Chemscore.Lipo>
68.3305

> <Gold.Chemscore.Internal_Hbond>
0.0000

> <Gold.Chemscore.DEClash>
0.0630

> <Gold.Chemscore.DEInternal>
2.2595

> <Gold.Chemscore.Rot>
3.1312

> <Gold.Chemscore.Internal.Correction>
   9.000000E+99

> <Gold.Chemscore.Hbonds>
donor molecule, donor type, donor heavy atom, donor atom, acceptor molecule, acceptor atom, score
      L1  H     3    22       P1  7948  0.95
      L1  H     3    38       P1  7957  0.53
      P1  H  7997  8008       L1    10  0.93

> <Gold.Chemscore.Hbond.Weighted>
-8.5496

> <Gold.Chemscore.Metal.Weighted>
-0.0000

> <Gold.Chemscore.Lipo.Weighted>
-7.9947

> <Gold.Chemscore.Internal_Hbond.Weighted>
0.0000

> <Gold.Chemscore.DEClash.Weighted>
0.0630

> <Gold.Chemscore.DEInternal.Weighted>
2.2595

> <Gold.Chemscore.Rot.Weighted>
8.0160

> <Gold.Chemscore.Internal.Correction.Weighted>
   9.000000E+99

> <Gold.Protein.RotatedTorsions>
[ 6907 6896 6895 6894 ] final -138.52 input  -60.11 | X-H torsion
[ 7974 7965 7964 7962 ] final  -46.05 input  175.53 | X-H torsion
[ 8008 7997 7996 7995 ] final  -96.85 input   59.86 | X-H torsion
[ 10167 10162 10161 10158 ] final -122.90 input  -65.29 | X-H torsion
[ 10718 10713 10712 10709 ] final  144.36 input   66.30 | X-H torsion
[ 10763 10752 10751 10750 ] final    7.12 input  -60.55 | X-H torsion
[ 11005 11000 10999 10996 ] final  135.90 input  -57.11 | X-H torsion

> <Gold.Protein.ActiveResidues>
 VAL166  LYS551  ARG553  GLY616  TRP617  ASP618  TYR619  PRO620  LYS621  CYS622 
 ASP623  PHE694  ASN695  SER759  ASP760  ASP761  ALA762  ILE779  LEU786  VAL792 
 PHE793  MET794  SER795  GLU796  ALA797  LYS798  CYS799  TRP800  GLU811  SER814 

> <Gold.Protein.RotatedAtoms>
  151.0361  133.5747  159.2655 H   0  0  0  0  0  0  0  0  0  0  0  0  # atno 6907 bound_to 6896
  151.2811  135.0713  159.9179 H   0  0  0  0  0  0  0  0  0  0  0  0  # atno 6908 bound_to 6896
  152.5355  134.0075  159.7977 H   0  0  0  0  0  0  0  0  0  0  0  0  # atno 6909 bound_to 6896
  145.9759  140.7335  142.9387 H   0  0  0  0  0  0  0  0  0  0  0  0  # atno 7974 bound_to 7965
  154.7799  140.0468  157.1119 H   0  0  0  0  0  0  0  0  0  0  0  0  # atno 8008 bound_to 7997
  154.9717  140.3090  155.4965 H   0  0  0  0  0  0  0  0  0  0  0  0  # atno 8009 bound_to 7997
  156.2935  140.2252  156.4810 H   0  0  0  0  0  0  0  0  0  0  0  0  # atno 8010 bound_to 7997
  140.0093  143.5459  152.2270 H   0  0  0  0  0  0  0  0  0  0  0  0  # atno 10167 bound_to 10162
  157.3581  131.0961  151.0940 H   0  0  0  0  0  0  0  0  0  0  0  0  # atno 10718 bound_to 10713
  153.2399  135.6902  153.7795 H   0  0  0  0  0  0  0  0  0  0  0  0  # atno 10763 bound_to 10752
  153.6928  135.3310  155.3207 H   0  0  0  0  0  0  0  0  0  0  0  0  # atno 10764 bound_to 10752
  154.8351  135.4549  154.1317 H   0  0  0  0  0  0  0  0  0  0  0  0  # atno 10765 bound_to 10752
  140.0010  134.9478  157.0071 H   0  0  0  0  0  0  0  0  0  0  0  0  # atno 11005 bound_to 11000
  144.6848  140.2826  143.7290 LP  0  0  0  0  0  0  0  0  0  0  0  0  # atno 17320 bound_to 7965
  145.7839  139.1902  143.2141 LP  0  0  0  0  0  0  0  0  0  0  0  0  # atno 17321 bound_to 7965
  139.6216  144.7630  151.2727 LP  0  0  0  0  0  0  0  0  0  0  0  0  # atno 17342 bound_to 10162
  140.7388  143.6638  150.8141 LP  0  0  0  0  0  0  0  0  0  0  0  0  # atno 17343 bound_to 10162
  157.2090  130.6429  149.5767 LP  0  0  0  0  0  0  0  0  0  0  0  0  # atno 17370 bound_to 10713
  155.9733  130.4666  150.6295 LP  0  0  0  0  0  0  0  0  0  0  0  0  # atno 17371 bound_to 10713
  140.4728  134.1369  155.7205 LP  0  0  0  0  0  0  0  0  0  0  0  0  # atno 17394 bound_to 11000
  141.1642  133.8736  157.1763 LP  0  0  0  0  0  0  0  0  0  0  0  0  # atno 17395 bound_to 11000

$$$$
