AV-unprocessed.smi:2951|AV-procd|sdf|11290|dock5
  -GOLD-   2272016183D 1   1.00000     0.00000
 Structure written by MMmdl.
 17 17  0  0  0  0  0  0  0  0  1 V2000
  150.4711  138.0784  153.5292 N   0  0  0  0  0  0  0  0  0  0  0  0
  151.2809  137.5121  154.4283 C   0  0  0  0  0  0  0  0  0  0  0  0
  151.2315  136.3130  154.6948 O   0  0  0  0  0  0  0  0  0  0  0  0
  152.2926  138.4209  155.1286 C   0  0  0  0  0  0  0  0  0  0  0  0
  151.6113  139.6555  155.6436 C   0  0  0  0  0  0  0  0  0  0  0  0
  151.8384  140.2809  156.8462 C   0  0  0  0  0  0  0  0  0  0  0  0
  150.8305  141.6878  157.0527 S   0  0  0  0  0  0  0  0  0  0  0  0
  150.1335  141.3688  155.4720 C   0  0  0  0  0  0  0  0  0  0  0  0
  149.1509  142.1825  154.9355 N   0  0  0  0  0  0  0  0  0  0  0  0
  150.6364  140.2922  154.8665 N   0  0  0  0  0  0  0  0  0  0  0  0
  149.7839  137.5156  153.0490 H   0  0  0  0  0  0  0  0  0  0  0  0
  150.5435  139.0673  153.3375 H   0  0  0  0  0  0  0  0  0  0  0  0
  152.7575  137.8718  155.9483 H   0  0  0  0  0  0  0  0  0  0  0  0
  153.0967  138.6760  154.4369 H   0  0  0  0  0  0  0  0  0  0  0  0
  152.5334  139.9959  157.6224 H   0  0  0  0  0  0  0  0  0  0  0  0
  148.8034  142.9869  155.4375 H   0  0  0  0  0  0  0  0  0  0  0  0
  148.8152  142.0497  153.9924 H   0  0  0  0  0  0  0  0  0  0  0  0
  1  2  1  0  0  0  0
  1 11  1  0  0  0  0
  1 12  1  0  0  0  0
  2  3  2  0  0  0  0
  2  4  1  0  0  0  0
  4  5  1  0  0  0  0
  4 13  1  0  0  0  0
  4 14  1  0  0  0  0
  5 10  1  0  0  0  0
  5  6  2  0  0  0  0
  6  7  1  0  0  0  0
  6 15  1  0  0  0  0
  7  8  1  0  0  0  0
  8  9  1  0  0  0  0
  8 10  2  0  0  0  0
  9 16  1  0  0  0  0
  9 17  1  0  0  0  0
M  END
> <s_m_source_file>
AV-unprocessed.smi

> <i_m_source_file_index>
2951

> <i_lp_mmshare_version>
43012

> <i_f3d_flags>
0

> <s_epik_input>
W05IMl1DKD1PKVtDSDJdYzFbY0hdc2MobjEpW05IMl0=

> <s_epik_cmdline>
J2VwaWtfcHl0aG9uJywgJy1waCcsICc3LjAnLCAnLXRuJywgJzgnLCAnLW1hJywgJzIwMCcsICctbWV0YWxfYmluZGluZycsICctaW1hZScsICc8aW5maWxlLm1hZT4nLCAnLW9tYWUnLCAnPG91dGZpbGUubWFlPic=

> <r_lp_tautomer_probability>
1

> <r_epik_Ionization_Penalty>
0.00145479

> <r_epik_Ionization_Penalty_Charging>
0

> <r_epik_Ionization_Penalty_Neutral>
0.00145479

> <r_epik_State_Penalty>
-0

> <r_epik_Charging_Adjusted_Penalty>
0

> <i_epik_Tot_Q>
0

> <i_epik_Tot_abs_Q>
0

> <r_epik_Metal_State_Penalty>
-0

> <b_epik_Metal_Only>
0

> <s_lp_Force_Field>
OPLS_2005

> <r_lp_Energy>
-0.412786

> <b_lp_Chiralities_Consistent>
1

> <s_lp_Variant>
AV-unprocessed.smi:2951-1

> <Gold.Version>
5.8.1

> <Gold.Id.Protein>
6NUR|6NUR_protein|mol2

> <Gold.PLP.Fitness>
33.7779

> <Gold.PLP.PLP>
-22.6276

> <Gold.PLP.part.hbond>
-5.5703

> <Gold.PLP.part.metal>
0.0000

> <Gold.PLP.part.buried>
-2.4911

> <Gold.PLP.part.nonpolar>
-14.9639

> <Gold.PLP.part.repulsive>
0.5664

> <Gold.PLP.ligand.clash>
0.0000

> <Gold.PLP.ligand.torsion>
0.3889

> <Gold.PLP.Chemscore.Hbond>
3.9760

> <Gold.PLP.Chemscore.CHOScore>
0.0000

> <Gold.PLP.Chemscore.Metal>
0.0000

> <Gold.Chemscore.Hbonds>
donor molecule, donor type, donor heavy atom, donor atom, acceptor molecule, acceptor atom, score
      L1  H     1    11       P1  7948  1.00
      L1  H     9    16       P1  8028  0.93
      P1  H  7989  7998       L1    10  1.00
      P1  H 10752 10763       L1     3  1.00

> <Gold.PLP.Chemscore.Internal.Correction>
0.0001

> <Gold.Rescore>
     Score         DG    S(hbond)    S(metal)    S(lipo)     H(rot)  DE(clash)    DE(int)     intcor
     11.13     -13.48       2.71        0.00      27.13       1.65       0.12       2.23       ----

> <Gold.Chemscore.Fitness>
11.1277

> <Gold.Chemscore.DG>
-13.4757

> <Gold.Chemscore.ZeroCoef>
-5.4800

> <Gold.Chemscore.Hbond>
2.7075

> <Gold.Chemscore.Metal>
0.0000

> <Gold.Chemscore.Lipo>
27.1348

> <Gold.Chemscore.Internal_Hbond>
0.0000

> <Gold.Chemscore.DEClash>
0.1177

> <Gold.Chemscore.DEInternal>
2.2303

> <Gold.Chemscore.Rot>
1.6493

> <Gold.Chemscore.Internal.Correction>
   9.000000E+99

> <Gold.Chemscore.Hbonds>
donor molecule, donor type, donor heavy atom, donor atom, acceptor molecule, acceptor atom, score
      L1  H     1    11       P1  7948  0.50
      L1  H     9    16       P1  8028  0.91
      P1  H  7989  7998       L1    10  0.18
      P1  H 10752 10763       L1     3  0.65

> <Gold.Chemscore.Hbond.Weighted>
-9.0432

> <Gold.Chemscore.Metal.Weighted>
-0.0000

> <Gold.Chemscore.Lipo.Weighted>
-3.1748

> <Gold.Chemscore.Internal_Hbond.Weighted>
0.0000

> <Gold.Chemscore.DEClash.Weighted>
0.1177

> <Gold.Chemscore.DEInternal.Weighted>
2.2303

> <Gold.Chemscore.Rot.Weighted>
4.2222

> <Gold.Chemscore.Internal.Correction.Weighted>
   9.000000E+99

> <Gold.Protein.RotatedTorsions>
[ 6907 6896 6895 6894 ] final   40.41 input  -60.11 | X-H torsion
[ 7974 7965 7964 7962 ] final   40.42 input  175.53 | X-H torsion
[ 8008 7997 7996 7995 ] final -141.78 input   59.86 | X-H torsion
[ 10167 10162 10161 10158 ] final   10.50 input  -65.29 | X-H torsion
[ 10718 10713 10712 10709 ] final   37.61 input   66.30 | X-H torsion
[ 10763 10752 10751 10750 ] final   53.50 input  -60.55 | X-H torsion
[ 11005 11000 10999 10996 ] final -116.26 input  -57.11 | X-H torsion

> <Gold.Protein.ActiveResidues>
 VAL166  LYS551  ARG553  GLY616  TRP617  ASP618  TYR619  PRO620  LYS621  CYS622 
 ASP623  PHE694  ASN695  SER759  ASP760  ASP761  ALA762  ILE779  LEU786  VAL792 
 PHE793  MET794  SER795  GLU796  ALA797  LYS798  CYS799  TRP800  GLU811  SER814 

> <Gold.Protein.RotatedAtoms>
  152.1822  134.8744  160.0525 H   0  0  0  0  0  0  0  0  0  0  0  0  # atno 6907 bound_to 6896
  151.9664  133.3707  159.4063 H   0  0  0  0  0  0  0  0  0  0  0  0  # atno 6908 bound_to 6896
  150.6919  134.4109  159.5205 H   0  0  0  0  0  0  0  0  0  0  0  0  # atno 6909 bound_to 6896
  146.0906  139.5535  142.9478 H   0  0  0  0  0  0  0  0  0  0  0  0  # atno 7974 bound_to 7965
  155.4834  140.0562  157.2964 H   0  0  0  0  0  0  0  0  0  0  0  0  # atno 8008 bound_to 7997
  154.4651  140.2015  156.0091 H   0  0  0  0  0  0  0  0  0  0  0  0  # atno 8009 bound_to 7997
  156.0960  140.3226  155.7883 H   0  0  0  0  0  0  0  0  0  0  0  0  # atno 8010 bound_to 7997
  140.6190  143.8244  150.7153 H   0  0  0  0  0  0  0  0  0  0  0  0  # atno 10167 bound_to 10162
  157.3490  130.7588  149.6965 H   0  0  0  0  0  0  0  0  0  0  0  0  # atno 10718 bound_to 10713
  152.9796  135.5777  154.4752 H   0  0  0  0  0  0  0  0  0  0  0  0  # atno 10763 bound_to 10752
  154.4308  135.2773  155.1915 H   0  0  0  0  0  0  0  0  0  0  0  0  # atno 10764 bound_to 10752
  154.3624  135.6185  153.5751 H   0  0  0  0  0  0  0  0  0  0  0  0  # atno 10765 bound_to 10752
  141.0433  133.9801  157.2958 H   0  0  0  0  0  0  0  0  0  0  0  0  # atno 11005 bound_to 11000
  145.6046  141.0350  143.2000 LP  0  0  0  0  0  0  0  0  0  0  0  0  # atno 17320 bound_to 7965
  144.7357  139.7592  143.7330 LP  0  0  0  0  0  0  0  0  0  0  0  0  # atno 17321 bound_to 7965
  140.1830  143.4099  152.1919 LP  0  0  0  0  0  0  0  0  0  0  0  0  # atno 17342 bound_to 10162
  139.5423  144.7267  151.4694 LP  0  0  0  0  0  0  0  0  0  0  0  0  # atno 17343 bound_to 10162
  155.9718  130.4146  150.4139 LP  0  0  0  0  0  0  0  0  0  0  0  0  # atno 17370 bound_to 10713
  157.2199  131.0480  151.2552 LP  0  0  0  0  0  0  0  0  0  0  0  0  # atno 17371 bound_to 10713
  139.9293  135.0200  156.8343 LP  0  0  0  0  0  0  0  0  0  0  0  0  # atno 17394 bound_to 11000
  140.6193  134.0009  155.7611 LP  0  0  0  0  0  0  0  0  0  0  0  0  # atno 17395 bound_to 11000

$$$$
