AV-unprocessed.smi:2198|AV-procd|sdf|8919|dock7
  -GOLD-   2272012133D 1   1.00000     0.00000
 Structure written by MMmdl.
 42 43  0  0  0  0  0  0  0  0  2 V2000
  151.6231  130.7818  157.1013 C   0  0  0  0  0  0  0  0  0  0  0  0
  150.9688  132.0582  156.6179 C   0  0  0  0  0  0  0  0  0  0  0  0
  150.3529  132.0573  155.4976 N   0  0  0  0  0  0  0  0  0  0  0  0
  149.7432  133.2387  155.0431 C   0  0  0  0  0  0  0  0  0  0  0  0
  149.0377  133.1471  153.7012 C   0  0  0  0  0  0  0  0  0  0  0  0
  149.7945  134.3871  155.7769 C   0  0  0  0  0  0  0  0  0  0  0  0
  149.1487  135.6963  155.3239 C   0  0  0  0  0  0  0  0  0  0  0  0
  150.0934  136.8900  155.1664 C   0  0  0  0  0  0  0  0  0  0  0  0
  151.2313  136.7344  154.7229 O   0  0  0  0  0  0  0  0  0  0  0  0
  149.6035  138.0826  155.5370 N   0  0  0  0  0  0  0  0  0  0  0  0
  150.3254  139.3522  155.4805 C   0  0  2  0  0  0  0  0  0  0  0  0
  150.5094  139.9242  156.8994 C   0  0  0  0  0  0  0  0  0  0  0  0
  149.1858  140.4319  157.4973 C   0  0  0  0  0  0  0  0  0  0  0  0
  148.5081  141.4526  156.5698 C   0  0  0  0  0  0  0  0  0  0  0  0
  148.2806  140.8731  155.1606 C   0  0  1  0  0  0  0  0  0  0  0  0
  147.6024  141.8942  154.2365 C   0  0  0  0  0  0  0  0  0  0  0  0
  149.6113  140.3696  154.5634 C   0  0  0  0  0  0  0  0  0  0  0  0
  150.5101  134.3450  157.0649 C   0  0  0  0  0  0  0  0  0  0  0  0
  150.5752  135.3496  157.7726 O   0  0  0  0  0  0  0  0  0  0  0  0
  151.0833  133.1631  157.4315 N   0  5  0  0  0  0  0  0  0  0  0  0
  151.2934  129.9249  156.5124 H   0  0  0  0  0  0  0  0  0  0  0  0
  151.3687  130.5938  158.1450 H   0  0  0  0  0  0  0  0  0  0  0  0
  152.7071  130.8601  157.0174 H   0  0  0  0  0  0  0  0  0  0  0  0
  149.5285  133.7870  152.9678 H   0  0  0  0  0  0  0  0  0  0  0  0
  147.9961  133.4554  153.7912 H   0  0  0  0  0  0  0  0  0  0  0  0
  149.0506  132.1261  153.3178 H   0  0  0  0  0  0  0  0  0  0  0  0
  148.6124  135.5607  154.3843 H   0  0  0  0  0  0  0  0  0  0  0  0
  148.3754  135.9591  156.0464 H   0  0  0  0  0  0  0  0  0  0  0  0
  148.6573  138.1135  155.8879 H   0  0  0  0  0  0  0  0  0  0  0  0
  151.3182  139.1544  155.0720 H   0  0  0  0  0  0  0  0  0  0  0  0
  150.9533  139.1744  157.5554 H   0  0  0  0  0  0  0  0  0  0  0  0
  151.2197  140.7510  156.8603 H   0  0  0  0  0  0  0  0  0  0  0  0
  148.5117  139.5923  157.6718 H   0  0  0  0  0  0  0  0  0  0  0  0
  149.3706  140.8839  158.4721 H   0  0  0  0  0  0  0  0  0  0  0  0
  147.5575  141.7639  157.0041 H   0  0  0  0  0  0  0  0  0  0  0  0
  149.1257  142.3496  156.5052 H   0  0  0  0  0  0  0  0  0  0  0  0
  147.6053  140.0211  155.2518 H   0  0  0  0  0  0  0  0  0  0  0  0
  148.2241  142.7793  154.0980 H   0  0  0  0  0  0  0  0  0  0  0  0
  146.6457  142.2198  154.6463 H   0  0  0  0  0  0  0  0  0  0  0  0
  147.4092  141.4649  153.2530 H   0  0  0  0  0  0  0  0  0  0  0  0
  150.2747  141.2199  154.3997 H   0  0  0  0  0  0  0  0  0  0  0  0
  149.4394  139.9328  153.5788 H   0  0  0  0  0  0  0  0  0  0  0  0
  1  2  1  0  0  0  0
  1 21  1  0  0  0  0
  1 22  1  0  0  0  0
  1 23  1  0  0  0  0
  2 20  1  0  0  0  0
  2  3  2  0  0  0  0
  3  4  1  0  0  0  0
  4  5  1  0  0  0  0
  4  6  2  0  0  0  0
  5 24  1  0  0  0  0
  5 25  1  0  0  0  0
  5 26  1  0  0  0  0
  6  7  1  0  0  0  0
  6 18  1  0  0  0  0
  7  8  1  0  0  0  0
  7 27  1  0  0  0  0
  7 28  1  0  0  0  0
  8  9  2  0  0  0  0
  8 10  1  0  0  0  0
 10 11  1  0  0  0  0
 10 29  1  0  0  0  0
 11 17  1  0  0  0  0
 11 12  1  0  0  0  0
 11 30  1  0  0  0  0
 12 13  1  0  0  0  0
 12 31  1  0  0  0  0
 12 32  1  0  0  0  0
 13 14  1  0  0  0  0
 13 33  1  0  0  0  0
 13 34  1  0  0  0  0
 14 15  1  0  0  0  0
 14 35  1  0  0  0  0
 14 36  1  0  0  0  0
 15 16  1  0  0  0  0
 15 17  1  0  0  0  0
 15 37  1  0  0  0  0
 16 38  1  0  0  0  0
 16 39  1  0  0  0  0
 16 40  1  0  0  0  0
 17 41  1  0  0  0  0
 17 42  1  0  0  0  0
 18 19  2  0  0  0  0
 18 20  1  0  0  0  0
M  CHG  1  20  -1
M  END
> <s_m_source_file>
AV-unprocessed.smi

> <i_m_source_file_index>
2198

> <i_lp_mmshare_version>
43012

> <i_f3d_flags>
0

> <s_epik_input>
W0NIM11jMW5jKFtDSDNdKWMoYyg9TylbbkhdMSlbQ0gyXUMoPU8pW05IXVtDQEBIXTJbQ0gyXVtDSDJdW0NIMl1bQ0BASF0oW0NIM10pW0NIMl0y

> <s_epik_cmdline>
J2VwaWtfcHl0aG9uJywgJy1waCcsICc3LjAnLCAnLXRuJywgJzgnLCAnLW1hJywgJzIwMCcsICctbWV0YWxfYmluZGluZycsICctaW1hZScsICc8aW5maWxlLm1hZT4nLCAnLW9tYWUnLCAnPG91dGZpbGUubWFlPic=

> <r_lp_tautomer_probability>
0.839158

> <r_epik_Ionization_Penalty>
6.67193

> <r_epik_Ionization_Penalty_Charging>
7.66837e-08

> <r_epik_Ionization_Penalty_Neutral>
6.67193

> <r_epik_State_Penalty>
4.51643

> <r_epik_Charging_Adjusted_Penalty>
4.51643

> <i_epik_Tot_Q>
-1

> <i_epik_Tot_abs_Q>
1

> <r_epik_Metal_State_Penalty>
0.851582

> <b_epik_Metal_Only>
1

> <s_lp_Force_Field>
OPLS_2005

> <r_lp_Energy>
13.1445

> <b_lp_Chiralities_Consistent>
1

> <s_lp_Variant>
AV-unprocessed.smi:2198-9

> <Gold.Version>
5.8.1

> <Gold.Id.Protein>
6NUR|6NUR_protein|mol2

> <Gold.PLP.Fitness>
36.3335

> <Gold.PLP.PLP>
-28.5233

> <Gold.PLP.part.hbond>
-3.0000

> <Gold.PLP.part.metal>
0.0000

> <Gold.PLP.part.buried>
-2.2671

> <Gold.PLP.part.nonpolar>
-24.7241

> <Gold.PLP.part.repulsive>
0.1766

> <Gold.PLP.ligand.clash>
0.0000

> <Gold.PLP.ligand.torsion>
0.3275

> <Gold.PLP.Chemscore.Hbond>
2.8192

> <Gold.PLP.Chemscore.CHOScore>
0.0000

> <Gold.PLP.Chemscore.Metal>
0.0000

> <Gold.Chemscore.Hbonds>
donor molecule, donor type, donor heavy atom, donor atom, acceptor molecule, acceptor atom, score
      P1  H  6896  6907       L1    20  1.54
      P1  H  6896  6908       L1    19  0.42
      P1  H 10752 10764       L1     9  0.76

> <Gold.PLP.Chemscore.Internal.Correction>
0.0076

> <Gold.Rescore>
     Score         DG    S(hbond)    S(metal)    S(lipo)     H(rot)  DE(clash)    DE(int)     intcor
     14.42     -15.03       1.78        0.00      62.59       1.45       0.35       0.26       ----

> <Gold.Chemscore.Fitness>
14.4231

> <Gold.Chemscore.DG>
-15.0348

> <Gold.Chemscore.ZeroCoef>
-5.4800

> <Gold.Chemscore.Hbond>
1.7759

> <Gold.Chemscore.Metal>
0.0000

> <Gold.Chemscore.Lipo>
62.5861

> <Gold.Chemscore.Internal_Hbond>
0.0000

> <Gold.Chemscore.DEClash>
0.3513

> <Gold.Chemscore.DEInternal>
0.2604

> <Gold.Chemscore.Rot>
1.4450

> <Gold.Chemscore.Internal.Correction>
   9.000000E+99

> <Gold.Chemscore.Hbonds>
donor molecule, donor type, donor heavy atom, donor atom, acceptor molecule, acceptor atom, score
      P1  H  6896  6907       L1    20  0.38
      P1  H  6896  6908       L1    19  0.31
      P1  H 10752 10764       L1     9  0.73

> <Gold.Chemscore.Hbond.Weighted>
-5.9314

> <Gold.Chemscore.Metal.Weighted>
-0.0000

> <Gold.Chemscore.Lipo.Weighted>
-7.3226

> <Gold.Chemscore.Internal_Hbond.Weighted>
0.0000

> <Gold.Chemscore.DEClash.Weighted>
0.3513

> <Gold.Chemscore.DEInternal.Weighted>
0.2604

> <Gold.Chemscore.Rot.Weighted>
3.6992

> <Gold.Chemscore.Internal.Correction.Weighted>
   9.000000E+99

> <Gold.Protein.RotatedTorsions>
[ 6907 6896 6895 6894 ] final -168.79 input  -60.11 | X-H torsion
[ 7974 7965 7964 7962 ] final -108.12 input  175.53 | X-H torsion
[ 8008 7997 7996 7995 ] final   57.35 input   59.86 | X-H torsion
[ 10167 10162 10161 10158 ] final -158.91 input  -65.29 | X-H torsion
[ 10718 10713 10712 10709 ] final -116.12 input   66.30 | X-H torsion
[ 10763 10752 10751 10750 ] final  -88.22 input  -60.55 | X-H torsion
[ 11005 11000 10999 10996 ] final  -33.57 input  -57.11 | X-H torsion

> <Gold.Protein.ActiveResidues>
 VAL166  LYS551  ARG553  GLY616  TRP617  ASP618  TYR619  PRO620  LYS621  CYS622 
 ASP623  PHE694  ASN695  SER759  ASP760  ASP761  ALA762  ILE779  LEU786  VAL792 
 PHE793  MET794  SER795  GLU796  ALA797  LYS798  CYS799  TRP800  GLU811  SER814 

> <Gold.Protein.RotatedAtoms>
  151.4812  133.3546  159.2838 H   0  0  0  0  0  0  0  0  0  0  0  0  # atno 6907 bound_to 6896
  150.8896  134.8300  159.7294 H   0  0  0  0  0  0  0  0  0  0  0  0  # atno 6908 bound_to 6896
  152.4814  134.4720  159.9690 H   0  0  0  0  0  0  0  0  0  0  0  0  # atno 6909 bound_to 6896
  145.1968  140.9039  143.3392 H   0  0  0  0  0  0  0  0  0  0  0  0  # atno 7974 bound_to 7965
  155.5324  140.3482  155.4429 H   0  0  0  0  0  0  0  0  0  0  0  0  # atno 8008 bound_to 7997
  156.0709  140.1363  156.9856 H   0  0  0  0  0  0  0  0  0  0  0  0  # atno 8009 bound_to 7997
  154.4527  140.0966  156.6642 H   0  0  0  0  0  0  0  0  0  0  0  0  # atno 8010 bound_to 7997
  139.6655  143.9836  152.2252 H   0  0  0  0  0  0  0  0  0  0  0  0  # atno 10167 bound_to 10162
  156.0941  130.6118  150.8994 H   0  0  0  0  0  0  0  0  0  0  0  0  # atno 10718 bound_to 10713
  154.6422  135.5385  153.7802 H   0  0  0  0  0  0  0  0  0  0  0  0  # atno 10763 bound_to 10752
  153.0339  135.6462  154.1143 H   0  0  0  0  0  0  0  0  0  0  0  0  # atno 10764 bound_to 10752
  154.1067  135.2929  155.3219 H   0  0  0  0  0  0  0  0  0  0  0  0  # atno 10765 bound_to 10752
  140.9645  133.7145  156.1423 H   0  0  0  0  0  0  0  0  0  0  0  0  # atno 11005 bound_to 11000
  144.9986  139.3620  143.6179 LP  0  0  0  0  0  0  0  0  0  0  0  0  # atno 17320 bound_to 7965
  146.3425  139.9200  142.8768 LP  0  0  0  0  0  0  0  0  0  0  0  0  # atno 17321 bound_to 7965
  139.9587  144.6572  150.8101 LP  0  0  0  0  0  0  0  0  0  0  0  0  # atno 17342 bound_to 10162
  140.7597  143.3136  151.2786 LP  0  0  0  0  0  0  0  0  0  0  0  0  # atno 17343 bound_to 10162
  157.6098  131.0937  150.8814 LP  0  0  0  0  0  0  0  0  0  0  0  0  # atno 17370 bound_to 10713
  156.8956  130.5228  149.5284 LP  0  0  0  0  0  0  0  0  0  0  0  0  # atno 17371 bound_to 10713
  140.7419  134.4141  157.5553 LP  0  0  0  0  0  0  0  0  0  0  0  0  # atno 17394 bound_to 11000
  139.8890  134.8842  156.2446 LP  0  0  0  0  0  0  0  0  0  0  0  0  # atno 17395 bound_to 11000

$$$$
