AV-unprocessed.smi:1586|AV-procd|sdf|6373|dock4
  -GOLD-   22720 7 03D 1   1.00000     0.00000
 Structure written by MMmdl.
 47 48  0  0  0  0  0  0  0  0  2 V2000
  143.9990  132.6596  149.3339 C   0  0  0  0  0  0  0  0  0  0  0  0
  143.9114  132.9592  150.8373 C   0  0  0  0  0  0  0  0  0  0  0  0
  143.6067  134.3839  151.1218 N   0  3  0  0  0  0  0  0  0  0  0  0
  144.6466  135.3247  150.6338 C   0  0  0  0  0  0  0  0  0  0  0  0
  144.2433  136.7805  150.9502 C   0  0  0  0  0  0  0  0  0  0  0  0
  144.0803  137.0018  152.3944 N   0  0  0  0  0  0  0  0  0  0  0  0
  145.3143  136.8943  153.2049 C   0  0  2  0  0  0  0  0  0  0  0  0
  144.9648  136.5560  154.6734 C   0  0  0  0  0  0  0  0  0  0  0  0
  146.1656  138.1930  153.1437 C   0  0  0  0  0  0  0  0  0  0  0  0
  147.5996  137.9289  153.2174 N   0  0  0  0  0  0  0  0  0  0  0  0
  148.4320  138.4926  154.1054 C   0  0  0  0  0  0  0  0  0  0  0  0
  148.0664  139.3107  154.9510 O   0  0  0  0  0  0  0  0  0  0  0  0
  149.6916  138.0513  153.9488 N   0  0  0  0  0  0  0  0  0  0  0  0
  150.8334  138.4162  154.7071 C   0  0  0  0  0  0  0  0  0  0  0  0
  151.5139  137.4606  155.5074 C   0  0  0  0  0  0  0  0  0  0  0  0
  152.5275  138.1899  156.0626 C   0  0  0  0  0  0  0  0  0  0  0  0
  153.6274  137.8427  157.0065 C   0  0  0  0  0  0  0  0  0  0  0  0
  152.4708  139.4809  155.6366 O   0  0  0  0  0  0  0  0  0  0  0  0
  151.3830  139.6196  154.7666 N   0  0  0  0  0  0  0  0  0  0  0  0
  142.9888  136.1095  152.8143 C   0  0  0  0  0  0  0  0  0  0  0  0
  143.3232  134.6225  152.5588 C   0  0  0  0  0  0  0  0  0  0  0  0
  144.1253  131.5900  149.1646 H   0  0  0  0  0  0  0  0  0  0  0  0
  144.8460  133.1604  148.8656 H   0  0  0  0  0  0  0  0  0  0  0  0
  143.0920  132.9704  148.8148 H   0  0  0  0  0  0  0  0  0  0  0  0
  143.1189  132.3380  151.2568 H   0  0  0  0  0  0  0  0  0  0  0  0
  144.8337  132.6660  151.3411 H   0  0  0  0  0  0  0  0  0  0  0  0
  145.6167  135.0793  151.0677 H   0  0  0  0  0  0  0  0  0  0  0  0
  144.7568  135.2243  149.5547 H   0  0  0  0  0  0  0  0  0  0  0  0
  144.9500  137.4830  150.5136 H   0  0  0  0  0  0  0  0  0  0  0  0
  143.2971  137.0042  150.4554 H   0  0  0  0  0  0  0  0  0  0  0  0
  145.9264  136.0824  152.8162 H   0  0  0  0  0  0  0  0  0  0  0  0
  145.8451  136.5762  155.3152 H   0  0  0  0  0  0  0  0  0  0  0  0
  144.5511  135.5541  154.7803 H   0  0  0  0  0  0  0  0  0  0  0  0
  144.2465  137.2663  155.0841 H   0  0  0  0  0  0  0  0  0  0  0  0
  146.0050  138.7500  152.2216 H   0  0  0  0  0  0  0  0  0  0  0  0
  145.8944  138.8612  153.9619 H   0  0  0  0  0  0  0  0  0  0  0  0
  147.9781  137.2675  152.5547 H   0  0  0  0  0  0  0  0  0  0  0  0
  149.8501  137.3764  153.2154 H   0  0  0  0  0  0  0  0  0  0  0  0
  151.2960  136.4132  155.6538 H   0  0  0  0  0  0  0  0  0  0  0  0
  153.8433  136.7746  156.9759 H   0  0  0  0  0  0  0  0  0  0  0  0
  153.3545  138.1044  158.0289 H   0  0  0  0  0  0  0  0  0  0  0  0
  154.5422  138.3787  156.7523 H   0  0  0  0  0  0  0  0  0  0  0  0
  142.7250  136.2679  153.8582 H   0  0  0  0  0  0  0  0  0  0  0  0
  142.0894  136.3751  152.2567 H   0  0  0  0  0  0  0  0  0  0  0  0
  142.4710  134.0119  152.8591 H   0  0  0  0  0  0  0  0  0  0  0  0
  144.1652  134.2946  153.1691 H   0  0  0  0  0  0  0  0  0  0  0  0
  142.7552  134.6065  150.6264 H   0  0  0  0  0  0  0  0  0  0  0  0
  1  2  1  0  0  0  0
  1 22  1  0  0  0  0
  1 23  1  0  0  0  0
  1 24  1  0  0  0  0
  2  3  1  0  0  0  0
  2 25  1  0  0  0  0
  2 26  1  0  0  0  0
  3 21  1  0  0  0  0
  3  4  1  0  0  0  0
  3 47  1  0  0  0  0
  4  5  1  0  0  0  0
  4 27  1  0  0  0  0
  4 28  1  0  0  0  0
  5  6  1  0  0  0  0
  5 29  1  0  0  0  0
  5 30  1  0  0  0  0
  6  7  1  0  0  0  0
  6 20  1  0  0  0  0
  7  8  1  0  0  0  0
  7  9  1  0  0  0  0
  7 31  1  0  0  0  0
  8 32  1  0  0  0  0
  8 33  1  0  0  0  0
  8 34  1  0  0  0  0
  9 10  1  0  0  0  0
  9 35  1  0  0  0  0
  9 36  1  0  0  0  0
 10 11  1  0  0  0  0
 10 37  1  0  0  0  0
 11 12  2  0  0  0  0
 11 13  1  0  0  0  0
 13 14  1  0  0  0  0
 13 38  1  0  0  0  0
 14 19  2  0  0  0  0
 14 15  1  0  0  0  0
 15 16  2  0  0  0  0
 15 39  1  0  0  0  0
 16 17  1  0  0  0  0
 16 18  1  0  0  0  0
 17 40  1  0  0  0  0
 17 41  1  0  0  0  0
 17 42  1  0  0  0  0
 18 19  1  0  0  0  0
 20 21  1  0  0  0  0
 20 43  1  0  0  0  0
 20 44  1  0  0  0  0
 21 45  1  0  0  0  0
 21 46  1  0  0  0  0
M  CHG  1   3   1
M  END
> <s_m_source_file>
AV-unprocessed.smi

> <i_m_source_file_index>
1586

> <i_lp_mmshare_version>
43012

> <i_f3d_flags>
0

> <s_epik_input>
W0NIM11bQ0gyXU4xW0NIMl1bQ0gyXU4oW0NIMl1bQ0gyXTEpW0NASF0oW0NIM10pW0NIMl1bTkhdQyg9TylbTkhdYzJbY0hdYyhbQ0gzXSlvbjI=

> <s_epik_cmdline>
J2VwaWtfcHl0aG9uJywgJy1waCcsICc3LjAnLCAnLXRuJywgJzgnLCAnLW1hJywgJzIwMCcsICctbWV0YWxfYmluZGluZycsICctaW1hZScsICc8aW5maWxlLm1hZT4nLCAnLW9tYWUnLCAnPG91dGZpbGUubWFlPic=

> <r_epik_Ionization_Penalty>
0.0459786

> <r_epik_Ionization_Penalty_Charging>
0.0453654

> <r_epik_Ionization_Penalty_Neutral>
0.000613264

> <r_epik_State_Penalty>
0.163057

> <r_epik_Charging_Adjusted_Penalty>
0.208422

> <i_epik_Tot_Q>
1

> <i_epik_Tot_abs_Q>
1

> <r_epik_Metal_State_Penalty>
0.17399

> <b_epik_Metal_Only>
0

> <s_lp_Force_Field>
OPLS_2005

> <r_lp_Energy>
17.9393

> <b_lp_Chiralities_Consistent>
1

> <s_lp_Variant>
AV-unprocessed.smi:1586-1

> <Gold.Version>
5.8.1

> <Gold.Id.Protein>
6NUR|6NUR_protein|mol2

> <Gold.PLP.Fitness>
40.5892

> <Gold.PLP.PLP>
-26.2344

> <Gold.PLP.part.hbond>
-4.8526

> <Gold.PLP.part.metal>
0.0000

> <Gold.PLP.part.buried>
-0.1845

> <Gold.PLP.part.nonpolar>
-22.9963

> <Gold.PLP.part.repulsive>
1.0713

> <Gold.PLP.ligand.clash>
0.0167

> <Gold.PLP.ligand.torsion>
1.5766

> <Gold.PLP.Chemscore.Hbond>
5.8210

> <Gold.PLP.Chemscore.CHOScore>
0.0000

> <Gold.PLP.Chemscore.Metal>
0.0000

> <Gold.Chemscore.Hbonds>
donor molecule, donor type, donor heavy atom, donor atom, acceptor molecule, acceptor atom, score
      L1  H     3    47       P1 10186  1.92
      L1  H    10    37       P1  7948  1.00
      L1  H    13    38       P1  7948  0.91
      P1  H  7989  7998       L1    19  1.00
      P1  H  7997  8008       L1    18  0.89

> <Gold.PLP.Chemscore.Internal.Correction>
0.0616

> <Gold.Rescore>
     Score         DG    S(hbond)    S(metal)    S(lipo)     H(rot)  DE(clash)    DE(int)     intcor
     15.13     -19.15       3.09        0.00      67.20       1.76       2.45       1.57       ----

> <Gold.Chemscore.Fitness>
15.1325

> <Gold.Chemscore.DG>
-19.1519

> <Gold.Chemscore.ZeroCoef>
-5.4800

> <Gold.Chemscore.Hbond>
3.0913

> <Gold.Chemscore.Metal>
0.0000

> <Gold.Chemscore.Lipo>
67.1954

> <Gold.Chemscore.Internal_Hbond>
0.0000

> <Gold.Chemscore.DEClash>
2.4495

> <Gold.Chemscore.DEInternal>
1.5699

> <Gold.Chemscore.Rot>
1.7637

> <Gold.Chemscore.Internal.Correction>
   9.000000E+99

> <Gold.Chemscore.Hbonds>
donor molecule, donor type, donor heavy atom, donor atom, acceptor molecule, acceptor atom, score
      L1  H     3    47       P1 10186  0.23
      L1  H    10    37       P1  7948  0.97
      L1  H    13    38       P1  7948  0.40
      P1  H  7989  7998       L1    19  0.85
      P1  H  7997  8008       L1    18  0.30

> <Gold.Chemscore.Hbond.Weighted>
-10.3250

> <Gold.Chemscore.Metal.Weighted>
-0.0000

> <Gold.Chemscore.Lipo.Weighted>
-7.8619

> <Gold.Chemscore.Internal_Hbond.Weighted>
0.0000

> <Gold.Chemscore.DEClash.Weighted>
2.4495

> <Gold.Chemscore.DEInternal.Weighted>
1.5699

> <Gold.Chemscore.Rot.Weighted>
4.5150

> <Gold.Chemscore.Internal.Correction.Weighted>
   9.000000E+99

> <Gold.Protein.RotatedTorsions>
[ 6907 6896 6895 6894 ] final -117.45 input  -60.11 | X-H torsion
[ 7974 7965 7964 7962 ] final    7.61 input  175.53 | X-H torsion
[ 8008 7997 7996 7995 ] final  -27.07 input   59.86 | X-H torsion
[ 10167 10162 10161 10158 ] final  154.84 input  -65.29 | X-H torsion
[ 10718 10713 10712 10709 ] final  112.85 input   66.30 | X-H torsion
[ 10763 10752 10751 10750 ] final  -37.44 input  -60.55 | X-H torsion
[ 11005 11000 10999 10996 ] final   69.55 input  -57.11 | X-H torsion

> <Gold.Protein.ActiveResidues>
 VAL166  LYS551  ARG553  GLY616  TRP617  ASP618  TYR619  PRO620  LYS621  CYS622 
 ASP623  PHE694  ASN695  SER759  ASP760  ASP761  ALA762  ILE779  LEU786  VAL792 
 PHE793  MET794  SER795  GLU796  ALA797  LYS798  CYS799  TRP800  GLU811  SER814 

> <Gold.Protein.RotatedAtoms>
  150.8138  133.8374  159.3169 H   0  0  0  0  0  0  0  0  0  0  0  0  # atno 6907 bound_to 6896
  151.6152  135.1035  160.0099 H   0  0  0  0  0  0  0  0  0  0  0  0  # atno 6908 bound_to 6896
  152.4230  133.7107  159.6534 H   0  0  0  0  0  0  0  0  0  0  0  0  # atno 6909 bound_to 6896
  146.2425  140.0058  142.8411 H   0  0  0  0  0  0  0  0  0  0  0  0  # atno 7974 bound_to 7965
  154.4394  140.1882  156.0875 H   0  0  0  0  0  0  0  0  0  0  0  0  # atno 8008 bound_to 7997
  156.0391  140.3322  155.7198 H   0  0  0  0  0  0  0  0  0  0  0  0  # atno 8009 bound_to 7997
  155.5726  140.0614  157.2793 H   0  0  0  0  0  0  0  0  0  0  0  0  # atno 8010 bound_to 7997
  139.4822  144.5151  151.7964 H   0  0  0  0  0  0  0  0  0  0  0  0  # atno 10167 bound_to 10162
  157.6370  131.0974  150.6955 H   0  0  0  0  0  0  0  0  0  0  0  0  # atno 10718 bound_to 10713
  153.8964  135.6807  153.4757 H   0  0  0  0  0  0  0  0  0  0  0  0  # atno 10763 bound_to 10752
  153.1153  135.4764  154.9102 H   0  0  0  0  0  0  0  0  0  0  0  0  # atno 10764 bound_to 10752
  154.7597  135.3207  154.8356 H   0  0  0  0  0  0  0  0  0  0  0  0  # atno 10765 bound_to 10752
  139.9647  134.7001  156.0570 H   0  0  0  0  0  0  0  0  0  0  0  0  # atno 11005 bound_to 11000
  145.1373  140.9552  143.4509 LP  0  0  0  0  0  0  0  0  0  0  0  0  # atno 17320 bound_to 7965
  145.0329  139.3325  143.6015 LP  0  0  0  0  0  0  0  0  0  0  0  0  # atno 17321 bound_to 7965
  140.4659  144.1656  150.5911 LP  0  0  0  0  0  0  0  0  0  0  0  0  # atno 17342 bound_to 10162
  140.4435  143.2516  151.9442 LP  0  0  0  0  0  0  0  0  0  0  0  0  # atno 17343 bound_to 10162
  156.7285  130.4702  149.5505 LP  0  0  0  0  0  0  0  0  0  0  0  0  # atno 17370 bound_to 10713
  156.1618  130.6379  151.0728 LP  0  0  0  0  0  0  0  0  0  0  0  0  # atno 17371 bound_to 10713
  141.1326  133.6582  156.3506 LP  0  0  0  0  0  0  0  0  0  0  0  0  # atno 17394 bound_to 11000
  140.5422  134.6109  157.5383 LP  0  0  0  0  0  0  0  0  0  0  0  0  # atno 17395 bound_to 11000

$$$$
