AV-unprocessed.smi:2046|AV-procd|sdf|8311|dock9
  -GOLD-   2272010573D 1   1.00000     0.00000
 Structure written by MMmdl.
 30 31  0  0  0  0  0  0  0  0  1 V2000
  147.9120  140.9673  158.4778 O   0  0  0  0  0  0  0  0  0  0  0  0
  148.0500  142.0105  157.8381 C   0  0  0  0  0  0  0  0  0  0  0  0
  147.5323  143.2047  158.1759 N   0  0  0  0  0  0  0  0  0  0  0  0
  146.7358  143.5317  159.3052 C   0  0  0  0  0  0  0  0  0  0  0  0
  146.7796  142.8607  160.4672 N   0  0  0  0  0  0  0  0  0  0  0  0
  145.8996  143.3867  161.4043 N   0  0  0  0  0  0  0  0  0  0  0  0
  145.2280  144.4321  160.9132 C   0  0  0  0  0  0  0  0  0  0  0  0
  145.6047  144.8764  159.2577 S   0  0  0  0  0  0  0  0  0  0  0  0
  148.7504  142.0920  156.6974 N   0  0  0  0  0  0  0  0  0  0  0  0
  149.4239  140.9795  156.0272 C   0  0  2  0  0  0  0  0  0  0  0  0
  150.9016  140.8768  156.4855 C   0  0  0  0  0  0  0  0  0  0  0  0
  151.8694  140.1832  155.5040 C   0  0  0  0  0  0  0  0  0  0  0  0
  151.4408  138.7803  155.0279 C   0  0  0  0  0  0  0  0  0  0  0  0
  150.0428  138.6638  154.3741 C   0  0  0  0  0  0  0  0  0  0  0  0
  149.5365  139.9109  153.8016 N   0  0  0  0  0  0  0  0  0  0  0  0
  149.2069  141.0099  154.5020 C   0  0  0  0  0  0  0  0  0  0  0  0
  148.7674  142.0168  153.9478 O   0  0  0  0  0  0  0  0  0  0  0  0
  147.7300  143.9711  157.5495 H   0  0  0  0  0  0  0  0  0  0  0  0
  144.5054  144.9451  161.5306 H   0  0  0  0  0  0  0  0  0  0  0  0
  148.8073  142.9891  156.2373 H   0  0  0  0  0  0  0  0  0  0  0  0
  148.9153  140.0758  156.3658 H   0  0  0  0  0  0  0  0  0  0  0  0
  151.2912  141.8781  156.6750 H   0  0  0  0  0  0  0  0  0  0  0  0
  150.9371  140.3627  157.4469 H   0  0  0  0  0  0  0  0  0  0  0  0
  152.0269  140.8250  154.6360 H   0  0  0  0  0  0  0  0  0  0  0  0
  152.8485  140.1064  155.9775 H   0  0  0  0  0  0  0  0  0  0  0  0
  152.1848  138.4377  154.3079 H   0  0  0  0  0  0  0  0  0  0  0  0
  151.4996  138.0792  155.8610 H   0  0  0  0  0  0  0  0  0  0  0  0
  150.0721  137.9114  153.5856 H   0  0  0  0  0  0  0  0  0  0  0  0
  149.3215  138.2876  155.1004 H   0  0  0  0  0  0  0  0  0  0  0  0
  149.4085  139.9346  152.8002 H   0  0  0  0  0  0  0  0  0  0  0  0
  1  2  2  0  0  0  0
  2  3  1  0  0  0  0
  2  9  1  0  0  0  0
  3  4  1  0  0  0  0
  3 18  1  0  0  0  0
  4  8  1  0  0  0  0
  4  5  2  0  0  0  0
  5  6  1  0  0  0  0
  6  7  2  0  0  0  0
  7  8  1  0  0  0  0
  7 19  1  0  0  0  0
  9 10  1  0  0  0  0
  9 20  1  0  0  0  0
 10 16  1  0  0  0  0
 10 11  1  0  0  0  0
 10 21  1  0  0  0  0
 11 12  1  0  0  0  0
 11 22  1  0  0  0  0
 11 23  1  0  0  0  0
 12 13  1  0  0  0  0
 12 24  1  0  0  0  0
 12 25  1  0  0  0  0
 13 14  1  0  0  0  0
 13 26  1  0  0  0  0
 13 27  1  0  0  0  0
 14 15  1  0  0  0  0
 14 28  1  0  0  0  0
 14 29  1  0  0  0  0
 15 16  1  0  0  0  0
 15 30  1  0  0  0  0
 16 17  2  0  0  0  0
M  END
> <s_m_source_file>
AV-unprocessed.smi

> <i_m_source_file_index>
2046

> <i_lp_mmshare_version>
43012

> <i_f3d_flags>
0

> <s_epik_input>
czFbY0hdbm5jMVtOSF1DKD1PKVtOSF1bQ0BASF0yW0NIMl1bQ0gyXVtDSDJdW0NIMl1bTkhdQzI9Tw==

> <s_epik_cmdline>
J2VwaWtfcHl0aG9uJywgJy1waCcsICc3LjAnLCAnLXRuJywgJzgnLCAnLW1hJywgJzIwMCcsICctbWV0YWxfYmluZGluZycsICctaW1hZScsICc8aW5maWxlLm1hZT4nLCAnLW9tYWUnLCAnPG91dGZpbGUubWFlPic=

> <r_lp_tautomer_probability>
1

> <r_epik_Ionization_Penalty>
0.000691558

> <r_epik_Ionization_Penalty_Charging>
0

> <r_epik_Ionization_Penalty_Neutral>
0.000691558

> <r_epik_State_Penalty>
-0

> <r_epik_Charging_Adjusted_Penalty>
0

> <i_epik_Tot_Q>
0

> <i_epik_Tot_abs_Q>
0

> <r_epik_Metal_State_Penalty>
0.252698

> <b_epik_Metal_Only>
0

> <s_lp_Force_Field>
OPLS_2005

> <r_lp_Energy>
13.4172

> <b_lp_Chiralities_Consistent>
1

> <s_lp_Variant>
AV-unprocessed.smi:2046-1

> <Gold.Version>
5.8.1

> <Gold.Id.Protein>
6NUR|6NUR_protein|mol2

> <Gold.PLP.Fitness>
39.7772

> <Gold.PLP.PLP>
-27.1109

> <Gold.PLP.part.hbond>
-7.4214

> <Gold.PLP.part.metal>
0.0000

> <Gold.PLP.part.buried>
-2.2367

> <Gold.PLP.part.nonpolar>
-18.4827

> <Gold.PLP.part.repulsive>
0.5940

> <Gold.PLP.ligand.clash>
0.0000

> <Gold.PLP.ligand.torsion>
0.4491

> <Gold.PLP.Chemscore.Hbond>
4.5040

> <Gold.PLP.Chemscore.CHOScore>
0.0000

> <Gold.PLP.Chemscore.Metal>
0.0000

> <Gold.Chemscore.Hbonds>
donor molecule, donor type, donor heavy atom, donor atom, acceptor molecule, acceptor atom, score
      L1  H     3    18       P1  8029  0.25
      L1  H     9    20       P1  8028  1.00
      L1  H    15    30       P1  7957  1.00
      P1  H  6933  6944       L1     5  0.91
      P1  H  6934  6946       L1     5  0.93
      P1  H  8011  8017       L1    17  0.42

> <Gold.PLP.Chemscore.Internal.Correction>
0.0524

> <Gold.Rescore>
     Score         DG    S(hbond)    S(metal)    S(lipo)     H(rot)  DE(clash)    DE(int)     intcor
     18.72     -20.43       3.80        0.00      41.12       1.00       0.14       1.58       ----

> <Gold.Chemscore.Fitness>
18.7153

> <Gold.Chemscore.DG>
-20.4340

> <Gold.Chemscore.ZeroCoef>
-5.4800

> <Gold.Chemscore.Hbond>
3.8032

> <Gold.Chemscore.Metal>
0.0000

> <Gold.Chemscore.Lipo>
41.1229

> <Gold.Chemscore.Internal_Hbond>
0.0000

> <Gold.Chemscore.DEClash>
0.1395

> <Gold.Chemscore.DEInternal>
1.5792

> <Gold.Chemscore.Rot>
1.0000

> <Gold.Chemscore.Internal.Correction>
   9.000000E+99

> <Gold.Chemscore.Hbonds>
donor molecule, donor type, donor heavy atom, donor atom, acceptor molecule, acceptor atom, score
      L1  H     9    20       P1  8028  0.99
      L1  H    15    30       P1  7957  1.00
      P1  H  6933  6944       L1     5  0.54
      P1  H  6934  6946       L1     5  0.61
      P1  H  8011  8017       L1    17  0.33

> <Gold.Chemscore.Hbond.Weighted>
-12.7026

> <Gold.Chemscore.Metal.Weighted>
-0.0000

> <Gold.Chemscore.Lipo.Weighted>
-4.8114

> <Gold.Chemscore.Internal_Hbond.Weighted>
0.0000

> <Gold.Chemscore.DEClash.Weighted>
0.1395

> <Gold.Chemscore.DEInternal.Weighted>
1.5792

> <Gold.Chemscore.Rot.Weighted>
2.5600

> <Gold.Chemscore.Internal.Correction.Weighted>
   9.000000E+99

> <Gold.Protein.RotatedTorsions>
[ 6907 6896 6895 6894 ] final -121.64 input  -60.11 | X-H torsion
[ 7974 7965 7964 7962 ] final  174.45 input  175.53 | X-H torsion
[ 8008 7997 7996 7995 ] final -148.03 input   59.86 | X-H torsion
[ 10167 10162 10161 10158 ] final  123.00 input  -65.29 | X-H torsion
[ 10718 10713 10712 10709 ] final  -50.54 input   66.30 | X-H torsion
[ 10763 10752 10751 10750 ] final   93.74 input  -60.55 | X-H torsion
[ 11005 11000 10999 10996 ] final -142.90 input  -57.11 | X-H torsion

> <Gold.Protein.ActiveResidues>
 VAL166  LYS551  ARG553  GLY616  TRP617  ASP618  TYR619  PRO620  LYS621  CYS622 
 ASP623  PHE694  ASN695  SER759  ASP760  ASP761  ALA762  ILE779  LEU786  VAL792 
 PHE793  MET794  SER795  GLU796  ALA797  LYS798  CYS799  TRP800  GLU811  SER814 

> <Gold.Protein.RotatedAtoms>
  150.8502  133.7799  159.3028 H   0  0  0  0  0  0  0  0  0  0  0  0  # atno 6907 bound_to 6896
  151.5474  135.1066  159.9951 H   0  0  0  0  0  0  0  0  0  0  0  0  # atno 6908 bound_to 6896
  152.4546  133.7654  159.6825 H   0  0  0  0  0  0  0  0  0  0  0  0  # atno 6909 bound_to 6896
  144.7221  139.9799  143.6438 H   0  0  0  0  0  0  0  0  0  0  0  0  # atno 7974 bound_to 7965
  155.5851  140.0647  157.2773 H   0  0  0  0  0  0  0  0  0  0  0  0  # atno 8008 bound_to 7997
  154.4321  140.1845  156.1063 H   0  0  0  0  0  0  0  0  0  0  0  0  # atno 8009 bound_to 7997
  156.0275  140.3310  155.7108 H   0  0  0  0  0  0  0  0  0  0  0  0  # atno 8010 bound_to 7997
  139.5825  144.6992  151.3491 H   0  0  0  0  0  0  0  0  0  0  0  0  # atno 10167 bound_to 10162
  156.1791  130.4150  149.9533 H   0  0  0  0  0  0  0  0  0  0  0  0  # atno 10718 bound_to 10713
  153.2337  135.4315  155.0623 H   0  0  0  0  0  0  0  0  0  0  0  0  # atno 10763 bound_to 10752
  154.8308  135.3385  154.6750 H   0  0  0  0  0  0  0  0  0  0  0  0  # atno 10764 bound_to 10752
  153.7176  135.7019  153.5077 H   0  0  0  0  0  0  0  0  0  0  0  0  # atno 10765 bound_to 10752
  140.8179  134.2666  157.4913 H   0  0  0  0  0  0  0  0  0  0  0  0  # atno 11005 bound_to 11000
  146.0496  139.3498  143.0647 LP  0  0  0  0  0  0  0  0  0  0  0  0  # atno 17320 bound_to 7965
  145.8232  140.9669  143.0888 LP  0  0  0  0  0  0  0  0  0  0  0  0  # atno 17321 bound_to 7965
  140.7102  143.7411  150.7553 LP  0  0  0  0  0  0  0  0  0  0  0  0  # atno 17342 bound_to 10162
  140.0947  143.4844  152.2459 LP  0  0  0  0  0  0  0  0  0  0  0  0  # atno 17343 bound_to 10162
  156.7310  130.9043  151.3625 LP  0  0  0  0  0  0  0  0  0  0  0  0  # atno 17370 bound_to 10713
  157.6856  130.9182  150.0377 LP  0  0  0  0  0  0  0  0  0  0  0  0  # atno 17371 bound_to 10713
  139.8710  134.9519  156.4100 LP  0  0  0  0  0  0  0  0  0  0  0  0  # atno 17394 bound_to 11000
  140.9129  133.7699  155.9813 LP  0  0  0  0  0  0  0  0  0  0  0  0  # atno 17395 bound_to 11000

$$$$
