AV-unprocessed.smi:356|AV-procd|sdf|2415|dock2
  -GOLD-   2262022353D 1   1.00000     0.00000
 Structure written by MMmdl.
 43 45  0  0  0  0  0  0  0  0  3 V2000
  149.1327  141.3101  154.2487 C   0  0  0  0  0  0  0  0  0  0  0  0
  149.9769  141.4269  155.4731 C   0  0  0  0  0  0  0  0  0  0  0  0
  149.9167  142.4281  156.3953 N   0  3  0  0  0  0  0  0  0  0  0  0
  150.8551  142.1995  157.4025 C   0  0  0  0  0  0  0  0  0  0  0  0
  151.1634  142.9353  158.5427 C   0  0  0  0  0  0  0  0  0  0  0  0
  152.1850  142.4236  159.3692 C   0  0  0  0  0  0  0  0  0  0  0  0
  152.8550  141.2247  159.0502 C   0  0  0  0  0  0  0  0  0  0  0  0
  152.5322  140.4861  157.8926 C   0  0  0  0  0  0  0  0  0  0  0  0
  151.5214  140.9991  157.0790 C   0  0  0  0  0  0  0  0  0  0  0  0
  150.9474  140.5588  155.8790 N   0  0  0  0  0  0  0  0  0  0  0  0
  151.4216  139.3152  155.2497 C   0  0  0  0  0  0  0  0  0  0  0  0
  150.2731  138.3491  154.8955 C   0  0  1  0  0  0  0  0  0  0  0  0
  149.9625  138.4650  153.5202 O   0  0  0  0  0  0  0  0  0  0  0  0
  150.6411  136.8830  155.1989 C   0  0  0  0  0  0  0  0  0  0  0  0
  149.6695  135.9192  154.6207 N   0  3  0  0  0  0  0  0  0  0  0  0
  150.1269  134.5139  154.7338 C   0  0  0  0  0  0  0  0  0  0  0  0
  149.1200  133.5647  154.0621 C   0  0  0  0  0  0  0  0  0  0  0  0
  147.8364  133.7378  154.6493 O   0  0  0  0  0  0  0  0  0  0  0  0
  147.3453  135.0608  154.4749 C   0  0  0  0  0  0  0  0  0  0  0  0
  148.2941  136.0593  155.1604 C   0  0  0  0  0  0  0  0  0  0  0  0
  148.4716  142.1719  154.1550 H   0  0  0  0  0  0  0  0  0  0  0  0
  148.5222  140.4084  154.2983 H   0  0  0  0  0  0  0  0  0  0  0  0
  149.7613  141.2579  153.3597 H   0  0  0  0  0  0  0  0  0  0  0  0
  150.6509  143.8540  158.7888 H   0  0  0  0  0  0  0  0  0  0  0  0
  152.4603  142.9616  160.2649 H   0  0  0  0  0  0  0  0  0  0  0  0
  153.6337  140.8645  159.7071 H   0  0  0  0  0  0  0  0  0  0  0  0
  153.0555  139.5709  157.6610 H   0  0  0  0  0  0  0  0  0  0  0  0
  152.0228  139.5581  154.3734 H   0  0  0  0  0  0  0  0  0  0  0  0
  152.1006  138.8380  155.9574 H   0  0  0  0  0  0  0  0  0  0  0  0
  149.3913  138.6408  155.4649 H   0  0  0  0  0  0  0  0  0  0  0  0
  149.7012  137.6167  153.1956 H   0  0  0  0  0  0  0  0  0  0  0  0
  151.6366  136.6867  154.7971 H   0  0  0  0  0  0  0  0  0  0  0  0
  150.7120  136.7194  156.2755 H   0  0  0  0  0  0  0  0  0  0  0  0
  151.1036  134.4019  154.2618 H   0  0  0  0  0  0  0  0  0  0  0  0
  150.2453  134.2512  155.7865 H   0  0  0  0  0  0  0  0  0  0  0  0
  149.0701  133.7453  152.9870 H   0  0  0  0  0  0  0  0  0  0  0  0
  149.4329  132.5292  154.1967 H   0  0  0  0  0  0  0  0  0  0  0  0
  147.2412  135.2871  153.4125 H   0  0  0  0  0  0  0  0  0  0  0  0
  146.3495  135.1275  154.9133 H   0  0  0  0  0  0  0  0  0  0  0  0
  148.3029  135.8829  156.2372 H   0  0  0  0  0  0  0  0  0  0  0  0
  147.9217  137.0713  155.0063 H   0  0  0  0  0  0  0  0  0  0  0  0
  149.6219  136.1213  153.6317 H   0  0  0  0  0  0  0  0  0  0  0  0
  149.2790  143.2119  156.3377 H   0  0  0  0  0  0  0  0  0  0  0  0
  1  2  1  0  0  0  0
  1 21  1  0  0  0  0
  1 22  1  0  0  0  0
  1 23  1  0  0  0  0
  2 10  1  0  0  0  0
  2  3  2  0  0  0  0
  3  4  1  0  0  0  0
  3 43  1  0  0  0  0
  4  9  2  0  0  0  0
  4  5  1  0  0  0  0
  5  6  2  0  0  0  0
  5 24  1  0  0  0  0
  6  7  1  0  0  0  0
  6 25  1  0  0  0  0
  7  8  2  0  0  0  0
  7 26  1  0  0  0  0
  8  9  1  0  0  0  0
  8 27  1  0  0  0  0
  9 10  1  0  0  0  0
 10 11  1  0  0  0  0
 11 12  1  0  0  0  0
 11 28  1  0  0  0  0
 11 29  1  0  0  0  0
 12 13  1  0  0  0  0
 12 14  1  0  0  0  0
 12 30  1  0  0  0  0
 13 31  1  0  0  0  0
 14 15  1  0  0  0  0
 14 32  1  0  0  0  0
 14 33  1  0  0  0  0
 15 20  1  0  0  0  0
 15 16  1  0  0  0  0
 15 42  1  0  0  0  0
 16 17  1  0  0  0  0
 16 34  1  0  0  0  0
 16 35  1  0  0  0  0
 17 18  1  0  0  0  0
 17 36  1  0  0  0  0
 17 37  1  0  0  0  0
 18 19  1  0  0  0  0
 19 20  1  0  0  0  0
 19 38  1  0  0  0  0
 19 39  1  0  0  0  0
 20 40  1  0  0  0  0
 20 41  1  0  0  0  0
M  CHG  1   3   1
M  CHG  1  15   1
M  END
> <s_m_source_file>
AV-unprocessed.smi

> <i_m_source_file_index>
356

> <i_lp_mmshare_version>
43012

> <i_f3d_flags>
0

> <s_epik_input>
W2NIXTFbY0hdW2NIXVtjSF1jKGMxMiluKGMobjIpW0NIM10pW0NIMl1bQ0BIXShbT0hdKVtDSDJdTjNbQ0gyXVtDSDJdT1tDSDJdW0NIMl0z

> <s_epik_cmdline>
J2VwaWtfcHl0aG9uJywgJy1waCcsICc3LjAnLCAnLXRuJywgJzgnLCAnLW1hJywgJzIwMCcsICctbWV0YWxfYmluZGluZycsICctaW1hZScsICc8aW5maWxlLm1hZT4nLCAnLW9tYWUnLCAnPG91dGZpbGUubWFlPic=

> <r_epik_Ionization_Penalty>
1.81899

> <r_epik_Ionization_Penalty_Charging>
1.81898

> <r_epik_Ionization_Penalty_Neutral>
1.42224e-05

> <r_epik_State_Penalty>
1.87399

> <r_epik_Charging_Adjusted_Penalty>
3.69296

> <i_epik_Tot_Q>
2

> <i_epik_Tot_abs_Q>
2

> <r_epik_Metal_State_Penalty>
5.87601

> <b_epik_Metal_Only>
0

> <s_lp_Force_Field>
OPLS_2005

> <r_lp_Energy>
27.965

> <b_lp_Chiralities_Consistent>
1

> <s_lp_Variant>
AV-unprocessed.smi:356-8

> <Gold.Version>
5.8.1

> <Gold.Id.Protein>
6NUR|6NUR_protein|mol2

> <Gold.PLP.Fitness>
52.1869

> <Gold.PLP.PLP>
-38.6131

> <Gold.PLP.part.hbond>
-4.0000

> <Gold.PLP.part.metal>
0.0000

> <Gold.PLP.part.buried>
-1.6738

> <Gold.PLP.part.nonpolar>
-31.3136

> <Gold.PLP.part.repulsive>
0.1734

> <Gold.PLP.ligand.clash>
0.0000

> <Gold.PLP.ligand.torsion>
0.7375

> <Gold.PLP.Chemscore.Hbond>
5.0000

> <Gold.PLP.Chemscore.CHOScore>
0.0000

> <Gold.PLP.Chemscore.Metal>
0.0000

> <Gold.Chemscore.Hbonds>
donor molecule, donor type, donor heavy atom, donor atom, acceptor molecule, acceptor atom, score
      L1  H     3    43       P1  8028  1.98
      L1  H    13    31       P1  7948  1.00
      L1  H    15    42       P1  7948  2.00

> <Gold.PLP.Chemscore.Internal.Correction>
0.0487

> <Gold.Rescore>
     Score         DG    S(hbond)    S(metal)    S(lipo)     H(rot)  DE(clash)    DE(int)     intcor
     18.80     -19.60       2.85        0.00      85.99       2.13       0.02       0.78       ----

> <Gold.Chemscore.Fitness>
18.7985

> <Gold.Chemscore.DG>
-19.6005

> <Gold.Chemscore.ZeroCoef>
-5.4800

> <Gold.Chemscore.Hbond>
2.8500

> <Gold.Chemscore.Metal>
0.0000

> <Gold.Chemscore.Lipo>
85.9920

> <Gold.Chemscore.Internal_Hbond>
0.0000

> <Gold.Chemscore.DEClash>
0.0247

> <Gold.Chemscore.DEInternal>
0.7772

> <Gold.Chemscore.Rot>
2.1327

> <Gold.Chemscore.Internal.Correction>
   9.000000E+99

> <Gold.Chemscore.Hbonds>
donor molecule, donor type, donor heavy atom, donor atom, acceptor molecule, acceptor atom, score
      L1  H     3    43       P1  8028  0.93
      L1  H    13    31       P1  7948  0.65
      L1  H    15    42       P1  7948  0.40

> <Gold.Chemscore.Hbond.Weighted>
-9.5190

> <Gold.Chemscore.Metal.Weighted>
-0.0000

> <Gold.Chemscore.Lipo.Weighted>
-10.0611

> <Gold.Chemscore.Internal_Hbond.Weighted>
0.0000

> <Gold.Chemscore.DEClash.Weighted>
0.0247

> <Gold.Chemscore.DEInternal.Weighted>
0.7772

> <Gold.Chemscore.Rot.Weighted>
5.4596

> <Gold.Chemscore.Internal.Correction.Weighted>
   9.000000E+99

> <Gold.Protein.RotatedTorsions>
[ 6907 6896 6895 6894 ] final   44.48 input  -60.11 | X-H torsion
[ 7974 7965 7964 7962 ] final -160.87 input  175.53 | X-H torsion
[ 8008 7997 7996 7995 ] final  102.95 input   59.86 | X-H torsion
[ 10167 10162 10161 10158 ] final  -55.08 input  -65.29 | X-H torsion
[ 10718 10713 10712 10709 ] final -170.80 input   66.30 | X-H torsion
[ 10763 10752 10751 10750 ] final  166.32 input  -60.55 | X-H torsion
[ 11005 11000 10999 10996 ] final    6.12 input  -57.11 | X-H torsion

> <Gold.Protein.ActiveResidues>
 VAL166  LYS551  ARG553  GLY616  TRP617  ASP618  TYR619  PRO620  LYS621  CYS622 
 ASP623  PHE694  ASN695  SER759  ASP760  ASP761  ALA762  ILE779  LEU786  VAL792 
 PHE793  MET794  SER795  GLU796  ALA797  LYS798  CYS799  TRP800  GLU811  SER814 

> <Gold.Protein.RotatedAtoms>
  152.2330  134.8303  160.0470 H   0  0  0  0  0  0  0  0  0  0  0  0  # atno 6907 bound_to 6896
  151.9045  133.3541  159.3850 H   0  0  0  0  0  0  0  0  0  0  0  0  # atno 6908 bound_to 6896
  150.7031  134.4720  159.5474 H   0  0  0  0  0  0  0  0  0  0  0  0  # atno 6909 bound_to 6896
  144.7411  140.3479  143.6122 H   0  0  0  0  0  0  0  0  0  0  0  0  # atno 7974 bound_to 7965
  156.1440  140.3173  155.8540 H   0  0  0  0  0  0  0  0  0  0  0  0  # atno 8008 bound_to 7997
  155.4100  140.0505  157.3049 H   0  0  0  0  0  0  0  0  0  0  0  0  # atno 8009 bound_to 7997
  154.5000  140.2125  155.9378 H   0  0  0  0  0  0  0  0  0  0  0  0  # atno 8010 bound_to 7997
  140.6394  143.2500  151.5029 H   0  0  0  0  0  0  0  0  0  0  0  0  # atno 10167 bound_to 10162
  156.7315  130.9308  151.3104 H   0  0  0  0  0  0  0  0  0  0  0  0  # atno 10718 bound_to 10713
  154.3373  135.2754  155.2441 H   0  0  0  0  0  0  0  0  0  0  0  0  # atno 10763 bound_to 10752
  154.4727  135.5879  153.6336 H   0  0  0  0  0  0  0  0  0  0  0  0  # atno 10764 bound_to 10752
  152.9861  135.6092  154.3571 H   0  0  0  0  0  0  0  0  0  0  0  0  # atno 10765 bound_to 10752
  140.5630  134.0174  155.7979 H   0  0  0  0  0  0  0  0  0  0  0  0  # atno 11005 bound_to 11000
  145.7307  139.1735  143.2432 LP  0  0  0  0  0  0  0  0  0  0  0  0  # atno 17320 bound_to 7965
  146.1208  140.7311  142.9458 LP  0  0  0  0  0  0  0  0  0  0  0  0  # atno 17321 bound_to 7965
  139.5604  144.2171  152.1681 LP  0  0  0  0  0  0  0  0  0  0  0  0  # atno 17342 bound_to 10162
  140.1437  144.5178  150.6728 LP  0  0  0  0  0  0  0  0  0  0  0  0  # atno 17343 bound_to 10162
  157.6857  130.9183  150.0380 LP  0  0  0  0  0  0  0  0  0  0  0  0  # atno 17370 bound_to 10713
  156.1526  130.3642  149.9416 LP  0  0  0  0  0  0  0  0  0  0  0  0  # atno 17371 bound_to 10713
  141.1103  133.9628  157.2923 LP  0  0  0  0  0  0  0  0  0  0  0  0  # atno 17394 bound_to 11000
  139.9398  135.0192  156.8673 LP  0  0  0  0  0  0  0  0  0  0  0  0  # atno 17395 bound_to 11000

$$$$
