AV-unprocessed.smi:464|AV-procd|sdf|2637|dock7
  -GOLD-   2262023 43D 1   1.00000     0.00000
 Structure written by MMmdl.
 24 25  0  0  0  0  0  0  0  0  2 V2000
  150.2595  143.7957  158.3002 O   0  0  0  0  0  0  0  0  0  0  0  0
  150.7285  142.7461  157.8660 C   0  0  0  0  0  0  0  0  0  0  0  0
  151.6705  142.0082  158.5237 N   0  5  0  0  0  0  0  0  0  0  0  0
  152.0859  140.8797  157.9119 C   0  0  0  0  0  0  0  0  0  0  0  0
  151.6638  140.3863  156.6935 C   0  0  0  0  0  0  0  0  0  0  0  0
  152.1375  139.2160  156.1217 N   0  0  0  0  0  0  0  0  0  0  0  0
  152.0980  138.9572  154.6895 C   0  0  0  0  0  0  0  0  0  0  0  0
  151.1898  137.7499  154.3952 C   0  0  0  0  0  0  0  0  0  0  0  0
  151.6353  136.6220  155.1443 O   0  0  0  0  0  0  0  0  0  0  0  0
  151.5927  136.8605  156.5489 C   0  0  0  0  0  0  0  0  0  0  0  0
  152.5116  138.0443  156.9005 C   0  0  0  0  0  0  0  0  0  0  0  0
  150.6499  141.1835  155.9944 C   0  0  0  0  0  0  0  0  0  0  0  0
  150.1604  140.8941  154.9032 O   0  0  0  0  0  0  0  0  0  0  0  0
  150.2705  142.3096  156.6584 N   0  0  0  0  0  0  0  0  0  0  0  0
  149.5744  142.8850  156.2080 H   0  0  0  0  0  0  0  0  0  0  0  0
  152.8555  140.2946  158.4601 H   0  0  0  0  0  0  0  0  0  0  0  0
  151.7383  139.8377  154.1554 H   0  0  0  0  0  0  0  0  0  0  0  0
  153.1114  138.7645  154.3355 H   0  0  0  0  0  0  0  0  0  0  0  0
  150.1509  137.9745  154.6415 H   0  0  0  0  0  0  0  0  0  0  0  0
  151.2194  137.5065  153.3334 H   0  0  0  0  0  0  0  0  0  0  0  0
  150.5663  137.0565  156.8629 H   0  0  0  0  0  0  0  0  0  0  0  0
  151.9194  135.9620  157.0725 H   0  0  0  0  0  0  0  0  0  0  0  0
  153.5513  137.7931  156.6874 H   0  0  0  0  0  0  0  0  0  0  0  0
  152.4514  138.2636  157.9674 H   0  0  0  0  0  0  0  0  0  0  0  0
  1  2  2  0  0  0  0
  2 14  1  0  0  0  0
  2  3  1  0  0  0  0
  3  4  1  0  0  0  0
  4  5  2  0  0  0  0
  4 16  1  0  0  0  0
  5  6  1  0  0  0  0
  5 12  1  0  0  0  0
  6 11  1  0  0  0  0
  6  7  1  0  0  0  0
  7  8  1  0  0  0  0
  7 17  1  0  0  0  0
  7 18  1  0  0  0  0
  8  9  1  0  0  0  0
  8 19  1  0  0  0  0
  8 20  1  0  0  0  0
  9 10  1  0  0  0  0
 10 11  1  0  0  0  0
 10 21  1  0  0  0  0
 10 22  1  0  0  0  0
 11 23  1  0  0  0  0
 11 24  1  0  0  0  0
 12 13  2  0  0  0  0
 12 14  1  0  0  0  0
 14 15  1  0  0  0  0
M  CHG  1   3  -1
M  END
> <s_m_source_file>
AV-unprocessed.smi

> <i_m_source_file_index>
464

> <i_lp_mmshare_version>
43012

> <i_f3d_flags>
0

> <s_epik_input>
Tz1jMVtuSF1bY0hdYyhjKD1PKVtuSF0xKU4yW0NIMl1bQ0gyXU9bQ0gyXVtDSDJdMg==

> <s_epik_cmdline>
J2VwaWtfcHl0aG9uJywgJy1waCcsICc3LjAnLCAnLXRuJywgJzgnLCAnLW1hJywgJzIwMCcsICctbWV0YWxfYmluZGluZycsICctaW1hZScsICc8aW5maWxlLm1hZT4nLCAnLW9tYWUnLCAnPG91dGZpbGUubWFlPic=

> <r_lp_tautomer_probability>
0.999801

> <r_epik_Ionization_Penalty>
2.66523

> <r_epik_Ionization_Penalty_Charging>
1.22855e-06

> <r_epik_Ionization_Penalty_Neutral>
2.66523

> <r_epik_State_Penalty>
2.66349

> <r_epik_Charging_Adjusted_Penalty>
2.66349

> <i_epik_Tot_Q>
-1

> <i_epik_Tot_abs_Q>
1

> <r_epik_Metal_State_Penalty>
0.434838

> <b_epik_Metal_Only>
1

> <s_lp_Force_Field>
OPLS_2005

> <r_lp_Energy>
24.7156

> <b_lp_Chiralities_Consistent>
1

> <s_lp_Variant>
AV-unprocessed.smi:464-2

> <Gold.Version>
5.8.1

> <Gold.Id.Protein>
6NUR|6NUR_protein|mol2

> <Gold.PLP.Fitness>
31.0002

> <Gold.PLP.PLP>
-23.2141

> <Gold.PLP.part.hbond>
-3.0000

> <Gold.PLP.part.metal>
0.0000

> <Gold.PLP.part.buried>
-3.6222

> <Gold.PLP.part.nonpolar>
-17.3126

> <Gold.PLP.part.repulsive>
0.7365

> <Gold.PLP.ligand.clash>
0.0722

> <Gold.PLP.ligand.torsion>
0.3679

> <Gold.PLP.Chemscore.Hbond>
2.7520

> <Gold.PLP.Chemscore.CHOScore>
0.0000

> <Gold.PLP.Chemscore.Metal>
0.0000

> <Gold.Chemscore.Hbonds>
donor molecule, donor type, donor heavy atom, donor atom, acceptor molecule, acceptor atom, score
      L1  H    14    15       P1  8028  0.99
      P1  H  7989  7998       L1    13  0.75
      P1  H 10752 10764       L1     9  1.00

> <Gold.PLP.Chemscore.Internal.Correction>
0.3380

> <Gold.Rescore>
     Score         DG    S(hbond)    S(metal)    S(lipo)     H(rot)  DE(clash)    DE(int)     intcor
     16.56     -18.42       2.60        0.00      36.47       0.00       0.01       1.84       ----

> <Gold.Chemscore.Fitness>
16.5620

> <Gold.Chemscore.DG>
-18.4158

> <Gold.Chemscore.ZeroCoef>
-5.4800

> <Gold.Chemscore.Hbond>
2.5955

> <Gold.Chemscore.Metal>
0.0000

> <Gold.Chemscore.Lipo>
36.4673

> <Gold.Chemscore.Internal_Hbond>
0.0000

> <Gold.Chemscore.DEClash>
0.0126

> <Gold.Chemscore.DEInternal>
1.8412

> <Gold.Chemscore.Rot>
0.0000

> <Gold.Chemscore.Internal.Correction>
   9.000000E+99

> <Gold.Chemscore.Hbonds>
donor molecule, donor type, donor heavy atom, donor atom, acceptor molecule, acceptor atom, score
      L1  H    14    15       P1  8028  0.87
      P1  H  7989  7998       L1    13  0.48
      P1  H 10752 10764       L1     9  0.90

> <Gold.Chemscore.Hbond.Weighted>
-8.6691

> <Gold.Chemscore.Metal.Weighted>
-0.0000

> <Gold.Chemscore.Lipo.Weighted>
-4.2667

> <Gold.Chemscore.Internal_Hbond.Weighted>
0.0000

> <Gold.Chemscore.DEClash.Weighted>
0.0126

> <Gold.Chemscore.DEInternal.Weighted>
1.8412

> <Gold.Chemscore.Rot.Weighted>
0.0000

> <Gold.Chemscore.Internal.Correction.Weighted>
   9.000000E+99

> <Gold.Protein.RotatedTorsions>
[ 6907 6896 6895 6894 ] final  115.56 input  -60.11 | X-H torsion
[ 7974 7965 7964 7962 ] final  113.24 input  175.53 | X-H torsion
[ 8008 7997 7996 7995 ] final  143.11 input   59.86 | X-H torsion
[ 10167 10162 10161 10158 ] final  135.09 input  -65.29 | X-H torsion
[ 10718 10713 10712 10709 ] final -146.03 input   66.30 | X-H torsion
[ 10763 10752 10751 10750 ] final  -59.53 input  -60.55 | X-H torsion
[ 11005 11000 10999 10996 ] final -135.94 input  -57.11 | X-H torsion

> <Gold.Protein.ActiveResidues>
 VAL166  LYS551  ARG553  GLY616  TRP617  ASP618  TYR619  PRO620  LYS621  CYS622 
 ASP623  PHE694  ASN695  SER759  ASP760  ASP761  ALA762  ILE779  LEU786  VAL792 
 PHE793  MET794  SER795  GLU796  ALA797  LYS798  CYS799  TRP800  GLU811  SER814 

> <Gold.Protein.RotatedAtoms>
  152.4734  133.8081  159.6988 H   0  0  0  0  0  0  0  0  0  0  0  0  # atno 6907 bound_to 6896
  150.8736  133.7461  159.2960 H   0  0  0  0  0  0  0  0  0  0  0  0  # atno 6908 bound_to 6896
  151.4988  135.1064  159.9875 H   0  0  0  0  0  0  0  0  0  0  0  0  # atno 6909 bound_to 6896
  145.2194  139.2869  143.4226 H   0  0  0  0  0  0  0  0  0  0  0  0  # atno 7974 bound_to 7965
  156.2936  140.2271  156.4838 H   0  0  0  0  0  0  0  0  0  0  0  0  # atno 8008 bound_to 7997
  154.7830  140.0459  157.1163 H   0  0  0  0  0  0  0  0  0  0  0  0  # atno 8009 bound_to 7997
  154.9736  140.3069  155.4980 H   0  0  0  0  0  0  0  0  0  0  0  0  # atno 8010 bound_to 7997
  139.5230  144.6534  151.5233 H   0  0  0  0  0  0  0  0  0  0  0  0  # atno 10167 bound_to 10162
  156.3899  130.7880  151.2081 H   0  0  0  0  0  0  0  0  0  0  0  0  # atno 10718 bound_to 10713
  154.2551  135.6318  153.5254 H   0  0  0  0  0  0  0  0  0  0  0  0  # atno 10763 bound_to 10752
  152.9905  135.5574  154.5765 H   0  0  0  0  0  0  0  0  0  0  0  0  # atno 10764 bound_to 10752
  154.5301  135.2888  155.1162 H   0  0  0  0  0  0  0  0  0  0  0  0  # atno 10765 bound_to 10752
  140.8852  134.1882  157.4565 H   0  0  0  0  0  0  0  0  0  0  0  0  # atno 11005 bound_to 11000
  146.3379  140.2496  142.8598 LP  0  0  0  0  0  0  0  0  0  0  0  0  # atno 17320 bound_to 7965
  144.9779  140.8432  143.5415 LP  0  0  0  0  0  0  0  0  0  0  0  0  # atno 17321 bound_to 7965
  140.6349  143.9003  150.6639 LP  0  0  0  0  0  0  0  0  0  0  0  0  # atno 17342 bound_to 10162
  140.2319  143.3729  152.1559 LP  0  0  0  0  0  0  0  0  0  0  0  0  # atno 17343 bound_to 10162
  157.7498  131.0319  150.4201 LP  0  0  0  0  0  0  0  0  0  0  0  0  # atno 17370 bound_to 10713
  156.4461  130.4001  149.6666 LP  0  0  0  0  0  0  0  0  0  0  0  0  # atno 17371 bound_to 10713
  139.8723  134.9834  156.5198 LP  0  0  0  0  0  0  0  0  0  0  0  0  # atno 17394 bound_to 11000
  140.8414  133.8202  155.9078 LP  0  0  0  0  0  0  0  0  0  0  0  0  # atno 17395 bound_to 11000

$$$$
