AV-unprocessed.smi:596|AV-procd|sdf|3019|dock3
  -GOLD-   2262023523D 1   1.00000     0.00000
 Structure written by MMmdl.
 41 42  0  0  0  0  0  0  0  0  3 V2000
  153.0891  139.4768  154.7271 O   0  0  0  0  0  0  0  0  0  0  0  0
  152.0086  139.0435  155.1255 C   0  0  0  0  0  0  0  0  0  0  0  0
  151.2975  137.9516  154.3070 C   0  0  0  0  0  0  0  0  0  0  0  0
  150.6239  136.9125  155.1072 N   0  0  0  0  0  0  0  0  0  0  0  0
  149.2628  136.6772  154.8290 C   0  0  0  0  0  0  0  0  0  0  0  0
  148.5471  135.7469  155.4904 C   0  0  0  0  0  0  0  0  0  0  0  0
  147.1539  135.5102  155.1823 N   0  3  0  0  0  0  0  0  0  0  0  0
  146.6457  136.1227  154.2488 O   0  0  0  0  0  0  0  0  0  0  0  0
  146.5218  134.7075  155.8625 O   0  5  0  0  0  0  0  0  0  0  0  0
  149.2239  134.9818  156.5196 C   0  0  0  0  0  0  0  0  0  0  0  0
  150.5265  135.1991  156.7876 C   0  0  0  0  0  0  0  0  0  0  0  0
  151.3060  136.2057  156.0599 C   0  0  0  0  0  0  0  0  0  0  0  0
  152.5000  136.3973  156.2886 O   0  0  0  0  0  0  0  0  0  0  0  0
  151.4233  139.4806  156.2540 N   0  0  0  0  0  0  0  0  0  0  0  0
  151.9689  140.4934  157.1487 C   0  0  0  0  0  0  0  0  0  0  0  0
  151.1110  141.7704  157.1403 C   0  0  0  0  0  0  0  0  0  0  0  0
  151.5807  142.7995  158.1546 C   0  0  0  0  0  0  0  0  0  0  0  0
  151.6593  144.1109  157.8554 C   0  0  0  0  0  0  0  0  0  0  0  0
  152.1041  145.1846  158.8332 C   0  0  0  0  0  0  0  0  0  0  0  0
  152.1296  144.6807  160.2860 C   0  0  0  0  0  0  0  0  0  0  0  0
  152.7468  143.2795  160.3754 C   0  0  0  0  0  0  0  0  0  0  0  0
  151.9557  142.2634  159.5319 C   0  0  0  0  0  0  0  0  0  0  0  0
  150.5895  138.4342  153.6313 H   0  0  0  0  0  0  0  0  0  0  0  0
  152.0366  137.4907  153.6502 H   0  0  0  0  0  0  0  0  0  0  0  0
  148.8550  137.2937  154.0406 H   0  0  0  0  0  0  0  0  0  0  0  0
  148.6914  134.2298  157.0832 H   0  0  0  0  0  0  0  0  0  0  0  0
  151.0112  134.6177  157.5582 H   0  0  0  0  0  0  0  0  0  0  0  0
  150.5353  139.0767  156.5141 H   0  0  0  0  0  0  0  0  0  0  0  0
  152.0536  140.0950  158.1613 H   0  0  0  0  0  0  0  0  0  0  0  0
  152.9829  140.7150  156.8157 H   0  0  0  0  0  0  0  0  0  0  0  0
  151.1226  142.2262  156.1495 H   0  0  0  0  0  0  0  0  0  0  0  0
  150.0708  141.5144  157.3466 H   0  0  0  0  0  0  0  0  0  0  0  0
  151.4028  144.4521  156.8629 H   0  0  0  0  0  0  0  0  0  0  0  0
  153.0968  145.5220  158.5340 H   0  0  0  0  0  0  0  0  0  0  0  0
  151.4385  146.0442  158.7512 H   0  0  0  0  0  0  0  0  0  0  0  0
  152.6809  145.3811  160.9138 H   0  0  0  0  0  0  0  0  0  0  0  0
  151.1123  144.6483  160.6789 H   0  0  0  0  0  0  0  0  0  0  0  0
  153.7784  143.3204  160.0226 H   0  0  0  0  0  0  0  0  0  0  0  0
  152.7889  142.9488  161.4134 H   0  0  0  0  0  0  0  0  0  0  0  0
  151.0379  141.9898  160.0532 H   0  0  0  0  0  0  0  0  0  0  0  0
  152.5408  141.3498  159.4215 H   0  0  0  0  0  0  0  0  0  0  0  0
  1  2  2  0  0  0  0
  2  3  1  0  0  0  0
  2 14  1  0  0  0  0
  3  4  1  0  0  0  0
  3 23  1  0  0  0  0
  3 24  1  0  0  0  0
  4 12  1  0  0  0  0
  4  5  1  0  0  0  0
  5  6  2  0  0  0  0
  5 25  1  0  0  0  0
  6  7  1  0  0  0  0
  6 10  1  0  0  0  0
  7  8  2  0  0  0  0
  7  9  1  0  0  0  0
 10 11  2  0  0  0  0
 10 26  1  0  0  0  0
 11 12  1  0  0  0  0
 11 27  1  0  0  0  0
 12 13  2  0  0  0  0
 14 15  1  0  0  0  0
 14 28  1  0  0  0  0
 15 16  1  0  0  0  0
 15 29  1  0  0  0  0
 15 30  1  0  0  0  0
 16 17  1  0  0  0  0
 16 31  1  0  0  0  0
 16 32  1  0  0  0  0
 17 22  1  0  0  0  0
 17 18  2  0  0  0  0
 18 19  1  0  0  0  0
 18 33  1  0  0  0  0
 19 20  1  0  0  0  0
 19 34  1  0  0  0  0
 19 35  1  0  0  0  0
 20 21  1  0  0  0  0
 20 36  1  0  0  0  0
 20 37  1  0  0  0  0
 21 22  1  0  0  0  0
 21 38  1  0  0  0  0
 21 39  1  0  0  0  0
 22 40  1  0  0  0  0
 22 41  1  0  0  0  0
M  CHG  1   7   1
M  CHG  1   9  -1
M  END
> <s_m_source_file>
AV-unprocessed.smi

> <i_m_source_file_index>
596

> <i_lp_mmshare_version>
43012

> <i_f3d_flags>
0

> <s_epik_input>
Tz1jMVtjSF1bY0hdYyhbTitdKD1PKVtPLV0pW2NIXW4xW0NIMl1DKD1PKVtOSF1bQ0gyXVtDSDJdQzI9W0NIXVtDSDJdW0NIMl1bQ0gyXVtDSDJdMg==

> <s_epik_cmdline>
J2VwaWtfcHl0aG9uJywgJy1waCcsICc3LjAnLCAnLXRuJywgJzgnLCAnLW1hJywgJzIwMCcsICctbWV0YWxfYmluZGluZycsICctaW1hZScsICc8aW5maWxlLm1hZT4nLCAnLW9tYWUnLCAnPG91dGZpbGUubWFlPic=

> <r_lp_tautomer_probability>
1

> <r_epik_Ionization_Penalty>
1.81809e-08

> <r_epik_Ionization_Penalty_Charging>
7.7346e-11

> <r_epik_Ionization_Penalty_Neutral>
1.81035e-08

> <r_epik_State_Penalty>
-0

> <r_epik_Charging_Adjusted_Penalty>
7.7346e-11

> <i_epik_Tot_Q>
0

> <i_epik_Tot_abs_Q>
2

> <r_epik_Metal_State_Penalty>
-0

> <b_epik_Metal_Only>
0

> <s_lp_Force_Field>
OPLS_2005

> <r_lp_Energy>
18.9868

> <b_lp_Chiralities_Consistent>
1

> <s_lp_Variant>
AV-unprocessed.smi:596-1

> <Gold.Version>
5.8.1

> <Gold.Id.Protein>
6NUR|6NUR_protein|mol2

> <Gold.PLP.Fitness>
46.7840

> <Gold.PLP.PLP>
-39.8724

> <Gold.PLP.part.hbond>
-3.0000

> <Gold.PLP.part.metal>
0.0000

> <Gold.PLP.part.buried>
-4.1397

> <Gold.PLP.part.nonpolar>
-33.4739

> <Gold.PLP.part.repulsive>
0.2134

> <Gold.PLP.ligand.clash>
0.0000

> <Gold.PLP.ligand.torsion>
0.6060

> <Gold.PLP.Chemscore.Hbond>
2.0100

> <Gold.PLP.Chemscore.CHOScore>
0.6681

> <Gold.PLP.Chemscore.Metal>
0.0000

> <Gold.Chemscore.Hbonds>
donor molecule, donor type, donor heavy atom, donor atom, acceptor molecule, acceptor atom, score
      P1  H  7989  7998       L1     1  0.01
      P1  H  7997  8008       L1     1  1.00
      P1  H 10752 10764       L1    13  1.00
      L1  C     5    25       P1  7948  0.66

> <Gold.PLP.Chemscore.Internal.Correction>
0.0892

> <Gold.Rescore>
     Score         DG    S(hbond)    S(metal)    S(lipo)     H(rot)  DE(clash)    DE(int)     intcor
     16.71     -18.56       1.94        0.00      99.77       1.98       0.02       1.83       ----

> <Gold.Chemscore.Fitness>
16.7078

> <Gold.Chemscore.DG>
-18.5572

> <Gold.Chemscore.ZeroCoef>
-5.4800

> <Gold.Chemscore.Hbond>
1.9408

> <Gold.Chemscore.Metal>
0.0000

> <Gold.Chemscore.Lipo>
99.7669

> <Gold.Chemscore.Internal_Hbond>
0.0000

> <Gold.Chemscore.DEClash>
0.0170

> <Gold.Chemscore.DEInternal>
1.8324

> <Gold.Chemscore.Rot>
1.9835

> <Gold.Chemscore.Internal.Correction>
   9.000000E+99

> <Gold.Chemscore.Hbonds>
donor molecule, donor type, donor heavy atom, donor atom, acceptor molecule, acceptor atom, score
      P1  H  7997  8008       L1     1  1.00
      P1  H 10752 10764       L1    13  0.44

> <Gold.Chemscore.Hbond.Weighted>
-6.4823

> <Gold.Chemscore.Metal.Weighted>
-0.0000

> <Gold.Chemscore.Lipo.Weighted>
-11.6727

> <Gold.Chemscore.Internal_Hbond.Weighted>
0.0000

> <Gold.Chemscore.DEClash.Weighted>
0.0170

> <Gold.Chemscore.DEInternal.Weighted>
1.8324

> <Gold.Chemscore.Rot.Weighted>
5.0778

> <Gold.Chemscore.Internal.Correction.Weighted>
   9.000000E+99

> <Gold.Protein.RotatedTorsions>
[ 6907 6896 6895 6894 ] final  127.93 input  -60.11 | X-H torsion
[ 7974 7965 7964 7962 ] final  165.23 input  175.53 | X-H torsion
[ 8008 7997 7996 7995 ] final   -7.55 input   59.86 | X-H torsion
[ 10167 10162 10161 10158 ] final -152.83 input  -65.29 | X-H torsion
[ 10718 10713 10712 10709 ] final  158.61 input   66.30 | X-H torsion
[ 10763 10752 10751 10750 ] final  -19.06 input  -60.55 | X-H torsion
[ 11005 11000 10999 10996 ] final -156.93 input  -57.11 | X-H torsion

> <Gold.Protein.ActiveResidues>
 VAL166  LYS551  ARG553  GLY616  TRP617  ASP618  TYR619  PRO620  LYS621  CYS622 
 ASP623  PHE694  ASN695  SER759  ASP760  ASP761  ALA762  ILE779  LEU786  VAL792 
 PHE793  MET794  SER795  GLU796  ALA797  LYS798  CYS799  TRP800  GLU811  SER814 

> <Gold.Protein.RotatedAtoms>
  152.3767  133.6490  159.6128 H   0  0  0  0  0  0  0  0  0  0  0  0  # atno 6907 bound_to 6896
  150.7709  133.9182  159.3398 H   0  0  0  0  0  0  0  0  0  0  0  0  # atno 6908 bound_to 6896
  151.6995  135.0934  160.0299 H   0  0  0  0  0  0  0  0  0  0  0  0  # atno 6909 bound_to 6896
  144.7511  139.8441  143.6366 H   0  0  0  0  0  0  0  0  0  0  0  0  # atno 7974 bound_to 7965
  154.5827  140.2404  155.8031 H   0  0  0  0  0  0  0  0  0  0  0  0  # atno 8008 bound_to 7997
  156.2191  140.3003  155.9865 H   0  0  0  0  0  0  0  0  0  0  0  0  # atno 8009 bound_to 7997
  155.2512  140.0411  157.2977 H   0  0  0  0  0  0  0  0  0  0  0  0  # atno 8010 bound_to 7997
  139.7148  143.9051  152.2482 H   0  0  0  0  0  0  0  0  0  0  0  0  # atno 10167 bound_to 10162
  157.1755  131.0620  151.2160 H   0  0  0  0  0  0  0  0  0  0  0  0  # atno 10718 bound_to 10713
  153.5990  135.7000  153.5392 H   0  0  0  0  0  0  0  0  0  0  0  0  # atno 10763 bound_to 10752
  153.3113  135.4100  155.1338 H   0  0  0  0  0  0  0  0  0  0  0  0  # atno 10764 bound_to 10752
  154.8586  135.3673  154.5524 H   0  0  0  0  0  0  0  0  0  0  0  0  # atno 10765 bound_to 10752
  140.6702  134.4255  157.5232 H   0  0  0  0  0  0  0  0  0  0  0  0  # atno 11005 bound_to 11000
  146.1462  139.4532  143.0077 LP  0  0  0  0  0  0  0  0  0  0  0  0  # atno 17320 bound_to 7965
  145.6941  141.0155  143.1539 LP  0  0  0  0  0  0  0  0  0  0  0  0  # atno 17321 bound_to 7965
  139.8930  144.6955  150.8749 LP  0  0  0  0  0  0  0  0  0  0  0  0  # atno 17342 bound_to 10162
  140.7741  143.3572  151.1899 LP  0  0  0  0  0  0  0  0  0  0  0  0  # atno 17343 bound_to 10162
  157.4002  130.7329  149.6761 LP  0  0  0  0  0  0  0  0  0  0  0  0  # atno 17370 bound_to 10713
  155.9732  130.4123  150.4024 LP  0  0  0  0  0  0  0  0  0  0  0  0  # atno 17371 bound_to 10713
  139.8984  134.8614  156.2003 LP  0  0  0  0  0  0  0  0  0  0  0  0  # atno 17394 bound_to 11000
  141.0398  133.6944  156.1577 LP  0  0  0  0  0  0  0  0  0  0  0  0  # atno 17395 bound_to 11000

$$$$
