AV-unprocessed.smi:1701|AV-procd|sdf|6844|dock1
  -GOLD-   22720 8 23D 1   1.00000     0.00000
 Structure written by MMmdl.
 54 56  0  0  0  0  0  0  0  0  4 V2000
  152.1999  145.3181  158.8971 C   0  0  0  0  0  0  0  0  0  0  0  0
  152.0385  144.0790  158.0039 C   0  0  0  0  0  0  0  0  0  0  0  0
  152.1955  142.8254  158.7418 N   0  0  0  0  0  0  0  0  0  0  0  0
  153.2928  142.7561  159.7103 C   0  0  0  0  0  0  0  0  0  0  0  0
  152.8238  142.9634  161.1591 C   0  0  0  0  0  0  0  0  0  0  0  0
  151.7943  141.6422  158.0753 C   0  0  0  0  0  0  0  0  0  0  0  0
  152.1016  140.3476  158.5612 C   0  0  0  0  0  0  0  0  0  0  0  0
  151.6641  139.2083  157.8557 C   0  0  0  0  0  0  0  0  0  0  0  0
  150.9117  139.3617  156.6739 C   0  0  0  0  0  0  0  0  0  0  0  0
  150.5095  138.1859  155.9851 N   0  0  0  0  0  0  0  0  0  0  0  0
  151.1958  137.0345  155.7791 C   0  0  0  0  0  0  0  0  0  0  0  0
  152.3534  136.9489  156.1847 O   0  0  0  0  0  0  0  0  0  0  0  0
  150.6046  136.0025  155.1032 N   0  5  0  0  0  0  0  0  0  0  0  0
  149.9817  134.7776  155.6363 C   0  0  1  0  0  0  0  0  0  0  0  0
  148.5339  135.0725  156.0733 C   0  0  0  0  0  0  0  0  0  0  0  0
  147.6485  134.7320  154.8616 C   0  0  0  0  0  0  0  0  0  0  0  0
  148.5662  134.2247  153.8203 N   0  3  2  0  0  0  0  0  0  0  0  0
  147.9860  133.3102  152.8037 C   0  0  0  0  0  0  0  0  0  0  0  0
  147.8434  131.8680  153.3178 C   0  0  0  0  0  0  0  0  0  0  0  0
  149.1771  131.3581  153.8744 C   0  0  0  0  0  0  0  0  0  0  0  0
  149.6506  132.2882  154.9976 C   0  0  0  0  0  0  0  0  0  0  0  0
  149.7965  133.7537  154.4984 C   0  0  2  0  0  0  0  0  0  0  0  0
  150.6449  140.6728  156.2164 C   0  0  0  0  0  0  0  0  0  0  0  0
  151.0847  141.7360  156.9233 N   0  3  0  0  0  0  0  0  0  0  0  0
  152.0451  146.2304  158.3206 H   0  0  0  0  0  0  0  0  0  0  0  0
  153.1986  145.3689  159.3319 H   0  0  0  0  0  0  0  0  0  0  0  0
  151.4773  145.3174  159.7137 H   0  0  0  0  0  0  0  0  0  0  0  0
  151.0443  144.0914  157.5567 H   0  0  0  0  0  0  0  0  0  0  0  0
  152.7263  144.1309  157.1618 H   0  0  0  0  0  0  0  0  0  0  0  0
  153.8155  141.8037  159.6142 H   0  0  0  0  0  0  0  0  0  0  0  0
  154.0310  143.5223  159.4715 H   0  0  0  0  0  0  0  0  0  0  0  0
  153.6719  142.9393  161.8436 H   0  0  0  0  0  0  0  0  0  0  0  0
  152.1229  142.1936  161.4809 H   0  0  0  0  0  0  0  0  0  0  0  0
  152.3338  143.9305  161.2763 H   0  0  0  0  0  0  0  0  0  0  0  0
  152.6814  140.2056  159.4601 H   0  0  0  0  0  0  0  0  0  0  0  0
  151.9040  138.2221  158.2256 H   0  0  0  0  0  0  0  0  0  0  0  0
  149.6037  138.2329  155.5420 H   0  0  0  0  0  0  0  0  0  0  0  0
  150.5588  134.3475  156.4559 H   0  0  0  0  0  0  0  0  0  0  0  0
  148.2654  134.4252  156.9089 H   0  0  0  0  0  0  0  0  0  0  0  0
  148.3901  136.0995  156.4124 H   0  0  0  0  0  0  0  0  0  0  0  0
  146.9087  133.9784  155.1355 H   0  0  0  0  0  0  0  0  0  0  0  0
  147.1123  135.6054  154.4889 H   0  0  0  0  0  0  0  0  0  0  0  0
  147.0256  133.6980  152.4628 H   0  0  0  0  0  0  0  0  0  0  0  0
  148.6478  133.3162  151.9370 H   0  0  0  0  0  0  0  0  0  0  0  0
  147.0775  131.8198  154.0927 H   0  0  0  0  0  0  0  0  0  0  0  0
  147.5043  131.2190  152.5100 H   0  0  0  0  0  0  0  0  0  0  0  0
  149.0633  130.3413  154.2515 H   0  0  0  0  0  0  0  0  0  0  0  0
  149.9242  131.3181  153.0808 H   0  0  0  0  0  0  0  0  0  0  0  0
  148.9357  132.2089  155.8201 H   0  0  0  0  0  0  0  0  0  0  0  0
  150.6031  131.9254  155.3880 H   0  0  0  0  0  0  0  0  0  0  0  0
  150.6289  133.7920  153.7931 H   0  0  0  0  0  0  0  0  0  0  0  0
  150.1102  140.9167  155.3106 H   0  0  0  0  0  0  0  0  0  0  0  0
  148.8578  135.0549  153.3235 H   0  0  0  0  0  0  0  0  0  0  0  0
  150.8705  142.6667  156.5654 H   0  0  0  0  0  0  0  0  0  0  0  0
  1  2  1  0  0  0  0
  1 25  1  0  0  0  0
  1 26  1  0  0  0  0
  1 27  1  0  0  0  0
  2  3  1  0  0  0  0
  2 28  1  0  0  0  0
  2 29  1  0  0  0  0
  3  4  1  0  0  0  0
  3  6  1  0  0  0  0
  4  5  1  0  0  0  0
  4 30  1  0  0  0  0
  4 31  1  0  0  0  0
  5 32  1  0  0  0  0
  5 33  1  0  0  0  0
  5 34  1  0  0  0  0
  6 24  1  0  0  0  0
  6  7  2  0  0  0  0
  7  8  1  0  0  0  0
  7 35  1  0  0  0  0
  8  9  2  0  0  0  0
  8 36  1  0  0  0  0
  9 10  1  0  0  0  0
  9 23  1  0  0  0  0
 10 11  1  0  0  0  0
 10 37  1  0  0  0  0
 11 12  2  0  0  0  0
 11 13  1  0  0  0  0
 13 14  1  0  0  0  0
 14 22  1  0  0  0  0
 14 15  1  0  0  0  0
 14 38  1  0  0  0  0
 15 16  1  0  0  0  0
 15 39  1  0  0  0  0
 15 40  1  0  0  0  0
 16 17  1  0  0  0  0
 16 41  1  0  0  0  0
 16 42  1  0  0  0  0
 17 22  1  0  0  0  0
 17 18  1  0  0  0  0
 17 53  1  0  0  0  0
 18 19  1  0  0  0  0
 18 43  1  0  0  0  0
 18 44  1  0  0  0  0
 19 20  1  0  0  0  0
 19 45  1  0  0  0  0
 19 46  1  0  0  0  0
 20 21  1  0  0  0  0
 20 47  1  0  0  0  0
 20 48  1  0  0  0  0
 21 22  1  0  0  0  0
 21 49  1  0  0  0  0
 21 50  1  0  0  0  0
 22 51  1  0  0  0  0
 23 24  2  0  0  0  0
 23 52  1  0  0  0  0
 24 54  1  0  0  0  0
M  CHG  1  13  -1
M  CHG  1  17   1
M  CHG  1  24   1
M  END
> <s_m_source_file>
AV-unprocessed.smi

> <i_m_source_file_index>
1701

> <i_lp_mmshare_version>
43012

> <i_f3d_flags>
0

> <s_epik_input>
W0NIM11bQ0gyXU4oW0NIMl1bQ0gzXSljMVtjSF1bY0hdYyhbY0hdbjEpW05IXUMoPU8pW05IXVtDQEhdKFtDSDJdW0NIMl0yKVtDQEBIXShOMjMpW0NIMl1bQ0gyXVtDSDJdW0NIMl0z

> <s_epik_cmdline>
J2VwaWtfcHl0aG9uJywgJy1waCcsICc3LjAnLCAnLXRuJywgJzgnLCAnLW1hJywgJzIwMCcsICctbWV0YWxfYmluZGluZycsICctaW1hZScsICc8aW5maWxlLm1hZT4nLCAnLW9tYWUnLCAnPG91dGZpbGUubWFlPic=

> <r_lp_tautomer_probability>
0.999994

> <r_epik_Ionization_Penalty>
7.37095

> <r_epik_Ionization_Penalty_Charging>
7.37095

> <r_epik_Ionization_Penalty_Neutral>
3.78969e-06

> <r_epik_State_Penalty>
6.83842

> <r_epik_Charging_Adjusted_Penalty>
14.2094

> <i_epik_Tot_Q>
1

> <i_epik_Tot_abs_Q>
3

> <r_epik_Metal_State_Penalty>
2.78552

> <b_epik_Metal_Only>
1

> <s_lp_Force_Field>
OPLS_2005

> <r_lp_Energy>
52.2686

> <b_lp_Chiralities_Consistent>
1

> <s_lp_Variant>
AV-unprocessed.smi:1701-24

> <Gold.Version>
5.8.1

> <Gold.Id.Protein>
6NUR|6NUR_protein|mol2

> <Gold.PLP.Fitness>
53.4297

> <Gold.PLP.PLP>
-46.9962

> <Gold.PLP.part.hbond>
-2.0000

> <Gold.PLP.part.metal>
0.0000

> <Gold.PLP.part.buried>
-5.1731

> <Gold.PLP.part.nonpolar>
-39.3667

> <Gold.PLP.part.repulsive>
0.2412

> <Gold.PLP.ligand.clash>
0.0000

> <Gold.PLP.ligand.torsion>
1.7712

> <Gold.PLP.Chemscore.Hbond>
2.9920

> <Gold.PLP.Chemscore.CHOScore>
0.0000

> <Gold.PLP.Chemscore.Metal>
0.0000

> <Gold.Chemscore.Hbonds>
donor molecule, donor type, donor heavy atom, donor atom, acceptor molecule, acceptor atom, score
      L1  H    17    53       P1  7948  2.00
      P1  H 10752 10764       L1    12  0.98

> <Gold.PLP.Chemscore.Internal.Correction>
1.0000

> <Gold.Rescore>
     Score         DG    S(hbond)    S(metal)    S(lipo)     H(rot)  DE(clash)    DE(int)     intcor
     18.14     -21.19       1.83        0.00     110.19       1.28       0.03       3.02       ----

> <Gold.Chemscore.Fitness>
18.1357

> <Gold.Chemscore.DG>
-21.1853

> <Gold.Chemscore.ZeroCoef>
-5.4800

> <Gold.Chemscore.Hbond>
1.8261

> <Gold.Chemscore.Metal>
0.0000

> <Gold.Chemscore.Lipo>
110.1932

> <Gold.Chemscore.Internal_Hbond>
0.0000

> <Gold.Chemscore.DEClash>
0.0251

> <Gold.Chemscore.DEInternal>
3.0245

> <Gold.Chemscore.Rot>
1.2838

> <Gold.Chemscore.Internal.Correction>
   9.000000E+99

> <Gold.Chemscore.Hbonds>
donor molecule, donor type, donor heavy atom, donor atom, acceptor molecule, acceptor atom, score
      L1  H    17    53       P1  7948  0.44
      P1  H 10752 10764       L1    12  0.40

> <Gold.Chemscore.Hbond.Weighted>
-6.0993

> <Gold.Chemscore.Metal.Weighted>
-0.0000

> <Gold.Chemscore.Lipo.Weighted>
-12.8926

> <Gold.Chemscore.Internal_Hbond.Weighted>
0.0000

> <Gold.Chemscore.DEClash.Weighted>
0.0251

> <Gold.Chemscore.DEInternal.Weighted>
3.0245

> <Gold.Chemscore.Rot.Weighted>
3.2865

> <Gold.Chemscore.Internal.Correction.Weighted>
   9.000000E+99

> <Gold.Protein.RotatedTorsions>
[ 6907 6896 6895 6894 ] final -150.60 input  -60.11 | X-H torsion
[ 7974 7965 7964 7962 ] final -166.00 input  175.53 | X-H torsion
[ 8008 7997 7996 7995 ] final -117.19 input   59.86 | X-H torsion
[ 10167 10162 10161 10158 ] final  -65.15 input  -65.29 | X-H torsion
[ 10718 10713 10712 10709 ] final  -35.13 input   66.30 | X-H torsion
[ 10763 10752 10751 10750 ] final  -28.63 input  -60.55 | X-H torsion
[ 11005 11000 10999 10996 ] final   87.63 input  -57.11 | X-H torsion

> <Gold.Protein.ActiveResidues>
 VAL166  LYS551  ARG553  GLY616  TRP617  ASP618  TYR619  PRO620  LYS621  CYS622 
 ASP623  PHE694  ASN695  SER759  ASP760  ASP761  ALA762  ILE779  LEU786  VAL792 
 PHE793  MET794  SER795  GLU796  ALA797  LYS798  CYS799  TRP800  GLU811  SER814 

> <Gold.Protein.RotatedAtoms>
  151.2010  133.4611  159.2596 H   0  0  0  0  0  0  0  0  0  0  0  0  # atno 6907 bound_to 6896
  151.1070  135.0005  159.8486 H   0  0  0  0  0  0  0  0  0  0  0  0  # atno 6908 bound_to 6896
  152.5448  134.1932  159.8735 H   0  0  0  0  0  0  0  0  0  0  0  0  # atno 6909 bound_to 6896
  144.7256  140.2732  143.6247 H   0  0  0  0  0  0  0  0  0  0  0  0  # atno 7974 bound_to 7965
  155.0798  140.0394  157.2635 H   0  0  0  0  0  0  0  0  0  0  0  0  # atno 8008 bound_to 7997
  154.6916  140.2654  155.6782 H   0  0  0  0  0  0  0  0  0  0  0  0  # atno 8009 bound_to 7997
  156.2730  140.2758  156.1496 H   0  0  0  0  0  0  0  0  0  0  0  0  # atno 8010 bound_to 7997
  140.5750  143.2321  151.6460 H   0  0  0  0  0  0  0  0  0  0  0  0  # atno 10167 bound_to 10162
  156.3422  130.4295  149.7777 H   0  0  0  0  0  0  0  0  0  0  0  0  # atno 10718 bound_to 10713
  153.7514  135.6925  153.4945 H   0  0  0  0  0  0  0  0  0  0  0  0  # atno 10763 bound_to 10752
  153.2000  135.4440  155.0254 H   0  0  0  0  0  0  0  0  0  0  0  0  # atno 10764 bound_to 10752
  154.8186  135.3411  154.7035 H   0  0  0  0  0  0  0  0  0  0  0  0  # atno 10765 bound_to 10752
  139.8915  134.8435  156.2887 H   0  0  0  0  0  0  0  0  0  0  0  0  # atno 11005 bound_to 11000
  145.8023  139.1969  143.2041 LP  0  0  0  0  0  0  0  0  0  0  0  0  # atno 17320 bound_to 7965
  146.0666  140.7914  142.9708 LP  0  0  0  0  0  0  0  0  0  0  0  0  # atno 17321 bound_to 7965
  139.5138  144.3432  152.0721 LP  0  0  0  0  0  0  0  0  0  0  0  0  # atno 17342 bound_to 10162
  140.2574  144.4104  150.6198 LP  0  0  0  0  0  0  0  0  0  0  0  0  # atno 17343 bound_to 10162
  156.5009  130.8128  151.3132 LP  0  0  0  0  0  0  0  0  0  0  0  0  # atno 17370 bound_to 10713
  157.7448  130.9945  150.2710 LP  0  0  0  0  0  0  0  0  0  0  0  0  # atno 17371 bound_to 10713
  140.9991  133.7162  156.0932 LP  0  0  0  0  0  0  0  0  0  0  0  0  # atno 17394 bound_to 11000
  140.7522  134.4032  157.5539 LP  0  0  0  0  0  0  0  0  0  0  0  0  # atno 17395 bound_to 11000

$$$$
