AV-unprocessed.smi:466|AV-procd|sdf|2642|dock3
  -GOLD-   2262023 53D 1   1.00000     0.00000
 Structure written by MMmdl.
 44 46  0  0  0  0  0  0  0  0  2 V2000
  154.0238  141.5164  161.5004 C   0  0  0  0  0  0  0  0  0  0  0  0
  153.2200  141.4508  160.3319 O   0  0  0  0  0  0  0  0  0  0  0  0
  152.6853  142.6236  159.8381 C   0  0  0  0  0  0  0  0  0  0  0  0
  152.9014  143.8958  160.4251 C   0  0  0  0  0  0  0  0  0  0  0  0
  152.3251  145.0487  159.8614 C   0  0  0  0  0  0  0  0  0  0  0  0
  151.5270  144.9447  158.7092 C   0  0  0  0  0  0  0  0  0  0  0  0
  151.3047  143.6872  158.1189 C   0  0  0  0  0  0  0  0  0  0  0  0
  151.8832  142.5208  158.6784 C   0  0  0  0  0  0  0  0  0  0  0  0
  151.7126  141.2570  158.1584 O   0  0  0  0  0  0  0  0  0  0  0  0
  150.7022  141.0401  157.1844 C   0  0  0  0  0  0  0  0  0  0  0  0
  151.3779  140.6614  155.8579 C   0  0  0  0  0  0  0  0  0  0  0  0
  150.4709  139.9154  154.9696 N   0  0  0  0  0  0  0  0  0  0  0  0
  150.5710  138.6510  154.4619 C   0  0  0  0  0  0  0  0  0  0  0  0
  151.6711  137.6641  154.7119 C   0  0  0  0  0  0  0  0  0  0  0  0
  151.3141  136.6442  155.8042 C   0  0  0  0  0  0  0  0  0  0  0  0
  152.4917  136.0383  156.2918 O   0  0  0  0  0  0  0  0  0  0  0  0
  149.4397  138.4226  153.7341 N   0  3  0  0  0  0  0  0  0  0  0  0
  148.6178  139.5488  153.7640 C   0  0  0  0  0  0  0  0  0  0  0  0
  147.3770  139.7858  153.1804 C   0  0  0  0  0  0  0  0  0  0  0  0
  146.7942  141.0471  153.4226 C   0  0  0  0  0  0  0  0  0  0  0  0
  147.4440  142.0151  154.2150 C   0  0  0  0  0  0  0  0  0  0  0  0
  148.7045  141.7646  154.7960 C   0  0  0  0  0  0  0  0  0  0  0  0
  149.2733  140.5135  154.5547 C   0  0  0  0  0  0  0  0  0  0  0  0
  154.3627  140.5131  161.7582 H   0  0  0  0  0  0  0  0  0  0  0  0
  153.4605  141.9029  162.3507 H   0  0  0  0  0  0  0  0  0  0  0  0
  154.9096  142.1329  161.3416 H   0  0  0  0  0  0  0  0  0  0  0  0
  153.5077  144.0145  161.3101 H   0  0  0  0  0  0  0  0  0  0  0  0
  152.4955  146.0140  160.3148 H   0  0  0  0  0  0  0  0  0  0  0  0
  151.0839  145.8304  158.2776 H   0  0  0  0  0  0  0  0  0  0  0  0
  150.6838  143.6426  157.2373 H   0  0  0  0  0  0  0  0  0  0  0  0
  150.0367  140.2370  157.5035 H   0  0  0  0  0  0  0  0  0  0  0  0
  150.1046  141.9427  157.0450 H   0  0  0  0  0  0  0  0  0  0  0  0
  151.7392  141.5488  155.3380 H   0  0  0  0  0  0  0  0  0  0  0  0
  152.2565  140.0449  156.0445 H   0  0  0  0  0  0  0  0  0  0  0  0
  151.9013  137.1350  153.7877 H   0  0  0  0  0  0  0  0  0  0  0  0
  152.5714  138.2132  154.9895 H   0  0  0  0  0  0  0  0  0  0  0  0
  150.7960  137.1237  156.6352 H   0  0  0  0  0  0  0  0  0  0  0  0
  150.6561  135.8702  155.4078 H   0  0  0  0  0  0  0  0  0  0  0  0
  152.3379  135.7458  157.1774 H   0  0  0  0  0  0  0  0  0  0  0  0
  146.8756  139.0437  152.5764 H   0  0  0  0  0  0  0  0  0  0  0  0
  145.8287  141.2753  152.9950 H   0  0  0  0  0  0  0  0  0  0  0  0
  146.9656  142.9688  154.3841 H   0  0  0  0  0  0  0  0  0  0  0  0
  149.1866  142.5110  155.4095 H   0  0  0  0  0  0  0  0  0  0  0  0
  149.2421  137.5518  153.2582 H   0  0  0  0  0  0  0  0  0  0  0  0
  1  2  1  0  0  0  0
  1 24  1  0  0  0  0
  1 25  1  0  0  0  0
  1 26  1  0  0  0  0
  2  3  1  0  0  0  0
  3  8  1  0  0  0  0
  3  4  2  0  0  0  0
  4  5  1  0  0  0  0
  4 27  1  0  0  0  0
  5  6  2  0  0  0  0
  5 28  1  0  0  0  0
  6  7  1  0  0  0  0
  6 29  1  0  0  0  0
  7  8  2  0  0  0  0
  7 30  1  0  0  0  0
  8  9  1  0  0  0  0
  9 10  1  0  0  0  0
 10 11  1  0  0  0  0
 10 31  1  0  0  0  0
 10 32  1  0  0  0  0
 11 12  1  0  0  0  0
 11 33  1  0  0  0  0
 11 34  1  0  0  0  0
 12 23  1  0  0  0  0
 12 13  1  0  0  0  0
 13 14  1  0  0  0  0
 13 17  2  0  0  0  0
 14 15  1  0  0  0  0
 14 35  1  0  0  0  0
 14 36  1  0  0  0  0
 15 16  1  0  0  0  0
 15 37  1  0  0  0  0
 15 38  1  0  0  0  0
 16 39  1  0  0  0  0
 17 18  1  0  0  0  0
 17 44  1  0  0  0  0
 18 23  2  0  0  0  0
 18 19  1  0  0  0  0
 19 20  2  0  0  0  0
 19 40  1  0  0  0  0
 20 21  1  0  0  0  0
 20 41  1  0  0  0  0
 21 22  2  0  0  0  0
 21 42  1  0  0  0  0
 22 23  1  0  0  0  0
 22 43  1  0  0  0  0
M  CHG  1  17   1
M  END
> <s_m_source_file>
AV-unprocessed.smi

> <i_m_source_file_index>
466

> <i_lp_mmshare_version>
43012

> <i_f3d_flags>
0

> <s_epik_input>
W0NIM11PYzFbY0hdW2NIXVtjSF1bY0hdYzFPW0NIMl1bQ0gyXW4oYyhuMilbQ0gyXVtDSDJdW09IXSljKGMyMylbY0hdW2NIXVtjSF1bY0hdMw==

> <s_epik_cmdline>
J2VwaWtfcHl0aG9uJywgJy1waCcsICc3LjAnLCAnLXRuJywgJzgnLCAnLW1hJywgJzIwMCcsICctbWV0YWxfYmluZGluZycsICctaW1hZScsICc8aW5maWxlLm1hZT4nLCAnLW9tYWUnLCAnPG91dGZpbGUubWFlPic=

> <r_lp_tautomer_probability>
1

> <r_epik_Ionization_Penalty>
0.720978

> <r_epik_Ionization_Penalty_Charging>
0.720978

> <r_epik_Ionization_Penalty_Neutral>
5.89567e-08

> <r_epik_State_Penalty>
0.7454

> <r_epik_Charging_Adjusted_Penalty>
1.46638

> <i_epik_Tot_Q>
1

> <i_epik_Tot_abs_Q>
1

> <r_epik_Metal_State_Penalty>
4.64029

> <b_epik_Metal_Only>
0

> <s_lp_Force_Field>
OPLS_2005

> <r_lp_Energy>
24.0837

> <b_lp_Chiralities_Consistent>
1

> <s_lp_Variant>
AV-unprocessed.smi:466-2

> <Gold.Version>
5.8.1

> <Gold.Id.Protein>
6NUR|6NUR_protein|mol2

> <Gold.PLP.Fitness>
60.5361

> <Gold.PLP.PLP>
-53.2976

> <Gold.PLP.part.hbond>
-3.0000

> <Gold.PLP.part.metal>
0.0000

> <Gold.PLP.part.buried>
-0.4154

> <Gold.PLP.part.nonpolar>
-49.9737

> <Gold.PLP.part.repulsive>
0.0589

> <Gold.PLP.ligand.clash>
0.0000

> <Gold.PLP.ligand.torsion>
1.0092

> <Gold.PLP.Chemscore.Hbond>
3.0000

> <Gold.PLP.Chemscore.CHOScore>
0.0000

> <Gold.PLP.Chemscore.Metal>
0.0000

> <Gold.Chemscore.Hbonds>
donor molecule, donor type, donor heavy atom, donor atom, acceptor molecule, acceptor atom, score
      L1  H    17    44       P1  7948  2.00
      P1  H 10752 10764       L1    16  0.93

> <Gold.PLP.Chemscore.Internal.Correction>
0.2570

> <Gold.Rescore>
     Score         DG    S(hbond)    S(metal)    S(lipo)     H(rot)  DE(clash)    DE(int)     intcor
     19.81     -22.08       1.93        0.00     145.50       2.68       1.24       1.03       ----

> <Gold.Chemscore.Fitness>
19.8082

> <Gold.Chemscore.DG>
-22.0797

> <Gold.Chemscore.ZeroCoef>
-5.4800

> <Gold.Chemscore.Hbond>
1.9304

> <Gold.Chemscore.Metal>
0.0000

> <Gold.Chemscore.Lipo>
145.4961

> <Gold.Chemscore.Internal_Hbond>
0.0000

> <Gold.Chemscore.DEClash>
1.2448

> <Gold.Chemscore.DEInternal>
1.0268

> <Gold.Chemscore.Rot>
2.6840

> <Gold.Chemscore.Internal.Correction>
   9.000000E+99

> <Gold.Chemscore.Hbonds>
donor molecule, donor type, donor heavy atom, donor atom, acceptor molecule, acceptor atom, score
      L1  H    17    44       P1  7948  0.98
      P1  H 10752 10764       L1    16  0.82

> <Gold.Chemscore.Hbond.Weighted>
-6.4477

> <Gold.Chemscore.Metal.Weighted>
-0.0000

> <Gold.Chemscore.Lipo.Weighted>
-17.0230

> <Gold.Chemscore.Internal_Hbond.Weighted>
0.0000

> <Gold.Chemscore.DEClash.Weighted>
1.2448

> <Gold.Chemscore.DEInternal.Weighted>
1.0268

> <Gold.Chemscore.Rot.Weighted>
6.8710

> <Gold.Chemscore.Internal.Correction.Weighted>
   9.000000E+99

> <Gold.Protein.RotatedTorsions>
[ 6907 6896 6895 6894 ] final   67.27 input  -60.11 | X-H torsion
[ 7974 7965 7964 7962 ] final -122.99 input  175.53 | X-H torsion
[ 8008 7997 7996 7995 ] final  121.10 input   59.86 | X-H torsion
[ 10167 10162 10161 10158 ] final -142.65 input  -65.29 | X-H torsion
[ 10718 10713 10712 10709 ] final  -36.60 input   66.30 | X-H torsion
[ 10763 10752 10751 10750 ] final  -10.13 input  -60.55 | X-H torsion
[ 11005 11000 10999 10996 ] final   -6.50 input  -57.11 | X-H torsion

> <Gold.Protein.ActiveResidues>
 VAL166  LYS551  ARG553  GLY616  TRP617  ASP618  TYR619  PRO620  LYS621  CYS622 
 ASP623  PHE694  ASN695  SER759  ASP760  ASP761  ALA762  ILE779  LEU786  VAL792 
 PHE793  MET794  SER795  GLU796  ALA797  LYS798  CYS799  TRP800  GLU811  SER814 

> <Gold.Protein.RotatedAtoms>
  152.4540  134.5332  159.9816 H   0  0  0  0  0  0  0  0  0  0  0  0  # atno 6907 bound_to 6896
  151.5397  133.3429  159.2941 H   0  0  0  0  0  0  0  0  0  0  0  0  # atno 6908 bound_to 6896
  150.8478  134.7824  159.7047 H   0  0  0  0  0  0  0  0  0  0  0  0  # atno 6909 bound_to 6896
  145.0235  140.8008  143.4366 H   0  0  0  0  0  0  0  0  0  0  0  0  # atno 7974 bound_to 7965
  156.2672  140.2816  156.1255 H   0  0  0  0  0  0  0  0  0  0  0  0  # atno 8008 bound_to 7997
  155.1110  140.0391  157.2741 H   0  0  0  0  0  0  0  0  0  0  0  0  # atno 8009 bound_to 7997
  154.6743  140.2594  155.6981 H   0  0  0  0  0  0  0  0  0  0  0  0  # atno 8010 bound_to 7997
  139.8068  143.7757  152.2661 H   0  0  0  0  0  0  0  0  0  0  0  0  # atno 10167 bound_to 10162
  156.3249  130.4271  149.7925 H   0  0  0  0  0  0  0  0  0  0  0  0  # atno 10718 bound_to 10713
  153.4647  135.7016  153.6029 H   0  0  0  0  0  0  0  0  0  0  0  0  # atno 10763 bound_to 10752
  153.4308  135.3803  155.2169 H   0  0  0  0  0  0  0  0  0  0  0  0  # atno 10764 bound_to 10752
  154.8726  135.3950  154.4077 H   0  0  0  0  0  0  0  0  0  0  0  0  # atno 10765 bound_to 10752
  140.7026  133.8976  155.8694 H   0  0  0  0  0  0  0  0  0  0  0  0  # atno 11005 bound_to 11000
  145.1864  139.2324  143.5265 LP  0  0  0  0  0  0  0  0  0  0  0  0  # atno 17320 bound_to 7965
  146.3489  140.1650  142.8590 LP  0  0  0  0  0  0  0  0  0  0  0  0  # atno 17321 bound_to 7965
  139.7894  144.7416  150.9977 LP  0  0  0  0  0  0  0  0  0  0  0  0  # atno 17342 bound_to 10162
  140.7819  143.4458  151.0484 LP  0  0  0  0  0  0  0  0  0  0  0  0  # atno 17343 bound_to 10162
  156.5219  130.8219  151.3207 LP  0  0  0  0  0  0  0  0  0  0  0  0  # atno 17370 bound_to 10713
  157.7419  130.9880  150.2480 LP  0  0  0  0  0  0  0  0  0  0  0  0  # atno 17371 bound_to 10713
  141.0151  134.0967  157.4181 LP  0  0  0  0  0  0  0  0  0  0  0  0  # atno 17394 bound_to 11000
  139.8892  135.0104  156.6668 LP  0  0  0  0  0  0  0  0  0  0  0  0  # atno 17395 bound_to 11000

$$$$
