AV-unprocessed.smi:148|AV-procd|sdf|1207|dock5
  -GOLD-   2262018373D 1   1.00000     0.00000
 Structure written by MMmdl.
 63 67  0  0  0  0  0  0  0  0  1 V2000
  147.2602  135.7930  154.3068 O   0  0  0  0  0  0  0  0  0  0  0  0
  148.1845  134.9165  154.9184 C   0  0  0  0  0  0  0  0  0  0  0  0
  149.3348  135.6815  155.6233 C   0  0  1  0  0  0  0  0  0  0  0  0
  148.8077  136.6808  156.6891 C   0  0  0  0  0  0  0  0  0  0  0  0
  149.8529  137.2571  157.5146 N   0  0  0  0  0  0  0  0  0  0  0  0
  149.8960  137.2985  158.8902 C   0  0  0  0  0  0  0  0  0  0  0  0
  150.9398  137.8975  159.3957 N   0  0  0  0  0  0  0  0  0  0  0  0
  151.6741  138.2906  158.2830 C   0  0  0  0  0  0  0  0  0  0  0  0
  152.8893  139.0072  158.0937 C   0  0  0  0  0  0  0  0  0  0  0  0
  153.6473  139.5115  159.0907 N   0  0  0  0  0  0  0  0  0  0  0  0
  154.2081  138.4083  159.8731 C   0  0  0  0  0  0  0  0  0  0  0  0
  155.3045  138.8973  160.8242 C   0  0  0  0  0  0  0  0  0  0  0  0
  154.7551  140.0056  161.7229 C   0  0  0  0  0  0  0  0  0  0  0  0
  154.1729  141.1350  160.8635 C   0  0  0  0  0  0  0  0  0  0  0  0
  153.0879  140.6388  159.8678 C   0  0  1  0  0  0  0  0  0  0  0  0
  152.5759  141.8322  158.9860 C   0  0  1  0  0  0  0  0  0  0  0  0
  151.2642  141.6164  158.1982 C   0  0  0  0  0  0  0  0  0  0  0  0
  150.6576  143.0021  157.9363 C   0  0  0  0  0  0  0  0  0  0  0  0
  151.5092  143.9960  158.7300 C   0  0  0  0  0  0  0  0  0  0  0  0
  152.2812  143.1465  159.7404 C   0  0  1  0  0  0  0  0  0  0  0  0
  151.4503  142.9209  160.8655 O   0  0  0  0  0  0  0  0  0  0  0  0
  153.3275  139.1990  156.8250 N   0  0  0  0  0  0  0  0  0  0  0  0
  152.6073  138.7424  155.7958 C   0  0  0  0  0  0  0  0  0  0  0  0
  151.4460  138.0842  155.8150 N   0  0  0  0  0  0  0  0  0  0  0  0
  151.0135  137.8788  157.0925 C   0  0  0  0  0  0  0  0  0  0  0  0
  150.3574  134.7060  156.2639 C   0  0  2  0  0  0  0  0  0  0  0  0
  150.9416  133.6752  155.2977 C   0  0  0  0  0  0  0  0  0  0  0  0
  151.1308  132.4070  156.1357 C   0  0  0  0  0  0  0  0  0  0  0  0
  150.7600  132.7659  157.4575 O   0  0  0  0  0  0  0  0  0  0  0  0
  149.7985  133.8017  157.3661 C   0  0  0  0  0  0  0  0  0  0  0  0
  147.5623  135.9863  153.4324 H   0  0  0  0  0  0  0  0  0  0  0  0
  147.6629  134.2663  155.6214 H   0  0  0  0  0  0  0  0  0  0  0  0
  148.5600  134.2771  154.1217 H   0  0  0  0  0  0  0  0  0  0  0  0
  149.8734  136.2469  154.8610 H   0  0  0  0  0  0  0  0  0  0  0  0
  148.2621  137.4919  156.2050 H   0  0  0  0  0  0  0  0  0  0  0  0
  148.1005  136.1964  157.3623 H   0  0  0  0  0  0  0  0  0  0  0  0
  149.1158  136.8823  159.5107 H   0  0  0  0  0  0  0  0  0  0  0  0
  153.4147  137.9291  160.4483 H   0  0  0  0  0  0  0  0  0  0  0  0
  154.6214  137.6476  159.2084 H   0  0  0  0  0  0  0  0  0  0  0  0
  155.6738  138.0694  161.4299 H   0  0  0  0  0  0  0  0  0  0  0  0
  156.1533  139.2701  160.2496 H   0  0  0  0  0  0  0  0  0  0  0  0
  153.9817  139.6034  162.3785 H   0  0  0  0  0  0  0  0  0  0  0  0
  155.5441  140.3926  162.3685 H   0  0  0  0  0  0  0  0  0  0  0  0
  153.7709  141.8892  161.5383 H   0  0  0  0  0  0  0  0  0  0  0  0
  154.9805  141.6170  160.3109 H   0  0  0  0  0  0  0  0  0  0  0  0
  152.2510  140.2575  160.4542 H   0  0  0  0  0  0  0  0  0  0  0  0
  153.3570  142.0616  158.2587 H   0  0  0  0  0  0  0  0  0  0  0  0
  151.4215  141.0923  157.2566 H   0  0  0  0  0  0  0  0  0  0  0  0
  150.5636  141.0268  158.7907 H   0  0  0  0  0  0  0  0  0  0  0  0
  150.6628  143.2485  156.8740 H   0  0  0  0  0  0  0  0  0  0  0  0
  149.6200  143.0252  158.2716 H   0  0  0  0  0  0  0  0  0  0  0  0
  152.2170  144.4778  158.0539 H   0  0  0  0  0  0  0  0  0  0  0  0
  150.9168  144.7858  159.1939 H   0  0  0  0  0  0  0  0  0  0  0  0
  153.1912  143.6538  160.0630 H   0  0  0  0  0  0  0  0  0  0  0  0
  150.6090  142.6187  160.5592 H   0  0  0  0  0  0  0  0  0  0  0  0
  153.0168  138.9392  154.8160 H   0  0  0  0  0  0  0  0  0  0  0  0
  151.1825  135.2792  156.6900 H   0  0  0  0  0  0  0  0  0  0  0  0
  150.2583  133.4666  154.4732 H   0  0  0  0  0  0  0  0  0  0  0  0
  151.8822  134.0227  154.8695 H   0  0  0  0  0  0  0  0  0  0  0  0
  150.4753  131.6110  155.7797 H   0  0  0  0  0  0  0  0  0  0  0  0
  152.1566  132.0392  156.1105 H   0  0  0  0  0  0  0  0  0  0  0  0
  149.6938  134.3096  158.3249 H   0  0  0  0  0  0  0  0  0  0  0  0
  148.8303  133.3825  157.0865 H   0  0  0  0  0  0  0  0  0  0  0  0
  1  2  1  0  0  0  0
  1 31  1  0  0  0  0
  2  3  1  0  0  0  0
  2 32  1  0  0  0  0
  2 33  1  0  0  0  0
  3  4  1  0  0  0  0
  3 26  1  0  0  0  0
  3 34  1  0  0  0  0
  4  5  1  0  0  0  0
  4 35  1  0  0  0  0
  4 36  1  0  0  0  0
  5 25  1  0  0  0  0
  5  6  1  0  0  0  0
  6  7  2  0  0  0  0
  6 37  1  0  0  0  0
  7  8  1  0  0  0  0
  8 25  2  0  0  0  0
  8  9  1  0  0  0  0
  9 10  1  0  0  0  0
  9 22  2  0  0  0  0
 10 15  1  0  0  0  0
 10 11  1  0  0  0  0
 11 12  1  0  0  0  0
 11 38  1  0  0  0  0
 11 39  1  0  0  0  0
 12 13  1  0  0  0  0
 12 40  1  0  0  0  0
 12 41  1  0  0  0  0
 13 14  1  0  0  0  0
 13 42  1  0  0  0  0
 13 43  1  0  0  0  0
 14 15  1  0  0  0  0
 14 44  1  0  0  0  0
 14 45  1  0  0  0  0
 15 16  1  0  0  0  0
 15 46  1  0  0  0  0
 16 20  1  0  0  0  0
 16 17  1  0  0  0  0
 16 47  1  0  0  0  0
 17 18  1  0  0  0  0
 17 48  1  0  0  0  0
 17 49  1  0  0  0  0
 18 19  1  0  0  0  0
 18 50  1  0  0  0  0
 18 51  1  0  0  0  0
 19 20  1  0  0  0  0
 19 52  1  0  0  0  0
 19 53  1  0  0  0  0
 20 21  1  0  0  0  0
 20 54  1  0  0  0  0
 21 55  1  0  0  0  0
 22 23  1  0  0  0  0
 23 24  2  0  0  0  0
 23 56  1  0  0  0  0
 24 25  1  0  0  0  0
 26 30  1  0  0  0  0
 26 27  1  0  0  0  0
 26 57  1  0  0  0  0
 27 28  1  0  0  0  0
 27 58  1  0  0  0  0
 27 59  1  0  0  0  0
 28 29  1  0  0  0  0
 28 60  1  0  0  0  0
 28 61  1  0  0  0  0
 29 30  1  0  0  0  0
 30 62  1  0  0  0  0
 30 63  1  0  0  0  0
M  END
> <s_m_source_file>
AV-unprocessed.smi

> <i_m_source_file_index>
148

> <i_lp_mmshare_version>
43012

> <i_f3d_flags>
0

> <s_epik_input>
W0NIMl0xT1tDSDJdW0NIMl1bQ0BIXTFbQ0BIXShbQ0gyXVtPSF0pW0NIMl1uKFtjSF1uMiljKGMyMyluW2NIXW5jM040W0NIMl1bQ0gyXVtDSDJdW0NIMl1bQ0BIXTRbQ0BASF01W0NIMl1bQ0gyXVtDSDJdW0NASF01W09IXQ==

> <s_epik_cmdline>
J2VwaWtfcHl0aG9uJywgJy1waCcsICc3LjAnLCAnLXRuJywgJzgnLCAnLW1hJywgJzIwMCcsICctbWV0YWxfYmluZGluZycsICctaW1hZScsICc8aW5maWxlLm1hZT4nLCAnLW9tYWUnLCAnPG91dGZpbGUubWFlPic=

> <r_lp_tautomer_probability>
1

> <r_epik_Ionization_Penalty>
0.00556303

> <r_epik_Ionization_Penalty_Charging>
0

> <r_epik_Ionization_Penalty_Neutral>
0.00556303

> <r_epik_State_Penalty>
0.00401767

> <r_epik_Charging_Adjusted_Penalty>
0.00401767

> <i_epik_Tot_Q>
0

> <i_epik_Tot_abs_Q>
0

> <r_epik_Metal_State_Penalty>
-0

> <b_epik_Metal_Only>
0

> <s_lp_Force_Field>
OPLS_2005

> <r_lp_Energy>
70.4735

> <b_lp_Chiralities_Consistent>
1

> <s_lp_Variant>
AV-unprocessed.smi:148-6

> <Gold.Version>
5.8.1

> <Gold.Id.Protein>
6NUR|6NUR_protein|mol2

> <Gold.PLP.Fitness>
52.1181

> <Gold.PLP.PLP>
-43.5162

> <Gold.PLP.part.hbond>
-4.2301

> <Gold.PLP.part.metal>
0.0000

> <Gold.PLP.part.buried>
-5.6233

> <Gold.PLP.part.nonpolar>
-34.0395

> <Gold.PLP.part.repulsive>
0.0095

> <Gold.PLP.ligand.clash>
0.0000

> <Gold.PLP.ligand.torsion>
0.4489

> <Gold.PLP.Chemscore.Hbond>
3.0000

> <Gold.PLP.Chemscore.CHOScore>
0.0000

> <Gold.PLP.Chemscore.Metal>
0.0000

> <Gold.Chemscore.Hbonds>
donor molecule, donor type, donor heavy atom, donor atom, acceptor molecule, acceptor atom, score
      L1  H     1    31       P1  7948  0.81
      P1  H  6896  6908       L1    29  0.35
      P1  H  7997  8008       L1    22  0.63

> <Gold.PLP.Chemscore.Internal.Correction>
0.4997

> <Gold.Rescore>
     Score         DG    S(hbond)    S(metal)    S(lipo)     H(rot)  DE(clash)    DE(int)     intcor
     19.02     -19.66       2.69        0.00     117.06       3.32       0.04       0.61       ----

> <Gold.Chemscore.Fitness>
19.0177

> <Gold.Chemscore.DG>
-19.6580

> <Gold.Chemscore.ZeroCoef>
-5.4800

> <Gold.Chemscore.Hbond>
2.6891

> <Gold.Chemscore.Metal>
0.0000

> <Gold.Chemscore.Lipo>
117.0638

> <Gold.Chemscore.Internal_Hbond>
0.0000

> <Gold.Chemscore.DEClash>
0.0354

> <Gold.Chemscore.DEInternal>
0.6050

> <Gold.Chemscore.Rot>
3.3203

> <Gold.Chemscore.Internal.Correction>
   9.000000E+99

> <Gold.Chemscore.Hbonds>
donor molecule, donor type, donor heavy atom, donor atom, acceptor molecule, acceptor atom, score
      L1  H     1    31       P1  7948  0.78
      P1  H  6896  6908       L1    29  0.01
      P1  H  7997  8008       L1    22  0.59

> <Gold.Chemscore.Hbond.Weighted>
-8.9816

> <Gold.Chemscore.Metal.Weighted>
-0.0000

> <Gold.Chemscore.Lipo.Weighted>
-13.6965

> <Gold.Chemscore.Internal_Hbond.Weighted>
0.0000

> <Gold.Chemscore.DEClash.Weighted>
0.0354

> <Gold.Chemscore.DEInternal.Weighted>
0.6050

> <Gold.Chemscore.Rot.Weighted>
8.5000

> <Gold.Chemscore.Internal.Correction.Weighted>
   9.000000E+99

> <Gold.Protein.RotatedTorsions>
[ 6907 6896 6895 6894 ] final   90.88 input  -60.11 | X-H torsion
[ 7974 7965 7964 7962 ] final  -48.05 input  175.53 | X-H torsion
[ 8008 7997 7996 7995 ] final  -55.74 input   59.86 | X-H torsion
[ 10167 10162 10161 10158 ] final   84.08 input  -65.29 | X-H torsion
[ 10718 10713 10712 10709 ] final -140.03 input   66.30 | X-H torsion
[ 10763 10752 10751 10750 ] final  172.66 input  -60.55 | X-H torsion
[ 11005 11000 10999 10996 ] final -145.16 input  -57.11 | X-H torsion

> <Gold.Protein.ActiveResidues>
 VAL166  LYS551  ARG553  GLY616  TRP617  ASP618  TYR619  PRO620  LYS621  CYS622 
 ASP623  PHE694  ASN695  SER759  ASP760  ASP761  ALA762  ILE779  LEU786  VAL792 
 PHE793  MET794  SER795  GLU796  ALA797  LYS798  CYS799  TRP800  GLU811  SER814 

> <Gold.Protein.RotatedAtoms>
  152.5447  134.1744  159.8609 H   0  0  0  0  0  0  0  0  0  0  0  0  # atno 6907 bound_to 6896
  151.1751  133.4753  159.2601 H   0  0  0  0  0  0  0  0  0  0  0  0  # atno 6908 bound_to 6896
  151.1235  135.0103  159.8605 H   0  0  0  0  0  0  0  0  0  0  0  0  # atno 6909 bound_to 6896
  145.9553  140.7533  142.9484 H   0  0  0  0  0  0  0  0  0  0  0  0  # atno 7974 bound_to 7965
  154.4205  140.1146  156.5525 H   0  0  0  0  0  0  0  0  0  0  0  0  # atno 8008 bound_to 7997
  155.6395  140.3496  155.4691 H   0  0  0  0  0  0  0  0  0  0  0  0  # atno 8009 bound_to 7997
  155.9882  140.1174  157.0652 H   0  0  0  0  0  0  0  0  0  0  0  0  # atno 8010 bound_to 7997
  139.9118  144.6267  150.8530 H   0  0  0  0  0  0  0  0  0  0  0  0  # atno 10167 bound_to 10162
  156.3176  130.7516  151.1607 H   0  0  0  0  0  0  0  0  0  0  0  0  # atno 10718 bound_to 10713
  154.4291  135.2759  155.1924 H   0  0  0  0  0  0  0  0  0  0  0  0  # atno 10763 bound_to 10752
  154.3837  135.6082  153.5808 H   0  0  0  0  0  0  0  0  0  0  0  0  # atno 10764 bound_to 10752
  152.9835  135.5886  154.4600 H   0  0  0  0  0  0  0  0  0  0  0  0  # atno 10765 bound_to 10752
  140.7951  134.2922  157.4999 H   0  0  0  0  0  0  0  0  0  0  0  0  # atno 11005 bound_to 11000
  144.6804  140.2501  143.7332 LP  0  0  0  0  0  0  0  0  0  0  0  0  # atno 17320 bound_to 7965
  145.8115  139.2005  143.1990 LP  0  0  0  0  0  0  0  0  0  0  0  0  # atno 17321 bound_to 7965
  140.7683  143.3360  151.2307 LP  0  0  0  0  0  0  0  0  0  0  0  0  # atno 17342 bound_to 10162
  139.6936  143.9650  152.2871 LP  0  0  0  0  0  0  0  0  0  0  0  0  # atno 17343 bound_to 10162
  157.7405  131.0516  150.5162 LP  0  0  0  0  0  0  0  0  0  0  0  0  # atno 17370 bound_to 10713
  156.5310  130.4185  149.6201 LP  0  0  0  0  0  0  0  0  0  0  0  0  # atno 17371 bound_to 10713
  139.8727  134.9397  156.3750 LP  0  0  0  0  0  0  0  0  0  0  0  0  # atno 17394 bound_to 11000
  140.9350  133.7553  156.0074 LP  0  0  0  0  0  0  0  0  0  0  0  0  # atno 17395 bound_to 11000

$$$$
