AV-unprocessed.smi:35|AV-procd|sdf|247|dock5
  -GOLD-   2262016 03D 1   1.00000     0.00000
 Structure written by MMmdl.
 29 30  0  0  0  0  0  0  0  0  1 V2000
  140.6049  134.8338  153.7855 O   0  0  0  0  0  0  0  0  0  0  0  0
  141.7212  135.2441  153.4753 C   0  0  0  0  0  0  0  0  0  0  0  0
  142.8275  134.3927  153.5333 N   0  0  0  0  0  0  0  0  0  0  0  0
  144.1375  134.7423  153.2013 C   0  0  0  0  0  0  0  0  0  0  0  0
  145.0398  133.9122  153.3057 O   0  0  0  0  0  0  0  0  0  0  0  0
  144.3650  136.0629  152.7510 N   0  0  0  0  0  0  0  0  0  0  0  0
  145.7882  136.4636  152.4006 C   0  0  2  0  0  0  0  0  0  0  0  0
  146.5491  136.5555  153.5692 O   0  0  0  0  0  0  0  0  0  0  0  0
  146.6039  137.9120  153.9997 C   0  0  1  0  0  0  0  0  0  0  0  0
  147.7308  138.1301  155.0238 C   0  0  0  0  0  0  0  0  0  0  0  0
  148.9657  137.7233  154.4736 O   0  0  0  0  0  0  0  0  0  0  0  0
  146.7580  138.6535  152.6688 C   0  0  1  0  0  0  0  0  0  0  0  0
  148.1089  138.6217  152.2360 O   0  0  0  0  0  0  0  0  0  0  0  0
  145.8242  137.8661  151.7496 C   0  0  1  0  0  0  0  0  0  0  0  0
  146.2668  137.8554  150.4045 O   0  0  0  0  0  0  0  0  0  0  0  0
  143.2964  136.9532  152.7043 C   0  0  0  0  0  0  0  0  0  0  0  0
  142.0319  136.5990  153.0345 C   0  0  0  0  0  0  0  0  0  0  0  0
  140.6513  138.0130  152.8948 Br  0  0  0  0  0  0  0  0  0  0  0  0
  142.6658  133.4464  153.8462 H   0  0  0  0  0  0  0  0  0  0  0  0
  146.1727  135.6555  151.7750 H   0  0  0  0  0  0  0  0  0  0  0  0
  145.6444  138.1959  154.4364 H   0  0  0  0  0  0  0  0  0  0  0  0
  147.7844  139.1711  155.3438 H   0  0  0  0  0  0  0  0  0  0  0  0
  147.5536  137.5235  155.9125 H   0  0  0  0  0  0  0  0  0  0  0  0
  148.8201  137.4482  153.5812 H   0  0  0  0  0  0  0  0  0  0  0  0
  146.4531  139.6975  152.7509 H   0  0  0  0  0  0  0  0  0  0  0  0
  148.3450  137.7217  152.0682 H   0  0  0  0  0  0  0  0  0  0  0  0
  144.8289  138.3115  151.7923 H   0  0  0  0  0  0  0  0  0  0  0  0
  145.5472  138.1227  149.8525 H   0  0  0  0  0  0  0  0  0  0  0  0
  143.4503  137.9770  152.3995 H   0  0  0  0  0  0  0  0  0  0  0  0
  1  2  2  0  0  0  0
  2 17  1  0  0  0  0
  2  3  1  0  0  0  0
  3 19  1  0  0  0  0
  3  4  1  0  0  0  0
  4  5  2  0  0  0  0
  4  6  1  0  0  0  0
  6  7  1  0  0  0  0
  6 16  1  0  0  0  0
  7 14  1  0  0  0  0
  7  8  1  0  0  0  0
  7 20  1  0  0  0  0
  8  9  1  0  0  0  0
  9 10  1  0  0  0  0
  9 12  1  0  0  0  0
  9 21  1  0  0  0  0
 10 11  1  0  0  0  0
 10 22  1  0  0  0  0
 10 23  1  0  0  0  0
 11 24  1  0  0  0  0
 12 13  1  0  0  0  0
 12 14  1  0  0  0  0
 12 25  1  0  0  0  0
 13 26  1  0  0  0  0
 14 15  1  0  0  0  0
 14 27  1  0  0  0  0
 15 28  1  0  0  0  0
 16 17  2  0  0  0  0
 16 29  1  0  0  0  0
 17 18  1  0  0  0  0
M  END
> <s_m_source_file>
AV-unprocessed.smi

> <i_m_source_file_index>
35

> <i_lp_mmshare_version>
43012

> <i_f3d_flags>
0

> <s_epik_input>
Tz1jMVtuSF1jKD1PKW4oW2NIXWMxQnIpW0NAQEhdMk9bQ0BASF0oW0NIMl1bT0hdKVtDQEBIXShbT0hdKVtDQEhdMltPSF0=

> <s_epik_cmdline>
J2VwaWtfcHl0aG9uJywgJy1waCcsICc3LjAnLCAnLXRuJywgJzgnLCAnLW1hJywgJzIwMCcsICctbWV0YWxfYmluZGluZycsICctaW1hZScsICc8aW5maWxlLm1hZT4nLCAnLW9tYWUnLCAnPG91dGZpbGUubWFlPic=

> <r_lp_tautomer_probability>
0.999537

> <r_epik_Ionization_Penalty>
0.10812

> <r_epik_Ionization_Penalty_Charging>
0.108119

> <r_epik_Ionization_Penalty_Neutral>
4.93006e-07

> <r_epik_State_Penalty>
0.0979238

> <r_epik_Charging_Adjusted_Penalty>
0.206043

> <i_epik_Tot_Q>
0

> <i_epik_Tot_abs_Q>
0

> <r_epik_Metal_State_Penalty>
3.07911

> <b_epik_Metal_Only>
0

> <s_epik_Chemistry_Notes>
This compound contains an acetal/aminal-like group ( X-CH(R)-Y where X, Y are N, S, or O) that may be acid/base labile, releasing an aldehyde.

> <s_lp_Force_Field>
OPLS_2005

> <r_lp_Energy>
33.4515

> <b_lp_Chiralities_Consistent>
1

> <s_lp_Variant>
AV-unprocessed.smi:35-1

> <Gold.Version>
5.8.1

> <Gold.Id.Protein>
6NUR|6NUR_protein|mol2

> <Gold.PLP.Fitness>
47.7228

> <Gold.PLP.PLP>
-26.4672

> <Gold.PLP.part.hbond>
-7.3113

> <Gold.PLP.part.metal>
0.0000

> <Gold.PLP.part.buried>
-2.8904

> <Gold.PLP.part.nonpolar>
-17.0962

> <Gold.PLP.part.repulsive>
1.5818

> <Gold.PLP.ligand.clash>
0.0000

> <Gold.PLP.ligand.torsion>
0.2156

> <Gold.PLP.Chemscore.Hbond>
5.8080

> <Gold.PLP.Chemscore.CHOScore>
1.4131

> <Gold.PLP.Chemscore.Metal>
0.0000

> <Gold.Chemscore.Hbonds>
donor molecule, donor type, donor heavy atom, donor atom, acceptor molecule, acceptor atom, score
      L1  H     3    19       P1 10957  1.00
      L1  H    11    24       P1  7948  0.83
      L1  H    13    26       P1  7948  1.00
      L1  H    15    28       P1 10171  0.94
      P1  H  7954  7966       L1    15  0.85
      P1  H 11000 11005       L1     1  1.00
      L1  C    16    29       P1 10171  0.52
      L1  C    16    29       P1 10175  1.00

> <Gold.PLP.Chemscore.Internal.Correction>
0.0234

> <Gold.Rescore>
     Score         DG    S(hbond)    S(metal)    S(lipo)     H(rot)  DE(clash)    DE(int)     intcor
     16.42     -18.36       5.46        0.00      34.49       3.67       1.43       0.51       ----

> <Gold.Chemscore.Fitness>
16.4211

> <Gold.Chemscore.DG>
-18.3608

> <Gold.Chemscore.ZeroCoef>
-5.4800

> <Gold.Chemscore.Hbond>
5.4615

> <Gold.Chemscore.Metal>
0.0000

> <Gold.Chemscore.Lipo>
34.4862

> <Gold.Chemscore.Internal_Hbond>
0.0000

> <Gold.Chemscore.DEClash>
1.4265

> <Gold.Chemscore.DEInternal>
0.5132

> <Gold.Chemscore.Rot>
3.6701

> <Gold.Chemscore.Internal.Correction>
   9.000000E+99

> <Gold.Chemscore.Hbonds>
donor molecule, donor type, donor heavy atom, donor atom, acceptor molecule, acceptor atom, score
      L1  H     3    19       P1 10957  1.00
      L1  H    11    24       P1  7948  0.82
      L1  H    13    26       P1  7948  0.98
      L1  H    15    28       P1 10171  0.91
      P1  H  7954  7966       L1    15  0.81
      P1  H 10995 11001       L1     1  0.01
      P1  H 11000 11005       L1     1  0.90

> <Gold.Chemscore.Hbond.Weighted>
-18.2414

> <Gold.Chemscore.Metal.Weighted>
-0.0000

> <Gold.Chemscore.Lipo.Weighted>
-4.0349

> <Gold.Chemscore.Internal_Hbond.Weighted>
0.0000

> <Gold.Chemscore.DEClash.Weighted>
1.4265

> <Gold.Chemscore.DEInternal.Weighted>
0.5132

> <Gold.Chemscore.Rot.Weighted>
9.3955

> <Gold.Chemscore.Internal.Correction.Weighted>
   9.000000E+99

> <Gold.Protein.RotatedTorsions>
[ 6907 6896 6895 6894 ] final  -85.74 input  -60.11 | X-H torsion
[ 7974 7965 7964 7962 ] final   13.62 input  175.53 | X-H torsion
[ 8008 7997 7996 7995 ] final -122.23 input   59.86 | X-H torsion
[ 10167 10162 10161 10158 ] final    9.93 input  -65.29 | X-H torsion
[ 10718 10713 10712 10709 ] final  135.01 input   66.30 | X-H torsion
[ 10763 10752 10751 10750 ] final  -99.64 input  -60.55 | X-H torsion
[ 11005 11000 10999 10996 ] final   30.04 input  -57.11 | X-H torsion

> <Gold.Protein.ActiveResidues>
 VAL166  LYS551  ARG553  GLY616  TRP617  ASP618  TYR619  PRO620  LYS621  CYS622 
 ASP623  PHE694  ASN695  SER759  ASP760  ASP761  ALA762  ILE779  LEU786  VAL792 
 PHE793  MET794  SER795  GLU796  ALA797  LYS798  CYS799  TRP800  GLU811  SER814 

> <Gold.Protein.RotatedAtoms>
  150.6869  134.3159  159.4765 H   0  0  0  0  0  0  0  0  0  0  0  0  # atno 6907 bound_to 6896
  152.1040  134.9319  160.0578 H   0  0  0  0  0  0  0  0  0  0  0  0  # atno 6908 bound_to 6896
  152.0588  133.4017  159.4445 H   0  0  0  0  0  0  0  0  0  0  0  0  # atno 6909 bound_to 6896
  146.2325  139.9162  142.8517 H   0  0  0  0  0  0  0  0  0  0  0  0  # atno 7974 bound_to 7965
  155.1608  140.0406  157.2842 H   0  0  0  0  0  0  0  0  0  0  0  0  # atno 8008 bound_to 7997
  154.6337  140.2530  155.7376 H   0  0  0  0  0  0  0  0  0  0  0  0  # atno 8009 bound_to 7997
  156.2498  140.2870  156.0701 H   0  0  0  0  0  0  0  0  0  0  0  0  # atno 8010 bound_to 7997
  140.6225  143.8173  150.7193 H   0  0  0  0  0  0  0  0  0  0  0  0  # atno 10167 bound_to 10162
  157.4614  131.1074  150.9915 H   0  0  0  0  0  0  0  0  0  0  0  0  # atno 10718 bound_to 10713
  154.7514  135.4965  153.9296 H   0  0  0  0  0  0  0  0  0  0  0  0  # atno 10763 bound_to 10752
  153.1148  135.6718  153.9445 H   0  0  0  0  0  0  0  0  0  0  0  0  # atno 10764 bound_to 10752
  153.9195  135.3090  155.3427 H   0  0  0  0  0  0  0  0  0  0  0  0  # atno 10765 bound_to 10752
  140.2986  134.2783  155.7759 H   0  0  0  0  0  0  0  0  0  0  0  0  # atno 11005 bound_to 11000
  145.2181  140.9924  143.4061 LP  0  0  0  0  0  0  0  0  0  0  0  0  # atno 17320 bound_to 7965
  144.9634  139.3956  143.6345 LP  0  0  0  0  0  0  0  0  0  0  0  0  # atno 17321 bound_to 7965
  140.1766  143.4149  152.1963 LP  0  0  0  0  0  0  0  0  0  0  0  0  # atno 17342 bound_to 10162
  139.5451  144.7291  151.4609 LP  0  0  0  0  0  0  0  0  0  0  0  0  # atno 17343 bound_to 10162
  157.0710  130.5864  149.5402 LP  0  0  0  0  0  0  0  0  0  0  0  0  # atno 17370 bound_to 10713
  156.0030  130.5113  150.7733 LP  0  0  0  0  0  0  0  0  0  0  0  0  # atno 17371 bound_to 10713
  141.2132  133.7631  156.9732 LP  0  0  0  0  0  0  0  0  0  0  0  0  # atno 17394 bound_to 11000
  140.1130  134.9465  157.2093 LP  0  0  0  0  0  0  0  0  0  0  0  0  # atno 17395 bound_to 11000

$$$$
