AV-unprocessed.smi:234|AV-procd|sdf|1789|dock4
  -GOLD-   2262020343D 1   1.00000     0.00000
 Structure written by MMmdl.
 59 62  0  0  0  0  0  0  0  0  1 V2000
  145.5201  132.1452  149.6167 C   0  0  0  0  0  0  0  0  0  0  0  0
  144.7225  131.9571  150.9145 C   0  0  0  0  0  0  0  0  0  0  0  0
  145.4623  132.4030  152.0407 O   0  0  0  0  0  0  0  0  0  0  0  0
  146.8188  131.9676  152.0607 C   0  0  2  0  0  0  0  0  0  0  0  0
  146.9318  130.6287  152.7902 C   0  0  0  0  0  0  0  0  0  0  0  0
  147.1071  131.4472  154.0776 C   0  0  1  0  0  0  0  0  0  0  0  0
  148.0794  130.8850  155.0217 N   0  0  0  0  0  0  0  0  0  0  0  0
  149.1784  130.0937  154.4775 C   0  0  0  0  0  0  0  0  0  0  0  0
  148.4754  131.6577  156.0645 C   0  0  0  0  0  0  0  0  0  0  0  0
  149.4258  132.6141  155.8868 N   0  0  0  0  0  0  0  0  0  0  0  0
  149.8250  133.3663  156.9163 C   0  0  0  0  0  0  0  0  0  0  0  0
  149.4149  133.3291  158.1856 N   0  0  0  0  0  0  0  0  0  0  0  0
  148.4643  132.3686  158.3703 C   0  0  0  0  0  0  0  0  0  0  0  0
  147.9466  131.4934  157.3746 C   0  0  0  0  0  0  0  0  0  0  0  0
  146.9945  130.6491  157.9329 N   0  0  0  0  0  0  0  0  0  0  0  0
  146.9501  131.0068  159.1874 C   0  0  0  0  0  0  0  0  0  0  0  0
  147.7945  132.0373  159.5351 N   0  0  0  0  0  0  0  0  0  0  0  0
  147.9397  132.6363  160.8528 C   0  0  0  0  0  0  0  0  0  0  0  0
  147.3761  134.0747  160.9359 C   0  0  2  0  0  0  0  0  0  0  0  0
  146.3301  134.2031  159.9855 O   0  0  0  0  0  0  0  0  0  0  0  0
  148.4071  135.1618  160.6714 C   0  0  0  0  0  0  0  0  0  0  0  0
  147.8011  136.3708  161.3729 C   0  0  0  0  0  0  0  0  0  0  0  0
  147.1660  135.8408  162.5289 O   0  0  0  0  0  0  0  0  0  0  0  0
  146.8803  134.4541  162.3486 C   0  0  1  0  0  0  0  0  0  0  0  0
  145.4068  134.1528  162.6659 C   0  0  0  0  0  0  0  0  0  0  0  0
  147.6443  132.6142  153.2019 C   0  0  0  0  0  0  0  0  0  0  0  0
  149.1561  132.6640  152.9253 C   0  0  0  0  0  0  0  0  0  0  0  0
  147.2248  134.0297  153.6075 C   0  0  0  0  0  0  0  0  0  0  0  0
  144.9287  131.8426  148.7526 H   0  0  0  0  0  0  0  0  0  0  0  0
  146.4344  131.5521  149.6141 H   0  0  0  0  0  0  0  0  0  0  0  0
  145.7997  133.1899  149.4798 H   0  0  0  0  0  0  0  0  0  0  0  0
  143.8098  132.5506  150.8604 H   0  0  0  0  0  0  0  0  0  0  0  0
  144.4119  130.9190  151.0421 H   0  0  0  0  0  0  0  0  0  0  0  0
  147.3201  131.9744  151.0910 H   0  0  0  0  0  0  0  0  0  0  0  0
  146.0325  130.0128  152.7576 H   0  0  0  0  0  0  0  0  0  0  0  0
  147.8184  130.0608  152.5027 H   0  0  0  0  0  0  0  0  0  0  0  0
  146.1452  131.6889  154.5340 H   0  0  0  0  0  0  0  0  0  0  0  0
  150.1472  130.5614  154.6607 H   0  0  0  0  0  0  0  0  0  0  0  0
  149.0780  129.9662  153.4005 H   0  0  0  0  0  0  0  0  0  0  0  0
  149.1868  129.1036  154.9333 H   0  0  0  0  0  0  0  0  0  0  0  0
  150.5821  134.1027  156.6903 H   0  0  0  0  0  0  0  0  0  0  0  0
  146.2891  130.5321  159.8981 H   0  0  0  0  0  0  0  0  0  0  0  0
  147.4437  131.9930  161.5807 H   0  0  0  0  0  0  0  0  0  0  0  0
  148.9992  132.6291  161.1122 H   0  0  0  0  0  0  0  0  0  0  0  0
  145.5931  134.6172  160.4080 H   0  0  0  0  0  0  0  0  0  0  0  0
  149.3520  134.9081  161.1534 H   0  0  0  0  0  0  0  0  0  0  0  0
  148.6062  135.3328  159.6126 H   0  0  0  0  0  0  0  0  0  0  0  0
  148.5456  137.1229  161.6341 H   0  0  0  0  0  0  0  0  0  0  0  0
  147.0483  136.8432  160.7406 H   0  0  0  0  0  0  0  0  0  0  0  0
  147.4976  133.9361  163.0837 H   0  0  0  0  0  0  0  0  0  0  0  0
  145.1831  133.0956  162.5235 H   0  0  0  0  0  0  0  0  0  0  0  0
  144.7313  134.7302  162.0343 H   0  0  0  0  0  0  0  0  0  0  0  0
  145.1771  134.4032  163.7016 H   0  0  0  0  0  0  0  0  0  0  0  0
  149.7162  133.0107  153.7940 H   0  0  0  0  0  0  0  0  0  0  0  0
  149.3855  133.3404  152.1017 H   0  0  0  0  0  0  0  0  0  0  0  0
  149.5567  131.6865  152.6560 H   0  0  0  0  0  0  0  0  0  0  0  0
  147.8299  134.4139  154.4287 H   0  0  0  0  0  0  0  0  0  0  0  0
  146.1854  134.0638  153.9345 H   0  0  0  0  0  0  0  0  0  0  0  0
  147.3242  134.7266  152.7749 H   0  0  0  0  0  0  0  0  0  0  0  0
  1  2  1  0  0  0  0
  1 29  1  0  0  0  0
  1 30  1  0  0  0  0
  1 31  1  0  0  0  0
  2  3  1  0  0  0  0
  2 32  1  0  0  0  0
  2 33  1  0  0  0  0
  3  4  1  0  0  0  0
  4 26  1  0  0  0  0
  4  5  1  0  0  0  0
  4 34  1  0  0  0  0
  5  6  1  0  0  0  0
  5 35  1  0  0  0  0
  5 36  1  0  0  0  0
  6  7  1  0  0  0  0
  6 26  1  0  0  0  0
  6 37  1  0  0  0  0
  7  8  1  0  0  0  0
  7  9  1  0  0  0  0
  8 38  1  0  0  0  0
  8 39  1  0  0  0  0
  8 40  1  0  0  0  0
  9 14  1  0  0  0  0
  9 10  2  0  0  0  0
 10 11  1  0  0  0  0
 11 12  2  0  0  0  0
 11 41  1  0  0  0  0
 12 13  1  0  0  0  0
 13 17  1  0  0  0  0
 13 14  2  0  0  0  0
 14 15  1  0  0  0  0
 15 16  2  0  0  0  0
 16 17  1  0  0  0  0
 16 42  1  0  0  0  0
 17 18  1  0  0  0  0
 18 19  1  0  0  0  0
 18 43  1  0  0  0  0
 18 44  1  0  0  0  0
 19 24  1  0  0  0  0
 19 20  1  0  0  0  0
 19 21  1  0  0  0  0
 20 45  1  0  0  0  0
 21 22  1  0  0  0  0
 21 46  1  0  0  0  0
 21 47  1  0  0  0  0
 22 23  1  0  0  0  0
 22 48  1  0  0  0  0
 22 49  1  0  0  0  0
 23 24  1  0  0  0  0
 24 25  1  0  0  0  0
 24 50  1  0  0  0  0
 25 51  1  0  0  0  0
 25 52  1  0  0  0  0
 25 53  1  0  0  0  0
 26 27  1  0  0  0  0
 26 28  1  0  0  0  0
 27 54  1  0  0  0  0
 27 55  1  0  0  0  0
 27 56  1  0  0  0  0
 28 57  1  0  0  0  0
 28 58  1  0  0  0  0
 28 59  1  0  0  0  0
M  END
> <s_m_source_file>
AV-unprocessed.smi

> <i_m_source_file_index>
234

> <i_lp_mmshare_version>
43012

> <i_f3d_flags>
0

> <s_epik_input>
W0NIM11bQ0gyXU9bQ0BASF0oQzEoW0NIM10pW0NIM10pW0NIMl1bQ0BIXTFOKFtDSDNdKWMobltjSF1uMiljKGMyMyluW2NIXW4zW0NIMl1bQ0BAXTQoW09IXSlbQ0gyXVtDSDJdT1tDQEhdNFtDSDNd

> <s_epik_cmdline>
J2VwaWtfcHl0aG9uJywgJy1waCcsICc3LjAnLCAnLXRuJywgJzgnLCAnLW1hJywgJzIwMCcsICctbWV0YWxfYmluZGluZycsICctaW1hZScsICc8aW5maWxlLm1hZT4nLCAnLW9tYWUnLCAnPG91dGZpbGUubWFlPic=

> <r_lp_tautomer_probability>
1

> <r_epik_Ionization_Penalty>
0.00349132

> <r_epik_Ionization_Penalty_Charging>
0

> <r_epik_Ionization_Penalty_Neutral>
0.00349132

> <r_epik_State_Penalty>
0.00242418

> <r_epik_Charging_Adjusted_Penalty>
0.00242418

> <i_epik_Tot_Q>
0

> <i_epik_Tot_abs_Q>
0

> <r_epik_Metal_State_Penalty>
-0

> <b_epik_Metal_Only>
0

> <s_lp_Force_Field>
OPLS_2005

> <r_lp_Energy>
49.8598

> <b_lp_Chiralities_Consistent>
1

> <s_lp_Variant>
AV-unprocessed.smi:234-5

> <Gold.Version>
5.8.1

> <Gold.Id.Protein>
6NUR|6NUR_protein|mol2

> <Gold.PLP.Fitness>
37.9729

> <Gold.PLP.PLP>
-36.8813

> <Gold.PLP.part.hbond>
-1.0000

> <Gold.PLP.part.metal>
0.0000

> <Gold.PLP.part.buried>
-5.4741

> <Gold.PLP.part.nonpolar>
-31.3900

> <Gold.PLP.part.repulsive>
0.1342

> <Gold.PLP.ligand.clash>
0.0000

> <Gold.PLP.ligand.torsion>
1.5077

> <Gold.PLP.Chemscore.Hbond>
1.0000

> <Gold.PLP.Chemscore.CHOScore>
0.0000

> <Gold.PLP.Chemscore.Metal>
0.0000

> <Gold.Chemscore.Hbonds>
donor molecule, donor type, donor heavy atom, donor atom, acceptor molecule, acceptor atom, score
      P1  H  6896  6909       L1    12  1.00

> <Gold.PLP.Chemscore.Internal.Correction>
1.1069

> <Gold.Rescore>
     Score         DG    S(hbond)    S(metal)    S(lipo)     H(rot)  DE(clash)    DE(int)     intcor
     10.56     -13.65       0.94        0.00     100.25       2.62       0.01       3.08       ----

> <Gold.Chemscore.Fitness>
10.5622

> <Gold.Chemscore.DG>
-13.6521

> <Gold.Chemscore.ZeroCoef>
-5.4800

> <Gold.Chemscore.Hbond>
0.9447

> <Gold.Chemscore.Metal>
0.0000

> <Gold.Chemscore.Lipo>
100.2469

> <Gold.Chemscore.Internal_Hbond>
0.0000

> <Gold.Chemscore.DEClash>
0.0137

> <Gold.Chemscore.DEInternal>
3.0763

> <Gold.Chemscore.Rot>
2.6219

> <Gold.Chemscore.Internal.Correction>
   9.000000E+99

> <Gold.Chemscore.Hbonds>
donor molecule, donor type, donor heavy atom, donor atom, acceptor molecule, acceptor atom, score
      P1  H  6896  6909       L1    12  0.74

> <Gold.Chemscore.Hbond.Weighted>
-3.1553

> <Gold.Chemscore.Metal.Weighted>
-0.0000

> <Gold.Chemscore.Lipo.Weighted>
-11.7289

> <Gold.Chemscore.Internal_Hbond.Weighted>
0.0000

> <Gold.Chemscore.DEClash.Weighted>
0.0137

> <Gold.Chemscore.DEInternal.Weighted>
3.0763

> <Gold.Chemscore.Rot.Weighted>
6.7121

> <Gold.Chemscore.Internal.Correction.Weighted>
   9.000000E+99

> <Gold.Protein.RotatedTorsions>
[ 6907 6896 6895 6894 ] final    2.30 input  -60.11 | X-H torsion
[ 7974 7965 7964 7962 ] final -102.20 input  175.53 | X-H torsion
[ 8008 7997 7996 7995 ] final -151.58 input   59.86 | X-H torsion
[ 10167 10162 10161 10158 ] final  164.36 input  -65.29 | X-H torsion
[ 10718 10713 10712 10709 ] final  -55.64 input   66.30 | X-H torsion
[ 10763 10752 10751 10750 ] final  -96.81 input  -60.55 | X-H torsion
[ 11005 11000 10999 10996 ] final  -38.41 input  -57.11 | X-H torsion

> <Gold.Protein.ActiveResidues>
 VAL166  LYS551  ARG553  GLY616  TRP617  ASP618  TYR619  PRO620  LYS621  CYS622 
 ASP623  PHE694  ASN695  SER759  ASP760  ASP761  ALA762  ILE779  LEU786  VAL792 
 PHE793  MET794  SER795  GLU796  ALA797  LYS798  CYS799  TRP800  GLU811  SER814 

> <Gold.Protein.RotatedAtoms>
  151.6067  135.1043  160.0071 H   0  0  0  0  0  0  0  0  0  0  0  0  # atno 6907 bound_to 6896
  152.4230  133.7143  159.6507 H   0  0  0  0  0  0  0  0  0  0  0  0  # atno 6908 bound_to 6896
  150.8118  133.8336  159.3201 H   0  0  0  0  0  0  0  0  0  0  0  0  # atno 6909 bound_to 6896
  145.2717  140.9301  143.2982 H   0  0  0  0  0  0  0  0  0  0  0  0  # atno 7974 bound_to 7965
  155.6417  140.0702  157.2616 H   0  0  0  0  0  0  0  0  0  0  0  0  # atno 8008 bound_to 7997
  154.4182  140.1749  156.1629 H   0  0  0  0  0  0  0  0  0  0  0  0  # atno 8009 bound_to 7997
  155.9850  140.3350  155.6702 H   0  0  0  0  0  0  0  0  0  0  0  0  # atno 8010 bound_to 7997
  139.4888  144.4243  151.9149 H   0  0  0  0  0  0  0  0  0  0  0  0  # atno 10167 bound_to 10162
  156.1352  130.4157  150.0198 H   0  0  0  0  0  0  0  0  0  0  0  0  # atno 10718 bound_to 10713
  154.7273  135.5070  153.8906 H   0  0  0  0  0  0  0  0  0  0  0  0  # atno 10763 bound_to 10752
  153.0916  135.6661  153.9851 H   0  0  0  0  0  0  0  0  0  0  0  0  # atno 10764 bound_to 10752
  153.9661  135.3043  155.3410 H   0  0  0  0  0  0  0  0  0  0  0  0  # atno 10765 bound_to 10752
  141.0025  133.6948  156.2050 H   0  0  0  0  0  0  0  0  0  0  0  0  # atno 11005 bound_to 11000
  144.9329  139.4278  143.6486 LP  0  0  0  0  0  0  0  0  0  0  0  0  # atno 17320 bound_to 7965
  146.3244  139.8249  142.8919 LP  0  0  0  0  0  0  0  0  0  0  0  0  # atno 17321 bound_to 7965
  140.3688  144.2881  150.5923 LP  0  0  0  0  0  0  0  0  0  0  0  0  # atno 17342 bound_to 10162
  140.5337  143.2238  151.8197 LP  0  0  0  0  0  0  0  0  0  0  0  0  # atno 17343 bound_to 10162
  156.8099  130.9321  151.3644 LP  0  0  0  0  0  0  0  0  0  0  0  0  # atno 17370 bound_to 10713
  157.6525  130.8897  149.9662 LP  0  0  0  0  0  0  0  0  0  0  0  0  # atno 17371 bound_to 10713
  140.6865  134.4711  157.5589 LP  0  0  0  0  0  0  0  0  0  0  0  0  # atno 17394 bound_to 11000
  139.9046  134.8477  156.1756 LP  0  0  0  0  0  0  0  0  0  0  0  0  # atno 17395 bound_to 11000

$$$$
