AV-unprocessed.smi:1786|AV-procd|sdf|7205|dock9
  -GOLD-   22720 8443D 1   1.00000     0.00000
 Structure written by MMmdl.
 44 45  0  0  0  0  0  0  0  0  2 V2000
  146.8492  136.6956  154.5966 C   0  0  0  0  0  0  0  0  0  0  0  0
  147.7213  135.4771  154.9579 C   0  0  1  0  0  0  0  0  0  0  0  0
  147.0828  134.2049  154.3584 C   0  0  0  0  0  0  0  0  0  0  0  0
  147.9050  132.9496  154.6651 C   0  0  0  0  0  0  0  0  0  0  0  0
  149.3399  133.1477  154.1727 C   0  0  0  0  0  0  0  0  0  0  0  0
  149.9523  134.4094  154.7969 C   0  0  0  0  0  0  0  0  0  0  0  0
  149.1424  135.6245  154.5062 N   0  3  2  0  0  0  0  0  0  0  0  0
  149.8173  136.8532  155.0072 C   0  0  0  0  0  0  0  0  0  0  0  0
  150.3106  136.6837  156.4572 C   0  0  0  0  0  0  0  0  0  0  0  0
  149.2459  136.9528  157.4162 N   0  0  0  0  0  0  0  0  0  0  0  0
  148.8559  136.1064  158.3816 C   0  0  0  0  0  0  0  0  0  0  0  0
  149.3419  134.9844  158.5288 O   0  0  0  0  0  0  0  0  0  0  0  0
  147.7410  136.6001  159.3130 C   0  0  0  0  0  0  0  0  0  0  0  0
  147.4498  135.6475  160.3970 N   0  0  0  0  0  0  0  0  0  0  0  0
  147.0940  134.3355  160.0253 C   0  0  0  0  0  0  0  0  0  0  0  0
  146.8168  133.3902  160.9372 C   0  0  0  0  0  0  0  0  0  0  0  0
  146.8877  133.7470  162.3344 C   0  0  0  0  0  0  0  0  0  0  0  0
  147.2300  134.9982  162.7008 C   0  0  0  0  0  0  0  0  0  0  0  0
  147.5403  136.0328  161.7079 C   0  0  0  0  0  0  0  0  0  0  0  0
  147.8648  137.1755  162.0338 O   0  0  0  0  0  0  0  0  0  0  0  0
  145.8126  136.5317  154.8924 H   0  0  0  0  0  0  0  0  0  0  0  0
  146.8548  136.8840  153.5225 H   0  0  0  0  0  0  0  0  0  0  0  0
  147.1750  137.6046  155.1018 H   0  0  0  0  0  0  0  0  0  0  0  0
  147.7265  135.3757  156.0445 H   0  0  0  0  0  0  0  0  0  0  0  0
  146.0715  134.0765  154.7465 H   0  0  0  0  0  0  0  0  0  0  0  0
  146.9840  134.3158  153.2776 H   0  0  0  0  0  0  0  0  0  0  0  0
  147.9021  132.7555  155.7384 H   0  0  0  0  0  0  0  0  0  0  0  0
  147.4572  132.0782  154.1865 H   0  0  0  0  0  0  0  0  0  0  0  0
  149.9440  132.2756  154.4250 H   0  0  0  0  0  0  0  0  0  0  0  0
  149.3517  133.2297  153.0849 H   0  0  0  0  0  0  0  0  0  0  0  0
  150.0450  134.2847  155.8772 H   0  0  0  0  0  0  0  0  0  0  0  0
  150.9618  134.5403  154.4044 H   0  0  0  0  0  0  0  0  0  0  0  0
  150.6297  137.1375  154.3371 H   0  0  0  0  0  0  0  0  0  0  0  0
  149.1292  137.7001  154.9890 H   0  0  0  0  0  0  0  0  0  0  0  0
  150.6555  135.6610  156.6126 H   0  0  0  0  0  0  0  0  0  0  0  0
  151.1619  137.3297  156.6715 H   0  0  0  0  0  0  0  0  0  0  0  0
  148.7871  137.8507  157.3553 H   0  0  0  0  0  0  0  0  0  0  0  0
  148.0074  137.5722  159.7331 H   0  0  0  0  0  0  0  0  0  0  0  0
  146.8512  136.7833  158.7090 H   0  0  0  0  0  0  0  0  0  0  0  0
  147.0701  134.1476  158.9616 H   0  0  0  0  0  0  0  0  0  0  0  0
  146.5510  132.3882  160.6337 H   0  0  0  0  0  0  0  0  0  0  0  0
  146.6653  133.0076  163.0897 H   0  0  0  0  0  0  0  0  0  0  0  0
  147.2774  135.2471  163.7510 H   0  0  0  0  0  0  0  0  0  0  0  0
  149.1191  135.7055  153.4998 H   0  0  0  0  0  0  0  0  0  0  0  0
  1  2  1  0  0  0  0
  1 21  1  0  0  0  0
  1 22  1  0  0  0  0
  1 23  1  0  0  0  0
  2  7  1  0  0  0  0
  2  3  1  0  0  0  0
  2 24  1  0  0  0  0
  3  4  1  0  0  0  0
  3 25  1  0  0  0  0
  3 26  1  0  0  0  0
  4  5  1  0  0  0  0
  4 27  1  0  0  0  0
  4 28  1  0  0  0  0
  5  6  1  0  0  0  0
  5 29  1  0  0  0  0
  5 30  1  0  0  0  0
  6  7  1  0  0  0  0
  6 31  1  0  0  0  0
  6 32  1  0  0  0  0
  7  8  1  0  0  0  0
  7 44  1  0  0  0  0
  8  9  1  0  0  0  0
  8 33  1  0  0  0  0
  8 34  1  0  0  0  0
  9 10  1  0  0  0  0
  9 35  1  0  0  0  0
  9 36  1  0  0  0  0
 10 11  1  0  0  0  0
 10 37  1  0  0  0  0
 11 12  2  0  0  0  0
 11 13  1  0  0  0  0
 13 14  1  0  0  0  0
 13 38  1  0  0  0  0
 13 39  1  0  0  0  0
 14 19  1  0  0  0  0
 14 15  1  0  0  0  0
 15 16  2  0  0  0  0
 15 40  1  0  0  0  0
 16 17  1  0  0  0  0
 16 41  1  0  0  0  0
 17 18  2  0  0  0  0
 17 42  1  0  0  0  0
 18 19  1  0  0  0  0
 18 43  1  0  0  0  0
 19 20  2  0  0  0  0
M  CHG  1   7   1
M  END
> <s_m_source_file>
AV-unprocessed.smi

> <i_m_source_file_index>
1786

> <i_lp_mmshare_version>
43012

> <i_f3d_flags>
0

> <s_epik_input>
W0NIM11bQ0BASF0xW0NIMl1bQ0gyXVtDSDJdW0NIMl1OMVtDSDJdW0NIMl1bTkhdQyg9TylbQ0gyXW4yW2NIXVtjSF1bY0hdW2NIXWMyPU8=

> <s_epik_cmdline>
J2VwaWtfcHl0aG9uJywgJy1waCcsICc3LjAnLCAnLXRuJywgJzgnLCAnLW1hJywgJzIwMCcsICctbWV0YWxfYmluZGluZycsICctaW1hZScsICc8aW5maWxlLm1hZT4nLCAnLW9tYWUnLCAnPG91dGZpbGUubWFlPic=

> <r_lp_tautomer_probability>
1

> <r_epik_Ionization_Penalty>
0.00237247

> <r_epik_Ionization_Penalty_Charging>
0.00237238

> <r_epik_Ionization_Penalty_Neutral>
8.2065e-08

> <r_epik_State_Penalty>
0.00163922

> <r_epik_Charging_Adjusted_Penalty>
0.0040116

> <i_epik_Tot_Q>
1

> <i_epik_Tot_abs_Q>
1

> <r_epik_Metal_State_Penalty>
-0

> <b_epik_Metal_Only>
0

> <s_lp_Force_Field>
OPLS_2005

> <r_lp_Energy>
27.3139

> <b_lp_Chiralities_Consistent>
1

> <s_lp_Variant>
AV-unprocessed.smi:1786-4

> <Gold.Version>
5.8.1

> <Gold.Id.Protein>
6NUR|6NUR_protein|mol2

> <Gold.PLP.Fitness>
44.6885

> <Gold.PLP.PLP>
-31.8728

> <Gold.PLP.part.hbond>
-3.8171

> <Gold.PLP.part.metal>
0.0000

> <Gold.PLP.part.buried>
-3.2069

> <Gold.PLP.part.nonpolar>
-24.5296

> <Gold.PLP.part.repulsive>
0.0401

> <Gold.PLP.ligand.clash>
0.0000

> <Gold.PLP.ligand.torsion>
0.3061

> <Gold.PLP.Chemscore.Hbond>
4.4671

> <Gold.PLP.Chemscore.CHOScore>
0.0000

> <Gold.PLP.Chemscore.Metal>
0.0000

> <Gold.Chemscore.Hbonds>
donor molecule, donor type, donor heavy atom, donor atom, acceptor molecule, acceptor atom, score
      L1  H     7    44       P1  7948  2.00
      P1  H  6896  6907       L1    12  1.00
      P1  H  6931  6943       L1    20  1.00
      P1  H  6934  6947       L1    20  0.26

> <Gold.PLP.Chemscore.Internal.Correction>
0.0266

> <Gold.Rescore>
     Score         DG    S(hbond)    S(metal)    S(lipo)     H(rot)  DE(clash)    DE(int)     intcor
     17.43     -19.17       3.39        0.00      60.74       1.86       0.18       1.56       ----

> <Gold.Chemscore.Fitness>
17.4305

> <Gold.Chemscore.DG>
-19.1655

> <Gold.Chemscore.ZeroCoef>
-5.4800

> <Gold.Chemscore.Hbond>
3.3944

> <Gold.Chemscore.Metal>
0.0000

> <Gold.Chemscore.Lipo>
60.7374

> <Gold.Chemscore.Internal_Hbond>
0.0000

> <Gold.Chemscore.DEClash>
0.1776

> <Gold.Chemscore.DEInternal>
1.5573

> <Gold.Chemscore.Rot>
1.8586

> <Gold.Chemscore.Internal.Correction>
   9.000000E+99

> <Gold.Chemscore.Hbonds>
donor molecule, donor type, donor heavy atom, donor atom, acceptor molecule, acceptor atom, score
      L1  H     7    44       P1  7948  0.74
      P1  H  6896  6907       L1    12  1.00
      P1  H  6931  6943       L1    20  0.95
      P1  H  6934  6947       L1    20  0.27

> <Gold.Chemscore.Hbond.Weighted>
-11.3373

> <Gold.Chemscore.Metal.Weighted>
-0.0000

> <Gold.Chemscore.Lipo.Weighted>
-7.1063

> <Gold.Chemscore.Internal_Hbond.Weighted>
0.0000

> <Gold.Chemscore.DEClash.Weighted>
0.1776

> <Gold.Chemscore.DEInternal.Weighted>
1.5573

> <Gold.Chemscore.Rot.Weighted>
4.7581

> <Gold.Chemscore.Internal.Correction.Weighted>
   9.000000E+99

> <Gold.Protein.RotatedTorsions>
[ 6907 6896 6895 6894 ] final  -77.18 input  -60.11 | X-H torsion
[ 7974 7965 7964 7962 ] final -159.99 input  175.53 | X-H torsion
[ 8008 7997 7996 7995 ] final   -8.84 input   59.86 | X-H torsion
[ 10167 10162 10161 10158 ] final -106.68 input  -65.29 | X-H torsion
[ 10718 10713 10712 10709 ] final   92.01 input   66.30 | X-H torsion
[ 10763 10752 10751 10750 ] final -125.88 input  -60.55 | X-H torsion
[ 11005 11000 10999 10996 ] final  132.59 input  -57.11 | X-H torsion

> <Gold.Protein.ActiveResidues>
 VAL166  LYS551  ARG553  GLY616  TRP617  ASP618  TYR619  PRO620  LYS621  CYS622 
 ASP623  PHE694  ASN695  SER759  ASP760  ASP761  ALA762  ILE779  LEU786  VAL792 
 PHE793  MET794  SER795  GLU796  ALA797  LYS798  CYS799  TRP800  GLU811  SER814 

> <Gold.Protein.RotatedAtoms>
  150.7006  134.4461  159.5314 H   0  0  0  0  0  0  0  0  0  0  0  0  # atno 6907 bound_to 6896
  152.2162  134.8453  160.0500 H   0  0  0  0  0  0  0  0  0  0  0  0  # atno 6908 bound_to 6896
  151.9320  133.3579  159.3971 H   0  0  0  0  0  0  0  0  0  0  0  0  # atno 6909 bound_to 6896
  144.7444  140.3605  143.6097 H   0  0  0  0  0  0  0  0  0  0  0  0  # atno 7974 bound_to 7965
  154.5703  140.2370  155.8201 H   0  0  0  0  0  0  0  0  0  0  0  0  # atno 8008 bound_to 7997
  156.2101  140.3028  155.9672 H   0  0  0  0  0  0  0  0  0  0  0  0  # atno 8009 bound_to 7997
  155.2725  140.0419  157.2999 H   0  0  0  0  0  0  0  0  0  0  0  0  # atno 8010 bound_to 7997
  140.1852  143.3935  152.1250 H   0  0  0  0  0  0  0  0  0  0  0  0  # atno 10167 bound_to 10162
  157.6959  131.0428  150.3817 H   0  0  0  0  0  0  0  0  0  0  0  0  # atno 10718 bound_to 10713
  154.8740  135.4014  154.3341 H   0  0  0  0  0  0  0  0  0  0  0  0  # atno 10763 bound_to 10752
  153.4150  135.7021  153.6338 H   0  0  0  0  0  0  0  0  0  0  0  0  # atno 10764 bound_to 10752
  153.5025  135.3724  155.2517 H   0  0  0  0  0  0  0  0  0  0  0  0  # atno 10765 bound_to 10752
  139.9799  134.9551  156.9604 H   0  0  0  0  0  0  0  0  0  0  0  0  # atno 11005 bound_to 11000
  145.7182  139.1702  143.2500 LP  0  0  0  0  0  0  0  0  0  0  0  0  # atno 17320 bound_to 7965
  146.1297  140.7202  142.9418 LP  0  0  0  0  0  0  0  0  0  0  0  0  # atno 17321 bound_to 7965
  139.5279  144.7125  151.5162 LP  0  0  0  0  0  0  0  0  0  0  0  0  # atno 17342 bound_to 10162
  140.6493  143.8730  150.6769 LP  0  0  0  0  0  0  0  0  0  0  0  0  # atno 17343 bound_to 10162
  156.4230  130.3956  149.6812 LP  0  0  0  0  0  0  0  0  0  0  0  0  # atno 17370 bound_to 10713
  156.4056  130.7696  151.2707 LP  0  0  0  0  0  0  0  0  0  0  0  0  # atno 17371 bound_to 10713
  140.5117  134.0995  155.7272 LP  0  0  0  0  0  0  0  0  0  0  0  0  # atno 17394 bound_to 11000
  141.1472  133.9033  157.2185 LP  0  0  0  0  0  0  0  0  0  0  0  0  # atno 17395 bound_to 11000

$$$$
