AV-unprocessed.smi:3161|AV-procd|sdf|12056|dock7
  -GOLD-   2272017483D 1   1.00000     0.00000
 Structure written by MMmdl.
 41 42  0  0  0  0  0  0  0  0  2 V2000
  145.8684  131.7175  149.0248 C   0  0  0  0  0  0  0  0  0  0  0  0
  145.4360  132.7450  150.0308 C   0  0  0  0  0  0  0  0  0  0  0  0
  144.1299  133.2750  150.2335 C   0  0  0  0  0  0  0  0  0  0  0  0
  144.0839  134.1720  151.2054 N   0  0  0  0  0  0  0  0  0  0  0  0
  145.3529  134.2420  151.6594 N   0  0  0  0  0  0  0  0  0  0  0  0
  145.6803  135.1495  152.7444 C   0  0  0  0  0  0  0  0  0  0  0  0
  145.5669  136.6394  152.3440 C   0  0  1  0  0  0  0  0  0  0  0  0
  144.3155  137.3142  152.9316 C   0  0  0  0  0  0  0  0  0  0  0  0
  146.7674  137.3988  152.7594 N   0  3  0  0  0  0  0  0  0  0  0  0
  146.7607  138.8385  152.4225 C   0  0  0  0  0  0  0  0  0  0  0  0
  147.3199  139.6741  153.5828 C   0  0  2  0  0  0  0  0  0  0  0  0
  147.2941  141.1836  153.2715 C   0  0  0  0  0  0  0  0  0  0  0  0
  147.9418  141.9800  154.4102 C   0  0  0  0  0  0  0  0  0  0  0  0
  149.3393  141.4229  154.7007 C   0  0  0  0  0  0  0  0  0  0  0  0
  149.2718  139.9048  154.9300 C   0  0  0  0  0  0  0  0  0  0  0  0
  148.6697  139.2707  153.8054 O   0  0  0  0  0  0  0  0  0  0  0  0
  146.1916  133.3971  150.9636 C   0  0  0  0  0  0  0  0  0  0  0  0
  145.0423  131.0723  148.7250 H   0  0  0  0  0  0  0  0  0  0  0  0
  146.6525  131.0706  149.4188 H   0  0  0  0  0  0  0  0  0  0  0  0
  146.2591  132.1822  148.1195 H   0  0  0  0  0  0  0  0  0  0  0  0
  143.2189  133.0360  149.7048 H   0  0  0  0  0  0  0  0  0  0  0  0
  145.0139  134.9347  153.5812 H   0  0  0  0  0  0  0  0  0  0  0  0
  146.6891  134.9100  153.0811 H   0  0  0  0  0  0  0  0  0  0  0  0
  145.4908  136.7078  151.2576 H   0  0  0  0  0  0  0  0  0  0  0  0
  143.3987  136.8490  152.5685 H   0  0  0  0  0  0  0  0  0  0  0  0
  144.2712  138.3677  152.6532 H   0  0  0  0  0  0  0  0  0  0  0  0
  144.3089  137.2573  154.0206 H   0  0  0  0  0  0  0  0  0  0  0  0
  146.8397  137.3265  153.7640 H   0  0  0  0  0  0  0  0  0  0  0  0
  147.3446  139.0216  151.5204 H   0  0  0  0  0  0  0  0  0  0  0  0
  145.7353  139.1442  152.2113 H   0  0  0  0  0  0  0  0  0  0  0  0
  146.7289  139.4791  154.4798 H   0  0  0  0  0  0  0  0  0  0  0  0
  147.8305  141.3779  152.3415 H   0  0  0  0  0  0  0  0  0  0  0  0
  146.2691  141.5220  153.1174 H   0  0  0  0  0  0  0  0  0  0  0  0
  147.9994  143.0376  154.1515 H   0  0  0  0  0  0  0  0  0  0  0  0
  147.3245  141.9089  155.3066 H   0  0  0  0  0  0  0  0  0  0  0  0
  150.0006  141.6354  153.8597 H   0  0  0  0  0  0  0  0  0  0  0  0
  149.7708  141.9179  155.5713 H   0  0  0  0  0  0  0  0  0  0  0  0
  150.2754  139.5017  155.0667 H   0  0  0  0  0  0  0  0  0  0  0  0
  148.7099  139.6723  155.8359 H   0  0  0  0  0  0  0  0  0  0  0  0
  147.2458  133.3277  151.1888 H   0  0  0  0  0  0  0  0  0  0  0  0
  147.5852  136.9696  152.3500 H   0  0  0  0  0  0  0  0  0  0  0  0
  1  2  1  0  0  0  0
  1 18  1  0  0  0  0
  1 19  1  0  0  0  0
  1 20  1  0  0  0  0
  2 17  2  0  0  0  0
  2  3  1  0  0  0  0
  3  4  2  0  0  0  0
  3 21  1  0  0  0  0
  4  5  1  0  0  0  0
  5  6  1  0  0  0  0
  5 17  1  0  0  0  0
  6  7  1  0  0  0  0
  6 22  1  0  0  0  0
  6 23  1  0  0  0  0
  7  8  1  0  0  0  0
  7  9  1  0  0  0  0
  7 24  1  0  0  0  0
  8 25  1  0  0  0  0
  8 26  1  0  0  0  0
  8 27  1  0  0  0  0
  9 10  1  0  0  0  0
  9 28  1  0  0  0  0
  9 41  1  0  0  0  0
 10 11  1  0  0  0  0
 10 29  1  0  0  0  0
 10 30  1  0  0  0  0
 11 16  1  0  0  0  0
 11 12  1  0  0  0  0
 11 31  1  0  0  0  0
 12 13  1  0  0  0  0
 12 32  1  0  0  0  0
 12 33  1  0  0  0  0
 13 14  1  0  0  0  0
 13 34  1  0  0  0  0
 13 35  1  0  0  0  0
 14 15  1  0  0  0  0
 14 36  1  0  0  0  0
 14 37  1  0  0  0  0
 15 16  1  0  0  0  0
 15 38  1  0  0  0  0
 15 39  1  0  0  0  0
 17 40  1  0  0  0  0
M  CHG  1   9   1
M  END
> <s_m_source_file>
AV-unprocessed.smi

> <i_m_source_file_index>
3161

> <i_lp_mmshare_version>
43012

> <i_f3d_flags>
0

> <s_epik_input>
W0NIM11jMVtjSF1ubihbY0hdMSlbQ0gyXVtDQEhdKFtDSDNdKVtOSF1bQ0gyXVtDQEBIXTJbQ0gyXVtDSDJdW0NIMl1bQ0gyXU8y

> <s_epik_cmdline>
J2VwaWtfcHl0aG9uJywgJy1waCcsICc3LjAnLCAnLXRuJywgJzgnLCAnLW1hJywgJzIwMCcsICctbWV0YWxfYmluZGluZycsICctaW1hZScsICc8aW5maWxlLm1hZT4nLCAnLW9tYWUnLCAnPG91dGZpbGUubWFlPic=

> <r_lp_tautomer_probability>
1

> <r_epik_Ionization_Penalty>
0.00849661

> <r_epik_Ionization_Penalty_Charging>
0.00848754

> <r_epik_Ionization_Penalty_Neutral>
9.06711e-06

> <r_epik_State_Penalty>
0.00639836

> <r_epik_Charging_Adjusted_Penalty>
0.0148859

> <i_epik_Tot_Q>
1

> <i_epik_Tot_abs_Q>
1

> <r_epik_Metal_State_Penalty>
0.00639921

> <b_epik_Metal_Only>
0

> <s_lp_Force_Field>
OPLS_2005

> <r_lp_Energy>
12.4763

> <b_lp_Chiralities_Consistent>
1

> <s_lp_Variant>
AV-unprocessed.smi:3161-2

> <Gold.Version>
5.8.1

> <Gold.Id.Protein>
6NUR|6NUR_protein|mol2

> <Gold.PLP.Fitness>
39.2938

> <Gold.PLP.PLP>
-32.6580

> <Gold.PLP.part.hbond>
-1.0000

> <Gold.PLP.part.metal>
0.0000

> <Gold.PLP.part.buried>
-3.4068

> <Gold.PLP.part.nonpolar>
-29.9328

> <Gold.PLP.part.repulsive>
1.7881

> <Gold.PLP.ligand.clash>
0.0000

> <Gold.PLP.ligand.torsion>
1.0296

> <Gold.PLP.Chemscore.Hbond>
2.0000

> <Gold.PLP.Chemscore.CHOScore>
0.8893

> <Gold.PLP.Chemscore.Metal>
0.0000

> <Gold.Chemscore.Hbonds>
donor molecule, donor type, donor heavy atom, donor atom, acceptor molecule, acceptor atom, score
      L1  H     9    41       P1  7948  2.00
      L1  C     3    21       P1 10186  0.78

> <Gold.PLP.Chemscore.Internal.Correction>
0.0271

> <Gold.Rescore>
     Score         DG    S(hbond)    S(metal)    S(lipo)     H(rot)  DE(clash)    DE(int)     intcor
     14.45     -15.58       0.99        0.00      92.55       1.57       0.10       1.03       ----

> <Gold.Chemscore.Fitness>
14.4515

> <Gold.Chemscore.DG>
-15.5804

> <Gold.Chemscore.ZeroCoef>
-5.4800

> <Gold.Chemscore.Hbond>
0.9863

> <Gold.Chemscore.Metal>
0.0000

> <Gold.Chemscore.Lipo>
92.5546

> <Gold.Chemscore.Internal_Hbond>
0.0000

> <Gold.Chemscore.DEClash>
0.0959

> <Gold.Chemscore.DEInternal>
1.0330

> <Gold.Chemscore.Rot>
1.5714

> <Gold.Chemscore.Internal.Correction>
   9.000000E+99

> <Gold.Chemscore.Hbonds>
donor molecule, donor type, donor heavy atom, donor atom, acceptor molecule, acceptor atom, score
      L1  H     9    41       P1  7948  0.99

> <Gold.Chemscore.Hbond.Weighted>
-3.2944

> <Gold.Chemscore.Metal.Weighted>
-0.0000

> <Gold.Chemscore.Lipo.Weighted>
-10.8289

> <Gold.Chemscore.Internal_Hbond.Weighted>
0.0000

> <Gold.Chemscore.DEClash.Weighted>
0.0959

> <Gold.Chemscore.DEInternal.Weighted>
1.0330

> <Gold.Chemscore.Rot.Weighted>
4.0228

> <Gold.Chemscore.Internal.Correction.Weighted>
   9.000000E+99

> <Gold.Protein.RotatedTorsions>
[ 6907 6896 6895 6894 ] final  -59.06 input  -60.11 | X-H torsion
[ 7974 7965 7964 7962 ] final   22.05 input  175.53 | X-H torsion
[ 8008 7997 7996 7995 ] final  130.28 input   59.86 | X-H torsion
[ 10167 10162 10161 10158 ] final    3.81 input  -65.29 | X-H torsion
[ 10718 10713 10712 10709 ] final -101.62 input   66.30 | X-H torsion
[ 10763 10752 10751 10750 ] final    4.43 input  -60.55 | X-H torsion
[ 11005 11000 10999 10996 ] final -120.23 input  -57.11 | X-H torsion

> <Gold.Protein.ActiveResidues>
 VAL166  LYS551  ARG553  GLY616  TRP617  ASP618  TYR619  PRO620  LYS621  CYS622 
 ASP623  PHE694  ASN695  SER759  ASP760  ASP761  ALA762  ILE779  LEU786  VAL792 
 PHE793  MET794  SER795  GLU796  ALA797  LYS798  CYS799  TRP800  GLU811  SER814 

> <Gold.Protein.RotatedAtoms>
  150.7959  134.7018  159.6553 H   0  0  0  0  0  0  0  0  0  0  0  0  # atno 6907 bound_to 6896
  152.4071  134.6185  160.0054 H   0  0  0  0  0  0  0  0  0  0  0  0  # atno 6908 bound_to 6896
  151.6439  133.3287  159.3172 H   0  0  0  0  0  0  0  0  0  0  0  0  # atno 6909 bound_to 6896
  146.2046  139.7941  142.8736 H   0  0  0  0  0  0  0  0  0  0  0  0  # atno 7974 bound_to 7965
  156.2951  140.2600  156.2736 H   0  0  0  0  0  0  0  0  0  0  0  0  # atno 8008 bound_to 7997
  154.9671  140.0391  157.2236 H   0  0  0  0  0  0  0  0  0  0  0  0  # atno 8009 bound_to 7997
  154.7893  140.2809  155.6008 H   0  0  0  0  0  0  0  0  0  0  0  0  # atno 8010 bound_to 7997
  140.6567  143.7409  150.7666 H   0  0  0  0  0  0  0  0  0  0  0  0  # atno 10167 bound_to 10162
  156.0201  130.5382  150.6989 H   0  0  0  0  0  0  0  0  0  0  0  0  # atno 10718 bound_to 10713
  153.2713  135.6932  153.7477 H   0  0  0  0  0  0  0  0  0  0  0  0  # atno 10763 bound_to 10752
  153.6499  135.3378  155.3098 H   0  0  0  0  0  0  0  0  0  0  0  0  # atno 10764 bound_to 10752
  154.8465  135.4452  154.1737 H   0  0  0  0  0  0  0  0  0  0  0  0  # atno 10765 bound_to 10752
  141.0158  134.0197  157.3351 H   0  0  0  0  0  0  0  0  0  0  0  0  # atno 11005 bound_to 11000
  145.3366  141.0278  143.3416 LP  0  0  0  0  0  0  0  0  0  0  0  0  # atno 17320 bound_to 7965
  144.8761  139.4969  143.6745 LP  0  0  0  0  0  0  0  0  0  0  0  0  # atno 17321 bound_to 7965
  140.1070  143.4734  152.2392 LP  0  0  0  0  0  0  0  0  0  0  0  0  # atno 17342 bound_to 10162
  139.5791  144.7502  151.3686 LP  0  0  0  0  0  0  0  0  0  0  0  0  # atno 17343 bound_to 10162
  157.4654  131.0887  151.0700 LP  0  0  0  0  0  0  0  0  0  0  0  0  # atno 17370 bound_to 10713
  157.1176  130.6048  149.5497 LP  0  0  0  0  0  0  0  0  0  0  0  0  # atno 17371 bound_to 10713
  139.9116  135.0191  156.7716 LP  0  0  0  0  0  0  0  0  0  0  0  0  # atno 17394 bound_to 11000
  140.6656  133.9605  155.7828 LP  0  0  0  0  0  0  0  0  0  0  0  0  # atno 17395 bound_to 11000

$$$$
