AV-unprocessed.smi:581|AV-procd|sdf|2991|dock4
  -GOLD-   2262023493D 1   1.00000     0.00000
 Structure written by MMmdl.
 35 36  0  0  0  0  0  0  0  0  2 V2000
  148.8864  141.4587  154.4311 C   0  0  0  0  0  0  0  0  0  0  0  0
  150.0719  141.1883  155.3407 C   0  0  0  0  0  0  0  0  0  0  0  0
  150.2865  142.1327  156.3526 N   0  0  0  0  0  0  0  0  0  0  0  0
  151.2704  141.9881  157.1837 C   0  0  0  0  0  0  0  0  0  0  0  0
  151.5951  142.8593  158.2266 N   0  0  0  0  0  0  0  0  0  0  0  0
  151.8677  142.3719  159.5813 C   0  0  0  0  0  0  0  0  0  0  0  0
  152.7131  143.3790  160.3788 C   0  0  0  0  0  0  0  0  0  0  0  0
  152.0670  144.6443  160.3910 O   0  0  0  0  0  0  0  0  0  0  0  0
  151.9244  145.1652  159.0768 C   0  0  0  0  0  0  0  0  0  0  0  0
  151.0528  144.2179  158.2353 C   0  0  0  0  0  0  0  0  0  0  0  0
  152.1308  140.8909  157.0683 N   0  0  0  0  0  0  0  0  0  0  0  0
  152.0083  139.9259  156.1302 C   0  0  0  0  0  0  0  0  0  0  0  0
  152.8026  138.9874  156.0968 O   0  0  0  0  0  0  0  0  0  0  0  0
  150.8816  140.1016  155.1993 C   0  0  0  0  0  0  0  0  0  0  0  0
  150.6951  139.0583  154.1005 C   0  0  0  0  0  0  0  0  0  0  0  0
  149.9472  137.8074  154.6078 C   0  0  0  0  0  0  0  0  0  0  0  0
  150.7715  136.9640  155.5898 C   0  0  0  0  0  0  0  0  0  0  0  0
  150.8572  137.3371  156.7813 O   0  0  0  0  0  0  0  0  0  0  0  0
  151.3127  135.9405  155.1185 O   0  5  0  0  0  0  0  0  0  0  0  0
  152.8937  140.8061  157.7235 H   0  0  0  0  0  0  0  0  0  0  0  0
  148.2395  140.5831  154.3701 H   0  0  0  0  0  0  0  0  0  0  0  0
  149.2279  141.7090  153.4265 H   0  0  0  0  0  0  0  0  0  0  0  0
  148.2858  142.2911  154.7996 H   0  0  0  0  0  0  0  0  0  0  0  0
  150.9160  142.2060  160.0880 H   0  0  0  0  0  0  0  0  0  0  0  0
  152.3862  141.4133  159.5711 H   0  0  0  0  0  0  0  0  0  0  0  0
  152.8359  143.0346  161.4056 H   0  0  0  0  0  0  0  0  0  0  0  0
  153.7133  143.4705  159.9523 H   0  0  0  0  0  0  0  0  0  0  0  0
  151.4603  146.1497  159.1341 H   0  0  0  0  0  0  0  0  0  0  0  0
  152.9048  145.3019  158.6175 H   0  0  0  0  0  0  0  0  0  0  0  0
  150.9837  144.6095  157.2194 H   0  0  0  0  0  0  0  0  0  0  0  0
  150.0385  144.1902  158.6352 H   0  0  0  0  0  0  0  0  0  0  0  0
  150.1563  139.4987  153.2615 H   0  0  0  0  0  0  0  0  0  0  0  0
  151.6711  138.7802  153.6988 H   0  0  0  0  0  0  0  0  0  0  0  0
  149.0210  138.1013  155.1026 H   0  0  0  0  0  0  0  0  0  0  0  0
  149.6665  137.1752  153.7647 H   0  0  0  0  0  0  0  0  0  0  0  0
  1  2  1  0  0  0  0
  1 21  1  0  0  0  0
  1 22  1  0  0  0  0
  1 23  1  0  0  0  0
  2 14  2  0  0  0  0
  2  3  1  0  0  0  0
  3  4  2  0  0  0  0
  4  5  1  0  0  0  0
  4 11  1  0  0  0  0
  5 10  1  0  0  0  0
  5  6  1  0  0  0  0
  6  7  1  0  0  0  0
  6 24  1  0  0  0  0
  6 25  1  0  0  0  0
  7  8  1  0  0  0  0
  7 26  1  0  0  0  0
  7 27  1  0  0  0  0
  8  9  1  0  0  0  0
  9 10  1  0  0  0  0
  9 28  1  0  0  0  0
  9 29  1  0  0  0  0
 10 30  1  0  0  0  0
 10 31  1  0  0  0  0
 11 20  1  0  0  0  0
 11 12  1  0  0  0  0
 12 13  2  0  0  0  0
 12 14  1  0  0  0  0
 14 15  1  0  0  0  0
 15 16  1  0  0  0  0
 15 32  1  0  0  0  0
 15 33  1  0  0  0  0
 16 17  1  0  0  0  0
 16 34  1  0  0  0  0
 16 35  1  0  0  0  0
 17 18  2  0  0  0  0
 17 19  1  0  0  0  0
M  CHG  1  19  -1
M  END
> <s_m_source_file>
AV-unprocessed.smi

> <i_m_source_file_index>
581

> <i_lp_mmshare_version>
43012

> <i_f3d_flags>
0

> <s_epik_input>
W0NIMl0xW0NIMl1PW0NIMl1bQ0gyXU4xYyhuYzJbQ0gzXSlbbkhdYyg9TyljMltDSDJdW0NIMl1DKD1PKVtPSF0=

> <s_epik_cmdline>
J2VwaWtfcHl0aG9uJywgJy1waCcsICc3LjAnLCAnLXRuJywgJzgnLCAnLW1hJywgJzIwMCcsICctbWV0YWxfYmluZGluZycsICctaW1hZScsICc8aW5maWxlLm1hZT4nLCAnLW9tYWUnLCAnPG91dGZpbGUubWFlPic=

> <r_lp_tautomer_probability>
0.878553

> <r_epik_Ionization_Penalty>
0.00211884

> <r_epik_Ionization_Penalty_Charging>
0.00208365

> <r_epik_Ionization_Penalty_Neutral>
3.51846e-05

> <r_epik_State_Penalty>
0.0663044

> <r_epik_Charging_Adjusted_Penalty>
0.0683881

> <i_epik_Tot_Q>
-1

> <i_epik_Tot_abs_Q>
1

> <r_epik_Metal_State_Penalty>
0.312881

> <b_epik_Metal_Only>
0

> <s_lp_Force_Field>
OPLS_2005

> <r_lp_Energy>
24.7506

> <b_lp_Chiralities_Consistent>
1

> <s_lp_Variant>
AV-unprocessed.smi:581-1

> <Gold.Version>
5.8.1

> <Gold.Id.Protein>
6NUR|6NUR_protein|mol2

> <Gold.PLP.Fitness>
42.8060

> <Gold.PLP.PLP>
-36.2044

> <Gold.PLP.part.hbond>
-2.0000

> <Gold.PLP.part.metal>
0.0000

> <Gold.PLP.part.buried>
-3.1638

> <Gold.PLP.part.nonpolar>
-32.2861

> <Gold.PLP.part.repulsive>
0.8805

> <Gold.PLP.ligand.clash>
0.0000

> <Gold.PLP.ligand.torsion>
1.0818

> <Gold.PLP.Chemscore.Hbond>
2.8500

> <Gold.PLP.Chemscore.CHOScore>
0.0000

> <Gold.PLP.Chemscore.Metal>
0.0000

> <Gold.Chemscore.Hbonds>
donor molecule, donor type, donor heavy atom, donor atom, acceptor molecule, acceptor atom, score
      P1  H  7997  8008       L1    13  0.70
      P1  H 10752 10764       L1    19  2.00

> <Gold.PLP.Chemscore.Internal.Correction>
0.2152

> <Gold.Rescore>
     Score         DG    S(hbond)    S(metal)    S(lipo)     H(rot)  DE(clash)    DE(int)     intcor
     12.60     -13.94       1.21        0.00      79.02       1.89       0.18       1.16       ----

> <Gold.Chemscore.Fitness>
12.6016

> <Gold.Chemscore.DG>
-13.9448

> <Gold.Chemscore.ZeroCoef>
-5.4800

> <Gold.Chemscore.Hbond>
1.2142

> <Gold.Chemscore.Metal>
0.0000

> <Gold.Chemscore.Lipo>
79.0190

> <Gold.Chemscore.Internal_Hbond>
0.0000

> <Gold.Chemscore.DEClash>
0.1792

> <Gold.Chemscore.DEInternal>
1.1639

> <Gold.Chemscore.Rot>
1.8890

> <Gold.Chemscore.Internal.Correction>
   9.000000E+99

> <Gold.Chemscore.Hbonds>
donor molecule, donor type, donor heavy atom, donor atom, acceptor molecule, acceptor atom, score
      P1  H  7997  8008       L1    13  0.07
      P1  H 10752 10764       L1    19  1.00

> <Gold.Chemscore.Hbond.Weighted>
-4.0553

> <Gold.Chemscore.Metal.Weighted>
-0.0000

> <Gold.Chemscore.Lipo.Weighted>
-9.2452

> <Gold.Chemscore.Internal_Hbond.Weighted>
0.0000

> <Gold.Chemscore.DEClash.Weighted>
0.1792

> <Gold.Chemscore.DEInternal.Weighted>
1.1639

> <Gold.Chemscore.Rot.Weighted>
4.8357

> <Gold.Chemscore.Internal.Correction.Weighted>
   9.000000E+99

> <Gold.Protein.RotatedTorsions>
[ 6907 6896 6895 6894 ] final  -17.24 input  -60.11 | X-H torsion
[ 7974 7965 7964 7962 ] final  110.35 input  175.53 | X-H torsion
[ 8008 7997 7996 7995 ] final  -48.61 input   59.86 | X-H torsion
[ 10167 10162 10161 10158 ] final  -53.30 input  -65.29 | X-H torsion
[ 10718 10713 10712 10709 ] final    3.80 input   66.30 | X-H torsion
[ 10763 10752 10751 10750 ] final  -52.96 input  -60.55 | X-H torsion
[ 11005 11000 10999 10996 ] final  129.09 input  -57.11 | X-H torsion

> <Gold.Protein.ActiveResidues>
 VAL166  LYS551  ARG553  GLY616  TRP617  ASP618  TYR619  PRO620  LYS621  CYS622 
 ASP623  PHE694  ASN695  SER759  ASP760  ASP761  ALA762  ILE779  LEU786  VAL792 
 PHE793  MET794  SER795  GLU796  ALA797  LYS798  CYS799  TRP800  GLU811  SER814 

> <Gold.Protein.RotatedAtoms>
  151.2963  135.0756  159.9222 H   0  0  0  0  0  0  0  0  0  0  0  0  # atno 6907 bound_to 6896
  152.5306  133.9880  159.7848 H   0  0  0  0  0  0  0  0  0  0  0  0  # atno 6908 bound_to 6896
  151.0158  133.5871  159.2707 H   0  0  0  0  0  0  0  0  0  0  0  0  # atno 6909 bound_to 6896
  145.2561  139.2720  143.4042 H   0  0  0  0  0  0  0  0  0  0  0  0  # atno 7974 bound_to 7965
  154.4031  140.1317  156.4367 H   0  0  0  0  0  0  0  0  0  0  0  0  # atno 8008 bound_to 7997
  155.7499  140.3488  155.5125 H   0  0  0  0  0  0  0  0  0  0  0  0  # atno 8009 bound_to 7997
  155.8960  140.1011  157.1375 H   0  0  0  0  0  0  0  0  0  0  0  0  # atno 8010 bound_to 7997
  140.6492  143.2555  151.4772 H   0  0  0  0  0  0  0  0  0  0  0  0  # atno 10167 bound_to 10162
  156.8832  130.5661  149.5652 H   0  0  0  0  0  0  0  0  0  0  0  0  # atno 10718 bound_to 10713
  154.1512  135.6490  153.4964 H   0  0  0  0  0  0  0  0  0  0  0  0  # atno 10763 bound_to 10752
  153.0137  135.5338  154.6806 H   0  0  0  0  0  0  0  0  0  0  0  0  # atno 10764 bound_to 10752
  154.6094  135.2952  155.0420 H   0  0  0  0  0  0  0  0  0  0  0  0  # atno 10765 bound_to 10752
  139.9596  134.9605  156.9097 H   0  0  0  0  0  0  0  0  0  0  0  0  # atno 11005 bound_to 11000
  146.3289  140.2965  142.8618 LP  0  0  0  0  0  0  0  0  0  0  0  0  # atno 17320 bound_to 7965
  144.9460  140.8128  143.5601 LP  0  0  0  0  0  0  0  0  0  0  0  0  # atno 17321 bound_to 7965
  139.5705  144.1939  152.1830 LP  0  0  0  0  0  0  0  0  0  0  0  0  # atno 17342 bound_to 10162
  140.1234  144.5353  150.6848 LP  0  0  0  0  0  0  0  0  0  0  0  0  # atno 17343 bound_to 10162
  156.0667  130.5708  150.9302 LP  0  0  0  0  0  0  0  0  0  0  0  0  # atno 17370 bound_to 10713
  157.6128  131.0935  150.8764 LP  0  0  0  0  0  0  0  0  0  0  0  0  # atno 17371 bound_to 10713
  140.5530  134.0608  155.7375 LP  0  0  0  0  0  0  0  0  0  0  0  0  # atno 17394 bound_to 11000
  141.1272  133.9364  157.2611 LP  0  0  0  0  0  0  0  0  0  0  0  0  # atno 17395 bound_to 11000

$$$$
