AV-unprocessed.smi:2592|AV-procd|sdf|10159|dock8
  -GOLD-   2272014173D 1   1.00000     0.00000
 Structure written by MMmdl.
 43 44  0  0  0  0  0  0  0  0  2 V2000
  152.1804  145.0450  159.6899 C   0  0  0  0  0  0  0  0  0  0  0  0
  151.8472  143.7777  158.9640 C   0  0  0  0  0  0  0  0  0  0  0  0
  150.9289  143.8086  157.9106 N   0  0  0  0  0  0  0  0  0  0  0  0
  150.7370  142.6013  157.3699 C   0  0  0  0  0  0  0  0  0  0  0  0
  149.8560  142.3390  156.2880 N   0  0  0  0  0  0  0  0  0  0  0  0
  149.8631  141.2882  155.4490 C   0  0  0  0  0  0  0  0  0  0  0  0
  150.6579  140.3484  155.4902 O   0  0  0  0  0  0  0  0  0  0  0  0
  148.8796  141.3812  154.5419 N   0  0  0  0  0  0  0  0  0  0  0  0
  148.6263  140.4091  153.4840 C   0  0  0  0  0  0  0  0  0  0  0  0
  147.1482  140.3992  153.0587 C   0  0  0  0  0  0  0  0  0  0  0  0
  146.7884  139.1516  152.2344 C   0  0  0  0  0  0  0  0  0  0  0  0
  145.4623  138.5915  152.5975 N   0  3  0  0  0  0  0  0  0  0  0  0
  145.2285  137.2586  151.9912 C   0  0  0  0  0  0  0  0  0  0  0  0
  143.8278  136.7366  152.3537 C   0  0  0  0  0  0  0  0  0  0  0  0
  143.6857  136.6932  153.7678 O   0  0  0  0  0  0  0  0  0  0  0  0
  143.8165  137.9820  154.3540 C   0  0  0  0  0  0  0  0  0  0  0  0
  145.2181  138.5428  154.0608 C   0  0  0  0  0  0  0  0  0  0  0  0
  151.6851  141.3328  158.1264 S   0  0  0  0  0  0  0  0  0  0  0  0
  152.3567  142.5239  159.2126 C   0  0  0  0  0  0  0  0  0  0  0  0
  153.3516  142.1338  160.2547 C   0  0  0  0  0  0  0  0  0  0  0  0
  153.1811  145.3922  159.4324 H   0  0  0  0  0  0  0  0  0  0  0  0
  152.1477  144.9009  160.7701 H   0  0  0  0  0  0  0  0  0  0  0  0
  151.4809  145.8451  159.4460 H   0  0  0  0  0  0  0  0  0  0  0  0
  149.1407  143.0342  156.1342 H   0  0  0  0  0  0  0  0  0  0  0  0
  148.2727  142.1875  154.5764 H   0  0  0  0  0  0  0  0  0  0  0  0
  149.2575  140.6647  152.6326 H   0  0  0  0  0  0  0  0  0  0  0  0
  148.9364  139.4156  153.8126 H   0  0  0  0  0  0  0  0  0  0  0  0
  146.5219  140.4510  153.9490 H   0  0  0  0  0  0  0  0  0  0  0  0
  146.9329  141.2959  152.4761 H   0  0  0  0  0  0  0  0  0  0  0  0
  146.7764  139.4350  151.1808 H   0  0  0  0  0  0  0  0  0  0  0  0
  147.5567  138.3839  152.3386 H   0  0  0  0  0  0  0  0  0  0  0  0
  145.3240  137.3225  150.9066 H   0  0  0  0  0  0  0  0  0  0  0  0
  145.9897  136.5589  152.3402 H   0  0  0  0  0  0  0  0  0  0  0  0
  143.0506  137.3659  151.9168 H   0  0  0  0  0  0  0  0  0  0  0  0
  143.6864  135.7324  151.9540 H   0  0  0  0  0  0  0  0  0  0  0  0
  143.0417  138.6495  153.9727 H   0  0  0  0  0  0  0  0  0  0  0  0
  143.6629  137.8981  155.4299 H   0  0  0  0  0  0  0  0  0  0  0  0
  145.9748  137.9183  154.5385 H   0  0  0  0  0  0  0  0  0  0  0  0
  145.3023  139.5371  154.4978 H   0  0  0  0  0  0  0  0  0  0  0  0
  152.8834  142.0956  161.2383 H   0  0  0  0  0  0  0  0  0  0  0  0
  154.1715  142.8510  160.2977 H   0  0  0  0  0  0  0  0  0  0  0  0
  153.7781  141.1527  160.0452 H   0  0  0  0  0  0  0  0  0  0  0  0
  144.7681  139.2086  152.2006 H   0  0  0  0  0  0  0  0  0  0  0  0
  1  2  1  0  0  0  0
  1 21  1  0  0  0  0
  1 22  1  0  0  0  0
  1 23  1  0  0  0  0
  2 19  2  0  0  0  0
  2  3  1  0  0  0  0
  3  4  2  0  0  0  0
  4  5  1  0  0  0  0
  4 18  1  0  0  0  0
  5  6  1  0  0  0  0
  5 24  1  0  0  0  0
  6  7  2  0  0  0  0
  6  8  1  0  0  0  0
  8  9  1  0  0  0  0
  8 25  1  0  0  0  0
  9 10  1  0  0  0  0
  9 26  1  0  0  0  0
  9 27  1  0  0  0  0
 10 11  1  0  0  0  0
 10 28  1  0  0  0  0
 10 29  1  0  0  0  0
 11 12  1  0  0  0  0
 11 30  1  0  0  0  0
 11 31  1  0  0  0  0
 12 17  1  0  0  0  0
 12 13  1  0  0  0  0
 12 43  1  0  0  0  0
 13 14  1  0  0  0  0
 13 32  1  0  0  0  0
 13 33  1  0  0  0  0
 14 15  1  0  0  0  0
 14 34  1  0  0  0  0
 14 35  1  0  0  0  0
 15 16  1  0  0  0  0
 16 17  1  0  0  0  0
 16 36  1  0  0  0  0
 16 37  1  0  0  0  0
 17 38  1  0  0  0  0
 17 39  1  0  0  0  0
 18 19  1  0  0  0  0
 19 20  1  0  0  0  0
 20 40  1  0  0  0  0
 20 41  1  0  0  0  0
 20 42  1  0  0  0  0
M  CHG  1  12   1
M  END
> <s_m_source_file>
AV-unprocessed.smi

> <i_m_source_file_index>
2592

> <i_lp_mmshare_version>
43012

> <i_f3d_flags>
0

> <s_epik_input>
W0NIM11jMW5jKHNjMVtDSDNdKVtOSF1DKD1PKVtOSF1bQ0gyXVtDSDJdW0NIMl1OMltDSDJdW0NIMl1PW0NIMl1bQ0gyXTI=

> <s_epik_cmdline>
J2VwaWtfcHl0aG9uJywgJy1waCcsICc3LjAnLCAnLXRuJywgJzgnLCAnLW1hJywgJzIwMCcsICctbWV0YWxfYmluZGluZycsICctaW1hZScsICc8aW5maWxlLm1hZT4nLCAnLW9tYWUnLCAnPG91dGZpbGUubWFlPic=

> <r_lp_tautomer_probability>
0.999

> <r_epik_Ionization_Penalty>
0.281876

> <r_epik_Ionization_Penalty_Charging>
0.281705

> <r_epik_Ionization_Penalty_Neutral>
0.000171168

> <r_epik_State_Penalty>
0.274317

> <r_epik_Charging_Adjusted_Penalty>
0.556022

> <i_epik_Tot_Q>
1

> <i_epik_Tot_abs_Q>
1

> <r_epik_Metal_State_Penalty>
0.293174

> <b_epik_Metal_Only>
0

> <s_lp_Force_Field>
OPLS_2005

> <r_lp_Energy>
13.2764

> <b_lp_Chiralities_Consistent>
1

> <s_lp_Variant>
AV-unprocessed.smi:2592-1

> <Gold.Version>
5.8.1

> <Gold.Id.Protein>
6NUR|6NUR_protein|mol2

> <Gold.PLP.Fitness>
46.5312

> <Gold.PLP.PLP>
-36.9035

> <Gold.PLP.part.hbond>
-3.0000

> <Gold.PLP.part.metal>
0.0000

> <Gold.PLP.part.buried>
0.5910

> <Gold.PLP.part.nonpolar>
-34.3385

> <Gold.PLP.part.repulsive>
0.8553

> <Gold.PLP.ligand.clash>
0.0000

> <Gold.PLP.ligand.torsion>
0.7133

> <Gold.PLP.Chemscore.Hbond>
3.6715

> <Gold.PLP.Chemscore.CHOScore>
0.0000

> <Gold.PLP.Chemscore.Metal>
0.0000

> <Gold.Chemscore.Hbonds>
donor molecule, donor type, donor heavy atom, donor atom, acceptor molecule, acceptor atom, score
      L1  H     5    24       P1  8028  0.86
      L1  H    12    43       P1 10175  1.92
      P1  H  7989  7998       L1     7  0.27

> <Gold.PLP.Chemscore.Internal.Correction>
0.0399

> <Gold.Rescore>
     Score         DG    S(hbond)    S(metal)    S(lipo)     H(rot)  DE(clash)    DE(int)     intcor
     15.50     -18.70       2.00        0.00      94.31       1.76       1.48       1.72       ----

> <Gold.Chemscore.Fitness>
15.5010

> <Gold.Chemscore.DG>
-18.7046

> <Gold.Chemscore.ZeroCoef>
-5.4800

> <Gold.Chemscore.Hbond>
2.0044

> <Gold.Chemscore.Metal>
0.0000

> <Gold.Chemscore.Lipo>
94.3069

> <Gold.Chemscore.Internal_Hbond>
0.0000

> <Gold.Chemscore.DEClash>
1.4824

> <Gold.Chemscore.DEInternal>
1.7212

> <Gold.Chemscore.Rot>
1.7593

> <Gold.Chemscore.Internal.Correction>
   9.000000E+99

> <Gold.Chemscore.Hbonds>
donor molecule, donor type, donor heavy atom, donor atom, acceptor molecule, acceptor atom, score
      L1  H     5    24       P1  8028  0.85
      L1  H    12    43       P1 10175  0.92
      P1  H  7989  7998       L1     7  0.03

> <Gold.Chemscore.Hbond.Weighted>
-6.6946

> <Gold.Chemscore.Metal.Weighted>
-0.0000

> <Gold.Chemscore.Lipo.Weighted>
-11.0339

> <Gold.Chemscore.Internal_Hbond.Weighted>
0.0000

> <Gold.Chemscore.DEClash.Weighted>
1.4824

> <Gold.Chemscore.DEInternal.Weighted>
1.7212

> <Gold.Chemscore.Rot.Weighted>
4.5039

> <Gold.Chemscore.Internal.Correction.Weighted>
   9.000000E+99

> <Gold.Protein.RotatedTorsions>
[ 6907 6896 6895 6894 ] final  -48.90 input  -60.11 | X-H torsion
[ 7974 7965 7964 7962 ] final   22.00 input  175.53 | X-H torsion
[ 8008 7997 7996 7995 ] final -115.75 input   59.86 | X-H torsion
[ 10167 10162 10161 10158 ] final  149.33 input  -65.29 | X-H torsion
[ 10718 10713 10712 10709 ] final -125.87 input   66.30 | X-H torsion
[ 10763 10752 10751 10750 ] final   91.06 input  -60.55 | X-H torsion
[ 11005 11000 10999 10996 ] final  -45.47 input  -57.11 | X-H torsion

> <Gold.Protein.ActiveResidues>
 VAL166  LYS551  ARG553  GLY616  TRP617  ASP618  TYR619  PRO620  LYS621  CYS622 
 ASP623  PHE694  ASN695  SER759  ASP760  ASP761  ALA762  ILE779  LEU786  VAL792 
 PHE793  MET794  SER795  GLU796  ALA797  LYS798  CYS799  TRP800  GLU811  SER814 

> <Gold.Protein.RotatedAtoms>
  150.8859  134.8257  159.7258 H   0  0  0  0  0  0  0  0  0  0  0  0  # atno 6907 bound_to 6896
  152.4807  134.4723  159.9649 H   0  0  0  0  0  0  0  0  0  0  0  0  # atno 6908 bound_to 6896
  151.4792  133.3512  159.2871 H   0  0  0  0  0  0  0  0  0  0  0  0  # atno 6909 bound_to 6896
  146.2047  139.7947  142.8735 H   0  0  0  0  0  0  0  0  0  0  0  0  # atno 7974 bound_to 7965
  155.0569  140.0393  157.2563 H   0  0  0  0  0  0  0  0  0  0  0  0  # atno 8008 bound_to 7997
  154.7091  140.2689  155.6622 H   0  0  0  0  0  0  0  0  0  0  0  0  # atno 8009 bound_to 7997
  156.2784  140.2725  156.1727 H   0  0  0  0  0  0  0  0  0  0  0  0  # atno 8010 bound_to 7997
  139.4863  144.5610  151.7231 H   0  0  0  0  0  0  0  0  0  0  0  0  # atno 10167 bound_to 10162
  156.1714  130.6670  151.0185 H   0  0  0  0  0  0  0  0  0  0  0  0  # atno 10718 bound_to 10713
  153.2042  135.4411  155.0303 H   0  0  0  0  0  0  0  0  0  0  0  0  # atno 10763 bound_to 10752
  154.8164  135.3317  154.7166 H   0  0  0  0  0  0  0  0  0  0  0  0  # atno 10764 bound_to 10752
  153.7609  135.6991  153.4981 H   0  0  0  0  0  0  0  0  0  0  0  0  # atno 10765 bound_to 10752
  141.0517  133.6740  156.3017 H   0  0  0  0  0  0  0  0  0  0  0  0  # atno 11005 bound_to 11000
  145.3360  141.0277  143.3419 LP  0  0  0  0  0  0  0  0  0  0  0  0  # atno 17320 bound_to 7965
  144.8765  139.4964  143.6743 LP  0  0  0  0  0  0  0  0  0  0  0  0  # atno 17321 bound_to 7965
  140.5180  144.0923  150.6014 LP  0  0  0  0  0  0  0  0  0  0  0  0  # atno 17342 bound_to 10162
  140.3871  143.2772  152.0103 LP  0  0  0  0  0  0  0  0  0  0  0  0  # atno 17343 bound_to 10162
  157.6805  131.0839  150.7381 LP  0  0  0  0  0  0  0  0  0  0  0  0  # atno 17370 bound_to 10713
  156.7441  130.4748  149.5471 LP  0  0  0  0  0  0  0  0  0  0  0  0  # atno 17371 bound_to 10713
  140.6042  134.5524  157.5523 LP  0  0  0  0  0  0  0  0  0  0  0  0  # atno 17394 bound_to 11000
  139.9356  134.7881  156.0812 LP  0  0  0  0  0  0  0  0  0  0  0  0  # atno 17395 bound_to 11000

$$$$
