AV-unprocessed.smi:2398|AV-procd|sdf|9497|dock2
  -GOLD-   2272013123D 1   1.00000     0.00000
 Structure written by MMmdl.
 34 35  0  0  0  0  0  0  0  0  1 V2000
  147.2481  132.5662  154.2162 O   0  0  0  0  0  0  0  0  0  0  0  0
  147.6850  133.5250  153.5811 C   0  0  0  0  0  0  0  0  0  0  0  0
  148.8279  134.1840  153.8407 N   0  0  0  0  0  0  0  0  0  0  0  0
  149.7929  133.9638  154.8633 C   0  0  0  0  0  0  0  0  0  0  0  0
  150.2240  132.6895  155.3082 C   0  0  0  0  0  0  0  0  0  0  0  0
  151.1946  132.6225  156.3282 C   0  0  0  0  0  0  0  0  0  0  0  0
  151.7441  133.7110  156.9065 N   0  0  0  0  0  0  0  0  0  0  0  0
  151.3370  134.9234  156.4762 C   0  0  0  0  0  0  0  0  0  0  0  0
  150.3727  135.1018  155.4639 C   0  0  0  0  0  0  0  0  0  0  0  0
  150.0113  136.3498  155.0784 F   0  0  0  0  0  0  0  0  0  0  0  0
  147.0563  134.0534  152.5208 N   0  0  0  0  0  0  0  0  0  0  0  0
  145.7919  133.5783  151.9667 C   0  0  1  0  0  0  0  0  0  0  0  0
  145.3447  134.5092  150.8236 C   0  0  0  0  0  0  0  0  0  0  0  0
  144.0442  134.0128  150.1713 C   0  0  0  0  0  0  0  0  0  0  0  0
  144.1921  132.5647  149.6738 C   0  0  2  0  0  0  0  0  0  0  0  0
  142.9609  132.1189  149.1459 O   0  0  0  0  0  0  0  0  0  0  0  0
  144.6317  131.6293  150.8130 C   0  0  0  0  0  0  0  0  0  0  0  0
  145.9310  132.1252  151.4677 C   0  0  0  0  0  0  0  0  0  0  0  0
  145.0269  133.6113  152.7451 H   0  0  0  0  0  0  0  0  0  0  0  0
  144.9320  132.5316  148.8728 H   0  0  0  0  0  0  0  0  0  0  0  0
  149.0251  134.9696  153.2380 H   0  0  0  0  0  0  0  0  0  0  0  0
  149.8459  131.7681  154.8957 H   0  0  0  0  0  0  0  0  0  0  0  0
  151.5417  131.6650  156.6872 H   0  0  0  0  0  0  0  0  0  0  0  0
  151.7940  135.7783  156.9522 H   0  0  0  0  0  0  0  0  0  0  0  0
  147.4849  134.8425  152.0592 H   0  0  0  0  0  0  0  0  0  0  0  0
  145.2012  135.5225  151.2007 H   0  0  0  0  0  0  0  0  0  0  0  0
  146.1277  134.5692  150.0659 H   0  0  0  0  0  0  0  0  0  0  0  0
  143.2308  134.0757  150.8956 H   0  0  0  0  0  0  0  0  0  0  0  0
  143.7734  134.6688  149.3431 H   0  0  0  0  0  0  0  0  0  0  0  0
  142.3142  132.7949  149.2799 H   0  0  0  0  0  0  0  0  0  0  0  0
  143.8474  131.5707  151.5692 H   0  0  0  0  0  0  0  0  0  0  0  0
  144.7734  130.6166  150.4339 H   0  0  0  0  0  0  0  0  0  0  0  0
  146.7468  132.0588  150.7464 H   0  0  0  0  0  0  0  0  0  0  0  0
  146.1962  131.4659  152.2951 H   0  0  0  0  0  0  0  0  0  0  0  0
  1  2  2  0  0  0  0
  2  3  1  0  0  0  0
  2 11  1  0  0  0  0
  3  4  1  0  0  0  0
  3 21  1  0  0  0  0
  4  9  1  0  0  0  0
  4  5  2  0  0  0  0
  5  6  1  0  0  0  0
  5 22  1  0  0  0  0
  6  7  2  0  0  0  0
  6 23  1  0  0  0  0
  7  8  1  0  0  0  0
  8  9  2  0  0  0  0
  8 24  1  0  0  0  0
  9 10  1  0  0  0  0
 11 12  1  0  0  0  0
 11 25  1  0  0  0  0
 12 19  1  0  0  0  0
 12 18  1  0  0  0  0
 12 13  1  0  0  0  0
 13 14  1  0  0  0  0
 13 26  1  0  0  0  0
 13 27  1  0  0  0  0
 14 15  1  0  0  0  0
 14 28  1  0  0  0  0
 14 29  1  0  0  0  0
 15 20  1  0  0  0  0
 15 16  1  0  0  0  0
 15 17  1  0  0  0  0
 16 30  1  0  0  0  0
 17 18  1  0  0  0  0
 17 31  1  0  0  0  0
 17 32  1  0  0  0  0
 18 33  1  0  0  0  0
 18 34  1  0  0  0  0
M  END
> <s_m_source_file>
AV-unprocessed.smi

> <i_m_source_file_index>
2398

> <i_lp_mmshare_version>
43012

> <i_f3d_flags>
0

> <s_epik_input>
W0NIMl0xW0NIMl1bQ0BASF0oW09IXSlbQ0gyXVtDSDJdW0NAQEhdMVtOSF1DKD1PKVtOSF1jMltjSF1bY0hdbltjSF1jMkY=

> <s_epik_cmdline>
J2VwaWtfcHl0aG9uJywgJy1waCcsICc3LjAnLCAnLXRuJywgJzgnLCAnLW1hJywgJzIwMCcsICctbWV0YWxfYmluZGluZycsICctaW1hZScsICc8aW5maWxlLm1hZT4nLCAnLW9tYWUnLCAnPG91dGZpbGUubWFlPic=

> <r_epik_Ionization_Penalty>
0.00343298

> <r_epik_Ionization_Penalty_Charging>
0

> <r_epik_Ionization_Penalty_Neutral>
0.00343298

> <r_epik_State_Penalty>
0.00240232

> <r_epik_Charging_Adjusted_Penalty>
0.00240232

> <i_epik_Tot_Q>
0

> <i_epik_Tot_abs_Q>
0

> <r_epik_Metal_State_Penalty>
-0

> <b_epik_Metal_Only>
0

> <s_lp_Force_Field>
OPLS_2005

> <r_lp_Energy>
13.0545

> <b_lp_Chiralities_Consistent>
1

> <s_lp_Variant>
AV-unprocessed.smi:2398-1

> <Gold.Version>
5.8.1

> <Gold.Id.Protein>
6NUR|6NUR_protein|mol2

> <Gold.PLP.Fitness>
45.9489

> <Gold.PLP.PLP>
-34.7868

> <Gold.PLP.part.hbond>
-5.9735

> <Gold.PLP.part.metal>
0.0000

> <Gold.PLP.part.buried>
-5.2237

> <Gold.PLP.part.nonpolar>
-24.4642

> <Gold.PLP.part.repulsive>
0.0554

> <Gold.PLP.ligand.clash>
0.0000

> <Gold.PLP.ligand.torsion>
0.3096

> <Gold.PLP.Chemscore.Hbond>
3.9260

> <Gold.PLP.Chemscore.CHOScore>
0.0000

> <Gold.PLP.Chemscore.Metal>
0.0000

> <Gold.Chemscore.Hbonds>
donor molecule, donor type, donor heavy atom, donor atom, acceptor molecule, acceptor atom, score
      L1  H     3    21       P1  7948  0.90
      L1  H    11    25       P1  7948  1.00
      L1  H    16    30       P1 10186  0.84
      P1  H  6896  6907       L1     7  0.09
      P1  H 10785 10796       L1    16  1.00

> <Gold.PLP.Chemscore.Internal.Correction>
0.0033

> <Gold.Rescore>
     Score         DG    S(hbond)    S(metal)    S(lipo)     H(rot)  DE(clash)    DE(int)     intcor
     19.58     -20.11       3.09        0.00      68.84       1.47       0.20       0.32       ----

> <Gold.Chemscore.Fitness>
19.5846

> <Gold.Chemscore.DG>
-20.1121

> <Gold.Chemscore.ZeroCoef>
-5.4800

> <Gold.Chemscore.Hbond>
3.0925

> <Gold.Chemscore.Metal>
0.0000

> <Gold.Chemscore.Lipo>
68.8383

> <Gold.Chemscore.Internal_Hbond>
0.0000

> <Gold.Chemscore.DEClash>
0.2047

> <Gold.Chemscore.DEInternal>
0.3228

> <Gold.Chemscore.Rot>
1.4653

> <Gold.Chemscore.Internal.Correction>
   9.000000E+99

> <Gold.Chemscore.Hbonds>
donor molecule, donor type, donor heavy atom, donor atom, acceptor molecule, acceptor atom, score
      L1  H     3    21       P1  7948  0.18
      L1  H    11    25       P1  7948  0.81
      L1  H    16    30       P1 10186  0.82
      P1  H  6896  6907       L1     7  0.04
      P1  H 10785 10796       L1    16  0.56

> <Gold.Chemscore.Hbond.Weighted>
-10.3291

> <Gold.Chemscore.Metal.Weighted>
-0.0000

> <Gold.Chemscore.Lipo.Weighted>
-8.0541

> <Gold.Chemscore.Internal_Hbond.Weighted>
0.0000

> <Gold.Chemscore.DEClash.Weighted>
0.2047

> <Gold.Chemscore.DEInternal.Weighted>
0.3228

> <Gold.Chemscore.Rot.Weighted>
3.7511

> <Gold.Chemscore.Internal.Correction.Weighted>
   9.000000E+99

> <Gold.Protein.RotatedTorsions>
[ 6907 6896 6895 6894 ] final -169.88 input  -60.11 | X-H torsion
[ 7974 7965 7964 7962 ] final   76.21 input  175.53 | X-H torsion
[ 8008 7997 7996 7995 ] final  143.41 input   59.86 | X-H torsion
[ 10167 10162 10161 10158 ] final  -45.69 input  -65.29 | X-H torsion
[ 10718 10713 10712 10709 ] final  -90.75 input   66.30 | X-H torsion
[ 10763 10752 10751 10750 ] final  104.53 input  -60.55 | X-H torsion
[ 11005 11000 10999 10996 ] final  -24.82 input  -57.11 | X-H torsion

> <Gold.Protein.ActiveResidues>
 VAL166  LYS551  ARG553  GLY616  TRP617  ASP618  TYR619  PRO620  LYS621  CYS622 
 ASP623  PHE694  ASN695  SER759  ASP760  ASP761  ALA762  ILE779  LEU786  VAL792 
 PHE793  MET794  SER795  GLU796  ALA797  LYS798  CYS799  TRP800  GLU811  SER814 

> <Gold.Protein.RotatedAtoms>
  151.4987  133.3509  159.2865 H   0  0  0  0  0  0  0  0  0  0  0  0  # atno 6907 bound_to 6896
  150.8787  134.8177  159.7220 H   0  0  0  0  0  0  0  0  0  0  0  0  # atno 6908 bound_to 6896
  152.4748  134.4881  159.9738 H   0  0  0  0  0  0  0  0  0  0  0  0  # atno 6909 bound_to 6896
  145.7057  139.2598  143.1679 H   0  0  0  0  0  0  0  0  0  0  0  0  # atno 7974 bound_to 7965
  156.2930  140.2263  156.4886 H   0  0  0  0  0  0  0  0  0  0  0  0  # atno 8008 bound_to 7997
  154.7790  140.0461  157.1133 H   0  0  0  0  0  0  0  0  0  0  0  0  # atno 8009 bound_to 7997
  154.9781  140.3075  155.4961 H   0  0  0  0  0  0  0  0  0  0  0  0  # atno 8010 bound_to 7997
  140.6848  143.2867  151.3675 H   0  0  0  0  0  0  0  0  0  0  0  0  # atno 10167 bound_to 10162
  155.9989  130.4922  150.5370 H   0  0  0  0  0  0  0  0  0  0  0  0  # atno 10718 bound_to 10713
  153.3672  135.3940  155.1762 H   0  0  0  0  0  0  0  0  0  0  0  0  # atno 10763 bound_to 10752
  154.8688  135.3694  154.5024 H   0  0  0  0  0  0  0  0  0  0  0  0  # atno 10764 bound_to 10752
  153.5488  135.7083  153.5661 H   0  0  0  0  0  0  0  0  0  0  0  0  # atno 10765 bound_to 10752
  140.8880  133.7608  156.0385 H   0  0  0  0  0  0  0  0  0  0  0  0  # atno 11005 bound_to 11000
  146.0757  140.7819  142.9666 LP  0  0  0  0  0  0  0  0  0  0  0  0  # atno 17320 bound_to 7965
  144.6956  140.3411  143.7199 LP  0  0  0  0  0  0  0  0  0  0  0  0  # atno 17321 bound_to 7965
  139.6198  144.0931  152.2380 LP  0  0  0  0  0  0  0  0  0  0  0  0  # atno 17342 bound_to 10162
  140.0371  144.6036  150.7441 LP  0  0  0  0  0  0  0  0  0  0  0  0  # atno 17343 bound_to 10162
  157.3312  131.0700  151.1859 LP  0  0  0  0  0  0  0  0  0  0  0  0  # atno 17370 bound_to 10713
  157.2740  130.6718  149.6033 LP  0  0  0  0  0  0  0  0  0  0  0  0  # atno 17371 bound_to 10713
  140.8381  134.3099  157.5324 LP  0  0  0  0  0  0  0  0  0  0  0  0  # atno 17394 bound_to 11000
  139.8726  134.9401  156.3759 LP  0  0  0  0  0  0  0  0  0  0  0  0  # atno 17395 bound_to 11000

$$$$
