AV-unprocessed.smi:1047|AV-procd|sdf|4596|dock7
  -GOLD-   22720 3 83D 1   1.00000     0.00000
 Structure written by MMmdl.
 57 59  0  0  0  0  0  0  0  0  3 V2000
  147.9846  132.5328  161.7007 C   0  0  0  0  0  0  0  0  0  0  0  0
  146.6258  133.1564  162.0504 C   0  0  0  0  0  0  0  0  0  0  0  0
  146.5901  134.6212  161.8128 N   0  3  1  0  0  0  0  0  0  0  0  0
  147.2645  135.3809  162.8917 C   0  0  0  0  0  0  0  0  0  0  0  0
  147.1635  136.8921  162.6301 C   0  0  0  0  0  0  0  0  0  0  0  0
  147.7196  137.1887  161.3560 O   0  0  0  0  0  0  0  0  0  0  0  0
  147.0146  136.5490  160.2967 C   0  0  1  0  0  0  0  0  0  0  0  0
  147.6389  137.0021  158.9688 C   0  0  0  0  0  0  0  0  0  0  0  0
  148.9008  136.3135  158.7194 N   0  0  0  0  0  0  0  0  0  0  0  0
  150.0693  137.1809  158.8513 C   0  0  0  0  0  0  0  0  0  0  0  0
  150.1115  138.2703  157.7645 C   0  0  2  0  0  0  0  0  0  0  0  0
  150.0472  137.6668  156.4874 O   0  0  0  0  0  0  0  0  0  0  0  0
  151.3196  139.2245  157.8716 C   0  0  0  0  0  0  0  0  0  0  0  0
  150.9815  140.6074  157.5113 N   0  0  0  0  0  0  0  0  0  0  0  0
  150.3123  141.0919  156.4300 C   0  0  0  0  0  0  0  0  0  0  0  0
  150.2545  142.4466  156.5568 N   0  3  0  0  0  0  0  0  0  0  0  0
  150.8990  142.8326  157.7343 C   0  0  0  0  0  0  0  0  0  0  0  0
  151.1008  144.0890  158.2933 C   0  0  0  0  0  0  0  0  0  0  0  0
  151.8064  144.1447  159.5167 C   0  0  0  0  0  0  0  0  0  0  0  0
  152.0471  145.5028  160.1538 C   0  0  0  0  0  0  0  0  0  0  0  0
  152.2823  142.9619  160.1401 C   0  0  0  0  0  0  0  0  0  0  0  0
  153.0396  143.0338  161.4551 C   0  0  0  0  0  0  0  0  0  0  0  0
  152.0663  141.6932  159.5557 C   0  0  0  0  0  0  0  0  0  0  0  0
  151.3700  141.6570  158.3502 C   0  0  0  0  0  0  0  0  0  0  0  0
  147.1252  135.0232  160.4878 C   0  0  0  0  0  0  0  0  0  0  0  0
  147.9415  131.4475  161.7942 H   0  0  0  0  0  0  0  0  0  0  0  0
  148.7779  132.8808  162.3617 H   0  0  0  0  0  0  0  0  0  0  0  0
  148.2724  132.7640  160.6745 H   0  0  0  0  0  0  0  0  0  0  0  0
  145.8694  132.6781  161.4263 H   0  0  0  0  0  0  0  0  0  0  0  0
  146.3564  132.9372  163.0846 H   0  0  0  0  0  0  0  0  0  0  0  0
  146.8099  135.1451  163.8546 H   0  0  0  0  0  0  0  0  0  0  0  0
  148.3126  135.0819  162.9490 H   0  0  0  0  0  0  0  0  0  0  0  0
  146.1271  137.2304  162.6786 H   0  0  0  0  0  0  0  0  0  0  0  0
  147.7144  137.4432  163.3925 H   0  0  0  0  0  0  0  0  0  0  0  0
  145.9624  136.8407  160.3206 H   0  0  0  0  0  0  0  0  0  0  0  0
  146.9377  136.8251  158.1520 H   0  0  0  0  0  0  0  0  0  0  0  0
  147.8179  138.0775  158.9997 H   0  0  0  0  0  0  0  0  0  0  0  0
  148.8889  135.9087  157.7881 H   0  0  0  0  0  0  0  0  0  0  0  0
  150.0778  137.6521  159.8352 H   0  0  0  0  0  0  0  0  0  0  0  0
  150.9777  136.5803  158.7909 H   0  0  0  0  0  0  0  0  0  0  0  0
  149.1992  138.8590  157.8654 H   0  0  0  0  0  0  0  0  0  0  0  0
  150.0568  138.3489  155.8336 H   0  0  0  0  0  0  0  0  0  0  0  0
  151.7327  139.2203  158.8810 H   0  0  0  0  0  0  0  0  0  0  0  0
  152.1235  138.9063  157.2067 H   0  0  0  0  0  0  0  0  0  0  0  0
  149.8988  140.5076  155.6203 H   0  0  0  0  0  0  0  0  0  0  0  0
  150.7349  144.9851  157.8134 H   0  0  0  0  0  0  0  0  0  0  0  0
  153.1148  145.6830  160.2807 H   0  0  0  0  0  0  0  0  0  0  0  0
  151.5674  145.5577  161.1312 H   0  0  0  0  0  0  0  0  0  0  0  0
  151.6449  146.3089  159.5393 H   0  0  0  0  0  0  0  0  0  0  0  0
  153.3065  142.0406  161.8171 H   0  0  0  0  0  0  0  0  0  0  0  0
  152.4331  143.5153  162.2224 H   0  0  0  0  0  0  0  0  0  0  0  0
  153.9613  143.6030  161.3334 H   0  0  0  0  0  0  0  0  0  0  0  0
  152.4282  140.7923  160.0288 H   0  0  0  0  0  0  0  0  0  0  0  0
  148.1669  134.7086  160.4046 H   0  0  0  0  0  0  0  0  0  0  0  0
  146.5757  134.5215  159.6920 H   0  0  0  0  0  0  0  0  0  0  0  0
  145.6183  134.8962  161.8361 H   0  0  0  0  0  0  0  0  0  0  0  0
  149.8084  143.0599  155.8866 H   0  0  0  0  0  0  0  0  0  0  0  0
  1  2  1  0  0  0  0
  1 26  1  0  0  0  0
  1 27  1  0  0  0  0
  1 28  1  0  0  0  0
  2  3  1  0  0  0  0
  2 29  1  0  0  0  0
  2 30  1  0  0  0  0
  3 25  1  0  0  0  0
  3  4  1  0  0  0  0
  3 56  1  0  0  0  0
  4  5  1  0  0  0  0
  4 31  1  0  0  0  0
  4 32  1  0  0  0  0
  5  6  1  0  0  0  0
  5 33  1  0  0  0  0
  5 34  1  0  0  0  0
  6  7  1  0  0  0  0
  7  8  1  0  0  0  0
  7 25  1  0  0  0  0
  7 35  1  0  0  0  0
  8  9  1  0  0  0  0
  8 36  1  0  0  0  0
  8 37  1  0  0  0  0
  9 10  1  0  0  0  0
  9 38  1  0  0  0  0
 10 11  1  0  0  0  0
 10 39  1  0  0  0  0
 10 40  1  0  0  0  0
 11 12  1  0  0  0  0
 11 13  1  0  0  0  0
 11 41  1  0  0  0  0
 12 42  1  0  0  0  0
 13 14  1  0  0  0  0
 13 43  1  0  0  0  0
 13 44  1  0  0  0  0
 14 24  1  0  0  0  0
 14 15  1  0  0  0  0
 15 16  2  0  0  0  0
 15 45  1  0  0  0  0
 16 17  1  0  0  0  0
 16 57  1  0  0  0  0
 17 24  2  0  0  0  0
 17 18  1  0  0  0  0
 18 19  2  0  0  0  0
 18 46  1  0  0  0  0
 19 20  1  0  0  0  0
 19 21  1  0  0  0  0
 20 47  1  0  0  0  0
 20 48  1  0  0  0  0
 20 49  1  0  0  0  0
 21 22  1  0  0  0  0
 21 23  2  0  0  0  0
 22 50  1  0  0  0  0
 22 51  1  0  0  0  0
 22 52  1  0  0  0  0
 23 24  1  0  0  0  0
 23 53  1  0  0  0  0
 25 54  1  0  0  0  0
 25 55  1  0  0  0  0
M  CHG  1   3   1
M  CHG  1  16   1
M  END
> <s_m_source_file>
AV-unprocessed.smi

> <i_m_source_file_index>
1047

> <i_lp_mmshare_version>
43012

> <i_f3d_flags>
0

> <s_epik_input>
W0NIM11bQ0gyXU4xW0NIMl1bQ0gyXU9bQ0BIXShbQ0gyXTEpW0NIMl1bTkhdW0NIMl1bQ0BIXShbT0hdKVtDSDJdbihbY0hdbjIpYyhjMjMpW2NIXWMoW0NIM10pYyhbY0hdMylbQ0gzXQ==

> <s_epik_cmdline>
J2VwaWtfcHl0aG9uJywgJy1waCcsICc3LjAnLCAnLXRuJywgJzgnLCAnLW1hJywgJzIwMCcsICctbWV0YWxfYmluZGluZycsICctaW1hZScsICc8aW5maWxlLm1hZT4nLCAnLW9tYWUnLCAnPG91dGZpbGUubWFlPic=

> <r_epik_Ionization_Penalty>
2.03028

> <r_epik_Ionization_Penalty_Charging>
1.21256

> <r_epik_Ionization_Penalty_Neutral>
0.817715

> <r_epik_State_Penalty>
2.54959

> <r_epik_Charging_Adjusted_Penalty>
3.76215

> <i_epik_Tot_Q>
2

> <i_epik_Tot_abs_Q>
2

> <r_epik_Metal_State_Penalty>
6.52811

> <b_epik_Metal_Only>
0

> <s_lp_Force_Field>
OPLS_2005

> <r_lp_Energy>
37.5009

> <b_lp_Chiralities_Consistent>
1

> <s_lp_Variant>
AV-unprocessed.smi:1047-37

> <Gold.Version>
5.8.1

> <Gold.Id.Protein>
6NUR|6NUR_protein|mol2

> <Gold.PLP.Fitness>
61.6315

> <Gold.PLP.PLP>
-53.0984

> <Gold.PLP.part.hbond>
-3.0000

> <Gold.PLP.part.metal>
0.0000

> <Gold.PLP.part.buried>
-8.5387

> <Gold.PLP.part.nonpolar>
-42.8748

> <Gold.PLP.part.repulsive>
0.0913

> <Gold.PLP.ligand.clash>
0.0000

> <Gold.PLP.ligand.torsion>
1.1977

> <Gold.PLP.Chemscore.Hbond>
3.6040

> <Gold.PLP.Chemscore.CHOScore>
0.0000

> <Gold.PLP.Chemscore.Metal>
0.0000

> <Gold.Chemscore.Hbonds>
donor molecule, donor type, donor heavy atom, donor atom, acceptor molecule, acceptor atom, score
      L1  H    16    57       P1  8028  1.79
      P1  H  6931  6943       L1     6  0.89
      P1  H  6934  6947       L1     6  0.72

> <Gold.PLP.Chemscore.Internal.Correction>
0.1166

> <Gold.Rescore>
     Score         DG    S(hbond)    S(metal)    S(lipo)     H(rot)  DE(clash)    DE(int)     intcor
     20.07     -21.46       1.86        0.00     142.86       2.71       0.17       1.22       ----

> <Gold.Chemscore.Fitness>
20.0704

> <Gold.Chemscore.DG>
-21.4637

> <Gold.Chemscore.ZeroCoef>
-5.4800

> <Gold.Chemscore.Hbond>
1.8573

> <Gold.Chemscore.Metal>
0.0000

> <Gold.Chemscore.Lipo>
142.8627

> <Gold.Chemscore.Internal_Hbond>
0.0000

> <Gold.Chemscore.DEClash>
0.1727

> <Gold.Chemscore.DEInternal>
1.2207

> <Gold.Chemscore.Rot>
2.7088

> <Gold.Chemscore.Internal.Correction>
   9.000000E+99

> <Gold.Chemscore.Hbonds>
donor molecule, donor type, donor heavy atom, donor atom, acceptor molecule, acceptor atom, score
      L1  H    16    57       P1  8028  0.88
      P1  H  6931  6943       L1     6  0.17
      P1  H  6934  6947       L1     6  0.08

> <Gold.Chemscore.Hbond.Weighted>
-6.2034

> <Gold.Chemscore.Metal.Weighted>
-0.0000

> <Gold.Chemscore.Lipo.Weighted>
-16.7149

> <Gold.Chemscore.Internal_Hbond.Weighted>
0.0000

> <Gold.Chemscore.DEClash.Weighted>
0.1727

> <Gold.Chemscore.DEInternal.Weighted>
1.2207

> <Gold.Chemscore.Rot.Weighted>
6.9346

> <Gold.Chemscore.Internal.Correction.Weighted>
   9.000000E+99

> <Gold.Protein.RotatedTorsions>
[ 6907 6896 6895 6894 ] final  157.10 input  -60.11 | X-H torsion
[ 7974 7965 7964 7962 ] final  -90.78 input  175.53 | X-H torsion
[ 8008 7997 7996 7995 ] final  161.84 input   59.86 | X-H torsion
[ 10167 10162 10161 10158 ] final   80.67 input  -65.29 | X-H torsion
[ 10718 10713 10712 10709 ] final  -61.31 input   66.30 | X-H torsion
[ 10763 10752 10751 10750 ] final -155.36 input  -60.55 | X-H torsion
[ 11005 11000 10999 10996 ] final -105.79 input  -57.11 | X-H torsion

> <Gold.Protein.ActiveResidues>
 VAL166  LYS551  ARG553  GLY616  TRP617  ASP618  TYR619  PRO620  LYS621  CYS622 
 ASP623  PHE694  ASN695  SER759  ASP760  ASP761  ALA762  ILE779  LEU786  VAL792 
 PHE793  MET794  SER795  GLU796  ALA797  LYS798  CYS799  TRP800  GLU811  SER814 

> <Gold.Protein.RotatedAtoms>
  152.0200  133.3895  159.4254 H   0  0  0  0  0  0  0  0  0  0  0  0  # atno 6907 bound_to 6896
  150.6891  134.3636  159.4970 H   0  0  0  0  0  0  0  0  0  0  0  0  # atno 6908 bound_to 6896
  152.1408  134.9063  160.0604 H   0  0  0  0  0  0  0  0  0  0  0  0  # atno 6909 bound_to 6896
  145.4219  140.9551  143.2176 H   0  0  0  0  0  0  0  0  0  0  0  0  # atno 7974 bound_to 7965
  156.2074  140.1766  156.7769 H   0  0  0  0  0  0  0  0  0  0  0  0  # atno 8008 bound_to 7997
  154.5674  140.0688  156.8943 H   0  0  0  0  0  0  0  0  0  0  0  0  # atno 8009 bound_to 7997
  155.2735  140.3344  155.4266 H   0  0  0  0  0  0  0  0  0  0  0  0  # atno 8010 bound_to 7997
  139.9473  144.6050  150.8194 H   0  0  0  0  0  0  0  0  0  0  0  0  # atno 10167 bound_to 10162
  156.0930  130.4197  150.0977 H   0  0  0  0  0  0  0  0  0  0  0  0  # atno 10718 bound_to 10713
  154.7792  135.3169  154.8026 H   0  0  0  0  0  0  0  0  0  0  0  0  # atno 10763 bound_to 10752
  153.8741  135.6841  153.4776 H   0  0  0  0  0  0  0  0  0  0  0  0  # atno 10764 bound_to 10752
  153.1424  135.4733  154.9453 H   0  0  0  0  0  0  0  0  0  0  0  0  # atno 10765 bound_to 10752
  141.1036  133.8838  157.1777 H   0  0  0  0  0  0  0  0  0  0  0  0  # atno 11005 bound_to 11000
  144.8240  139.5743  143.6974 LP  0  0  0  0  0  0  0  0  0  0  0  0  # atno 17320 bound_to 7965
  146.2652  139.6503  142.9334 LP  0  0  0  0  0  0  0  0  0  0  0  0  # atno 17321 bound_to 7965
  140.7593  143.3126  151.2807 LP  0  0  0  0  0  0  0  0  0  0  0  0  # atno 17342 bound_to 10162
  139.6656  144.0110  152.2721 LP  0  0  0  0  0  0  0  0  0  0  0  0  # atno 17343 bound_to 10162
  156.8982  130.9611  151.3580 LP  0  0  0  0  0  0  0  0  0  0  0  0  # atno 17370 bound_to 10713
  157.6084  130.8564  149.8912 LP  0  0  0  0  0  0  0  0  0  0  0  0  # atno 17371 bound_to 10713
  139.9897  135.0069  156.9947 LP  0  0  0  0  0  0  0  0  0  0  0  0  # atno 17394 bound_to 11000
  140.4959  134.1146  155.7241 LP  0  0  0  0  0  0  0  0  0  0  0  0  # atno 17395 bound_to 11000

$$$$
