AV-unprocessed.smi:1157|AV-procd|sdf|4906|dock3
  -GOLD-   22720 3483D 1   1.00000     0.00000
 Structure written by MMmdl.
 54 56  0  0  0  0  0  0  0  0  1 V2000
  145.0638  136.9641  154.0344 C   0  0  0  0  0  0  0  0  0  0  0  0
  144.7643  136.7833  152.5241 C   0  0  0  0  0  0  0  0  0  0  0  0
  143.2930  137.2054  152.2943 C   0  0  0  0  0  0  0  0  0  0  0  0
  145.6610  137.8118  151.7777 C   0  0  0  0  0  0  0  0  0  0  0  0
  147.0171  137.8533  152.3159 N   0  0  0  0  0  0  0  0  0  0  0  0
  147.4583  138.7588  153.1972 C   0  0  0  0  0  0  0  0  0  0  0  0
  146.7524  139.6565  153.6567 O   0  0  0  0  0  0  0  0  0  0  0  0
  148.7566  138.5645  153.4841 N   0  0  0  0  0  0  0  0  0  0  0  0
  149.5835  139.3036  154.3719 C   0  0  0  0  0  0  0  0  0  0  0  0
  150.9030  138.9351  154.7222 C   0  0  0  0  0  0  0  0  0  0  0  0
  151.6310  139.7602  155.6009 C   0  0  0  0  0  0  0  0  0  0  0  0
  151.0256  140.9354  156.1055 C   0  0  0  0  0  0  0  0  0  0  0  0
  151.7212  141.7873  156.9862 N   0  0  0  0  0  0  0  0  0  0  0  0
  151.2997  143.1605  157.2165 C   0  0  0  0  0  0  0  0  0  0  0  0
  152.2188  143.6654  158.3275 C   0  0  0  0  0  0  0  0  0  0  0  0
  152.4805  142.4091  159.1581 C   0  0  0  0  0  0  0  0  0  0  0  0
  152.4547  141.2692  158.1331 C   0  0  0  0  0  0  0  0  0  0  0  0
  149.7692  141.2968  155.7515 N   0  0  0  0  0  0  0  0  0  0  0  0
  149.0761  140.5035  154.9083 C   0  0  0  0  0  0  0  0  0  0  0  0
  145.0470  135.3876  152.0851 N   0  0  0  0  0  0  0  0  0  0  0  0
  146.3484  134.8590  152.5111 C   0  0  0  0  0  0  0  0  0  0  0  0
  146.5226  133.3783  152.1339 C   0  0  0  0  0  0  0  0  0  0  0  0
  146.3555  133.2192  150.7303 O   0  0  0  0  0  0  0  0  0  0  0  0
  145.0817  133.6656  150.2817 C   0  0  0  0  0  0  0  0  0  0  0  0
  144.8930  135.1483  150.6454 C   0  0  0  0  0  0  0  0  0  0  0  0
  145.0236  138.0139  154.3273 H   0  0  0  0  0  0  0  0  0  0  0  0
  146.0547  136.5918  154.2969 H   0  0  0  0  0  0  0  0  0  0  0  0
  144.3395  136.4476  154.6643 H   0  0  0  0  0  0  0  0  0  0  0  0
  143.1221  138.2269  152.6362 H   0  0  0  0  0  0  0  0  0  0  0  0
  142.5922  136.5723  152.8381 H   0  0  0  0  0  0  0  0  0  0  0  0
  143.0162  137.1780  151.2405 H   0  0  0  0  0  0  0  0  0  0  0  0
  145.7091  137.5953  150.7099 H   0  0  0  0  0  0  0  0  0  0  0  0
  145.2237  138.8097  151.8475 H   0  0  0  0  0  0  0  0  0  0  0  0
  147.6608  137.1516  151.9803 H   0  0  0  0  0  0  0  0  0  0  0  0
  149.2239  137.8399  152.9588 H   0  0  0  0  0  0  0  0  0  0  0  0
  151.3756  138.0504  154.3253 H   0  0  0  0  0  0  0  0  0  0  0  0
  152.6414  139.4861  155.8650 H   0  0  0  0  0  0  0  0  0  0  0  0
  151.3873  143.7663  156.3139 H   0  0  0  0  0  0  0  0  0  0  0  0
  150.2587  143.1726  157.5427 H   0  0  0  0  0  0  0  0  0  0  0  0
  153.1551  144.0246  157.8978 H   0  0  0  0  0  0  0  0  0  0  0  0
  151.7784  144.4776  158.9061 H   0  0  0  0  0  0  0  0  0  0  0  0
  153.4160  142.4548  159.7160 H   0  0  0  0  0  0  0  0  0  0  0  0
  151.6698  142.2730  159.8750 H   0  0  0  0  0  0  0  0  0  0  0  0
  151.9869  140.3785  158.5542 H   0  0  0  0  0  0  0  0  0  0  0  0
  153.4655  141.0102  157.8165 H   0  0  0  0  0  0  0  0  0  0  0  0
  148.0794  140.8375  154.6592 H   0  0  0  0  0  0  0  0  0  0  0  0
  147.1556  135.4337  152.0568 H   0  0  0  0  0  0  0  0  0  0  0  0
  146.4690  134.9419  153.5897 H   0  0  0  0  0  0  0  0  0  0  0  0
  147.5164  133.0302  152.4157 H   0  0  0  0  0  0  0  0  0  0  0  0
  145.8020  132.7564  152.6675 H   0  0  0  0  0  0  0  0  0  0  0  0
  145.0169  133.5294  149.2021 H   0  0  0  0  0  0  0  0  0  0  0  0
  144.2957  133.0550  150.7295 H   0  0  0  0  0  0  0  0  0  0  0  0
  143.9034  135.4477  150.3048 H   0  0  0  0  0  0  0  0  0  0  0  0
  145.6151  135.7419  150.0845 H   0  0  0  0  0  0  0  0  0  0  0  0
  1  2  1  0  0  0  0
  1 26  1  0  0  0  0
  1 27  1  0  0  0  0
  1 28  1  0  0  0  0
  2  3  1  0  0  0  0
  2  4  1  0  0  0  0
  2 20  1  0  0  0  0
  3 29  1  0  0  0  0
  3 30  1  0  0  0  0
  3 31  1  0  0  0  0
  4  5  1  0  0  0  0
  4 32  1  0  0  0  0
  4 33  1  0  0  0  0
  5  6  1  0  0  0  0
  5 34  1  0  0  0  0
  6  7  2  0  0  0  0
  6  8  1  0  0  0  0
  8  9  1  0  0  0  0
  8 35  1  0  0  0  0
  9 19  1  0  0  0  0
  9 10  2  0  0  0  0
 10 11  1  0  0  0  0
 10 36  1  0  0  0  0
 11 12  2  0  0  0  0
 11 37  1  0  0  0  0
 12 13  1  0  0  0  0
 12 18  1  0  0  0  0
 13 17  1  0  0  0  0
 13 14  1  0  0  0  0
 14 15  1  0  0  0  0
 14 38  1  0  0  0  0
 14 39  1  0  0  0  0
 15 16  1  0  0  0  0
 15 40  1  0  0  0  0
 15 41  1  0  0  0  0
 16 17  1  0  0  0  0
 16 42  1  0  0  0  0
 16 43  1  0  0  0  0
 17 44  1  0  0  0  0
 17 45  1  0  0  0  0
 18 19  2  0  0  0  0
 19 46  1  0  0  0  0
 20 25  1  0  0  0  0
 20 21  1  0  0  0  0
 21 22  1  0  0  0  0
 21 47  1  0  0  0  0
 21 48  1  0  0  0  0
 22 23  1  0  0  0  0
 22 49  1  0  0  0  0
 22 50  1  0  0  0  0
 23 24  1  0  0  0  0
 24 25  1  0  0  0  0
 24 51  1  0  0  0  0
 24 52  1  0  0  0  0
 25 53  1  0  0  0  0
 25 54  1  0  0  0  0
M  END
> <s_m_source_file>
AV-unprocessed.smi

> <i_m_source_file_index>
1157

> <i_lp_mmshare_version>
43012

> <i_f3d_flags>
0

> <s_epik_input>
W0NIMl0xW0NIMl1PW0NIMl1bQ0gyXU4xQyhbQ0gzXSkoW0NIM10pW0NIMl1bTkhdQyg9TylbTkhdYzJbY0hdW2NIXWMobltjSF0yKU4zW0NIMl1bQ0gyXVtDSDJdW0NIMl0z

> <s_epik_cmdline>
J2VwaWtfcHl0aG9uJywgJy1waCcsICc3LjAnLCAnLXRuJywgJzgnLCAnLW1hJywgJzIwMCcsICctbWV0YWxfYmluZGluZycsICctaW1hZScsICc8aW5maWxlLm1hZT4nLCAnLW9tYWUnLCAnPG91dGZpbGUubWFlPic=

> <r_lp_tautomer_probability>
1

> <r_epik_Ionization_Penalty>
0.366523

> <r_epik_Ionization_Penalty_Charging>
0

> <r_epik_Ionization_Penalty_Neutral>
0.366523

> <r_epik_State_Penalty>
0.351681

> <r_epik_Charging_Adjusted_Penalty>
0.351681

> <i_epik_Tot_Q>
0

> <i_epik_Tot_abs_Q>
0

> <r_epik_Metal_State_Penalty>
0.334658

> <b_epik_Metal_Only>
0

> <s_lp_Force_Field>
OPLS_2005

> <r_lp_Energy>
67.3279

> <b_lp_Chiralities_Consistent>
1

> <s_lp_Variant>
AV-unprocessed.smi:1157-1

> <Gold.Version>
5.8.1

> <Gold.Id.Protein>
6NUR|6NUR_protein|mol2

> <Gold.PLP.Fitness>
44.3682

> <Gold.PLP.PLP>
-40.3706

> <Gold.PLP.part.hbond>
-2.9611

> <Gold.PLP.part.metal>
0.0000

> <Gold.PLP.part.buried>
-2.6621

> <Gold.PLP.part.nonpolar>
-35.9267

> <Gold.PLP.part.repulsive>
0.6347

> <Gold.PLP.ligand.clash>
0.0191

> <Gold.PLP.ligand.torsion>
0.9891

> <Gold.PLP.Chemscore.Hbond>
1.9120

> <Gold.PLP.Chemscore.CHOScore>
0.0000

> <Gold.PLP.Chemscore.Metal>
0.0000

> <Gold.Chemscore.Hbonds>
donor molecule, donor type, donor heavy atom, donor atom, acceptor molecule, acceptor atom, score
      L1  H     5    34       P1  7948  1.00
      L1  H     8    35       P1  7948  0.91

> <Gold.PLP.Chemscore.Internal.Correction>
0.2591

> <Gold.Rescore>
     Score         DG    S(hbond)    S(metal)    S(lipo)     H(rot)  DE(clash)    DE(int)     intcor
     16.57     -20.14       1.72        0.00     106.30       1.38       0.96       2.61       ----

> <Gold.Chemscore.Fitness>
16.5696

> <Gold.Chemscore.DG>
-20.1408

> <Gold.Chemscore.ZeroCoef>
-5.4800

> <Gold.Chemscore.Hbond>
1.7244

> <Gold.Chemscore.Metal>
0.0000

> <Gold.Chemscore.Lipo>
106.3005

> <Gold.Chemscore.Internal_Hbond>
0.0000

> <Gold.Chemscore.DEClash>
0.9600

> <Gold.Chemscore.DEInternal>
2.6112

> <Gold.Chemscore.Rot>
1.3812

> <Gold.Chemscore.Internal.Correction>
   9.000000E+99

> <Gold.Chemscore.Hbonds>
donor molecule, donor type, donor heavy atom, donor atom, acceptor molecule, acceptor atom, score
      L1  H     5    34       P1  7948  0.97
      L1  H     8    35       P1  7948  0.87

> <Gold.Chemscore.Hbond.Weighted>
-5.7595

> <Gold.Chemscore.Metal.Weighted>
-0.0000

> <Gold.Chemscore.Lipo.Weighted>
-12.4372

> <Gold.Chemscore.Internal_Hbond.Weighted>
0.0000

> <Gold.Chemscore.DEClash.Weighted>
0.9600

> <Gold.Chemscore.DEInternal.Weighted>
2.6112

> <Gold.Chemscore.Rot.Weighted>
3.5358

> <Gold.Chemscore.Internal.Correction.Weighted>
   9.000000E+99

> <Gold.Protein.RotatedTorsions>
[ 6907 6896 6895 6894 ] final -101.21 input  -60.11 | X-H torsion
[ 7974 7965 7964 7962 ] final -137.29 input  175.53 | X-H torsion
[ 8008 7997 7996 7995 ] final   17.87 input   59.86 | X-H torsion
[ 10167 10162 10161 10158 ] final   41.27 input  -65.29 | X-H torsion
[ 10718 10713 10712 10709 ] final   27.10 input   66.30 | X-H torsion
[ 10763 10752 10751 10750 ] final   47.88 input  -60.55 | X-H torsion
[ 11005 11000 10999 10996 ] final   56.27 input  -57.11 | X-H torsion

> <Gold.Protein.ActiveResidues>
 VAL166  LYS551  ARG553  GLY616  TRP617  ASP618  TYR619  PRO620  LYS621  CYS622 
 ASP623  PHE694  ASN695  SER759  ASP760  ASP761  ALA762  ILE779  LEU786  VAL792 
 PHE793  MET794  SER795  GLU796  ALA797  LYS798  CYS799  TRP800  GLU811  SER814 

> <Gold.Protein.RotatedAtoms>
  150.7146  134.0769  159.3883 H   0  0  0  0  0  0  0  0  0  0  0  0  # atno 6907 bound_to 6896
  151.8752  135.0472  160.0492 H   0  0  0  0  0  0  0  0  0  0  0  0  # atno 6908 bound_to 6896
  152.2612  133.5263  159.5419 H   0  0  0  0  0  0  0  0  0  0  0  0  # atno 6909 bound_to 6896
  144.8854  140.6568  143.5179 H   0  0  0  0  0  0  0  0  0  0  0  0  # atno 7974 bound_to 7965
  154.8977  140.2996  155.5335 H   0  0  0  0  0  0  0  0  0  0  0  0  # atno 8008 bound_to 7997
  156.3019  140.2412  156.3936 H   0  0  0  0  0  0  0  0  0  0  0  0  # atno 8009 bound_to 7997
  154.8553  140.0407  157.1619 H   0  0  0  0  0  0  0  0  0  0  0  0  # atno 8010 bound_to 7997
  140.3660  144.2167  150.6135 H   0  0  0  0  0  0  0  0  0  0  0  0  # atno 10167 bound_to 10162
  157.2157  130.6955  149.6248 H   0  0  0  0  0  0  0  0  0  0  0  0  # atno 10718 bound_to 10713
  152.9796  135.5962  154.3834 H   0  0  0  0  0  0  0  0  0  0  0  0  # atno 10763 bound_to 10752
  154.3497  135.2767  155.2380 H   0  0  0  0  0  0  0  0  0  0  0  0  # atno 10764 bound_to 10752
  154.4425  135.6009  153.6194 H   0  0  0  0  0  0  0  0  0  0  0  0  # atno 10765 bound_to 10752
  140.0542  134.5694  155.9227 H   0  0  0  0  0  0  0  0  0  0  0  0  # atno 11005 bound_to 11000
  145.3878  139.1623  143.4246 LP  0  0  0  0  0  0  0  0  0  0  0  0  # atno 17320 bound_to 7965
  146.3021  140.3964  142.8700 LP  0  0  0  0  0  0  0  0  0  0  0  0  # atno 17321 bound_to 7965
  140.5080  143.2298  151.8578 LP  0  0  0  0  0  0  0  0  0  0  0  0  # atno 17342 bound_to 10162
  139.4809  144.4982  151.9095 LP  0  0  0  0  0  0  0  0  0  0  0  0  # atno 17343 bound_to 10162
  155.9686  130.4536  150.5819 LP  0  0  0  0  0  0  0  0  0  0  0  0  # atno 17370 bound_to 10713
  157.3627  131.0752  151.1623 LP  0  0  0  0  0  0  0  0  0  0  0  0  # atno 17371 bound_to 10713
  141.1944  133.6583  156.5594 LP  0  0  0  0  0  0  0  0  0  0  0  0  # atno 17394 bound_to 11000
  140.3870  134.7473  157.4697 LP  0  0  0  0  0  0  0  0  0  0  0  0  # atno 17395 bound_to 11000

$$$$
