AV-unprocessed.smi:3031|AV-procd|sdf|11542|dock4
  -GOLD-   2272016493D 1   1.00000     0.00000
 Structure written by MMmdl.
 47 48  0  0  0  0  0  0  0  0  2 V2000
  144.9458  133.9936  150.5932 C   0  0  0  0  0  0  0  0  0  0  0  0
  144.9080  135.1788  151.5141 C   0  0  0  0  0  0  0  0  0  0  0  0
  143.8040  136.0319  151.7994 C   0  0  0  0  0  0  0  0  0  0  0  0
  144.1027  136.9862  152.6662 N   0  0  0  0  0  0  0  0  0  0  0  0
  145.4033  136.7771  152.9625 N   0  0  0  0  0  0  0  0  0  0  0  0
  146.0733  137.6377  153.9207 C   0  0  0  0  0  0  0  0  0  0  0  0
  146.7237  138.8764  153.2655 C   0  0  1  0  0  0  0  0  0  0  0  0
  146.6197  138.7960  151.7366 C   0  0  0  0  0  0  0  0  0  0  0  0
  146.0890  140.1297  153.7347 N   0  3  0  0  0  0  0  0  0  0  0  0
  146.8668  141.3622  153.4820 C   0  0  0  0  0  0  0  0  0  0  0  0
  148.1028  141.4378  154.3941 C   0  0  2  0  0  0  0  0  0  0  0  0
  148.6725  142.7213  154.2277 O   0  0  0  0  0  0  0  0  0  0  0  0
  149.2163  140.4111  154.0883 C   0  0  0  0  0  0  0  0  0  0  0  0
  150.0385  140.0072  155.2335 N   0  0  0  0  0  0  0  0  0  0  0  0
  151.1273  139.1038  154.8569 C   0  0  0  0  0  0  0  0  0  0  0  0
  151.9824  138.6982  156.0697 C   0  0  0  0  0  0  0  0  0  0  0  0
  152.5053  139.8647  156.6946 O   0  0  0  0  0  0  0  0  0  0  0  0
  151.4857  140.7668  157.1101 C   0  0  0  0  0  0  0  0  0  0  0  0
  150.6273  141.1678  155.8976 C   0  0  0  0  0  0  0  0  0  0  0  0
  145.9159  135.6965  152.2772 C   0  0  0  0  0  0  0  0  0  0  0  0
  144.0148  133.8813  150.0373 H   0  0  0  0  0  0  0  0  0  0  0  0
  145.1064  133.0652  151.1411 H   0  0  0  0  0  0  0  0  0  0  0  0
  145.7484  134.0784  149.8608 H   0  0  0  0  0  0  0  0  0  0  0  0
  142.7985  135.9824  151.4078 H   0  0  0  0  0  0  0  0  0  0  0  0
  145.3315  137.9519  154.6561 H   0  0  0  0  0  0  0  0  0  0  0  0
  146.8185  137.0546  154.4648 H   0  0  0  0  0  0  0  0  0  0  0  0
  147.7858  138.8978  153.5156 H   0  0  0  0  0  0  0  0  0  0  0  0
  147.1075  137.8980  151.3565 H   0  0  0  0  0  0  0  0  0  0  0  0
  147.1002  139.6536  151.2644 H   0  0  0  0  0  0  0  0  0  0  0  0
  145.5800  138.7735  151.4082 H   0  0  0  0  0  0  0  0  0  0  0  0
  145.2029  140.2356  153.2615 H   0  0  0  0  0  0  0  0  0  0  0  0
  147.1806  141.3427  152.4443 H   0  0  0  0  0  0  0  0  0  0  0  0
  146.2299  142.2385  153.6098 H   0  0  0  0  0  0  0  0  0  0  0  0
  147.8002  141.3354  155.4373 H   0  0  0  0  0  0  0  0  0  0  0  0
  149.5960  142.6683  154.4236 H   0  0  0  0  0  0  0  0  0  0  0  0
  148.8077  139.5357  153.5810 H   0  0  0  0  0  0  0  0  0  0  0  0
  149.8673  140.8845  153.3510 H   0  0  0  0  0  0  0  0  0  0  0  0
  150.7495  138.2022  154.3846 H   0  0  0  0  0  0  0  0  0  0  0  0
  151.7682  139.5874  154.1176 H   0  0  0  0  0  0  0  0  0  0  0  0
  151.3913  138.1267  156.7867 H   0  0  0  0  0  0  0  0  0  0  0  0
  152.8095  138.0616  155.7553 H   0  0  0  0  0  0  0  0  0  0  0  0
  150.8708  140.3014  157.8821 H   0  0  0  0  0  0  0  0  0  0  0  0
  151.9486  141.6475  157.5558 H   0  0  0  0  0  0  0  0  0  0  0  0
  151.2402  141.7294  155.1904 H   0  0  0  0  0  0  0  0  0  0  0  0
  149.8390  141.8434  156.2316 H   0  0  0  0  0  0  0  0  0  0  0  0
  146.9428  135.3827  152.3948 H   0  0  0  0  0  0  0  0  0  0  0  0
  145.9132  140.0476  154.7259 H   0  0  0  0  0  0  0  0  0  0  0  0
  1  2  1  0  0  0  0
  1 21  1  0  0  0  0
  1 22  1  0  0  0  0
  1 23  1  0  0  0  0
  2 20  2  0  0  0  0
  2  3  1  0  0  0  0
  3  4  2  0  0  0  0
  3 24  1  0  0  0  0
  4  5  1  0  0  0  0
  5  6  1  0  0  0  0
  5 20  1  0  0  0  0
  6  7  1  0  0  0  0
  6 25  1  0  0  0  0
  6 26  1  0  0  0  0
  7  8  1  0  0  0  0
  7  9  1  0  0  0  0
  7 27  1  0  0  0  0
  8 28  1  0  0  0  0
  8 29  1  0  0  0  0
  8 30  1  0  0  0  0
  9 10  1  0  0  0  0
  9 31  1  0  0  0  0
  9 47  1  0  0  0  0
 10 11  1  0  0  0  0
 10 32  1  0  0  0  0
 10 33  1  0  0  0  0
 11 12  1  0  0  0  0
 11 13  1  0  0  0  0
 11 34  1  0  0  0  0
 12 35  1  0  0  0  0
 13 14  1  0  0  0  0
 13 36  1  0  0  0  0
 13 37  1  0  0  0  0
 14 19  1  0  0  0  0
 14 15  1  0  0  0  0
 15 16  1  0  0  0  0
 15 38  1  0  0  0  0
 15 39  1  0  0  0  0
 16 17  1  0  0  0  0
 16 40  1  0  0  0  0
 16 41  1  0  0  0  0
 17 18  1  0  0  0  0
 18 19  1  0  0  0  0
 18 42  1  0  0  0  0
 18 43  1  0  0  0  0
 19 44  1  0  0  0  0
 19 45  1  0  0  0  0
 20 46  1  0  0  0  0
M  CHG  1   9   1
M  END
> <s_m_source_file>
AV-unprocessed.smi

> <i_m_source_file_index>
3031

> <i_lp_mmshare_version>
43012

> <i_f3d_flags>
0

> <s_epik_input>
W0NIM11jMVtjSF1ubihbY0hdMSlbQ0gyXVtDQEhdKFtDSDNdKVtOSF1bQ0gyXVtDQEhdKFtPSF0pW0NIMl1OMltDSDJdW0NIMl1PW0NIMl1bQ0gyXTI=

> <s_epik_cmdline>
J2VwaWtfcHl0aG9uJywgJy1waCcsICc3LjAnLCAnLXRuJywgJzgnLCAnLW1hJywgJzIwMCcsICctbWV0YWxfYmluZGluZycsICctaW1hZScsICc8aW5maWxlLm1hZT4nLCAnLW9tYWUnLCAnPG91dGZpbGUubWFlPic=

> <r_lp_tautomer_probability>
1

> <r_epik_Ionization_Penalty>
0.108564

> <r_epik_Ionization_Penalty_Charging>
0.01811

> <r_epik_Ionization_Penalty_Neutral>
0.0904541

> <r_epik_State_Penalty>
0.141043

> <r_epik_Charging_Adjusted_Penalty>
0.159153

> <i_epik_Tot_Q>
1

> <i_epik_Tot_abs_Q>
1

> <r_epik_Metal_State_Penalty>
0.141052

> <b_epik_Metal_Only>
0

> <s_lp_Force_Field>
OPLS_2005

> <r_lp_Energy>
29.6303

> <b_lp_Chiralities_Consistent>
1

> <s_lp_Variant>
AV-unprocessed.smi:3031-2

> <Gold.Version>
5.8.1

> <Gold.Id.Protein>
6NUR|6NUR_protein|mol2

> <Gold.PLP.Fitness>
47.6246

> <Gold.PLP.PLP>
-36.5096

> <Gold.PLP.part.hbond>
-4.4396

> <Gold.PLP.part.metal>
0.0000

> <Gold.PLP.part.buried>
-0.6911

> <Gold.PLP.part.nonpolar>
-31.5649

> <Gold.PLP.part.repulsive>
0.2260

> <Gold.PLP.ligand.clash>
0.0000

> <Gold.PLP.ligand.torsion>
1.6624

> <Gold.PLP.Chemscore.Hbond>
3.7256

> <Gold.PLP.Chemscore.CHOScore>
1.0000

> <Gold.PLP.Chemscore.Metal>
0.0000

> <Gold.Chemscore.Hbonds>
donor molecule, donor type, donor heavy atom, donor atom, acceptor molecule, acceptor atom, score
      L1  H     9    31       P1 10175  2.00
      P1  H  7997  8009       L1    17  1.00
      P1  H  8022  8030       L1    12  0.73
      L1  C    20    46       P1  7948  1.00

> <Gold.PLP.Chemscore.Internal.Correction>
0.2631

> <Gold.Rescore>
     Score         DG    S(hbond)    S(metal)    S(lipo)     H(rot)  DE(clash)    DE(int)     intcor
     13.80     -16.84       2.28        0.00      89.48       2.63       0.37       2.68       ----

> <Gold.Chemscore.Fitness>
13.7974

> <Gold.Chemscore.DG>
-16.8437

> <Gold.Chemscore.ZeroCoef>
-5.4800

> <Gold.Chemscore.Hbond>
2.2814

> <Gold.Chemscore.Metal>
0.0000

> <Gold.Chemscore.Lipo>
89.4776

> <Gold.Chemscore.Internal_Hbond>
0.0000

> <Gold.Chemscore.DEClash>
0.3705

> <Gold.Chemscore.DEInternal>
2.6758

> <Gold.Chemscore.Rot>
2.6270

> <Gold.Chemscore.Internal.Correction>
   9.000000E+99

> <Gold.Chemscore.Hbonds>
donor molecule, donor type, donor heavy atom, donor atom, acceptor molecule, acceptor atom, score
      L1  H     9    31       P1 10175  1.00
      P1  H  7997  8009       L1    17  0.94
      P1  H  8022  8030       L1    12  0.16

> <Gold.Chemscore.Hbond.Weighted>
-7.6199

> <Gold.Chemscore.Metal.Weighted>
-0.0000

> <Gold.Chemscore.Lipo.Weighted>
-10.4689

> <Gold.Chemscore.Internal_Hbond.Weighted>
0.0000

> <Gold.Chemscore.DEClash.Weighted>
0.3705

> <Gold.Chemscore.DEInternal.Weighted>
2.6758

> <Gold.Chemscore.Rot.Weighted>
6.7251

> <Gold.Chemscore.Internal.Correction.Weighted>
   9.000000E+99

> <Gold.Protein.RotatedTorsions>
[ 6907 6896 6895 6894 ] final -121.23 input  -60.11 | X-H torsion
[ 7974 7965 7964 7962 ] final  141.46 input  175.53 | X-H torsion
[ 8008 7997 7996 7995 ] final  179.27 input   59.86 | X-H torsion
[ 10167 10162 10161 10158 ] final   -2.73 input  -65.29 | X-H torsion
[ 10718 10713 10712 10709 ] final -158.72 input   66.30 | X-H torsion
[ 10763 10752 10751 10750 ] final  -91.89 input  -60.55 | X-H torsion
[ 11005 11000 10999 10996 ] final -108.79 input  -57.11 | X-H torsion

> <Gold.Protein.ActiveResidues>
 VAL166  LYS551  ARG553  GLY616  TRP617  ASP618  TYR619  PRO620  LYS621  CYS622 
 ASP623  PHE694  ASN695  SER759  ASP760  ASP761  ALA762  ILE779  LEU786  VAL792 
 PHE793  MET794  SER795  GLU796  ALA797  LYS798  CYS799  TRP800  GLU811  SER814 

> <Gold.Protein.RotatedAtoms>
  150.8464  133.7854  159.3041 H   0  0  0  0  0  0  0  0  0  0  0  0  # atno 6907 bound_to 6896
  151.5540  135.1065  159.9966 H   0  0  0  0  0  0  0  0  0  0  0  0  # atno 6908 bound_to 6896
  152.4517  133.7600  159.6797 H   0  0  0  0  0  0  0  0  0  0  0  0  # atno 6909 bound_to 6896
  144.9094  139.5313  143.5716 H   0  0  0  0  0  0  0  0  0  0  0  0  # atno 7974 bound_to 7965
  156.0453  140.1313  157.0111 H   0  0  0  0  0  0  0  0  0  0  0  0  # atno 8008 bound_to 7997
  154.4409  140.1022  156.6367 H   0  0  0  0  0  0  0  0  0  0  0  0  # atno 8009 bound_to 7997
  155.5606  140.3464  155.4492 H   0  0  0  0  0  0  0  0  0  0  0  0  # atno 8010 bound_to 7997
  140.6862  143.6623  150.8256 H   0  0  0  0  0  0  0  0  0  0  0  0  # atno 10167 bound_to 10162
  156.5581  130.8635  151.2801 H   0  0  0  0  0  0  0  0  0  0  0  0  # atno 10718 bound_to 10713
  154.6806  135.5251  153.8258 H   0  0  0  0  0  0  0  0  0  0  0  0  # atno 10763 bound_to 10752
  153.0562  135.6551  154.0581 H   0  0  0  0  0  0  0  0  0  0  0  0  # atno 10764 bound_to 10752
  154.0469  135.2972  155.3326 H   0  0  0  0  0  0  0  0  0  0  0  0  # atno 10765 bound_to 10752
  141.0883  133.9100  157.2135 H   0  0  0  0  0  0  0  0  0  0  0  0  # atno 11005 bound_to 11000
  146.3151  139.7888  142.8990 LP  0  0  0  0  0  0  0  0  0  0  0  0  # atno 17320 bound_to 7965
  145.3480  141.0301  143.3355 LP  0  0  0  0  0  0  0  0  0  0  0  0  # atno 17321 bound_to 7965
  140.0330  143.5424  152.2751 LP  0  0  0  0  0  0  0  0  0  0  0  0  # atno 17342 bound_to 10162
  139.6223  144.7631  151.2713 LP  0  0  0  0  0  0  0  0  0  0  0  0  # atno 17343 bound_to 10162
  157.7374  130.9795  150.2191 LP  0  0  0  0  0  0  0  0  0  0  0  0  # atno 17370 bound_to 10713
  156.2824  130.3735  149.7922 LP  0  0  0  0  0  0  0  0  0  0  0  0  # atno 17371 bound_to 10713
  139.9704  135.0130  156.9498 LP  0  0  0  0  0  0  0  0  0  0  0  0  # atno 17394 bound_to 11000
  140.5312  134.0811  155.7316 LP  0  0  0  0  0  0  0  0  0  0  0  0  # atno 17395 bound_to 11000

$$$$
