AV-unprocessed.smi:157|AV-procd|sdf|1315|dock9
  -GOLD-   2262019 03D 1   1.00000     0.00000
 Structure written by MMmdl.
 36 38  0  0  0  0  0  0  0  0  2 V2000
  148.9235  140.0068  153.4319 O   0  0  0  0  0  0  0  0  0  0  0  0
  149.0383  138.7517  154.0688 C   0  0  0  0  0  0  0  0  0  0  0  0
  150.5133  138.4286  154.3818 C   0  0  1  0  0  0  0  0  0  0  0  0
  151.1511  139.6691  154.6975 O   0  0  0  0  0  0  0  0  0  0  0  0
  151.6702  139.6322  155.9910 C   0  0  1  0  0  0  0  0  0  0  0  0
  151.4277  140.9558  156.6382 N   0  0  0  0  0  0  0  0  0  0  0  0
  150.6971  141.9686  156.1267 C   0  0  0  0  0  0  0  0  0  0  0  0
  150.6314  143.0385  156.9008 N   0  3  0  0  0  0  0  0  0  0  0  0
  151.3653  142.7481  158.0314 C   0  0  0  0  0  0  0  0  0  0  0  0
  151.8593  141.4540  157.8460 C   0  0  0  0  0  0  0  0  0  0  0  0
  152.6655  140.6713  158.6869 N   0  0  0  0  0  0  0  0  0  0  0  0
  153.3361  141.1643  159.6771 C   0  0  0  0  0  0  0  0  0  0  0  0
  153.3432  142.4593  160.1685 N   0  0  0  0  0  0  0  0  0  0  0  0
  152.1303  143.2198  160.4117 C   0  0  0  0  0  0  0  0  0  0  0  0
  151.4721  143.7557  159.1332 C   0  0  1  0  0  0  0  0  0  0  0  0
  152.1524  144.9271  158.7323 O   0  0  0  0  0  0  0  0  0  0  0  0
  150.9239  138.5291  156.7275 C   0  0  0  0  0  0  0  0  0  0  0  0
  150.7627  137.5259  155.6077 C   0  0  1  0  0  0  0  0  0  0  0  0
  149.7315  136.6023  155.8917 O   0  0  0  0  0  0  0  0  0  0  0  0
  150.9922  138.0088  153.4961 H   0  0  0  0  0  0  0  0  0  0  0  0
  152.7512  139.4910  155.9643 H   0  0  0  0  0  0  0  0  0  0  0  0
  150.4603  144.0703  159.3913 H   0  0  0  0  0  0  0  0  0  0  0  0
  151.6989  136.9819  155.4730 H   0  0  0  0  0  0  0  0  0  0  0  0
  149.4845  140.0113  152.6712 H   0  0  0  0  0  0  0  0  0  0  0  0
  148.4669  138.8054  154.9960 H   0  0  0  0  0  0  0  0  0  0  0  0
  148.5797  137.9747  153.4566 H   0  0  0  0  0  0  0  0  0  0  0  0
  150.2094  141.9033  155.1705 H   0  0  0  0  0  0  0  0  0  0  0  0
  153.9996  140.5089  160.2433 H   0  0  0  0  0  0  0  0  0  0  0  0
  154.0834  142.7332  160.7991 H   0  0  0  0  0  0  0  0  0  0  0  0
  151.4275  142.5581  160.9203 H   0  0  0  0  0  0  0  0  0  0  0  0
  152.3395  144.0316  161.1092 H   0  0  0  0  0  0  0  0  0  0  0  0
  151.7830  145.2307  157.9175 H   0  0  0  0  0  0  0  0  0  0  0  0
  151.4953  138.1603  157.5797 H   0  0  0  0  0  0  0  0  0  0  0  0
  149.9551  138.8979  157.0695 H   0  0  0  0  0  0  0  0  0  0  0  0
  150.0451  135.9932  156.5433 H   0  0  0  0  0  0  0  0  0  0  0  0
  150.1321  143.8957  156.7007 H   0  0  0  0  0  0  0  0  0  0  0  0
  1  2  1  0  0  0  0
  1 24  1  0  0  0  0
  2  3  1  0  0  0  0
  2 25  1  0  0  0  0
  2 26  1  0  0  0  0
  3 20  1  0  0  0  0
  3 18  1  0  0  0  0
  3  4  1  0  0  0  0
  4  5  1  0  0  0  0
  5 21  1  0  0  0  0
  5  6  1  0  0  0  0
  5 17  1  0  0  0  0
  6 10  1  0  0  0  0
  6  7  1  0  0  0  0
  7  8  2  0  0  0  0
  7 27  1  0  0  0  0
  8  9  1  0  0  0  0
  8 36  1  0  0  0  0
  9 15  1  0  0  0  0
  9 10  2  0  0  0  0
 10 11  1  0  0  0  0
 11 12  2  0  0  0  0
 12 13  1  0  0  0  0
 12 28  1  0  0  0  0
 13 14  1  0  0  0  0
 13 29  1  0  0  0  0
 14 15  1  0  0  0  0
 14 30  1  0  0  0  0
 14 31  1  0  0  0  0
 15 22  1  0  0  0  0
 15 16  1  0  0  0  0
 16 32  1  0  0  0  0
 17 18  1  0  0  0  0
 17 33  1  0  0  0  0
 17 34  1  0  0  0  0
 18 23  1  0  0  0  0
 18 19  1  0  0  0  0
 19 35  1  0  0  0  0
M  CHG  1   8   1
M  END
> <s_m_source_file>
AV-unprocessed.smi

> <i_m_source_file_index>
157

> <i_lp_mmshare_version>
43012

> <i_f3d_flags>
0

> <s_epik_input>
W09IXVtDSDJdW0NASF0xT1tDQEhdKFtDSDJdW0NAQEhdMVtPSF0pbihbY0hdbjIpYyhjMjMpTj1bQ0hdW05IXVtDSDJdW0NASF0zW09IXQ==

> <s_epik_cmdline>
J2VwaWtfcHl0aG9uJywgJy1waCcsICc3LjAnLCAnLXRuJywgJzgnLCAnLW1hJywgJzIwMCcsICctbWV0YWxfYmluZGluZycsICctaW1hZScsICc8aW5maWxlLm1hZT4nLCAnLW9tYWUnLCAnPG91dGZpbGUubWFlPic=

> <r_epik_Ionization_Penalty>
1.68594

> <r_epik_Ionization_Penalty_Charging>
0

> <r_epik_Ionization_Penalty_Neutral>
1.68594

> <r_epik_State_Penalty>
1.79006

> <r_epik_Charging_Adjusted_Penalty>
1.79006

> <i_epik_Tot_Q>
1

> <i_epik_Tot_abs_Q>
1

> <r_epik_Metal_State_Penalty>
5.85324

> <b_epik_Metal_Only>
0

> <s_epik_Chemistry_Notes>
This compound has an imine and may undergo hydrolysis. This compound contains an acetal/aminal-like group ( X-CH(R)-Y where X, Y are N, S, or O) that may be acid/base labile, releasing an aldehyde.

> <s_lp_Force_Field>
OPLS_2005

> <r_lp_Energy>
55.0394

> <b_lp_Chiralities_Consistent>
1

> <s_lp_Variant>
AV-unprocessed.smi:157-25

> <Gold.Version>
5.8.1

> <Gold.Id.Protein>
6NUR|6NUR_protein|mol2

> <Gold.PLP.Fitness>
45.6406

> <Gold.PLP.PLP>
-34.7036

> <Gold.PLP.part.hbond>
-2.7212

> <Gold.PLP.part.metal>
0.0000

> <Gold.PLP.part.buried>
-8.7926

> <Gold.PLP.part.nonpolar>
-23.5055

> <Gold.PLP.part.repulsive>
0.1356

> <Gold.PLP.ligand.clash>
0.0000

> <Gold.PLP.ligand.torsion>
0.4666

> <Gold.PLP.Chemscore.Hbond>
3.9520

> <Gold.PLP.Chemscore.CHOScore>
0.0000

> <Gold.PLP.Chemscore.Metal>
0.0000

> <Gold.Chemscore.Hbonds>
donor molecule, donor type, donor heavy atom, donor atom, acceptor molecule, acceptor atom, score
      L1  H     1    24       P1  7957  0.94
      L1  H     8    36       P1  8028  1.92
      P1  H  7989  7998       L1     4  1.00

> <Gold.PLP.Chemscore.Internal.Correction>
0.0142

> <Gold.Rescore>
     Score         DG    S(hbond)    S(metal)    S(lipo)     H(rot)  DE(clash)    DE(int)     intcor
     11.60     -12.09       2.91        0.00      53.58       3.67       0.03       0.46       ----

> <Gold.Chemscore.Fitness>
11.6028

> <Gold.Chemscore.DG>
-12.0926

> <Gold.Chemscore.ZeroCoef>
-5.4800

> <Gold.Chemscore.Hbond>
2.9128

> <Gold.Chemscore.Metal>
0.0000

> <Gold.Chemscore.Lipo>
53.5784

> <Gold.Chemscore.Internal_Hbond>
0.0000

> <Gold.Chemscore.DEClash>
0.0251

> <Gold.Chemscore.DEInternal>
0.4648

> <Gold.Chemscore.Rot>
3.6659

> <Gold.Chemscore.Internal.Correction>
   9.000000E+99

> <Gold.Chemscore.Hbonds>
donor molecule, donor type, donor heavy atom, donor atom, acceptor molecule, acceptor atom, score
      L1  H     1    24       P1  7957  0.85
      L1  H     8    36       P1  8028  0.92
      P1  H  7989  7998       L1     4  0.99

> <Gold.Chemscore.Hbond.Weighted>
-9.7287

> <Gold.Chemscore.Metal.Weighted>
-0.0000

> <Gold.Chemscore.Lipo.Weighted>
-6.2687

> <Gold.Chemscore.Internal_Hbond.Weighted>
0.0000

> <Gold.Chemscore.DEClash.Weighted>
0.0251

> <Gold.Chemscore.DEInternal.Weighted>
0.4648

> <Gold.Chemscore.Rot.Weighted>
9.3848

> <Gold.Chemscore.Internal.Correction.Weighted>
   9.000000E+99

> <Gold.Protein.RotatedTorsions>
[ 6907 6896 6895 6894 ] final  123.82 input  -60.11 | X-H torsion
[ 7974 7965 7964 7962 ] final -117.19 input  175.53 | X-H torsion
[ 8008 7997 7996 7995 ] final -127.26 input   59.86 | X-H torsion
[ 10167 10162 10161 10158 ] final  165.09 input  -65.29 | X-H torsion
[ 10718 10713 10712 10709 ] final -144.35 input   66.30 | X-H torsion
[ 10763 10752 10751 10750 ] final  -20.22 input  -60.55 | X-H torsion
[ 11005 11000 10999 10996 ] final -169.65 input  -57.11 | X-H torsion

> <Gold.Protein.ActiveResidues>
 VAL166  LYS551  ARG553  GLY616  TRP617  ASP618  TYR619  PRO620  LYS621  CYS622 
 ASP623  PHE694  ASN695  SER759  ASP760  ASP761  ALA762  ILE779  LEU786  VAL792 
 PHE793  MET794  SER795  GLU796  ALA797  LYS798  CYS799  TRP800  GLU811  SER814 

> <Gold.Protein.RotatedAtoms>
  152.4130  133.6993  159.6413 H   0  0  0  0  0  0  0  0  0  0  0  0  # atno 6907 bound_to 6896
  150.8009  133.8591  159.3235 H   0  0  0  0  0  0  0  0  0  0  0  0  # atno 6908 bound_to 6896
  151.6328  135.1023  160.0177 H   0  0  0  0  0  0  0  0  0  0  0  0  # atno 6909 bound_to 6896
  145.0880  140.8471  143.3999 H   0  0  0  0  0  0  0  0  0  0  0  0  # atno 7974 bound_to 7965
  155.2433  140.0429  157.2977 H   0  0  0  0  0  0  0  0  0  0  0  0  # atno 8008 bound_to 7997
  154.5814  140.2402  155.8018 H   0  0  0  0  0  0  0  0  0  0  0  0  # atno 8009 bound_to 7997
  156.2196  140.2974  155.9928 H   0  0  0  0  0  0  0  0  0  0  0  0  # atno 8010 bound_to 7997
  139.4900  144.4168  151.9234 H   0  0  0  0  0  0  0  0  0  0  0  0  # atno 10167 bound_to 10162
  156.3691  130.7778  151.1957 H   0  0  0  0  0  0  0  0  0  0  0  0  # atno 10718 bound_to 10713
  153.6171  135.6994  153.5325 H   0  0  0  0  0  0  0  0  0  0  0  0  # atno 10763 bound_to 10752
  153.2968  135.4140  155.1217 H   0  0  0  0  0  0  0  0  0  0  0  0  # atno 10764 bound_to 10752
  154.8551  135.3639  154.5711 H   0  0  0  0  0  0  0  0  0  0  0  0  # atno 10765 bound_to 10752
  140.5283  134.5641  157.5067 H   0  0  0  0  0  0  0  0  0  0  0  0  # atno 11005 bound_to 11000
  145.1099  139.2764  143.5643 LP  0  0  0  0  0  0  0  0  0  0  0  0  # atno 17320 bound_to 7965
  146.3531  140.0692  142.8624 LP  0  0  0  0  0  0  0  0  0  0  0  0  # atno 17321 bound_to 7965
  140.3611  144.2972  150.5933 LP  0  0  0  0  0  0  0  0  0  0  0  0  # atno 17342 bound_to 10162
  140.5402  143.2225  151.8097 LP  0  0  0  0  0  0  0  0  0  0  0  0  # atno 17343 bound_to 10162
  157.7482  131.0377  150.4471 LP  0  0  0  0  0  0  0  0  0  0  0  0  # atno 17370 bound_to 10713
  156.4694  130.4049  149.6527 LP  0  0  0  0  0  0  0  0  0  0  0  0  # atno 17371 bound_to 10713
  139.9568  134.7521  156.0324 LP  0  0  0  0  0  0  0  0  0  0  0  0  # atno 17394 bound_to 11000
  141.1295  133.6590  156.3427 LP  0  0  0  0  0  0  0  0  0  0  0  0  # atno 17395 bound_to 11000

$$$$
