AV-unprocessed.smi:1165|AV-procd|sdf|4928|dock7
  -GOLD-   22720 3513D 1   1.00000     0.00000
 Structure written by MMmdl.
 41 42  0  0  0  0  0  0  0  0  1 V2000
  148.1586  136.6713  159.1793 C   0  0  0  0  0  0  0  0  0  0  0  0
  149.2953  137.5811  158.7016 C   0  0  2  0  0  0  0  0  0  0  0  0
  149.1382  137.9677  157.2211 C   0  0  0  0  0  0  0  0  0  0  0  0
  150.3082  138.7293  156.7577 N   0  0  0  0  0  0  0  0  0  0  0  0
  150.1681  139.6189  155.2785 S   0  0  0  0  0  0  0  0  0  0  0  0
  150.7549  138.8205  154.1912 O   0  0  0  0  0  0  0  0  0  0  0  0
  148.7991  140.1484  155.1866 O   0  0  0  0  0  0  0  0  0  0  0  0
  151.2416  140.9241  155.6276 N   0  0  0  0  0  0  0  0  0  0  0  0
  150.8170  141.9827  156.5427 C   0  0  0  0  0  0  0  0  0  0  0  0
  151.4174  141.7557  157.9349 C   0  0  0  0  0  0  0  0  0  0  0  0
  151.4074  143.0216  158.7683 C   0  0  0  0  0  0  0  0  0  0  0  0
  151.7360  142.9899  160.1392 C   0  0  0  0  0  0  0  0  0  0  0  0
  151.7050  144.1923  160.8716 C   0  0  0  0  0  0  0  0  0  0  0  0
  151.3446  145.3779  160.2002 C   0  0  0  0  0  0  0  0  0  0  0  0
  151.0268  145.4198  158.8883 N   0  0  0  0  0  0  0  0  0  0  0  0
  151.0597  144.2626  158.1930 C   0  0  0  0  0  0  0  0  0  0  0  0
  151.5832  138.0486  157.0262 C   0  0  0  0  0  0  0  0  0  0  0  0
  151.6850  137.6150  158.5014 C   0  0  1  0  0  0  0  0  0  0  0  0
  151.9879  138.7829  159.4578 C   0  0  0  0  0  0  0  0  0  0  0  0
  150.5231  136.8867  158.8926 O   0  0  0  0  0  0  0  0  0  0  0  0
  147.1903  137.1597  159.0668 H   0  0  0  0  0  0  0  0  0  0  0  0
  148.2815  136.4159  160.2320 H   0  0  0  0  0  0  0  0  0  0  0  0
  148.1327  135.7407  158.6118 H   0  0  0  0  0  0  0  0  0  0  0  0
  149.2814  138.4821  159.3153 H   0  0  0  0  0  0  0  0  0  0  0  0
  149.0319  137.0759  156.6018 H   0  0  0  0  0  0  0  0  0  0  0  0
  148.2305  138.5560  157.0884 H   0  0  0  0  0  0  0  0  0  0  0  0
  151.7413  141.2594  154.8044 H   0  0  0  0  0  0  0  0  0  0  0  0
  151.1375  142.9482  156.1500 H   0  0  0  0  0  0  0  0  0  0  0  0
  149.7276  141.9980  156.5923 H   0  0  0  0  0  0  0  0  0  0  0  0
  150.8637  140.9762  158.4604 H   0  0  0  0  0  0  0  0  0  0  0  0
  152.4448  141.3997  157.8473 H   0  0  0  0  0  0  0  0  0  0  0  0
  152.0049  142.0621  160.6227 H   0  0  0  0  0  0  0  0  0  0  0  0
  151.9504  144.2058  161.9233 H   0  0  0  0  0  0  0  0  0  0  0  0
  151.3102  146.3176  160.7314 H   0  0  0  0  0  0  0  0  0  0  0  0
  150.7974  144.3284  157.1472 H   0  0  0  0  0  0  0  0  0  0  0  0
  151.6523  137.1760  156.3756 H   0  0  0  0  0  0  0  0  0  0  0  0
  152.4185  138.7002  156.7693 H   0  0  0  0  0  0  0  0  0  0  0  0
  152.5191  136.9177  158.5840 H   0  0  0  0  0  0  0  0  0  0  0  0
  152.9561  139.2282  159.2281 H   0  0  0  0  0  0  0  0  0  0  0  0
  152.0199  138.4407  160.4924 H   0  0  0  0  0  0  0  0  0  0  0  0
  151.2450  139.5773  159.3893 H   0  0  0  0  0  0  0  0  0  0  0  0
  1  2  1  0  0  0  0
  1 21  1  0  0  0  0
  1 22  1  0  0  0  0
  1 23  1  0  0  0  0
  2 20  1  0  0  0  0
  2  3  1  0  0  0  0
  2 24  1  0  0  0  0
  3  4  1  0  0  0  0
  3 25  1  0  0  0  0
  3 26  1  0  0  0  0
  4  5  1  0  0  0  0
  4 17  1  0  0  0  0
  5  6  2  0  0  0  0
  5  7  2  0  0  0  0
  5  8  1  0  0  0  0
  8  9  1  0  0  0  0
  8 27  1  0  0  0  0
  9 10  1  0  0  0  0
  9 28  1  0  0  0  0
  9 29  1  0  0  0  0
 10 11  1  0  0  0  0
 10 30  1  0  0  0  0
 10 31  1  0  0  0  0
 11 16  1  0  0  0  0
 11 12  2  0  0  0  0
 12 13  1  0  0  0  0
 12 32  1  0  0  0  0
 13 14  2  0  0  0  0
 13 33  1  0  0  0  0
 14 15  1  0  0  0  0
 14 34  1  0  0  0  0
 15 16  2  0  0  0  0
 16 35  1  0  0  0  0
 17 18  1  0  0  0  0
 17 36  1  0  0  0  0
 17 37  1  0  0  0  0
 18 19  1  0  0  0  0
 18 20  1  0  0  0  0
 18 38  1  0  0  0  0
 19 39  1  0  0  0  0
 19 40  1  0  0  0  0
 19 41  1  0  0  0  0
M  END
> <s_m_source_file>
AV-unprocessed.smi

> <i_m_source_file_index>
1165

> <i_lp_mmshare_version>
43012

> <i_f3d_flags>
0

> <s_epik_input>
W0NIM11bQ0BASF0xW0NIMl1OKFtDSDJdW0NASF0oTzEpW0NIM10pUyg9TykoPU8pW05IXVtDSDJdW0NIMl1jMltjSF1bY0hdW2NIXW5bY0hdMg==

> <s_epik_cmdline>
J2VwaWtfcHl0aG9uJywgJy1waCcsICc3LjAnLCAnLXRuJywgJzgnLCAnLW1hJywgJzIwMCcsICctbWV0YWxfYmluZGluZycsICctaW1hZScsICc8aW5maWxlLm1hZT4nLCAnLW9tYWUnLCAnPG91dGZpbGUubWFlPic=

> <r_epik_Ionization_Penalty>
0.0861056

> <r_epik_Ionization_Penalty_Charging>
0

> <r_epik_Ionization_Penalty_Neutral>
0.0861056

> <r_epik_State_Penalty>
0.0574425

> <r_epik_Charging_Adjusted_Penalty>
0.0574425

> <i_epik_Tot_Q>
0

> <i_epik_Tot_abs_Q>
0

> <r_epik_Metal_State_Penalty>
0.317425

> <b_epik_Metal_Only>
0

> <s_lp_Force_Field>
OPLS_2005

> <r_lp_Energy>
8.25328

> <b_lp_Chiralities_Consistent>
1

> <s_lp_Variant>
AV-unprocessed.smi:1165-1

> <Gold.Version>
5.8.1

> <Gold.Id.Protein>
6NUR|6NUR_protein|mol2

> <Gold.PLP.Fitness>
39.5565

> <Gold.PLP.PLP>
-35.4431

> <Gold.PLP.part.hbond>
-2.8800

> <Gold.PLP.part.metal>
0.0000

> <Gold.PLP.part.buried>
-5.1487

> <Gold.PLP.part.nonpolar>
-27.3897

> <Gold.PLP.part.repulsive>
0.3822

> <Gold.PLP.ligand.clash>
0.0000

> <Gold.PLP.ligand.torsion>
1.4078

> <Gold.PLP.Chemscore.Hbond>
1.0325

> <Gold.PLP.Chemscore.CHOScore>
1.0000

> <Gold.PLP.Chemscore.Metal>
0.0000

> <Gold.Chemscore.Hbonds>
donor molecule, donor type, donor heavy atom, donor atom, acceptor molecule, acceptor atom, score
      P1  H  6896  6907       L1    20  0.75
      P1  H  7989  7998       L1     6  0.07
      L1  C    16    35       P1  8028  1.00

> <Gold.PLP.Chemscore.Internal.Correction>
0.8316

> <Gold.Rescore>
     Score         DG    S(hbond)    S(metal)    S(lipo)     H(rot)  DE(clash)    DE(int)     intcor
     14.57     -15.96       0.98        0.00      98.98       1.71       0.01       1.37       ----

> <Gold.Chemscore.Fitness>
14.5749

> <Gold.Chemscore.DG>
-15.9616

> <Gold.Chemscore.ZeroCoef>
-5.4800

> <Gold.Chemscore.Hbond>
0.9784

> <Gold.Chemscore.Metal>
0.0000

> <Gold.Chemscore.Lipo>
98.9828

> <Gold.Chemscore.Internal_Hbond>
0.0000

> <Gold.Chemscore.DEClash>
0.0133

> <Gold.Chemscore.DEInternal>
1.3734

> <Gold.Chemscore.Rot>
1.7060

> <Gold.Chemscore.Internal.Correction>
   9.000000E+99

> <Gold.Chemscore.Hbonds>
donor molecule, donor type, donor heavy atom, donor atom, acceptor molecule, acceptor atom, score
      P1  H  6896  6907       L1    20  0.48

> <Gold.Chemscore.Hbond.Weighted>
-3.2680

> <Gold.Chemscore.Metal.Weighted>
-0.0000

> <Gold.Chemscore.Lipo.Weighted>
-11.5810

> <Gold.Chemscore.Internal_Hbond.Weighted>
0.0000

> <Gold.Chemscore.DEClash.Weighted>
0.0133

> <Gold.Chemscore.DEInternal.Weighted>
1.3734

> <Gold.Chemscore.Rot.Weighted>
4.3674

> <Gold.Chemscore.Internal.Correction.Weighted>
   9.000000E+99

> <Gold.Protein.RotatedTorsions>
[ 6907 6896 6895 6894 ] final  -25.04 input  -60.11 | X-H torsion
[ 7974 7965 7964 7962 ] final    7.05 input  175.53 | X-H torsion
[ 8008 7997 7996 7995 ] final   58.13 input   59.86 | X-H torsion
[ 10167 10162 10161 10158 ] final  -88.75 input  -65.29 | X-H torsion
[ 10718 10713 10712 10709 ] final  170.78 input   66.30 | X-H torsion
[ 10763 10752 10751 10750 ] final   51.94 input  -60.55 | X-H torsion
[ 11005 11000 10999 10996 ] final  -94.52 input  -57.11 | X-H torsion

> <Gold.Protein.ActiveResidues>
 VAL166  LYS551  ARG553  GLY616  TRP617  ASP618  TYR619  PRO620  LYS621  CYS622 
 ASP623  PHE694  ASN695  SER759  ASP760  ASP761  ALA762  ILE779  LEU786  VAL792 
 PHE793  MET794  SER795  GLU796  ALA797  LYS798  CYS799  TRP800  GLU811  SER814 

> <Gold.Protein.RotatedAtoms>
  151.1809  135.0360  159.8791 H   0  0  0  0  0  0  0  0  0  0  0  0  # atno 6907 bound_to 6896
  152.5445  134.1064  159.8350 H   0  0  0  0  0  0  0  0  0  0  0  0  # atno 6908 bound_to 6896
  151.1181  133.5077  159.2635 H   0  0  0  0  0  0  0  0  0  0  0  0  # atno 6909 bound_to 6896
  146.2430  140.0141  142.8404 H   0  0  0  0  0  0  0  0  0  0  0  0  # atno 7974 bound_to 7965
  155.5450  140.3485  155.4455 H   0  0  0  0  0  0  0  0  0  0  0  0  # atno 8008 bound_to 7997
  156.0624  140.1343  156.9952 H   0  0  0  0  0  0  0  0  0  0  0  0  # atno 8009 bound_to 7997
  154.4486  140.0982  156.6521 H   0  0  0  0  0  0  0  0  0  0  0  0  # atno 8010 bound_to 7997
  140.3716  143.2792  151.9493 H   0  0  0  0  0  0  0  0  0  0  0  0  # atno 10167 bound_to 10162
  157.0031  131.0182  151.2825 H   0  0  0  0  0  0  0  0  0  0  0  0  # atno 10718 bound_to 10713
  152.9787  135.5829  154.4497 H   0  0  0  0  0  0  0  0  0  0  0  0  # atno 10763 bound_to 10752
  154.4088  135.2769  155.2052 H   0  0  0  0  0  0  0  0  0  0  0  0  # atno 10764 bound_to 10752
  154.3851  135.6138  153.5866 H   0  0  0  0  0  0  0  0  0  0  0  0  # atno 10765 bound_to 10752
  141.1468  133.7962  157.0309 H   0  0  0  0  0  0  0  0  0  0  0  0  # atno 11005 bound_to 11000
  145.1301  140.9513  143.4549 LP  0  0  0  0  0  0  0  0  0  0  0  0  # atno 17320 bound_to 7965
  145.0396  139.3271  143.5983 LP  0  0  0  0  0  0  0  0  0  0  0  0  # atno 17321 bound_to 7965
  139.4803  144.5902  151.7785 LP  0  0  0  0  0  0  0  0  0  0  0  0  # atno 17342 bound_to 10162
  140.5028  144.1144  150.5975 LP  0  0  0  0  0  0  0  0  0  0  0  0  # atno 17343 bound_to 10162
  157.5375  130.8098  149.7990 LP  0  0  0  0  0  0  0  0  0  0  0  0  # atno 17370 bound_to 10713
  156.0163  130.3812  150.2099 LP  0  0  0  0  0  0  0  0  0  0  0  0  # atno 17371 bound_to 10713
  140.0755  134.9678  157.1538 LP  0  0  0  0  0  0  0  0  0  0  0  0  # atno 17394 bound_to 11000
  140.3651  134.2452  155.7183 LP  0  0  0  0  0  0  0  0  0  0  0  0  # atno 17395 bound_to 11000

$$$$
