AV-unprocessed.smi:1722|AV-procd|sdf|6944|dock4
  -GOLD-   22720 8153D 1   1.00000     0.00000
 Structure written by MMmdl.
 38 39  0  0  0  0  0  0  0  0  2 V2000
  155.5852  139.1632  159.1213 O   0  0  0  0  0  0  0  0  0  0  0  0
  154.9097  139.5873  160.0583 C   0  0  0  0  0  0  0  0  0  0  0  0
  154.5813  141.0778  160.1242 C   0  0  0  0  0  0  0  0  0  0  0  0
  153.1805  141.2463  159.9495 O   0  0  0  0  0  0  0  0  0  0  0  0
  152.8154  142.0713  158.8519 C   0  0  0  0  0  0  0  0  0  0  0  0
  153.0443  143.5307  159.2837 C   0  0  0  0  0  0  0  0  0  0  0  0
  152.5973  144.5184  158.1941 C   0  0  0  0  0  0  0  0  0  0  0  0
  151.1280  144.2892  157.8063 C   0  0  0  0  0  0  0  0  0  0  0  0
  150.8900  142.8339  157.3733 C   0  0  0  0  0  0  0  0  0  0  0  0
  151.3392  141.8462  158.4626 C   0  0  0  0  0  0  0  0  0  0  0  0
  154.4400  138.8455  161.0807 N   0  0  0  0  0  0  0  0  0  0  0  0
  154.5253  137.4591  161.2922 C   0  0  0  0  0  0  0  0  0  0  0  0
  154.7868  136.8725  162.4930 C   0  0  0  0  0  0  0  0  0  0  0  0
  154.8854  135.4268  162.6503 C   0  0  0  0  0  0  0  0  0  0  0  0
  155.2539  134.7439  163.9555 C   0  0  0  0  0  0  0  0  0  0  0  0
  154.2579  134.8705  164.8312 F   0  0  0  0  0  0  0  0  0  0  0  0
  155.4804  133.4434  163.7691 F   0  0  0  0  0  0  0  0  0  0  0  0
  156.3476  135.2887  164.4886 F   0  0  0  0  0  0  0  0  0  0  0  0
  154.7162  134.7571  161.4540 C   0  0  0  0  0  0  0  0  0  0  0  0
  154.4470  135.2587  160.2286 N   0  5  0  0  0  0  0  0  0  0  0  0
  154.3489  136.6116  160.0947 C   0  0  0  0  0  0  0  0  0  0  0  0
  154.1166  137.1360  159.0049 O   0  0  0  0  0  0  0  0  0  0  0  0
  154.8959  141.4683  161.0930 H   0  0  0  0  0  0  0  0  0  0  0  0
  155.1400  141.6076  159.3523 H   0  0  0  0  0  0  0  0  0  0  0  0
  153.4611  141.8610  157.9970 H   0  0  0  0  0  0  0  0  0  0  0  0
  152.4932  143.7319  160.2034 H   0  0  0  0  0  0  0  0  0  0  0  0
  154.0982  143.6881  159.5155 H   0  0  0  0  0  0  0  0  0  0  0  0
  152.7343  145.5428  158.5419 H   0  0  0  0  0  0  0  0  0  0  0  0
  153.2307  144.4030  157.3136 H   0  0  0  0  0  0  0  0  0  0  0  0
  150.4847  144.5278  158.6542 H   0  0  0  0  0  0  0  0  0  0  0  0
  150.8443  144.9686  157.0022 H   0  0  0  0  0  0  0  0  0  0  0  0
  149.8348  142.6817  157.1460 H   0  0  0  0  0  0  0  0  0  0  0  0
  151.4369  142.6331  156.4512 H   0  0  0  0  0  0  0  0  0  0  0  0
  151.1849  140.8276  158.1081 H   0  0  0  0  0  0  0  0  0  0  0  0
  150.7069  141.9655  159.3435 H   0  0  0  0  0  0  0  0  0  0  0  0
  153.9729  139.3510  161.8198 H   0  0  0  0  0  0  0  0  0  0  0  0
  154.9515  137.4695  163.3748 H   0  0  0  0  0  0  0  0  0  0  0  0
  154.8176  133.6513  161.4853 H   0  0  0  0  0  0  0  0  0  0  0  0
  1  2  2  0  0  0  0
  2  3  1  0  0  0  0
  2 11  1  0  0  0  0
  3  4  1  0  0  0  0
  3 23  1  0  0  0  0
  3 24  1  0  0  0  0
  4  5  1  0  0  0  0
  5 10  1  0  0  0  0
  5  6  1  0  0  0  0
  5 25  1  0  0  0  0
  6  7  1  0  0  0  0
  6 26  1  0  0  0  0
  6 27  1  0  0  0  0
  7  8  1  0  0  0  0
  7 28  1  0  0  0  0
  7 29  1  0  0  0  0
  8  9  1  0  0  0  0
  8 30  1  0  0  0  0
  8 31  1  0  0  0  0
  9 10  1  0  0  0  0
  9 32  1  0  0  0  0
  9 33  1  0  0  0  0
 10 34  1  0  0  0  0
 10 35  1  0  0  0  0
 11 12  1  0  0  0  0
 11 36  1  0  0  0  0
 12 21  1  0  0  0  0
 12 13  2  0  0  0  0
 13 14  1  0  0  0  0
 13 37  1  0  0  0  0
 14 15  1  0  0  0  0
 14 19  2  0  0  0  0
 15 16  1  0  0  0  0
 15 17  1  0  0  0  0
 15 18  1  0  0  0  0
 19 20  1  0  0  0  0
 19 38  1  0  0  0  0
 20 21  1  0  0  0  0
 21 22  2  0  0  0  0
M  CHG  1  20  -1
M  END
> <s_m_source_file>
AV-unprocessed.smi

> <i_m_source_file_index>
1722

> <i_lp_mmshare_version>
43012

> <i_f3d_flags>
0

> <s_epik_input>
Tz1jMVtuSF1bY0hdYyhDKEYpKEYpRilbY0hdYzFbTkhdQyg9TylbQ0gyXU9bQ0hdMltDSDJdW0NIMl1bQ0gyXVtDSDJdW0NIMl0y

> <s_epik_cmdline>
J2VwaWtfcHl0aG9uJywgJy1waCcsICc3LjAnLCAnLXRuJywgJzgnLCAnLW1hJywgJzIwMCcsICctbWV0YWxfYmluZGluZycsICctaW1hZScsICc8aW5maWxlLm1hZT4nLCAnLW9tYWUnLCAnPG91dGZpbGUubWFlPic=

> <r_epik_Ionization_Penalty>
2.55378

> <r_epik_Ionization_Penalty_Charging>
0.0617094

> <r_epik_Ionization_Penalty_Neutral>
2.49207

> <r_epik_State_Penalty>
2.65647

> <r_epik_Charging_Adjusted_Penalty>
2.71818

> <i_epik_Tot_Q>
-1

> <i_epik_Tot_abs_Q>
1

> <r_epik_Metal_State_Penalty>
0.516461

> <b_epik_Metal_Only>
0

> <s_lp_Force_Field>
OPLS_2005

> <r_lp_Energy>
27.5399

> <b_lp_Chiralities_Consistent>
1

> <s_lp_Variant>
AV-unprocessed.smi:1722-2

> <Gold.Version>
5.8.1

> <Gold.Id.Protein>
6NUR|6NUR_protein|mol2

> <Gold.PLP.Fitness>
46.0552

> <Gold.PLP.PLP>
-39.0692

> <Gold.PLP.part.hbond>
-1.9767

> <Gold.PLP.part.metal>
0.0000

> <Gold.PLP.part.buried>
-1.2264

> <Gold.PLP.part.nonpolar>
-36.0919

> <Gold.PLP.part.repulsive>
0.0000

> <Gold.PLP.ligand.clash>
0.0000

> <Gold.PLP.ligand.torsion>
1.0679

> <Gold.PLP.Chemscore.Hbond>
3.0000

> <Gold.PLP.Chemscore.CHOScore>
0.0000

> <Gold.PLP.Chemscore.Metal>
0.0000

> <Gold.Chemscore.Hbonds>
donor molecule, donor type, donor heavy atom, donor atom, acceptor molecule, acceptor atom, score
      P1  H  6896  6909       L1    20  1.76
      P1  H  7997  8009       L1     1  1.00

> <Gold.PLP.Chemscore.Internal.Correction>
0.1217

> <Gold.Rescore>
     Score         DG    S(hbond)    S(metal)    S(lipo)     H(rot)  DE(clash)    DE(int)     intcor
     14.71     -20.53       1.83        0.00     110.80       1.57       0.90       4.93       ----

> <Gold.Chemscore.Fitness>
14.7082

> <Gold.Chemscore.DG>
-20.5346

> <Gold.Chemscore.ZeroCoef>
-5.4800

> <Gold.Chemscore.Hbond>
1.8308

> <Gold.Chemscore.Metal>
0.0000

> <Gold.Chemscore.Lipo>
110.7966

> <Gold.Chemscore.Internal_Hbond>
0.0000

> <Gold.Chemscore.DEClash>
0.8961

> <Gold.Chemscore.DEInternal>
4.9302

> <Gold.Chemscore.Rot>
1.5717

> <Gold.Chemscore.Internal.Correction>
   9.000000E+99

> <Gold.Chemscore.Hbonds>
donor molecule, donor type, donor heavy atom, donor atom, acceptor molecule, acceptor atom, score
      P1  H  6896  6909       L1    20  0.09
      P1  H  7997  8009       L1     1  0.96

> <Gold.Chemscore.Hbond.Weighted>
-6.1150

> <Gold.Chemscore.Metal.Weighted>
-0.0000

> <Gold.Chemscore.Lipo.Weighted>
-12.9632

> <Gold.Chemscore.Internal_Hbond.Weighted>
0.0000

> <Gold.Chemscore.DEClash.Weighted>
0.8961

> <Gold.Chemscore.DEInternal.Weighted>
4.9302

> <Gold.Chemscore.Rot.Weighted>
4.0237

> <Gold.Chemscore.Internal.Correction.Weighted>
   9.000000E+99

> <Gold.Protein.RotatedTorsions>
[ 6907 6896 6895 6894 ] final -178.33 input  -60.11 | X-H torsion
[ 7974 7965 7964 7962 ] final  -12.00 input  175.53 | X-H torsion
[ 8008 7997 7996 7995 ] final  103.25 input   59.86 | X-H torsion
[ 10167 10162 10161 10158 ] final   92.11 input  -65.29 | X-H torsion
[ 10718 10713 10712 10709 ] final  -84.50 input   66.30 | X-H torsion
[ 10763 10752 10751 10750 ] final  124.85 input  -60.55 | X-H torsion
[ 11005 11000 10999 10996 ] final  -90.87 input  -57.11 | X-H torsion

> <Gold.Protein.ActiveResidues>
 VAL166  LYS551  ARG553  GLY616  TRP617  ASP618  TYR619  PRO620  LYS621  CYS622 
 ASP623  PHE694  ASN695  SER759  ASP760  ASP761  ALA762  ILE779  LEU786  VAL792 
 PHE793  MET794  SER795  GLU796  ALA797  LYS798  CYS799  TRP800  GLU811  SER814 

> <Gold.Protein.RotatedAtoms>
  151.6354  133.3329  159.3117 H   0  0  0  0  0  0  0  0  0  0  0  0  # atno 6907 bound_to 6896
  150.8035  134.7148  159.6634 H   0  0  0  0  0  0  0  0  0  0  0  0  # atno 6908 bound_to 6896
  152.4129  134.6098  160.0074 H   0  0  0  0  0  0  0  0  0  0  0  0  # atno 6909 bound_to 6896
  146.2168  140.2993  142.8374 H   0  0  0  0  0  0  0  0  0  0  0  0  # atno 7974 bound_to 7965
  156.1467  140.3168  155.8582 H   0  0  0  0  0  0  0  0  0  0  0  0  # atno 8008 bound_to 7997
  155.4050  140.0502  157.3052 H   0  0  0  0  0  0  0  0  0  0  0  0  # atno 8009 bound_to 7997
  154.5023  140.2134  155.9334 H   0  0  0  0  0  0  0  0  0  0  0  0  # atno 8010 bound_to 7997
  139.8309  144.6687  150.9401 H   0  0  0  0  0  0  0  0  0  0  0  0  # atno 10167 bound_to 10162
  156.0005  130.4700  150.4420 H   0  0  0  0  0  0  0  0  0  0  0  0  # atno 10718 bound_to 10713
  153.6680  135.3335  155.3145 H   0  0  0  0  0  0  0  0  0  0  0  0  # atno 10763 bound_to 10752
  154.8498  135.4379  154.1735 H   0  0  0  0  0  0  0  0  0  0  0  0  # atno 10764 bound_to 10752
  153.2719  135.7001  153.7548 H   0  0  0  0  0  0  0  0  0  0  0  0  # atno 10765 bound_to 10752
  141.1557  133.7719  156.9799 H   0  0  0  0  0  0  0  0  0  0  0  0  # atno 11005 bound_to 11000
  144.9069  140.7711  143.5832 LP  0  0  0  0  0  0  0  0  0  0  0  0  # atno 17320 bound_to 7965
  145.2921  139.1880  143.4734 LP  0  0  0  0  0  0  0  0  0  0  0  0  # atno 17321 bound_to 7965
  140.7806  143.4002  151.1162 LP  0  0  0  0  0  0  0  0  0  0  0  0  # atno 17342 bound_to 10162
  139.7655  143.8571  152.3110 LP  0  0  0  0  0  0  0  0  0  0  0  0  # atno 17343 bound_to 10162
  157.2460  131.0536  151.2408 LP  0  0  0  0  0  0  0  0  0  0  0  0  # atno 17370 bound_to 10713
  157.3574  130.7114  149.6480 LP  0  0  0  0  0  0  0  0  0  0  0  0  # atno 17371 bound_to 10713
  140.1073  134.9498  157.2013 LP  0  0  0  0  0  0  0  0  0  0  0  0  # atno 17394 bound_to 11000
  140.3240  134.2885  155.7240 LP  0  0  0  0  0  0  0  0  0  0  0  0  # atno 17395 bound_to 11000

$$$$
