AV-unprocessed.smi:3337|AV-procd|sdf|12868|dock2
  -GOLD-   2272019263D 1   1.00000     0.00000
 Structure written by MMmdl.
 46 47  0  0  0  0  0  0  0  0  2 V2000
  145.7641  143.0442  153.4314 C   0  0  0  0  0  0  0  0  0  0  0  0
  146.7578  142.2989  154.3400 C   0  0  1  0  0  0  0  0  0  0  0  0
  146.1626  141.9409  155.7140 C   0  0  0  0  0  0  0  0  0  0  0  0
  145.1613  140.7760  155.6149 C   0  0  2  0  0  0  0  0  0  0  0  0
  144.6235  140.3831  156.9982 C   0  0  0  0  0  0  0  0  0  0  0  0
  145.8084  139.5743  154.8993 C   0  0  0  0  0  0  0  0  0  0  0  0
  146.3310  139.9555  153.5614 N   0  3  2  0  0  0  0  0  0  0  0  0
  146.8075  138.7802  152.7891 C   0  0  0  0  0  0  0  0  0  0  0  0
  145.7749  137.6369  152.7592 C   0  0  0  0  0  0  0  0  0  0  0  0
  146.3745  136.3856  152.3123 N   0  0  0  0  0  0  0  0  0  0  0  0
  145.7412  135.2020  152.2642 C   0  0  0  0  0  0  0  0  0  0  0  0
  144.5782  135.0553  152.6422 O   0  0  0  0  0  0  0  0  0  0  0  0
  146.5498  134.0111  151.7167 C   0  0  1  0  0  0  0  0  0  0  0  0
  147.4028  133.3128  152.7948 C   0  0  0  0  0  0  0  0  0  0  0  0
  145.6822  133.0612  151.0294 N   0  0  0  0  0  0  0  0  0  0  0  0
  145.9795  131.9147  150.4138 C   0  0  0  0  0  0  0  0  0  0  0  0
  144.9341  131.3110  149.8660 N   0  0  0  0  0  0  0  0  0  0  0  0
  143.9537  132.2000  150.2042 C   0  0  0  0  0  0  0  0  0  0  0  0
  144.3480  133.2683  150.8970 N   0  0  0  0  0  0  0  0  0  0  0  0
  147.3404  141.0439  153.6611 C   0  0  0  0  0  0  0  0  0  0  0  0
  144.9058  142.4259  153.1691 H   0  0  0  0  0  0  0  0  0  0  0  0
  146.2421  143.3526  152.5010 H   0  0  0  0  0  0  0  0  0  0  0  0
  145.3878  143.9444  153.9183 H   0  0  0  0  0  0  0  0  0  0  0  0
  147.5851  142.9875  154.5164 H   0  0  0  0  0  0  0  0  0  0  0  0
  146.9727  141.6609  156.3890 H   0  0  0  0  0  0  0  0  0  0  0  0
  145.6865  142.8160  156.1583 H   0  0  0  0  0  0  0  0  0  0  0  0
  144.3080  141.1039  155.0205 H   0  0  0  0  0  0  0  0  0  0  0  0
  145.4241  140.0372  157.6529 H   0  0  0  0  0  0  0  0  0  0  0  0
  143.8871  139.5826  156.9213 H   0  0  0  0  0  0  0  0  0  0  0  0
  144.1381  141.2293  157.4851 H   0  0  0  0  0  0  0  0  0  0  0  0
  146.6196  139.1623  155.5021 H   0  0  0  0  0  0  0  0  0  0  0  0
  145.0644  138.7844  154.7882 H   0  0  0  0  0  0  0  0  0  0  0  0
  147.0774  139.0864  151.7771 H   0  0  0  0  0  0  0  0  0  0  0  0
  147.7214  138.4024  153.2502 H   0  0  0  0  0  0  0  0  0  0  0  0
  145.3219  137.5043  153.7435 H   0  0  0  0  0  0  0  0  0  0  0  0
  144.9606  137.8630  152.0724 H   0  0  0  0  0  0  0  0  0  0  0  0
  147.3302  136.4255  151.9879 H   0  0  0  0  0  0  0  0  0  0  0  0
  147.2357  134.4169  150.9714 H   0  0  0  0  0  0  0  0  0  0  0  0
  148.1007  134.0090  153.2612 H   0  0  0  0  0  0  0  0  0  0  0  0
  147.9926  132.5050  152.3599 H   0  0  0  0  0  0  0  0  0  0  0  0
  146.7864  132.8814  153.5845 H   0  0  0  0  0  0  0  0  0  0  0  0
  146.9816  131.5145  150.3623 H   0  0  0  0  0  0  0  0  0  0  0  0
  142.9197  132.0583  149.9270 H   0  0  0  0  0  0  0  0  0  0  0  0
  147.7176  141.3155  152.6761 H   0  0  0  0  0  0  0  0  0  0  0  0
  148.1986  140.6817  154.2296 H   0  0  0  0  0  0  0  0  0  0  0  0
  145.5438  140.3297  153.0509 H   0  0  0  0  0  0  0  0  0  0  0  0
  1  2  1  0  0  0  0
  1 21  1  0  0  0  0
  1 22  1  0  0  0  0
  1 23  1  0  0  0  0
  2 20  1  0  0  0  0
  2  3  1  0  0  0  0
  2 24  1  0  0  0  0
  3  4  1  0  0  0  0
  3 25  1  0  0  0  0
  3 26  1  0  0  0  0
  4  5  1  0  0  0  0
  4  6  1  0  0  0  0
  4 27  1  0  0  0  0
  5 28  1  0  0  0  0
  5 29  1  0  0  0  0
  5 30  1  0  0  0  0
  6  7  1  0  0  0  0
  6 31  1  0  0  0  0
  6 32  1  0  0  0  0
  7  8  1  0  0  0  0
  7 20  1  0  0  0  0
  7 46  1  0  0  0  0
  8  9  1  0  0  0  0
  8 33  1  0  0  0  0
  8 34  1  0  0  0  0
  9 10  1  0  0  0  0
  9 35  1  0  0  0  0
  9 36  1  0  0  0  0
 10 11  1  0  0  0  0
 10 37  1  0  0  0  0
 11 12  2  0  0  0  0
 11 13  1  0  0  0  0
 13 14  1  0  0  0  0
 13 15  1  0  0  0  0
 13 38  1  0  0  0  0
 14 39  1  0  0  0  0
 14 40  1  0  0  0  0
 14 41  1  0  0  0  0
 15 19  1  0  0  0  0
 15 16  1  0  0  0  0
 16 17  2  0  0  0  0
 16 42  1  0  0  0  0
 17 18  1  0  0  0  0
 18 19  2  0  0  0  0
 18 43  1  0  0  0  0
 20 44  1  0  0  0  0
 20 45  1  0  0  0  0
M  CHG  1   7   1
M  END
> <s_m_source_file>
AV-unprocessed.smi

> <i_m_source_file_index>
3337

> <i_lp_mmshare_version>
43012

> <i_f3d_flags>
0

> <s_epik_input>
W0NIM11bQ0BASF0xW0NIMl1bQ0BASF0oW0NIM10pW0NIMl1OKFtDSDJdMSlbQ0gyXVtDSDJdW05IXUMoPU8pW0NASF0oW0NIM10pbjJbY0hdbltjSF1uMg==

> <s_epik_cmdline>
J2VwaWtfcHl0aG9uJywgJy1waCcsICc3LjAnLCAnLXRuJywgJzgnLCAnLW1hJywgJzIwMCcsICctbWV0YWxfYmluZGluZycsICctaW1hZScsICc8aW5maWxlLm1hZT4nLCAnLW9tYWUnLCAnPG91dGZpbGUubWFlPic=

> <r_lp_tautomer_probability>
1

> <r_epik_Ionization_Penalty>
0.00175613

> <r_epik_Ionization_Penalty_Charging>
0.00174812

> <r_epik_Ionization_Penalty_Neutral>
8.01354e-06

> <r_epik_State_Penalty>
0.00118332

> <r_epik_Charging_Adjusted_Penalty>
0.00293143

> <i_epik_Tot_Q>
1

> <i_epik_Tot_abs_Q>
1

> <r_epik_Metal_State_Penalty>
-0

> <b_epik_Metal_Only>
0

> <s_lp_Force_Field>
OPLS_2005

> <r_lp_Energy>
24.7561

> <b_lp_Chiralities_Consistent>
1

> <s_lp_Variant>
AV-unprocessed.smi:3337-8

> <Gold.Version>
5.8.1

> <Gold.Id.Protein>
6NUR|6NUR_protein|mol2

> <Gold.PLP.Fitness>
50.4612

> <Gold.PLP.PLP>
-34.2539

> <Gold.PLP.part.hbond>
-3.0000

> <Gold.PLP.part.metal>
0.0000

> <Gold.PLP.part.buried>
-6.0202

> <Gold.PLP.part.nonpolar>
-27.5717

> <Gold.PLP.part.repulsive>
0.4563

> <Gold.PLP.ligand.clash>
0.0000

> <Gold.PLP.ligand.torsion>
0.8743

> <Gold.PLP.Chemscore.Hbond>
3.4441

> <Gold.PLP.Chemscore.CHOScore>
2.4959

> <Gold.PLP.Chemscore.Metal>
0.0000

> <Gold.Chemscore.Hbonds>
donor molecule, donor type, donor heavy atom, donor atom, acceptor molecule, acceptor atom, score
      L1  H     7    46       P1 10175  2.00
      L1  H    10    37       P1  7948  1.00
      P1  H 10785 10796       L1    17  0.01
      L1  C    16    42       P1 10747  1.00
      L1  C    18    43       P1 10952  0.50

> <Gold.PLP.Chemscore.Internal.Correction>
0.1359

> <Gold.Rescore>
     Score         DG    S(hbond)    S(metal)    S(lipo)     H(rot)  DE(clash)    DE(int)     intcor
     10.44     -13.60       2.48        0.00      53.59       2.51       0.19       2.97       ----

> <Gold.Chemscore.Fitness>
10.4373

> <Gold.Chemscore.DG>
-13.6045

> <Gold.Chemscore.ZeroCoef>
-5.4800

> <Gold.Chemscore.Hbond>
2.4812

> <Gold.Chemscore.Metal>
0.0000

> <Gold.Chemscore.Lipo>
53.5932

> <Gold.Chemscore.Internal_Hbond>
0.0000

> <Gold.Chemscore.DEClash>
0.1931

> <Gold.Chemscore.DEInternal>
2.9742

> <Gold.Chemscore.Rot>
2.5129

> <Gold.Chemscore.Internal.Correction>
   9.000000E+99

> <Gold.Chemscore.Hbonds>
donor molecule, donor type, donor heavy atom, donor atom, acceptor molecule, acceptor atom, score
      L1  H     7    46       P1 10175  0.94
      L1  H    10    37       P1  7948  0.99

> <Gold.Chemscore.Hbond.Weighted>
-8.2872

> <Gold.Chemscore.Metal.Weighted>
-0.0000

> <Gold.Chemscore.Lipo.Weighted>
-6.2704

> <Gold.Chemscore.Internal_Hbond.Weighted>
0.0000

> <Gold.Chemscore.DEClash.Weighted>
0.1931

> <Gold.Chemscore.DEInternal.Weighted>
2.9742

> <Gold.Chemscore.Rot.Weighted>
6.4331

> <Gold.Chemscore.Internal.Correction.Weighted>
   9.000000E+99

> <Gold.Protein.RotatedTorsions>
[ 6907 6896 6895 6894 ] final  113.55 input  -60.11 | X-H torsion
[ 7974 7965 7964 7962 ] final   31.40 input  175.53 | X-H torsion
[ 8008 7997 7996 7995 ] final   49.86 input   59.86 | X-H torsion
[ 10167 10162 10161 10158 ] final  -11.85 input  -65.29 | X-H torsion
[ 10718 10713 10712 10709 ] final  122.22 input   66.30 | X-H torsion
[ 10763 10752 10751 10750 ] final  140.07 input  -60.55 | X-H torsion
[ 11005 11000 10999 10996 ] final  149.82 input  -57.11 | X-H torsion

> <Gold.Protein.ActiveResidues>
 VAL166  LYS551  ARG553  GLY616  TRP617  ASP618  TYR619  PRO620  LYS621  CYS622 
 ASP623  PHE694  ASN695  SER759  ASP760  ASP761  ALA762  ILE779  LEU786  VAL792 
 PHE793  MET794  SER795  GLU796  ALA797  LYS798  CYS799  TRP800  GLU811  SER814 

> <Gold.Protein.RotatedAtoms>
  152.4854  133.8360  159.7127 H   0  0  0  0  0  0  0  0  0  0  0  0  # atno 6907 bound_to 6896
  150.8937  133.7200  159.2904 H   0  0  0  0  0  0  0  0  0  0  0  0  # atno 6908 bound_to 6896
  151.4664  135.1046  159.9791 H   0  0  0  0  0  0  0  0  0  0  0  0  # atno 6909 bound_to 6896
  146.1552  139.6661  142.9071 H   0  0  0  0  0  0  0  0  0  0  0  0  # atno 7974 bound_to 7965
  155.4092  140.3441  155.4262 H   0  0  0  0  0  0  0  0  0  0  0  0  # atno 8008 bound_to 7997
  156.1459  140.1556  156.8880 H   0  0  0  0  0  0  0  0  0  0  0  0  # atno 8009 bound_to 7997
  154.5010  140.0815  156.7778 H   0  0  0  0  0  0  0  0  0  0  0  0  # atno 8010 bound_to 7997
  140.7148  143.5595  150.9211 H   0  0  0  0  0  0  0  0  0  0  0  0  # atno 10167 bound_to 10162
  157.5759  131.1079  150.8280 H   0  0  0  0  0  0  0  0  0  0  0  0  # atno 10718 bound_to 10713
  153.9167  135.3005  155.3448 H   0  0  0  0  0  0  0  0  0  0  0  0  # atno 10763 bound_to 10752
  154.7596  135.4940  153.9442 H   0  0  0  0  0  0  0  0  0  0  0  0  # atno 10764 bound_to 10752
  153.1164  135.6771  153.9514 H   0  0  0  0  0  0  0  0  0  0  0  0  # atno 10765 bound_to 10752
  140.1078  134.8943  157.1891 H   0  0  0  0  0  0  0  0  0  0  0  0  # atno 11005 bound_to 11000
  145.4726  141.0436  143.2690 LP  0  0  0  0  0  0  0  0  0  0  0  0  # atno 17320 bound_to 7965
  144.7954  139.6244  143.7095 LP  0  0  0  0  0  0  0  0  0  0  0  0  # atno 17321 bound_to 7965
  139.9321  143.6481  152.3074 LP  0  0  0  0  0  0  0  0  0  0  0  0  # atno 17342 bound_to 10162
  139.6936  144.7644  151.1396 LP  0  0  0  0  0  0  0  0  0  0  0  0  # atno 17343 bound_to 10162
  156.8739  130.5155  149.5295 LP  0  0  0  0  0  0  0  0  0  0  0  0  # atno 17370 bound_to 10713
  156.0804  130.5816  150.9552 LP  0  0  0  0  0  0  0  0  0  0  0  0  # atno 17371 bound_to 10713
  140.3132  134.2999  155.7262 LP  0  0  0  0  0  0  0  0  0  0  0  0  # atno 17394 bound_to 11000
  141.2122  133.7664  156.9807 LP  0  0  0  0  0  0  0  0  0  0  0  0  # atno 17395 bound_to 11000

$$$$
