AV-unprocessed.smi:54|AV-procd|sdf|545|dock8
  -GOLD-   2262016443D 1   1.00000     0.00000
 Structure written by MMmdl.
 43 45  0  0  0  0  0  0  0  0  2 V2000
  145.4727  136.1324  161.4233 C   0  0  0  0  0  0  0  0  0  0  0  0
  146.7756  135.3603  161.1576 C   0  0  0  0  0  0  0  0  0  0  0  0
  147.4879  134.9996  162.4720 C   0  0  0  0  0  0  0  0  0  0  0  0
  147.7053  136.1647  160.2375 C   0  0  0  0  0  0  0  0  0  0  0  0
  148.1643  137.2360  160.6396 O   0  0  0  0  0  0  0  0  0  0  0  0
  147.9538  135.6015  159.0337 N   0  0  0  0  0  0  0  0  0  0  0  0
  148.7575  136.0648  157.9845 C   0  0  0  0  0  0  0  0  0  0  0  0
  148.1074  136.8281  157.1392 N   0  0  0  0  0  0  0  0  0  0  0  0
  148.9108  137.2880  156.1136 C   0  0  0  0  0  0  0  0  0  0  0  0
  150.2419  137.0438  155.9167 C   0  0  0  0  0  0  0  0  0  0  0  0
  150.7138  137.6839  154.7771 N   0  0  0  0  0  0  0  0  0  0  0  0
  149.6194  138.2970  154.3299 C   0  0  0  0  0  0  0  0  0  0  0  0
  148.5063  138.1111  155.0696 N   0  0  0  0  0  0  0  0  0  0  0  0
  147.1385  138.6716  154.8398 C   0  0  2  0  0  0  0  0  0  0  0  0
  146.2888  137.6105  154.5088 O   0  0  0  0  0  0  0  0  0  0  0  0
  145.7599  137.7654  153.1919 C   0  0  2  0  0  0  0  0  0  0  0  0
  145.6377  136.3935  152.5111 C   0  0  0  0  0  0  0  0  0  0  0  0
  145.4518  136.5582  151.1221 O   0  0  0  0  0  0  0  0  0  0  0  0
  146.7562  138.7023  152.5064 C   0  0  1  0  0  0  0  0  0  0  0  0
  146.2028  139.3987  151.4060 O   0  0  0  0  0  0  0  0  0  0  0  0
  147.1760  139.6256  153.6415 C   0  0  1  0  0  0  0  0  0  0  0  0
  146.2898  140.7125  153.8339 O   0  0  0  0  0  0  0  0  0  0  0  0
  150.9183  136.1826  156.9140 C   0  0  0  0  0  0  0  0  0  0  0  0
  152.1152  135.9370  156.7790 O   0  0  0  0  0  0  0  0  0  0  0  0
  150.1247  135.7262  157.9286 N   0  5  0  0  0  0  0  0  0  0  0  0
  146.8667  139.1374  155.7879 H   0  0  0  0  0  0  0  0  0  0  0  0
  144.7889  138.2594  153.2618 H   0  0  0  0  0  0  0  0  0  0  0  0
  147.6243  138.1350  152.1669 H   0  0  0  0  0  0  0  0  0  0  0  0
  148.1785  140.0302  153.4932 H   0  0  0  0  0  0  0  0  0  0  0  0
  144.9646  136.3839  160.4915 H   0  0  0  0  0  0  0  0  0  0  0  0
  145.6589  137.0621  161.9628 H   0  0  0  0  0  0  0  0  0  0  0  0
  144.7824  135.5369  162.0210 H   0  0  0  0  0  0  0  0  0  0  0  0
  146.5140  134.4279  160.6544 H   0  0  0  0  0  0  0  0  0  0  0  0
  148.4189  134.4635  162.2836 H   0  0  0  0  0  0  0  0  0  0  0  0
  146.8605  134.3575  163.0908 H   0  0  0  0  0  0  0  0  0  0  0  0
  147.7277  135.8886  163.0570 H   0  0  0  0  0  0  0  0  0  0  0  0
  147.5329  134.6942  158.8990 H   0  0  0  0  0  0  0  0  0  0  0  0
  149.6327  138.9039  153.4375 H   0  0  0  0  0  0  0  0  0  0  0  0
  146.5552  135.8216  152.6529 H   0  0  0  0  0  0  0  0  0  0  0  0
  144.8225  135.8075  152.9355 H   0  0  0  0  0  0  0  0  0  0  0  0
  144.8091  137.2368  150.9828 H   0  0  0  0  0  0  0  0  0  0  0  0
  145.4109  139.8278  151.6925 H   0  0  0  0  0  0  0  0  0  0  0  0
  145.4978  140.5405  153.3476 H   0  0  0  0  0  0  0  0  0  0  0  0
  1  2  1  0  0  0  0
  1 30  1  0  0  0  0
  1 31  1  0  0  0  0
  1 32  1  0  0  0  0
  2  3  1  0  0  0  0
  2  4  1  0  0  0  0
  2 33  1  0  0  0  0
  3 34  1  0  0  0  0
  3 35  1  0  0  0  0
  3 36  1  0  0  0  0
  4  5  2  0  0  0  0
  4  6  1  0  0  0  0
  6 37  1  0  0  0  0
  6  7  1  0  0  0  0
  7 25  1  0  0  0  0
  7  8  2  0  0  0  0
  8  9  1  0  0  0  0
  9 13  1  0  0  0  0
  9 10  2  0  0  0  0
 10 11  1  0  0  0  0
 10 23  1  0  0  0  0
 11 12  2  0  0  0  0
 12 13  1  0  0  0  0
 12 38  1  0  0  0  0
 13 14  1  0  0  0  0
 14 26  1  0  0  0  0
 14 21  1  0  0  0  0
 14 15  1  0  0  0  0
 15 16  1  0  0  0  0
 16 27  1  0  0  0  0
 16 17  1  0  0  0  0
 16 19  1  0  0  0  0
 17 18  1  0  0  0  0
 17 39  1  0  0  0  0
 17 40  1  0  0  0  0
 18 41  1  0  0  0  0
 19 28  1  0  0  0  0
 19 20  1  0  0  0  0
 19 21  1  0  0  0  0
 20 42  1  0  0  0  0
 21 29  1  0  0  0  0
 21 22  1  0  0  0  0
 22 43  1  0  0  0  0
 23 24  2  0  0  0  0
 23 25  1  0  0  0  0
M  CHG  1  25  -1
M  END
> <s_m_source_file>
AV-unprocessed.smi

> <i_m_source_file_index>
54

> <i_lp_mmshare_version>
43012

> <i_f3d_flags>
0

> <s_epik_input>
W0NIM11bQ0hdKFtDSDNdKUMoPU8pW05IXWMobjEpW25IXWMoPU8pYyhjMTIpbltjSF1uMltDQEBIXTNPW0NASF0oW0NIMl1bT0hdKVtDQEBIXShbT0hdKVtDQEhdM1tPSF0=

> <s_epik_cmdline>
J2VwaWtfcHl0aG9uJywgJy1waCcsICc3LjAnLCAnLXRuJywgJzgnLCAnLW1hJywgJzIwMCcsICctbWV0YWxfYmluZGluZycsICctaW1hZScsICc8aW5maWxlLm1hZT4nLCAnLW9tYWUnLCAnPG91dGZpbGUubWFlPic=

> <r_lp_tautomer_probability>
0.85571

> <r_epik_Ionization_Penalty>
1.75936

> <r_epik_Ionization_Penalty_Charging>
4.55893e-11

> <r_epik_Ionization_Penalty_Neutral>
1.75936

> <r_epik_State_Penalty>
1.72072

> <r_epik_Charging_Adjusted_Penalty>
1.72072

> <i_epik_Tot_Q>
-1

> <i_epik_Tot_abs_Q>
1

> <r_epik_Metal_State_Penalty>
0.400338

> <b_epik_Metal_Only>
1

> <s_epik_Chemistry_Notes>
This compound contains an acetal/aminal-like group ( X-CH(R)-Y where X, Y are N, S, or O) that may be acid/base labile, releasing an aldehyde.

> <s_lp_Force_Field>
OPLS_2005

> <r_lp_Energy>
58.3918

> <b_lp_Chiralities_Consistent>
1

> <s_lp_Variant>
AV-unprocessed.smi:54-17

> <Gold.Version>
5.8.1

> <Gold.Id.Protein>
6NUR|6NUR_protein|mol2

> <Gold.PLP.Fitness>
52.2645

> <Gold.PLP.PLP>
-29.9924

> <Gold.PLP.part.hbond>
-7.9756

> <Gold.PLP.part.metal>
0.0000

> <Gold.PLP.part.buried>
-6.3092

> <Gold.PLP.part.nonpolar>
-17.8928

> <Gold.PLP.part.repulsive>
0.3115

> <Gold.PLP.ligand.clash>
0.0000

> <Gold.PLP.ligand.torsion>
0.9401

> <Gold.PLP.Chemscore.Hbond>
7.0777

> <Gold.PLP.Chemscore.CHOScore>
0.9607

> <Gold.PLP.Chemscore.Metal>
0.0000

> <Gold.Chemscore.Hbonds>
donor molecule, donor type, donor heavy atom, donor atom, acceptor molecule, acceptor atom, score
      L1  H    18    41       P1 10171  1.00
      L1  H    20    42       P1 10175  1.00
      L1  H    22    43       P1 10175  1.00
      P1  H  6896  6907       L1    25  1.62
      P1  H  6931  6943       L1     5  0.78
      P1  H  6934  6947       L1     5  0.63
      P1  H 10752 10765       L1    24  0.99
      L1  C    12    38       P1  7957  0.98

> <Gold.PLP.Chemscore.Internal.Correction>
0.0371

> <Gold.Rescore>
     Score         DG    S(hbond)    S(metal)    S(lipo)     H(rot)  DE(clash)    DE(int)     intcor
     17.73     -18.67       5.43        0.00      45.63       4.02       0.00       0.94       ----

> <Gold.Chemscore.Fitness>
17.7265

> <Gold.Chemscore.DG>
-18.6744

> <Gold.Chemscore.ZeroCoef>
-5.4800

> <Gold.Chemscore.Hbond>
5.4325

> <Gold.Chemscore.Metal>
0.0000

> <Gold.Chemscore.Lipo>
45.6340

> <Gold.Chemscore.Internal_Hbond>
0.0000

> <Gold.Chemscore.DEClash>
0.0029

> <Gold.Chemscore.DEInternal>
0.9449

> <Gold.Chemscore.Rot>
4.0192

> <Gold.Chemscore.Internal.Correction>
   9.000000E+99

> <Gold.Chemscore.Hbonds>
donor molecule, donor type, donor heavy atom, donor atom, acceptor molecule, acceptor atom, score
      L1  H    18    41       P1 10171  0.91
      L1  H    20    42       P1 10175  0.49
      L1  H    22    43       P1 10175  0.90
      P1  H  6896  6907       L1    25  0.65
      P1  H  6931  6943       L1     5  0.78
      P1  H  6934  6947       L1     5  0.61
      P1  H 10752 10765       L1    24  0.92

> <Gold.Chemscore.Hbond.Weighted>
-18.1445

> <Gold.Chemscore.Metal.Weighted>
-0.0000

> <Gold.Chemscore.Lipo.Weighted>
-5.3392

> <Gold.Chemscore.Internal_Hbond.Weighted>
0.0000

> <Gold.Chemscore.DEClash.Weighted>
0.0029

> <Gold.Chemscore.DEInternal.Weighted>
0.9449

> <Gold.Chemscore.Rot.Weighted>
10.2893

> <Gold.Chemscore.Internal.Correction.Weighted>
   9.000000E+99

> <Gold.Protein.RotatedTorsions>
[ 6907 6896 6895 6894 ] final  -65.57 input  -60.11 | X-H torsion
[ 7974 7965 7964 7962 ] final -179.41 input  175.53 | X-H torsion
[ 8008 7997 7996 7995 ] final   97.65 input   59.86 | X-H torsion
[ 10167 10162 10161 10158 ] final  -81.92 input  -65.29 | X-H torsion
[ 10718 10713 10712 10709 ] final   17.24 input   66.30 | X-H torsion
[ 10763 10752 10751 10750 ] final -137.49 input  -60.55 | X-H torsion
[ 11005 11000 10999 10996 ] final   28.84 input  -57.11 | X-H torsion

> <Gold.Protein.ActiveResidues>
 VAL166  LYS551  ARG553  GLY616  TRP617  ASP618  TYR619  PRO620  LYS621  CYS622 
 ASP623  PHE694  ASN695  SER759  ASP760  ASP761  ALA762  ILE779  LEU786  VAL792 
 PHE793  MET794  SER795  GLU796  ALA797  LYS798  CYS799  TRP800  GLU811  SER814 

> <Gold.Protein.RotatedAtoms>
  150.7516  134.6142  159.6101 H   0  0  0  0  0  0  0  0  0  0  0  0  # atno 6907 bound_to 6896
  152.3467  134.7058  160.0257 H   0  0  0  0  0  0  0  0  0  0  0  0  # atno 6908 bound_to 6896
  151.7493  133.3290  159.3423 H   0  0  0  0  0  0  0  0  0  0  0  0  # atno 6909 bound_to 6896
  144.7136  140.0722  143.6429 H   0  0  0  0  0  0  0  0  0  0  0  0  # atno 7974 bound_to 7965
  156.0924  140.3255  155.7833 H   0  0  0  0  0  0  0  0  0  0  0  0  # atno 8008 bound_to 7997
  155.4975  140.0566  157.2961 H   0  0  0  0  0  0  0  0  0  0  0  0  # atno 8009 bound_to 7997
  154.4645  140.1983  156.0170 H   0  0  0  0  0  0  0  0  0  0  0  0  # atno 8010 bound_to 7997
  140.4367  143.2529  151.8683 H   0  0  0  0  0  0  0  0  0  0  0  0  # atno 10167 bound_to 10162
  157.0793  130.6381  149.5823 H   0  0  0  0  0  0  0  0  0  0  0  0  # atno 10718 bound_to 10713
  154.8660  135.3640  154.5231 H   0  0  0  0  0  0  0  0  0  0  0  0  # atno 10763 bound_to 10752
  153.5861  135.7017  153.5448 H   0  0  0  0  0  0  0  0  0  0  0  0  # atno 10764 bound_to 10752
  153.3415  135.4097  155.1537 H   0  0  0  0  0  0  0  0  0  0  0  0  # atno 10765 bound_to 10752
  140.3113  134.2646  155.7734 H   0  0  0  0  0  0  0  0  0  0  0  0  # atno 11005 bound_to 11000
  145.9773  139.2914  143.1063 LP  0  0  0  0  0  0  0  0  0  0  0  0  # atno 17320 bound_to 7965
  145.9050  140.9218  143.0483 LP  0  0  0  0  0  0  0  0  0  0  0  0  # atno 17321 bound_to 7965
  139.4787  144.5274  151.8715 LP  0  0  0  0  0  0  0  0  0  0  0  0  # atno 17342 bound_to 10162
  140.4365  144.2045  150.5889 LP  0  0  0  0  0  0  0  0  0  0  0  0  # atno 17343 bound_to 10162
  155.9928  130.4987  150.7355 LP  0  0  0  0  0  0  0  0  0  0  0  0  # atno 17370 bound_to 10713
  157.4814  131.0902  151.0532 LP  0  0  0  0  0  0  0  0  0  0  0  0  # atno 17371 bound_to 10713
  141.2107  133.7710  156.9912 LP  0  0  0  0  0  0  0  0  0  0  0  0  # atno 17394 bound_to 11000
  140.1022  134.9528  157.1940 LP  0  0  0  0  0  0  0  0  0  0  0  0  # atno 17395 bound_to 11000

$$$$
