AV-unprocessed.smi:35|AV-procd|sdf|262|dock5
  -GOLD-   2262016 23D 1   1.00000     0.00000
 Structure written by MMmdl.
 29 30  0  0  0  0  0  0  0  0  1 V2000
  152.2234  135.5040  157.0172 O   0  0  0  0  0  0  0  0  0  0  0  0
  151.7990  136.5053  156.4447 C   0  0  0  0  0  0  0  0  0  0  0  0
  152.2892  137.7702  156.7792 N   0  0  0  0  0  0  0  0  0  0  0  0
  151.8815  138.9754  156.2045 C   0  0  0  0  0  0  0  0  0  0  0  0
  152.3955  140.0331  156.5664 O   0  0  0  0  0  0  0  0  0  0  0  0
  150.8752  138.9166  155.2134 N   0  0  0  0  0  0  0  0  0  0  0  0
  150.4326  140.2181  154.5663 C   0  0  1  0  0  0  0  0  0  0  0  0
  149.4688  139.9506  153.5904 O   0  0  0  0  0  0  0  0  0  0  0  0
  148.1678  140.1382  154.1384 C   0  0  2  0  0  0  0  0  0  0  0  0
  147.1043  140.2465  153.0324 C   0  0  0  0  0  0  0  0  0  0  0  0
  147.2103  139.1453  152.1555 O   0  0  0  0  0  0  0  0  0  0  0  0
  148.3707  141.3903  154.9962 C   0  0  2  0  0  0  0  0  0  0  0  0
  148.3205  142.5576  154.1911 O   0  0  0  0  0  0  0  0  0  0  0  0
  149.7542  141.1476  155.5999 C   0  0  2  0  0  0  0  0  0  0  0  0
  150.4651  142.3498  155.8332 O   0  0  0  0  0  0  0  0  0  0  0  0
  150.3783  137.6746  154.8291 C   0  0  0  0  0  0  0  0  0  0  0  0
  150.7884  136.5143  155.3936 C   0  0  0  0  0  0  0  0  0  0  0  0
  149.9532  134.8529  154.7100 Br  0  0  0  0  0  0  0  0  0  0  0  0
  153.0018  137.8152  157.4930 H   0  0  0  0  0  0  0  0  0  0  0  0
  151.3282  140.6284  154.0958 H   0  0  0  0  0  0  0  0  0  0  0  0
  147.9284  139.3072  154.8047 H   0  0  0  0  0  0  0  0  0  0  0  0
  146.1052  140.2225  153.4683 H   0  0  0  0  0  0  0  0  0  0  0  0
  147.1971  141.1812  152.4784 H   0  0  0  0  0  0  0  0  0  0  0  0
  147.9907  139.2517  151.6333 H   0  0  0  0  0  0  0  0  0  0  0  0
  147.6059  141.4784  155.7686 H   0  0  0  0  0  0  0  0  0  0  0  0
  148.7126  143.2687  154.6753 H   0  0  0  0  0  0  0  0  0  0  0  0
  149.6379  140.6150  156.5451 H   0  0  0  0  0  0  0  0  0  0  0  0
  149.8789  143.0758  155.6804 H   0  0  0  0  0  0  0  0  0  0  0  0
  149.6365  137.5994  154.0486 H   0  0  0  0  0  0  0  0  0  0  0  0
  1  2  2  0  0  0  0
  2 17  1  0  0  0  0
  2  3  1  0  0  0  0
  3 19  1  0  0  0  0
  3  4  1  0  0  0  0
  4  5  2  0  0  0  0
  4  6  1  0  0  0  0
  6  7  1  0  0  0  0
  6 16  1  0  0  0  0
  7 14  1  0  0  0  0
  7  8  1  0  0  0  0
  7 20  1  0  0  0  0
  8  9  1  0  0  0  0
  9 10  1  0  0  0  0
  9 12  1  0  0  0  0
  9 21  1  0  0  0  0
 10 11  1  0  0  0  0
 10 22  1  0  0  0  0
 10 23  1  0  0  0  0
 11 24  1  0  0  0  0
 12 13  1  0  0  0  0
 12 14  1  0  0  0  0
 12 25  1  0  0  0  0
 13 26  1  0  0  0  0
 14 15  1  0  0  0  0
 14 27  1  0  0  0  0
 15 28  1  0  0  0  0
 16 17  2  0  0  0  0
 16 29  1  0  0  0  0
 17 18  1  0  0  0  0
M  END
> <s_m_source_file>
AV-unprocessed.smi

> <i_m_source_file_index>
35

> <i_lp_mmshare_version>
43012

> <i_f3d_flags>
0

> <s_epik_input>
Tz1jMVtuSF1jKD1PKW4oW2NIXWMxQnIpW0NAQEhdMk9bQ0BASF0oW0NIMl1bT0hdKVtDQEBIXShbT0hdKVtDQEhdMltPSF0=

> <s_epik_cmdline>
J2VwaWtfcHl0aG9uJywgJy1waCcsICc3LjAnLCAnLXRuJywgJzgnLCAnLW1hJywgJzIwMCcsICctbWV0YWxfYmluZGluZycsICctaW1hZScsICc8aW5maWxlLm1hZT4nLCAnLW9tYWUnLCAnPG91dGZpbGUubWFlPic=

> <r_lp_tautomer_probability>
0.999537

> <r_epik_Ionization_Penalty>
0.10812

> <r_epik_Ionization_Penalty_Charging>
0.108119

> <r_epik_Ionization_Penalty_Neutral>
4.93006e-07

> <r_epik_State_Penalty>
0.0979238

> <r_epik_Charging_Adjusted_Penalty>
0.206043

> <i_epik_Tot_Q>
0

> <i_epik_Tot_abs_Q>
0

> <r_epik_Metal_State_Penalty>
3.07911

> <b_epik_Metal_Only>
0

> <s_epik_Chemistry_Notes>
This compound contains an acetal/aminal-like group ( X-CH(R)-Y where X, Y are N, S, or O) that may be acid/base labile, releasing an aldehyde.

> <s_lp_Force_Field>
OPLS_2005

> <r_lp_Energy>
32.933

> <b_lp_Chiralities_Consistent>
1

> <s_lp_Variant>
AV-unprocessed.smi:35-16

> <Gold.Version>
5.8.1

> <Gold.Id.Protein>
6NUR|6NUR_protein|mol2

> <Gold.PLP.Fitness>
39.4348

> <Gold.PLP.PLP>
-24.4893

> <Gold.PLP.part.hbond>
-7.1467

> <Gold.PLP.part.metal>
0.0000

> <Gold.PLP.part.buried>
0.9736

> <Gold.PLP.part.nonpolar>
-22.0813

> <Gold.PLP.part.repulsive>
4.6298

> <Gold.PLP.ligand.clash>
0.0000

> <Gold.PLP.ligand.torsion>
0.0671

> <Gold.PLP.Chemscore.Hbond>
4.2674

> <Gold.PLP.Chemscore.CHOScore>
0.7512

> <Gold.PLP.Chemscore.Metal>
0.0000

> <Gold.Chemscore.Hbonds>
donor molecule, donor type, donor heavy atom, donor atom, acceptor molecule, acceptor atom, score
      L1  H    11    24       P1  7957  1.00
      L1  H    13    26       P1  8028  1.00
      L1  H    15    28       P1  8028  1.00
      P1  H  7997  8009       L1     5  1.00
      P1  H  8011  8017       L1    13  0.02
      P1  H 10752 10764       L1     1  0.19
      L1  C    16    29       P1  7948  0.73

> <Gold.PLP.Chemscore.Internal.Correction>
0.0239

> <Gold.Rescore>
     Score         DG    S(hbond)    S(metal)    S(lipo)     H(rot)  DE(clash)    DE(int)     intcor
     11.18     -14.09       3.96        0.00      40.85       3.67       2.77       0.14       ----

> <Gold.Chemscore.Fitness>
11.1794

> <Gold.Chemscore.DG>
-14.0921

> <Gold.Chemscore.ZeroCoef>
-5.4800

> <Gold.Chemscore.Hbond>
3.9605

> <Gold.Chemscore.Metal>
0.0000

> <Gold.Chemscore.Lipo>
40.8501

> <Gold.Chemscore.Internal_Hbond>
0.0000

> <Gold.Chemscore.DEClash>
2.7707

> <Gold.Chemscore.DEInternal>
0.1420

> <Gold.Chemscore.Rot>
3.6701

> <Gold.Chemscore.Internal.Correction>
   9.000000E+99

> <Gold.Chemscore.Hbonds>
donor molecule, donor type, donor heavy atom, donor atom, acceptor molecule, acceptor atom, score
      L1  H    11    24       P1  7957  0.96
      L1  H    13    26       P1  8028  1.00
      L1  H    15    28       P1  8028  1.00
      P1  H  7997  8009       L1     5  0.91
      P1  H  8011  8017       L1    13  0.01

> <Gold.Chemscore.Hbond.Weighted>
-13.2281

> <Gold.Chemscore.Metal.Weighted>
-0.0000

> <Gold.Chemscore.Lipo.Weighted>
-4.7795

> <Gold.Chemscore.Internal_Hbond.Weighted>
0.0000

> <Gold.Chemscore.DEClash.Weighted>
2.7707

> <Gold.Chemscore.DEInternal.Weighted>
0.1420

> <Gold.Chemscore.Rot.Weighted>
9.3955

> <Gold.Chemscore.Internal.Correction.Weighted>
   9.000000E+99

> <Gold.Protein.RotatedTorsions>
[ 6907 6896 6895 6894 ] final   23.39 input  -60.11 | X-H torsion
[ 7974 7965 7964 7962 ] final  -15.49 input  175.53 | X-H torsion
[ 8008 7997 7996 7995 ] final -170.21 input   59.86 | X-H torsion
[ 10167 10162 10161 10158 ] final   86.67 input  -65.29 | X-H torsion
[ 10718 10713 10712 10709 ] final  -89.82 input   66.30 | X-H torsion
[ 10763 10752 10751 10750 ] final    6.87 input  -60.55 | X-H torsion
[ 11005 11000 10999 10996 ] final  154.25 input  -57.11 | X-H torsion

> <Gold.Protein.ActiveResidues>
 VAL166  LYS551  ARG553  GLY616  TRP617  ASP618  TYR619  PRO620  LYS621  CYS622 
 ASP623  PHE694  ASN695  SER759  ASP760  ASP761  ALA762  ILE779  LEU786  VAL792 
 PHE793  MET794  SER795  GLU796  ALA797  LYS798  CYS799  TRP800  GLU811  SER814 

> <Gold.Protein.RotatedAtoms>
  151.9417  135.0210  160.0535 H   0  0  0  0  0  0  0  0  0  0  0  0  # atno 6907 bound_to 6896
  152.2031  133.4851  159.5077 H   0  0  0  0  0  0  0  0  0  0  0  0  # atno 6908 bound_to 6896
  150.6959  134.1482  159.4173 H   0  0  0  0  0  0  0  0  0  0  0  0  # atno 6909 bound_to 6896
  146.2029  140.3500  142.8417 H   0  0  0  0  0  0  0  0  0  0  0  0  # atno 7974 bound_to 7965
  155.9153  140.1064  157.1248 H   0  0  0  0  0  0  0  0  0  0  0  0  # atno 8008 bound_to 7997
  154.4045  140.1266  156.4674 H   0  0  0  0  0  0  0  0  0  0  0  0  # atno 8009 bound_to 7997
  155.7261  140.3469  155.5040 H   0  0  0  0  0  0  0  0  0  0  0  0  # atno 8010 bound_to 7997
  139.8852  144.6417  150.8799 H   0  0  0  0  0  0  0  0  0  0  0  0  # atno 10167 bound_to 10162
  155.9985  130.4886  150.5230 H   0  0  0  0  0  0  0  0  0  0  0  0  # atno 10718 bound_to 10713
  153.2427  135.6905  153.7765 H   0  0  0  0  0  0  0  0  0  0  0  0  # atno 10763 bound_to 10752
  153.6889  135.3316  155.3198 H   0  0  0  0  0  0  0  0  0  0  0  0  # atno 10764 bound_to 10752
  154.8362  135.4540  154.1355 H   0  0  0  0  0  0  0  0  0  0  0  0  # atno 10765 bound_to 10752
  140.1472  134.8699  157.2408 H   0  0  0  0  0  0  0  0  0  0  0  0  # atno 11005 bound_to 11000
  144.8726  140.7292  143.6037 LP  0  0  0  0  0  0  0  0  0  0  0  0  # atno 17320 bound_to 7965
  145.3420  139.1729  143.4481 LP  0  0  0  0  0  0  0  0  0  0  0  0  # atno 17321 bound_to 7965
  140.7737  143.3554  151.1932 LP  0  0  0  0  0  0  0  0  0  0  0  0  # atno 17342 bound_to 10162
  139.7160  143.9300  152.2967 LP  0  0  0  0  0  0  0  0  0  0  0  0  # atno 17343 bound_to 10162
  157.3189  131.0678  151.1947 LP  0  0  0  0  0  0  0  0  0  0  0  0  # atno 17370 bound_to 10713
  157.2867  130.6776  149.6093 LP  0  0  0  0  0  0  0  0  0  0  0  0  # atno 17371 bound_to 10713
  140.2649  134.3528  155.7393 LP  0  0  0  0  0  0  0  0  0  0  0  0  # atno 17394 bound_to 11000
  141.2194  133.7390  156.9136 LP  0  0  0  0  0  0  0  0  0  0  0  0  # atno 17395 bound_to 11000

$$$$
