AV-unprocessed.smi:3123|AV-procd|sdf|11900|dock5
  -GOLD-   2272017283D 1   1.00000     0.00000
 Structure written by MMmdl.
 30 31  0  0  0  0  0  0  0  0  2 V2000
  147.1949  138.5499  151.7133 N   0  3  0  0  0  0  0  0  0  0  0  0
  146.8077  138.8366  153.1038 C   0  0  0  0  0  0  0  0  0  0  0  0
  147.8885  139.6310  153.8069 C   0  0  0  0  0  0  0  0  0  0  0  0
  147.9293  141.0359  153.7030 C   0  0  0  0  0  0  0  0  0  0  0  0
  148.9584  141.7274  154.3713 C   0  0  0  0  0  0  0  0  0  0  0  0
  149.9088  141.1106  155.1051 N   0  0  0  0  0  0  0  0  0  0  0  0
  149.8687  139.7601  155.2057 C   0  0  0  0  0  0  0  0  0  0  0  0
  150.8522  139.1181  155.9710 N   0  0  0  0  0  0  0  0  0  0  0  0
  152.0532  138.7871  155.2139 C   0  0  0  0  0  0  0  0  0  0  0  0
  153.0228  137.9775  156.0928 C   0  0  0  0  0  0  0  0  0  0  0  0
  153.3149  138.7077  157.2811 O   0  0  0  0  0  0  0  0  0  0  0  0
  152.1450  138.9655  158.0527 C   0  0  0  0  0  0  0  0  0  0  0  0
  151.1539  139.8007  157.2236 C   0  0  0  0  0  0  0  0  0  0  0  0
  148.8784  138.9802  154.5714 C   0  0  0  0  0  0  0  0  0  0  0  0
  147.8586  139.2420  151.3966 H   0  0  0  0  0  0  0  0  0  0  0  0
  146.3741  138.5739  151.1254 H   0  0  0  0  0  0  0  0  0  0  0  0
  145.8708  139.3944  153.1115 H   0  0  0  0  0  0  0  0  0  0  0  0
  146.6297  137.8985  153.6306 H   0  0  0  0  0  0  0  0  0  0  0  0
  147.1916  141.5756  153.1274 H   0  0  0  0  0  0  0  0  0  0  0  0
  149.0204  142.8041  154.3143 H   0  0  0  0  0  0  0  0  0  0  0  0
  151.7843  138.2135  154.3261 H   0  0  0  0  0  0  0  0  0  0  0  0
  152.5396  139.7023  154.8731 H   0  0  0  0  0  0  0  0  0  0  0  0
  152.5984  137.0048  156.3462 H   0  0  0  0  0  0  0  0  0  0  0  0
  153.9512  137.7895  155.5534 H   0  0  0  0  0  0  0  0  0  0  0  0
  151.6916  138.0253  158.3706 H   0  0  0  0  0  0  0  0  0  0  0  0
  152.4270  139.5050  158.9569 H   0  0  0  0  0  0  0  0  0  0  0  0
  151.5819  140.7828  157.0171 H   0  0  0  0  0  0  0  0  0  0  0  0
  150.2344  139.9606  157.7883 H   0  0  0  0  0  0  0  0  0  0  0  0
  148.8791  137.9043  154.6736 H   0  0  0  0  0  0  0  0  0  0  0  0
  147.6145  137.6324  151.6652 H   0  0  0  0  0  0  0  0  0  0  0  0
  1  2  1  0  0  0  0
  1 15  1  0  0  0  0
  1 16  1  0  0  0  0
  1 30  1  0  0  0  0
  2  3  1  0  0  0  0
  2 17  1  0  0  0  0
  2 18  1  0  0  0  0
  3 14  1  0  0  0  0
  3  4  2  0  0  0  0
  4  5  1  0  0  0  0
  4 19  1  0  0  0  0
  5  6  2  0  0  0  0
  5 20  1  0  0  0  0
  6  7  1  0  0  0  0
  7  8  1  0  0  0  0
  7 14  2  0  0  0  0
  8 13  1  0  0  0  0
  8  9  1  0  0  0  0
  9 10  1  0  0  0  0
  9 21  1  0  0  0  0
  9 22  1  0  0  0  0
 10 11  1  0  0  0  0
 10 23  1  0  0  0  0
 10 24  1  0  0  0  0
 11 12  1  0  0  0  0
 12 13  1  0  0  0  0
 12 25  1  0  0  0  0
 12 26  1  0  0  0  0
 13 27  1  0  0  0  0
 13 28  1  0  0  0  0
 14 29  1  0  0  0  0
M  CHG  1   1   1
M  END
> <s_m_source_file>
AV-unprocessed.smi

> <i_m_source_file_index>
3123

> <i_lp_mmshare_version>
43012

> <i_f3d_flags>
0

> <s_epik_input>
W05IMl1bQ0gyXWMxW2NIXVtjSF1uYyhbY0hdMSlOMltDSDJdW0NIMl1PW0NIMl1bQ0gyXTI=

> <s_epik_cmdline>
J2VwaWtfcHl0aG9uJywgJy1waCcsICc3LjAnLCAnLXRuJywgJzgnLCAnLW1hJywgJzIwMCcsICctbWV0YWxfYmluZGluZycsICctaW1hZScsICc8aW5maWxlLm1hZT4nLCAnLW9tYWUnLCAnPG91dGZpbGUubWFlPic=

> <r_lp_tautomer_probability>
1

> <r_epik_Ionization_Penalty>
0.0770075

> <r_epik_Ionization_Penalty_Charging>
0.0770037

> <r_epik_Ionization_Penalty_Neutral>
3.77435e-06

> <r_epik_State_Penalty>
0.00932976

> <r_epik_Charging_Adjusted_Penalty>
0.0863335

> <i_epik_Tot_Q>
1

> <i_epik_Tot_abs_Q>
1

> <r_epik_Metal_State_Penalty>
0.00963217

> <b_epik_Metal_Only>
0

> <s_lp_Force_Field>
OPLS_2005

> <r_lp_Energy>
15.1833

> <b_lp_Chiralities_Consistent>
1

> <s_lp_Variant>
AV-unprocessed.smi:3123-1

> <Gold.Version>
5.8.1

> <Gold.Id.Protein>
6NUR|6NUR_protein|mol2

> <Gold.PLP.Fitness>
37.9158

> <Gold.PLP.PLP>
-24.6734

> <Gold.PLP.part.hbond>
-3.7042

> <Gold.PLP.part.metal>
0.0000

> <Gold.PLP.part.buried>
-1.5411

> <Gold.PLP.part.nonpolar>
-20.5196

> <Gold.PLP.part.repulsive>
0.2551

> <Gold.PLP.ligand.clash>
0.0000

> <Gold.PLP.ligand.torsion>
0.9756

> <Gold.PLP.Chemscore.Hbond>
4.0304

> <Gold.PLP.Chemscore.CHOScore>
1.0000

> <Gold.PLP.Chemscore.Metal>
0.0000

> <Gold.Chemscore.Hbonds>
donor molecule, donor type, donor heavy atom, donor atom, acceptor molecule, acceptor atom, score
      L1  H     1    15       P1  7957  1.00
      L1  H     1    30       P1  7948  2.00
      P1  H  7989  7998       L1     6  0.06
      P1  H  7997  8009       L1    11  1.00
      L1  C     5    20       P1  8028  1.00

> <Gold.PLP.Chemscore.Internal.Correction>
0.1022

> <Gold.Rescore>
     Score         DG    S(hbond)    S(metal)    S(lipo)     H(rot)  DE(clash)    DE(int)     intcor
     16.78     -18.08       2.78        0.00      57.15       1.32       0.27       1.02       ----

> <Gold.Chemscore.Fitness>
16.7832

> <Gold.Chemscore.DG>
-18.0769

> <Gold.Chemscore.ZeroCoef>
-5.4800

> <Gold.Chemscore.Hbond>
2.7780

> <Gold.Chemscore.Metal>
0.0000

> <Gold.Chemscore.Lipo>
57.1517

> <Gold.Chemscore.Internal_Hbond>
0.0000

> <Gold.Chemscore.DEClash>
0.2713

> <Gold.Chemscore.DEInternal>
1.0224

> <Gold.Chemscore.Rot>
1.3158

> <Gold.Chemscore.Internal.Correction>
   9.000000E+99

> <Gold.Chemscore.Hbonds>
donor molecule, donor type, donor heavy atom, donor atom, acceptor molecule, acceptor atom, score
      L1  H     1    15       P1  7957  0.87
      L1  H     1    30       P1  7948  0.99
      P1  H  7997  8009       L1    11  0.76

> <Gold.Chemscore.Hbond.Weighted>
-9.2786

> <Gold.Chemscore.Metal.Weighted>
-0.0000

> <Gold.Chemscore.Lipo.Weighted>
-6.6867

> <Gold.Chemscore.Internal_Hbond.Weighted>
0.0000

> <Gold.Chemscore.DEClash.Weighted>
0.2713

> <Gold.Chemscore.DEInternal.Weighted>
1.0224

> <Gold.Chemscore.Rot.Weighted>
3.3684

> <Gold.Chemscore.Internal.Correction.Weighted>
   9.000000E+99

> <Gold.Protein.RotatedTorsions>
[ 6907 6896 6895 6894 ] final  163.53 input  -60.11 | X-H torsion
[ 7974 7965 7964 7962 ] final -102.63 input  175.53 | X-H torsion
[ 8008 7997 7996 7995 ] final  157.91 input   59.86 | X-H torsion
[ 10167 10162 10161 10158 ] final  -55.14 input  -65.29 | X-H torsion
[ 10718 10713 10712 10709 ] final  168.57 input   66.30 | X-H torsion
[ 10763 10752 10751 10750 ] final  112.12 input  -60.55 | X-H torsion
[ 11005 11000 10999 10996 ] final  -77.14 input  -57.11 | X-H torsion

> <Gold.Protein.ActiveResidues>
 VAL166  LYS551  ARG553  GLY616  TRP617  ASP618  TYR619  PRO620  LYS621  CYS622 
 ASP623  PHE694  ASN695  SER759  ASP760  ASP761  ALA762  ILE779  LEU786  VAL792 
 PHE793  MET794  SER795  GLU796  ALA797  LYS798  CYS799  TRP800  GLU811  SER814 

> <Gold.Protein.RotatedAtoms>
  151.9238  133.3592  159.3906 H   0  0  0  0  0  0  0  0  0  0  0  0  # atno 6907 bound_to 6896
  150.7031  134.4608  159.5389 H   0  0  0  0  0  0  0  0  0  0  0  0  # atno 6908 bound_to 6896
  152.2236  134.8389  160.0533 H   0  0  0  0  0  0  0  0  0  0  0  0  # atno 6909 bound_to 6896
  145.2662  140.9285  143.3012 H   0  0  0  0  0  0  0  0  0  0  0  0  # atno 7974 bound_to 7965
  156.2335  140.1872  156.7180 H   0  0  0  0  0  0  0  0  0  0  0  0  # atno 8008 bound_to 7997
  154.6065  140.0628  156.9465 H   0  0  0  0  0  0  0  0  0  0  0  0  # atno 8009 bound_to 7997
  155.2087  140.3298  155.4334 H   0  0  0  0  0  0  0  0  0  0  0  0  # atno 8010 bound_to 7997
  140.6391  143.2498  151.5037 H   0  0  0  0  0  0  0  0  0  0  0  0  # atno 10167 bound_to 10162
  157.0352  131.0271  151.2732 H   0  0  0  0  0  0  0  0  0  0  0  0  # atno 10718 bound_to 10713
  153.4732  135.3696  155.2402 H   0  0  0  0  0  0  0  0  0  0  0  0  # atno 10763 bound_to 10752
  154.8756  135.3936  154.3787 H   0  0  0  0  0  0  0  0  0  0  0  0  # atno 10764 bound_to 10752
  153.4379  135.7083  153.6253 H   0  0  0  0  0  0  0  0  0  0  0  0  # atno 10765 bound_to 10752
  141.1658  133.7011  156.7776 H   0  0  0  0  0  0  0  0  0  0  0  0  # atno 11005 bound_to 11000
  144.9375  139.4227  143.6465 LP  0  0  0  0  0  0  0  0  0  0  0  0  # atno 17320 bound_to 7965
  146.3260  139.8317  142.8907 LP  0  0  0  0  0  0  0  0  0  0  0  0  # atno 17321 bound_to 7965
  139.5601  144.2179  152.1676 LP  0  0  0  0  0  0  0  0  0  0  0  0  # atno 17342 bound_to 10162
  140.1444  144.5173  150.6725 LP  0  0  0  0  0  0  0  0  0  0  0  0  # atno 17343 bound_to 10162
  157.5147  130.7960  149.7743 LP  0  0  0  0  0  0  0  0  0  0  0  0  # atno 17370 bound_to 10713
  156.0056  130.3857  150.2443 LP  0  0  0  0  0  0  0  0  0  0  0  0  # atno 17371 bound_to 10713
  140.2418  134.8607  157.3581 LP  0  0  0  0  0  0  0  0  0  0  0  0  # atno 17394 bound_to 11000
  140.1788  134.4515  155.7785 LP  0  0  0  0  0  0  0  0  0  0  0  0  # atno 17395 bound_to 11000

$$$$
