AV-unprocessed.smi:2327|AV-procd|sdf|9298|dock3
  -GOLD-   2272012523D 1   1.00000     0.00000
 Structure written by MMmdl.
 40 41  0  0  0  0  0  0  0  0  1 V2000
  152.7801  139.0554  154.8363 C   0  0  0  0  0  0  0  0  0  0  0  0
  151.3062  138.8259  154.9562 C   0  0  0  0  0  0  0  0  0  0  0  0
  150.6640  138.0584  155.8954 C   0  0  0  0  0  0  0  0  0  0  0  0
  148.9372  138.0622  155.6666 S   0  0  0  0  0  0  0  0  0  0  0  0
  149.1532  139.1215  154.2769 C   0  0  0  0  0  0  0  0  0  0  0  0
  148.0088  139.6565  153.4687 C   0  0  2  0  0  0  0  0  0  0  0  0
  147.7301  141.1370  153.7638 C   0  0  0  0  0  0  0  0  0  0  0  0
  146.7459  138.7736  153.5580 C   0  0  0  0  0  0  0  0  0  0  0  0
  146.9039  137.5226  152.8247 N   0  0  0  0  0  0  0  0  0  0  0  0
  145.8985  136.7489  152.3850 C   0  0  0  0  0  0  0  0  0  0  0  0
  144.7184  136.9432  152.6699 O   0  0  0  0  0  0  0  0  0  0  0  0
  146.2837  135.7241  151.6041 N   0  0  0  0  0  0  0  0  0  0  0  0
  145.4380  134.7088  150.9724 C   0  0  0  0  0  0  0  0  0  0  0  0
  144.3178  134.2945  151.9379 C   0  0  0  0  0  0  0  0  0  0  0  0
  143.5011  133.1304  151.3544 C   0  0  0  0  0  0  0  0  0  0  0  0
  144.3598  132.0338  151.0598 O   0  0  0  0  0  0  0  0  0  0  0  0
  145.3403  132.3457  150.0759 C   0  0  0  0  0  0  0  0  0  0  0  0
  146.2601  133.4678  150.5840 C   0  0  0  0  0  0  0  0  0  0  0  0
  150.4335  139.4295  154.0466 N   0  0  0  0  0  0  0  0  0  0  0  0
  153.3375  138.4494  155.5509 H   0  0  0  0  0  0  0  0  0  0  0  0
  153.0320  140.0997  155.0220 H   0  0  0  0  0  0  0  0  0  0  0  0
  153.1390  138.8000  153.8390 H   0  0  0  0  0  0  0  0  0  0  0  0
  151.1000  137.4917  156.7047 H   0  0  0  0  0  0  0  0  0  0  0  0
  148.3357  139.6180  152.4284 H   0  0  0  0  0  0  0  0  0  0  0  0
  148.6187  141.7452  153.5923 H   0  0  0  0  0  0  0  0  0  0  0  0
  147.4196  141.2837  154.7988 H   0  0  0  0  0  0  0  0  0  0  0  0
  146.9376  141.5219  153.1215 H   0  0  0  0  0  0  0  0  0  0  0  0
  146.5533  138.5154  154.5997 H   0  0  0  0  0  0  0  0  0  0  0  0
  145.8671  139.3170  153.2069 H   0  0  0  0  0  0  0  0  0  0  0  0
  147.8445  137.2694  152.5591 H   0  0  0  0  0  0  0  0  0  0  0  0
  147.2792  135.5763  151.5194 H   0  0  0  0  0  0  0  0  0  0  0  0
  144.9664  135.1218  150.0783 H   0  0  0  0  0  0  0  0  0  0  0  0
  144.7443  133.9878  152.8942 H   0  0  0  0  0  0  0  0  0  0  0  0
  143.6638  135.1428  152.1443 H   0  0  0  0  0  0  0  0  0  0  0  0
  142.7482  132.8050  152.0725 H   0  0  0  0  0  0  0  0  0  0  0  0
  142.9682  133.4416  150.4544 H   0  0  0  0  0  0  0  0  0  0  0  0
  145.9247  131.4499  149.8656 H   0  0  0  0  0  0  0  0  0  0  0  0
  144.8546  132.6347  149.1424 H   0  0  0  0  0  0  0  0  0  0  0  0
  146.9957  133.7175  149.8187 H   0  0  0  0  0  0  0  0  0  0  0  0
  146.8198  133.1087  151.4487 H   0  0  0  0  0  0  0  0  0  0  0  0
  1  2  1  0  0  0  0
  1 20  1  0  0  0  0
  1 21  1  0  0  0  0
  1 22  1  0  0  0  0
  2 19  1  0  0  0  0
  2  3  2  0  0  0  0
  3  4  1  0  0  0  0
  3 23  1  0  0  0  0
  4  5  1  0  0  0  0
  5  6  1  0  0  0  0
  5 19  2  0  0  0  0
  6  7  1  0  0  0  0
  6  8  1  0  0  0  0
  6 24  1  0  0  0  0
  7 25  1  0  0  0  0
  7 26  1  0  0  0  0
  7 27  1  0  0  0  0
  8  9  1  0  0  0  0
  8 28  1  0  0  0  0
  8 29  1  0  0  0  0
  9 10  1  0  0  0  0
  9 30  1  0  0  0  0
 10 11  2  0  0  0  0
 10 12  1  0  0  0  0
 12 13  1  0  0  0  0
 12 31  1  0  0  0  0
 13 18  1  0  0  0  0
 13 14  1  0  0  0  0
 13 32  1  0  0  0  0
 14 15  1  0  0  0  0
 14 33  1  0  0  0  0
 14 34  1  0  0  0  0
 15 16  1  0  0  0  0
 15 35  1  0  0  0  0
 15 36  1  0  0  0  0
 16 17  1  0  0  0  0
 17 18  1  0  0  0  0
 17 37  1  0  0  0  0
 17 38  1  0  0  0  0
 18 39  1  0  0  0  0
 18 40  1  0  0  0  0
M  END
> <s_m_source_file>
AV-unprocessed.smi

> <i_m_source_file_index>
2327

> <i_lp_mmshare_version>
43012

> <i_f3d_flags>
0

> <s_epik_input>
W0NIM11jMVtjSF1zYyhuMSlbQ0BIXShbQ0gzXSlbQ0gyXVtOSF1DKD1PKVtOSF1bQ0hdMltDSDJdW0NIMl1PW0NIMl1bQ0gyXTI=

> <s_epik_cmdline>
J2VwaWtfcHl0aG9uJywgJy1waCcsICc3LjAnLCAnLXRuJywgJzgnLCAnLW1hJywgJzIwMCcsICctbWV0YWxfYmluZGluZycsICctaW1hZScsICc8aW5maWxlLm1hZT4nLCAnLW9tYWUnLCAnPG91dGZpbGUubWFlPic=

> <r_epik_Ionization_Penalty>
0.0015425

> <r_epik_Ionization_Penalty_Charging>
0

> <r_epik_Ionization_Penalty_Neutral>
0.0015425

> <r_epik_State_Penalty>
0.000998134

> <r_epik_Charging_Adjusted_Penalty>
0.000998134

> <i_epik_Tot_Q>
0

> <i_epik_Tot_abs_Q>
0

> <r_epik_Metal_State_Penalty>
-0

> <b_epik_Metal_Only>
0

> <s_lp_Force_Field>
OPLS_2005

> <r_lp_Energy>
7.05585

> <b_lp_Chiralities_Consistent>
1

> <s_lp_Variant>
AV-unprocessed.smi:2327-1

> <Gold.Version>
5.8.1

> <Gold.Id.Protein>
6NUR|6NUR_protein|mol2

> <Gold.PLP.Fitness>
38.4418

> <Gold.PLP.PLP>
-31.5483

> <Gold.PLP.part.hbond>
-3.0000

> <Gold.PLP.part.metal>
0.0000

> <Gold.PLP.part.buried>
-2.5439

> <Gold.PLP.part.nonpolar>
-26.6354

> <Gold.PLP.part.repulsive>
0.7404

> <Gold.PLP.ligand.clash>
0.0000

> <Gold.PLP.ligand.torsion>
1.0642

> <Gold.PLP.Chemscore.Hbond>
2.9600

> <Gold.PLP.Chemscore.CHOScore>
0.0000

> <Gold.PLP.Chemscore.Metal>
0.0000

> <Gold.Chemscore.Hbonds>
donor molecule, donor type, donor heavy atom, donor atom, acceptor molecule, acceptor atom, score
      L1  H     9    30       P1  7948  1.00
      L1  H    12    31       P1  7948  0.96
      P1  H  7989  7998       L1    19  0.85

> <Gold.PLP.Chemscore.Internal.Correction>
0.1419

> <Gold.Rescore>
     Score         DG    S(hbond)    S(metal)    S(lipo)     H(rot)  DE(clash)    DE(int)     intcor
     16.61     -20.31       2.78        0.00      80.99       1.53       1.23       2.47       ----

> <Gold.Chemscore.Fitness>
16.6051

> <Gold.Chemscore.DG>
-20.3105

> <Gold.Chemscore.ZeroCoef>
-5.4800

> <Gold.Chemscore.Hbond>
2.7778

> <Gold.Chemscore.Metal>
0.0000

> <Gold.Chemscore.Lipo>
80.9920

> <Gold.Chemscore.Internal_Hbond>
0.0000

> <Gold.Chemscore.DEClash>
1.2337

> <Gold.Chemscore.DEInternal>
2.4716

> <Gold.Chemscore.Rot>
1.5325

> <Gold.Chemscore.Internal.Correction>
   9.000000E+99

> <Gold.Chemscore.Hbonds>
donor molecule, donor type, donor heavy atom, donor atom, acceptor molecule, acceptor atom, score
      L1  H     9    30       P1  7948  0.96
      L1  H    12    31       P1  7948  0.91
      P1  H  7989  7998       L1    19  0.14

> <Gold.Chemscore.Hbond.Weighted>
-9.2777

> <Gold.Chemscore.Metal.Weighted>
-0.0000

> <Gold.Chemscore.Lipo.Weighted>
-9.4761

> <Gold.Chemscore.Internal_Hbond.Weighted>
0.0000

> <Gold.Chemscore.DEClash.Weighted>
1.2337

> <Gold.Chemscore.DEInternal.Weighted>
2.4716

> <Gold.Chemscore.Rot.Weighted>
3.9233

> <Gold.Chemscore.Internal.Correction.Weighted>
   9.000000E+99

> <Gold.Protein.RotatedTorsions>
[ 6907 6896 6895 6894 ] final   51.67 input  -60.11 | X-H torsion
[ 7974 7965 7964 7962 ] final  -97.90 input  175.53 | X-H torsion
[ 8008 7997 7996 7995 ] final   94.36 input   59.86 | X-H torsion
[ 10167 10162 10161 10158 ] final  -11.73 input  -65.29 | X-H torsion
[ 10718 10713 10712 10709 ] final  -66.76 input   66.30 | X-H torsion
[ 10763 10752 10751 10750 ] final    2.48 input  -60.55 | X-H torsion
[ 11005 11000 10999 10996 ] final   52.27 input  -57.11 | X-H torsion

> <Gold.Protein.ActiveResidues>
 VAL166  LYS551  ARG553  GLY616  TRP617  ASP618  TYR619  PRO620  LYS621  CYS622 
 ASP623  PHE694  ASN695  SER759  ASP760  ASP761  ALA762  ILE779  LEU786  VAL792 
 PHE793  MET794  SER795  GLU796  ALA797  LYS798  CYS799  TRP800  GLU811  SER814 

> <Gold.Protein.RotatedAtoms>
  152.3152  134.7449  160.0326 H   0  0  0  0  0  0  0  0  0  0  0  0  # atno 6907 bound_to 6896
  151.7916  133.3354  159.3509 H   0  0  0  0  0  0  0  0  0  0  0  0  # atno 6908 bound_to 6896
  150.7340  134.5768  159.5962 H   0  0  0  0  0  0  0  0  0  0  0  0  # atno 6909 bound_to 6896
  145.3277  140.9435  143.2679 H   0  0  0  0  0  0  0  0  0  0  0  0  # atno 7974 bound_to 7965
  156.0570  140.3301  155.7417 H   0  0  0  0  0  0  0  0  0  0  0  0  # atno 8008 bound_to 7997
  155.5513  140.0610  157.2867 H   0  0  0  0  0  0  0  0  0  0  0  0  # atno 8009 bound_to 7997
  154.4463  140.1893  156.0677 H   0  0  0  0  0  0  0  0  0  0  0  0  # atno 8010 bound_to 7997
  140.7145  143.5608  150.9198 H   0  0  0  0  0  0  0  0  0  0  0  0  # atno 10167 bound_to 10162
  156.0595  130.4267  150.1755 H   0  0  0  0  0  0  0  0  0  0  0  0  # atno 10718 bound_to 10713
  153.2950  135.6951  153.7256 H   0  0  0  0  0  0  0  0  0  0  0  0  # atno 10763 bound_to 10752
  153.6192  135.3430  155.3006 H   0  0  0  0  0  0  0  0  0  0  0  0  # atno 10764 bound_to 10752
  154.8535  135.4382  154.2045 H   0  0  0  0  0  0  0  0  0  0  0  0  # atno 10765 bound_to 10752
  140.0863  134.5269  155.8896 H   0  0  0  0  0  0  0  0  0  0  0  0  # atno 11005 bound_to 11000
  144.8889  139.4802  143.6687 LP  0  0  0  0  0  0  0  0  0  0  0  0  # atno 17320 bound_to 7965
  146.3058  139.7575  142.9057 LP  0  0  0  0  0  0  0  0  0  0  0  0  # atno 17321 bound_to 7965
  139.9333  143.6467  152.3071 LP  0  0  0  0  0  0  0  0  0  0  0  0  # atno 17342 bound_to 10162
  139.6926  144.7645  151.1412 LP  0  0  0  0  0  0  0  0  0  0  0  0  # atno 17343 bound_to 10162
  156.9826  130.9869  151.3434 LP  0  0  0  0  0  0  0  0  0  0  0  0  # atno 17370 bound_to 10713
  157.5592  130.8234  149.8243 LP  0  0  0  0  0  0  0  0  0  0  0  0  # atno 17371 bound_to 10713
  141.2063  133.6654  156.6237 LP  0  0  0  0  0  0  0  0  0  0  0  0  # atno 17394 bound_to 11000
  140.3415  134.7845  157.4401 LP  0  0  0  0  0  0  0  0  0  0  0  0  # atno 17395 bound_to 11000

$$$$
