AV-unprocessed.smi:2632|AV-procd|sdf|10251|dock6
  -GOLD-   2272014263D 1   1.00000     0.00000
 Structure written by MMmdl.
 37 38  0  0  0  0  0  0  0  0  2 V2000
  147.6966  135.9608  161.4024 C   0  0  0  0  0  0  0  0  0  0  0  0
  147.8646  135.6092  160.0410 O   0  0  0  0  0  0  0  0  0  0  0  0
  148.8839  136.3617  159.4051 C   0  0  0  0  0  0  0  0  0  0  0  0
  148.7633  136.2225  157.8776 C   0  0  0  0  0  0  0  0  0  0  0  0
  149.8947  136.8634  157.1737 N   0  0  0  0  0  0  0  0  0  0  0  0
  149.8746  138.2704  156.9814 C   0  0  0  0  0  0  0  0  0  0  0  0
  148.8103  139.0206  157.4544 N   0  0  0  0  0  0  0  0  0  0  0  0
  150.9041  138.8665  156.3391 C   0  0  0  0  0  0  0  0  0  0  0  0
  151.0659  140.6093  156.0211 S   0  0  0  0  0  0  0  0  0  0  0  0
  151.5294  141.1962  157.6169 C   0  0  0  0  0  0  0  0  0  0  0  0
  151.4151  142.5662  157.9238 C   0  0  0  0  0  0  0  0  0  0  0  0
  151.7780  143.0315  159.2029 C   0  0  0  0  0  0  0  0  0  0  0  0
  152.2581  142.1295  160.1752 C   0  0  0  0  0  0  0  0  0  0  0  0
  152.6436  142.6360  161.5497 C   0  0  0  0  0  0  0  0  0  0  0  0
  152.3725  140.7585  159.8629 C   0  0  0  0  0  0  0  0  0  0  0  0
  152.0095  140.2921  158.5846 C   0  0  0  0  0  0  0  0  0  0  0  0
  152.0299  138.0730  155.8422 C   0  0  0  0  0  0  0  0  0  0  0  0
  152.9700  138.5999  155.2456 O   0  0  0  0  0  0  0  0  0  0  0  0
  151.9816  136.7333  156.0775 N   0  5  0  0  0  0  0  0  0  0  0  0
  150.9537  136.1139  156.7313 C   0  0  0  0  0  0  0  0  0  0  0  0
  150.9572  134.8985  156.9309 O   0  0  0  0  0  0  0  0  0  0  0  0
  146.9017  135.3572  161.8401 H   0  0  0  0  0  0  0  0  0  0  0  0
  147.4198  137.0104  161.5079 H   0  0  0  0  0  0  0  0  0  0  0  0
  148.6094  135.7799  161.9716 H   0  0  0  0  0  0  0  0  0  0  0  0
  148.7797  137.4118  159.6816 H   0  0  0  0  0  0  0  0  0  0  0  0
  149.8674  136.0347  159.7457 H   0  0  0  0  0  0  0  0  0  0  0  0
  148.6584  135.1690  157.6141 H   0  0  0  0  0  0  0  0  0  0  0  0
  147.8227  136.6618  157.5450 H   0  0  0  0  0  0  0  0  0  0  0  0
  148.0354  138.5921  157.9396 H   0  0  0  0  0  0  0  0  0  0  0  0
  148.8093  140.0291  157.4069 H   0  0  0  0  0  0  0  0  0  0  0  0
  151.0466  143.2603  157.1830 H   0  0  0  0  0  0  0  0  0  0  0  0
  151.6863  144.0822  159.4364 H   0  0  0  0  0  0  0  0  0  0  0  0
  153.1827  141.8756  162.1155 H   0  0  0  0  0  0  0  0  0  0  0  0
  151.7520  142.9133  162.1123 H   0  0  0  0  0  0  0  0  0  0  0  0
  153.2849  143.5136  161.4660 H   0  0  0  0  0  0  0  0  0  0  0  0
  152.7367  140.0594  160.6013 H   0  0  0  0  0  0  0  0  0  0  0  0
  152.0957  139.2410  158.3505 H   0  0  0  0  0  0  0  0  0  0  0  0
  1  2  1  0  0  0  0
  1 22  1  0  0  0  0
  1 23  1  0  0  0  0
  1 24  1  0  0  0  0
  2  3  1  0  0  0  0
  3  4  1  0  0  0  0
  3 25  1  0  0  0  0
  3 26  1  0  0  0  0
  4  5  1  0  0  0  0
  4 27  1  0  0  0  0
  4 28  1  0  0  0  0
  5 20  1  0  0  0  0
  5  6  1  0  0  0  0
  6  7  1  0  0  0  0
  6  8  2  0  0  0  0
  7 29  1  0  0  0  0
  7 30  1  0  0  0  0
  8  9  1  0  0  0  0
  8 17  1  0  0  0  0
  9 10  1  0  0  0  0
 10 16  1  0  0  0  0
 10 11  2  0  0  0  0
 11 12  1  0  0  0  0
 11 31  1  0  0  0  0
 12 13  2  0  0  0  0
 12 32  1  0  0  0  0
 13 14  1  0  0  0  0
 13 15  1  0  0  0  0
 14 33  1  0  0  0  0
 14 34  1  0  0  0  0
 14 35  1  0  0  0  0
 15 16  2  0  0  0  0
 15 36  1  0  0  0  0
 16 37  1  0  0  0  0
 17 18  2  0  0  0  0
 17 19  1  0  0  0  0
 19 20  1  0  0  0  0
 20 21  2  0  0  0  0
M  CHG  1  19  -1
M  END
> <s_m_source_file>
AV-unprocessed.smi

> <i_m_source_file_index>
2632

> <i_lp_mmshare_version>
43012

> <i_f3d_flags>
0

> <s_epik_input>
W0NIM11PW0NIMl1bQ0gyXW4xYyhbTkgyXSljKGMoPU8pW25IXWMxPU8pU2MyW2NIXVtjSF1jKFtDSDNdKVtjSF1bY0hdMg==

> <s_epik_cmdline>
J2VwaWtfcHl0aG9uJywgJy1waCcsICc3LjAnLCAnLXRuJywgJzgnLCAnLW1hJywgJzIwMCcsICctbWV0YWxfYmluZGluZycsICctaW1hZScsICc8aW5maWxlLm1hZT4nLCAnLW9tYWUnLCAnPG91dGZpbGUubWFlPic=

> <r_lp_tautomer_probability>
1

> <r_epik_Ionization_Penalty>
6.52921

> <r_epik_Ionization_Penalty_Charging>
0.111036

> <r_epik_Ionization_Penalty_Neutral>
6.41817

> <r_epik_State_Penalty>
6.41816

> <r_epik_Charging_Adjusted_Penalty>
6.5292

> <i_epik_Tot_Q>
-1

> <i_epik_Tot_abs_Q>
1

> <r_epik_Metal_State_Penalty>
2.337

> <b_epik_Metal_Only>
1

> <s_epik_Chemistry_Notes>
This compound has an imine and may undergo hydrolysis.

> <s_lp_Force_Field>
OPLS_2005

> <r_lp_Energy>
30.26

> <b_lp_Chiralities_Consistent>
1

> <s_lp_Variant>
AV-unprocessed.smi:2632-2

> <Gold.Version>
5.8.1

> <Gold.Id.Protein>
6NUR|6NUR_protein|mol2

> <Gold.PLP.Fitness>
43.7011

> <Gold.PLP.PLP>
-36.2742

> <Gold.PLP.part.hbond>
-3.0000

> <Gold.PLP.part.metal>
0.0000

> <Gold.PLP.part.buried>
-5.2943

> <Gold.PLP.part.nonpolar>
-26.9173

> <Gold.PLP.part.repulsive>
0.0812

> <Gold.PLP.ligand.clash>
0.0000

> <Gold.PLP.ligand.torsion>
0.8029

> <Gold.PLP.Chemscore.Hbond>
3.0000

> <Gold.PLP.Chemscore.CHOScore>
0.0000

> <Gold.PLP.Chemscore.Metal>
0.0000

> <Gold.Chemscore.Hbonds>
donor molecule, donor type, donor heavy atom, donor atom, acceptor molecule, acceptor atom, score
      P1  H  7997  8009       L1    18  0.44
      P1  H 10752 10763       L1    19  2.00

> <Gold.PLP.Chemscore.Internal.Correction>
0.0328

> <Gold.Rescore>
     Score         DG    S(hbond)    S(metal)    S(lipo)     H(rot)  DE(clash)    DE(int)     intcor
     15.70     -16.63       1.58        0.00      93.42       1.97       0.01       0.92       ----

> <Gold.Chemscore.Fitness>
15.7011

> <Gold.Chemscore.DG>
-16.6337

> <Gold.Chemscore.ZeroCoef>
-5.4800

> <Gold.Chemscore.Hbond>
1.5801

> <Gold.Chemscore.Metal>
0.0000

> <Gold.Chemscore.Lipo>
93.4241

> <Gold.Chemscore.Internal_Hbond>
0.0000

> <Gold.Chemscore.DEClash>
0.0088

> <Gold.Chemscore.DEInternal>
0.9238

> <Gold.Chemscore.Rot>
1.9744

> <Gold.Chemscore.Internal.Correction>
   9.000000E+99

> <Gold.Chemscore.Hbonds>
donor molecule, donor type, donor heavy atom, donor atom, acceptor molecule, acceptor atom, score
      P1  H  7997  8009       L1    18  0.42
      P1  H 10752 10763       L1    19  0.82

> <Gold.Chemscore.Hbond.Weighted>
-5.2776

> <Gold.Chemscore.Metal.Weighted>
-0.0000

> <Gold.Chemscore.Lipo.Weighted>
-10.9306

> <Gold.Chemscore.Internal_Hbond.Weighted>
0.0000

> <Gold.Chemscore.DEClash.Weighted>
0.0088

> <Gold.Chemscore.DEInternal.Weighted>
0.9238

> <Gold.Chemscore.Rot.Weighted>
5.0546

> <Gold.Chemscore.Internal.Correction.Weighted>
   9.000000E+99

> <Gold.Protein.RotatedTorsions>
[ 6907 6896 6895 6894 ] final -120.29 input  -60.11 | X-H torsion
[ 7974 7965 7964 7962 ] final  160.17 input  175.53 | X-H torsion
[ 8008 7997 7996 7995 ] final -150.04 input   59.86 | X-H torsion
[ 10167 10162 10161 10158 ] final  -29.56 input  -65.29 | X-H torsion
[ 10718 10713 10712 10709 ] final  127.13 input   66.30 | X-H torsion
[ 10763 10752 10751 10750 ] final   89.88 input  -60.55 | X-H torsion
[ 11005 11000 10999 10996 ] final -148.41 input  -57.11 | X-H torsion

> <Gold.Protein.ActiveResidues>
 VAL166  LYS551  ARG553  GLY616  TRP617  ASP618  TYR619  PRO620  LYS621  CYS622 
 ASP623  PHE694  ASN695  SER759  ASP760  ASP761  ALA762  ILE779  LEU786  VAL792 
 PHE793  MET794  SER795  GLU796  ALA797  LYS798  CYS799  TRP800  GLU811  SER814 

> <Gold.Protein.RotatedAtoms>
  150.8380  133.7983  159.3071 H   0  0  0  0  0  0  0  0  0  0  0  0  # atno 6907 bound_to 6896
  151.5693  135.1061  160.0001 H   0  0  0  0  0  0  0  0  0  0  0  0  # atno 6908 bound_to 6896
  152.4449  133.7475  159.6731 H   0  0  0  0  0  0  0  0  0  0  0  0  # atno 6909 bound_to 6896
  144.7751  139.7719  143.6282 H   0  0  0  0  0  0  0  0  0  0  0  0  # atno 7974 bound_to 7965
  155.6173  140.0678  157.2688 H   0  0  0  0  0  0  0  0  0  0  0  0  # atno 8008 bound_to 7997
  154.4238  140.1791  156.1383 H   0  0  0  0  0  0  0  0  0  0  0  0  # atno 8009 bound_to 7997
  156.0037  140.3333  155.6875 H   0  0  0  0  0  0  0  0  0  0  0  0  # atno 8010 bound_to 7997
  140.7259  143.3919  151.1415 H   0  0  0  0  0  0  0  0  0  0  0  0  # atno 10167 bound_to 10162
  157.5359  131.1097  150.8936 H   0  0  0  0  0  0  0  0  0  0  0  0  # atno 10718 bound_to 10713
  153.1917  135.4454  155.0158 H   0  0  0  0  0  0  0  0  0  0  0  0  # atno 10763 bound_to 10752
  154.8094  135.3288  154.7347 H   0  0  0  0  0  0  0  0  0  0  0  0  # atno 10764 bound_to 10752
  153.7800  135.6978  153.4945 H   0  0  0  0  0  0  0  0  0  0  0  0  # atno 10765 bound_to 10752
  140.7616  134.3292  157.5100 H   0  0  0  0  0  0  0  0  0  0  0  0  # atno 11005 bound_to 11000
  146.1925  139.5173  142.9796 LP  0  0  0  0  0  0  0  0  0  0  0  0  # atno 17320 bound_to 7965
  145.6209  141.0322  143.1915 LP  0  0  0  0  0  0  0  0  0  0  0  0  # atno 17321 bound_to 7965
  139.7525  143.8757  152.3080 LP  0  0  0  0  0  0  0  0  0  0  0  0  # atno 17342 bound_to 10162
  139.8615  144.7114  150.9094 LP  0  0  0  0  0  0  0  0  0  0  0  0  # atno 17343 bound_to 10162
  156.9503  130.5417  149.5282 LP  0  0  0  0  0  0  0  0  0  0  0  0  # atno 17370 bound_to 10713
  156.0458  130.5535  150.8878 LP  0  0  0  0  0  0  0  0  0  0  0  0  # atno 17371 bound_to 10713
  139.8770  134.9205  156.3253 LP  0  0  0  0  0  0  0  0  0  0  0  0  # atno 17394 bound_to 11000
  140.9658  133.7359  156.0465 LP  0  0  0  0  0  0  0  0  0  0  0  0  # atno 17395 bound_to 11000

$$$$
