AV-unprocessed.smi:2900|AV-procd|sdf|11148|dock5
  -GOLD-   2272016 23D 1   1.00000     0.00000
 Structure written by MMmdl.
 35 36  0  0  0  0  0  0  0  0  1 V2000
  154.1530  141.7335  162.9688 O   0  0  0  0  0  0  0  0  0  0  0  0
  153.6248  142.3205  162.0251 C   0  0  0  0  0  0  0  0  0  0  0  0
  152.7721  143.4953  162.1886 C   0  0  0  0  0  0  0  0  0  0  0  0
  152.2021  144.1120  161.1315 C   0  0  0  0  0  0  0  0  0  0  0  0
  152.4350  143.5983  159.7923 C   0  0  0  0  0  0  0  0  0  0  0  0
  151.8448  144.2150  158.5482 C   0  0  0  0  0  0  0  0  0  0  0  0
  151.1024  143.3318  157.8801 F   0  0  0  0  0  0  0  0  0  0  0  0
  151.0755  145.2542  158.8741 F   0  0  0  0  0  0  0  0  0  0  0  0
  152.8175  144.6450  157.7437 F   0  0  0  0  0  0  0  0  0  0  0  0
  153.1882  142.5570  159.6411 N   0  0  0  0  0  0  0  0  0  0  0  0
  153.7829  141.9342  160.7255 N   0  0  0  0  0  0  0  0  0  0  0  0
  154.6191  140.7797  160.3712 C   0  0  0  0  0  0  0  0  0  0  0  0
  153.7932  139.5442  159.9469 C   0  0  1  0  0  0  0  0  0  0  0  0
  153.8511  139.4687  158.5372 O   0  0  0  0  0  0  0  0  0  0  0  0
  154.3272  138.2203  160.5226 C   0  0  0  0  0  0  0  0  0  0  0  0
  154.1892  138.2469  161.9368 O   0  0  0  0  0  0  0  0  0  0  0  0
  154.2211  137.0490  162.6180 C   0  0  0  0  0  0  0  0  0  0  0  0
  153.8703  137.0809  163.9836 C   0  0  0  0  0  0  0  0  0  0  0  0
  153.8754  135.9043  164.7575 C   0  0  0  0  0  0  0  0  0  0  0  0
  154.2348  134.6775  164.1700 C   0  0  0  0  0  0  0  0  0  0  0  0
  154.5880  134.6309  162.8087 C   0  0  0  0  0  0  0  0  0  0  0  0
  154.5819  135.8076  162.0343 C   0  0  0  0  0  0  0  0  0  0  0  0
  152.5957  143.8802  163.1823 H   0  0  0  0  0  0  0  0  0  0  0  0
  151.5761  144.9797  161.2769 H   0  0  0  0  0  0  0  0  0  0  0  0
  155.2972  141.0673  159.5654 H   0  0  0  0  0  0  0  0  0  0  0  0
  155.2677  140.5148  161.2090 H   0  0  0  0  0  0  0  0  0  0  0  0
  152.7520  139.6810  160.2407 H   0  0  0  0  0  0  0  0  0  0  0  0
  153.6845  138.5745  158.2801 H   0  0  0  0  0  0  0  0  0  0  0  0
  153.8067  137.3676  160.0825 H   0  0  0  0  0  0  0  0  0  0  0  0
  155.3877  138.1187  160.2925 H   0  0  0  0  0  0  0  0  0  0  0  0
  153.5930  138.0182  164.4429 H   0  0  0  0  0  0  0  0  0  0  0  0
  153.6035  135.9439  165.8021 H   0  0  0  0  0  0  0  0  0  0  0  0
  154.2399  133.7743  164.7622 H   0  0  0  0  0  0  0  0  0  0  0  0
  154.8648  133.6901  162.3562 H   0  0  0  0  0  0  0  0  0  0  0  0
  154.8590  135.7303  160.9941 H   0  0  0  0  0  0  0  0  0  0  0  0
  1  2  2  0  0  0  0
  2 11  1  0  0  0  0
  2  3  1  0  0  0  0
  3  4  2  0  0  0  0
  3 23  1  0  0  0  0
  4  5  1  0  0  0  0
  4 24  1  0  0  0  0
  5  6  1  0  0  0  0
  5 10  2  0  0  0  0
  6  7  1  0  0  0  0
  6  8  1  0  0  0  0
  6  9  1  0  0  0  0
 10 11  1  0  0  0  0
 11 12  1  0  0  0  0
 12 13  1  0  0  0  0
 12 25  1  0  0  0  0
 12 26  1  0  0  0  0
 13 14  1  0  0  0  0
 13 15  1  0  0  0  0
 13 27  1  0  0  0  0
 14 28  1  0  0  0  0
 15 16  1  0  0  0  0
 15 29  1  0  0  0  0
 15 30  1  0  0  0  0
 16 17  1  0  0  0  0
 17 22  1  0  0  0  0
 17 18  2  0  0  0  0
 18 19  1  0  0  0  0
 18 31  1  0  0  0  0
 19 20  2  0  0  0  0
 19 32  1  0  0  0  0
 20 21  1  0  0  0  0
 20 33  1  0  0  0  0
 21 22  2  0  0  0  0
 21 34  1  0  0  0  0
 22 35  1  0  0  0  0
M  END
> <s_m_source_file>
AV-unprocessed.smi

> <i_m_source_file_index>
2900

> <i_lp_mmshare_version>
43012

> <i_f3d_flags>
0

> <s_epik_input>
Tz1jMVtjSF1bY0hdYyhDKEYpKEYpRilubjFbQ0gyXVtDQEhdKFtPSF0pW0NIMl1PYzJbY0hdW2NIXVtjSF1bY0hdW2NIXTI=

> <s_epik_cmdline>
J2VwaWtfcHl0aG9uJywgJy1waCcsICc3LjAnLCAnLXRuJywgJzgnLCAnLW1hJywgJzIwMCcsICctbWV0YWxfYmluZGluZycsICctaW1hZScsICc8aW5maWxlLm1hZT4nLCAnLW9tYWUnLCAnPG91dGZpbGUubWFlPic=

> <r_lp_tautomer_probability>
1

> <r_epik_Ionization_Penalty>
1.22578e-07

> <r_epik_Ionization_Penalty_Charging>
5.40425e-09

> <r_epik_Ionization_Penalty_Neutral>
1.17174e-07

> <r_epik_State_Penalty>
-0

> <r_epik_Charging_Adjusted_Penalty>
5.40425e-09

> <i_epik_Tot_Q>
0

> <i_epik_Tot_abs_Q>
0

> <r_epik_Metal_State_Penalty>
-0

> <b_epik_Metal_Only>
0

> <s_lp_Force_Field>
OPLS_2005

> <r_lp_Energy>
32.4131

> <b_lp_Chiralities_Consistent>
1

> <s_lp_Variant>
AV-unprocessed.smi:2900-2

> <Gold.Version>
5.8.1

> <Gold.Id.Protein>
6NUR|6NUR_protein|mol2

> <Gold.PLP.Fitness>
58.2172

> <Gold.PLP.PLP>
-57.0438

> <Gold.PLP.part.hbond>
-1.8128

> <Gold.PLP.part.metal>
0.0000

> <Gold.PLP.part.buried>
-4.9113

> <Gold.PLP.part.nonpolar>
-50.0254

> <Gold.PLP.part.repulsive>
0.0129

> <Gold.PLP.ligand.clash>
0.0000

> <Gold.PLP.ligand.torsion>
0.9510

> <Gold.PLP.Chemscore.Hbond>
1.0000

> <Gold.PLP.Chemscore.CHOScore>
0.0000

> <Gold.PLP.Chemscore.Metal>
0.0000

> <Gold.Chemscore.Hbonds>
donor molecule, donor type, donor heavy atom, donor atom, acceptor molecule, acceptor atom, score
      P1  H  7997  8010       L1    14  1.00

> <Gold.PLP.Chemscore.Internal.Correction>
0.0753

> <Gold.Rescore>
     Score         DG    S(hbond)    S(metal)    S(lipo)     H(rot)  DE(clash)    DE(int)     intcor
     14.12     -15.29       0.93        0.00     115.08       2.63       0.25       0.93       ----

> <Gold.Chemscore.Fitness>
14.1152

> <Gold.Chemscore.DG>
-15.2916

> <Gold.Chemscore.ZeroCoef>
-5.4800

> <Gold.Chemscore.Hbond>
0.9251

> <Gold.Chemscore.Metal>
0.0000

> <Gold.Chemscore.Lipo>
115.0755

> <Gold.Chemscore.Internal_Hbond>
0.0000

> <Gold.Chemscore.DEClash>
0.2454

> <Gold.Chemscore.DEInternal>
0.9310

> <Gold.Chemscore.Rot>
2.6336

> <Gold.Chemscore.Internal.Correction>
   9.000000E+99

> <Gold.Chemscore.Hbonds>
donor molecule, donor type, donor heavy atom, donor atom, acceptor molecule, acceptor atom, score
      P1  H  7997  8010       L1    14  0.30

> <Gold.Chemscore.Hbond.Weighted>
-3.0897

> <Gold.Chemscore.Metal.Weighted>
-0.0000

> <Gold.Chemscore.Lipo.Weighted>
-13.4638

> <Gold.Chemscore.Internal_Hbond.Weighted>
0.0000

> <Gold.Chemscore.DEClash.Weighted>
0.2454

> <Gold.Chemscore.DEInternal.Weighted>
0.9310

> <Gold.Chemscore.Rot.Weighted>
6.7420

> <Gold.Chemscore.Internal.Correction.Weighted>
   9.000000E+99

> <Gold.Protein.RotatedTorsions>
[ 6907 6896 6895 6894 ] final  -91.43 input  -60.11 | X-H torsion
[ 7974 7965 7964 7962 ] final   29.25 input  175.53 | X-H torsion
[ 8008 7997 7996 7995 ] final   18.14 input   59.86 | X-H torsion
[ 10167 10162 10161 10158 ] final   51.67 input  -65.29 | X-H torsion
[ 10718 10713 10712 10709 ] final -108.75 input   66.30 | X-H torsion
[ 10763 10752 10751 10750 ] final  -58.74 input  -60.55 | X-H torsion
[ 11005 11000 10999 10996 ] final   -7.88 input  -57.11 | X-H torsion

> <Gold.Protein.ActiveResidues>
 VAL166  LYS551  ARG553  GLY616  TRP617  ASP618  TYR619  PRO620  LYS621  CYS622 
 ASP623  PHE694  ASN695  SER759  ASP760  ASP761  ALA762  ILE779  LEU786  VAL792 
 PHE793  MET794  SER795  GLU796  ALA797  LYS798  CYS799  TRP800  GLU811  SER814 

> <Gold.Protein.RotatedAtoms>
  150.6892  134.2277  159.4421 H   0  0  0  0  0  0  0  0  0  0  0  0  # atno 6907 bound_to 6896
  152.0230  134.9809  160.0580 H   0  0  0  0  0  0  0  0  0  0  0  0  # atno 6908 bound_to 6896
  152.1379  133.4411  159.4789 H   0  0  0  0  0  0  0  0  0  0  0  0  # atno 6909 bound_to 6896
  146.1682  139.6947  142.8986 H   0  0  0  0  0  0  0  0  0  0  0  0  # atno 7974 bound_to 7965
  154.9016  140.3001  155.5314 H   0  0  0  0  0  0  0  0  0  0  0  0  # atno 8008 bound_to 7997
  156.3018  140.2405  156.3980 H   0  0  0  0  0  0  0  0  0  0  0  0  # atno 8009 bound_to 7997
  154.8515  140.0409  157.1596 H   0  0  0  0  0  0  0  0  0  0  0  0  # atno 8010 bound_to 7997
  140.2594  144.3389  150.6322 H   0  0  0  0  0  0  0  0  0  0  0  0  # atno 10167 bound_to 10162
  156.0501  130.5729  150.8004 H   0  0  0  0  0  0  0  0  0  0  0  0  # atno 10718 bound_to 10713
  154.2429  135.6340  153.5213 H   0  0  0  0  0  0  0  0  0  0  0  0  # atno 10763 bound_to 10752
  152.9927  135.5546  154.5891 H   0  0  0  0  0  0  0  0  0  0  0  0  # atno 10764 bound_to 10752
  154.5401  135.2894  155.1078 H   0  0  0  0  0  0  0  0  0  0  0  0  # atno 10765 bound_to 10752
  140.7175  133.8857  155.8796 H   0  0  0  0  0  0  0  0  0  0  0  0  # atno 11005 bound_to 11000
  145.4411  141.0422  143.2857 LP  0  0  0  0  0  0  0  0  0  0  0  0  # atno 17320 bound_to 7965
  144.8124  139.5939  143.7024 LP  0  0  0  0  0  0  0  0  0  0  0  0  # atno 17321 bound_to 7965
  140.5977  143.2167  151.7131 LP  0  0  0  0  0  0  0  0  0  0  0  0  # atno 17342 bound_to 10162
  139.5021  144.3841  152.0346 LP  0  0  0  0  0  0  0  0  0  0  0  0  # atno 17343 bound_to 10162
  157.5419  131.0941  150.9816 LP  0  0  0  0  0  0  0  0  0  0  0  0  # atno 17370 bound_to 10713
  157.0097  130.5632  149.5319 LP  0  0  0  0  0  0  0  0  0  0  0  0  # atno 17371 bound_to 10713
  141.0032  134.1122  157.4296 LP  0  0  0  0  0  0  0  0  0  0  0  0  # atno 17394 bound_to 11000
  139.8856  135.0074  156.6447 LP  0  0  0  0  0  0  0  0  0  0  0  0  # atno 17395 bound_to 11000

$$$$
