AV-unprocessed.smi:1691|AV-procd|sdf|6775|dock4
  -GOLD-   22720 7533D 1   1.00000     0.00000
 Structure written by MMmdl.
 44 45  0  0  0  0  0  0  0  0  2 V2000
  152.4170  131.1026  154.6746 C   0  0  0  0  0  0  0  0  0  0  0  0
  150.9212  131.4776  154.6715 C   0  0  0  0  0  0  0  0  0  0  0  0
  150.0972  130.2277  154.3065 C   0  0  0  0  0  0  0  0  0  0  0  0
  150.6282  132.6933  153.7432 C   0  0  1  0  0  0  0  0  0  0  0  0
  149.1205  133.0746  153.7150 C   0  0  0  0  0  0  0  0  0  0  0  0
  148.4334  132.6245  152.5077 N   0  0  0  0  0  0  0  0  0  0  0  0
  147.1701  132.9213  152.1717 C   0  0  0  0  0  0  0  0  0  0  0  0
  146.4279  133.6215  152.8599 O   0  0  0  0  0  0  0  0  0  0  0  0
  146.8367  132.3689  150.9944 N   0  0  0  0  0  0  0  0  0  0  0  0
  145.5985  132.4847  150.3148 C   0  0  0  0  0  0  0  0  0  0  0  0
  145.1917  131.9078  149.0759 C   0  0  0  0  0  0  0  0  0  0  0  0
  143.9486  132.2521  148.7722 N   0  0  0  0  0  0  0  0  0  0  0  0
  143.5597  133.0409  149.7989 N   0  0  0  0  0  0  0  0  0  0  0  0
  144.5329  133.2091  150.7590 C   0  0  0  0  0  0  0  0  0  0  0  0
  151.5384  133.8296  154.0943 N   0  3  0  0  0  0  0  0  0  0  0  0
  151.2362  135.1217  153.4307 C   0  0  0  0  0  0  0  0  0  0  0  0
  152.3838  136.1153  153.6769 C   0  0  0  0  0  0  0  0  0  0  0  0
  152.5874  136.2737  155.0764 O   0  0  0  0  0  0  0  0  0  0  0  0
  152.9600  135.0535  155.7069 C   0  0  0  0  0  0  0  0  0  0  0  0
  151.8347  134.0197  155.5364 C   0  0  0  0  0  0  0  0  0  0  0  0
  142.6376  133.4526  149.8288 H   0  0  0  0  0  0  0  0  0  0  0  0
  152.7662  130.8600  153.6705 H   0  0  0  0  0  0  0  0  0  0  0  0
  152.6030  130.2336  155.3066 H   0  0  0  0  0  0  0  0  0  0  0  0
  153.0410  131.9087  155.0603 H   0  0  0  0  0  0  0  0  0  0  0  0
  150.6515  131.7469  155.6932 H   0  0  0  0  0  0  0  0  0  0  0  0
  150.2320  129.9541  153.2595 H   0  0  0  0  0  0  0  0  0  0  0  0
  149.0322  130.3731  154.4848 H   0  0  0  0  0  0  0  0  0  0  0  0
  150.3952  129.3704  154.9111 H   0  0  0  0  0  0  0  0  0  0  0  0
  150.8939  132.3715  152.7348 H   0  0  0  0  0  0  0  0  0  0  0  0
  148.5950  132.5950  154.5395 H   0  0  0  0  0  0  0  0  0  0  0  0
  149.0027  134.1480  153.8718 H   0  0  0  0  0  0  0  0  0  0  0  0
  148.9612  132.0346  151.8808 H   0  0  0  0  0  0  0  0  0  0  0  0
  147.5422  131.8147  150.5319 H   0  0  0  0  0  0  0  0  0  0  0  0
  145.7344  131.2665  148.3972 H   0  0  0  0  0  0  0  0  0  0  0  0
  144.3842  133.8096  151.6443 H   0  0  0  0  0  0  0  0  0  0  0  0
  151.1075  134.9719  152.3583 H   0  0  0  0  0  0  0  0  0  0  0  0
  150.3081  135.5454  153.8113 H   0  0  0  0  0  0  0  0  0  0  0  0
  153.3040  135.7740  153.2000 H   0  0  0  0  0  0  0  0  0  0  0  0
  152.1408  137.0852  153.2423 H   0  0  0  0  0  0  0  0  0  0  0  0
  153.8964  134.6832  155.2863 H   0  0  0  0  0  0  0  0  0  0  0  0
  153.1387  135.2428  156.7654 H   0  0  0  0  0  0  0  0  0  0  0  0
  150.9493  134.3668  156.0665 H   0  0  0  0  0  0  0  0  0  0  0  0
  152.1325  133.0752  155.9912 H   0  0  0  0  0  0  0  0  0  0  0  0
  152.4210  133.5557  153.6864 H   0  0  0  0  0  0  0  0  0  0  0  0
  1  2  1  0  0  0  0
  1 22  1  0  0  0  0
  1 23  1  0  0  0  0
  1 24  1  0  0  0  0
  2  3  1  0  0  0  0
  2  4  1  0  0  0  0
  2 25  1  0  0  0  0
  3 26  1  0  0  0  0
  3 27  1  0  0  0  0
  3 28  1  0  0  0  0
  4  5  1  0  0  0  0
  4 15  1  0  0  0  0
  4 29  1  0  0  0  0
  5  6  1  0  0  0  0
  5 30  1  0  0  0  0
  5 31  1  0  0  0  0
  6  7  1  0  0  0  0
  6 32  1  0  0  0  0
  7  8  2  0  0  0  0
  7  9  1  0  0  0  0
  9 10  1  0  0  0  0
  9 33  1  0  0  0  0
 10 14  2  0  0  0  0
 10 11  1  0  0  0  0
 11 12  2  0  0  0  0
 11 34  1  0  0  0  0
 12 13  1  0  0  0  0
 13 21  1  0  0  0  0
 13 14  1  0  0  0  0
 14 35  1  0  0  0  0
 15 20  1  0  0  0  0
 15 16  1  0  0  0  0
 15 44  1  0  0  0  0
 16 17  1  0  0  0  0
 16 36  1  0  0  0  0
 16 37  1  0  0  0  0
 17 18  1  0  0  0  0
 17 38  1  0  0  0  0
 17 39  1  0  0  0  0
 18 19  1  0  0  0  0
 19 20  1  0  0  0  0
 19 40  1  0  0  0  0
 19 41  1  0  0  0  0
 20 42  1  0  0  0  0
 20 43  1  0  0  0  0
M  CHG  1  15   1
M  END
> <s_m_source_file>
AV-unprocessed.smi

> <i_m_source_file_index>
1691

> <i_lp_mmshare_version>
43012

> <i_f3d_flags>
0

> <s_epik_input>
W0NIMl0xW0NIMl1PW0NIMl1bQ0gyXU4xW0NASF0oW0NIXShbQ0gzXSlbQ0gzXSlbQ0gyXVtOSF1DKD1PKVtOSF1jMltjSF1uW25IXVtjSF0y

> <s_epik_cmdline>
J2VwaWtfcHl0aG9uJywgJy1waCcsICc3LjAnLCAnLXRuJywgJzgnLCAnLW1hJywgJzIwMCcsICctbWV0YWxfYmluZGluZycsICctaW1hZScsICc8aW5maWxlLm1hZT4nLCAnLW9tYWUnLCAnPG91dGZpbGUubWFlPic=

> <r_lp_tautomer_probability>
0.5

> <r_epik_Ionization_Penalty>
0.363378

> <r_epik_Ionization_Penalty_Charging>
0.363339

> <r_epik_Ionization_Penalty_Neutral>
3.97246e-05

> <r_epik_State_Penalty>
0.36031

> <r_epik_Charging_Adjusted_Penalty>
0.723649

> <i_epik_Tot_Q>
1

> <i_epik_Tot_abs_Q>
1

> <r_epik_Metal_State_Penalty>
0.360311

> <b_epik_Metal_Only>
0

> <s_lp_Force_Field>
OPLS_2005

> <r_lp_Energy>
33.682

> <b_lp_Chiralities_Consistent>
1

> <s_lp_Variant>
AV-unprocessed.smi:1691-2

> <Gold.Version>
5.8.1

> <Gold.Id.Protein>
6NUR|6NUR_protein|mol2

> <Gold.PLP.Fitness>
40.7333

> <Gold.PLP.PLP>
-30.6694

> <Gold.PLP.part.hbond>
-4.2934

> <Gold.PLP.part.metal>
0.0000

> <Gold.PLP.part.buried>
-3.2022

> <Gold.PLP.part.nonpolar>
-23.9363

> <Gold.PLP.part.repulsive>
0.6003

> <Gold.PLP.ligand.clash>
0.0000

> <Gold.PLP.ligand.torsion>
1.0766

> <Gold.PLP.Chemscore.Hbond>
3.9760

> <Gold.PLP.Chemscore.CHOScore>
0.0000

> <Gold.PLP.Chemscore.Metal>
0.0000

> <Gold.Chemscore.Hbonds>
donor molecule, donor type, donor heavy atom, donor atom, acceptor molecule, acceptor atom, score
      L1  H     6    32       P1 10747  0.99
      L1  H     9    33       P1 10747  1.00
      L1  H    13    21       P1 10186  1.00
      P1  H 10785 10796       L1    12  0.23

> <Gold.PLP.Chemscore.Internal.Correction>
0.2893

> <Gold.Rescore>
     Score         DG    S(hbond)    S(metal)    S(lipo)     H(rot)  DE(clash)    DE(int)     intcor
     19.52     -21.64       3.85        0.00      68.60       1.84       0.01       2.11       ----

> <Gold.Chemscore.Fitness>
19.5221

> <Gold.Chemscore.DG>
-21.6411

> <Gold.Chemscore.ZeroCoef>
-5.4800

> <Gold.Chemscore.Hbond>
3.8478

> <Gold.Chemscore.Metal>
0.0000

> <Gold.Chemscore.Lipo>
68.6002

> <Gold.Chemscore.Internal_Hbond>
0.0000

> <Gold.Chemscore.DEClash>
0.0067

> <Gold.Chemscore.DEInternal>
2.1123

> <Gold.Chemscore.Rot>
1.8425

> <Gold.Chemscore.Internal.Correction>
   9.000000E+99

> <Gold.Chemscore.Hbonds>
donor molecule, donor type, donor heavy atom, donor atom, acceptor molecule, acceptor atom, score
      L1  H     6    32       P1 10747  0.84
      L1  H     9    33       P1 10747  1.00
      L1  H    13    21       P1 10186  1.00
      P1  H 10785 10796       L1    12  0.02

> <Gold.Chemscore.Hbond.Weighted>
-12.8517

> <Gold.Chemscore.Metal.Weighted>
-0.0000

> <Gold.Chemscore.Lipo.Weighted>
-8.0262

> <Gold.Chemscore.Internal_Hbond.Weighted>
0.0000

> <Gold.Chemscore.DEClash.Weighted>
0.0067

> <Gold.Chemscore.DEInternal.Weighted>
2.1123

> <Gold.Chemscore.Rot.Weighted>
4.7168

> <Gold.Chemscore.Internal.Correction.Weighted>
   9.000000E+99

> <Gold.Protein.RotatedTorsions>
[ 6907 6896 6895 6894 ] final  -31.11 input  -60.11 | X-H torsion
[ 7974 7965 7964 7962 ] final -147.07 input  175.53 | X-H torsion
[ 8008 7997 7996 7995 ] final  163.51 input   59.86 | X-H torsion
[ 10167 10162 10161 10158 ] final  146.30 input  -65.29 | X-H torsion
[ 10718 10713 10712 10709 ] final  119.86 input   66.30 | X-H torsion
[ 10763 10752 10751 10750 ] final  -74.20 input  -60.55 | X-H torsion
[ 11005 11000 10999 10996 ] final  -24.68 input  -57.11 | X-H torsion

> <Gold.Protein.ActiveResidues>
 VAL166  LYS551  ARG553  GLY616  TRP617  ASP618  TYR619  PRO620  LYS621  CYS622 
 ASP623  PHE694  ASN695  SER759  ASP760  ASP761  ALA762  ILE779  LEU786  VAL792 
 PHE793  MET794  SER795  GLU796  ALA797  LYS798  CYS799  TRP800  GLU811  SER814 

> <Gold.Protein.RotatedAtoms>
  151.0965  134.9947  159.8427 H   0  0  0  0  0  0  0  0  0  0  0  0  # atno 6907 bound_to 6896
  152.5433  134.2002  159.8719 H   0  0  0  0  0  0  0  0  0  0  0  0  # atno 6908 bound_to 6896
  151.2042  133.4549  159.2630 H   0  0  0  0  0  0  0  0  0  0  0  0  # atno 6909 bound_to 6896
  144.8118  140.5375  143.5637 H   0  0  0  0  0  0  0  0  0  0  0  0  # atno 7974 bound_to 7965
  156.1951  140.1721  156.8014 H   0  0  0  0  0  0  0  0  0  0  0  0  # atno 8008 bound_to 7997
  154.5520  140.0716  156.8714 H   0  0  0  0  0  0  0  0  0  0  0  0  # atno 8009 bound_to 7997
  155.3011  140.3361  155.4250 H   0  0  0  0  0  0  0  0  0  0  0  0  # atno 8010 bound_to 7997
  139.4910  144.5839  151.6817 H   0  0  0  0  0  0  0  0  0  0  0  0  # atno 10167 bound_to 10162
  157.5932  131.1061  150.7954 H   0  0  0  0  0  0  0  0  0  0  0  0  # atno 10718 bound_to 10713
  154.4698  135.5872  153.6314 H   0  0  0  0  0  0  0  0  0  0  0  0  # atno 10763 bound_to 10752
  152.9833  135.6064  154.3381 H   0  0  0  0  0  0  0  0  0  0  0  0  # atno 10764 bound_to 10752
  154.3261  135.2843  155.2474 H   0  0  0  0  0  0  0  0  0  0  0  0  # atno 10765 bound_to 10752
  140.8868  133.7616  156.0370 H   0  0  0  0  0  0  0  0  0  0  0  0  # atno 11005 bound_to 11000
  145.5307  139.1475  143.3501 LP  0  0  0  0  0  0  0  0  0  0  0  0  # atno 17320 bound_to 7965
  146.2417  140.5447  142.8931 LP  0  0  0  0  0  0  0  0  0  0  0  0  # atno 17321 bound_to 7965
  140.5451  144.0516  150.6104 LP  0  0  0  0  0  0  0  0  0  0  0  0  # atno 17342 bound_to 10162
  140.3551  143.2940  152.0444 LP  0  0  0  0  0  0  0  0  0  0  0  0  # atno 17343 bound_to 10162
  156.8371  130.5035  149.5325 LP  0  0  0  0  0  0  0  0  0  0  0  0  # atno 17370 bound_to 10713
  156.0990  130.5954  150.9862 LP  0  0  0  0  0  0  0  0  0  0  0  0  # atno 17371 bound_to 10713
  140.8396  134.3083  157.5318 LP  0  0  0  0  0  0  0  0  0  0  0  0  # atno 17394 bound_to 11000
  139.8725  134.9408  156.3780 LP  0  0  0  0  0  0  0  0  0  0  0  0  # atno 17395 bound_to 11000

$$$$
