AV-unprocessed.smi:691|AV-procd|sdf|3365|dock4
  -GOLD-   22720 0343D 1   1.00000     0.00000
 Structure written by MMmdl.
 37 38  0  0  0  0  0  0  0  0  1 V2000
  143.8523  133.5385  151.6459 C   0  0  0  0  0  0  0  0  0  0  0  0
  145.1847  134.3090  151.4803 C   0  0  2  0  0  0  0  0  0  0  0  0
  144.9655  135.5187  150.5325 C   0  0  0  0  0  0  0  0  0  0  0  0
  144.3898  136.6188  151.2087 O   0  0  0  0  0  0  0  0  0  0  0  0
  146.2824  133.3645  150.9596 C   0  0  0  0  0  0  0  0  0  0  0  0
  146.7706  132.5737  152.1758 C   0  0  0  0  0  0  0  0  0  0  0  0
  146.4825  133.4545  153.3985 C   0  0  0  0  0  0  0  0  0  0  0  0
  145.7210  134.6932  152.8883 C   0  0  1  0  0  0  0  0  0  0  0  0
  146.6359  135.8379  152.8659 N   0  0  0  0  0  0  0  0  0  0  0  0
  146.4542  137.0011  153.5081 C   0  0  0  0  0  0  0  0  0  0  0  0
  145.4716  137.2449  154.2073 O   0  0  0  0  0  0  0  0  0  0  0  0
  147.4812  137.8391  153.2854 N   0  0  0  0  0  0  0  0  0  0  0  0
  147.6833  139.1600  153.7725 C   0  0  0  0  0  0  0  0  0  0  0  0
  148.9483  139.7313  154.0560 C   0  0  0  0  0  0  0  0  0  0  0  0
  149.0046  141.0501  154.5472 C   0  0  0  0  0  0  0  0  0  0  0  0
  147.7972  141.7480  154.7422 C   0  0  0  0  0  0  0  0  0  0  0  0
  146.5847  141.2132  154.4874 N   0  0  0  0  0  0  0  0  0  0  0  0
  146.5388  139.9485  154.0173 C   0  0  0  0  0  0  0  0  0  0  0  0
  143.5063  133.1205  150.7003 H   0  0  0  0  0  0  0  0  0  0  0  0
  143.0655  134.1937  152.0212 H   0  0  0  0  0  0  0  0  0  0  0  0
  143.9417  132.7084  152.3468 H   0  0  0  0  0  0  0  0  0  0  0  0
  145.9121  135.8346  150.0928 H   0  0  0  0  0  0  0  0  0  0  0  0
  144.3004  135.2650  149.7069 H   0  0  0  0  0  0  0  0  0  0  0  0
  144.2699  137.3226  150.5896 H   0  0  0  0  0  0  0  0  0  0  0  0
  145.9373  132.7139  150.1551 H   0  0  0  0  0  0  0  0  0  0  0  0
  147.1132  133.9499  150.5629 H   0  0  0  0  0  0  0  0  0  0  0  0
  146.2174  131.6371  152.2580 H   0  0  0  0  0  0  0  0  0  0  0  0
  147.8277  132.3196  152.0920 H   0  0  0  0  0  0  0  0  0  0  0  0
  145.8656  132.9017  154.1082 H   0  0  0  0  0  0  0  0  0  0  0  0
  147.4007  133.7199  153.9247 H   0  0  0  0  0  0  0  0  0  0  0  0
  144.8926  134.9088  153.5658 H   0  0  0  0  0  0  0  0  0  0  0  0
  147.4761  135.7289  152.3172 H   0  0  0  0  0  0  0  0  0  0  0  0
  148.2378  137.4682  152.7292 H   0  0  0  0  0  0  0  0  0  0  0  0
  149.8716  139.1911  153.9213 H   0  0  0  0  0  0  0  0  0  0  0  0
  149.9532  141.5147  154.7724 H   0  0  0  0  0  0  0  0  0  0  0  0
  147.8057  142.7606  155.1182 H   0  0  0  0  0  0  0  0  0  0  0  0
  145.5514  139.5535  153.8274 H   0  0  0  0  0  0  0  0  0  0  0  0
  1  2  1  0  0  0  0
  1 19  1  0  0  0  0
  1 20  1  0  0  0  0
  1 21  1  0  0  0  0
  2  8  1  0  0  0  0
  2  3  1  0  0  0  0
  2  5  1  0  0  0  0
  3  4  1  0  0  0  0
  3 22  1  0  0  0  0
  3 23  1  0  0  0  0
  4 24  1  0  0  0  0
  5  6  1  0  0  0  0
  5 25  1  0  0  0  0
  5 26  1  0  0  0  0
  6  7  1  0  0  0  0
  6 27  1  0  0  0  0
  6 28  1  0  0  0  0
  7  8  1  0  0  0  0
  7 29  1  0  0  0  0
  7 30  1  0  0  0  0
  8  9  1  0  0  0  0
  8 31  1  0  0  0  0
  9 10  1  0  0  0  0
  9 32  1  0  0  0  0
 10 11  2  0  0  0  0
 10 12  1  0  0  0  0
 12 13  1  0  0  0  0
 12 33  1  0  0  0  0
 13 18  1  0  0  0  0
 13 14  2  0  0  0  0
 14 15  1  0  0  0  0
 14 34  1  0  0  0  0
 15 16  2  0  0  0  0
 15 35  1  0  0  0  0
 16 17  1  0  0  0  0
 16 36  1  0  0  0  0
 17 18  2  0  0  0  0
 18 37  1  0  0  0  0
M  END
> <s_m_source_file>
AV-unprocessed.smi

> <i_m_source_file_index>
691

> <i_lp_mmshare_version>
43012

> <i_f3d_flags>
0

> <s_epik_input>
W09IXVtDSDJdW0NAXTEoW0NIM10pW0NIMl1bQ0gyXVtDSDJdW0NASF0xW05IXUMoPU8pW05IXWMyW2NIXVtjSF1bY0hdbltjSF0y

> <s_epik_cmdline>
J2VwaWtfcHl0aG9uJywgJy1waCcsICc3LjAnLCAnLXRuJywgJzgnLCAnLW1hJywgJzIwMCcsICctbWV0YWxfYmluZGluZycsICctaW1hZScsICc8aW5maWxlLm1hZT4nLCAnLW9tYWUnLCAnPG91dGZpbGUubWFlPic=

> <r_epik_Ionization_Penalty>
0.00496828

> <r_epik_Ionization_Penalty_Charging>
0

> <r_epik_Ionization_Penalty_Neutral>
0.00496828

> <r_epik_State_Penalty>
0.00358054

> <r_epik_Charging_Adjusted_Penalty>
0.00358054

> <i_epik_Tot_Q>
0

> <i_epik_Tot_abs_Q>
0

> <r_epik_Metal_State_Penalty>
-0

> <b_epik_Metal_Only>
0

> <s_lp_Force_Field>
OPLS_2005

> <r_lp_Energy>
30.5868

> <b_lp_Chiralities_Consistent>
1

> <s_lp_Variant>
AV-unprocessed.smi:691-2

> <Gold.Version>
5.8.1

> <Gold.Id.Protein>
6NUR|6NUR_protein|mol2

> <Gold.PLP.Fitness>
40.9509

> <Gold.PLP.PLP>
-26.9666

> <Gold.PLP.part.hbond>
-2.8341

> <Gold.PLP.part.metal>
0.0000

> <Gold.PLP.part.buried>
-2.2028

> <Gold.PLP.part.nonpolar>
-23.1962

> <Gold.PLP.part.repulsive>
0.2465

> <Gold.PLP.ligand.clash>
0.0000

> <Gold.PLP.ligand.torsion>
0.5129

> <Gold.PLP.Chemscore.Hbond>
3.0000

> <Gold.PLP.Chemscore.CHOScore>
2.0000

> <Gold.PLP.Chemscore.Metal>
0.0000

> <Gold.Chemscore.Hbonds>
donor molecule, donor type, donor heavy atom, donor atom, acceptor molecule, acceptor atom, score
      L1  H     4    24       P1 10171  1.00
      L1  H     9    32       P1  7948  1.00
      L1  H    12    33       P1  7948  1.00
      L1  C    16    36       P1  8028  1.00
      L1  C    18    37       P1 10175  1.00

> <Gold.PLP.Chemscore.Internal.Correction>
0.0100

> <Gold.Rescore>
     Score         DG    S(hbond)    S(metal)    S(lipo)     H(rot)  DE(clash)    DE(int)     intcor
     16.76     -18.35       2.97        0.00      64.26       1.78       0.04       1.55       ----

> <Gold.Chemscore.Fitness>
16.7570

> <Gold.Chemscore.DG>
-18.3459

> <Gold.Chemscore.ZeroCoef>
-5.4800

> <Gold.Chemscore.Hbond>
2.9684

> <Gold.Chemscore.Metal>
0.0000

> <Gold.Chemscore.Lipo>
64.2579

> <Gold.Chemscore.Internal_Hbond>
0.0000

> <Gold.Chemscore.DEClash>
0.0354

> <Gold.Chemscore.DEInternal>
1.5535

> <Gold.Chemscore.Rot>
1.7838

> <Gold.Chemscore.Internal.Correction>
   9.000000E+99

> <Gold.Chemscore.Hbonds>
donor molecule, donor type, donor heavy atom, donor atom, acceptor molecule, acceptor atom, score
      L1  H     4    24       P1 10171  0.93
      L1  H     9    32       P1  7948  0.96
      L1  H    12    33       P1  7948  0.97

> <Gold.Chemscore.Hbond.Weighted>
-9.9144

> <Gold.Chemscore.Metal.Weighted>
-0.0000

> <Gold.Chemscore.Lipo.Weighted>
-7.5182

> <Gold.Chemscore.Internal_Hbond.Weighted>
0.0000

> <Gold.Chemscore.DEClash.Weighted>
0.0354

> <Gold.Chemscore.DEInternal.Weighted>
1.5535

> <Gold.Chemscore.Rot.Weighted>
4.5666

> <Gold.Chemscore.Internal.Correction.Weighted>
   9.000000E+99

> <Gold.Protein.RotatedTorsions>
[ 6907 6896 6895 6894 ] final  168.97 input  -60.11 | X-H torsion
[ 7974 7965 7964 7962 ] final  -95.06 input  175.53 | X-H torsion
[ 8008 7997 7996 7995 ] final    5.99 input   59.86 | X-H torsion
[ 10167 10162 10161 10158 ] final   28.63 input  -65.29 | X-H torsion
[ 10718 10713 10712 10709 ] final -158.83 input   66.30 | X-H torsion
[ 10763 10752 10751 10750 ] final  -50.48 input  -60.55 | X-H torsion
[ 11005 11000 10999 10996 ] final -179.56 input  -57.11 | X-H torsion

> <Gold.Protein.ActiveResidues>
 VAL166  LYS551  ARG553  GLY616  TRP617  ASP618  TYR619  PRO620  LYS621  CYS622 
 ASP623  PHE694  ASN695  SER759  ASP760  ASP761  ALA762  ILE779  LEU786  VAL792 
 PHE793  MET794  SER795  GLU796  ALA797  LYS798  CYS799  TRP800  GLU811  SER814 

> <Gold.Protein.RotatedAtoms>
  151.8393  133.3421  159.3637 H   0  0  0  0  0  0  0  0  0  0  0  0  # atno 6907 bound_to 6896
  150.7240  134.5407  159.5755 H   0  0  0  0  0  0  0  0  0  0  0  0  # atno 6908 bound_to 6896
  152.2877  134.7758  160.0435 H   0  0  0  0  0  0  0  0  0  0  0  0  # atno 6909 bound_to 6896
  145.3651  140.9497  143.2479 H   0  0  0  0  0  0  0  0  0  0  0  0  # atno 7974 bound_to 7965
  154.7354  140.2738  155.6419 H   0  0  0  0  0  0  0  0  0  0  0  0  # atno 8008 bound_to 7997
  156.2860  140.2707  156.1992 H   0  0  0  0  0  0  0  0  0  0  0  0  # atno 8009 bound_to 7997
  155.0327  140.0371  157.2470 H   0  0  0  0  0  0  0  0  0  0  0  0  # atno 8010 bound_to 7997
  140.4835  144.0578  150.6273 H   0  0  0  0  0  0  0  0  0  0  0  0  # atno 10167 bound_to 10162
  156.5596  130.8641  151.2805 H   0  0  0  0  0  0  0  0  0  0  0  0  # atno 10718 bound_to 10713
  154.1110  135.6549  153.4885 H   0  0  0  0  0  0  0  0  0  0  0  0  # atno 10763 bound_to 10752
  153.0256  135.5247  154.7192 H   0  0  0  0  0  0  0  0  0  0  0  0  # atno 10764 bound_to 10752
  154.6372  135.2983  155.0116 H   0  0  0  0  0  0  0  0  0  0  0  0  # atno 10765 bound_to 10752
  140.4173  134.6638  157.4645 H   0  0  0  0  0  0  0  0  0  0  0  0  # atno 11005 bound_to 11000
  144.8618  139.5167  143.6809 LP  0  0  0  0  0  0  0  0  0  0  0  0  # atno 17320 bound_to 7965
  146.2910  139.7140  142.9161 LP  0  0  0  0  0  0  0  0  0  0  0  0  # atno 17321 bound_to 7965
  140.3827  143.2794  152.0152 LP  0  0  0  0  0  0  0  0  0  0  0  0  # atno 17342 bound_to 10162
  139.4838  144.6142  151.7378 LP  0  0  0  0  0  0  0  0  0  0  0  0  # atno 17343 bound_to 10162
  157.7371  130.9790  150.2174 LP  0  0  0  0  0  0  0  0  0  0  0  0  # atno 17370 bound_to 10713
  156.2811  130.3733  149.7935 LP  0  0  0  0  0  0  0  0  0  0  0  0  # atno 17371 bound_to 10713
  140.0225  134.6526  155.9219 LP  0  0  0  0  0  0  0  0  0  0  0  0  # atno 17394 bound_to 11000
  141.1798  133.6545  156.4973 LP  0  0  0  0  0  0  0  0  0  0  0  0  # atno 17395 bound_to 11000

$$$$
