AV-unprocessed.smi:1408|AV-procd|sdf|5726|dock3
  -GOLD-   22720 5363D 1   1.00000     0.00000
 Structure written by MMmdl.
 41 42  0  0  0  0  0  0  0  0  1 V2000
  145.9945  134.1281  151.0434 C   0  0  0  0  0  0  0  0  0  0  0  0
  146.2845  132.7608  151.6415 C   0  0  0  0  0  0  0  0  0  0  0  0
  145.5088  131.6529  151.2389 C   0  0  0  0  0  0  0  0  0  0  0  0
  145.7775  130.3896  151.7930 C   0  0  0  0  0  0  0  0  0  0  0  0
  146.8178  130.2872  152.7322 C   0  0  0  0  0  0  0  0  0  0  0  0
  147.5641  131.3405  153.1223 N   0  0  0  0  0  0  0  0  0  0  0  0
  147.3178  132.5672  152.5975 C   0  0  0  0  0  0  0  0  0  0  0  0
  148.0640  133.7235  152.9633 N   0  0  0  0  0  0  0  0  0  0  0  0
  148.6796  133.9891  154.1294 C   0  0  0  0  0  0  0  0  0  0  0  0
  148.7121  133.2405  155.1065 O   0  0  0  0  0  0  0  0  0  0  0  0
  149.2683  135.1940  154.1031 N   0  0  0  0  0  0  0  0  0  0  0  0
  150.0047  135.7951  155.2117 C   0  0  0  0  0  0  0  0  0  0  0  0
  149.3914  137.1566  155.5689 C   0  0  0  0  0  0  0  0  0  0  0  0
  150.1741  137.8440  156.7017 C   0  0  0  0  0  0  0  0  0  0  0  0
  151.6121  137.9550  156.3840 N   0  0  0  0  0  0  0  0  0  0  0  0
  152.2672  139.4713  155.8352 S   0  0  0  0  0  0  0  0  0  0  0  0
  152.3837  140.4871  157.3643 C   0  0  0  0  0  0  0  0  0  0  0  0
  153.6313  139.2215  155.3451 O   0  0  0  0  0  0  0  0  0  0  0  0
  151.2752  140.0942  154.9453 O   0  0  0  0  0  0  0  0  0  0  0  0
  152.2552  136.6862  155.9863 C   0  0  0  0  0  0  0  0  0  0  0  0
  151.4870  135.9877  154.8499 C   0  0  0  0  0  0  0  0  0  0  0  0
  145.1677  134.0842  150.3338 H   0  0  0  0  0  0  0  0  0  0  0  0
  146.8698  134.5069  150.5150 H   0  0  0  0  0  0  0  0  0  0  0  0
  145.7267  134.8383  151.8262 H   0  0  0  0  0  0  0  0  0  0  0  0
  144.7160  131.7665  150.5141 H   0  0  0  0  0  0  0  0  0  0  0  0
  145.2016  129.5224  151.5058 H   0  0  0  0  0  0  0  0  0  0  0  0
  147.0580  129.3352  153.1824 H   0  0  0  0  0  0  0  0  0  0  0  0
  148.1288  134.4363  152.2522 H   0  0  0  0  0  0  0  0  0  0  0  0
  149.1932  135.7414  153.2584 H   0  0  0  0  0  0  0  0  0  0  0  0
  149.9300  135.1445  156.0855 H   0  0  0  0  0  0  0  0  0  0  0  0
  149.3715  137.7985  154.6886 H   0  0  0  0  0  0  0  0  0  0  0  0
  148.3524  137.0274  155.8743 H   0  0  0  0  0  0  0  0  0  0  0  0
  149.7536  138.8273  156.9109 H   0  0  0  0  0  0  0  0  0  0  0  0
  150.0692  137.2641  157.6193 H   0  0  0  0  0  0  0  0  0  0  0  0
  152.7882  141.4666  157.1103 H   0  0  0  0  0  0  0  0  0  0  0  0
  153.0474  140.0054  158.0801 H   0  0  0  0  0  0  0  0  0  0  0  0
  151.3945  140.6158  157.8005 H   0  0  0  0  0  0  0  0  0  0  0  0
  153.2901  136.8600  155.6930 H   0  0  0  0  0  0  0  0  0  0  0  0
  152.2895  136.0311  156.8575 H   0  0  0  0  0  0  0  0  0  0  0  0
  151.9511  135.0228  154.6428 H   0  0  0  0  0  0  0  0  0  0  0  0
  151.5722  136.5680  153.9317 H   0  0  0  0  0  0  0  0  0  0  0  0
  1  2  1  0  0  0  0
  1 22  1  0  0  0  0
  1 23  1  0  0  0  0
  1 24  1  0  0  0  0
  2  7  1  0  0  0  0
  2  3  2  0  0  0  0
  3  4  1  0  0  0  0
  3 25  1  0  0  0  0
  4  5  2  0  0  0  0
  4 26  1  0  0  0  0
  5  6  1  0  0  0  0
  5 27  1  0  0  0  0
  6  7  2  0  0  0  0
  7  8  1  0  0  0  0
  8  9  1  0  0  0  0
  8 28  1  0  0  0  0
  9 10  2  0  0  0  0
  9 11  1  0  0  0  0
 11 12  1  0  0  0  0
 11 29  1  0  0  0  0
 12 21  1  0  0  0  0
 12 13  1  0  0  0  0
 12 30  1  0  0  0  0
 13 14  1  0  0  0  0
 13 31  1  0  0  0  0
 13 32  1  0  0  0  0
 14 15  1  0  0  0  0
 14 33  1  0  0  0  0
 14 34  1  0  0  0  0
 15 16  1  0  0  0  0
 15 20  1  0  0  0  0
 16 17  1  0  0  0  0
 16 18  2  0  0  0  0
 16 19  2  0  0  0  0
 17 35  1  0  0  0  0
 17 36  1  0  0  0  0
 17 37  1  0  0  0  0
 20 21  1  0  0  0  0
 20 38  1  0  0  0  0
 20 39  1  0  0  0  0
 21 40  1  0  0  0  0
 21 41  1  0  0  0  0
M  END
> <s_m_source_file>
AV-unprocessed.smi

> <i_m_source_file_index>
1408

> <i_lp_mmshare_version>
43012

> <i_f3d_flags>
0

> <s_epik_input>
W0NIM11jMVtjSF1bY0hdW2NIXW5jMVtOSF1DKD1PKVtOSF1bQ0hdMltDSDJdW0NIMl1OKFMoPU8pKD1PKVtDSDNdKVtDSDJdW0NIMl0y

> <s_epik_cmdline>
J2VwaWtfcHl0aG9uJywgJy1waCcsICc3LjAnLCAnLXRuJywgJzgnLCAnLW1hJywgJzIwMCcsICctbWV0YWxfYmluZGluZycsICctaW1hZScsICc8aW5maWxlLm1hZT4nLCAnLW9tYWUnLCAnPG91dGZpbGUubWFlPic=

> <r_lp_tautomer_probability>
1

> <r_epik_Ionization_Penalty>
5.70787e-05

> <r_epik_Ionization_Penalty_Charging>
0

> <r_epik_Ionization_Penalty_Neutral>
5.70787e-05

> <r_epik_State_Penalty>
-0

> <r_epik_Charging_Adjusted_Penalty>
0

> <i_epik_Tot_Q>
0

> <i_epik_Tot_abs_Q>
0

> <r_epik_Metal_State_Penalty>
-0

> <b_epik_Metal_Only>
0

> <s_lp_Force_Field>
OPLS_2005

> <r_lp_Energy>
5.75517

> <b_lp_Chiralities_Consistent>
1

> <s_lp_Variant>
AV-unprocessed.smi:1408-1

> <Gold.Version>
5.8.1

> <Gold.Id.Protein>
6NUR|6NUR_protein|mol2

> <Gold.PLP.Fitness>
39.9671

> <Gold.PLP.PLP>
-28.6936

> <Gold.PLP.part.hbond>
-3.8392

> <Gold.PLP.part.metal>
0.0000

> <Gold.PLP.part.buried>
-3.3736

> <Gold.PLP.part.nonpolar>
-20.4089

> <Gold.PLP.part.repulsive>
0.1793

> <Gold.PLP.ligand.clash>
0.0000

> <Gold.PLP.ligand.torsion>
1.2574

> <Gold.PLP.Chemscore.Hbond>
3.9120

> <Gold.PLP.Chemscore.CHOScore>
0.0000

> <Gold.PLP.Chemscore.Metal>
0.0000

> <Gold.Chemscore.Hbonds>
donor molecule, donor type, donor heavy atom, donor atom, acceptor molecule, acceptor atom, score
      L1  H     8    28       P1  7948  0.73
      L1  H    11    29       P1  7948  0.84
      P1  H  7989  7998       L1    19  1.00
      P1  H  7997  8009       L1    18  0.41

> <Gold.PLP.Chemscore.Internal.Correction>
2.0523

> <Gold.Rescore>
     Score         DG    S(hbond)    S(metal)    S(lipo)     H(rot)  DE(clash)    DE(int)     intcor
     18.91     -20.51       3.30        0.00      56.14       1.00       0.14       1.46       ----

> <Gold.Chemscore.Fitness>
18.9131

> <Gold.Chemscore.DG>
-20.5139

> <Gold.Chemscore.ZeroCoef>
-5.4800

> <Gold.Chemscore.Hbond>
3.3010

> <Gold.Chemscore.Metal>
0.0000

> <Gold.Chemscore.Lipo>
56.1419

> <Gold.Chemscore.Internal_Hbond>
0.0000

> <Gold.Chemscore.DEClash>
0.1445

> <Gold.Chemscore.DEInternal>
1.4563

> <Gold.Chemscore.Rot>
1.0000

> <Gold.Chemscore.Internal.Correction>
   9.000000E+99

> <Gold.Chemscore.Hbonds>
donor molecule, donor type, donor heavy atom, donor atom, acceptor molecule, acceptor atom, score
      L1  H     8    28       P1  7948  0.12
      L1  H    11    29       P1  7948  0.45
      P1  H  7989  7998       L1    19  0.99
      P1  H  7997  8009       L1    18  0.06

> <Gold.Chemscore.Hbond.Weighted>
-11.0253

> <Gold.Chemscore.Metal.Weighted>
-0.0000

> <Gold.Chemscore.Lipo.Weighted>
-6.5686

> <Gold.Chemscore.Internal_Hbond.Weighted>
0.0000

> <Gold.Chemscore.DEClash.Weighted>
0.1445

> <Gold.Chemscore.DEInternal.Weighted>
1.4563

> <Gold.Chemscore.Rot.Weighted>
2.5600

> <Gold.Chemscore.Internal.Correction.Weighted>
   9.000000E+99

> <Gold.Protein.RotatedTorsions>
[ 6907 6896 6895 6894 ] final   33.07 input  -60.11 | X-H torsion
[ 7974 7965 7964 7962 ] final -169.66 input  175.53 | X-H torsion
[ 8008 7997 7996 7995 ] final -172.49 input   59.86 | X-H torsion
[ 10167 10162 10161 10158 ] final   24.77 input  -65.29 | X-H torsion
[ 10718 10713 10712 10709 ] final -125.50 input   66.30 | X-H torsion
[ 10763 10752 10751 10750 ] final -158.26 input  -60.55 | X-H torsion
[ 11005 11000 10999 10996 ] final  102.87 input  -57.11 | X-H torsion

> <Gold.Protein.ActiveResidues>
 VAL166  LYS551  ARG553  GLY616  TRP617  ASP618  TYR619  PRO620  LYS621  CYS622 
 ASP623  PHE694  ASN695  SER759  ASP760  ASP761  ALA762  ILE779  LEU786  VAL792 
 PHE793  MET794  SER795  GLU796  ALA797  LYS798  CYS799  TRP800  GLU811  SER814 

> <Gold.Protein.RotatedAtoms>
  152.0833  134.9456  160.0572 H   0  0  0  0  0  0  0  0  0  0  0  0  # atno 6907 bound_to 6896
  152.0737  133.4114  159.4478 H   0  0  0  0  0  0  0  0  0  0  0  0  # atno 6908 bound_to 6896
  150.6836  134.2982  159.4739 H   0  0  0  0  0  0  0  0  0  0  0  0  # atno 6909 bound_to 6896
  144.7182  140.2188  143.6318 H   0  0  0  0  0  0  0  0  0  0  0  0  # atno 7974 bound_to 7965
  155.9453  140.1116  157.1022 H   0  0  0  0  0  0  0  0  0  0  0  0  # atno 8008 bound_to 7997
  154.4098  140.1211  156.5047 H   0  0  0  0  0  0  0  0  0  0  0  0  # atno 8009 bound_to 7997
  155.6910  140.3472  155.4896 H   0  0  0  0  0  0  0  0  0  0  0  0  # atno 8010 bound_to 7997
  140.5161  144.0081  150.6394 H   0  0  0  0  0  0  0  0  0  0  0  0  # atno 10167 bound_to 10162
  156.1681  130.6648  151.0142 H   0  0  0  0  0  0  0  0  0  0  0  0  # atno 10718 bound_to 10713
  154.7571  135.3107  154.8449 H   0  0  0  0  0  0  0  0  0  0  0  0  # atno 10763 bound_to 10752
  153.9220  135.6794  153.4751 H   0  0  0  0  0  0  0  0  0  0  0  0  # atno 10764 bound_to 10752
  153.1169  135.4840  154.9060 H   0  0  0  0  0  0  0  0  0  0  0  0  # atno 10765 bound_to 10752
  139.8780  134.9241  156.5124 H   0  0  0  0  0  0  0  0  0  0  0  0  # atno 11005 bound_to 11000
  145.8521  139.2180  143.1766 LP  0  0  0  0  0  0  0  0  0  0  0  0  # atno 17320 bound_to 7965
  146.0251  140.8311  142.9904 LP  0  0  0  0  0  0  0  0  0  0  0  0  # atno 17321 bound_to 7965
  140.3417  143.3016  152.0581 LP  0  0  0  0  0  0  0  0  0  0  0  0  # atno 17342 bound_to 10162
  139.4909  144.6438  151.6822 LP  0  0  0  0  0  0  0  0  0  0  0  0  # atno 17343 bound_to 10162
  157.6783  131.0845  150.7438 LP  0  0  0  0  0  0  0  0  0  0  0  0  # atno 17370 bound_to 10713
  156.7498  130.4765  149.5459 LP  0  0  0  0  0  0  0  0  0  0  0  0  # atno 17371 bound_to 10713
  140.8510  133.8132  155.9169 LP  0  0  0  0  0  0  0  0  0  0  0  0  # atno 17394 bound_to 11000
  140.9144  134.2220  157.4966 LP  0  0  0  0  0  0  0  0  0  0  0  0  # atno 17395 bound_to 11000

$$$$
