AV-unprocessed.smi:514|AV-procd|sdf|2776|dock2
  -GOLD-   2262023243D 1   1.00000     0.00000
 Structure written by MMmdl.
 46 48  0  0  0  0  0  0  0  0  2 V2000
  152.0062  145.1788  159.9201 C   0  0  0  0  0  0  0  0  0  0  0  0
  152.3677  144.2338  158.7725 C   0  0  0  0  0  0  0  0  0  0  0  0
  151.1709  143.6934  158.2417 O   0  0  0  0  0  0  0  0  0  0  0  0
  151.3760  142.5271  157.4647 C   0  0  0  0  0  0  0  0  0  0  0  0
  150.0360  141.8128  157.1897 C   0  0  0  0  0  0  0  0  0  0  0  0
  150.1972  140.3968  156.8605 N   0  0  0  0  0  0  0  0  0  0  0  0
  149.7608  139.6954  155.7695 C   0  0  0  0  0  0  0  0  0  0  0  0
  149.0054  140.2433  154.7182 N   0  0  0  0  0  0  0  0  0  0  0  0
  148.5461  139.4480  153.5755 C   0  0  0  0  0  0  0  0  0  0  0  0
  147.0235  139.5627  153.3771 C   0  0  0  0  0  0  0  0  0  0  0  0
  146.6254  140.9744  153.2073 N   0  3  0  0  0  0  0  0  0  0  0  0
  147.1468  141.8405  154.2834 C   0  0  0  0  0  0  0  0  0  0  0  0
  148.6653  141.6416  154.4443 C   0  0  0  0  0  0  0  0  0  0  0  0
  150.0720  138.3954  155.8024 N   0  0  0  0  0  0  0  0  0  0  0  0
  150.7450  138.2465  157.0011 C   0  0  0  0  0  0  0  0  0  0  0  0
  150.8090  139.4266  157.6646 C   0  0  0  0  0  0  0  0  0  0  0  0
  151.4243  139.5364  158.9984 C   0  0  0  0  0  0  0  0  0  0  0  0
  151.4424  140.5725  159.6587 O   0  0  0  0  0  0  0  0  0  0  0  0
  151.9643  138.3730  159.4350 N   0  0  0  0  0  0  0  0  0  0  0  0
  151.9560  137.1620  158.8004 C   0  0  0  0  0  0  0  0  0  0  0  0
  152.5093  136.1931  159.3201 O   0  0  0  0  0  0  0  0  0  0  0  0
  151.3166  137.0837  157.5897 N   0  0  0  0  0  0  0  0  0  0  0  0
  151.2489  135.8171  156.8580 C   0  0  0  0  0  0  0  0  0  0  0  0
  152.4200  138.4020  160.3354 H   0  0  0  0  0  0  0  0  0  0  0  0
  152.9012  145.6180  160.3610 H   0  0  0  0  0  0  0  0  0  0  0  0
  151.4691  144.6493  160.7072 H   0  0  0  0  0  0  0  0  0  0  0  0
  151.3705  145.9927  159.5709 H   0  0  0  0  0  0  0  0  0  0  0  0
  152.9120  144.7762  157.9984 H   0  0  0  0  0  0  0  0  0  0  0  0
  153.0146  143.4350  159.1374 H   0  0  0  0  0  0  0  0  0  0  0  0
  151.8479  142.7916  156.5175 H   0  0  0  0  0  0  0  0  0  0  0  0
  152.0670  141.8757  157.9979 H   0  0  0  0  0  0  0  0  0  0  0  0
  149.3891  141.8965  158.0618 H   0  0  0  0  0  0  0  0  0  0  0  0
  149.4833  142.3131  156.3984 H   0  0  0  0  0  0  0  0  0  0  0  0
  149.0709  139.7744  152.6764 H   0  0  0  0  0  0  0  0  0  0  0  0
  148.8033  138.3975  153.7122 H   0  0  0  0  0  0  0  0  0  0  0  0
  146.7074  138.9931  152.5030 H   0  0  0  0  0  0  0  0  0  0  0  0
  146.5005  139.1452  154.2385 H   0  0  0  0  0  0  0  0  0  0  0  0
  147.0010  141.3028  152.3292 H   0  0  0  0  0  0  0  0  0  0  0  0
  146.9206  142.8804  154.0471 H   0  0  0  0  0  0  0  0  0  0  0  0
  146.6294  141.6033  155.2137 H   0  0  0  0  0  0  0  0  0  0  0  0
  149.0487  142.3063  155.2082 H   0  0  0  0  0  0  0  0  0  0  0  0
  149.1710  141.9461  153.5268 H   0  0  0  0  0  0  0  0  0  0  0  0
  152.1389  135.6956  156.2402 H   0  0  0  0  0  0  0  0  0  0  0  0
  150.3775  135.7778  156.2042 H   0  0  0  0  0  0  0  0  0  0  0  0
  151.1769  134.9572  157.5254 H   0  0  0  0  0  0  0  0  0  0  0  0
  145.6180  141.0403  153.1785 H   0  0  0  0  0  0  0  0  0  0  0  0
  1  2  1  0  0  0  0
  1 25  1  0  0  0  0
  1 26  1  0  0  0  0
  1 27  1  0  0  0  0
  2  3  1  0  0  0  0
  2 28  1  0  0  0  0
  2 29  1  0  0  0  0
  3  4  1  0  0  0  0
  4  5  1  0  0  0  0
  4 30  1  0  0  0  0
  4 31  1  0  0  0  0
  5  6  1  0  0  0  0
  5 32  1  0  0  0  0
  5 33  1  0  0  0  0
  6 16  1  0  0  0  0
  6  7  1  0  0  0  0
  7  8  1  0  0  0  0
  7 14  2  0  0  0  0
  8 13  1  0  0  0  0
  8  9  1  0  0  0  0
  9 10  1  0  0  0  0
  9 34  1  0  0  0  0
  9 35  1  0  0  0  0
 10 11  1  0  0  0  0
 10 36  1  0  0  0  0
 10 37  1  0  0  0  0
 11 12  1  0  0  0  0
 11 38  1  0  0  0  0
 11 46  1  0  0  0  0
 12 13  1  0  0  0  0
 12 39  1  0  0  0  0
 12 40  1  0  0  0  0
 13 41  1  0  0  0  0
 13 42  1  0  0  0  0
 14 15  1  0  0  0  0
 15 22  1  0  0  0  0
 15 16  2  0  0  0  0
 16 17  1  0  0  0  0
 17 18  2  0  0  0  0
 17 19  1  0  0  0  0
 19 24  1  0  0  0  0
 19 20  1  0  0  0  0
 20 21  2  0  0  0  0
 20 22  1  0  0  0  0
 22 23  1  0  0  0  0
 23 43  1  0  0  0  0
 23 44  1  0  0  0  0
 23 45  1  0  0  0  0
M  CHG  1  11   1
M  END
> <s_m_source_file>
AV-unprocessed.smi

> <i_m_source_file_index>
514

> <i_lp_mmshare_version>
43012

> <i_f3d_flags>
0

> <s_epik_input>
W0NIM11uMWMoPU8pW25IXWMoPU8pYyhjMTIpbihbQ0gyXVtDSDJdT1tDSDJdW0NIM10pYyhuMilOM1tDSDJdW0NIMl1bTkhdW0NIMl1bQ0gyXTM=

> <s_epik_cmdline>
J2VwaWtfcHl0aG9uJywgJy1waCcsICc3LjAnLCAnLXRuJywgJzgnLCAnLW1hJywgJzIwMCcsICctbWV0YWxfYmluZGluZycsICctaW1hZScsICc8aW5maWxlLm1hZT4nLCAnLW9tYWUnLCAnPG91dGZpbGUubWFlPic=

> <r_epik_Ionization_Penalty>
0.00860326

> <r_epik_Ionization_Penalty_Charging>
0.00860166

> <r_epik_Ionization_Penalty_Neutral>
1.60107e-06

> <r_epik_State_Penalty>
0.00646614

> <r_epik_Charging_Adjusted_Penalty>
0.0150678

> <i_epik_Tot_Q>
1

> <i_epik_Tot_abs_Q>
1

> <r_epik_Metal_State_Penalty>
0.0342529

> <b_epik_Metal_Only>
0

> <s_lp_Force_Field>
OPLS_2005

> <r_lp_Energy>
46.1071

> <b_lp_Chiralities_Consistent>
1

> <s_lp_Variant>
AV-unprocessed.smi:514-1

> <Gold.Version>
5.8.1

> <Gold.Id.Protein>
6NUR|6NUR_protein|mol2

> <Gold.PLP.Fitness>
42.8164

> <Gold.PLP.PLP>
-36.5506

> <Gold.PLP.part.hbond>
-2.0000

> <Gold.PLP.part.metal>
0.0000

> <Gold.PLP.part.buried>
-2.4563

> <Gold.PLP.part.nonpolar>
-32.4254

> <Gold.PLP.part.repulsive>
0.3044

> <Gold.PLP.ligand.clash>
0.0000

> <Gold.PLP.ligand.torsion>
0.2559

> <Gold.PLP.Chemscore.Hbond>
2.2488

> <Gold.PLP.Chemscore.CHOScore>
0.0000

> <Gold.PLP.Chemscore.Metal>
0.0000

> <Gold.Chemscore.Hbonds>
donor molecule, donor type, donor heavy atom, donor atom, acceptor molecule, acceptor atom, score
      L1  H    11    46       P1 10175  1.53
      P1  H  6896  6909       L1    21  0.26

> <Gold.PLP.Chemscore.Internal.Correction>
0.0312

> <Gold.Rescore>
     Score         DG    S(hbond)    S(metal)    S(lipo)     H(rot)  DE(clash)    DE(int)     intcor
     10.43     -12.65       0.89        0.00      74.02       1.75       0.04       2.18       ----

> <Gold.Chemscore.Fitness>
10.4311

> <Gold.Chemscore.DG>
-12.6502

> <Gold.Chemscore.ZeroCoef>
-5.4800

> <Gold.Chemscore.Hbond>
0.8922

> <Gold.Chemscore.Metal>
0.0000

> <Gold.Chemscore.Lipo>
74.0195

> <Gold.Chemscore.Internal_Hbond>
0.0000

> <Gold.Chemscore.DEClash>
0.0387

> <Gold.Chemscore.DEInternal>
2.1805

> <Gold.Chemscore.Rot>
1.7461

> <Gold.Chemscore.Internal.Correction>
   9.000000E+99

> <Gold.Chemscore.Hbonds>
donor molecule, donor type, donor heavy atom, donor atom, acceptor molecule, acceptor atom, score
      L1  H    11    46       P1 10175  0.30
      P1  H  6896  6909       L1    21  0.26

> <Gold.Chemscore.Hbond.Weighted>
-2.9800

> <Gold.Chemscore.Metal.Weighted>
-0.0000

> <Gold.Chemscore.Lipo.Weighted>
-8.6603

> <Gold.Chemscore.Internal_Hbond.Weighted>
0.0000

> <Gold.Chemscore.DEClash.Weighted>
0.0387

> <Gold.Chemscore.DEInternal.Weighted>
2.1805

> <Gold.Chemscore.Rot.Weighted>
4.4701

> <Gold.Chemscore.Internal.Correction.Weighted>
   9.000000E+99

> <Gold.Protein.RotatedTorsions>
[ 6907 6896 6895 6894 ] final -170.61 input  -60.11 | X-H torsion
[ 7974 7965 7964 7962 ] final   81.97 input  175.53 | X-H torsion
[ 8008 7997 7996 7995 ] final  110.21 input   59.86 | X-H torsion
[ 10167 10162 10161 10158 ] final  -36.34 input  -65.29 | X-H torsion
[ 10718 10713 10712 10709 ] final -155.93 input   66.30 | X-H torsion
[ 10763 10752 10751 10750 ] final  -36.60 input  -60.55 | X-H torsion
[ 11005 11000 10999 10996 ] final  102.67 input  -57.11 | X-H torsion

> <Gold.Protein.ActiveResidues>
 VAL166  LYS551  ARG553  GLY616  TRP617  ASP618  TYR619  PRO620  LYS621  CYS622 
 ASP623  PHE694  ASN695  SER759  ASP760  ASP761  ALA762  ILE779  LEU786  VAL792 
 PHE793  MET794  SER795  GLU796  ALA797  LYS798  CYS799  TRP800  GLU811  SER814 

> <Gold.Protein.RotatedAtoms>
  151.5104  133.3486  159.2883 H   0  0  0  0  0  0  0  0  0  0  0  0  # atno 6907 bound_to 6896
  150.8716  134.8093  159.7170 H   0  0  0  0  0  0  0  0  0  0  0  0  # atno 6908 bound_to 6896
  152.4702  134.4989  159.9770 H   0  0  0  0  0  0  0  0  0  0  0  0  # atno 6909 bound_to 6896
  145.6312  139.2405  143.2083 H   0  0  0  0  0  0  0  0  0  0  0  0  # atno 7974 bound_to 7965
  156.2036  140.3043  155.9579 H   0  0  0  0  0  0  0  0  0  0  0  0  # atno 8008 bound_to 7997
  155.2895  140.0441  157.3039 H   0  0  0  0  0  0  0  0  0  0  0  0  # atno 8009 bound_to 7997
  154.5603  140.2318  155.8354 H   0  0  0  0  0  0  0  0  0  0  0  0  # atno 8010 bound_to 7997
  140.7145  143.3416  151.2346 H   0  0  0  0  0  0  0  0  0  0  0  0  # atno 10167 bound_to 10162
  156.5195  130.8472  151.2677 H   0  0  0  0  0  0  0  0  0  0  0  0  # atno 10718 bound_to 10713
  153.8824  135.6820  153.4766 H   0  0  0  0  0  0  0  0  0  0  0  0  # atno 10763 bound_to 10752
  153.1226  135.4733  154.9218 H   0  0  0  0  0  0  0  0  0  0  0  0  # atno 10764 bound_to 10752
  154.7662  135.3225  154.8233 H   0  0  0  0  0  0  0  0  0  0  0  0  # atno 10765 bound_to 10752
  139.8779  134.9233  156.5093 H   0  0  0  0  0  0  0  0  0  0  0  0  # atno 11005 bound_to 11000
  146.1355  140.7128  142.9392 LP  0  0  0  0  0  0  0  0  0  0  0  0  # atno 17320 bound_to 7965
  144.7193  140.4318  143.7020 LP  0  0  0  0  0  0  0  0  0  0  0  0  # atno 17321 bound_to 7965
  139.6924  143.9669  152.2866 LP  0  0  0  0  0  0  0  0  0  0  0  0  # atno 17342 bound_to 10162
  139.9335  144.6726  150.8338 LP  0  0  0  0  0  0  0  0  0  0  0  0  # atno 17343 bound_to 10162
  157.7439  130.9922  150.2628 LP  0  0  0  0  0  0  0  0  0  0  0  0  # atno 17370 bound_to 10713
  156.3162  130.3779  149.7616 LP  0  0  0  0  0  0  0  0  0  0  0  0  # atno 17371 bound_to 10713
  140.8532  133.8116  155.9190 LP  0  0  0  0  0  0  0  0  0  0  0  0  # atno 17394 bound_to 11000
  140.9123  134.2245  157.4978 LP  0  0  0  0  0  0  0  0  0  0  0  0  # atno 17395 bound_to 11000

$$$$
