AV-unprocessed.smi:1757|AV-procd|sdf|7075|dock9
  -GOLD-   22720 8293D 1   1.00000     0.00000
 Structure written by MMmdl.
 40 41  0  0  0  0  0  0  0  0  2 V2000
  148.0536  133.3263  153.6723 C   0  0  0  0  0  0  0  0  0  0  0  0
  148.6556  134.6054  154.1057 N   0  3  2  0  0  0  0  0  0  0  0  0
  149.9829  134.4178  154.7425 C   0  0  0  0  0  0  0  0  0  0  0  0
  150.6384  135.7716  155.0634 C   0  0  0  0  0  0  0  0  0  0  0  0
  149.7237  136.6353  155.9477 C   0  0  1  0  0  0  0  0  0  0  0  0
  150.3212  137.9536  156.1445 N   0  0  0  0  0  0  0  0  0  0  0  0
  150.6966  138.4783  157.3200 C   0  0  0  0  0  0  0  0  0  0  0  0
  150.5737  137.8923  158.3954 O   0  0  0  0  0  0  0  0  0  0  0  0
  151.1952  139.7168  157.1530 N   0  0  0  0  0  0  0  0  0  0  0  0
  151.7279  140.5916  158.1140 C   0  0  0  0  0  0  0  0  0  0  0  0
  151.4626  141.9225  158.1785 C   0  0  0  0  0  0  0  0  0  0  0  0
  152.0364  142.7726  159.2093 C   0  0  0  0  0  0  0  0  0  0  0  0
  151.7651  144.2670  159.2789 C   0  0  0  0  0  0  0  0  0  0  0  0
  152.5187  144.9116  158.3886 F   0  0  0  0  0  0  0  0  0  0  0  0
  150.4873  144.5176  158.9940 F   0  0  0  0  0  0  0  0  0  0  0  0
  152.0299  144.7617  160.4882 F   0  0  0  0  0  0  0  0  0  0  0  0
  152.8385  142.1710  160.1061 C   0  0  0  0  0  0  0  0  0  0  0  0
  153.1043  140.8007  160.0549 N   0  0  0  0  0  0  0  0  0  0  0  0
  152.6008  139.9641  159.1200 C   0  0  0  0  0  0  0  0  0  0  0  0
  152.8787  138.7655  159.1437 O   0  0  0  0  0  0  0  0  0  0  0  0
  148.3424  136.7776  155.2865 C   0  0  0  0  0  0  0  0  0  0  0  0
  147.7378  135.4020  154.9580 C   0  0  0  0  0  0  0  0  0  0  0  0
  153.7119  140.4239  160.7679 H   0  0  0  0  0  0  0  0  0  0  0  0
  147.8518  132.6794  154.5270 H   0  0  0  0  0  0  0  0  0  0  0  0
  148.7221  132.7973  152.9923 H   0  0  0  0  0  0  0  0  0  0  0  0
  147.1150  133.5012  153.1454 H   0  0  0  0  0  0  0  0  0  0  0  0
  149.8714  133.8290  155.6547 H   0  0  0  0  0  0  0  0  0  0  0  0
  150.6322  133.8495  154.0754 H   0  0  0  0  0  0  0  0  0  0  0  0
  151.5951  135.6088  155.5614 H   0  0  0  0  0  0  0  0  0  0  0  0
  150.8597  136.2961  154.1324 H   0  0  0  0  0  0  0  0  0  0  0  0
  149.5956  136.1248  156.9043 H   0  0  0  0  0  0  0  0  0  0  0  0
  150.4587  138.5155  155.3169 H   0  0  0  0  0  0  0  0  0  0  0  0
  151.1521  140.0976  156.2186 H   0  0  0  0  0  0  0  0  0  0  0  0
  150.7938  142.3832  157.4700 H   0  0  0  0  0  0  0  0  0  0  0  0
  153.3303  142.6859  160.9184 H   0  0  0  0  0  0  0  0  0  0  0  0
  147.6683  137.3290  155.9432 H   0  0  0  0  0  0  0  0  0  0  0  0
  148.4280  137.3628  154.3695 H   0  0  0  0  0  0  0  0  0  0  0  0
  146.7859  135.5375  154.4432 H   0  0  0  0  0  0  0  0  0  0  0  0
  147.5262  134.8554  155.8786 H   0  0  0  0  0  0  0  0  0  0  0  0
  148.8121  135.1462  153.2669 H   0  0  0  0  0  0  0  0  0  0  0  0
  1  2  1  0  0  0  0
  1 24  1  0  0  0  0
  1 25  1  0  0  0  0
  1 26  1  0  0  0  0
  2 22  1  0  0  0  0
  2  3  1  0  0  0  0
  2 40  1  0  0  0  0
  3  4  1  0  0  0  0
  3 27  1  0  0  0  0
  3 28  1  0  0  0  0
  4  5  1  0  0  0  0
  4 29  1  0  0  0  0
  4 30  1  0  0  0  0
  5  6  1  0  0  0  0
  5 21  1  0  0  0  0
  5 31  1  0  0  0  0
  6  7  1  0  0  0  0
  6 32  1  0  0  0  0
  7  8  2  0  0  0  0
  7  9  1  0  0  0  0
  9 10  1  0  0  0  0
  9 33  1  0  0  0  0
 10 19  1  0  0  0  0
 10 11  2  0  0  0  0
 11 12  1  0  0  0  0
 11 34  1  0  0  0  0
 12 13  1  0  0  0  0
 12 17  2  0  0  0  0
 13 14  1  0  0  0  0
 13 15  1  0  0  0  0
 13 16  1  0  0  0  0
 17 18  1  0  0  0  0
 17 35  1  0  0  0  0
 18 23  1  0  0  0  0
 18 19  1  0  0  0  0
 19 20  2  0  0  0  0
 21 22  1  0  0  0  0
 21 36  1  0  0  0  0
 21 37  1  0  0  0  0
 22 38  1  0  0  0  0
 22 39  1  0  0  0  0
M  CHG  1   2   1
M  END
> <s_m_source_file>
AV-unprocessed.smi

> <i_m_source_file_index>
1757

> <i_lp_mmshare_version>
43012

> <i_f3d_flags>
0

> <s_epik_input>
W0NIM11OMVtDSDJdW0NIMl1bQ0hdKFtDSDJdW0NIMl0xKVtOSF1DKD1PKVtOSF1jMltjSF1jKEMoRikoRilGKVtjSF1bbkhdYzI9Tw==

> <s_epik_cmdline>
J2VwaWtfcHl0aG9uJywgJy1waCcsICc3LjAnLCAnLXRuJywgJzgnLCAnLW1hJywgJzIwMCcsICctbWV0YWxfYmluZGluZycsICctaW1hZScsICc8aW5maWxlLm1hZT4nLCAnLW9tYWUnLCAnPG91dGZpbGUubWFlPic=

> <r_lp_tautomer_probability>
1

> <r_epik_Ionization_Penalty>
0.00859077

> <r_epik_Ionization_Penalty_Charging>
0.00857233

> <r_epik_Ionization_Penalty_Neutral>
1.84472e-05

> <r_epik_State_Penalty>
-0

> <r_epik_Charging_Adjusted_Penalty>
0.00857233

> <i_epik_Tot_Q>
1

> <i_epik_Tot_abs_Q>
1

> <r_epik_Metal_State_Penalty>
0.377538

> <b_epik_Metal_Only>
0

> <s_lp_Force_Field>
OPLS_2005

> <r_lp_Energy>
26.9081

> <b_lp_Chiralities_Consistent>
1

> <s_lp_Variant>
AV-unprocessed.smi:1757-1

> <Gold.Version>
5.8.1

> <Gold.Id.Protein>
6NUR|6NUR_protein|mol2

> <Gold.PLP.Fitness>
42.5082

> <Gold.PLP.PLP>
-39.1773

> <Gold.PLP.part.hbond>
-1.0000

> <Gold.PLP.part.metal>
0.0000

> <Gold.PLP.part.buried>
-6.4970

> <Gold.PLP.part.nonpolar>
-31.9549

> <Gold.PLP.part.repulsive>
0.1646

> <Gold.PLP.ligand.clash>
0.3348

> <Gold.PLP.ligand.torsion>
1.1702

> <Gold.PLP.Chemscore.Hbond>
2.0000

> <Gold.PLP.Chemscore.CHOScore>
0.0000

> <Gold.PLP.Chemscore.Metal>
0.0000

> <Gold.Chemscore.Hbonds>
donor molecule, donor type, donor heavy atom, donor atom, acceptor molecule, acceptor atom, score
      L1  H     2    40       P1  7948  2.00

> <Gold.PLP.Chemscore.Internal.Correction>
0.0063

> <Gold.Rescore>
     Score         DG    S(hbond)    S(metal)    S(lipo)     H(rot)  DE(clash)    DE(int)     intcor
     10.58     -14.12       0.98        0.00      67.67       1.00       0.02       3.52       ----

> <Gold.Chemscore.Fitness>
10.5850

> <Gold.Chemscore.DG>
-14.1209

> <Gold.Chemscore.ZeroCoef>
-5.4800

> <Gold.Chemscore.Hbond>
0.9832

> <Gold.Chemscore.Metal>
0.0000

> <Gold.Chemscore.Lipo>
67.6671

> <Gold.Chemscore.Internal_Hbond>
0.0000

> <Gold.Chemscore.DEClash>
0.0184

> <Gold.Chemscore.DEInternal>
3.5176

> <Gold.Chemscore.Rot>
1.0000

> <Gold.Chemscore.Internal.Correction>
   9.000000E+99

> <Gold.Chemscore.Hbonds>
donor molecule, donor type, donor heavy atom, donor atom, acceptor molecule, acceptor atom, score
      L1  H     2    40       P1  7948  0.55

> <Gold.Chemscore.Hbond.Weighted>
-3.2839

> <Gold.Chemscore.Metal.Weighted>
-0.0000

> <Gold.Chemscore.Lipo.Weighted>
-7.9170

> <Gold.Chemscore.Internal_Hbond.Weighted>
0.0000

> <Gold.Chemscore.DEClash.Weighted>
0.0184

> <Gold.Chemscore.DEInternal.Weighted>
3.5176

> <Gold.Chemscore.Rot.Weighted>
2.5600

> <Gold.Chemscore.Internal.Correction.Weighted>
   9.000000E+99

> <Gold.Protein.RotatedTorsions>
[ 6907 6896 6895 6894 ] final  111.02 input  -60.11 | X-H torsion
[ 7974 7965 7964 7962 ] final -108.13 input  175.53 | X-H torsion
[ 8008 7997 7996 7995 ] final   57.32 input   59.86 | X-H torsion
[ 10167 10162 10161 10158 ] final  -84.83 input  -65.29 | X-H torsion
[ 10718 10713 10712 10709 ] final  108.41 input   66.30 | X-H torsion
[ 10763 10752 10751 10750 ] final -171.91 input  -60.55 | X-H torsion
[ 11005 11000 10999 10996 ] final -152.49 input  -57.11 | X-H torsion

> <Gold.Protein.ActiveResidues>
 VAL166  LYS551  ARG553  GLY616  TRP617  ASP618  TYR619  PRO620  LYS621  CYS622 
 ASP623  PHE694  ASN695  SER759  ASP760  ASP761  ALA762  ILE779  LEU786  VAL792 
 PHE793  MET794  SER795  GLU796  ALA797  LYS798  CYS799  TRP800  GLU811  SER814 

> <Gold.Protein.RotatedAtoms>
  152.4991  133.8718  159.7301 H   0  0  0  0  0  0  0  0  0  0  0  0  # atno 6907 bound_to 6896
  150.9203  133.6880  159.2840 H   0  0  0  0  0  0  0  0  0  0  0  0  # atno 6908 bound_to 6896
  151.4260  135.1008  159.9680 H   0  0  0  0  0  0  0  0  0  0  0  0  # atno 6909 bound_to 6896
  145.1967  140.9038  143.3393 H   0  0  0  0  0  0  0  0  0  0  0  0  # atno 7974 bound_to 7965
  155.5318  140.3482  155.4428 H   0  0  0  0  0  0  0  0  0  0  0  0  # atno 8008 bound_to 7997
  156.0713  140.1363  156.9852 H   0  0  0  0  0  0  0  0  0  0  0  0  # atno 8009 bound_to 7997
  154.4529  140.0965  156.6648 H   0  0  0  0  0  0  0  0  0  0  0  0  # atno 8010 bound_to 7997
  140.4095  143.2628  151.9036 H   0  0  0  0  0  0  0  0  0  0  0  0  # atno 10167 bound_to 10162
  157.6587  131.0893  150.6301 H   0  0  0  0  0  0  0  0  0  0  0  0  # atno 10718 bound_to 10713
  154.6252  135.2880  155.0281 H   0  0  0  0  0  0  0  0  0  0  0  0  # atno 10763 bound_to 10752
  154.1461  135.6511  153.4957 H   0  0  0  0  0  0  0  0  0  0  0  0  # atno 10764 bound_to 10752
  153.0254  135.5344  154.7057 H   0  0  0  0  0  0  0  0  0  0  0  0  # atno 10765 bound_to 10752
  140.7183  134.3755  157.5187 H   0  0  0  0  0  0  0  0  0  0  0  0  # atno 11005 bound_to 11000
  144.9988  139.3618  143.6178 LP  0  0  0  0  0  0  0  0  0  0  0  0  # atno 17320 bound_to 7965
  146.3426  139.9202  142.8768 LP  0  0  0  0  0  0  0  0  0  0  0  0  # atno 17321 bound_to 7965
  139.4783  144.5551  151.8325 LP  0  0  0  0  0  0  0  0  0  0  0  0  # atno 17342 bound_to 10162
  140.4653  144.1664  150.5911 LP  0  0  0  0  0  0  0  0  0  0  0  0  # atno 17343 bound_to 10162
  156.6605  130.4511  149.5689 LP  0  0  0  0  0  0  0  0  0  0  0  0  # atno 17370 bound_to 10713
  156.2070  130.6655  151.1229 LP  0  0  0  0  0  0  0  0  0  0  0  0  # atno 17371 bound_to 10713
  139.8854  134.8937  156.2644 LP  0  0  0  0  0  0  0  0  0  0  0  0  # atno 17394 bound_to 11000
  141.0025  133.7143  156.0983 LP  0  0  0  0  0  0  0  0  0  0  0  0  # atno 17395 bound_to 11000

$$$$
