AV-unprocessed.smi:2025|AV-procd|sdf|8197|dock6
  -GOLD-   2272010453D 1   1.00000     0.00000
 Structure written by MMmdl.
 39 40  0  0  0  0  0  0  0  0  1 V2000
  153.4727  141.2940  160.2978 C   0  0  0  0  0  0  0  0  0  0  0  0
  152.3485  141.9840  159.5099 C   0  0  2  0  0  0  0  0  0  0  0  0
  152.3017  141.4093  158.1671 N   0  0  0  0  0  0  0  0  0  0  0  0
  151.2662  140.7383  157.6394 C   0  0  0  0  0  0  0  0  0  0  0  0
  150.2129  140.5324  158.2439 O   0  0  0  0  0  0  0  0  0  0  0  0
  151.4472  140.2510  156.1956 C   0  0  0  0  0  0  0  0  0  0  0  0
  150.2321  140.3996  155.3840 N   0  0  0  0  0  0  0  0  0  0  0  0
  149.7020  141.6594  155.1713 C   0  0  0  0  0  0  0  0  0  0  0  0
  148.5801  141.8841  154.4536 C   0  0  0  0  0  0  0  0  0  0  0  0
  147.8497  140.7792  153.8454 C   0  0  0  0  0  0  0  0  0  0  0  0
  146.8182  140.9282  153.1885 O   0  0  0  0  0  0  0  0  0  0  0  0
  148.4156  139.5035  154.0706 N   0  0  0  0  0  0  0  0  0  0  0  0
  147.7199  138.3772  153.4838 C   0  0  0  0  0  0  0  0  0  0  0  0
  149.5847  139.2721  154.8328 C   0  0  0  0  0  0  0  0  0  0  0  0
  150.0361  138.1405  155.0245 O   0  0  0  0  0  0  0  0  0  0  0  0
  152.5440  143.5124  159.4219 C   0  0  2  0  0  0  0  0  0  0  0  0
  152.1438  144.2777  160.6845 C   0  0  0  0  0  0  0  0  0  0  0  0
  151.8640  145.6570  160.1342 C   0  0  0  0  0  0  0  0  0  0  0  0
  151.1966  145.3311  158.8023 C   0  0  0  0  0  0  0  0  0  0  0  0
  151.7241  144.0712  158.3961 O   0  0  0  0  0  0  0  0  0  0  0  0
  153.5117  141.6476  161.3282 H   0  0  0  0  0  0  0  0  0  0  0  0
  154.4473  141.4786  159.8449 H   0  0  0  0  0  0  0  0  0  0  0  0
  153.3204  140.2147  160.3326 H   0  0  0  0  0  0  0  0  0  0  0  0
  151.4103  141.7803  160.0294 H   0  0  0  0  0  0  0  0  0  0  0  0
  153.1212  141.5373  157.5918 H   0  0  0  0  0  0  0  0  0  0  0  0
  152.2645  140.8176  155.7473 H   0  0  0  0  0  0  0  0  0  0  0  0
  151.7760  139.2101  156.1934 H   0  0  0  0  0  0  0  0  0  0  0  0
  150.2068  142.5100  155.6059 H   0  0  0  0  0  0  0  0  0  0  0  0
  148.2175  142.8940  154.3295 H   0  0  0  0  0  0  0  0  0  0  0  0
  148.2953  137.4579  153.5882 H   0  0  0  0  0  0  0  0  0  0  0  0
  147.5819  138.5912  152.4225 H   0  0  0  0  0  0  0  0  0  0  0  0
  146.7630  138.2887  154.0008 H   0  0  0  0  0  0  0  0  0  0  0  0
  153.5815  143.7471  159.1778 H   0  0  0  0  0  0  0  0  0  0  0  0
  151.2343  143.8583  161.1175 H   0  0  0  0  0  0  0  0  0  0  0  0
  152.9209  144.2750  161.4492 H   0  0  0  0  0  0  0  0  0  0  0  0
  151.2371  146.2633  160.7885 H   0  0  0  0  0  0  0  0  0  0  0  0
  152.8010  146.1895  159.9660 H   0  0  0  0  0  0  0  0  0  0  0  0
  150.1185  145.2283  158.9295 H   0  0  0  0  0  0  0  0  0  0  0  0
  151.3770  146.0992  158.0499 H   0  0  0  0  0  0  0  0  0  0  0  0
  1  2  1  0  0  0  0
  1 21  1  0  0  0  0
  1 22  1  0  0  0  0
  1 23  1  0  0  0  0
  2  3  1  0  0  0  0
  2 16  1  0  0  0  0
  2 24  1  0  0  0  0
  3  4  1  0  0  0  0
  3 25  1  0  0  0  0
  4  5  2  0  0  0  0
  4  6  1  0  0  0  0
  6  7  1  0  0  0  0
  6 26  1  0  0  0  0
  6 27  1  0  0  0  0
  7 14  1  0  0  0  0
  7  8  1  0  0  0  0
  8  9  2  0  0  0  0
  8 28  1  0  0  0  0
  9 10  1  0  0  0  0
  9 29  1  0  0  0  0
 10 11  2  0  0  0  0
 10 12  1  0  0  0  0
 12 13  1  0  0  0  0
 12 14  1  0  0  0  0
 13 30  1  0  0  0  0
 13 31  1  0  0  0  0
 13 32  1  0  0  0  0
 14 15  2  0  0  0  0
 16 20  1  0  0  0  0
 16 17  1  0  0  0  0
 16 33  1  0  0  0  0
 17 18  1  0  0  0  0
 17 34  1  0  0  0  0
 17 35  1  0  0  0  0
 18 19  1  0  0  0  0
 18 36  1  0  0  0  0
 18 37  1  0  0  0  0
 19 20  1  0  0  0  0
 19 38  1  0  0  0  0
 19 39  1  0  0  0  0
M  END
> <s_m_source_file>
AV-unprocessed.smi

> <i_m_source_file_index>
2025

> <i_lp_mmshare_version>
43012

> <i_f3d_flags>
0

> <s_epik_input>
TzFbQ0gyXVtDSDJdW0NIMl1bQ0BIXTFbQ0BIXShbQ0gzXSlbTkhdQyg9TylbQ0gyXW4yW2NIXVtjSF1jKD1PKW4oW0NIM10pYzI9Tw==

> <s_epik_cmdline>
J2VwaWtfcHl0aG9uJywgJy1waCcsICc3LjAnLCAnLXRuJywgJzgnLCAnLW1hJywgJzIwMCcsICctbWV0YWxfYmluZGluZycsICctaW1hZScsICc8aW5maWxlLm1hZT4nLCAnLW9tYWUnLCAnPG91dGZpbGUubWFlPic=

> <r_lp_tautomer_probability>
1

> <r_epik_Ionization_Penalty>
3.54787e-08

> <r_epik_Ionization_Penalty_Charging>
1.24654e-08

> <r_epik_Ionization_Penalty_Neutral>
2.30132e-08

> <r_epik_State_Penalty>
-0

> <r_epik_Charging_Adjusted_Penalty>
1.24654e-08

> <i_epik_Tot_Q>
0

> <i_epik_Tot_abs_Q>
0

> <r_epik_Metal_State_Penalty>
-0

> <b_epik_Metal_Only>
0

> <s_lp_Force_Field>
OPLS_2005

> <r_lp_Energy>
25.7594

> <b_lp_Chiralities_Consistent>
1

> <s_lp_Variant>
AV-unprocessed.smi:2025-1

> <Gold.Version>
5.8.1

> <Gold.Id.Protein>
6NUR|6NUR_protein|mol2

> <Gold.PLP.Fitness>
40.7170

> <Gold.PLP.PLP>
-39.7286

> <Gold.PLP.part.hbond>
0.0000

> <Gold.PLP.part.metal>
0.0000

> <Gold.PLP.part.buried>
0.1820

> <Gold.PLP.part.nonpolar>
-40.4932

> <Gold.PLP.part.repulsive>
0.5016

> <Gold.PLP.ligand.clash>
0.0000

> <Gold.PLP.ligand.torsion>
0.6120

> <Gold.PLP.Chemscore.Hbond>
0.0000

> <Gold.PLP.Chemscore.CHOScore>
0.7310

> <Gold.PLP.Chemscore.Metal>
0.0000

> <Gold.Chemscore.Hbonds>
donor molecule, donor type, donor heavy atom, donor atom, acceptor molecule, acceptor atom, score
      L1  C     8    28       P1  8028  0.65

> <Gold.PLP.Chemscore.Internal.Correction>
0.0195

> <Gold.Rescore>
     Score         DG    S(hbond)    S(metal)    S(lipo)     H(rot)  DE(clash)    DE(int)     intcor
     10.95     -11.98       0.00        0.00      95.47       1.82       0.24       0.79       ----

> <Gold.Chemscore.Fitness>
10.9472

> <Gold.Chemscore.DG>
-11.9834

> <Gold.Chemscore.ZeroCoef>
-5.4800

> <Gold.Chemscore.Hbond>
0.0000

> <Gold.Chemscore.Metal>
0.0000

> <Gold.Chemscore.Lipo>
95.4691

> <Gold.Chemscore.Internal_Hbond>
0.0000

> <Gold.Chemscore.DEClash>
0.2444

> <Gold.Chemscore.DEInternal>
0.7918

> <Gold.Chemscore.Rot>
1.8228

> <Gold.Chemscore.Internal.Correction>
   9.000000E+99

> <Gold.Chemscore.Hbond.Weighted>
-0.0000

> <Gold.Chemscore.Metal.Weighted>
-0.0000

> <Gold.Chemscore.Lipo.Weighted>
-11.1699

> <Gold.Chemscore.Internal_Hbond.Weighted>
0.0000

> <Gold.Chemscore.DEClash.Weighted>
0.2444

> <Gold.Chemscore.DEInternal.Weighted>
0.7918

> <Gold.Chemscore.Rot.Weighted>
4.6665

> <Gold.Chemscore.Internal.Correction.Weighted>
   9.000000E+99

> <Gold.Protein.RotatedTorsions>
[ 6907 6896 6895 6894 ] final  -29.62 input  -60.11 | X-H torsion
[ 7974 7965 7964 7962 ] final  -71.79 input  175.53 | X-H torsion
[ 8008 7997 7996 7995 ] final -132.08 input   59.86 | X-H torsion
[ 10167 10162 10161 10158 ] final -160.44 input  -65.29 | X-H torsion
[ 10718 10713 10712 10709 ] final  -49.43 input   66.30 | X-H torsion
[ 10763 10752 10751 10750 ] final  -52.04 input  -60.55 | X-H torsion
[ 11005 11000 10999 10996 ] final  -76.92 input  -57.11 | X-H torsion

> <Gold.Protein.ActiveResidues>
 VAL166  LYS551  ARG553  GLY616  TRP617  ASP618  TYR619  PRO620  LYS621  CYS622 
 ASP623  PHE694  ASN695  SER759  ASP760  ASP761  ALA762  ILE779  LEU786  VAL792 
 PHE793  MET794  SER795  GLU796  ALA797  LYS798  CYS799  TRP800  GLU811  SER814 

> <Gold.Protein.RotatedAtoms>
  151.1167  135.0057  159.8519 H   0  0  0  0  0  0  0  0  0  0  0  0  # atno 6907 bound_to 6896
  152.5446  134.1771  159.8630 H   0  0  0  0  0  0  0  0  0  0  0  0  # atno 6908 bound_to 6896
  151.1826  133.4671  159.2627 H   0  0  0  0  0  0  0  0  0  0  0  0  # atno 6909 bound_to 6896
  145.6735  140.9213  143.0870 H   0  0  0  0  0  0  0  0  0  0  0  0  # atno 7974 bound_to 7965
  155.3230  140.0463  157.3040 H   0  0  0  0  0  0  0  0  0  0  0  0  # atno 8008 bound_to 7997
  154.5370  140.2275  155.8672 H   0  0  0  0  0  0  0  0  0  0  0  0  # atno 8009 bound_to 7997
  156.1844  140.3066  155.9216 H   0  0  0  0  0  0  0  0  0  0  0  0  # atno 8010 bound_to 7997
  139.6539  144.0033  152.2181 H   0  0  0  0  0  0  0  0  0  0  0  0  # atno 10167 bound_to 10162
  156.1894  130.4152  149.9393 H   0  0  0  0  0  0  0  0  0  0  0  0  # atno 10718 bound_to 10713
  154.1363  135.6512  153.4932 H   0  0  0  0  0  0  0  0  0  0  0  0  # atno 10763 bound_to 10752
  153.0179  135.5305  154.6950 H   0  0  0  0  0  0  0  0  0  0  0  0  # atno 10764 bound_to 10752
  154.6199  135.2963  155.0309 H   0  0  0  0  0  0  0  0  0  0  0  0  # atno 10765 bound_to 10752
  141.1657  133.7002  156.7742 H   0  0  0  0  0  0  0  0  0  0  0  0  # atno 11005 bound_to 11000
  144.7049  139.8603  143.7433 LP  0  0  0  0  0  0  0  0  0  0  0  0  # atno 17320 bound_to 7965
  146.1025  139.4022  143.0338 LP  0  0  0  0  0  0  0  0  0  0  0  0  # atno 17321 bound_to 7965
  139.9755  144.6465  150.7949 LP  0  0  0  0  0  0  0  0  0  0  0  0  # atno 17342 bound_to 10162
  140.7550  143.3038  151.3012 LP  0  0  0  0  0  0  0  0  0  0  0  0  # atno 17343 bound_to 10162
  156.7138  130.8980  151.3612 LP  0  0  0  0  0  0  0  0  0  0  0  0  # atno 17370 bound_to 10713
  157.6919  130.9242  150.0538 LP  0  0  0  0  0  0  0  0  0  0  0  0  # atno 17371 bound_to 10713
  140.2442  134.8590  157.3603 LP  0  0  0  0  0  0  0  0  0  0  0  0  # atno 17394 bound_to 11000
  140.1766  134.4541  155.7798 LP  0  0  0  0  0  0  0  0  0  0  0  0  # atno 17395 bound_to 11000

$$$$
