AV-unprocessed.smi:2973|AV-procd|sdf|11339|dock5
  -GOLD-   2272016253D 1   1.00000     0.00000
 Structure written by MMmdl.
 49 51  0  0  0  0  0  0  0  0  1 V2000
  151.5486  140.2551  159.0333 C   0  0  0  0  0  0  0  0  0  0  0  0
  151.9763  141.6451  158.5143 C   0  0  2  0  0  0  0  0  0  0  0  0
  152.3132  142.5754  159.7001 C   0  0  0  0  0  0  0  0  0  0  0  0
  152.8127  143.9507  159.2299 C   0  0  0  0  0  0  0  0  0  0  0  0
  151.7992  144.6242  158.2943 C   0  0  0  0  0  0  0  0  0  0  0  0
  151.4663  143.7154  157.1002 C   0  0  0  0  0  0  0  0  0  0  0  0
  150.9524  142.3282  157.5549 C   0  0  2  0  0  0  0  0  0  0  0  0
  149.6293  142.4332  158.1475 N   0  0  0  0  0  0  0  0  0  0  0  0
  148.6908  141.7830  157.4485 C   0  0  0  0  0  0  0  0  0  0  0  0
  147.5011  141.7154  157.7521 O   0  0  0  0  0  0  0  0  0  0  0  0
  149.2775  141.2129  156.3801 N   0  0  0  0  0  0  0  0  0  0  0  0
  148.5713  140.3795  155.3951 C   0  0  0  0  0  0  0  0  0  0  0  0
  147.4920  141.1118  154.5779 C   0  0  0  0  0  0  0  0  0  0  0  0
  146.9483  140.5222  153.6450 O   0  0  0  0  0  0  0  0  0  0  0  0
  147.1880  142.3777  154.9115 N   0  0  0  0  0  0  0  0  0  0  0  0
  146.2132  143.2195  154.2303 C   0  0  0  0  0  0  0  0  0  0  0  0
  144.8546  143.1963  154.9492 C   0  0  0  0  0  0  0  0  0  0  0  0
  144.2507  144.5815  155.0798 C   0  0  0  0  0  0  0  0  0  0  0  0
  143.7882  145.2750  153.9411 C   0  0  0  0  0  0  0  0  0  0  0  0
  143.2293  146.5555  154.1167 C   0  0  0  0  0  0  0  0  0  0  0  0
  143.1536  147.0901  155.4173 C   0  0  0  0  0  0  0  0  0  0  0  0
  143.6425  146.3166  156.4891 C   0  0  0  0  0  0  0  0  0  0  0  0
  144.1797  145.0874  156.3318 N   0  0  0  0  0  0  0  0  0  0  0  0
  150.5933  141.4674  156.3500 C   0  0  0  0  0  0  0  0  0  0  0  0
  151.4076  141.0752  155.5141 O   0  0  0  0  0  0  0  0  0  0  0  0
  150.6196  140.3031  159.6022 H   0  0  0  0  0  0  0  0  0  0  0  0
  152.3112  139.8351  159.6895 H   0  0  0  0  0  0  0  0  0  0  0  0
  151.4063  139.5442  158.2197 H   0  0  0  0  0  0  0  0  0  0  0  0
  152.9015  141.4984  157.9541 H   0  0  0  0  0  0  0  0  0  0  0  0
  151.4338  142.7047  160.3322 H   0  0  0  0  0  0  0  0  0  0  0  0
  153.0752  142.1139  160.3291 H   0  0  0  0  0  0  0  0  0  0  0  0
  153.0040  144.5907  160.0916 H   0  0  0  0  0  0  0  0  0  0  0  0
  153.7662  143.8355  158.7129 H   0  0  0  0  0  0  0  0  0  0  0  0
  150.8890  144.8613  158.8466 H   0  0  0  0  0  0  0  0  0  0  0  0
  152.1981  145.5741  157.9371 H   0  0  0  0  0  0  0  0  0  0  0  0
  150.7318  144.2078  156.4608 H   0  0  0  0  0  0  0  0  0  0  0  0
  152.3632  143.5932  156.4907 H   0  0  0  0  0  0  0  0  0  0  0  0
  149.4525  142.9423  159.0013 H   0  0  0  0  0  0  0  0  0  0  0  0
  149.2912  139.9456  154.6991 H   0  0  0  0  0  0  0  0  0  0  0  0
  148.1024  139.5301  155.8946 H   0  0  0  0  0  0  0  0  0  0  0  0
  147.6773  142.7904  155.6922 H   0  0  0  0  0  0  0  0  0  0  0  0
  146.5878  144.2414  154.1502 H   0  0  0  0  0  0  0  0  0  0  0  0
  146.1028  142.8479  153.2111 H   0  0  0  0  0  0  0  0  0  0  0  0
  144.1567  142.5556  154.4081 H   0  0  0  0  0  0  0  0  0  0  0  0
  144.9616  142.7603  155.9432 H   0  0  0  0  0  0  0  0  0  0  0  0
  143.8578  144.8369  152.9562 H   0  0  0  0  0  0  0  0  0  0  0  0
  142.8641  147.1169  153.2694 H   0  0  0  0  0  0  0  0  0  0  0  0
  142.7307  148.0687  155.5894 H   0  0  0  0  0  0  0  0  0  0  0  0
  143.6002  146.6949  157.4996 H   0  0  0  0  0  0  0  0  0  0  0  0
  1  2  1  0  0  0  0
  1 26  1  0  0  0  0
  1 27  1  0  0  0  0
  1 28  1  0  0  0  0
  2  7  1  0  0  0  0
  2  3  1  0  0  0  0
  2 29  1  0  0  0  0
  3  4  1  0  0  0  0
  3 30  1  0  0  0  0
  3 31  1  0  0  0  0
  4  5  1  0  0  0  0
  4 32  1  0  0  0  0
  4 33  1  0  0  0  0
  5  6  1  0  0  0  0
  5 34  1  0  0  0  0
  5 35  1  0  0  0  0
  6  7  1  0  0  0  0
  6 36  1  0  0  0  0
  6 37  1  0  0  0  0
  7 24  1  0  0  0  0
  7  8  1  0  0  0  0
  8  9  1  0  0  0  0
  8 38  1  0  0  0  0
  9 10  2  0  0  0  0
  9 11  1  0  0  0  0
 11 12  1  0  0  0  0
 11 24  1  0  0  0  0
 12 13  1  0  0  0  0
 12 39  1  0  0  0  0
 12 40  1  0  0  0  0
 13 14  2  0  0  0  0
 13 15  1  0  0  0  0
 15 16  1  0  0  0  0
 15 41  1  0  0  0  0
 16 17  1  0  0  0  0
 16 42  1  0  0  0  0
 16 43  1  0  0  0  0
 17 18  1  0  0  0  0
 17 44  1  0  0  0  0
 17 45  1  0  0  0  0
 18 23  1  0  0  0  0
 18 19  2  0  0  0  0
 19 20  1  0  0  0  0
 19 46  1  0  0  0  0
 20 21  2  0  0  0  0
 20 47  1  0  0  0  0
 21 22  1  0  0  0  0
 21 48  1  0  0  0  0
 22 23  2  0  0  0  0
 22 49  1  0  0  0  0
 24 25  2  0  0  0  0
M  END
> <s_m_source_file>
AV-unprocessed.smi

> <i_m_source_file_index>
2973

> <i_lp_mmshare_version>
43012

> <i_f3d_flags>
0

> <s_epik_input>
W0NIMl0xW0NIMl1bQ0gyXVtDSDJdW0NAQEhdKFtDSDNdKVtDQF0xMltOSF1DKD1PKU4oQzI9TylbQ0gyXUMoPU8pW05IXVtDSDJdW0NIMl1jM1tjSF1bY0hdW2NIXVtjSF1uMw==

> <s_epik_cmdline>
J2VwaWtfcHl0aG9uJywgJy1waCcsICc3LjAnLCAnLXRuJywgJzgnLCAnLW1hJywgJzIwMCcsICctbWV0YWxfYmluZGluZycsICctaW1hZScsICc8aW5maWxlLm1hZT4nLCAnLW9tYWUnLCAnPG91dGZpbGUubWFlPic=

> <r_lp_tautomer_probability>
1

> <r_epik_Ionization_Penalty>
0.0245152

> <r_epik_Ionization_Penalty_Charging>
0

> <r_epik_Ionization_Penalty_Neutral>
0.0245152

> <r_epik_State_Penalty>
0.0198648

> <r_epik_Charging_Adjusted_Penalty>
0.0198648

> <i_epik_Tot_Q>
0

> <i_epik_Tot_abs_Q>
0

> <r_epik_Metal_State_Penalty>
0.0400162

> <b_epik_Metal_Only>
0

> <s_lp_Force_Field>
OPLS_2005

> <r_lp_Energy>
21.7018

> <b_lp_Chiralities_Consistent>
1

> <s_lp_Variant>
AV-unprocessed.smi:2973-3

> <Gold.Version>
5.8.1

> <Gold.Id.Protein>
6NUR|6NUR_protein|mol2

> <Gold.PLP.Fitness>
46.9372

> <Gold.PLP.PLP>
-45.6933

> <Gold.PLP.part.hbond>
-2.0000

> <Gold.PLP.part.metal>
0.0000

> <Gold.PLP.part.buried>
-1.7635

> <Gold.PLP.part.nonpolar>
-42.2409

> <Gold.PLP.part.repulsive>
0.5665

> <Gold.PLP.ligand.clash>
0.0000

> <Gold.PLP.ligand.torsion>
0.6097

> <Gold.PLP.Chemscore.Hbond>
0.8090

> <Gold.PLP.Chemscore.CHOScore>
0.0000

> <Gold.PLP.Chemscore.Metal>
0.0000

> <Gold.Chemscore.Hbonds>
donor molecule, donor type, donor heavy atom, donor atom, acceptor molecule, acceptor atom, score
      L1  H    15    41       P1  8028  0.23
      P1  H  7989  7998       L1    25  0.58

> <Gold.PLP.Chemscore.Internal.Correction>
0.0365

> <Gold.Rescore>
     Score         DG    S(hbond)    S(metal)    S(lipo)     H(rot)  DE(clash)    DE(int)     intcor
     14.68     -17.10       0.68        0.00     120.53       1.86       0.62       1.80       ----

> <Gold.Chemscore.Fitness>
14.6752

> <Gold.Chemscore.DG>
-17.1000

> <Gold.Chemscore.ZeroCoef>
-5.4800

> <Gold.Chemscore.Hbond>
0.6788

> <Gold.Chemscore.Metal>
0.0000

> <Gold.Chemscore.Lipo>
120.5343

> <Gold.Chemscore.Internal_Hbond>
0.0000

> <Gold.Chemscore.DEClash>
0.6213

> <Gold.Chemscore.DEInternal>
1.8035

> <Gold.Chemscore.Rot>
1.8553

> <Gold.Chemscore.Internal.Correction>
   9.000000E+99

> <Gold.Chemscore.Hbonds>
donor molecule, donor type, donor heavy atom, donor atom, acceptor molecule, acceptor atom, score
      L1  H    15    41       P1  8028  0.13
      P1  H  7989  7998       L1    25  0.53

> <Gold.Chemscore.Hbond.Weighted>
-2.2672

> <Gold.Chemscore.Metal.Weighted>
-0.0000

> <Gold.Chemscore.Lipo.Weighted>
-14.1025

> <Gold.Chemscore.Internal_Hbond.Weighted>
0.0000

> <Gold.Chemscore.DEClash.Weighted>
0.6213

> <Gold.Chemscore.DEInternal.Weighted>
1.8035

> <Gold.Chemscore.Rot.Weighted>
4.7497

> <Gold.Chemscore.Internal.Correction.Weighted>
   9.000000E+99

> <Gold.Protein.RotatedTorsions>
[ 6907 6896 6895 6894 ] final   54.50 input  -60.11 | X-H torsion
[ 7974 7965 7964 7962 ] final   89.32 input  175.53 | X-H torsion
[ 8008 7997 7996 7995 ] final  -92.43 input   59.86 | X-H torsion
[ 10167 10162 10161 10158 ] final   88.40 input  -65.29 | X-H torsion
[ 10718 10713 10712 10709 ] final   75.05 input   66.30 | X-H torsion
[ 10763 10752 10751 10750 ] final   93.17 input  -60.55 | X-H torsion
[ 11005 11000 10999 10996 ] final -125.69 input  -57.11 | X-H torsion

> <Gold.Protein.ActiveResidues>
 VAL166  LYS551  ARG553  GLY616  TRP617  ASP618  TYR619  PRO620  LYS621  CYS622 
 ASP623  PHE694  ASN695  SER759  ASP760  ASP761  ALA762  ILE779  LEU786  VAL792 
 PHE793  MET794  SER795  GLU796  ALA797  LYS798  CYS799  TRP800  GLU811  SER814 

> <Gold.Protein.RotatedAtoms>
  152.3445  134.7090  160.0254 H   0  0  0  0  0  0  0  0  0  0  0  0  # atno 6907 bound_to 6896
  151.7464  133.3319  159.3388 H   0  0  0  0  0  0  0  0  0  0  0  0  # atno 6908 bound_to 6896
  150.7500  134.6164  159.6157 H   0  0  0  0  0  0  0  0  0  0  0  0  # atno 6909 bound_to 6896
  145.5339  139.2284  143.2603 H   0  0  0  0  0  0  0  0  0  0  0  0  # atno 7974 bound_to 7965
  154.7230  140.0509  157.0657 H   0  0  0  0  0  0  0  0  0  0  0  0  # atno 8008 bound_to 7997
  155.0401  140.3167  155.4708 H   0  0  0  0  0  0  0  0  0  0  0  0  # atno 8009 bound_to 7997
  156.2821  140.2134  156.5525 H   0  0  0  0  0  0  0  0  0  0  0  0  # atno 8010 bound_to 7997
  139.8676  144.6510  150.8986 H   0  0  0  0  0  0  0  0  0  0  0  0  # atno 10167 bound_to 10162
  157.6618  130.9707  150.1298 H   0  0  0  0  0  0  0  0  0  0  0  0  # atno 10718 bound_to 10713
  153.2273  135.4335  155.0556 H   0  0  0  0  0  0  0  0  0  0  0  0  # atno 10763 bound_to 10752
  154.8280  135.3371  154.6838 H   0  0  0  0  0  0  0  0  0  0  0  0  # atno 10764 bound_to 10752
  153.7267  135.7013  153.5055 H   0  0  0  0  0  0  0  0  0  0  0  0  # atno 10765 bound_to 10752
  140.9741  134.0764  157.3837 H   0  0  0  0  0  0  0  0  0  0  0  0  # atno 11005 bound_to 11000
  146.2026  140.6157  142.9095 LP  0  0  0  0  0  0  0  0  0  0  0  0  # atno 17320 bound_to 7965
  144.7611  140.5425  143.6734 LP  0  0  0  0  0  0  0  0  0  0  0  0  # atno 17321 bound_to 7965
  140.7766  143.3691  151.1683 LP  0  0  0  0  0  0  0  0  0  0  0  0  # atno 17342 bound_to 10162
  139.7314  143.9066  152.3020 LP  0  0  0  0  0  0  0  0  0  0  0  0  # atno 17343 bound_to 10162
  156.2147  130.3669  149.8627 LP  0  0  0  0  0  0  0  0  0  0  0  0  # atno 17370 bound_to 10713
  156.6496  130.8738  151.3529 LP  0  0  0  0  0  0  0  0  0  0  0  0  # atno 17371 bound_to 10713
  139.8924  135.0124  156.6842 LP  0  0  0  0  0  0  0  0  0  0  0  0  # atno 17394 bound_to 11000
  140.7285  133.9080  155.8195 LP  0  0  0  0  0  0  0  0  0  0  0  0  # atno 17395 bound_to 11000

$$$$
