AV-unprocessed.smi:2143|AV-procd|sdf|8726|dock6
  -GOLD-   2272011493D 1   1.00000     0.00000
 Structure written by MMmdl.
 44 45  0  0  0  0  0  0  0  0  1 V2000
  143.4022  134.4887  151.9656 C   0  0  0  0  0  0  0  0  0  0  0  0
  144.7109  134.7107  151.1795 C   0  0  2  0  0  0  0  0  0  0  0  0
  145.1060  133.4588  150.3700 C   0  0  0  0  0  0  0  0  0  0  0  0
  145.6290  132.3278  151.2693 C   0  0  0  0  0  0  0  0  0  0  0  0
  146.8072  132.8050  152.1295 C   0  0  0  0  0  0  0  0  0  0  0  0
  146.4495  134.0557  152.9558 C   0  0  1  0  0  0  0  0  0  0  0  0
  147.6441  134.4973  153.6748 N   0  0  0  0  0  0  0  0  0  0  0  0
  147.7829  134.5684  155.0076 C   0  0  0  0  0  0  0  0  0  0  0  0
  146.8851  134.2827  155.8012 O   0  0  0  0  0  0  0  0  0  0  0  0
  149.1463  135.0622  155.5109 C   0  0  0  0  0  0  0  0  0  0  0  0
  149.4385  136.4482  155.1226 N   0  0  0  0  0  0  0  0  0  0  0  0
  148.3998  137.3032  154.8024 C   0  0  0  0  0  0  0  0  0  0  0  0
  148.5795  138.5962  154.4551 C   0  0  0  0  0  0  0  0  0  0  0  0
  149.9156  139.1762  154.3940 C   0  0  0  0  0  0  0  0  0  0  0  0
  150.1238  140.3555  154.1055 O   0  0  0  0  0  0  0  0  0  0  0  0
  150.9613  138.2757  154.7083 N   0  0  0  0  0  0  0  0  0  0  0  0
  152.3208  138.7753  154.6918 C   0  0  0  0  0  0  0  0  0  0  0  0
  150.7655  136.9289  155.0892 C   0  0  0  0  0  0  0  0  0  0  0  0
  151.7066  136.1910  155.3916 O   0  0  0  0  0  0  0  0  0  0  0  0
  145.9025  135.1912  152.0510 C   0  0  2  0  0  0  0  0  0  0  0  0
  145.5758  136.4799  152.8317 C   0  0  0  0  0  0  0  0  0  0  0  0
  143.5187  133.7560  152.7634 H   0  0  0  0  0  0  0  0  0  0  0  0
  142.6103  134.1313  151.3072 H   0  0  0  0  0  0  0  0  0  0  0  0
  143.0437  135.4137  152.4162 H   0  0  0  0  0  0  0  0  0  0  0  0
  144.4998  135.4987  150.4551 H   0  0  0  0  0  0  0  0  0  0  0  0
  144.2588  133.1057  149.7811 H   0  0  0  0  0  0  0  0  0  0  0  0
  145.8809  133.7269  149.6504 H   0  0  0  0  0  0  0  0  0  0  0  0
  144.8292  131.9589  151.9122 H   0  0  0  0  0  0  0  0  0  0  0  0
  145.9402  131.4821  150.6553 H   0  0  0  0  0  0  0  0  0  0  0  0
  147.1256  131.9993  152.7921 H   0  0  0  0  0  0  0  0  0  0  0  0
  147.6568  133.0226  151.4806 H   0  0  0  0  0  0  0  0  0  0  0  0
  145.6703  133.7765  153.6664 H   0  0  0  0  0  0  0  0  0  0  0  0
  148.4362  134.7633  153.1079 H   0  0  0  0  0  0  0  0  0  0  0  0
  149.1977  134.9610  156.5967 H   0  0  0  0  0  0  0  0  0  0  0  0
  149.9146  134.3956  155.1165 H   0  0  0  0  0  0  0  0  0  0  0  0
  147.3894  136.9222  154.8380 H   0  0  0  0  0  0  0  0  0  0  0  0
  147.7225  139.2116  154.2235 H   0  0  0  0  0  0  0  0  0  0  0  0
  152.9889  137.9836  154.3495 H   0  0  0  0  0  0  0  0  0  0  0  0
  152.5562  139.0849  155.7110 H   0  0  0  0  0  0  0  0  0  0  0  0
  152.4035  139.6090  153.9936 H   0  0  0  0  0  0  0  0  0  0  0  0
  146.7013  135.4548  151.3554 H   0  0  0  0  0  0  0  0  0  0  0  0
  144.8740  136.2898  153.6441 H   0  0  0  0  0  0  0  0  0  0  0  0
  145.1373  137.2344  152.1782 H   0  0  0  0  0  0  0  0  0  0  0  0
  146.4717  136.9182  153.2716 H   0  0  0  0  0  0  0  0  0  0  0  0
  1  2  1  0  0  0  0
  1 22  1  0  0  0  0
  1 23  1  0  0  0  0
  1 24  1  0  0  0  0
  2 20  1  0  0  0  0
  2  3  1  0  0  0  0
  2 25  1  0  0  0  0
  3  4  1  0  0  0  0
  3 26  1  0  0  0  0
  3 27  1  0  0  0  0
  4  5  1  0  0  0  0
  4 28  1  0  0  0  0
  4 29  1  0  0  0  0
  5  6  1  0  0  0  0
  5 30  1  0  0  0  0
  5 31  1  0  0  0  0
  6  7  1  0  0  0  0
  6 20  1  0  0  0  0
  6 32  1  0  0  0  0
  7  8  1  0  0  0  0
  7 33  1  0  0  0  0
  8  9  2  0  0  0  0
  8 10  1  0  0  0  0
 10 11  1  0  0  0  0
 10 34  1  0  0  0  0
 10 35  1  0  0  0  0
 11 18  1  0  0  0  0
 11 12  1  0  0  0  0
 12 13  2  0  0  0  0
 12 36  1  0  0  0  0
 13 14  1  0  0  0  0
 13 37  1  0  0  0  0
 14 15  2  0  0  0  0
 14 16  1  0  0  0  0
 16 17  1  0  0  0  0
 16 18  1  0  0  0  0
 17 38  1  0  0  0  0
 17 39  1  0  0  0  0
 17 40  1  0  0  0  0
 18 19  2  0  0  0  0
 20 21  1  0  0  0  0
 20 41  1  0  0  0  0
 21 42  1  0  0  0  0
 21 43  1  0  0  0  0
 21 44  1  0  0  0  0
M  END
> <s_m_source_file>
AV-unprocessed.smi

> <i_m_source_file_index>
2143

> <i_lp_mmshare_version>
43012

> <i_f3d_flags>
0

> <s_epik_input>
W0NIM11bQ0BASF0xW0NIMl1bQ0gyXVtDSDJdW0NASF0oW0NASF0xW0NIM10pW05IXUMoPU8pW0NIMl1uMltjSF1bY0hdYyg9TyluKFtDSDNdKWMyPU8=

> <s_epik_cmdline>
J2VwaWtfcHl0aG9uJywgJy1waCcsICc3LjAnLCAnLXRuJywgJzgnLCAnLW1hJywgJzIwMCcsICctbWV0YWxfYmluZGluZycsICctaW1hZScsICc8aW5maWxlLm1hZT4nLCAnLW9tYWUnLCAnPG91dGZpbGUubWFlPic=

> <r_lp_tautomer_probability>
1

> <r_epik_Ionization_Penalty>
3.18445e-08

> <r_epik_Ionization_Penalty_Charging>
1.27977e-08

> <r_epik_Ionization_Penalty_Neutral>
1.90469e-08

> <r_epik_State_Penalty>
-0

> <r_epik_Charging_Adjusted_Penalty>
1.27977e-08

> <i_epik_Tot_Q>
0

> <i_epik_Tot_abs_Q>
0

> <r_epik_Metal_State_Penalty>
-0

> <b_epik_Metal_Only>
0

> <s_lp_Force_Field>
OPLS_2005

> <r_lp_Energy>
21.4841

> <b_lp_Chiralities_Consistent>
1

> <s_lp_Variant>
AV-unprocessed.smi:2143-5

> <Gold.Version>
5.8.1

> <Gold.Id.Protein>
6NUR|6NUR_protein|mol2

> <Gold.PLP.Fitness>
39.7988

> <Gold.PLP.PLP>
-32.3660

> <Gold.PLP.part.hbond>
-2.9660

> <Gold.PLP.part.metal>
0.0000

> <Gold.PLP.part.buried>
-4.7739

> <Gold.PLP.part.nonpolar>
-26.3258

> <Gold.PLP.part.repulsive>
0.9253

> <Gold.PLP.ligand.clash>
0.0000

> <Gold.PLP.ligand.torsion>
0.3311

> <Gold.PLP.Chemscore.Hbond>
2.6960

> <Gold.PLP.Chemscore.CHOScore>
0.0000

> <Gold.PLP.Chemscore.Metal>
0.0000

> <Gold.Chemscore.Hbonds>
donor molecule, donor type, donor heavy atom, donor atom, acceptor molecule, acceptor atom, score
      L1  H     7    33       P1  7948  0.80
      P1  H  7989  7998       L1    15  0.86
      P1  H 10752 10765       L1    19  1.00

> <Gold.PLP.Chemscore.Internal.Correction>
0.0069

> <Gold.Rescore>
     Score         DG    S(hbond)    S(metal)    S(lipo)     H(rot)  DE(clash)    DE(int)     intcor
     16.78     -17.16       2.67        0.00      56.76       1.51       0.00       0.39       ----

> <Gold.Chemscore.Fitness>
16.7752

> <Gold.Chemscore.DG>
-17.1632

> <Gold.Chemscore.ZeroCoef>
-5.4800

> <Gold.Chemscore.Hbond>
2.6693

> <Gold.Chemscore.Metal>
0.0000

> <Gold.Chemscore.Lipo>
56.7636

> <Gold.Chemscore.Internal_Hbond>
0.0000

> <Gold.Chemscore.DEClash>
0.0000

> <Gold.Chemscore.DEInternal>
0.3881

> <Gold.Chemscore.Rot>
1.5131

> <Gold.Chemscore.Internal.Correction>
   9.000000E+99

> <Gold.Chemscore.Hbonds>
donor molecule, donor type, donor heavy atom, donor atom, acceptor molecule, acceptor atom, score
      L1  H     7    33       P1  7948  0.47
      P1  H  7989  7998       L1    15  0.84
      P1  H 10752 10765       L1    19  0.96

> <Gold.Chemscore.Hbond.Weighted>
-8.9153

> <Gold.Chemscore.Metal.Weighted>
-0.0000

> <Gold.Chemscore.Lipo.Weighted>
-6.6413

> <Gold.Chemscore.Internal_Hbond.Weighted>
0.0000

> <Gold.Chemscore.DEClash.Weighted>
0.0000

> <Gold.Chemscore.DEInternal.Weighted>
0.3881

> <Gold.Chemscore.Rot.Weighted>
3.8734

> <Gold.Chemscore.Internal.Correction.Weighted>
   9.000000E+99

> <Gold.Protein.RotatedTorsions>
[ 6907 6896 6895 6894 ] final   46.24 input  -60.11 | X-H torsion
[ 7974 7965 7964 7962 ] final    4.98 input  175.53 | X-H torsion
[ 8008 7997 7996 7995 ] final  147.50 input   59.86 | X-H torsion
[ 10167 10162 10161 10158 ] final  -42.77 input  -65.29 | X-H torsion
[ 10718 10713 10712 10709 ] final -170.95 input   66.30 | X-H torsion
[ 10763 10752 10751 10750 ] final -174.24 input  -60.55 | X-H torsion
[ 11005 11000 10999 10996 ] final   22.20 input  -57.11 | X-H torsion

> <Gold.Protein.ActiveResidues>
 VAL166  LYS551  ARG553  GLY616  TRP617  ASP618  TYR619  PRO620  LYS621  CYS622 
 ASP623  PHE694  ASN695  SER759  ASP760  ASP761  ALA762  ILE779  LEU786  VAL792 
 PHE793  MET794  SER795  GLU796  ALA797  LYS798  CYS799  TRP800  GLU811  SER814 

> <Gold.Protein.RotatedAtoms>
  152.2540  134.8103  160.0441 H   0  0  0  0  0  0  0  0  0  0  0  0  # atno 6907 bound_to 6896
  151.8773  133.3483  159.3763 H   0  0  0  0  0  0  0  0  0  0  0  0  # atno 6908 bound_to 6896
  150.7093  134.4980  159.5592 H   0  0  0  0  0  0  0  0  0  0  0  0  # atno 6909 bound_to 6896
  146.2442  140.0453  142.8379 H   0  0  0  0  0  0  0  0  0  0  0  0  # atno 7974 bound_to 7965
  156.2822  140.2154  156.5547 H   0  0  0  0  0  0  0  0  0  0  0  0  # atno 8008 bound_to 7997
  154.7262  140.0499  157.0707 H   0  0  0  0  0  0  0  0  0  0  0  0  # atno 8009 bound_to 7997
  155.0413  140.3146  155.4726 H   0  0  0  0  0  0  0  0  0  0  0  0  # atno 8010 bound_to 7997
  140.6957  143.3019  151.3257 H   0  0  0  0  0  0  0  0  0  0  0  0  # atno 10167 bound_to 10162
  156.7336  130.9316  151.3106 H   0  0  0  0  0  0  0  0  0  0  0  0  # atno 10718 bound_to 10713
  154.5985  135.2852  155.0560 H   0  0  0  0  0  0  0  0  0  0  0  0  # atno 10763 bound_to 10752
  154.1834  135.6453  153.5044 H   0  0  0  0  0  0  0  0  0  0  0  0  # atno 10764 bound_to 10752
  153.0148  135.5429  154.6696 H   0  0  0  0  0  0  0  0  0  0  0  0  # atno 10765 bound_to 10752
  140.3831  134.1899  155.7663 H   0  0  0  0  0  0  0  0  0  0  0  0  # atno 11005 bound_to 11000
  145.1033  140.9359  143.4700 LP  0  0  0  0  0  0  0  0  0  0  0  0  # atno 17320 bound_to 7965
  145.0651  139.3075  143.5861 LP  0  0  0  0  0  0  0  0  0  0  0  0  # atno 17321 bound_to 7965
  139.6410  144.0539  152.2554 LP  0  0  0  0  0  0  0  0  0  0  0  0  # atno 17342 bound_to 10162
  140.0044  144.6270  150.7701 LP  0  0  0  0  0  0  0  0  0  0  0  0  # atno 17343 bound_to 10162
  157.6848  130.9175  150.0359 LP  0  0  0  0  0  0  0  0  0  0  0  0  # atno 17370 bound_to 10713
  156.1512  130.3642  149.9436 LP  0  0  0  0  0  0  0  0  0  0  0  0  # atno 17371 bound_to 10713
  141.1916  133.8190  157.0871 LP  0  0  0  0  0  0  0  0  0  0  0  0  # atno 17394 bound_to 11000
  140.0463  134.9829  157.1055 LP  0  0  0  0  0  0  0  0  0  0  0  0  # atno 17395 bound_to 11000

$$$$
