AV-unprocessed.smi:339|AV-procd|sdf|2379|dock3
  -GOLD-   2262022303D 1   1.00000     0.00000
 Structure written by MMmdl.
 45 46  0  0  0  0  0  0  0  0  1 V2000
  151.5235  142.4622  157.3657 C   0  0  0  0  0  0  0  0  0  0  0  0
  151.8439  142.9122  158.7790 C   0  0  0  0  0  0  0  0  0  0  0  0
  151.3572  144.1529  159.2399 C   0  0  0  0  0  0  0  0  0  0  0  0
  151.6526  144.5899  160.5444 C   0  0  0  0  0  0  0  0  0  0  0  0
  152.4428  143.7917  161.3920 C   0  0  0  0  0  0  0  0  0  0  0  0
  152.9353  142.5495  160.9417 C   0  0  0  0  0  0  0  0  0  0  0  0
  153.7969  141.7068  161.8642 C   0  0  0  0  0  0  0  0  0  0  0  0
  152.6228  142.1002  159.6368 C   0  0  0  0  0  0  0  0  0  0  0  0
  153.0941  140.8901  159.1978 O   0  0  0  0  0  0  0  0  0  0  0  0
  152.0958  139.8821  159.1351 C   0  0  0  0  0  0  0  0  0  0  0  0
  152.5173  138.8248  158.1025 C   0  0  1  0  0  0  0  0  0  0  0  0
  153.9283  138.7367  158.1492 O   0  0  0  0  0  0  0  0  0  0  0  0
  151.9424  137.4311  158.4406 C   0  0  0  0  0  0  0  0  0  0  0  0
  150.4759  137.4404  158.5023 N   0  0  0  0  0  0  0  0  0  0  0  0
  149.9580  136.7851  159.6014 N   0  0  0  0  0  0  0  0  0  0  0  0
  148.6829  136.6931  159.7913 C   0  0  0  0  0  0  0  0  0  0  0  0
  148.2356  135.9557  161.0245 C   0  0  0  0  0  0  0  0  0  0  0  0
  147.7634  137.2919  158.8288 C   0  0  0  0  0  0  0  0  0  0  0  0
  146.2720  137.1532  159.1025 C   0  0  0  0  0  0  0  0  0  0  0  0
  148.2851  137.9413  157.7580 C   0  0  0  0  0  0  0  0  0  0  0  0
  147.4652  138.5681  156.7721 C   0  0  0  0  0  0  0  0  0  0  0  0
  146.8060  139.0950  155.9797 N   0  0  0  0  0  0  0  0  0  0  0  0
  149.7289  138.0464  157.5355 C   0  0  0  0  0  0  0  0  0  0  0  0
  150.2345  138.6201  156.5696 O   0  0  0  0  0  0  0  0  0  0  0  0
  151.2541  143.3102  156.7356 H   0  0  0  0  0  0  0  0  0  0  0  0
  150.6872  141.7635  157.3720 H   0  0  0  0  0  0  0  0  0  0  0  0
  152.3823  141.9687  156.9103 H   0  0  0  0  0  0  0  0  0  0  0  0
  150.7557  144.7751  158.5934 H   0  0  0  0  0  0  0  0  0  0  0  0
  151.2773  145.5405  160.8933 H   0  0  0  0  0  0  0  0  0  0  0  0
  152.6711  144.1381  162.3891 H   0  0  0  0  0  0  0  0  0  0  0  0
  154.6268  141.2579  161.3175 H   0  0  0  0  0  0  0  0  0  0  0  0
  153.2053  140.9070  162.3095 H   0  0  0  0  0  0  0  0  0  0  0  0
  154.2158  142.3098  162.6701 H   0  0  0  0  0  0  0  0  0  0  0  0
  151.9052  139.4282  160.1095 H   0  0  0  0  0  0  0  0  0  0  0  0
  151.1652  140.3555  158.8202 H   0  0  0  0  0  0  0  0  0  0  0  0
  152.1963  139.1403  157.1089 H   0  0  0  0  0  0  0  0  0  0  0  0
  154.1649  137.9354  158.5905 H   0  0  0  0  0  0  0  0  0  0  0  0
  152.2996  136.6852  157.7275 H   0  0  0  0  0  0  0  0  0  0  0  0
  152.3250  137.0950  159.4061 H   0  0  0  0  0  0  0  0  0  0  0  0
  147.5496  136.5646  161.6135 H   0  0  0  0  0  0  0  0  0  0  0  0
  149.0761  135.6932  161.6686 H   0  0  0  0  0  0  0  0  0  0  0  0
  147.7237  135.0312  160.7563 H   0  0  0  0  0  0  0  0  0  0  0  0
  145.6668  137.4879  158.2606 H   0  0  0  0  0  0  0  0  0  0  0  0
  145.9897  137.7480  159.9715 H   0  0  0  0  0  0  0  0  0  0  0  0
  146.0068  136.1132  159.2956 H   0  0  0  0  0  0  0  0  0  0  0  0
  1  2  1  0  0  0  0
  1 25  1  0  0  0  0
  1 26  1  0  0  0  0
  1 27  1  0  0  0  0
  2  8  1  0  0  0  0
  2  3  2  0  0  0  0
  3  4  1  0  0  0  0
  3 28  1  0  0  0  0
  4  5  2  0  0  0  0
  4 29  1  0  0  0  0
  5  6  1  0  0  0  0
  5 30  1  0  0  0  0
  6  7  1  0  0  0  0
  6  8  2  0  0  0  0
  7 31  1  0  0  0  0
  7 32  1  0  0  0  0
  7 33  1  0  0  0  0
  8  9  1  0  0  0  0
  9 10  1  0  0  0  0
 10 11  1  0  0  0  0
 10 34  1  0  0  0  0
 10 35  1  0  0  0  0
 11 12  1  0  0  0  0
 11 13  1  0  0  0  0
 11 36  1  0  0  0  0
 12 37  1  0  0  0  0
 13 14  1  0  0  0  0
 13 38  1  0  0  0  0
 13 39  1  0  0  0  0
 14 23  1  0  0  0  0
 14 15  1  0  0  0  0
 15 16  2  0  0  0  0
 16 17  1  0  0  0  0
 16 18  1  0  0  0  0
 17 40  1  0  0  0  0
 17 41  1  0  0  0  0
 17 42  1  0  0  0  0
 18 19  1  0  0  0  0
 18 20  2  0  0  0  0
 19 43  1  0  0  0  0
 19 44  1  0  0  0  0
 19 45  1  0  0  0  0
 20 21  1  0  0  0  0
 20 23  1  0  0  0  0
 21 22  3  0  0  0  0
 23 24  2  0  0  0  0
M  END
> <s_m_source_file>
AV-unprocessed.smi

> <i_m_source_file_index>
339

> <i_lp_mmshare_version>
43012

> <i_f3d_flags>
0

> <s_epik_input>
W0NIM11jMVtjSF1bY0hdW2NIXWMoW0NIM10pYzFPW0NIMl1bQ0BIXShbT0hdKVtDSDJdbjJuYyhbQ0gzXSljKFtDSDNdKWMoQyNOKWMyPU8=

> <s_epik_cmdline>
J2VwaWtfcHl0aG9uJywgJy1waCcsICc3LjAnLCAnLXRuJywgJzgnLCAnLW1hJywgJzIwMCcsICctbWV0YWxfYmluZGluZycsICctaW1hZScsICc8aW5maWxlLm1hZT4nLCAnLW9tYWUnLCAnPG91dGZpbGUubWFlPic=

> <r_lp_tautomer_probability>
1

> <r_epik_Ionization_Penalty>
1.17331e-07

> <r_epik_Ionization_Penalty_Charging>
1.57223e-10

> <r_epik_Ionization_Penalty_Neutral>
1.17174e-07

> <r_epik_State_Penalty>
-0

> <r_epik_Charging_Adjusted_Penalty>
1.57223e-10

> <i_epik_Tot_Q>
0

> <i_epik_Tot_abs_Q>
0

> <r_epik_Metal_State_Penalty>
-0

> <b_epik_Metal_Only>
0

> <s_lp_Force_Field>
OPLS_2005

> <r_lp_Energy>
35.8185

> <b_lp_Chiralities_Consistent>
1

> <s_lp_Variant>
AV-unprocessed.smi:339-2

> <Gold.Version>
5.8.1

> <Gold.Id.Protein>
6NUR|6NUR_protein|mol2

> <Gold.PLP.Fitness>
45.6643

> <Gold.PLP.PLP>
-41.1940

> <Gold.PLP.part.hbond>
-2.0000

> <Gold.PLP.part.metal>
0.0000

> <Gold.PLP.part.buried>
-6.2523

> <Gold.PLP.part.nonpolar>
-32.4405

> <Gold.PLP.part.repulsive>
0.0000

> <Gold.PLP.ligand.clash>
0.0000

> <Gold.PLP.ligand.torsion>
0.8086

> <Gold.PLP.Chemscore.Hbond>
2.0000

> <Gold.PLP.Chemscore.CHOScore>
0.0000

> <Gold.PLP.Chemscore.Metal>
0.0000

> <Gold.Chemscore.Hbonds>
donor molecule, donor type, donor heavy atom, donor atom, acceptor molecule, acceptor atom, score
      P1  H  6896  6907       L1    15  0.88
      P1  H  7997  8010       L1    12  1.00

> <Gold.PLP.Chemscore.Internal.Correction>
0.0874

> <Gold.Rescore>
     Score         DG    S(hbond)    S(metal)    S(lipo)     H(rot)  DE(clash)    DE(int)     intcor
     16.79     -18.85       1.67        0.00     116.88       2.29       0.07       1.99       ----

> <Gold.Chemscore.Fitness>
16.7880

> <Gold.Chemscore.DG>
-18.8546

> <Gold.Chemscore.ZeroCoef>
-5.4800

> <Gold.Chemscore.Hbond>
1.6655

> <Gold.Chemscore.Metal>
0.0000

> <Gold.Chemscore.Lipo>
116.8827

> <Gold.Chemscore.Internal_Hbond>
0.0000

> <Gold.Chemscore.DEClash>
0.0720

> <Gold.Chemscore.DEInternal>
1.9945

> <Gold.Chemscore.Rot>
2.2905

> <Gold.Chemscore.Internal.Correction>
   9.000000E+99

> <Gold.Chemscore.Hbonds>
donor molecule, donor type, donor heavy atom, donor atom, acceptor molecule, acceptor atom, score
      P1  H  6896  6907       L1    15  0.46
      P1  H  7997  8010       L1    12  0.74

> <Gold.Chemscore.Hbond.Weighted>
-5.5629

> <Gold.Chemscore.Metal.Weighted>
-0.0000

> <Gold.Chemscore.Lipo.Weighted>
-13.6753

> <Gold.Chemscore.Internal_Hbond.Weighted>
0.0000

> <Gold.Chemscore.DEClash.Weighted>
0.0720

> <Gold.Chemscore.DEInternal.Weighted>
1.9945

> <Gold.Chemscore.Rot.Weighted>
5.8636

> <Gold.Chemscore.Internal.Correction.Weighted>
   9.000000E+99

> <Gold.Protein.RotatedTorsions>
[ 6907 6896 6895 6894 ] final  -43.44 input  -60.11 | X-H torsion
[ 7974 7965 7964 7962 ] final  153.26 input  175.53 | X-H torsion
[ 8008 7997 7996 7995 ] final   30.08 input   59.86 | X-H torsion
[ 10167 10162 10161 10158 ] final -114.51 input  -65.29 | X-H torsion
[ 10718 10713 10712 10709 ] final  155.97 input   66.30 | X-H torsion
[ 10763 10752 10751 10750 ] final -160.94 input  -60.55 | X-H torsion
[ 11005 11000 10999 10996 ] final   -1.26 input  -57.11 | X-H torsion

> <Gold.Protein.ActiveResidues>
 VAL166  LYS551  ARG553  GLY616  TRP617  ASP618  TYR619  PRO620  LYS621  CYS622 
 ASP623  PHE694  ASN695  SER759  ASP760  ASP761  ALA762  ILE779  LEU786  VAL792 
 PHE793  MET794  SER795  GLU796  ALA797  LYS798  CYS799  TRP800  GLU811  SER814 

> <Gold.Protein.RotatedAtoms>
  150.9439  134.8846  159.7629 H   0  0  0  0  0  0  0  0  0  0  0  0  # atno 6907 bound_to 6896
  152.5092  134.3902  159.9391 H   0  0  0  0  0  0  0  0  0  0  0  0  # atno 6908 bound_to 6896
  151.3922  133.3745  159.2757 H   0  0  0  0  0  0  0  0  0  0  0  0  # atno 6909 bound_to 6896
  144.8167  139.6777  143.6118 H   0  0  0  0  0  0  0  0  0  0  0  0  # atno 7974 bound_to 7965
  155.0848  140.3214  155.4591 H   0  0  0  0  0  0  0  0  0  0  0  0  # atno 8008 bound_to 7997
  156.2758  140.2088  156.5921 H   0  0  0  0  0  0  0  0  0  0  0  0  # atno 8009 bound_to 7997
  154.6950  140.0512  157.0389 H   0  0  0  0  0  0  0  0  0  0  0  0  # atno 8010 bound_to 7997
  140.1001  143.4620  152.1817 H   0  0  0  0  0  0  0  0  0  0  0  0  # atno 10167 bound_to 10162
  157.2113  131.0698  151.1968 H   0  0  0  0  0  0  0  0  0  0  0  0  # atno 10718 bound_to 10713
  154.7346  135.3054  154.8832 H   0  0  0  0  0  0  0  0  0  0  0  0  # atno 10763 bound_to 10752
  153.9665  135.6747  153.4750 H   0  0  0  0  0  0  0  0  0  0  0  0  # atno 10764 bound_to 10752
  153.0951  135.4940  154.8685 H   0  0  0  0  0  0  0  0  0  0  0  0  # atno 10765 bound_to 10752
  140.6453  133.9453  155.8349 H   0  0  0  0  0  0  0  0  0  0  0  0  # atno 11005 bound_to 11000
  146.2470  139.6119  142.9453 LP  0  0  0  0  0  0  0  0  0  0  0  0  # atno 17320 bound_to 7965
  145.5199  141.0432  143.2441 LP  0  0  0  0  0  0  0  0  0  0  0  0  # atno 17321 bound_to 7965
  139.5676  144.7444  151.3980 LP  0  0  0  0  0  0  0  0  0  0  0  0  # atno 17342 bound_to 10162
  140.6982  143.7697  150.7360 LP  0  0  0  0  0  0  0  0  0  0  0  0  # atno 17343 bound_to 10162
  157.3669  130.7161  149.6539 LP  0  0  0  0  0  0  0  0  0  0  0  0  # atno 17370 bound_to 10713
  155.9690  130.4209  150.4447 LP  0  0  0  0  0  0  0  0  0  0  0  0  # atno 17371 bound_to 10713
  141.0576  134.0393  157.3701 LP  0  0  0  0  0  0  0  0  0  0  0  0  # atno 17394 bound_to 11000
  139.9065  135.0180  156.7508 LP  0  0  0  0  0  0  0  0  0  0  0  0  # atno 17395 bound_to 11000

$$$$
