AV-unprocessed.smi:703|AV-procd|sdf|3431|dock1
  -GOLD-   22720 0413D 1   1.00000     0.00000
 Structure written by MMmdl.
 38 39  0  0  0  0  0  0  0  0  2 V2000
  146.5146  133.4620  151.7102 C   0  0  0  0  0  0  0  0  0  0  0  0
  147.7075  132.9775  152.5454 C   0  0  0  0  0  0  0  0  0  0  0  0
  148.2273  134.0333  153.4461 N   0  3  2  0  0  0  0  0  0  0  0  0
  149.4054  133.6472  154.2508 C   0  0  0  0  0  0  0  0  0  0  0  0
  149.3938  134.5648  155.4760 C   0  0  1  0  0  0  0  0  0  0  0  0
  150.1233  135.8908  155.2042 C   0  0  0  0  0  0  0  0  0  0  0  0
  147.8960  134.7685  155.7418 C   0  0  2  0  0  0  0  0  0  0  0  0
  147.4168  133.7586  156.6910 N   0  0  0  0  0  0  0  0  0  0  0  0
  147.8374  133.9387  158.3549 S   0  0  0  0  0  0  0  0  0  0  0  0
  147.2102  132.8288  159.0878 O   0  0  0  0  0  0  0  0  0  0  0  0
  149.2927  134.1393  158.4312 O   0  0  0  0  0  0  0  0  0  0  0  0
  147.0023  135.5150  158.8134 C   0  0  0  0  0  0  0  0  0  0  0  0
  147.3398  135.8646  160.2346 C   0  0  0  0  0  0  0  0  0  0  0  0
  147.2356  135.0480  161.3943 C   0  0  0  0  0  0  0  0  0  0  0  0
  147.6724  135.8633  162.3982 C   0  0  0  0  0  0  0  0  0  0  0  0
  148.0138  137.0811  161.9066 O   0  0  0  0  0  0  0  0  0  0  0  0
  147.7966  137.0726  160.5242 N   0  0  0  0  0  0  0  0  0  0  0  0
  147.2165  134.5958  154.3704 C   0  0  0  0  0  0  0  0  0  0  0  0
  146.1166  132.6501  151.1012 H   0  0  0  0  0  0  0  0  0  0  0  0
  146.7969  134.2688  151.0337 H   0  0  0  0  0  0  0  0  0  0  0  0
  145.7070  133.8234  152.3475 H   0  0  0  0  0  0  0  0  0  0  0  0
  147.3868  132.1293  153.1518 H   0  0  0  0  0  0  0  0  0  0  0  0
  148.5053  132.6149  151.8955 H   0  0  0  0  0  0  0  0  0  0  0  0
  149.2970  132.6117  154.5781 H   0  0  0  0  0  0  0  0  0  0  0  0
  150.3298  133.7171  153.6763 H   0  0  0  0  0  0  0  0  0  0  0  0
  149.8885  134.0797  156.3193 H   0  0  0  0  0  0  0  0  0  0  0  0
  149.6804  136.4296  154.3660 H   0  0  0  0  0  0  0  0  0  0  0  0
  151.1745  135.7186  154.9715 H   0  0  0  0  0  0  0  0  0  0  0  0
  150.0836  136.5439  156.0765 H   0  0  0  0  0  0  0  0  0  0  0  0
  147.7014  135.7564  156.1624 H   0  0  0  0  0  0  0  0  0  0  0  0
  147.6365  132.8179  156.3635 H   0  0  0  0  0  0  0  0  0  0  0  0
  147.3309  136.2921  158.1228 H   0  0  0  0  0  0  0  0  0  0  0  0
  145.9275  135.3881  158.6870 H   0  0  0  0  0  0  0  0  0  0  0  0
  146.8989  134.0252  161.4757 H   0  0  0  0  0  0  0  0  0  0  0  0
  147.7933  135.7299  163.4631 H   0  0  0  0  0  0  0  0  0  0  0  0
  146.8865  135.5581  153.9781 H   0  0  0  0  0  0  0  0  0  0  0  0
  146.3341  133.9566  154.4352 H   0  0  0  0  0  0  0  0  0  0  0  0
  148.5223  134.8044  152.8643 H   0  0  0  0  0  0  0  0  0  0  0  0
  1  2  1  0  0  0  0
  1 19  1  0  0  0  0
  1 20  1  0  0  0  0
  1 21  1  0  0  0  0
  2  3  1  0  0  0  0
  2 22  1  0  0  0  0
  2 23  1  0  0  0  0
  3 18  1  0  0  0  0
  3  4  1  0  0  0  0
  3 38  1  0  0  0  0
  4  5  1  0  0  0  0
  4 24  1  0  0  0  0
  4 25  1  0  0  0  0
  5  6  1  0  0  0  0
  5  7  1  0  0  0  0
  5 26  1  0  0  0  0
  6 27  1  0  0  0  0
  6 28  1  0  0  0  0
  6 29  1  0  0  0  0
  7  8  1  0  0  0  0
  7 18  1  0  0  0  0
  7 30  1  0  0  0  0
  8  9  1  0  0  0  0
  8 31  1  0  0  0  0
  9 10  2  0  0  0  0
  9 11  2  0  0  0  0
  9 12  1  0  0  0  0
 12 13  1  0  0  0  0
 12 32  1  0  0  0  0
 12 33  1  0  0  0  0
 13 17  2  0  0  0  0
 13 14  1  0  0  0  0
 14 15  2  0  0  0  0
 14 34  1  0  0  0  0
 15 16  1  0  0  0  0
 15 35  1  0  0  0  0
 16 17  1  0  0  0  0
 18 36  1  0  0  0  0
 18 37  1  0  0  0  0
M  CHG  1   3   1
M  END
> <s_m_source_file>
AV-unprocessed.smi

> <i_m_source_file_index>
703

> <i_lp_mmshare_version>
43012

> <i_f3d_flags>
0

> <s_epik_input>
W0NIM11bQ0gyXU4xW0NIMl1bQ0BASF0oW0NIM10pW0NASF0oW0NIMl0xKVtOSF1TKD1PKSg9TylbQ0gyXWMyW2NIXVtjSF1vbjI=

> <s_epik_cmdline>
J2VwaWtfcHl0aG9uJywgJy1waCcsICc3LjAnLCAnLXRuJywgJzgnLCAnLW1hJywgJzIwMCcsICctbWV0YWxfYmluZGluZycsICctaW1hZScsICc8aW5maWxlLm1hZT4nLCAnLW9tYWUnLCAnPG91dGZpbGUubWFlPic=

> <r_epik_Ionization_Penalty>
0.00324529

> <r_epik_Ionization_Penalty_Charging>
0.0019384

> <r_epik_Ionization_Penalty_Neutral>
0.00130689

> <r_epik_State_Penalty>
0.00218682

> <r_epik_Charging_Adjusted_Penalty>
0.00412522

> <i_epik_Tot_Q>
1

> <i_epik_Tot_abs_Q>
1

> <r_epik_Metal_State_Penalty>
0.310831

> <b_epik_Metal_Only>
0

> <s_lp_Force_Field>
OPLS_2005

> <r_lp_Energy>
19.6136

> <b_lp_Chiralities_Consistent>
1

> <s_lp_Variant>
AV-unprocessed.smi:703-6

> <Gold.Version>
5.8.1

> <Gold.Id.Protein>
6NUR|6NUR_protein|mol2

> <Gold.PLP.Fitness>
38.9298

> <Gold.PLP.PLP>
-27.5894

> <Gold.PLP.part.hbond>
-5.8393

> <Gold.PLP.part.metal>
0.0000

> <Gold.PLP.part.buried>
-3.1007

> <Gold.PLP.part.nonpolar>
-18.3755

> <Gold.PLP.part.repulsive>
0.0000

> <Gold.PLP.ligand.clash>
0.0000

> <Gold.PLP.ligand.torsion>
0.2563

> <Gold.PLP.Chemscore.Hbond>
3.8964

> <Gold.PLP.Chemscore.CHOScore>
0.0000

> <Gold.PLP.Chemscore.Metal>
0.0000

> <Gold.Chemscore.Hbonds>
donor molecule, donor type, donor heavy atom, donor atom, acceptor molecule, acceptor atom, score
      L1  H     3    38       P1  7948  2.00
      P1  H  6896  6909       L1    11  1.00
      P1  H  6931  6943       L1    16  0.85
      P1  H  6934  6947       L1    17  0.04

> <Gold.PLP.Chemscore.Internal.Correction>
0.1639

> <Gold.Rescore>
     Score         DG    S(hbond)    S(metal)    S(lipo)     H(rot)  DE(clash)    DE(int)     intcor
     15.56     -16.06       2.81        0.00      52.62       1.94       0.00       0.50       ----

> <Gold.Chemscore.Fitness>
15.5566

> <Gold.Chemscore.DG>
-16.0572

> <Gold.Chemscore.ZeroCoef>
-5.4800

> <Gold.Chemscore.Hbond>
2.8106

> <Gold.Chemscore.Metal>
0.0000

> <Gold.Chemscore.Lipo>
52.6166

> <Gold.Chemscore.Internal_Hbond>
0.0000

> <Gold.Chemscore.DEClash>
0.0000

> <Gold.Chemscore.DEInternal>
0.5006

> <Gold.Chemscore.Rot>
1.9400

> <Gold.Chemscore.Internal.Correction>
   9.000000E+99

> <Gold.Chemscore.Hbonds>
donor molecule, donor type, donor heavy atom, donor atom, acceptor molecule, acceptor atom, score
      L1  H     3    38       P1  7948  0.40
      P1  H  6896  6909       L1    11  1.00
      P1  H  6931  6943       L1    16  0.14

> <Gold.Chemscore.Hbond.Weighted>
-9.3876

> <Gold.Chemscore.Metal.Weighted>
-0.0000

> <Gold.Chemscore.Lipo.Weighted>
-6.1561

> <Gold.Chemscore.Internal_Hbond.Weighted>
0.0000

> <Gold.Chemscore.DEClash.Weighted>
0.0000

> <Gold.Chemscore.DEInternal.Weighted>
0.5006

> <Gold.Chemscore.Rot.Weighted>
4.9665

> <Gold.Chemscore.Internal.Correction.Weighted>
   9.000000E+99

> <Gold.Protein.RotatedTorsions>
[ 6907 6896 6895 6894 ] final   13.74 input  -60.11 | X-H torsion
[ 7974 7965 7964 7962 ] final   51.00 input  175.53 | X-H torsion
[ 8008 7997 7996 7995 ] final  -16.91 input   59.86 | X-H torsion
[ 10167 10162 10161 10158 ] final  -93.15 input  -65.29 | X-H torsion
[ 10718 10713 10712 10709 ] final   81.92 input   66.30 | X-H torsion
[ 10763 10752 10751 10750 ] final   76.09 input  -60.55 | X-H torsion
[ 11005 11000 10999 10996 ] final   52.98 input  -57.11 | X-H torsion

> <Gold.Protein.ActiveResidues>
 VAL166  LYS551  ARG553  GLY616  TRP617  ASP618  TYR619  PRO620  LYS621  CYS622 
 ASP623  PHE694  ASN695  SER759  ASP760  ASP761  ALA762  ILE779  LEU786  VAL792 
 PHE793  MET794  SER795  GLU796  ALA797  LYS798  CYS799  TRP800  GLU811  SER814 

> <Gold.Protein.RotatedAtoms>
  151.7911  135.0735  160.0387 H   0  0  0  0  0  0  0  0  0  0  0  0  # atno 6907 bound_to 6896
  152.3156  133.5794  159.5718 H   0  0  0  0  0  0  0  0  0  0  0  0  # atno 6908 bound_to 6896
  150.7342  134.0004  159.3678 H   0  0  0  0  0  0  0  0  0  0  0  0  # atno 6909 bound_to 6896
  145.9957  139.4386  143.0046 H   0  0  0  0  0  0  0  0  0  0  0  0  # atno 7974 bound_to 7965
  154.5018  140.2157  155.9332 H   0  0  0  0  0  0  0  0  0  0  0  0  # atno 8008 bound_to 7997
  156.1443  140.3174  155.8512 H   0  0  0  0  0  0  0  0  0  0  0  0  # atno 8009 bound_to 7997
  155.4061  140.0487  157.3025 H   0  0  0  0  0  0  0  0  0  0  0  0  # atno 8010 bound_to 7997
  140.3275  143.3013  151.9978 H   0  0  0  0  0  0  0  0  0  0  0  0  # atno 10167 bound_to 10162
  157.6845  131.0025  150.2299 H   0  0  0  0  0  0  0  0  0  0  0  0  # atno 10718 bound_to 10713
  153.0701  135.4964  154.8285 H   0  0  0  0  0  0  0  0  0  0  0  0  # atno 10763 bound_to 10752
  154.7010  135.3001  154.9344 H   0  0  0  0  0  0  0  0  0  0  0  0  # atno 10764 bound_to 10752
  154.0068  135.6759  153.4815 H   0  0  0  0  0  0  0  0  0  0  0  0  # atno 10765 bound_to 10752
  140.0804  134.5346  155.8952 H   0  0  0  0  0  0  0  0  0  0  0  0  # atno 11005 bound_to 11000
  145.7563  140.9953  143.1223 LP  0  0  0  0  0  0  0  0  0  0  0  0  # atno 17320 bound_to 7965
  144.6903  139.9276  143.7470 LP  0  0  0  0  0  0  0  0  0  0  0  0  # atno 17321 bound_to 7965
  139.4862  144.6261  151.7161 LP  0  0  0  0  0  0  0  0  0  0  0  0  # atno 17342 bound_to 10162
  140.5427  144.0553  150.6095 LP  0  0  0  0  0  0  0  0  0  0  0  0  # atno 17343 bound_to 10162
  156.2933  130.3748  149.7820 LP  0  0  0  0  0  0  0  0  0  0  0  0  # atno 17370 bound_to 10713
  156.5473  130.8326  151.3288 LP  0  0  0  0  0  0  0  0  0  0  0  0  # atno 17371 bound_to 10713
  141.2044  133.6639  156.6122 LP  0  0  0  0  0  0  0  0  0  0  0  0  # atno 17394 bound_to 11000
  140.3496  134.7780  157.4457 LP  0  0  0  0  0  0  0  0  0  0  0  0  # atno 17395 bound_to 11000

$$$$
