AV-unprocessed.smi:3153|AV-procd|sdf|12019|dock2
  -GOLD-   2272017433D 1   1.00000     0.00000
 Structure written by MMmdl.
 38 39  0  0  0  0  0  0  0  0  2 V2000
  146.6942  131.7437  149.9429 O   0  0  0  0  0  0  0  0  0  0  0  0
  145.8065  131.5270  151.0264 C   0  0  0  0  0  0  0  0  0  0  0  0
  145.9938  130.0652  151.4912 C   0  0  0  0  0  0  0  0  0  0  0  0
  147.3528  129.8076  152.0135 N   0  3  0  0  0  0  0  0  0  0  0  0
  147.6632  128.3775  152.2012 C   0  0  0  0  0  0  0  0  0  0  0  0
  147.6591  127.6307  150.8586 C   0  0  0  0  0  0  0  0  0  0  0  0
  148.3591  126.3625  150.9388 N   0  0  0  0  0  0  0  0  0  0  0  0
  149.4698  125.9497  150.2328 C   0  0  0  0  0  0  0  0  0  0  0  0
  149.7746  124.6878  150.6560 C   0  0  0  0  0  0  0  0  0  0  0  0
  148.7865  124.4136  151.6423 C   0  0  0  0  0  0  0  0  0  0  0  0
  147.9438  125.4199  151.8128 N   0  0  0  0  0  0  0  0  0  0  0  0
  146.2013  132.4938  152.1686 C   0  0  0  0  0  0  0  0  0  0  0  0
  145.9448  133.9719  151.8249 C   0  0  0  0  0  0  0  0  0  0  0  0
  144.4866  134.2008  151.4053 C   0  0  0  0  0  0  0  0  0  0  0  0
  144.1047  133.2884  150.2317 C   0  0  0  0  0  0  0  0  0  0  0  0
  144.3535  131.8064  150.5658 C   0  0  0  0  0  0  0  0  0  0  0  0
  147.4079  131.1270  150.0072 H   0  0  0  0  0  0  0  0  0  0  0  0
  145.2660  129.8220  152.2671 H   0  0  0  0  0  0  0  0  0  0  0  0
  145.8045  129.3856  150.6589 H   0  0  0  0  0  0  0  0  0  0  0  0
  148.0238  130.2020  151.3699 H   0  0  0  0  0  0  0  0  0  0  0  0
  148.6385  128.2855  152.6812 H   0  0  0  0  0  0  0  0  0  0  0  0
  146.9277  127.9371  152.8758 H   0  0  0  0  0  0  0  0  0  0  0  0
  146.6348  127.4401  150.5357 H   0  0  0  0  0  0  0  0  0  0  0  0
  148.1299  128.2351  150.0817 H   0  0  0  0  0  0  0  0  0  0  0  0
  149.9453  126.5792  149.4949 H   0  0  0  0  0  0  0  0  0  0  0  0
  150.5830  124.0577  150.3156 H   0  0  0  0  0  0  0  0  0  0  0  0
  148.6587  123.5207  152.2364 H   0  0  0  0  0  0  0  0  0  0  0  0
  145.6296  132.2441  153.0636 H   0  0  0  0  0  0  0  0  0  0  0  0
  147.2503  132.3576  152.4354 H   0  0  0  0  0  0  0  0  0  0  0  0
  146.1846  134.5979  152.6849 H   0  0  0  0  0  0  0  0  0  0  0  0
  146.6114  134.2877  151.0217 H   0  0  0  0  0  0  0  0  0  0  0  0
  143.8261  134.0072  152.2515 H   0  0  0  0  0  0  0  0  0  0  0  0
  144.3387  135.2453  151.1289 H   0  0  0  0  0  0  0  0  0  0  0  0
  143.0559  133.4383  149.9736 H   0  0  0  0  0  0  0  0  0  0  0  0
  144.6799  133.5697  149.3488 H   0  0  0  0  0  0  0  0  0  0  0  0
  144.1013  131.1979  149.6967 H   0  0  0  0  0  0  0  0  0  0  0  0
  143.6629  131.5068  151.3554 H   0  0  0  0  0  0  0  0  0  0  0  0
  147.4447  130.2789  152.9023 H   0  0  0  0  0  0  0  0  0  0  0  0
  1  2  1  0  0  0  0
  1 17  1  0  0  0  0
  2 16  1  0  0  0  0
  2  3  1  0  0  0  0
  2 12  1  0  0  0  0
  3  4  1  0  0  0  0
  3 18  1  0  0  0  0
  3 19  1  0  0  0  0
  4  5  1  0  0  0  0
  4 20  1  0  0  0  0
  4 38  1  0  0  0  0
  5  6  1  0  0  0  0
  5 21  1  0  0  0  0
  5 22  1  0  0  0  0
  6  7  1  0  0  0  0
  6 23  1  0  0  0  0
  6 24  1  0  0  0  0
  7 11  1  0  0  0  0
  7  8  1  0  0  0  0
  8  9  2  0  0  0  0
  8 25  1  0  0  0  0
  9 10  1  0  0  0  0
  9 26  1  0  0  0  0
 10 11  2  0  0  0  0
 10 27  1  0  0  0  0
 12 13  1  0  0  0  0
 12 28  1  0  0  0  0
 12 29  1  0  0  0  0
 13 14  1  0  0  0  0
 13 30  1  0  0  0  0
 13 31  1  0  0  0  0
 14 15  1  0  0  0  0
 14 32  1  0  0  0  0
 14 33  1  0  0  0  0
 15 16  1  0  0  0  0
 15 34  1  0  0  0  0
 15 35  1  0  0  0  0
 16 36  1  0  0  0  0
 16 37  1  0  0  0  0
M  CHG  1   4   1
M  END
> <s_m_source_file>
AV-unprocessed.smi

> <i_m_source_file_index>
3153

> <i_lp_mmshare_version>
43012

> <i_f3d_flags>
0

> <s_epik_input>
W0NIMl0xW0NIMl1bQ0gyXVtDSDJdW0NIMl1DMShbT0hdKVtDSDJdW05IXVtDSDJdW0NIMl1uMltjSF1bY0hdW2NIXW4y

> <s_epik_cmdline>
J2VwaWtfcHl0aG9uJywgJy1waCcsICc3LjAnLCAnLXRuJywgJzgnLCAnLW1hJywgJzIwMCcsICctbWV0YWxfYmluZGluZycsICctaW1hZScsICc8aW5maWxlLm1hZT4nLCAnLW9tYWUnLCAnPG91dGZpbGUubWFlPic=

> <r_lp_tautomer_probability>
1

> <r_epik_Ionization_Penalty>
0.0240152

> <r_epik_Ionization_Penalty_Charging>
0.0240119

> <r_epik_Ionization_Penalty_Neutral>
3.38076e-06

> <r_epik_State_Penalty>
0.0194671

> <r_epik_Charging_Adjusted_Penalty>
0.043479

> <i_epik_Tot_Q>
1

> <i_epik_Tot_abs_Q>
1

> <r_epik_Metal_State_Penalty>
0.0195093

> <b_epik_Metal_Only>
0

> <s_lp_Force_Field>
OPLS_2005

> <r_lp_Energy>
15.7554

> <b_lp_Chiralities_Consistent>
1

> <s_lp_Variant>
AV-unprocessed.smi:3153-1

> <Gold.Version>
5.8.1

> <Gold.Id.Protein>
6NUR|6NUR_protein|mol2

> <Gold.PLP.Fitness>
47.2893

> <Gold.PLP.PLP>
-38.5199

> <Gold.PLP.part.hbond>
-2.3943

> <Gold.PLP.part.metal>
0.0000

> <Gold.PLP.part.buried>
-6.7832

> <Gold.PLP.part.nonpolar>
-29.6915

> <Gold.PLP.part.repulsive>
0.0526

> <Gold.PLP.ligand.clash>
0.0000

> <Gold.PLP.ligand.torsion>
0.1391

> <Gold.PLP.Chemscore.Hbond>
2.0000

> <Gold.PLP.Chemscore.CHOScore>
1.0000

> <Gold.PLP.Chemscore.Metal>
0.0000

> <Gold.Chemscore.Hbonds>
donor molecule, donor type, donor heavy atom, donor atom, acceptor molecule, acceptor atom, score
      L1  H     1    17       P1 10747  0.99
      L1  H     4    20       P1 10747  1.00
      L1  C     8    25       P1 10769  0.99

> <Gold.PLP.Chemscore.Internal.Correction>
0.0475

> <Gold.Rescore>
     Score         DG    S(hbond)    S(metal)    S(lipo)     H(rot)  DE(clash)    DE(int)     intcor
     16.92     -17.11       1.98        0.00      92.36       2.26       0.05       0.14       ----

> <Gold.Chemscore.Fitness>
16.9160

> <Gold.Chemscore.DG>
-17.1101

> <Gold.Chemscore.ZeroCoef>
-5.4800

> <Gold.Chemscore.Hbond>
1.9790

> <Gold.Chemscore.Metal>
0.0000

> <Gold.Chemscore.Lipo>
92.3605

> <Gold.Chemscore.Internal_Hbond>
0.0000

> <Gold.Chemscore.DEClash>
0.0492

> <Gold.Chemscore.DEInternal>
0.1449

> <Gold.Chemscore.Rot>
2.2601

> <Gold.Chemscore.Internal.Correction>
   9.000000E+99

> <Gold.Chemscore.Hbonds>
donor molecule, donor type, donor heavy atom, donor atom, acceptor molecule, acceptor atom, score
      L1  H     1    17       P1 10747  0.92
      L1  H     4    20       P1 10747  0.96

> <Gold.Chemscore.Hbond.Weighted>
-6.6098

> <Gold.Chemscore.Metal.Weighted>
-0.0000

> <Gold.Chemscore.Lipo.Weighted>
-10.8062

> <Gold.Chemscore.Internal_Hbond.Weighted>
0.0000

> <Gold.Chemscore.DEClash.Weighted>
0.0492

> <Gold.Chemscore.DEInternal.Weighted>
0.1449

> <Gold.Chemscore.Rot.Weighted>
5.7858

> <Gold.Chemscore.Internal.Correction.Weighted>
   9.000000E+99

> <Gold.Protein.RotatedTorsions>
[ 6907 6896 6895 6894 ] final    8.66 input  -60.11 | X-H torsion
[ 7974 7965 7964 7962 ] final  136.38 input  175.53 | X-H torsion
[ 8008 7997 7996 7995 ] final  148.90 input   59.86 | X-H torsion
[ 10167 10162 10161 10158 ] final  -27.07 input  -65.29 | X-H torsion
[ 10718 10713 10712 10709 ] final  146.40 input   66.30 | X-H torsion
[ 10763 10752 10751 10750 ] final  -70.78 input  -60.55 | X-H torsion
[ 11005 11000 10999 10996 ] final  -79.73 input  -57.11 | X-H torsion

> <Gold.Protein.ActiveResidues>
 VAL166  LYS551  ARG553  GLY616  TRP617  ASP618  TYR619  PRO620  LYS621  CYS622 
 ASP623  PHE694  ASN695  SER759  ASP760  ASP761  ALA762  ILE779  LEU786  VAL792 
 PHE793  MET794  SER795  GLU796  ALA797  LYS798  CYS799  TRP800  GLU811  SER814 

> <Gold.Protein.RotatedAtoms>
  151.7097  135.0915  160.0265 H   0  0  0  0  0  0  0  0  0  0  0  0  # atno 6907 bound_to 6896
  152.3669  133.6364  159.6066 H   0  0  0  0  0  0  0  0  0  0  0  0  # atno 6908 bound_to 6896
  150.7645  133.9249  159.3451 H   0  0  0  0  0  0  0  0  0  0  0  0  # atno 6909 bound_to 6896
  144.9571  139.4753  143.5498 H   0  0  0  0  0  0  0  0  0  0  0  0  # atno 7974 bound_to 7965
  156.2775  140.2116  156.5772 H   0  0  0  0  0  0  0  0  0  0  0  0  # atno 8008 bound_to 7997
  154.7088  140.0514  157.0553 H   0  0  0  0  0  0  0  0  0  0  0  0  # atno 8009 bound_to 7997
  155.0634  140.3169  155.4656 H   0  0  0  0  0  0  0  0  0  0  0  0  # atno 8010 bound_to 7997
  140.7279  143.4124  151.1084 H   0  0  0  0  0  0  0  0  0  0  0  0  # atno 10167 bound_to 10162
  157.3336  131.0924  151.1142 H   0  0  0  0  0  0  0  0  0  0  0  0  # atno 10718 bound_to 10713
  154.4225  135.5983  153.6019 H   0  0  0  0  0  0  0  0  0  0  0  0  # atno 10763 bound_to 10752
  152.9794  135.5956  154.3937 H   0  0  0  0  0  0  0  0  0  0  0  0  # atno 10764 bound_to 10752
  154.3764  135.2841  155.2215 H   0  0  0  0  0  0  0  0  0  0  0  0  # atno 10765 bound_to 10752
  141.1667  133.7118  156.8166 H   0  0  0  0  0  0  0  0  0  0  0  0  # atno 11005 bound_to 11000
  146.3341  139.8695  142.8842 LP  0  0  0  0  0  0  0  0  0  0  0  0  # atno 17320 bound_to 7965
  145.2756  141.0122  143.3746 LP  0  0  0  0  0  0  0  0  0  0  0  0  # atno 17321 bound_to 7965
  139.7759  143.8426  152.3129 LP  0  0  0  0  0  0  0  0  0  0  0  0  # atno 17342 bound_to 10162
  139.8360  144.7232  150.9390 LP  0  0  0  0  0  0  0  0  0  0  0  0  # atno 17343 bound_to 10162
  157.2381  130.6556  149.5878 LP  0  0  0  0  0  0  0  0  0  0  0  0  # atno 17370 bound_to 10713
  155.9699  130.4577  150.5973 LP  0  0  0  0  0  0  0  0  0  0  0  0  # atno 17371 bound_to 10713
  140.2149  134.8800  157.3315 LP  0  0  0  0  0  0  0  0  0  0  0  0  # atno 17394 bound_to 11000
  140.2048  134.4211  155.7643 LP  0  0  0  0  0  0  0  0  0  0  0  0  # atno 17395 bound_to 11000

$$$$
