AV-unprocessed.smi:492|AV-procd|sdf|2709|dock1
  -GOLD-   2262023153D 1   1.00000     0.00000
 Structure written by MMmdl.
 46 48  0  0  0  0  0  0  0  0  1 V2000
  141.4612  145.6240  155.1804 C   0  0  0  0  0  0  0  0  0  0  0  0
  142.2983  145.4039  154.0543 O   0  0  0  0  0  0  0  0  0  0  0  0
  143.2578  144.4181  154.1423 C   0  0  0  0  0  0  0  0  0  0  0  0
  143.3551  143.4945  155.2133 C   0  0  0  0  0  0  0  0  0  0  0  0
  144.3688  142.5166  155.2228 C   0  0  0  0  0  0  0  0  0  0  0  0
  145.2964  142.4401  154.1646 C   0  0  0  0  0  0  0  0  0  0  0  0
  146.3947  141.3932  154.1937 C   0  0  0  0  0  0  0  0  0  0  0  0
  147.3864  141.6876  155.1635 O   0  0  0  0  0  0  0  0  0  0  0  0
  148.6907  141.2983  154.7639 C   0  0  0  0  0  0  0  0  0  0  0  0
  149.4676  140.7637  155.9773 C   0  0  1  0  0  0  0  0  0  0  0  0
  149.2934  139.3626  156.0504 O   0  0  0  0  0  0  0  0  0  0  0  0
  150.9592  141.1603  155.9770 C   0  0  0  0  0  0  0  0  0  0  0  0
  151.4944  141.3472  157.3184 N   0  0  0  0  0  0  0  0  0  0  0  0
  152.1264  140.4391  158.1023 C   0  0  0  0  0  0  0  0  0  0  0  0
  152.3624  139.0326  157.6512 C   0  0  0  0  0  0  0  0  0  0  0  0
  152.5203  140.8775  159.2983 N   0  0  0  0  0  0  0  0  0  0  0  0
  152.1018  142.1942  159.2912 C   0  0  0  0  0  0  0  0  0  0  0  0
  152.2215  143.2014  160.2753 C   0  0  0  0  0  0  0  0  0  0  0  0
  151.7079  144.4939  160.0402 C   0  0  0  0  0  0  0  0  0  0  0  0
  151.0691  144.7976  158.8203 C   0  0  0  0  0  0  0  0  0  0  0  0
  150.9397  143.8089  157.8262 C   0  0  0  0  0  0  0  0  0  0  0  0
  151.4537  142.5202  158.0660 C   0  0  0  0  0  0  0  0  0  0  0  0
  145.2100  143.3629  153.1017 C   0  0  0  0  0  0  0  0  0  0  0  0
  144.1956  144.3393  153.0922 C   0  0  0  0  0  0  0  0  0  0  0  0
  140.7588  146.4263  154.9553 H   0  0  0  0  0  0  0  0  0  0  0  0
  142.0401  145.9279  156.0536 H   0  0  0  0  0  0  0  0  0  0  0  0
  140.8781  144.7351  155.4246 H   0  0  0  0  0  0  0  0  0  0  0  0
  142.6635  143.5151  156.0417 H   0  0  0  0  0  0  0  0  0  0  0  0
  144.4300  141.8224  156.0482 H   0  0  0  0  0  0  0  0  0  0  0  0
  145.9417  140.4239  154.4066 H   0  0  0  0  0  0  0  0  0  0  0  0
  146.8566  141.3292  153.2072 H   0  0  0  0  0  0  0  0  0  0  0  0
  148.6126  140.5110  154.0123 H   0  0  0  0  0  0  0  0  0  0  0  0
  149.2208  142.1334  154.3027 H   0  0  0  0  0  0  0  0  0  0  0  0
  148.9994  141.1692  156.8741 H   0  0  0  0  0  0  0  0  0  0  0  0
  148.6874  139.1025  155.3734 H   0  0  0  0  0  0  0  0  0  0  0  0
  151.5569  140.3966  155.4786 H   0  0  0  0  0  0  0  0  0  0  0  0
  151.1079  142.0761  155.4049 H   0  0  0  0  0  0  0  0  0  0  0  0
  152.8573  138.4583  158.4350 H   0  0  0  0  0  0  0  0  0  0  0  0
  152.9974  139.0188  156.7660 H   0  0  0  0  0  0  0  0  0  0  0  0
  151.4159  138.5448  157.4176 H   0  0  0  0  0  0  0  0  0  0  0  0
  152.7100  142.9784  161.2122 H   0  0  0  0  0  0  0  0  0  0  0  0
  151.8053  145.2559  160.7994 H   0  0  0  0  0  0  0  0  0  0  0  0
  150.6792  145.7900  158.6473 H   0  0  0  0  0  0  0  0  0  0  0  0
  150.4532  144.0390  156.8902 H   0  0  0  0  0  0  0  0  0  0  0  0
  145.9195  143.3269  152.2881 H   0  0  0  0  0  0  0  0  0  0  0  0
  144.1375  145.0374  152.2700 H   0  0  0  0  0  0  0  0  0  0  0  0
  1  2  1  0  0  0  0
  1 25  1  0  0  0  0
  1 26  1  0  0  0  0
  1 27  1  0  0  0  0
  2  3  1  0  0  0  0
  3 24  1  0  0  0  0
  3  4  2  0  0  0  0
  4  5  1  0  0  0  0
  4 28  1  0  0  0  0
  5  6  2  0  0  0  0
  5 29  1  0  0  0  0
  6  7  1  0  0  0  0
  6 23  1  0  0  0  0
  7  8  1  0  0  0  0
  7 30  1  0  0  0  0
  7 31  1  0  0  0  0
  8  9  1  0  0  0  0
  9 10  1  0  0  0  0
  9 32  1  0  0  0  0
  9 33  1  0  0  0  0
 10 11  1  0  0  0  0
 10 12  1  0  0  0  0
 10 34  1  0  0  0  0
 11 35  1  0  0  0  0
 12 13  1  0  0  0  0
 12 36  1  0  0  0  0
 12 37  1  0  0  0  0
 13 22  1  0  0  0  0
 13 14  1  0  0  0  0
 14 15  1  0  0  0  0
 14 16  2  0  0  0  0
 15 38  1  0  0  0  0
 15 39  1  0  0  0  0
 15 40  1  0  0  0  0
 16 17  1  0  0  0  0
 17 22  2  0  0  0  0
 17 18  1  0  0  0  0
 18 19  2  0  0  0  0
 18 41  1  0  0  0  0
 19 20  1  0  0  0  0
 19 42  1  0  0  0  0
 20 21  2  0  0  0  0
 20 43  1  0  0  0  0
 21 22  1  0  0  0  0
 21 44  1  0  0  0  0
 23 24  2  0  0  0  0
 23 45  1  0  0  0  0
 24 46  1  0  0  0  0
M  END
> <s_m_source_file>
AV-unprocessed.smi

> <i_m_source_file_index>
492

> <i_lp_mmshare_version>
43012

> <i_f3d_flags>
0

> <s_epik_input>
W0NIM11PYzFbY0hdW2NIXWMoW2NIXVtjSF0xKVtDSDJdT1tDSDJdW0NASF0oW09IXSlbQ0gyXW4oYyhuMilbQ0gzXSljKGMyMylbY0hdW2NIXVtjSF1bY0hdMw==

> <s_epik_cmdline>
J2VwaWtfcHl0aG9uJywgJy1waCcsICc3LjAnLCAnLXRuJywgJzgnLCAnLW1hJywgJzIwMCcsICctbWV0YWxfYmluZGluZycsICctaW1hZScsICc8aW5maWxlLm1hZT4nLCAnLW9tYWUnLCAnPG91dGZpbGUubWFlPic=

> <r_lp_tautomer_probability>
1

> <r_epik_Ionization_Penalty>
0.132603

> <r_epik_Ionization_Penalty_Charging>
0

> <r_epik_Ionization_Penalty_Neutral>
0.132603

> <r_epik_State_Penalty>
0.121982

> <r_epik_Charging_Adjusted_Penalty>
0.121982

> <i_epik_Tot_Q>
0

> <i_epik_Tot_abs_Q>
0

> <r_epik_Metal_State_Penalty>
0.000135431

> <b_epik_Metal_Only>
0

> <s_lp_Force_Field>
OPLS_2005

> <r_lp_Energy>
18.9568

> <b_lp_Chiralities_Consistent>
1

> <s_lp_Variant>
AV-unprocessed.smi:492-2

> <Gold.Version>
5.8.1

> <Gold.Id.Protein>
6NUR|6NUR_protein|mol2

> <Gold.PLP.Fitness>
53.1016

> <Gold.PLP.PLP>
-56.5667

> <Gold.PLP.part.hbond>
-2.0000

> <Gold.PLP.part.metal>
0.0000

> <Gold.PLP.part.buried>
-8.4368

> <Gold.PLP.part.nonpolar>
-47.2947

> <Gold.PLP.part.repulsive>
0.9962

> <Gold.PLP.ligand.clash>
0.0000

> <Gold.PLP.ligand.torsion>
1.9201

> <Gold.PLP.Chemscore.Hbond>
0.0000

> <Gold.PLP.Chemscore.CHOScore>
0.0000

> <Gold.PLP.Chemscore.Metal>
0.0000

> <Gold.PLP.Chemscore.Internal.Correction>
0.3750

> <Gold.Rescore>
     Score         DG    S(hbond)    S(metal)    S(lipo)     H(rot)  DE(clash)    DE(int)     intcor
     13.72     -15.66       0.00        0.00     139.47       2.40       0.05       1.89       ----

> <Gold.Chemscore.Fitness>
13.7159

> <Gold.Chemscore.DG>
-15.6566

> <Gold.Chemscore.ZeroCoef>
-5.4800

> <Gold.Chemscore.Hbond>
0.0000

> <Gold.Chemscore.Metal>
0.0000

> <Gold.Chemscore.Lipo>
139.4727

> <Gold.Chemscore.Internal_Hbond>
0.0000

> <Gold.Chemscore.DEClash>
0.0536

> <Gold.Chemscore.DEInternal>
1.8871

> <Gold.Chemscore.Rot>
2.3991

> <Gold.Chemscore.Internal.Correction>
   9.000000E+99

> <Gold.Chemscore.Hbond.Weighted>
-0.0000

> <Gold.Chemscore.Metal.Weighted>
-0.0000

> <Gold.Chemscore.Lipo.Weighted>
-16.3183

> <Gold.Chemscore.Internal_Hbond.Weighted>
0.0000

> <Gold.Chemscore.DEClash.Weighted>
0.0536

> <Gold.Chemscore.DEInternal.Weighted>
1.8871

> <Gold.Chemscore.Rot.Weighted>
6.1417

> <Gold.Chemscore.Internal.Correction.Weighted>
   9.000000E+99

> <Gold.Protein.RotatedTorsions>
[ 6907 6896 6895 6894 ] final  117.97 input  -60.11 | X-H torsion
[ 7974 7965 7964 7962 ] final   31.08 input  175.53 | X-H torsion
[ 8008 7997 7996 7995 ] final  -43.51 input   59.86 | X-H torsion
[ 10167 10162 10161 10158 ] final  -88.31 input  -65.29 | X-H torsion
[ 10718 10713 10712 10709 ] final  100.70 input   66.30 | X-H torsion
[ 10763 10752 10751 10750 ] final   91.56 input  -60.55 | X-H torsion
[ 11005 11000 10999 10996 ] final    8.33 input  -57.11 | X-H torsion

> <Gold.Protein.ActiveResidues>
 VAL166  LYS551  ARG553  GLY616  TRP617  ASP618  TYR619  PRO620  LYS621  CYS622 
 ASP623  PHE694  ASN695  SER759  ASP760  ASP761  ALA762  ILE779  LEU786  VAL792 
 PHE793  MET794  SER795  GLU796  ALA797  LYS798  CYS799  TRP800  GLU811  SER814 

> <Gold.Protein.RotatedAtoms>
  152.4576  133.7754  159.6821 H   0  0  0  0  0  0  0  0  0  0  0  0  # atno 6907 bound_to 6896
  150.8507  133.7781  159.3033 H   0  0  0  0  0  0  0  0  0  0  0  0  # atno 6908 bound_to 6896
  151.5377  135.1071  159.9970 H   0  0  0  0  0  0  0  0  0  0  0  0  # atno 6909 bound_to 6896
  146.1572  139.6704  142.9058 H   0  0  0  0  0  0  0  0  0  0  0  0  # atno 7974 bound_to 7965
  154.3997  140.1446  156.3531 H   0  0  0  0  0  0  0  0  0  0  0  0  # atno 8008 bound_to 7997
  155.8250  140.3468  155.5516 H   0  0  0  0  0  0  0  0  0  0  0  0  # atno 8009 bound_to 7997
  155.8248  140.0903  157.1818 H   0  0  0  0  0  0  0  0  0  0  0  0  # atno 8010 bound_to 7997
  140.3759  143.2772  151.9443 H   0  0  0  0  0  0  0  0  0  0  0  0  # atno 10167 bound_to 10162
  157.6847  131.0706  150.5141 H   0  0  0  0  0  0  0  0  0  0  0  0  # atno 10718 bound_to 10713
  153.2095  135.4393  155.0363 H   0  0  0  0  0  0  0  0  0  0  0  0  # atno 10763 bound_to 10752
  154.8192  135.3329  154.7090 H   0  0  0  0  0  0  0  0  0  0  0  0  # atno 10764 bound_to 10752
  153.7529  135.6997  153.4997 H   0  0  0  0  0  0  0  0  0  0  0  0  # atno 10765 bound_to 10752
  140.5382  134.0400  155.7895 H   0  0  0  0  0  0  0  0  0  0  0  0  # atno 11005 bound_to 11000
  145.4678  141.0435  143.2715 LP  0  0  0  0  0  0  0  0  0  0  0  0  # atno 17320 bound_to 7965
  144.7979  139.6198  143.7084 LP  0  0  0  0  0  0  0  0  0  0  0  0  # atno 17321 bound_to 7965
  139.4799  144.5864  151.7847 LP  0  0  0  0  0  0  0  0  0  0  0  0  # atno 17342 bound_to 10162
  140.4986  144.1202  150.5966 LP  0  0  0  0  0  0  0  0  0  0  0  0  # atno 17343 bound_to 10162
  156.5457  130.4219  149.6132 LP  0  0  0  0  0  0  0  0  0  0  0  0  # atno 17370 bound_to 10713
  156.2946  130.7143  151.2000 LP  0  0  0  0  0  0  0  0  0  0  0  0  # atno 17371 bound_to 10713
  141.1242  133.9410  157.2668 LP  0  0  0  0  0  0  0  0  0  0  0  0  # atno 17394 bound_to 11000
  139.9518  135.0174  156.9015 LP  0  0  0  0  0  0  0  0  0  0  0  0  # atno 17395 bound_to 11000

$$$$
