AV-unprocessed.smi:625|AV-procd|sdf|3104|dock10
  -GOLD-   22720 0 23D 1   1.00000     0.00000
 Structure written by MMmdl.
 49 51  0  0  0  0  0  0  0  0  1 V2000
  146.6881  133.7547  151.5965 C   0  0  0  0  0  0  0  0  0  0  0  0
  147.6136  133.5927  152.7076 N   0  0  0  0  0  0  0  0  0  0  0  0
  147.7988  132.4458  153.3842 C   0  0  0  0  0  0  0  0  0  0  0  0
  147.1799  131.4205  153.0963 O   0  0  0  0  0  0  0  0  0  0  0  0
  148.7808  132.5367  154.4688 C   0  0  0  0  0  0  0  0  0  0  0  0
  149.6270  131.3938  154.7539 C   0  0  0  0  0  0  0  0  0  0  0  0
  150.5255  131.4333  155.7570 C   0  0  0  0  0  0  0  0  0  0  0  0
  150.6891  132.6221  156.5976 C   0  0  0  0  0  0  0  0  0  0  0  0
  151.4917  132.6575  157.5302 O   0  0  0  0  0  0  0  0  0  0  0  0
  149.8861  133.6850  156.2859 N   0  0  0  0  0  0  0  0  0  0  0  0
  149.9501  134.9343  157.0675 C   0  0  0  0  0  0  0  0  0  0  0  0
  150.6283  136.1107  156.3439 C   0  0  0  0  0  0  0  0  0  0  0  0
  151.8275  136.0399  156.0787 O   0  0  0  0  0  0  0  0  0  0  0  0
  149.8742  137.1789  156.0342 N   0  0  0  0  0  0  0  0  0  0  0  0
  150.3396  138.4105  155.4032 C   0  0  1  0  0  0  0  0  0  0  0  0
  151.1125  138.0555  154.1201 C   0  0  0  0  0  0  0  0  0  0  0  0
  149.1222  139.3306  155.1386 C   0  0  1  0  0  0  0  0  0  0  0  0
  148.4802  139.9011  156.4296 C   0  0  0  0  0  0  0  0  0  0  0  0
  148.4542  141.4177  156.1733 C   0  0  2  0  0  0  0  0  0  0  0  0
  147.4299  141.7384  155.0698 C   0  0  0  0  0  0  0  0  0  0  0  0
  148.1261  141.2133  153.8006 C   0  0  0  0  0  0  0  0  0  0  0  0
  149.4407  140.6267  154.3507 C   0  0  1  0  0  0  0  0  0  0  0  0
  149.7785  141.6268  155.4520 C   0  0  0  0  0  0  0  0  0  0  0  0
  148.9435  133.6347  155.2396 C   0  0  0  0  0  0  0  0  0  0  0  0
  146.7425  134.7734  151.2130 H   0  0  0  0  0  0  0  0  0  0  0  0
  145.6628  133.5648  151.9156 H   0  0  0  0  0  0  0  0  0  0  0  0
  146.9328  133.0707  150.7832 H   0  0  0  0  0  0  0  0  0  0  0  0
  148.1478  134.4034  152.9845 H   0  0  0  0  0  0  0  0  0  0  0  0
  149.5468  130.4931  154.1622 H   0  0  0  0  0  0  0  0  0  0  0  0
  151.1421  130.5672  155.9477 H   0  0  0  0  0  0  0  0  0  0  0  0
  148.9480  135.2448  157.3688 H   0  0  0  0  0  0  0  0  0  0  0  0
  150.4816  134.7643  158.0048 H   0  0  0  0  0  0  0  0  0  0  0  0
  148.8973  137.1485  156.2879 H   0  0  0  0  0  0  0  0  0  0  0  0
  151.0193  138.9221  156.0869 H   0  0  0  0  0  0  0  0  0  0  0  0
  151.5438  138.9378  153.6492 H   0  0  0  0  0  0  0  0  0  0  0  0
  150.4659  137.5696  153.3887 H   0  0  0  0  0  0  0  0  0  0  0  0
  151.9382  137.3761  154.3342 H   0  0  0  0  0  0  0  0  0  0  0  0
  148.3769  138.7489  154.5932 H   0  0  0  0  0  0  0  0  0  0  0  0
  147.4860  139.4926  156.6145 H   0  0  0  0  0  0  0  0  0  0  0  0
  149.0892  139.6902  157.3100 H   0  0  0  0  0  0  0  0  0  0  0  0
  148.3233  142.0114  157.0785 H   0  0  0  0  0  0  0  0  0  0  0  0
  146.4676  141.2570  155.2480 H   0  0  0  0  0  0  0  0  0  0  0  0
  147.2596  142.8132  154.9963 H   0  0  0  0  0  0  0  0  0  0  0  0
  147.5257  140.4735  153.2699 H   0  0  0  0  0  0  0  0  0  0  0  0
  148.3288  142.0329  153.1098 H   0  0  0  0  0  0  0  0  0  0  0  0
  150.2062  140.5198  153.5832 H   0  0  0  0  0  0  0  0  0  0  0  0
  149.9147  142.6458  155.0853 H   0  0  0  0  0  0  0  0  0  0  0  0
  150.6469  141.3440  156.0489 H   0  0  0  0  0  0  0  0  0  0  0  0
  148.3679  134.5428  155.1306 H   0  0  0  0  0  0  0  0  0  0  0  0
  1  2  1  0  0  0  0
  1 25  1  0  0  0  0
  1 26  1  0  0  0  0
  1 27  1  0  0  0  0
  2  3  1  0  0  0  0
  2 28  1  0  0  0  0
  3  4  2  0  0  0  0
  3  5  1  0  0  0  0
  5 24  2  0  0  0  0
  5  6  1  0  0  0  0
  6  7  2  0  0  0  0
  6 29  1  0  0  0  0
  7  8  1  0  0  0  0
  7 30  1  0  0  0  0
  8  9  2  0  0  0  0
  8 10  1  0  0  0  0
 10 11  1  0  0  0  0
 10 24  1  0  0  0  0
 11 12  1  0  0  0  0
 11 31  1  0  0  0  0
 11 32  1  0  0  0  0
 12 13  2  0  0  0  0
 12 14  1  0  0  0  0
 14 15  1  0  0  0  0
 14 33  1  0  0  0  0
 15 16  1  0  0  0  0
 15 17  1  0  0  0  0
 15 34  1  0  0  0  0
 16 35  1  0  0  0  0
 16 36  1  0  0  0  0
 16 37  1  0  0  0  0
 17 22  1  0  0  0  0
 17 18  1  0  0  0  0
 17 38  1  0  0  0  0
 18 19  1  0  0  0  0
 18 39  1  0  0  0  0
 18 40  1  0  0  0  0
 19 23  1  0  0  0  0
 19 20  1  0  0  0  0
 19 41  1  0  0  0  0
 20 21  1  0  0  0  0
 20 42  1  0  0  0  0
 20 43  1  0  0  0  0
 21 22  1  0  0  0  0
 21 44  1  0  0  0  0
 21 45  1  0  0  0  0
 22 23  1  0  0  0  0
 22 46  1  0  0  0  0
 23 47  1  0  0  0  0
 23 48  1  0  0  0  0
 24 49  1  0  0  0  0
M  END
> <s_m_source_file>
AV-unprocessed.smi

> <i_m_source_file_index>
625

> <i_lp_mmshare_version>
43012

> <i_f3d_flags>
0

> <s_epik_input>
W0NIM11bTkhdQyg9TyljMVtjSF1bY0hdYyg9TyluKFtjSF0xKVtDSDJdQyg9TylbTkhdW0NASF0oW0NIM10pW0NASF0oW0NIMl1bQ0BIXTIzKVtDQEhdKFtDSDJdMylbQ0gyXVtDSDJdMg==

> <s_epik_cmdline>
J2VwaWtfcHl0aG9uJywgJy1waCcsICc3LjAnLCAnLXRuJywgJzgnLCAnLW1hJywgJzIwMCcsICctbWV0YWxfYmluZGluZycsICctaW1hZScsICc8aW5maWxlLm1hZT4nLCAnLW9tYWUnLCAnPG91dGZpbGUubWFlPic=

> <r_lp_tautomer_probability>
1

> <r_epik_Ionization_Penalty>
3.7129e-07

> <r_epik_Ionization_Penalty_Charging>
5.04114e-08

> <r_epik_Ionization_Penalty_Neutral>
3.20879e-07

> <r_epik_State_Penalty>
-0

> <r_epik_Charging_Adjusted_Penalty>
5.04114e-08

> <i_epik_Tot_Q>
0

> <i_epik_Tot_abs_Q>
0

> <r_epik_Metal_State_Penalty>
-0

> <b_epik_Metal_Only>
0

> <s_lp_Force_Field>
OPLS_2005

> <r_lp_Energy>
63.0032

> <b_lp_Chiralities_Consistent>
1

> <s_lp_Variant>
AV-unprocessed.smi:625-4

> <Gold.Version>
5.8.1

> <Gold.Id.Protein>
6NUR|6NUR_protein|mol2

> <Gold.PLP.Fitness>
44.1734

> <Gold.PLP.PLP>
-37.9640

> <Gold.PLP.part.hbond>
-3.0000

> <Gold.PLP.part.metal>
0.0000

> <Gold.PLP.part.buried>
-3.0156

> <Gold.PLP.part.nonpolar>
-32.3194

> <Gold.PLP.part.repulsive>
0.2539

> <Gold.PLP.ligand.clash>
0.0000

> <Gold.PLP.ligand.torsion>
0.8005

> <Gold.PLP.Chemscore.Hbond>
2.5846

> <Gold.PLP.Chemscore.CHOScore>
0.0000

> <Gold.PLP.Chemscore.Metal>
0.0000

> <Gold.Chemscore.Hbonds>
donor molecule, donor type, donor heavy atom, donor atom, acceptor molecule, acceptor atom, score
      L1  H     2    28       P1  7948  0.30
      P1  H  6896  6908       L1     9  0.99
      P1  H 10752 10764       L1    13  0.98

> <Gold.PLP.Chemscore.Internal.Correction>
0.0565

> <Gold.Rescore>
     Score         DG    S(hbond)    S(metal)    S(lipo)     H(rot)  DE(clash)    DE(int)     intcor
     15.61     -17.20       1.92        0.00      81.88       1.67       0.05       1.54       ----

> <Gold.Chemscore.Fitness>
15.6142

> <Gold.Chemscore.DG>
-17.2030

> <Gold.Chemscore.ZeroCoef>
-5.4800

> <Gold.Chemscore.Hbond>
1.9223

> <Gold.Chemscore.Metal>
0.0000

> <Gold.Chemscore.Lipo>
81.8790

> <Gold.Chemscore.Internal_Hbond>
0.0000

> <Gold.Chemscore.DEClash>
0.0461

> <Gold.Chemscore.DEInternal>
1.5427

> <Gold.Chemscore.Rot>
1.6709

> <Gold.Chemscore.Internal.Correction>
   9.000000E+99

> <Gold.Chemscore.Hbonds>
donor molecule, donor type, donor heavy atom, donor atom, acceptor molecule, acceptor atom, score
      L1  H     2    28       P1  7948  0.15
      P1  H  6896  6908       L1     9  0.94
      P1  H 10752 10764       L1    13  0.93

> <Gold.Chemscore.Hbond.Weighted>
-6.4205

> <Gold.Chemscore.Metal.Weighted>
-0.0000

> <Gold.Chemscore.Lipo.Weighted>
-9.5798

> <Gold.Chemscore.Internal_Hbond.Weighted>
0.0000

> <Gold.Chemscore.DEClash.Weighted>
0.0461

> <Gold.Chemscore.DEInternal.Weighted>
1.5427

> <Gold.Chemscore.Rot.Weighted>
4.2774

> <Gold.Chemscore.Internal.Correction.Weighted>
   9.000000E+99

> <Gold.Protein.RotatedTorsions>
[ 6907 6896 6895 6894 ] final   61.75 input  -60.11 | X-H torsion
[ 7974 7965 7964 7962 ] final -177.77 input  175.53 | X-H torsion
[ 8008 7997 7996 7995 ] final   47.78 input   59.86 | X-H torsion
[ 10167 10162 10161 10158 ] final  179.70 input  -65.29 | X-H torsion
[ 10718 10713 10712 10709 ] final -112.63 input   66.30 | X-H torsion
[ 10763 10752 10751 10750 ] final  -55.24 input  -60.55 | X-H torsion
[ 11005 11000 10999 10996 ] final   12.90 input  -57.11 | X-H torsion

> <Gold.Protein.ActiveResidues>
 VAL166  LYS551  ARG553  GLY616  TRP617  ASP618  TYR619  PRO620  LYS621  CYS622 
 ASP623  PHE694  ASN695  SER759  ASP760  ASP761  ALA762  ILE779  LEU786  VAL792 
 PHE793  MET794  SER795  GLU796  ALA797  LYS798  CYS799  TRP800  GLU811  SER814 

> <Gold.Protein.RotatedAtoms>
  152.4115  134.6116  160.0026 H   0  0  0  0  0  0  0  0  0  0  0  0  # atno 6907 bound_to 6896
  151.6292  133.3327  159.3113 H   0  0  0  0  0  0  0  0  0  0  0  0  # atno 6908 bound_to 6896
  150.8005  134.7136  159.6663 H   0  0  0  0  0  0  0  0  0  0  0  0  # atno 6909 bound_to 6896
  144.7128  140.0969  143.6418 H   0  0  0  0  0  0  0  0  0  0  0  0  # atno 7974 bound_to 7965
  155.3748  140.3425  155.4244 H   0  0  0  0  0  0  0  0  0  0  0  0  # atno 8008 bound_to 7997
  156.1643  140.1611  156.8593 H   0  0  0  0  0  0  0  0  0  0  0  0  # atno 8009 bound_to 7997
  154.5169  140.0776  156.8081 H   0  0  0  0  0  0  0  0  0  0  0  0  # atno 8010 bound_to 7997
  139.5348  144.2529  152.0769 H   0  0  0  0  0  0  0  0  0  0  0  0  # atno 10167 bound_to 10162
  156.0717  130.5930  150.8534 H   0  0  0  0  0  0  0  0  0  0  0  0  # atno 10718 bound_to 10713
  154.1877  135.6432  153.5051 H   0  0  0  0  0  0  0  0  0  0  0  0  # atno 10763 bound_to 10752
  153.0043  135.5421  154.6448 H   0  0  0  0  0  0  0  0  0  0  0  0  # atno 10764 bound_to 10752
  154.5828  135.2927  155.0688 H   0  0  0  0  0  0  0  0  0  0  0  0  # atno 10765 bound_to 10752
  140.4868  134.0880  155.7762 H   0  0  0  0  0  0  0  0  0  0  0  0  # atno 11005 bound_to 11000
  145.9572  139.2775  143.1177 LP  0  0  0  0  0  0  0  0  0  0  0  0  # atno 17320 bound_to 7965
  145.9260  140.9082  143.0381 LP  0  0  0  0  0  0  0  0  0  0  0  0  # atno 17321 bound_to 7965
  140.1998  144.4669  150.6437 LP  0  0  0  0  0  0  0  0  0  0  0  0  # atno 17342 bound_to 10162
  140.6548  143.2234  151.5995 LP  0  0  0  0  0  0  0  0  0  0  0  0  # atno 17343 bound_to 10162
  157.5792  131.0946  150.9298 LP  0  0  0  0  0  0  0  0  0  0  0  0  # atno 17370 bound_to 10713
  156.9497  130.5415  149.5282 LP  0  0  0  0  0  0  0  0  0  0  0  0  # atno 17371 bound_to 10713
  141.1504  133.8979  157.2112 LP  0  0  0  0  0  0  0  0  0  0  0  0  # atno 17394 bound_to 11000
  139.9793  135.0103  156.9710 LP  0  0  0  0  0  0  0  0  0  0  0  0  # atno 17395 bound_to 11000

$$$$
