AV-unprocessed.smi:3188|AV-procd|sdf|12184|dock4
  -GOLD-   2272018 23D 1   1.00000     0.00000
 Structure written by MMmdl.
 40 41  0  0  0  0  0  0  0  0  2 V2000
  151.6860  144.8261  158.7110 C   0  0  0  0  0  0  0  0  0  0  0  0
  152.1212  143.5128  159.3403 C   0  0  0  0  0  0  0  0  0  0  0  0
  152.7974  143.5226  160.5049 C   0  0  0  0  0  0  0  0  0  0  0  0
  153.3424  142.2881  161.1854 C   0  0  0  0  0  0  0  0  0  0  0  0
  153.4784  141.1292  160.1955 C   0  0  0  0  0  0  0  0  0  0  0  0
  152.1877  140.9279  159.3845 C   0  0  2  0  0  0  0  0  0  0  0  0
  152.3436  139.6927  158.4760 C   0  0  0  0  0  0  0  0  0  0  0  0
  151.7819  142.2080  158.5902 C   0  0  1  0  0  0  0  0  0  0  0  0
  150.2896  142.1273  158.1720 C   0  0  0  0  0  0  0  0  0  0  0  0
  150.0963  142.2143  156.7096 N   0  3  0  0  0  0  0  0  0  0  0  0
  149.2077  141.1749  156.1558 C   0  0  0  0  0  0  0  0  0  0  0  0
  149.6133  140.8124  154.7197 C   0  0  0  0  0  0  0  0  0  0  0  0
  150.4251  139.6117  154.6765 N   0  0  0  0  0  0  0  0  0  0  0  0
  150.2954  138.5138  153.8509 C   0  0  0  0  0  0  0  0  0  0  0  0
  151.3182  137.6988  154.2449 C   0  0  0  0  0  0  0  0  0  0  0  0
  152.0171  138.3252  155.2755 N   0  0  0  0  0  0  0  0  0  0  0  0
  151.4737  139.4750  155.5232 N   0  0  0  0  0  0  0  0  0  0  0  0
  152.0079  144.8773  157.6707 H   0  0  0  0  0  0  0  0  0  0  0  0
  152.1224  145.6786  159.2328 H   0  0  0  0  0  0  0  0  0  0  0  0
  150.6030  144.9403  158.7551 H   0  0  0  0  0  0  0  0  0  0  0  0
  152.9933  144.4589  161.0072 H   0  0  0  0  0  0  0  0  0  0  0  0
  154.3160  142.5187  161.6191 H   0  0  0  0  0  0  0  0  0  0  0  0
  152.6795  142.0212  162.0088 H   0  0  0  0  0  0  0  0  0  0  0  0
  154.3093  141.3267  159.5163 H   0  0  0  0  0  0  0  0  0  0  0  0
  153.7351  140.2189  160.7390 H   0  0  0  0  0  0  0  0  0  0  0  0
  151.3954  140.7117  160.1035 H   0  0  0  0  0  0  0  0  0  0  0  0
  153.1150  139.8521  157.7220 H   0  0  0  0  0  0  0  0  0  0  0  0
  151.4217  139.4359  157.9568 H   0  0  0  0  0  0  0  0  0  0  0  0
  152.6311  138.8160  159.0572 H   0  0  0  0  0  0  0  0  0  0  0  0
  152.3896  142.2288  157.6839 H   0  0  0  0  0  0  0  0  0  0  0  0
  149.8403  141.1892  158.4942 H   0  0  0  0  0  0  0  0  0  0  0  0
  149.7262  142.9207  158.6656 H   0  0  0  0  0  0  0  0  0  0  0  0
  149.7014  143.1191  156.4955 H   0  0  0  0  0  0  0  0  0  0  0  0
  149.2491  140.2919  156.7953 H   0  0  0  0  0  0  0  0  0  0  0  0
  148.1793  141.5382  156.1716 H   0  0  0  0  0  0  0  0  0  0  0  0
  148.7268  140.6522  154.1046 H   0  0  0  0  0  0  0  0  0  0  0  0
  150.1747  141.6277  154.2612 H   0  0  0  0  0  0  0  0  0  0  0  0
  149.5295  138.4124  153.0960 H   0  0  0  0  0  0  0  0  0  0  0  0
  151.6068  136.7249  153.8769 H   0  0  0  0  0  0  0  0  0  0  0  0
  150.9987  142.1417  156.2616 H   0  0  0  0  0  0  0  0  0  0  0  0
  1  2  1  0  0  0  0
  1 18  1  0  0  0  0
  1 19  1  0  0  0  0
  1 20  1  0  0  0  0
  2  8  1  0  0  0  0
  2  3  2  0  0  0  0
  3  4  1  0  0  0  0
  3 21  1  0  0  0  0
  4  5  1  0  0  0  0
  4 22  1  0  0  0  0
  4 23  1  0  0  0  0
  5  6  1  0  0  0  0
  5 24  1  0  0  0  0
  5 25  1  0  0  0  0
  6  7  1  0  0  0  0
  6  8  1  0  0  0  0
  6 26  1  0  0  0  0
  7 27  1  0  0  0  0
  7 28  1  0  0  0  0
  7 29  1  0  0  0  0
  8  9  1  0  0  0  0
  8 30  1  0  0  0  0
  9 10  1  0  0  0  0
  9 31  1  0  0  0  0
  9 32  1  0  0  0  0
 10 11  1  0  0  0  0
 10 33  1  0  0  0  0
 10 40  1  0  0  0  0
 11 12  1  0  0  0  0
 11 34  1  0  0  0  0
 11 35  1  0  0  0  0
 12 13  1  0  0  0  0
 12 36  1  0  0  0  0
 12 37  1  0  0  0  0
 13 17  1  0  0  0  0
 13 14  1  0  0  0  0
 14 15  2  0  0  0  0
 14 38  1  0  0  0  0
 15 16  1  0  0  0  0
 15 39  1  0  0  0  0
 16 17  2  0  0  0  0
M  CHG  1  10   1
M  END
> <s_m_source_file>
AV-unprocessed.smi

> <i_m_source_file_index>
3188

> <i_lp_mmshare_version>
43012

> <i_f3d_flags>
0

> <s_epik_input>
W0NIM11DMT1bQ0hdW0NIMl1bQ0gyXVtDQEBIXShbQ0gzXSlbQ0BIXTFbQ0gyXVtOSF1bQ0gyXVtDSDJdbjJbY0hdW2NIXW5uMg==

> <s_epik_cmdline>
J2VwaWtfcHl0aG9uJywgJy1waCcsICc3LjAnLCAnLXRuJywgJzgnLCAnLW1hJywgJzIwMCcsICctbWV0YWxfYmluZGluZycsICctaW1hZScsICc8aW5maWxlLm1hZT4nLCAnLW9tYWUnLCAnPG91dGZpbGUubWFlPic=

> <r_lp_tautomer_probability>
1

> <r_epik_Ionization_Penalty>
0.007268

> <r_epik_Ionization_Penalty_Charging>
0.00726786

> <r_epik_Ionization_Penalty_Neutral>
1.34882e-07

> <r_epik_State_Penalty>
0.00542069

> <r_epik_Charging_Adjusted_Penalty>
0.0126886

> <i_epik_Tot_Q>
1

> <i_epik_Tot_abs_Q>
1

> <r_epik_Metal_State_Penalty>
-0

> <b_epik_Metal_Only>
0

> <s_lp_Force_Field>
OPLS_2005

> <r_lp_Energy>
15.008

> <b_lp_Chiralities_Consistent>
1

> <s_lp_Variant>
AV-unprocessed.smi:3188-2

> <Gold.Version>
5.8.1

> <Gold.Id.Protein>
6NUR|6NUR_protein|mol2

> <Gold.PLP.Fitness>
50.2847

> <Gold.PLP.PLP>
-40.0701

> <Gold.PLP.part.hbond>
-1.0000

> <Gold.PLP.part.metal>
0.0000

> <Gold.PLP.part.buried>
-2.4583

> <Gold.PLP.part.nonpolar>
-36.1364

> <Gold.PLP.part.repulsive>
0.0742

> <Gold.PLP.ligand.clash>
0.0000

> <Gold.PLP.ligand.torsion>
1.6693

> <Gold.PLP.Chemscore.Hbond>
2.0000

> <Gold.PLP.Chemscore.CHOScore>
2.4893

> <Gold.PLP.Chemscore.Metal>
0.0000

> <Gold.Chemscore.Hbonds>
donor molecule, donor type, donor heavy atom, donor atom, acceptor molecule, acceptor atom, score
      L1  H    10    33       P1  8028  2.00
      L1  C    14    38       P1  7948  0.89
      L1  C    14    38       P1  7957  0.74
      L1  C    15    39       P1  7949  0.85

> <Gold.PLP.Chemscore.Internal.Correction>
0.0854

> <Gold.Rescore>
     Score         DG    S(hbond)    S(metal)    S(lipo)     H(rot)  DE(clash)    DE(int)     intcor
     16.38     -18.03       1.00        0.00     117.73       1.78       0.08       1.58       ----

> <Gold.Chemscore.Fitness>
16.3780

> <Gold.Chemscore.DG>
-18.0348

> <Gold.Chemscore.ZeroCoef>
-5.4800

> <Gold.Chemscore.Hbond>
0.9999

> <Gold.Chemscore.Metal>
0.0000

> <Gold.Chemscore.Lipo>
117.7265

> <Gold.Chemscore.Internal_Hbond>
0.0000

> <Gold.Chemscore.DEClash>
0.0786

> <Gold.Chemscore.DEInternal>
1.5782

> <Gold.Chemscore.Rot>
1.7809

> <Gold.Chemscore.Internal.Correction>
   9.000000E+99

> <Gold.Chemscore.Hbonds>
donor molecule, donor type, donor heavy atom, donor atom, acceptor molecule, acceptor atom, score
      L1  H    10    33       P1  8028  0.97

> <Gold.Chemscore.Hbond.Weighted>
-3.3398

> <Gold.Chemscore.Metal.Weighted>
-0.0000

> <Gold.Chemscore.Lipo.Weighted>
-13.7740

> <Gold.Chemscore.Internal_Hbond.Weighted>
0.0000

> <Gold.Chemscore.DEClash.Weighted>
0.0786

> <Gold.Chemscore.DEInternal.Weighted>
1.5782

> <Gold.Chemscore.Rot.Weighted>
4.5590

> <Gold.Chemscore.Internal.Correction.Weighted>
   9.000000E+99

> <Gold.Protein.RotatedTorsions>
[ 6907 6896 6895 6894 ] final  -89.03 input  -60.11 | X-H torsion
[ 7974 7965 7964 7962 ] final -107.55 input  175.53 | X-H torsion
[ 8008 7997 7996 7995 ] final  -48.91 input   59.86 | X-H torsion
[ 10167 10162 10161 10158 ] final   -6.25 input  -65.29 | X-H torsion
[ 10718 10713 10712 10709 ] final   26.92 input   66.30 | X-H torsion
[ 10763 10752 10751 10750 ] final  -32.44 input  -60.55 | X-H torsion
[ 11005 11000 10999 10996 ] final  115.53 input  -57.11 | X-H torsion

> <Gold.Protein.ActiveResidues>
 VAL166  LYS551  ARG553  GLY616  TRP617  ASP618  TYR619  PRO620  LYS621  CYS622 
 ASP623  PHE694  ASN695  SER759  ASP760  ASP761  ALA762  ILE779  LEU786  VAL792 
 PHE793  MET794  SER795  GLU796  ALA797  LYS798  CYS799  TRP800  GLU811  SER814 

> <Gold.Protein.RotatedAtoms>
  150.6871  134.2650  159.4564 H   0  0  0  0  0  0  0  0  0  0  0  0  # atno 6907 bound_to 6896
  152.0577  134.9611  160.0584 H   0  0  0  0  0  0  0  0  0  0  0  0  # atno 6908 bound_to 6896
  152.1050  133.4235  159.4641 H   0  0  0  0  0  0  0  0  0  0  0  0  # atno 6909 bound_to 6896
  145.2039  140.9068  143.3353 H   0  0  0  0  0  0  0  0  0  0  0  0  # atno 7974 bound_to 7965
  154.4036  140.1309  156.4417 H   0  0  0  0  0  0  0  0  0  0  0  0  # atno 8008 bound_to 7997
  155.7452  140.3489  155.5103 H   0  0  0  0  0  0  0  0  0  0  0  0  # atno 8009 bound_to 7997
  155.9001  140.1018  157.1346 H   0  0  0  0  0  0  0  0  0  0  0  0  # atno 8010 bound_to 7997
  140.6991  143.6215  150.8608 H   0  0  0  0  0  0  0  0  0  0  0  0  # atno 10167 bound_to 10162
  157.2133  130.6944  149.6238 H   0  0  0  0  0  0  0  0  0  0  0  0  # atno 10718 bound_to 10713
  153.8139  135.6880  153.4837 H   0  0  0  0  0  0  0  0  0  0  0  0  # atno 10763 bound_to 10752
  153.1611  135.4579  154.9772 H   0  0  0  0  0  0  0  0  0  0  0  0  # atno 10764 bound_to 10752
  154.7956  135.3318  154.7617 H   0  0  0  0  0  0  0  0  0  0  0  0  # atno 10765 bound_to 10752
  139.9013  134.9585  156.7060 H   0  0  0  0  0  0  0  0  0  0  0  0  # atno 11005 bound_to 11000
  144.9921  139.3679  143.6210 LP  0  0  0  0  0  0  0  0  0  0  0  0  # atno 17320 bound_to 7965
  146.3412  139.9108  142.8780 LP  0  0  0  0  0  0  0  0  0  0  0  0  # atno 17321 bound_to 7965
  139.9936  143.5820  152.2901 LP  0  0  0  0  0  0  0  0  0  0  0  0  # atno 17342 bound_to 10162
  139.6484  144.7659  151.2196 LP  0  0  0  0  0  0  0  0  0  0  0  0  # atno 17343 bound_to 10162
  155.9688  130.4544  150.5848 LP  0  0  0  0  0  0  0  0  0  0  0  0  # atno 17370 bound_to 10713
  157.3650  131.0756  151.1605 LP  0  0  0  0  0  0  0  0  0  0  0  0  # atno 17371 bound_to 10713
  140.7113  133.9220  155.8086 LP  0  0  0  0  0  0  0  0  0  0  0  0  # atno 17394 bound_to 11000
  141.0298  134.0772  157.4027 LP  0  0  0  0  0  0  0  0  0  0  0  0  # atno 17395 bound_to 11000

$$$$
