AV-unprocessed.smi:2859|AV-procd|sdf|11005|dock1
  -GOLD-   2272015463D 1   1.00000     0.00000
 Structure written by MMmdl.
 51 52  0  0  0  0  0  0  0  0  1 V2000
  146.3440  143.7562  161.5956 C   0  0  0  0  0  0  0  0  0  0  0  0
  146.9806  144.7365  160.5888 C   0  0  0  0  0  0  0  0  0  0  0  0
  145.8803  145.4005  159.7352 C   0  0  0  0  0  0  0  0  0  0  0  0
  147.6769  145.8513  161.4007 C   0  0  0  0  0  0  0  0  0  0  0  0
  147.9574  143.9782  159.6740 C   0  0  0  0  0  0  0  0  0  0  0  0
  147.5676  142.9190  158.8195 C   0  0  0  0  0  0  0  0  0  0  0  0
  148.5834  142.2949  158.0539 C   0  0  0  0  0  0  0  0  0  0  0  0
  148.3266  141.2225  157.1703 N   0  0  0  0  0  0  0  0  0  0  0  0
  147.4769  140.1291  157.6309 C   0  0  0  0  0  0  0  0  0  0  0  0
  147.0492  139.2471  156.4479 C   0  0  0  0  0  0  0  0  0  0  0  0
  148.2027  138.7915  155.7518 O   0  0  0  0  0  0  0  0  0  0  0  0
  148.9524  139.8678  155.1879 C   0  0  2  0  0  0  0  0  0  0  0  0
  150.1182  139.2890  154.3715 C   0  0  0  0  0  0  0  0  0  0  0  0
  149.8120  138.5408  153.3078 N   0  0  0  0  0  0  0  0  0  0  0  0
  151.2848  139.5241  154.6820 O   0  0  0  0  0  0  0  0  0  0  0  0
  149.4400  140.8002  156.3202 C   0  0  0  0  0  0  0  0  0  0  0  0
  149.8636  142.7223  158.1484 N   0  0  0  0  0  0  0  0  0  0  0  0
  150.1375  143.7587  158.9469 C   0  0  0  0  0  0  0  0  0  0  0  0
  151.6175  144.1233  159.1485 C   0  0  0  0  0  0  0  0  0  0  0  0
  152.2842  144.4884  157.8017 C   0  0  0  0  0  0  0  0  0  0  0  0
  152.4169  142.9251  159.7137 C   0  0  0  0  0  0  0  0  0  0  0  0
  151.7236  145.3126  160.1204 C   0  0  0  0  0  0  0  0  0  0  0  0
  149.2490  144.3749  159.7326 N   0  0  0  0  0  0  0  0  0  0  0  0
  145.6569  144.2689  162.2695 H   0  0  0  0  0  0  0  0  0  0  0  0
  147.1048  143.2708  162.2081 H   0  0  0  0  0  0  0  0  0  0  0  0
  145.7762  142.9718  161.0940 H   0  0  0  0  0  0  0  0  0  0  0  0
  145.2994  144.6643  159.1785 H   0  0  0  0  0  0  0  0  0  0  0  0
  146.3076  146.0958  159.0116 H   0  0  0  0  0  0  0  0  0  0  0  0
  145.1790  145.9600  160.3550 H   0  0  0  0  0  0  0  0  0  0  0  0
  146.9671  146.3748  162.0424 H   0  0  0  0  0  0  0  0  0  0  0  0
  148.1297  146.6009  160.7503 H   0  0  0  0  0  0  0  0  0  0  0  0
  148.4570  145.4505  162.0491 H   0  0  0  0  0  0  0  0  0  0  0  0
  146.5430  142.5884  158.7687 H   0  0  0  0  0  0  0  0  0  0  0  0
  148.0201  139.5347  158.3666 H   0  0  0  0  0  0  0  0  0  0  0  0
  146.5828  140.5216  158.1161 H   0  0  0  0  0  0  0  0  0  0  0  0
  146.4876  138.3848  156.8067 H   0  0  0  0  0  0  0  0  0  0  0  0
  146.3928  139.7949  155.7698 H   0  0  0  0  0  0  0  0  0  0  0  0
  148.3153  140.4255  154.4990 H   0  0  0  0  0  0  0  0  0  0  0  0
  150.5515  138.1513  152.7409 H   0  0  0  0  0  0  0  0  0  0  0  0
  148.8448  138.3764  153.0699 H   0  0  0  0  0  0  0  0  0  0  0  0
  149.9405  141.6600  155.8743 H   0  0  0  0  0  0  0  0  0  0  0  0
  150.1768  140.2899  156.9425 H   0  0  0  0  0  0  0  0  0  0  0  0
  153.3463  144.7011  157.9292 H   0  0  0  0  0  0  0  0  0  0  0  0
  151.8379  145.3757  157.3516 H   0  0  0  0  0  0  0  0  0  0  0  0
  152.1968  143.6738  157.0818 H   0  0  0  0  0  0  0  0  0  0  0  0
  152.3383  142.0526  159.0639 H   0  0  0  0  0  0  0  0  0  0  0  0
  152.0681  142.6324  160.7048 H   0  0  0  0  0  0  0  0  0  0  0  0
  153.4760  143.1655  159.8123 H   0  0  0  0  0  0  0  0  0  0  0  0
  152.7622  145.6002  160.2859 H   0  0  0  0  0  0  0  0  0  0  0  0
  151.2899  145.0696  161.0911 H   0  0  0  0  0  0  0  0  0  0  0  0
  151.1972  146.1868  159.7353 H   0  0  0  0  0  0  0  0  0  0  0  0
  1  2  1  0  0  0  0
  1 24  1  0  0  0  0
  1 25  1  0  0  0  0
  1 26  1  0  0  0  0
  2  3  1  0  0  0  0
  2  4  1  0  0  0  0
  2  5  1  0  0  0  0
  3 27  1  0  0  0  0
  3 28  1  0  0  0  0
  3 29  1  0  0  0  0
  4 30  1  0  0  0  0
  4 31  1  0  0  0  0
  4 32  1  0  0  0  0
  5 23  1  0  0  0  0
  5  6  2  0  0  0  0
  6  7  1  0  0  0  0
  6 33  1  0  0  0  0
  7  8  1  0  0  0  0
  7 17  2  0  0  0  0
  8 16  1  0  0  0  0
  8  9  1  0  0  0  0
  9 10  1  0  0  0  0
  9 34  1  0  0  0  0
  9 35  1  0  0  0  0
 10 11  1  0  0  0  0
 10 36  1  0  0  0  0
 10 37  1  0  0  0  0
 11 12  1  0  0  0  0
 12 13  1  0  0  0  0
 12 16  1  0  0  0  0
 12 38  1  0  0  0  0
 13 14  1  0  0  0  0
 13 15  2  0  0  0  0
 14 39  1  0  0  0  0
 14 40  1  0  0  0  0
 16 41  1  0  0  0  0
 16 42  1  0  0  0  0
 17 18  1  0  0  0  0
 18 19  1  0  0  0  0
 18 23  2  0  0  0  0
 19 20  1  0  0  0  0
 19 21  1  0  0  0  0
 19 22  1  0  0  0  0
 20 43  1  0  0  0  0
 20 44  1  0  0  0  0
 20 45  1  0  0  0  0
 21 46  1  0  0  0  0
 21 47  1  0  0  0  0
 21 48  1  0  0  0  0
 22 49  1  0  0  0  0
 22 50  1  0  0  0  0
 22 51  1  0  0  0  0
M  END
> <s_m_source_file>
AV-unprocessed.smi

> <i_m_source_file_index>
2859

> <i_lp_mmshare_version>
43012

> <i_f3d_flags>
0

> <s_epik_input>
W0NIM11DKFtDSDNdKShbQ0gzXSljMVtjSF1jKG5jKG4xKUMoW0NIM10pKFtDSDNdKVtDSDNdKU4yW0NIMl1bQ0gyXU9bQ0BIXShbQ0gyXTIpQyg9TylbTkgyXQ==

> <s_epik_cmdline>
J2VwaWtfcHl0aG9uJywgJy1waCcsICc3LjAnLCAnLXRuJywgJzgnLCAnLW1hJywgJzIwMCcsICctbWV0YWxfYmluZGluZycsICctaW1hZScsICc8aW5maWxlLm1hZT4nLCAnLW9tYWUnLCAnPG91dGZpbGUubWFlPic=

> <r_lp_tautomer_probability>
1

> <r_epik_Ionization_Penalty>
0.0011326

> <r_epik_Ionization_Penalty_Charging>
0

> <r_epik_Ionization_Penalty_Neutral>
0.0011326

> <r_epik_State_Penalty>
0.000721507

> <r_epik_Charging_Adjusted_Penalty>
0.000721507

> <i_epik_Tot_Q>
0

> <i_epik_Tot_abs_Q>
0

> <r_epik_Metal_State_Penalty>
-0

> <b_epik_Metal_Only>
0

> <s_lp_Force_Field>
OPLS_2005

> <r_lp_Energy>
9.68103

> <b_lp_Chiralities_Consistent>
1

> <s_lp_Variant>
AV-unprocessed.smi:2859-2

> <Gold.Version>
5.8.1

> <Gold.Id.Protein>
6NUR|6NUR_protein|mol2

> <Gold.PLP.Fitness>
42.7911

> <Gold.PLP.PLP>
-39.8739

> <Gold.PLP.part.hbond>
-3.0000

> <Gold.PLP.part.metal>
0.0000

> <Gold.PLP.part.buried>
-4.8947

> <Gold.PLP.part.nonpolar>
-33.6494

> <Gold.PLP.part.repulsive>
0.5896

> <Gold.PLP.ligand.clash>
0.0000

> <Gold.PLP.ligand.torsion>
0.3666

> <Gold.PLP.Chemscore.Hbond>
1.0000

> <Gold.PLP.Chemscore.CHOScore>
0.0000

> <Gold.PLP.Chemscore.Metal>
0.0000

> <Gold.Chemscore.Hbonds>
donor molecule, donor type, donor heavy atom, donor atom, acceptor molecule, acceptor atom, score
      P1  H  7989  7998       L1    15  0.95

> <Gold.PLP.Chemscore.Internal.Correction>
0.6505

> <Gold.Rescore>
     Score         DG    S(hbond)    S(metal)    S(lipo)     H(rot)  DE(clash)    DE(int)     intcor
     14.01     -15.02       1.18        0.00      87.83       1.83       0.65       0.36       ----

> <Gold.Chemscore.Fitness>
14.0074

> <Gold.Chemscore.DG>
-15.0196

> <Gold.Chemscore.ZeroCoef>
-5.4800

> <Gold.Chemscore.Hbond>
1.1840

> <Gold.Chemscore.Metal>
0.0000

> <Gold.Chemscore.Lipo>
87.8254

> <Gold.Chemscore.Internal_Hbond>
0.0000

> <Gold.Chemscore.DEClash>
0.6489

> <Gold.Chemscore.DEInternal>
0.3633

> <Gold.Chemscore.Rot>
1.8323

> <Gold.Chemscore.Internal.Correction>
   9.000000E+99

> <Gold.Chemscore.Hbonds>
donor molecule, donor type, donor heavy atom, donor atom, acceptor molecule, acceptor atom, score
      P1  H  7989  7998       L1    15  0.22

> <Gold.Chemscore.Hbond.Weighted>
-3.9547

> <Gold.Chemscore.Metal.Weighted>
-0.0000

> <Gold.Chemscore.Lipo.Weighted>
-10.2756

> <Gold.Chemscore.Internal_Hbond.Weighted>
0.0000

> <Gold.Chemscore.DEClash.Weighted>
0.6489

> <Gold.Chemscore.DEInternal.Weighted>
0.3633

> <Gold.Chemscore.Rot.Weighted>
4.6907

> <Gold.Chemscore.Internal.Correction.Weighted>
   9.000000E+99

> <Gold.Protein.RotatedTorsions>
[ 6907 6896 6895 6894 ] final   64.90 input  -60.11 | X-H torsion
[ 7974 7965 7964 7962 ] final  -74.55 input  175.53 | X-H torsion
[ 8008 7997 7996 7995 ] final  165.67 input   59.86 | X-H torsion
[ 10167 10162 10161 10158 ] final   -2.32 input  -65.29 | X-H torsion
[ 10718 10713 10712 10709 ] final -179.62 input   66.30 | X-H torsion
[ 10763 10752 10751 10750 ] final   -5.84 input  -60.55 | X-H torsion
[ 11005 11000 10999 10996 ] final   76.01 input  -57.11 | X-H torsion

> <Gold.Protein.ActiveResidues>
 VAL166  LYS551  ARG553  GLY616  TRP617  ASP618  TYR619  PRO620  LYS621  CYS622 
 ASP623  PHE694  ASN695  SER759  ASP760  ASP761  ALA762  ILE779  LEU786  VAL792 
 PHE793  MET794  SER795  GLU796  ALA797  LYS798  CYS799  TRP800  GLU811  SER814 

> <Gold.Protein.RotatedAtoms>
  152.4367  134.5673  159.9910 H   0  0  0  0  0  0  0  0  0  0  0  0  # atno 6907 bound_to 6896
  151.5782  133.3375  159.3011 H   0  0  0  0  0  0  0  0  0  0  0  0  # atno 6908 bound_to 6896
  150.8266  134.7534  159.6882 H   0  0  0  0  0  0  0  0  0  0  0  0  # atno 6909 bound_to 6896
  145.6377  140.9320  143.1053 H   0  0  0  0  0  0  0  0  0  0  0  0  # atno 7974 bound_to 7965
  156.1781  140.1664  156.8325 H   0  0  0  0  0  0  0  0  0  0  0  0  # atno 8008 bound_to 7997
  154.5330  140.0753  156.8411 H   0  0  0  0  0  0  0  0  0  0  0  0  # atno 8009 bound_to 7997
  155.3369  140.3382  155.4241 H   0  0  0  0  0  0  0  0  0  0  0  0  # atno 8010 bound_to 7997
  140.6846  143.6671  150.8217 H   0  0  0  0  0  0  0  0  0  0  0  0  # atno 10167 bound_to 10162
  156.8618  130.9754  151.3082 H   0  0  0  0  0  0  0  0  0  0  0  0  # atno 10718 bound_to 10713
  153.4041  135.7006  153.6405 H   0  0  0  0  0  0  0  0  0  0  0  0  # atno 10763 bound_to 10752
  153.4926  135.3669  155.2500 H   0  0  0  0  0  0  0  0  0  0  0  0  # atno 10764 bound_to 10752
  154.8712  135.4092  154.3382 H   0  0  0  0  0  0  0  0  0  0  0  0  # atno 10765 bound_to 10752
  139.9317  134.7565  156.1342 H   0  0  0  0  0  0  0  0  0  0  0  0  # atno 11005 bound_to 11000
  144.7169  139.8164  143.7395 LP  0  0  0  0  0  0  0  0  0  0  0  0  # atno 17320 bound_to 7965
  146.1306  139.4341  143.0171 LP  0  0  0  0  0  0  0  0  0  0  0  0  # atno 17321 bound_to 7965
  140.0376  143.5379  152.2732 LP  0  0  0  0  0  0  0  0  0  0  0  0  # atno 17342 bound_to 10162
  139.6194  144.7626  151.2773 LP  0  0  0  0  0  0  0  0  0  0  0  0  # atno 17343 bound_to 10162
  157.6246  130.8681  149.9167 LP  0  0  0  0  0  0  0  0  0  0  0  0  # atno 17370 bound_to 10713
  156.0773  130.3677  150.0652 LP  0  0  0  0  0  0  0  0  0  0  0  0  # atno 17371 bound_to 10713
  141.0910  133.6714  156.2540 LP  0  0  0  0  0  0  0  0  0  0  0  0  # atno 17394 bound_to 11000
  140.6183  134.5388  157.5544 LP  0  0  0  0  0  0  0  0  0  0  0  0  # atno 17395 bound_to 11000

$$$$
