AV-unprocessed.smi:2472|AV-procd|sdf|9742|dock1
  -GOLD-   2272013383D 1   1.00000     0.00000
 Structure written by MMmdl.
 48 50  0  0  0  0  0  0  0  0  2 V2000
  150.0964  139.0067  154.5280 C   0  0  0  0  0  0  0  0  0  0  0  0
  148.9873  140.0183  154.2985 C   0  0  0  0  0  0  0  0  0  0  0  0
  149.1780  141.3616  154.6899 C   0  0  0  0  0  0  0  0  0  0  0  0
  148.1998  142.2709  154.4932 N   0  3  0  0  0  0  0  0  0  0  0  0
  147.0136  141.9572  153.9321 C   0  0  0  0  0  0  0  0  0  0  0  0
  146.7601  140.6341  153.5192 C   0  0  0  0  0  0  0  0  0  0  0  0
  147.7623  139.6454  153.6882 C   0  0  0  0  0  0  0  0  0  0  0  0
  147.5683  138.2870  153.3118 N   0  0  0  0  0  0  0  0  0  0  0  0
  146.4108  137.6086  153.2390 C   0  0  0  0  0  0  0  0  0  0  0  0
  145.3028  138.0716  153.5088 O   0  0  0  0  0  0  0  0  0  0  0  0
  146.6085  136.3548  152.7939 N   0  0  0  0  0  0  0  0  0  0  0  0
  145.5938  135.3144  152.5411 C   0  0  0  0  0  0  0  0  0  0  0  0
  144.4467  135.3151  153.5926 C   0  0  0  0  0  0  0  0  0  0  0  0
  144.6907  135.0476  154.7699 O   0  0  0  0  0  0  0  0  0  0  0  0
  143.2022  135.5954  153.1719 N   0  0  0  0  0  0  0  0  0  0  0  0
  142.0231  135.6510  154.0217 C   0  0  0  0  0  0  0  0  0  0  0  0
  141.0649  136.7659  153.6586 C   0  0  0  0  0  0  0  0  0  0  0  0
  140.1166  137.3310  154.6899 C   0  0  0  0  0  0  0  0  0  0  0  0
  139.5807  136.5098  153.5415 C   0  0  0  0  0  0  0  0  0  0  0  0
  144.9818  135.5661  151.1418 C   0  0  0  0  0  0  0  0  0  0  0  0
  144.7192  134.1906  150.5326 C   0  0  0  0  0  0  0  0  0  0  0  0
  145.8868  133.3450  151.0229 C   0  0  0  0  0  0  0  0  0  0  0  0
  146.2521  133.9050  152.4037 C   0  0  0  0  0  0  0  0  0  0  0  0
  150.9770  139.4771  154.9663 H   0  0  0  0  0  0  0  0  0  0  0  0
  150.3952  138.5472  153.5853 H   0  0  0  0  0  0  0  0  0  0  0  0
  149.7608  138.2212  155.2058 H   0  0  0  0  0  0  0  0  0  0  0  0
  150.0787  141.7363  155.1543 H   0  0  0  0  0  0  0  0  0  0  0  0
  146.3049  142.7666  153.8361 H   0  0  0  0  0  0  0  0  0  0  0  0
  145.7979  140.3971  153.0909 H   0  0  0  0  0  0  0  0  0  0  0  0
  148.3873  137.8097  152.9647 H   0  0  0  0  0  0  0  0  0  0  0  0
  147.5608  136.0838  152.5977 H   0  0  0  0  0  0  0  0  0  0  0  0
  143.0695  135.7999  152.1927 H   0  0  0  0  0  0  0  0  0  0  0  0
  141.5020  134.6935  153.9760 H   0  0  0  0  0  0  0  0  0  0  0  0
  142.3336  135.7944  155.0579 H   0  0  0  0  0  0  0  0  0  0  0  0
  141.4835  137.4917  152.9634 H   0  0  0  0  0  0  0  0  0  0  0  0
  140.1102  136.8756  155.6783 H   0  0  0  0  0  0  0  0  0  0  0  0
  139.9330  138.4033  154.6695 H   0  0  0  0  0  0  0  0  0  0  0  0
  139.0419  137.0343  152.7548 H   0  0  0  0  0  0  0  0  0  0  0  0
  139.2185  135.5087  153.7668 H   0  0  0  0  0  0  0  0  0  0  0  0
  144.0750  136.1731  151.1669 H   0  0  0  0  0  0  0  0  0  0  0  0
  145.6919  136.0973  150.5057 H   0  0  0  0  0  0  0  0  0  0  0  0
  143.7810  133.7864  150.9146 H   0  0  0  0  0  0  0  0  0  0  0  0
  144.6505  134.2188  149.4448 H   0  0  0  0  0  0  0  0  0  0  0  0
  145.6453  132.2822  151.0545 H   0  0  0  0  0  0  0  0  0  0  0  0
  146.7325  133.4694  150.3453 H   0  0  0  0  0  0  0  0  0  0  0  0
  147.3382  133.9347  152.4967 H   0  0  0  0  0  0  0  0  0  0  0  0
  145.9115  133.2195  153.1811 H   0  0  0  0  0  0  0  0  0  0  0  0
  148.3622  143.2348  154.7858 H   0  0  0  0  0  0  0  0  0  0  0  0
  1  2  1  0  0  0  0
  1 24  1  0  0  0  0
  1 25  1  0  0  0  0
  1 26  1  0  0  0  0
  2  7  1  0  0  0  0
  2  3  2  0  0  0  0
  3  4  1  0  0  0  0
  3 27  1  0  0  0  0
  4  5  2  0  0  0  0
  4 48  1  0  0  0  0
  5  6  1  0  0  0  0
  5 28  1  0  0  0  0
  6  7  2  0  0  0  0
  6 29  1  0  0  0  0
  7  8  1  0  0  0  0
  8  9  1  0  0  0  0
  8 30  1  0  0  0  0
  9 10  2  0  0  0  0
  9 11  1  0  0  0  0
 11 12  1  0  0  0  0
 11 31  1  0  0  0  0
 12 23  1  0  0  0  0
 12 13  1  0  0  0  0
 12 20  1  0  0  0  0
 13 14  2  0  0  0  0
 13 15  1  0  0  0  0
 15 16  1  0  0  0  0
 15 32  1  0  0  0  0
 16 17  1  0  0  0  0
 16 33  1  0  0  0  0
 16 34  1  0  0  0  0
 17 19  1  0  0  0  0
 17 18  1  0  0  0  0
 17 35  1  0  0  0  0
 18 19  1  0  0  0  0
 18 36  1  0  0  0  0
 18 37  1  0  0  0  0
 19 38  1  0  0  0  0
 19 39  1  0  0  0  0
 20 21  1  0  0  0  0
 20 40  1  0  0  0  0
 20 41  1  0  0  0  0
 21 22  1  0  0  0  0
 21 42  1  0  0  0  0
 21 43  1  0  0  0  0
 22 23  1  0  0  0  0
 22 44  1  0  0  0  0
 22 45  1  0  0  0  0
 23 46  1  0  0  0  0
 23 47  1  0  0  0  0
M  CHG  1   4   1
M  END
> <s_m_source_file>
AV-unprocessed.smi

> <i_m_source_file_index>
2472

> <i_lp_mmshare_version>
43012

> <i_f3d_flags>
0

> <s_epik_input>
W0NIM11jMVtjSF1uW2NIXVtjSF1jMVtOSF1DKD1PKVtOSF1DMihbQ0gyXVtDSDJdW0NIMl1bQ0gyXTIpQyg9TylbTkhdW0NIMl1bQ0hdM1tDSDJdW0NIMl0z

> <s_epik_cmdline>
J2VwaWtfcHl0aG9uJywgJy1waCcsICc3LjAnLCAnLXRuJywgJzgnLCAnLW1hJywgJzIwMCcsICctbWV0YWxfYmluZGluZycsICctaW1hZScsICc8aW5maWxlLm1hZT4nLCAnLW9tYWUnLCAnPG91dGZpbGUubWFlPic=

> <r_epik_Ionization_Penalty>
0.772167

> <r_epik_Ionization_Penalty_Charging>
0.772149

> <r_epik_Ionization_Penalty_Neutral>
1.87678e-05

> <r_epik_State_Penalty>
0.800952

> <r_epik_Charging_Adjusted_Penalty>
1.5731

> <i_epik_Tot_Q>
1

> <i_epik_Tot_abs_Q>
1

> <r_epik_Metal_State_Penalty>
0.9454

> <b_epik_Metal_Only>
0

> <s_lp_Force_Field>
OPLS_2005

> <r_lp_Energy>
39.076

> <b_lp_Chiralities_Consistent>
1

> <s_lp_Variant>
AV-unprocessed.smi:2472-2

> <Gold.Version>
5.8.1

> <Gold.Id.Protein>
6NUR|6NUR_protein|mol2

> <Gold.PLP.Fitness>
47.3178

> <Gold.PLP.PLP>
-39.1923

> <Gold.PLP.part.hbond>
-2.9266

> <Gold.PLP.part.metal>
0.0000

> <Gold.PLP.part.buried>
-5.3003

> <Gold.PLP.part.nonpolar>
-32.4849

> <Gold.PLP.part.repulsive>
0.8506

> <Gold.PLP.ligand.clash>
1.8065

> <Gold.PLP.ligand.torsion>
1.2318

> <Gold.PLP.Chemscore.Hbond>
3.8960

> <Gold.PLP.Chemscore.CHOScore>
0.0000

> <Gold.PLP.Chemscore.Metal>
0.0000

> <Gold.Chemscore.Hbonds>
donor molecule, donor type, donor heavy atom, donor atom, acceptor molecule, acceptor atom, score
      L1  H     4    48       P1  8028  2.00
      L1  H     8    30       P1  7948  0.86
      L1  H    11    31       P1  7948  1.00

> <Gold.PLP.Chemscore.Internal.Correction>
0.7076

> <Gold.Rescore>
     Score         DG    S(hbond)    S(metal)    S(lipo)     H(rot)  DE(clash)    DE(int)     intcor
     18.31     -21.54       2.90        0.00      90.06       1.63       0.05       3.19       ----

> <Gold.Chemscore.Fitness>
18.3056

> <Gold.Chemscore.DG>
-21.5438

> <Gold.Chemscore.ZeroCoef>
-5.4800

> <Gold.Chemscore.Hbond>
2.9031

> <Gold.Chemscore.Metal>
0.0000

> <Gold.Chemscore.Lipo>
90.0571

> <Gold.Chemscore.Internal_Hbond>
0.0000

> <Gold.Chemscore.DEClash>
0.0503

> <Gold.Chemscore.DEInternal>
3.1880

> <Gold.Chemscore.Rot>
1.6286

> <Gold.Chemscore.Internal.Correction>
   9.000000E+99

> <Gold.Chemscore.Hbonds>
donor molecule, donor type, donor heavy atom, donor atom, acceptor molecule, acceptor atom, score
      L1  H     4    48       P1  8028  1.00
      L1  H     8    30       P1  7948  0.82
      L1  H    11    31       P1  7948  0.95

> <Gold.Chemscore.Hbond.Weighted>
-9.6964

> <Gold.Chemscore.Metal.Weighted>
-0.0000

> <Gold.Chemscore.Lipo.Weighted>
-10.5367

> <Gold.Chemscore.Internal_Hbond.Weighted>
0.0000

> <Gold.Chemscore.DEClash.Weighted>
0.0503

> <Gold.Chemscore.DEInternal.Weighted>
3.1880

> <Gold.Chemscore.Rot.Weighted>
4.1692

> <Gold.Chemscore.Internal.Correction.Weighted>
   9.000000E+99

> <Gold.Protein.RotatedTorsions>
[ 6907 6896 6895 6894 ] final  -56.94 input  -60.11 | X-H torsion
[ 7974 7965 7964 7962 ] final   17.54 input  175.53 | X-H torsion
[ 8008 7997 7996 7995 ] final   67.85 input   59.86 | X-H torsion
[ 10167 10162 10161 10158 ] final   35.62 input  -65.29 | X-H torsion
[ 10718 10713 10712 10709 ] final   14.03 input   66.30 | X-H torsion
[ 10763 10752 10751 10750 ] final -177.43 input  -60.55 | X-H torsion
[ 11005 11000 10999 10996 ] final   80.24 input  -57.11 | X-H torsion

> <Gold.Protein.ActiveResidues>
 VAL166  LYS551  ARG553  GLY616  TRP617  ASP618  TYR619  PRO620  LYS621  CYS622 
 ASP623  PHE694  ASN695  SER759  ASP760  ASP761  ALA762  ILE779  LEU786  VAL792 
 PHE793  MET794  SER795  GLU796  ALA797  LYS798  CYS799  TRP800  GLU811  SER814 

> <Gold.Protein.RotatedAtoms>
  150.8126  134.7289  159.6701 H   0  0  0  0  0  0  0  0  0  0  0  0  # atno 6907 bound_to 6896
  152.4246  134.5890  159.9978 H   0  0  0  0  0  0  0  0  0  0  0  0  # atno 6908 bound_to 6896
  151.6095  133.3311  159.3100 H   0  0  0  0  0  0  0  0  0  0  0  0  # atno 6909 bound_to 6896
  146.2215  139.8588  142.8608 H   0  0  0  0  0  0  0  0  0  0  0  0  # atno 7974 bound_to 7965
  155.6993  140.3495  155.4926 H   0  0  0  0  0  0  0  0  0  0  0  0  # atno 8008 bound_to 7997
  155.9455  140.1109  157.1043 H   0  0  0  0  0  0  0  0  0  0  0  0  # atno 8009 bound_to 7997
  154.4111  140.1204  156.4969 H   0  0  0  0  0  0  0  0  0  0  0  0  # atno 8010 bound_to 7997
  140.4204  144.1467  150.6147 H   0  0  0  0  0  0  0  0  0  0  0  0  # atno 10167 bound_to 10162
  157.0333  130.6201  149.5739 H   0  0  0  0  0  0  0  0  0  0  0  0  # atno 10718 bound_to 10713
  154.5602  135.2819  155.0926 H   0  0  0  0  0  0  0  0  0  0  0  0  # atno 10763 bound_to 10752
  154.2338  135.6369  153.5188 H   0  0  0  0  0  0  0  0  0  0  0  0  # atno 10764 bound_to 10752
  153.0027  135.5543  154.6194 H   0  0  0  0  0  0  0  0  0  0  0  0  # atno 10765 bound_to 10752
  139.9142  134.7905  156.1884 H   0  0  0  0  0  0  0  0  0  0  0  0  # atno 11005 bound_to 11000
  145.2726  141.0113  143.3763 LP  0  0  0  0  0  0  0  0  0  0  0  0  # atno 17320 bound_to 7965
  144.9212  139.4410  143.6540 LP  0  0  0  0  0  0  0  0  0  0  0  0  # atno 17321 bound_to 7965
  140.4540  143.2475  151.9310 LP  0  0  0  0  0  0  0  0  0  0  0  0  # atno 17342 bound_to 10162
  139.4782  144.5534  151.8350 LP  0  0  0  0  0  0  0  0  0  0  0  0  # atno 17343 bound_to 10162
  156.0062  130.5149  150.7838 LP  0  0  0  0  0  0  0  0  0  0  0  0  # atno 17370 bound_to 10713
  157.5161  131.0928  151.0138 LP  0  0  0  0  0  0  0  0  0  0  0  0  # atno 17371 bound_to 10713
  141.0599  133.6847  156.1932 LP  0  0  0  0  0  0  0  0  0  0  0  0  # atno 17394 bound_to 11000
  140.6677  134.4900  157.5586 LP  0  0  0  0  0  0  0  0  0  0  0  0  # atno 17395 bound_to 11000

$$$$
