AV-unprocessed.smi:276|AV-procd|sdf|2077|dock7
  -GOLD-   2262021343D 1   1.00000     0.00000
 Structure written by MMmdl.
 57 61  0  0  0  0  0  0  0  0  1 V2000
  146.2108  134.7441  160.4962 C   0  0  0  0  0  0  0  0  0  0  0  0
  145.9755  135.6004  159.3926 O   0  0  0  0  0  0  0  0  0  0  0  0
  147.1377  135.8048  158.6050 C   0  0  1  0  0  0  0  0  0  0  0  0
  147.3133  134.8011  157.4589 C   0  0  0  0  0  0  0  0  0  0  0  0
  147.7644  135.9701  156.5609 C   0  0  2  0  0  0  0  0  0  0  0  0
  149.2263  136.1247  156.5703 N   0  0  0  0  0  0  0  0  0  0  0  0
  149.9978  134.9659  156.1306 C   0  0  0  0  0  0  0  0  0  0  0  0
  149.7113  137.2462  155.9923 C   0  0  0  0  0  0  0  0  0  0  0  0
  149.5898  137.3436  154.6449 N   0  0  0  0  0  0  0  0  0  0  0  0
  150.0558  138.4216  154.0072 C   0  0  0  0  0  0  0  0  0  0  0  0
  150.6609  139.4965  154.5167 N   0  0  0  0  0  0  0  0  0  0  0  0
  150.7698  139.4083  155.8733 C   0  0  0  0  0  0  0  0  0  0  0  0
  150.3214  138.3302  156.6874 C   0  0  0  0  0  0  0  0  0  0  0  0
  150.6005  138.5999  158.0225 N   0  0  0  0  0  0  0  0  0  0  0  0
  151.1912  139.7631  157.9975 C   0  0  0  0  0  0  0  0  0  0  0  0
  151.3363  140.3189  156.7472 N   0  0  0  0  0  0  0  0  0  0  0  0
  151.9586  141.5930  156.4333 C   0  0  0  0  0  0  0  0  0  0  0  0
  151.2117  142.7819  157.0683 C   0  0  1  0  0  0  0  0  0  0  0  0
  149.8331  142.6843  156.7644 O   0  0  0  0  0  0  0  0  0  0  0  0
  151.3808  142.8248  158.5979 C   0  0  2  0  0  0  0  0  0  0  0  0
  151.4680  144.2331  159.1888 C   0  0  0  0  0  0  0  0  0  0  0  0
  152.2361  144.0305  160.4852 C   0  0  0  0  0  0  0  0  0  0  0  0
  152.8710  142.6459  160.3297 C   0  0  0  0  0  0  0  0  0  0  0  0
  152.6334  142.2767  158.9786 O   0  0  0  0  0  0  0  0  0  0  0  0
  146.9822  136.8971  157.5315 C   0  0  0  0  0  0  0  0  0  0  0  0
  145.5776  137.3891  157.1361 C   0  0  0  0  0  0  0  0  0  0  0  0
  145.8169  138.6154  158.0212 C   0  0  0  0  0  0  0  0  0  0  0  0
  147.3169  138.3687  157.8426 C   0  0  0  0  0  0  0  0  0  0  0  0
  145.2904  134.6215  161.0667 H   0  0  0  0  0  0  0  0  0  0  0  0
  146.9672  135.1609  161.1624 H   0  0  0  0  0  0  0  0  0  0  0  0
  146.5381  133.7561  160.1700 H   0  0  0  0  0  0  0  0  0  0  0  0
  148.0472  135.9418  159.1938 H   0  0  0  0  0  0  0  0  0  0  0  0
  148.0489  134.0221  157.6569 H   0  0  0  0  0  0  0  0  0  0  0  0
  146.3657  134.3697  157.1320 H   0  0  0  0  0  0  0  0  0  0  0  0
  147.3287  135.9107  155.5636 H   0  0  0  0  0  0  0  0  0  0  0  0
  151.0206  135.2282  155.8537 H   0  0  0  0  0  0  0  0  0  0  0  0
  149.5256  134.4956  155.2672 H   0  0  0  0  0  0  0  0  0  0  0  0
  150.0611  134.2273  156.9291 H   0  0  0  0  0  0  0  0  0  0  0  0
  149.9263  138.4218  152.9351 H   0  0  0  0  0  0  0  0  0  0  0  0
  151.5422  140.2500  158.8958 H   0  0  0  0  0  0  0  0  0  0  0  0
  152.9975  141.5701  156.7649 H   0  0  0  0  0  0  0  0  0  0  0  0
  151.9822  141.6978  155.3480 H   0  0  0  0  0  0  0  0  0  0  0  0
  151.5853  143.7122  156.6380 H   0  0  0  0  0  0  0  0  0  0  0  0
  149.5233  143.5368  156.4985 H   0  0  0  0  0  0  0  0  0  0  0  0
  150.5840  142.2621  159.0888 H   0  0  0  0  0  0  0  0  0  0  0  0
  152.0387  144.8855  158.5262 H   0  0  0  0  0  0  0  0  0  0  0  0
  150.4882  144.6862  159.3426 H   0  0  0  0  0  0  0  0  0  0  0  0
  152.9877  144.8092  160.6195 H   0  0  0  0  0  0  0  0  0  0  0  0
  151.5714  144.0518  161.3495 H   0  0  0  0  0  0  0  0  0  0  0  0
  153.9383  142.6467  160.5526 H   0  0  0  0  0  0  0  0  0  0  0  0
  152.3859  141.9256  160.9901 H   0  0  0  0  0  0  0  0  0  0  0  0
  145.5064  137.6459  156.0778 H   0  0  0  0  0  0  0  0  0  0  0  0
  144.7488  136.7524  157.4467 H   0  0  0  0  0  0  0  0  0  0  0  0
  145.4546  139.5567  157.6072 H   0  0  0  0  0  0  0  0  0  0  0  0
  145.4828  138.4673  159.0496 H   0  0  0  0  0  0  0  0  0  0  0  0
  147.9167  138.5256  158.7394 H   0  0  0  0  0  0  0  0  0  0  0  0
  147.7082  138.9277  156.9932 H   0  0  0  0  0  0  0  0  0  0  0  0
  1  2  1  0  0  0  0
  1 29  1  0  0  0  0
  1 30  1  0  0  0  0
  1 31  1  0  0  0  0
  2  3  1  0  0  0  0
  3 25  1  0  0  0  0
  3  4  1  0  0  0  0
  3 32  1  0  0  0  0
  4  5  1  0  0  0  0
  4 33  1  0  0  0  0
  4 34  1  0  0  0  0
  5  6  1  0  0  0  0
  5 25  1  0  0  0  0
  5 35  1  0  0  0  0
  6  7  1  0  0  0  0
  6  8  1  0  0  0  0
  7 36  1  0  0  0  0
  7 37  1  0  0  0  0
  7 38  1  0  0  0  0
  8 13  1  0  0  0  0
  8  9  2  0  0  0  0
  9 10  1  0  0  0  0
 10 11  2  0  0  0  0
 10 39  1  0  0  0  0
 11 12  1  0  0  0  0
 12 16  1  0  0  0  0
 12 13  2  0  0  0  0
 13 14  1  0  0  0  0
 14 15  2  0  0  0  0
 15 16  1  0  0  0  0
 15 40  1  0  0  0  0
 16 17  1  0  0  0  0
 17 18  1  0  0  0  0
 17 41  1  0  0  0  0
 17 42  1  0  0  0  0
 18 19  1  0  0  0  0
 18 20  1  0  0  0  0
 18 43  1  0  0  0  0
 19 44  1  0  0  0  0
 20 24  1  0  0  0  0
 20 21  1  0  0  0  0
 20 45  1  0  0  0  0
 21 22  1  0  0  0  0
 21 46  1  0  0  0  0
 21 47  1  0  0  0  0
 22 23  1  0  0  0  0
 22 48  1  0  0  0  0
 22 49  1  0  0  0  0
 23 24  1  0  0  0  0
 23 50  1  0  0  0  0
 23 51  1  0  0  0  0
 25 28  1  0  0  0  0
 25 26  1  0  0  0  0
 26 27  1  0  0  0  0
 26 52  1  0  0  0  0
 26 53  1  0  0  0  0
 27 28  1  0  0  0  0
 27 54  1  0  0  0  0
 27 55  1  0  0  0  0
 28 56  1  0  0  0  0
 28 57  1  0  0  0  0
M  END
> <s_m_source_file>
AV-unprocessed.smi

> <i_m_source_file_index>
276

> <i_lp_mmshare_version>
43012

> <i_f3d_flags>
0

> <s_epik_input>
W0NIMl0xW0NIMl1bQ0gyXUMxMltDQEhdKE9bQ0gzXSlbQ0gyXVtDQEhdMk4oW0NIM10pYyhuW2NIXW4zKWMoYzM0KW5bY0hdbjRbQ0gyXVtDQEhdKFtPSF0pW0NAQEhdNVtDSDJdW0NIMl1bQ0gyXU81

> <s_epik_cmdline>
J2VwaWtfcHl0aG9uJywgJy1waCcsICc3LjAnLCAnLXRuJywgJzgnLCAnLW1hJywgJzIwMCcsICctbWV0YWxfYmluZGluZycsICctaW1hZScsICc8aW5maWxlLm1hZT4nLCAnLW9tYWUnLCAnPG91dGZpbGUubWFlPic=

> <r_lp_tautomer_probability>
1

> <r_epik_Ionization_Penalty>
0.00204117

> <r_epik_Ionization_Penalty_Charging>
0

> <r_epik_Ionization_Penalty_Neutral>
0.00204117

> <r_epik_State_Penalty>
0.00127401

> <r_epik_Charging_Adjusted_Penalty>
0.00127401

> <i_epik_Tot_Q>
0

> <i_epik_Tot_abs_Q>
0

> <r_epik_Metal_State_Penalty>
-0

> <b_epik_Metal_Only>
0

> <s_lp_Force_Field>
OPLS_2005

> <r_lp_Energy>
57.0409

> <b_lp_Chiralities_Consistent>
1

> <s_lp_Variant>
AV-unprocessed.smi:276-8

> <Gold.Version>
5.8.1

> <Gold.Id.Protein>
6NUR|6NUR_protein|mol2

> <Gold.PLP.Fitness>
40.7063

> <Gold.PLP.PLP>
-31.7097

> <Gold.PLP.part.hbond>
-2.0000

> <Gold.PLP.part.metal>
0.0000

> <Gold.PLP.part.buried>
-7.2138

> <Gold.PLP.part.nonpolar>
-23.3885

> <Gold.PLP.part.repulsive>
0.2980

> <Gold.PLP.ligand.clash>
0.0000

> <Gold.PLP.ligand.torsion>
1.4164

> <Gold.PLP.Chemscore.Hbond>
2.0000

> <Gold.PLP.Chemscore.CHOScore>
1.7117

> <Gold.PLP.Chemscore.Metal>
0.0000

> <Gold.Chemscore.Hbonds>
donor molecule, donor type, donor heavy atom, donor atom, acceptor molecule, acceptor atom, score
      L1  H    19    44       P1  8028  1.00
      P1  H  7989  7998       L1    11  1.00
      L1  C    10    39       P1  7948  0.67
      L1  C    10    39       P1  7957  1.00

> <Gold.PLP.Chemscore.Internal.Correction>
0.6941

> <Gold.Rescore>
     Score         DG    S(hbond)    S(metal)    S(lipo)     H(rot)  DE(clash)    DE(int)     intcor
     12.42     -15.96       1.98        0.00      92.61       2.72       1.88       1.66       ----

> <Gold.Chemscore.Fitness>
12.4245

> <Gold.Chemscore.DG>
-15.9605

> <Gold.Chemscore.ZeroCoef>
-5.4800

> <Gold.Chemscore.Hbond>
1.9764

> <Gold.Chemscore.Metal>
0.0000

> <Gold.Chemscore.Lipo>
92.6090

> <Gold.Chemscore.Internal_Hbond>
0.0000

> <Gold.Chemscore.DEClash>
1.8793

> <Gold.Chemscore.DEInternal>
1.6566

> <Gold.Chemscore.Rot>
2.7172

> <Gold.Chemscore.Internal.Correction>
   9.000000E+99

> <Gold.Chemscore.Hbonds>
donor molecule, donor type, donor heavy atom, donor atom, acceptor molecule, acceptor atom, score
      L1  H    19    44       P1  8028  0.98
      P1  H  7989  7998       L1    11  0.97

> <Gold.Chemscore.Hbond.Weighted>
-6.6012

> <Gold.Chemscore.Metal.Weighted>
-0.0000

> <Gold.Chemscore.Lipo.Weighted>
-10.8352

> <Gold.Chemscore.Internal_Hbond.Weighted>
0.0000

> <Gold.Chemscore.DEClash.Weighted>
1.8793

> <Gold.Chemscore.DEInternal.Weighted>
1.6566

> <Gold.Chemscore.Rot.Weighted>
6.9560

> <Gold.Chemscore.Internal.Correction.Weighted>
   9.000000E+99

> <Gold.Protein.RotatedTorsions>
[ 6907 6896 6895 6894 ] final -139.76 input  -60.11 | X-H torsion
[ 7974 7965 7964 7962 ] final  -88.17 input  175.53 | X-H torsion
[ 8008 7997 7996 7995 ] final -146.77 input   59.86 | X-H torsion
[ 10167 10162 10161 10158 ] final  148.12 input  -65.29 | X-H torsion
[ 10718 10713 10712 10709 ] final  153.77 input   66.30 | X-H torsion
[ 10763 10752 10751 10750 ] final  113.55 input  -60.55 | X-H torsion
[ 11005 11000 10999 10996 ] final    8.13 input  -57.11 | X-H torsion

> <Gold.Protein.ActiveResidues>
 VAL166  LYS551  ARG553  GLY616  TRP617  ASP618  TYR619  PRO620  LYS621  CYS622 
 ASP623  PHE694  ASN695  SER759  ASP760  ASP761  ALA762  ILE779  LEU786  VAL792 
 PHE793  MET794  SER795  GLU796  ALA797  LYS798  CYS799  TRP800  GLU811  SER814 

> <Gold.Protein.RotatedAtoms>
  151.0520  133.5616  159.2641 H   0  0  0  0  0  0  0  0  0  0  0  0  # atno 6907 bound_to 6896
  151.2624  135.0657  159.9113 H   0  0  0  0  0  0  0  0  0  0  0  0  # atno 6908 bound_to 6896
  152.5383  134.0263  159.8058 H   0  0  0  0  0  0  0  0  0  0  0  0  # atno 6909 bound_to 6896
  145.4568  140.9561  143.1992 H   0  0  0  0  0  0  0  0  0  0  0  0  # atno 7974 bound_to 7965
  155.5647  140.0628  157.2820 H   0  0  0  0  0  0  0  0  0  0  0  0  # atno 8008 bound_to 7997
  154.4379  140.1879  156.0864 H   0  0  0  0  0  0  0  0  0  0  0  0  # atno 8009 bound_to 7997
  156.0420  140.3294  155.7258 H   0  0  0  0  0  0  0  0  0  0  0  0  # atno 8010 bound_to 7997
  139.4879  144.5703  151.7067 H   0  0  0  0  0  0  0  0  0  0  0  0  # atno 10167 bound_to 10162
  157.2404  131.0758  151.1796 H   0  0  0  0  0  0  0  0  0  0  0  0  # atno 10718 bound_to 10713
  153.4941  135.3652  155.2507 H   0  0  0  0  0  0  0  0  0  0  0  0  # atno 10763 bound_to 10752
  154.8751  135.3984  154.3554 H   0  0  0  0  0  0  0  0  0  0  0  0  # atno 10764 bound_to 10752
  153.4179  135.7079  153.6380 H   0  0  0  0  0  0  0  0  0  0  0  0  # atno 10765 bound_to 10752
  140.5405  134.0379  155.7902 H   0  0  0  0  0  0  0  0  0  0  0  0  # atno 11005 bound_to 11000
  144.8027  139.6109  143.7064 LP  0  0  0  0  0  0  0  0  0  0  0  0  # atno 17320 bound_to 7965
  146.2473  139.6126  142.9451 LP  0  0  0  0  0  0  0  0  0  0  0  0  # atno 17321 bound_to 7965
  140.5289  144.0761  150.6047 LP  0  0  0  0  0  0  0  0  0  0  0  0  # atno 17342 bound_to 10162
  140.3745  143.2836  152.0241 LP  0  0  0  0  0  0  0  0  0  0  0  0  # atno 17343 bound_to 10162
  157.3385  130.7021  149.6367 LP  0  0  0  0  0  0  0  0  0  0  0  0  # atno 17370 bound_to 10713
  155.9670  130.4287  150.4799 LP  0  0  0  0  0  0  0  0  0  0  0  0  # atno 17371 bound_to 10713
  141.1230  133.9430  157.2692 LP  0  0  0  0  0  0  0  0  0  0  0  0  # atno 17394 bound_to 11000
  139.9507  135.0176  156.8984 LP  0  0  0  0  0  0  0  0  0  0  0  0  # atno 17395 bound_to 11000

$$$$
