AV-unprocessed.smi:1205|AV-procd|sdf|5045|dock1
  -GOLD-   22720 4 73D 1   1.00000     0.00000
 Structure written by MMmdl.
 49 50  0  0  0  0  0  0  0  0  2 V2000
  152.2480  144.4274  161.0426 C   0  0  0  0  0  0  0  0  0  0  0  0
  152.5427  143.1265  160.3556 C   0  0  0  0  0  0  0  0  0  0  0  0
  151.9203  142.5871  159.1924 C   0  0  0  0  0  0  0  0  0  0  0  0
  152.5791  141.4003  159.0214 C   0  0  0  0  0  0  0  0  0  0  0  0
  152.4077  140.4588  158.0556 N   0  0  0  0  0  0  0  0  0  0  0  0
  151.5424  139.4302  158.0296 C   0  0  0  0  0  0  0  0  0  0  0  0
  150.7277  139.1563  158.9112 O   0  0  0  0  0  0  0  0  0  0  0  0
  151.6776  138.7112  156.9062 N   0  0  0  0  0  0  0  0  0  0  0  0
  150.8927  137.5259  156.5756 C   0  0  0  0  0  0  0  0  0  0  0  0
  150.7325  137.3273  155.0462 C   0  0  2  0  0  0  0  0  0  0  0  0
  150.3160  138.6212  154.3207 C   0  0  0  0  0  0  0  0  0  0  0  0
  149.8139  136.2058  154.6921 N   0  3  2  0  0  0  0  0  0  0  0  0
  148.4213  136.3363  155.2010 C   0  0  0  0  0  0  0  0  0  0  0  0
  147.5139  135.2639  154.5784 C   0  0  0  0  0  0  0  0  0  0  0  0
  148.0649  133.8576  154.8487 C   0  0  0  0  0  0  0  0  0  0  0  0
  149.5176  133.7471  154.3536 C   0  0  2  0  0  0  0  0  0  0  0  0
  150.1018  132.3559  154.6351 C   0  0  0  0  0  0  0  0  0  0  0  0
  150.3816  134.8610  154.9794 C   0  0  0  0  0  0  0  0  0  0  0  0
  153.5199  141.2657  160.0184 N   0  0  0  0  0  0  0  0  0  0  0  0
  154.4628  140.1905  160.2581 C   0  0  0  0  0  0  0  0  0  0  0  0
  153.4933  142.3360  160.8415 N   0  0  0  0  0  0  0  0  0  0  0  0
  151.4375  144.9608  160.5456 H   0  0  0  0  0  0  0  0  0  0  0  0
  153.1226  145.0783  161.0420 H   0  0  0  0  0  0  0  0  0  0  0  0
  151.9517  144.2661  162.0792 H   0  0  0  0  0  0  0  0  0  0  0  0
  151.1286  143.0175  158.5979 H   0  0  0  0  0  0  0  0  0  0  0  0
  153.0244  140.5430  157.2610 H   0  0  0  0  0  0  0  0  0  0  0  0
  152.3692  139.0051  156.2316 H   0  0  0  0  0  0  0  0  0  0  0  0
  151.3528  136.6523  157.0393 H   0  0  0  0  0  0  0  0  0  0  0  0
  149.9189  137.6494  157.0488 H   0  0  0  0  0  0  0  0  0  0  0  0
  151.7093  137.0653  154.6371 H   0  0  0  0  0  0  0  0  0  0  0  0
  151.0758  139.3959  154.4264 H   0  0  0  0  0  0  0  0  0  0  0  0
  149.3835  139.0275  154.7117 H   0  0  0  0  0  0  0  0  0  0  0  0
  150.1834  138.4466  153.2526 H   0  0  0  0  0  0  0  0  0  0  0  0
  148.4075  136.2364  156.2870 H   0  0  0  0  0  0  0  0  0  0  0  0
  148.0191  137.3210  154.9659 H   0  0  0  0  0  0  0  0  0  0  0  0
  146.5041  135.3512  154.9803 H   0  0  0  0  0  0  0  0  0  0  0  0
  147.4349  135.4279  153.5029 H   0  0  0  0  0  0  0  0  0  0  0  0
  148.0190  133.6461  155.9180 H   0  0  0  0  0  0  0  0  0  0  0  0
  147.4385  133.1127  154.3565 H   0  0  0  0  0  0  0  0  0  0  0  0
  149.5171  133.8891  153.2718 H   0  0  0  0  0  0  0  0  0  0  0  0
  150.1262  132.1444  155.7047 H   0  0  0  0  0  0  0  0  0  0  0  0
  151.1209  132.2733  154.2562 H   0  0  0  0  0  0  0  0  0  0  0  0
  149.5085  131.5770  154.1551 H   0  0  0  0  0  0  0  0  0  0  0  0
  151.3937  134.7959  154.5775 H   0  0  0  0  0  0  0  0  0  0  0  0
  150.4593  134.7140  156.0575 H   0  0  0  0  0  0  0  0  0  0  0  0
  153.9526  139.2296  160.1888 H   0  0  0  0  0  0  0  0  0  0  0  0
  154.9037  140.2824  161.2518 H   0  0  0  0  0  0  0  0  0  0  0  0
  155.2572  140.2285  159.5125 H   0  0  0  0  0  0  0  0  0  0  0  0
  149.7400  136.2437  153.6855 H   0  0  0  0  0  0  0  0  0  0  0  0
  1  2  1  0  0  0  0
  1 22  1  0  0  0  0
  1 23  1  0  0  0  0
  1 24  1  0  0  0  0
  2 21  2  0  0  0  0
  2  3  1  0  0  0  0
  3  4  2  0  0  0  0
  3 25  1  0  0  0  0
  4  5  1  0  0  0  0
  4 19  1  0  0  0  0
  5  6  1  0  0  0  0
  5 26  1  0  0  0  0
  6  7  2  0  0  0  0
  6  8  1  0  0  0  0
  8  9  1  0  0  0  0
  8 27  1  0  0  0  0
  9 10  1  0  0  0  0
  9 28  1  0  0  0  0
  9 29  1  0  0  0  0
 10 11  1  0  0  0  0
 10 12  1  0  0  0  0
 10 30  1  0  0  0  0
 11 31  1  0  0  0  0
 11 32  1  0  0  0  0
 11 33  1  0  0  0  0
 12 18  1  0  0  0  0
 12 13  1  0  0  0  0
 12 49  1  0  0  0  0
 13 14  1  0  0  0  0
 13 34  1  0  0  0  0
 13 35  1  0  0  0  0
 14 15  1  0  0  0  0
 14 36  1  0  0  0  0
 14 37  1  0  0  0  0
 15 16  1  0  0  0  0
 15 38  1  0  0  0  0
 15 39  1  0  0  0  0
 16 17  1  0  0  0  0
 16 18  1  0  0  0  0
 16 40  1  0  0  0  0
 17 41  1  0  0  0  0
 17 42  1  0  0  0  0
 17 43  1  0  0  0  0
 18 44  1  0  0  0  0
 18 45  1  0  0  0  0
 19 20  1  0  0  0  0
 19 21  1  0  0  0  0
 20 46  1  0  0  0  0
 20 47  1  0  0  0  0
 20 48  1  0  0  0  0
M  CHG  1  12   1
M  END
> <s_m_source_file>
AV-unprocessed.smi

> <i_m_source_file_index>
1205

> <i_lp_mmshare_version>
43012

> <i_f3d_flags>
0

> <s_epik_input>
W0NIM11jMVtjSF1jKG4objEpW0NIM10pW05IXUMoPU8pW05IXVtDSDJdW0NASF0oW0NIM10pTjJbQ0gyXVtDSDJdW0NIMl1bQ0BASF0oW0NIM10pW0NIMl0y

> <s_epik_cmdline>
J2VwaWtfcHl0aG9uJywgJy1waCcsICc3LjAnLCAnLXRuJywgJzgnLCAnLW1hJywgJzIwMCcsICctbWV0YWxfYmluZGluZycsICctaW1hZScsICc8aW5maWxlLm1hZT4nLCAnLW9tYWUnLCAnPG91dGZpbGUubWFlPic=

> <r_lp_tautomer_probability>
1

> <r_epik_Ionization_Penalty>
0.0020309

> <r_epik_Ionization_Penalty_Charging>
0.00195276

> <r_epik_Ionization_Penalty_Neutral>
7.81448e-05

> <r_epik_State_Penalty>
0.00133177

> <r_epik_Charging_Adjusted_Penalty>
0.00328452

> <i_epik_Tot_Q>
1

> <i_epik_Tot_abs_Q>
1

> <r_epik_Metal_State_Penalty>
-0

> <b_epik_Metal_Only>
0

> <s_lp_Force_Field>
OPLS_2005

> <r_lp_Energy>
21.6269

> <b_lp_Chiralities_Consistent>
1

> <s_lp_Variant>
AV-unprocessed.smi:1205-7

> <Gold.Version>
5.8.1

> <Gold.Id.Protein>
6NUR|6NUR_protein|mol2

> <Gold.PLP.Fitness>
39.7063

> <Gold.PLP.PLP>
-35.7841

> <Gold.PLP.part.hbond>
-1.1644

> <Gold.PLP.part.metal>
0.0000

> <Gold.PLP.part.buried>
-5.5203

> <Gold.PLP.part.nonpolar>
-28.2649

> <Gold.PLP.part.repulsive>
0.1874

> <Gold.PLP.ligand.clash>
0.0000

> <Gold.PLP.ligand.torsion>
1.1140

> <Gold.PLP.Chemscore.Hbond>
2.0000

> <Gold.PLP.Chemscore.CHOScore>
0.0000

> <Gold.PLP.Chemscore.Metal>
0.0000

> <Gold.Chemscore.Hbonds>
donor molecule, donor type, donor heavy atom, donor atom, acceptor molecule, acceptor atom, score
      L1  H    12    49       P1  7948  2.00

> <Gold.PLP.Chemscore.Internal.Correction>
0.1503

> <Gold.Rescore>
     Score         DG    S(hbond)    S(metal)    S(lipo)     H(rot)  DE(clash)    DE(int)     intcor
     13.30     -14.49       0.98        0.00      81.03       1.47       0.01       1.18       ----

> <Gold.Chemscore.Fitness>
13.2956

> <Gold.Chemscore.DG>
-14.4866

> <Gold.Chemscore.ZeroCoef>
-5.4800

> <Gold.Chemscore.Hbond>
0.9815

> <Gold.Chemscore.Metal>
0.0000

> <Gold.Chemscore.Lipo>
81.0333

> <Gold.Chemscore.Internal_Hbond>
0.0000

> <Gold.Chemscore.DEClash>
0.0103

> <Gold.Chemscore.DEInternal>
1.1806

> <Gold.Chemscore.Rot>
1.4658

> <Gold.Chemscore.Internal.Correction>
   9.000000E+99

> <Gold.Chemscore.Hbonds>
donor molecule, donor type, donor heavy atom, donor atom, acceptor molecule, acceptor atom, score
      L1  H    12    49       P1  7948  0.34

> <Gold.Chemscore.Hbond.Weighted>
-3.2782

> <Gold.Chemscore.Metal.Weighted>
-0.0000

> <Gold.Chemscore.Lipo.Weighted>
-9.4809

> <Gold.Chemscore.Internal_Hbond.Weighted>
0.0000

> <Gold.Chemscore.DEClash.Weighted>
0.0103

> <Gold.Chemscore.DEInternal.Weighted>
1.1806

> <Gold.Chemscore.Rot.Weighted>
3.7526

> <Gold.Chemscore.Internal.Correction.Weighted>
   9.000000E+99

> <Gold.Protein.RotatedTorsions>
[ 6907 6896 6895 6894 ] final  -42.97 input  -60.11 | X-H torsion
[ 7974 7965 7964 7962 ] final -103.38 input  175.53 | X-H torsion
[ 8008 7997 7996 7995 ] final  166.95 input   59.86 | X-H torsion
[ 10167 10162 10161 10158 ] final  137.11 input  -65.29 | X-H torsion
[ 10718 10713 10712 10709 ] final  -56.22 input   66.30 | X-H torsion
[ 10763 10752 10751 10750 ] final   62.29 input  -60.55 | X-H torsion
[ 11005 11000 10999 10996 ] final  165.12 input  -57.11 | X-H torsion

> <Gold.Protein.ActiveResidues>
 VAL166  LYS551  ARG553  GLY616  TRP617  ASP618  TYR619  PRO620  LYS621  CYS622 
 ASP623  PHE694  ASN695  SER759  ASP760  ASP761  ALA762  ILE779  LEU786  VAL792 
 PHE793  MET794  SER795  GLU796  ALA797  LYS798  CYS799  TRP800  GLU811  SER814 

> <Gold.Protein.RotatedAtoms>
  150.9492  134.8894  159.7660 H   0  0  0  0  0  0  0  0  0  0  0  0  # atno 6907 bound_to 6896
  152.5112  134.3831  159.9368 H   0  0  0  0  0  0  0  0  0  0  0  0  # atno 6908 bound_to 6896
  151.3847  133.3769  159.2749 H   0  0  0  0  0  0  0  0  0  0  0  0  # atno 6909 bound_to 6896
  145.2566  140.9255  143.3064 H   0  0  0  0  0  0  0  0  0  0  0  0  # atno 7974 bound_to 7965
  156.1675  140.1630  156.8505 H   0  0  0  0  0  0  0  0  0  0  0  0  # atno 8008 bound_to 7997
  154.5223  140.0775  156.8229 H   0  0  0  0  0  0  0  0  0  0  0  0  # atno 8009 bound_to 7997
  155.3581  140.3393  155.4242 H   0  0  0  0  0  0  0  0  0  0  0  0  # atno 8010 bound_to 7997
  139.5156  144.6428  151.5523 H   0  0  0  0  0  0  0  0  0  0  0  0  # atno 10167 bound_to 10162
  156.1305  130.4160  150.0276 H   0  0  0  0  0  0  0  0  0  0  0  0  # atno 10718 bound_to 10713
  152.9978  135.5470  154.6169 H   0  0  0  0  0  0  0  0  0  0  0  0  # atno 10763 bound_to 10752
  154.5477  135.2824  155.1039 H   0  0  0  0  0  0  0  0  0  0  0  0  # atno 10764 bound_to 10752
  154.2291  135.6437  153.5222 H   0  0  0  0  0  0  0  0  0  0  0  0  # atno 10765 bound_to 10752
  140.2528  134.7963  157.3518 H   0  0  0  0  0  0  0  0  0  0  0  0  # atno 11005 bound_to 11000
  144.9455  139.4141  143.6428 LP  0  0  0  0  0  0  0  0  0  0  0  0  # atno 17320 bound_to 7965
  146.3287  139.8436  142.8886 LP  0  0  0  0  0  0  0  0  0  0  0  0  # atno 17321 bound_to 7965
  140.6201  143.9274  150.6519 LP  0  0  0  0  0  0  0  0  0  0  0  0  # atno 17342 bound_to 10162
  140.2545  143.3569  152.1377 LP  0  0  0  0  0  0  0  0  0  0  0  0  # atno 17343 bound_to 10162
  156.8190  130.9352  151.3642 LP  0  0  0  0  0  0  0  0  0  0  0  0  # atno 17370 bound_to 10713
  157.6484  130.8863  149.9583 LP  0  0  0  0  0  0  0  0  0  0  0  0  # atno 17371 bound_to 10713
  140.1541  134.4812  155.7940 LP  0  0  0  0  0  0  0  0  0  0  0  0  # atno 17394 bound_to 11000
  141.2199  133.6874  156.7429 LP  0  0  0  0  0  0  0  0  0  0  0  0  # atno 17395 bound_to 11000

$$$$
