AV-unprocessed.smi:2379|AV-procd|sdf|9452|dock3
  -GOLD-   2272013 83D 1   1.00000     0.00000
 Structure written by MMmdl.
 53 55  0  0  0  0  0  0  0  0  2 V2000
  152.2455  144.8650  158.3438 C   0  0  0  0  0  0  0  0  0  0  0  0
  152.3383  143.4284  158.8140 C   0  0  0  0  0  0  0  0  0  0  0  0
  153.1182  143.0834  159.9344 C   0  0  0  0  0  0  0  0  0  0  0  0
  153.1638  141.7296  160.3211 C   0  0  0  0  0  0  0  0  0  0  0  0
  153.9776  141.2882  161.5194 C   0  0  0  0  0  0  0  0  0  0  0  0
  152.5010  140.7533  159.6651 N   0  0  0  0  0  0  0  0  0  0  0  0
  151.7489  141.0733  158.5830 C   0  0  0  0  0  0  0  0  0  0  0  0
  151.0132  140.1220  157.8274 N   0  0  0  0  0  0  0  0  0  0  0  0
  149.9361  140.3343  157.0506 C   0  0  0  0  0  0  0  0  0  0  0  0
  149.3833  141.4211  156.8785 O   0  0  0  0  0  0  0  0  0  0  0  0
  149.5176  139.1969  156.4758 N   0  0  0  0  0  0  0  0  0  0  0  0
  148.3536  139.0790  155.6017 C   0  0  2  0  0  0  0  0  0  0  0  0
  148.0268  137.5967  155.3606 C   0  0  0  0  0  0  0  0  0  0  0  0
  146.8517  137.4364  154.3806 C   0  0  0  0  0  0  0  0  0  0  0  0
  147.1239  138.1282  153.0935 N   0  3  1  0  0  0  0  0  0  0  0  0
  146.0718  137.8795  152.0731 C   0  0  0  0  0  0  0  0  0  0  0  0
  145.5595  136.4259  152.1035 C   0  0  1  0  0  0  0  0  0  0  0  0
  144.0798  136.3172  152.4157 C   0  0  0  0  0  0  0  0  0  0  0  0
  143.7541  134.9038  151.9439 C   0  0  0  0  0  0  0  0  0  0  0  0
  144.6354  134.6490  150.8551 O   0  0  0  0  0  0  0  0  0  0  0  0
  145.6198  135.6739  150.7722 C   0  0  0  0  0  0  0  0  0  0  0  0
  147.4034  139.5731  153.3044 C   0  0  0  0  0  0  0  0  0  0  0  0
  148.5983  139.7748  154.2501 C   0  0  0  0  0  0  0  0  0  0  0  0
  151.6438  142.4086  158.1325 C   0  0  0  0  0  0  0  0  0  0  0  0
  152.7416  145.5426  159.0393 H   0  0  0  0  0  0  0  0  0  0  0  0
  151.2021  145.1693  158.2585 H   0  0  0  0  0  0  0  0  0  0  0  0
  152.7165  144.9729  157.3667 H   0  0  0  0  0  0  0  0  0  0  0  0
  153.6662  143.8356  160.4830 H   0  0  0  0  0  0  0  0  0  0  0  0
  154.3462  142.1451  162.0839 H   0  0  0  0  0  0  0  0  0  0  0  0
  154.8344  140.6962  161.1971 H   0  0  0  0  0  0  0  0  0  0  0  0
  153.3702  140.6781  162.1885 H   0  0  0  0  0  0  0  0  0  0  0  0
  151.3424  139.1702  157.8915 H   0  0  0  0  0  0  0  0  0  0  0  0
  150.0306  138.3496  156.6710 H   0  0  0  0  0  0  0  0  0  0  0  0
  147.4958  139.5439  156.0921 H   0  0  0  0  0  0  0  0  0  0  0  0
  148.9028  137.0829  154.9612 H   0  0  0  0  0  0  0  0  0  0  0  0
  147.7861  137.1081  156.3057 H   0  0  0  0  0  0  0  0  0  0  0  0
  146.6857  136.3735  154.1999 H   0  0  0  0  0  0  0  0  0  0  0  0
  145.9352  137.8321  154.8217 H   0  0  0  0  0  0  0  0  0  0  0  0
  145.2171  138.5267  152.2753 H   0  0  0  0  0  0  0  0  0  0  0  0
  146.4213  138.1592  151.0779 H   0  0  0  0  0  0  0  0  0  0  0  0
  146.1079  135.8597  152.8584 H   0  0  0  0  0  0  0  0  0  0  0  0
  143.8506  136.4732  153.4705 H   0  0  0  0  0  0  0  0  0  0  0  0
  143.5120  137.0443  151.8327 H   0  0  0  0  0  0  0  0  0  0  0  0
  143.9605  134.1807  152.7338 H   0  0  0  0  0  0  0  0  0  0  0  0
  142.7109  134.7934  151.6473 H   0  0  0  0  0  0  0  0  0  0  0  0
  145.3587  136.3318  149.9422 H   0  0  0  0  0  0  0  0  0  0  0  0
  146.6051  135.2513  150.5746 H   0  0  0  0  0  0  0  0  0  0  0  0
  147.6151  140.0626  152.3555 H   0  0  0  0  0  0  0  0  0  0  0  0
  146.5174  140.0601  153.7153 H   0  0  0  0  0  0  0  0  0  0  0  0
  148.7683  140.8420  154.3976 H   0  0  0  0  0  0  0  0  0  0  0  0
  149.5025  139.3793  153.7847 H   0  0  0  0  0  0  0  0  0  0  0  0
  151.0400  142.6515  157.2698 H   0  0  0  0  0  0  0  0  0  0  0  0
  147.9709  137.7138  152.7313 H   0  0  0  0  0  0  0  0  0  0  0  0
  1  2  1  0  0  0  0
  1 25  1  0  0  0  0
  1 26  1  0  0  0  0
  1 27  1  0  0  0  0
  2 24  1  0  0  0  0
  2  3  2  0  0  0  0
  3  4  1  0  0  0  0
  3 28  1  0  0  0  0
  4  5  1  0  0  0  0
  4  6  2  0  0  0  0
  5 29  1  0  0  0  0
  5 30  1  0  0  0  0
  5 31  1  0  0  0  0
  6  7  1  0  0  0  0
  7  8  1  0  0  0  0
  7 24  2  0  0  0  0
  8  9  1  0  0  0  0
  8 32  1  0  0  0  0
  9 10  2  0  0  0  0
  9 11  1  0  0  0  0
 11 12  1  0  0  0  0
 11 33  1  0  0  0  0
 12 23  1  0  0  0  0
 12 13  1  0  0  0  0
 12 34  1  0  0  0  0
 13 14  1  0  0  0  0
 13 35  1  0  0  0  0
 13 36  1  0  0  0  0
 14 15  1  0  0  0  0
 14 37  1  0  0  0  0
 14 38  1  0  0  0  0
 15 16  1  0  0  0  0
 15 22  1  0  0  0  0
 15 53  1  0  0  0  0
 16 17  1  0  0  0  0
 16 39  1  0  0  0  0
 16 40  1  0  0  0  0
 17 21  1  0  0  0  0
 17 18  1  0  0  0  0
 17 41  1  0  0  0  0
 18 19  1  0  0  0  0
 18 42  1  0  0  0  0
 18 43  1  0  0  0  0
 19 20  1  0  0  0  0
 19 44  1  0  0  0  0
 19 45  1  0  0  0  0
 20 21  1  0  0  0  0
 21 46  1  0  0  0  0
 21 47  1  0  0  0  0
 22 23  1  0  0  0  0
 22 48  1  0  0  0  0
 22 49  1  0  0  0  0
 23 50  1  0  0  0  0
 23 51  1  0  0  0  0
 24 52  1  0  0  0  0
M  CHG  1  15   1
M  END
> <s_m_source_file>
AV-unprocessed.smi

> <i_m_source_file_index>
2379

> <i_lp_mmshare_version>
43012

> <i_f3d_flags>
0

> <s_epik_input>
W0NIM11jMVtjSF1jKFtDSDNdKW5jKFtjSF0xKVtOSF1DKD1PKVtOSF1bQ0hdMltDSDJdW0NIMl1OKFtDSDJdW0NIMl0yKVtDSDJdW0NAQEhdM1tDSDJdW0NIMl1PW0NIMl0z

> <s_epik_cmdline>
J2VwaWtfcHl0aG9uJywgJy1waCcsICc3LjAnLCAnLXRuJywgJzgnLCAnLW1hJywgJzIwMCcsICctbWV0YWxfYmluZGluZycsICctaW1hZScsICc8aW5maWxlLm1hZT4nLCAnLW9tYWUnLCAnPG91dGZpbGUubWFlPic=

> <r_epik_Ionization_Penalty>
0.00766556

> <r_epik_Ionization_Penalty_Charging>
0.00747775

> <r_epik_Ionization_Penalty_Neutral>
0.00018781

> <r_epik_State_Penalty>
0.00558817

> <r_epik_Charging_Adjusted_Penalty>
0.0130659

> <i_epik_Tot_Q>
1

> <i_epik_Tot_abs_Q>
1

> <r_epik_Metal_State_Penalty>
-0

> <b_epik_Metal_Only>
0

> <s_lp_Force_Field>
OPLS_2005

> <r_lp_Energy>
35.6798

> <b_lp_Chiralities_Consistent>
1

> <s_lp_Variant>
AV-unprocessed.smi:2379-2

> <Gold.Version>
5.8.1

> <Gold.Id.Protein>
6NUR|6NUR_protein|mol2

> <Gold.PLP.Fitness>
46.4222

> <Gold.PLP.PLP>
-42.5861

> <Gold.PLP.part.hbond>
-1.0000

> <Gold.PLP.part.metal>
0.0000

> <Gold.PLP.part.buried>
-5.2322

> <Gold.PLP.part.nonpolar>
-37.7863

> <Gold.PLP.part.repulsive>
0.3941

> <Gold.PLP.ligand.clash>
0.0000

> <Gold.PLP.ligand.torsion>
1.1079

> <Gold.PLP.Chemscore.Hbond>
2.0000

> <Gold.PLP.Chemscore.CHOScore>
0.0000

> <Gold.PLP.Chemscore.Metal>
0.0000

> <Gold.Chemscore.Hbonds>
donor molecule, donor type, donor heavy atom, donor atom, acceptor molecule, acceptor atom, score
      L1  H    15    53       P1  7948  2.00

> <Gold.PLP.Chemscore.Internal.Correction>
0.0520

> <Gold.Rescore>
     Score         DG    S(hbond)    S(metal)    S(lipo)     H(rot)  DE(clash)    DE(int)     intcor
     16.05     -18.57       0.93        0.00     115.33       1.37       0.07       2.45       ----

> <Gold.Chemscore.Fitness>
16.0548

> <Gold.Chemscore.DG>
-18.5698

> <Gold.Chemscore.ZeroCoef>
-5.4800

> <Gold.Chemscore.Hbond>
0.9312

> <Gold.Chemscore.Metal>
0.0000

> <Gold.Chemscore.Lipo>
115.3262

> <Gold.Chemscore.Internal_Hbond>
0.0000

> <Gold.Chemscore.DEClash>
0.0679

> <Gold.Chemscore.DEInternal>
2.4471

> <Gold.Chemscore.Rot>
1.3725

> <Gold.Chemscore.Internal.Correction>
   9.000000E+99

> <Gold.Chemscore.Hbonds>
donor molecule, donor type, donor heavy atom, donor atom, acceptor molecule, acceptor atom, score
      L1  H    15    53       P1  7948  0.95

> <Gold.Chemscore.Hbond.Weighted>
-3.1103

> <Gold.Chemscore.Metal.Weighted>
-0.0000

> <Gold.Chemscore.Lipo.Weighted>
-13.4932

> <Gold.Chemscore.Internal_Hbond.Weighted>
0.0000

> <Gold.Chemscore.DEClash.Weighted>
0.0679

> <Gold.Chemscore.DEInternal.Weighted>
2.4471

> <Gold.Chemscore.Rot.Weighted>
3.5136

> <Gold.Chemscore.Internal.Correction.Weighted>
   9.000000E+99

> <Gold.Protein.RotatedTorsions>
[ 6907 6896 6895 6894 ] final -145.99 input  -60.11 | X-H torsion
[ 7974 7965 7964 7962 ] final   43.52 input  175.53 | X-H torsion
[ 8008 7997 7996 7995 ] final  110.07 input   59.86 | X-H torsion
[ 10167 10162 10161 10158 ] final   36.42 input  -65.29 | X-H torsion
[ 10718 10713 10712 10709 ] final -147.48 input   66.30 | X-H torsion
[ 10763 10752 10751 10750 ] final   43.06 input  -60.55 | X-H torsion
[ 11005 11000 10999 10996 ] final   98.15 input  -57.11 | X-H torsion

> <Gold.Protein.ActiveResidues>
 VAL166  LYS551  ARG553  GLY616  TRP617  ASP618  TYR619  PRO620  LYS621  CYS622 
 ASP623  PHE694  ASN695  SER759  ASP760  ASP761  ALA762  ILE779  LEU786  VAL792 
 PHE793  MET794  SER795  GLU796  ALA797  LYS798  CYS799  TRP800  GLU811  SER814 

> <Gold.Protein.RotatedAtoms>
  151.1354  133.5008  159.2597 H   0  0  0  0  0  0  0  0  0  0  0  0  # atno 6907 bound_to 6896
  151.1712  135.0318  159.8762 H   0  0  0  0  0  0  0  0  0  0  0  0  # atno 6908 bound_to 6896
  152.5461  134.1217  159.8455 H   0  0  0  0  0  0  0  0  0  0  0  0  # atno 6909 bound_to 6896
  146.0648  139.5177  142.9635 H   0  0  0  0  0  0  0  0  0  0  0  0  # atno 7974 bound_to 7965
  156.2026  140.3045  155.9559 H   0  0  0  0  0  0  0  0  0  0  0  0  # atno 8008 bound_to 7997
  155.2918  140.0442  157.3040 H   0  0  0  0  0  0  0  0  0  0  0  0  # atno 8009 bound_to 7997
  154.5591  140.2314  155.8373 H   0  0  0  0  0  0  0  0  0  0  0  0  # atno 8010 bound_to 7997
  140.4130  144.1567  150.6141 H   0  0  0  0  0  0  0  0  0  0  0  0  # atno 10167 bound_to 10162
  156.4080  130.7967  151.2183 H   0  0  0  0  0  0  0  0  0  0  0  0  # atno 10718 bound_to 10713
  152.9869  135.6113  154.3050 H   0  0  0  0  0  0  0  0  0  0  0  0  # atno 10763 bound_to 10752
  154.2768  135.2778  155.2716 H   0  0  0  0  0  0  0  0  0  0  0  0  # atno 10764 bound_to 10752
  154.5073  135.5850  153.6634 H   0  0  0  0  0  0  0  0  0  0  0  0  # atno 10765 bound_to 10752
  139.8773  134.9035  156.4414 H   0  0  0  0  0  0  0  0  0  0  0  0  # atno 11005 bound_to 11000
  145.6497  141.0266  143.1767 LP  0  0  0  0  0  0  0  0  0  0  0  0  # atno 17320 bound_to 7965
  144.7196  139.8077  143.7386 LP  0  0  0  0  0  0  0  0  0  0  0  0  # atno 17321 bound_to 7965
  140.4617  143.2446  151.9210 LP  0  0  0  0  0  0  0  0  0  0  0  0  # atno 17342 bound_to 10162
  139.4782  144.5460  151.8457 LP  0  0  0  0  0  0  0  0  0  0  0  0  # atno 17343 bound_to 10162
  157.7506  131.0266  150.3970 LP  0  0  0  0  0  0  0  0  0  0  0  0  # atno 17370 bound_to 10713
  156.4263  130.3963  149.6791 LP  0  0  0  0  0  0  0  0  0  0  0  0  # atno 17371 bound_to 10713
  140.8997  133.7788  155.9666 LP  0  0  0  0  0  0  0  0  0  0  0  0  # atno 17394 bound_to 11000
  140.8664  134.2778  157.5211 LP  0  0  0  0  0  0  0  0  0  0  0  0  # atno 17395 bound_to 11000

$$$$
