AV-unprocessed.smi:3342|AV-procd|sdf|12888|dock6
  -GOLD-   2272019293D 1   1.00000     0.00000
 Structure written by MMmdl.
 42 43  0  0  0  0  0  0  0  0  2 V2000
  145.9288  135.9676  151.8905 C   0  0  0  0  0  0  0  0  0  0  0  0
  146.0957  134.8218  152.8975 C   0  0  1  0  0  0  0  0  0  0  0  0
  146.4286  133.4938  152.1833 C   0  0  0  0  0  0  0  0  0  0  0  0
  145.4998  133.1782  151.0930 N   0  0  0  0  0  0  0  0  0  0  0  0
  145.7490  132.4132  149.9822 C   0  0  0  0  0  0  0  0  0  0  0  0
  144.5860  132.3886  149.2564 C   0  0  0  0  0  0  0  0  0  0  0  0
  143.6793  133.1439  149.9509 N   0  3  0  0  0  0  0  0  0  0  0  0
  144.2383  133.6270  151.0650 C   0  0  0  0  0  0  0  0  0  0  0  0
  147.1426  135.1832  153.8524 N   0  0  0  0  0  0  0  0  0  0  0  0
  147.1152  136.2256  154.7016 C   0  0  0  0  0  0  0  0  0  0  0  0
  146.1478  136.9852  154.7747 O   0  0  0  0  0  0  0  0  0  0  0  0
  148.2101  136.3392  155.4947 N   0  0  0  0  0  0  0  0  0  0  0  0
  149.4787  135.6077  155.3371 C   0  0  0  0  0  0  0  0  0  0  0  0
  150.5322  136.5662  154.7527 C   0  0  0  0  0  0  0  0  0  0  0  0
  150.7054  137.8170  155.6470 C   0  0  0  0  0  0  0  0  0  0  0  0
  151.6530  138.8337  154.9963 C   0  0  0  0  0  0  0  0  0  0  0  0
  152.8918  138.4202  154.7180 N   0  0  0  0  0  0  0  0  0  0  0  0
  151.2747  139.9767  154.7471 O   0  0  0  0  0  0  0  0  0  0  0  0
  149.3348  138.4600  155.9657 C   0  0  0  0  0  0  0  0  0  0  0  0
  148.3386  137.4100  156.4905 C   0  0  0  0  0  0  0  0  0  0  0  0
  145.1328  135.7508  151.1775 H   0  0  0  0  0  0  0  0  0  0  0  0
  146.8453  136.1371  151.3241 H   0  0  0  0  0  0  0  0  0  0  0  0
  145.6720  136.9001  152.3947 H   0  0  0  0  0  0  0  0  0  0  0  0
  145.1433  134.7144  153.4198 H   0  0  0  0  0  0  0  0  0  0  0  0
  147.4306  133.5341  151.7536 H   0  0  0  0  0  0  0  0  0  0  0  0
  146.4212  132.6614  152.8886 H   0  0  0  0  0  0  0  0  0  0  0  0
  146.7074  131.9493  149.7994 H   0  0  0  0  0  0  0  0  0  0  0  0
  144.3416  131.9025  148.3230 H   0  0  0  0  0  0  0  0  0  0  0  0
  143.7611  134.2476  151.8024 H   0  0  0  0  0  0  0  0  0  0  0  0
  147.9669  134.5999  153.8600 H   0  0  0  0  0  0  0  0  0  0  0  0
  149.8068  135.2459  156.3127 H   0  0  0  0  0  0  0  0  0  0  0  0
  149.4039  134.7180  154.7122 H   0  0  0  0  0  0  0  0  0  0  0  0
  151.4852  136.0455  154.6505 H   0  0  0  0  0  0  0  0  0  0  0  0
  150.2298  136.8568  153.7448 H   0  0  0  0  0  0  0  0  0  0  0  0
  151.1447  137.4899  156.5914 H   0  0  0  0  0  0  0  0  0  0  0  0
  153.5508  139.0525  154.2877 H   0  0  0  0  0  0  0  0  0  0  0  0
  153.1642  137.4731  154.9380 H   0  0  0  0  0  0  0  0  0  0  0  0
  149.4561  139.2526  156.7051 H   0  0  0  0  0  0  0  0  0  0  0  0
  148.9190  138.9318  155.0735 H   0  0  0  0  0  0  0  0  0  0  0  0
  147.3845  137.8838  156.7257 H   0  0  0  0  0  0  0  0  0  0  0  0
  148.6969  136.9897  157.4313 H   0  0  0  0  0  0  0  0  0  0  0  0
  142.7224  133.3116  149.6662 H   0  0  0  0  0  0  0  0  0  0  0  0
  1  2  1  0  0  0  0
  1 21  1  0  0  0  0
  1 22  1  0  0  0  0
  1 23  1  0  0  0  0
  2  3  1  0  0  0  0
  2  9  1  0  0  0  0
  2 24  1  0  0  0  0
  3  4  1  0  0  0  0
  3 25  1  0  0  0  0
  3 26  1  0  0  0  0
  4  8  1  0  0  0  0
  4  5  1  0  0  0  0
  5  6  2  0  0  0  0
  5 27  1  0  0  0  0
  6  7  1  0  0  0  0
  6 28  1  0  0  0  0
  7  8  2  0  0  0  0
  7 42  1  0  0  0  0
  8 29  1  0  0  0  0
  9 10  1  0  0  0  0
  9 30  1  0  0  0  0
 10 11  2  0  0  0  0
 10 12  1  0  0  0  0
 12 20  1  0  0  0  0
 12 13  1  0  0  0  0
 13 14  1  0  0  0  0
 13 31  1  0  0  0  0
 13 32  1  0  0  0  0
 14 15  1  0  0  0  0
 14 33  1  0  0  0  0
 14 34  1  0  0  0  0
 15 16  1  0  0  0  0
 15 19  1  0  0  0  0
 15 35  1  0  0  0  0
 16 17  1  0  0  0  0
 16 18  2  0  0  0  0
 17 36  1  0  0  0  0
 17 37  1  0  0  0  0
 19 20  1  0  0  0  0
 19 38  1  0  0  0  0
 19 39  1  0  0  0  0
 20 40  1  0  0  0  0
 20 41  1  0  0  0  0
M  CHG  1   7   1
M  END
> <s_m_source_file>
AV-unprocessed.smi

> <i_m_source_file_index>
3342

> <i_lp_mmshare_version>
43012

> <i_f3d_flags>
0

> <s_epik_input>
W2NIXTFuW2NIXVtjSF1uMVtDSDJdW0NAQEhdKFtDSDNdKVtOSF1DKD1PKU4yW0NIMl1bQ0gyXVtDSF0oQyg9TylbTkgyXSlbQ0gyXVtDSDJdMg==

> <s_epik_cmdline>
J2VwaWtfcHl0aG9uJywgJy1waCcsICc3LjAnLCAnLXRuJywgJzgnLCAnLW1hJywgJzIwMCcsICctbWV0YWxfYmluZGluZycsICctaW1hZScsICc8aW5maWxlLm1hZT4nLCAnLW9tYWUnLCAnPG91dGZpbGUubWFlPic=

> <r_lp_tautomer_probability>
1

> <r_epik_Ionization_Penalty>
0.254015

> <r_epik_Ionization_Penalty_Charging>
0

> <r_epik_Ionization_Penalty_Neutral>
0.254015

> <r_epik_State_Penalty>
0.245417

> <r_epik_Charging_Adjusted_Penalty>
0.245417

> <i_epik_Tot_Q>
1

> <i_epik_Tot_abs_Q>
1

> <r_epik_Metal_State_Penalty>
0.535589

> <b_epik_Metal_Only>
0

> <s_lp_Force_Field>
OPLS_2005

> <r_lp_Energy>
31.4878

> <b_lp_Chiralities_Consistent>
1

> <s_lp_Variant>
AV-unprocessed.smi:3342-2

> <Gold.Version>
5.8.1

> <Gold.Id.Protein>
6NUR|6NUR_protein|mol2

> <Gold.PLP.Fitness>
38.9793

> <Gold.PLP.PLP>
-28.1394

> <Gold.PLP.part.hbond>
-3.0000

> <Gold.PLP.part.metal>
0.0000

> <Gold.PLP.part.buried>
-4.4907

> <Gold.PLP.part.nonpolar>
-21.1891

> <Gold.PLP.part.repulsive>
0.4124

> <Gold.PLP.ligand.clash>
0.0000

> <Gold.PLP.ligand.torsion>
0.4467

> <Gold.PLP.Chemscore.Hbond>
3.0000

> <Gold.PLP.Chemscore.CHOScore>
0.8853

> <Gold.PLP.Chemscore.Metal>
0.0000

> <Gold.Chemscore.Hbonds>
donor molecule, donor type, donor heavy atom, donor atom, acceptor molecule, acceptor atom, score
      L1  H     7    42       P1 10186  1.92
      P1  H  7989  7998       L1    18  1.00
      L1  C     5    27       P1 10747  0.96

> <Gold.PLP.Chemscore.Internal.Correction>
0.0775

> <Gold.Rescore>
     Score         DG    S(hbond)    S(metal)    S(lipo)     H(rot)  DE(clash)    DE(int)     intcor
     11.63     -12.19       1.96        0.00      52.77       2.34       0.09       0.47       ----

> <Gold.Chemscore.Fitness>
11.6337

> <Gold.Chemscore.DG>
-12.1949

> <Gold.Chemscore.ZeroCoef>
-5.4800

> <Gold.Chemscore.Hbond>
1.9554

> <Gold.Chemscore.Metal>
0.0000

> <Gold.Chemscore.Lipo>
52.7707

> <Gold.Chemscore.Internal_Hbond>
0.0000

> <Gold.Chemscore.DEClash>
0.0874

> <Gold.Chemscore.DEInternal>
0.4738

> <Gold.Chemscore.Rot>
2.3400

> <Gold.Chemscore.Internal.Correction>
   9.000000E+99

> <Gold.Chemscore.Hbonds>
donor molecule, donor type, donor heavy atom, donor atom, acceptor molecule, acceptor atom, score
      L1  H     7    42       P1 10186  0.89
      P1  H  7989  7998       L1    18  0.97

> <Gold.Chemscore.Hbond.Weighted>
-6.5311

> <Gold.Chemscore.Metal.Weighted>
-0.0000

> <Gold.Chemscore.Lipo.Weighted>
-6.1742

> <Gold.Chemscore.Internal_Hbond.Weighted>
0.0000

> <Gold.Chemscore.DEClash.Weighted>
0.0874

> <Gold.Chemscore.DEInternal.Weighted>
0.4738

> <Gold.Chemscore.Rot.Weighted>
5.9904

> <Gold.Chemscore.Internal.Correction.Weighted>
   9.000000E+99

> <Gold.Protein.RotatedTorsions>
[ 6907 6896 6895 6894 ] final -113.30 input  -60.11 | X-H torsion
[ 7974 7965 7964 7962 ] final    5.84 input  175.53 | X-H torsion
[ 8008 7997 7996 7995 ] final  -83.62 input   59.86 | X-H torsion
[ 10167 10162 10161 10158 ] final  -20.10 input  -65.29 | X-H torsion
[ 10718 10713 10712 10709 ] final  -55.12 input   66.30 | X-H torsion
[ 10763 10752 10751 10750 ] final -106.22 input  -60.55 | X-H torsion
[ 11005 11000 10999 10996 ] final   30.50 input  -57.11 | X-H torsion

> <Gold.Protein.ActiveResidues>
 VAL166  LYS551  ARG553  GLY616  TRP617  ASP618  TYR619  PRO620  LYS621  CYS622 
 ASP623  PHE694  ASN695  SER759  ASP760  ASP761  ALA762  ILE779  LEU786  VAL792 
 PHE793  MET794  SER795  GLU796  ALA797  LYS798  CYS799  TRP800  GLU811  SER814 

> <Gold.Protein.RotatedAtoms>
  150.7819  133.8964  159.3328 H   0  0  0  0  0  0  0  0  0  0  0  0  # atno 6907 bound_to 6896
  151.6824  135.0957  160.0228 H   0  0  0  0  0  0  0  0  0  0  0  0  # atno 6908 bound_to 6896
  152.3873  133.6591  159.6245 H   0  0  0  0  0  0  0  0  0  0  0  0  # atno 6909 bound_to 6896
  146.2438  140.0323  142.8389 H   0  0  0  0  0  0  0  0  0  0  0  0  # atno 7974 bound_to 7965
  154.6210  140.0616  156.9615 H   0  0  0  0  0  0  0  0  0  0  0  0  # atno 8008 bound_to 7997
  155.1818  140.3300  155.4355 H   0  0  0  0  0  0  0  0  0  0  0  0  # atno 8009 bound_to 7997
  156.2431  140.1896  156.6914 H   0  0  0  0  0  0  0  0  0  0  0  0  # atno 8010 bound_to 7997
  140.7273  143.4754  151.0189 H   0  0  0  0  0  0  0  0  0  0  0  0  # atno 10167 bound_to 10162
  156.1395  130.4155  150.0128 H   0  0  0  0  0  0  0  0  0  0  0  0  # atno 10718 bound_to 10713
  154.7998  135.4720  154.0248 H   0  0  0  0  0  0  0  0  0  0  0  0  # atno 10763 bound_to 10752
  153.1762  135.6833  153.8546 H   0  0  0  0  0  0  0  0  0  0  0  0  # atno 10764 bound_to 10752
  153.8112  135.3217  155.3378 H   0  0  0  0  0  0  0  0  0  0  0  0  # atno 10765 bound_to 10752
  140.2937  134.2835  155.7770 H   0  0  0  0  0  0  0  0  0  0  0  0  # atno 11005 bound_to 11000
  145.1143  140.9424  143.4638 LP  0  0  0  0  0  0  0  0  0  0  0  0  # atno 17320 bound_to 7965
  145.0544  139.3155  143.5912 LP  0  0  0  0  0  0  0  0  0  0  0  0  # atno 17321 bound_to 7965
  139.8449  143.7514  152.3179 LP  0  0  0  0  0  0  0  0  0  0  0  0  # atno 17342 bound_to 10162
  139.7676  144.7487  151.0272 LP  0  0  0  0  0  0  0  0  0  0  0  0  # atno 17343 bound_to 10162
  156.8018  130.9293  151.3646 LP  0  0  0  0  0  0  0  0  0  0  0  0  # atno 17370 bound_to 10713
  157.6562  130.8927  149.9734 LP  0  0  0  0  0  0  0  0  0  0  0  0  # atno 17371 bound_to 10713
  141.2141  133.7601  156.9663 LP  0  0  0  0  0  0  0  0  0  0  0  0  # atno 17394 bound_to 11000
  140.1172  134.9440  157.2151 LP  0  0  0  0  0  0  0  0  0  0  0  0  # atno 17395 bound_to 11000

$$$$
