AV-unprocessed.smi:512|AV-procd|sdf|2771|dock10
  -GOLD-   2262023243D 1   1.00000     0.00000
 Structure written by MMmdl.
 47 49  0  0  0  0  0  0  0  0  2 V2000
  148.7488  141.2246  155.9093 C   0  0  0  0  0  0  0  0  0  0  0  0
  149.9963  141.3385  156.7882 C   0  0  0  0  0  0  0  0  0  0  0  0
  149.7564  140.6691  158.0142 O   0  0  0  0  0  0  0  0  0  0  0  0
  150.7970  140.8630  158.9571 C   0  0  0  0  0  0  0  0  0  0  0  0
  152.0357  140.0815  158.4896 C   0  0  0  0  0  0  0  0  0  0  0  0
  152.9690  139.8130  159.5806 N   0  0  0  0  0  0  0  0  0  0  0  0
  153.5808  140.6930  160.4263 C   0  0  0  0  0  0  0  0  0  0  0  0
  153.4152  142.0832  160.3572 N   0  0  0  0  0  0  0  0  0  0  0  0
  153.4254  142.9629  161.5257 C   0  0  0  0  0  0  0  0  0  0  0  0
  152.1984  143.8958  161.5298 C   0  0  0  0  0  0  0  0  0  0  0  0
  152.2278  144.7451  160.3400 N   0  0  0  0  0  0  0  0  0  0  0  0
  151.0661  145.6221  160.3341 C   0  0  0  0  0  0  0  0  0  0  0  0
  152.2015  143.8854  159.1579 C   0  0  0  0  0  0  0  0  0  0  0  0
  153.4300  142.9546  159.1814 C   0  0  0  0  0  0  0  0  0  0  0  0
  154.3330  140.1137  161.3657 N   0  0  0  0  0  0  0  0  0  0  0  0
  154.2091  138.7627  161.0900 C   0  0  0  0  0  0  0  0  0  0  0  0
  153.3884  138.5537  160.0272 C   0  0  0  0  0  0  0  0  0  0  0  0
  153.0372  137.2089  159.5158 C   0  0  0  0  0  0  0  0  0  0  0  0
  152.2690  137.0693  158.5664 O   0  0  0  0  0  0  0  0  0  0  0  0
  153.6564  136.2086  160.2191 N   0  5  0  0  0  0  0  0  0  0  0  0
  154.5003  136.3776  161.2954 C   0  0  0  0  0  0  0  0  0  0  0  0
  155.0185  135.4205  161.8722 O   0  0  0  0  0  0  0  0  0  0  0  0
  154.7805  137.6398  161.7481 N   0  0  0  0  0  0  0  0  0  0  0  0
  155.6678  137.8502  162.8955 C   0  0  0  0  0  0  0  0  0  0  0  0
  148.8958  141.7331  154.9563 H   0  0  0  0  0  0  0  0  0  0  0  0
  147.8834  141.6723  156.3985 H   0  0  0  0  0  0  0  0  0  0  0  0
  148.5133  140.1810  155.6992 H   0  0  0  0  0  0  0  0  0  0  0  0
  150.8521  140.8949  156.2773 H   0  0  0  0  0  0  0  0  0  0  0  0
  150.2279  142.3888  156.9720 H   0  0  0  0  0  0  0  0  0  0  0  0
  151.0239  141.9255  159.0458 H   0  0  0  0  0  0  0  0  0  0  0  0
  150.4729  140.5280  159.9424 H   0  0  0  0  0  0  0  0  0  0  0  0
  151.7472  139.1464  158.0152 H   0  0  0  0  0  0  0  0  0  0  0  0
  152.5573  140.6350  157.7094 H   0  0  0  0  0  0  0  0  0  0  0  0
  153.4181  142.3657  162.4378 H   0  0  0  0  0  0  0  0  0  0  0  0
  154.3501  143.5417  161.5436 H   0  0  0  0  0  0  0  0  0  0  0  0
  151.2774  143.3108  161.5616 H   0  0  0  0  0  0  0  0  0  0  0  0
  152.2150  144.5214  162.4228 H   0  0  0  0  0  0  0  0  0  0  0  0
  151.0753  146.2607  159.4503 H   0  0  0  0  0  0  0  0  0  0  0  0
  151.0714  146.2689  161.2121 H   0  0  0  0  0  0  0  0  0  0  0  0
  150.1357  145.0522  160.3347 H   0  0  0  0  0  0  0  0  0  0  0  0
  151.2781  143.3049  159.1261 H   0  0  0  0  0  0  0  0  0  0  0  0
  152.2257  144.5033  158.2596 H   0  0  0  0  0  0  0  0  0  0  0  0
  154.3452  143.5484  159.1913 H   0  0  0  0  0  0  0  0  0  0  0  0
  153.4749  142.3744  158.2655 H   0  0  0  0  0  0  0  0  0  0  0  0
  155.2918  137.3223  163.7728 H   0  0  0  0  0  0  0  0  0  0  0  0
  155.7622  138.9010  163.1678 H   0  0  0  0  0  0  0  0  0  0  0  0
  156.6688  137.4777  162.6752 H   0  0  0  0  0  0  0  0  0  0  0  0
  1  2  1  0  0  0  0
  1 25  1  0  0  0  0
  1 26  1  0  0  0  0
  1 27  1  0  0  0  0
  2  3  1  0  0  0  0
  2 28  1  0  0  0  0
  2 29  1  0  0  0  0
  3  4  1  0  0  0  0
  4  5  1  0  0  0  0
  4 30  1  0  0  0  0
  4 31  1  0  0  0  0
  5  6  1  0  0  0  0
  5 32  1  0  0  0  0
  5 33  1  0  0  0  0
  6 17  1  0  0  0  0
  6  7  1  0  0  0  0
  7  8  1  0  0  0  0
  7 15  2  0  0  0  0
  8 14  1  0  0  0  0
  8  9  1  0  0  0  0
  9 10  1  0  0  0  0
  9 34  1  0  0  0  0
  9 35  1  0  0  0  0
 10 11  1  0  0  0  0
 10 36  1  0  0  0  0
 10 37  1  0  0  0  0
 11 12  1  0  0  0  0
 11 13  1  0  0  0  0
 12 38  1  0  0  0  0
 12 39  1  0  0  0  0
 12 40  1  0  0  0  0
 13 14  1  0  0  0  0
 13 41  1  0  0  0  0
 13 42  1  0  0  0  0
 14 43  1  0  0  0  0
 14 44  1  0  0  0  0
 15 16  1  0  0  0  0
 16 23  1  0  0  0  0
 16 17  2  0  0  0  0
 17 18  1  0  0  0  0
 18 19  2  0  0  0  0
 18 20  1  0  0  0  0
 20 21  1  0  0  0  0
 21 22  2  0  0  0  0
 21 23  1  0  0  0  0
 23 24  1  0  0  0  0
 24 45  1  0  0  0  0
 24 46  1  0  0  0  0
 24 47  1  0  0  0  0
M  CHG  1  20  -1
M  END
> <s_m_source_file>
AV-unprocessed.smi

> <i_m_source_file_index>
512

> <i_lp_mmshare_version>
43012

> <i_f3d_flags>
0

> <s_epik_input>
W0NIM11uMWMoPU8pW25IXWMoPU8pYyhjMTIpbihbQ0gyXVtDSDJdT1tDSDJdW0NIM10pYyhuMilOM1tDSDJdW0NIMl1OKFtDSDNdKVtDSDJdW0NIMl0z

> <s_epik_cmdline>
J2VwaWtfcHl0aG9uJywgJy1waCcsICc3LjAnLCAnLXRuJywgJzgnLCAnLW1hJywgJzIwMCcsICctbWV0YWxfYmluZGluZycsICctaW1hZScsICc8aW5maWxlLm1hZT4nLCAnLW9tYWUnLCAnPG91dGZpbGUubWFlPic=

> <r_epik_Ionization_Penalty>
7.67022

> <r_epik_Ionization_Penalty_Charging>
0.0776929

> <r_epik_Ionization_Penalty_Neutral>
7.59253

> <r_epik_State_Penalty>
7.66971

> <r_epik_Charging_Adjusted_Penalty>
7.7474

> <i_epik_Tot_Q>
-1

> <i_epik_Tot_abs_Q>
1

> <r_epik_Metal_State_Penalty>
3.61867

> <b_epik_Metal_Only>
1

> <s_lp_Force_Field>
OPLS_2005

> <r_lp_Energy>
53.7442

> <b_lp_Chiralities_Consistent>
1

> <s_lp_Variant>
AV-unprocessed.smi:512-4

> <Gold.Version>
5.8.1

> <Gold.Id.Protein>
6NUR|6NUR_protein|mol2

> <Gold.PLP.Fitness>
52.5682

> <Gold.PLP.PLP>
-47.9367

> <Gold.PLP.part.hbond>
-1.0000

> <Gold.PLP.part.metal>
0.0000

> <Gold.PLP.part.buried>
-4.8262

> <Gold.PLP.part.nonpolar>
-40.2419

> <Gold.PLP.part.repulsive>
0.0934

> <Gold.PLP.ligand.clash>
0.0000

> <Gold.PLP.ligand.torsion>
0.7266

> <Gold.PLP.Chemscore.Hbond>
2.0000

> <Gold.PLP.Chemscore.CHOScore>
0.0000

> <Gold.PLP.Chemscore.Metal>
0.0000

> <Gold.Chemscore.Hbonds>
donor molecule, donor type, donor heavy atom, donor atom, acceptor molecule, acceptor atom, score
      P1  H  6896  6909       L1    20  1.80

> <Gold.PLP.Chemscore.Internal.Correction>
0.0848

> <Gold.Rescore>
     Score         DG    S(hbond)    S(metal)    S(lipo)     H(rot)  DE(clash)    DE(int)     intcor
     14.17     -14.77       0.62        0.00      96.98       1.61       0.26       0.34       ----

> <Gold.Chemscore.Fitness>
14.1744

> <Gold.Chemscore.DG>
-14.7747

> <Gold.Chemscore.ZeroCoef>
-5.4800

> <Gold.Chemscore.Hbond>
0.6169

> <Gold.Chemscore.Metal>
0.0000

> <Gold.Chemscore.Lipo>
96.9798

> <Gold.Chemscore.Internal_Hbond>
0.0000

> <Gold.Chemscore.DEClash>
0.2565

> <Gold.Chemscore.DEInternal>
0.3437

> <Gold.Chemscore.Rot>
1.6064

> <Gold.Chemscore.Internal.Correction>
   9.000000E+99

> <Gold.Chemscore.Hbonds>
donor molecule, donor type, donor heavy atom, donor atom, acceptor molecule, acceptor atom, score
      P1  H  6896  6909       L1    20  0.18

> <Gold.Chemscore.Hbond.Weighted>
-2.0604

> <Gold.Chemscore.Metal.Weighted>
-0.0000

> <Gold.Chemscore.Lipo.Weighted>
-11.3466

> <Gold.Chemscore.Internal_Hbond.Weighted>
0.0000

> <Gold.Chemscore.DEClash.Weighted>
0.2565

> <Gold.Chemscore.DEInternal.Weighted>
0.3437

> <Gold.Chemscore.Rot.Weighted>
4.1123

> <Gold.Chemscore.Internal.Correction.Weighted>
   9.000000E+99

> <Gold.Protein.RotatedTorsions>
[ 6907 6896 6895 6894 ] final  164.94 input  -60.11 | X-H torsion
[ 7974 7965 7964 7962 ] final  116.83 input  175.53 | X-H torsion
[ 8008 7997 7996 7995 ] final  -10.49 input   59.86 | X-H torsion
[ 10167 10162 10161 10158 ] final  154.02 input  -65.29 | X-H torsion
[ 10718 10713 10712 10709 ] final -171.97 input   66.30 | X-H torsion
[ 10763 10752 10751 10750 ] final -131.55 input  -60.55 | X-H torsion
[ 11005 11000 10999 10996 ] final  -68.90 input  -57.11 | X-H torsion

> <Gold.Protein.ActiveResidues>
 VAL166  LYS551  ARG553  GLY616  TRP617  ASP618  TYR619  PRO620  LYS621  CYS622 
 ASP623  PHE694  ASN695  SER759  ASP760  ASP761  ALA762  ILE779  LEU786  VAL792 
 PHE793  MET794  SER795  GLU796  ALA797  LYS798  CYS799  TRP800  GLU811  SER814 

> <Gold.Protein.RotatedAtoms>
  151.9021  133.3540  159.3834 H   0  0  0  0  0  0  0  0  0  0  0  0  # atno 6907 bound_to 6896
  150.7077  134.4817  159.5483 H   0  0  0  0  0  0  0  0  0  0  0  0  # atno 6908 bound_to 6896
  152.2408  134.8231  160.0511 H   0  0  0  0  0  0  0  0  0  0  0  0  # atno 6909 bound_to 6896
  145.1749  139.3081  143.4448 H   0  0  0  0  0  0  0  0  0  0  0  0  # atno 7974 bound_to 7965
  154.5550  140.2327  155.8424 H   0  0  0  0  0  0  0  0  0  0  0  0  # atno 8008 bound_to 7997
  156.1980  140.3060  155.9428 H   0  0  0  0  0  0  0  0  0  0  0  0  # atno 8009 bound_to 7997
  155.2997  140.0430  157.3019 H   0  0  0  0  0  0  0  0  0  0  0  0  # atno 8010 bound_to 7997
  139.4825  144.5223  151.7857 H   0  0  0  0  0  0  0  0  0  0  0  0  # atno 10167 bound_to 10162
  156.7487  130.9370  151.3113 H   0  0  0  0  0  0  0  0  0  0  0  0  # atno 10718 bound_to 10713
  154.8750  135.3826  154.4265 H   0  0  0  0  0  0  0  0  0  0  0  0  # atno 10763 bound_to 10752
  153.4963  135.7030  153.5861 H   0  0  0  0  0  0  0  0  0  0  0  0  # atno 10764 bound_to 10752
  153.4212  135.3901  155.2079 H   0  0  0  0  0  0  0  0  0  0  0  0  # atno 10765 bound_to 10752
  141.1542  133.6751  156.6516 H   0  0  0  0  0  0  0  0  0  0  0  0  # atno 11005 bound_to 11000
  146.3463  140.1907  142.8589 LP  0  0  0  0  0  0  0  0  0  0  0  0  # atno 17320 bound_to 7965
  145.0195  140.8782  143.5175 LP  0  0  0  0  0  0  0  0  0  0  0  0  # atno 17321 bound_to 7965
  140.4738  144.1548  150.5922 LP  0  0  0  0  0  0  0  0  0  0  0  0  # atno 17342 bound_to 10162
  140.4353  143.2550  151.9543 LP  0  0  0  0  0  0  0  0  0  0  0  0  # atno 17343 bound_to 10162
  157.6787  130.9119  150.0213 LP  0  0  0  0  0  0  0  0  0  0  0  0  # atno 17370 bound_to 10713
  156.1416  130.3642  149.9574 LP  0  0  0  0  0  0  0  0  0  0  0  0  # atno 17371 bound_to 10713
  140.3316  134.7924  157.4330 LP  0  0  0  0  0  0  0  0  0  0  0  0  # atno 17394 bound_to 11000
  140.1012  134.5470  155.8351 LP  0  0  0  0  0  0  0  0  0  0  0  0  # atno 17395 bound_to 11000

$$$$
