AV-unprocessed.smi:1680|AV-procd|sdf|6738|dock5
  -GOLD-   22720 7483D 1   1.00000     0.00000
 Structure written by MMmdl.
 39 40  0  0  0  0  0  0  0  0  2 V2000
  143.0055  134.5479  152.4764 C   0  0  0  0  0  0  0  0  0  0  0  0
  144.0692  133.9194  151.5735 C   0  0  0  0  0  0  0  0  0  0  0  0
  143.7064  133.0791  150.7505 O   0  0  0  0  0  0  0  0  0  0  0  0
  145.3619  134.3028  151.7047 N   0  0  0  0  0  0  0  0  0  0  0  0
  146.4991  133.7303  150.9778 C   0  0  0  0  0  0  0  0  0  0  0  0
  147.3938  132.9665  151.9709 C   0  0  0  0  0  0  0  0  0  0  0  0
  147.8268  133.8363  153.0983 N   0  3  0  0  0  0  0  0  0  0  0  0
  148.6995  133.1136  154.0571 C   0  0  0  0  0  0  0  0  0  0  0  0
  149.5410  134.0688  154.9261 C   0  0  0  0  0  0  0  0  0  0  0  0
  149.5797  135.4137  154.3627 N   0  0  0  0  0  0  0  0  0  0  0  0
  149.8557  136.5262  155.0587 C   0  0  0  0  0  0  0  0  0  0  0  0
  150.1032  136.5223  156.2649 O   0  0  0  0  0  0  0  0  0  0  0  0
  149.8195  137.6171  154.2734 N   0  0  0  0  0  0  0  0  0  0  0  0
  150.0332  138.9723  154.6406 C   0  0  0  0  0  0  0  0  0  0  0  0
  151.1634  139.4198  155.2097 N   0  0  0  0  0  0  0  0  0  0  0  0
  151.1092  140.7828  155.4705 N   0  0  0  0  0  0  0  0  0  0  0  0
  149.9421  141.3089  155.0881 C   0  0  0  0  0  0  0  0  0  0  0  0
  148.7954  140.1908  154.3706 S   0  0  0  0  0  0  0  0  0  0  0  0
  146.6884  134.5428  153.7494 C   0  0  0  0  0  0  0  0  0  0  0  0
  145.8065  135.2664  152.7152 C   0  0  0  0  0  0  0  0  0  0  0  0
  142.9581  135.6271  152.3270 H   0  0  0  0  0  0  0  0  0  0  0  0
  143.2188  134.3429  153.5259 H   0  0  0  0  0  0  0  0  0  0  0  0
  142.0200  134.1377  152.2519 H   0  0  0  0  0  0  0  0  0  0  0  0
  146.2109  133.0699  150.1612 H   0  0  0  0  0  0  0  0  0  0  0  0
  147.0652  134.5384  150.5124 H   0  0  0  0  0  0  0  0  0  0  0  0
  146.8545  132.1042  152.3666 H   0  0  0  0  0  0  0  0  0  0  0  0
  148.2699  132.5812  151.4478 H   0  0  0  0  0  0  0  0  0  0  0  0
  148.0967  132.4521  154.6813 H   0  0  0  0  0  0  0  0  0  0  0  0
  149.3777  132.4705  153.4944 H   0  0  0  0  0  0  0  0  0  0  0  0
  149.1508  134.1041  155.9448 H   0  0  0  0  0  0  0  0  0  0  0  0
  150.5707  133.7214  154.9993 H   0  0  0  0  0  0  0  0  0  0  0  0
  149.3905  135.5021  153.3747 H   0  0  0  0  0  0  0  0  0  0  0  0
  149.6034  137.4629  153.2996 H   0  0  0  0  0  0  0  0  0  0  0  0
  149.7548  142.3629  155.2299 H   0  0  0  0  0  0  0  0  0  0  0  0
  146.0859  133.8227  154.3055 H   0  0  0  0  0  0  0  0  0  0  0  0
  147.0575  135.2714  154.4704 H   0  0  0  0  0  0  0  0  0  0  0  0
  146.3748  136.0597  152.2273 H   0  0  0  0  0  0  0  0  0  0  0  0
  144.9783  135.7640  153.2215 H   0  0  0  0  0  0  0  0  0  0  0  0
  148.4024  134.5522  152.6782 H   0  0  0  0  0  0  0  0  0  0  0  0
  1  2  1  0  0  0  0
  1 21  1  0  0  0  0
  1 22  1  0  0  0  0
  1 23  1  0  0  0  0
  2  3  2  0  0  0  0
  2  4  1  0  0  0  0
  4 20  1  0  0  0  0
  4  5  1  0  0  0  0
  5  6  1  0  0  0  0
  5 24  1  0  0  0  0
  5 25  1  0  0  0  0
  6  7  1  0  0  0  0
  6 26  1  0  0  0  0
  6 27  1  0  0  0  0
  7  8  1  0  0  0  0
  7 19  1  0  0  0  0
  7 39  1  0  0  0  0
  8  9  1  0  0  0  0
  8 28  1  0  0  0  0
  8 29  1  0  0  0  0
  9 10  1  0  0  0  0
  9 30  1  0  0  0  0
  9 31  1  0  0  0  0
 10 11  1  0  0  0  0
 10 32  1  0  0  0  0
 11 12  2  0  0  0  0
 11 13  1  0  0  0  0
 13 14  1  0  0  0  0
 13 33  1  0  0  0  0
 14 18  1  0  0  0  0
 14 15  2  0  0  0  0
 15 16  1  0  0  0  0
 16 17  2  0  0  0  0
 17 18  1  0  0  0  0
 17 34  1  0  0  0  0
 19 20  1  0  0  0  0
 19 35  1  0  0  0  0
 19 36  1  0  0  0  0
 20 37  1  0  0  0  0
 20 38  1  0  0  0  0
M  CHG  1   7   1
M  END
> <s_m_source_file>
AV-unprocessed.smi

> <i_m_source_file_index>
1680

> <i_lp_mmshare_version>
43012

> <i_f3d_flags>
0

> <s_epik_input>
W0NIM11DKD1PKU4xW0NIMl1bQ0gyXU4oW0NIMl1bQ0gyXTEpW0NIMl1bQ0gyXVtOSF1DKD1PKVtOSF1jMm5uW2NIXXMy

> <s_epik_cmdline>
J2VwaWtfcHl0aG9uJywgJy1waCcsICc3LjAnLCAnLXRuJywgJzgnLCAnLW1hJywgJzIwMCcsICctbWV0YWxfYmluZGluZycsICctaW1hZScsICc8aW5maWxlLm1hZT4nLCAnLW9tYWUnLCAnPG91dGZpbGUubWFlPic=

> <r_lp_tautomer_probability>
1

> <r_epik_Ionization_Penalty>
0.679071

> <r_epik_Ionization_Penalty_Charging>
0.67523

> <r_epik_Ionization_Penalty_Neutral>
0.00384089

> <r_epik_State_Penalty>
0.695776

> <r_epik_Charging_Adjusted_Penalty>
1.37101

> <i_epik_Tot_Q>
1

> <i_epik_Tot_abs_Q>
1

> <r_epik_Metal_State_Penalty>
1.03363

> <b_epik_Metal_Only>
0

> <s_lp_Force_Field>
OPLS_2005

> <r_lp_Energy>
38.3378

> <b_lp_Chiralities_Consistent>
1

> <s_lp_Variant>
AV-unprocessed.smi:1680-2

> <Gold.Version>
5.8.1

> <Gold.Id.Protein>
6NUR|6NUR_protein|mol2

> <Gold.PLP.Fitness>
44.4158

> <Gold.PLP.PLP>
-31.6840

> <Gold.PLP.part.hbond>
-4.1040

> <Gold.PLP.part.metal>
0.0000

> <Gold.PLP.part.buried>
-4.6320

> <Gold.PLP.part.nonpolar>
-23.6513

> <Gold.PLP.part.repulsive>
0.3592

> <Gold.PLP.ligand.clash>
0.0000

> <Gold.PLP.ligand.torsion>
1.1395

> <Gold.PLP.Chemscore.Hbond>
3.9920

> <Gold.PLP.Chemscore.CHOScore>
1.0000

> <Gold.PLP.Chemscore.Metal>
0.0000

> <Gold.Chemscore.Hbonds>
donor molecule, donor type, donor heavy atom, donor atom, acceptor molecule, acceptor atom, score
      L1  H     7    39       P1  7948  1.90
      L1  H    10    32       P1  7948  0.90
      L1  H    13    33       P1  7948  0.99
      P1  H  7989  7998       L1    16  0.02
      L1  C    17    34       P1  8028  0.97

> <Gold.PLP.Chemscore.Internal.Correction>
0.0349

> <Gold.Rescore>
     Score         DG    S(hbond)    S(metal)    S(lipo)     H(rot)  DE(clash)    DE(int)     intcor
     11.79     -13.90       2.25        0.00      47.79       1.83       0.04       2.08       ----

> <Gold.Chemscore.Fitness>
11.7864

> <Gold.Chemscore.DG>
-13.9010

> <Gold.Chemscore.ZeroCoef>
-5.4800

> <Gold.Chemscore.Hbond>
2.2477

> <Gold.Chemscore.Metal>
0.0000

> <Gold.Chemscore.Lipo>
47.7888

> <Gold.Chemscore.Internal_Hbond>
0.0000

> <Gold.Chemscore.DEClash>
0.0388

> <Gold.Chemscore.DEInternal>
2.0757

> <Gold.Chemscore.Rot>
1.8272

> <Gold.Chemscore.Internal.Correction>
   9.000000E+99

> <Gold.Chemscore.Hbonds>
donor molecule, donor type, donor heavy atom, donor atom, acceptor molecule, acceptor atom, score
      L1  H     7    39       P1  7948  0.21
      L1  H    10    32       P1  7948  0.18
      L1  H    13    33       P1  7948  0.76

> <Gold.Chemscore.Hbond.Weighted>
-7.5073

> <Gold.Chemscore.Metal.Weighted>
-0.0000

> <Gold.Chemscore.Lipo.Weighted>
-5.5913

> <Gold.Chemscore.Internal_Hbond.Weighted>
0.0000

> <Gold.Chemscore.DEClash.Weighted>
0.0388

> <Gold.Chemscore.DEInternal.Weighted>
2.0757

> <Gold.Chemscore.Rot.Weighted>
4.6776

> <Gold.Chemscore.Internal.Correction.Weighted>
   9.000000E+99

> <Gold.Protein.RotatedTorsions>
[ 6907 6896 6895 6894 ] final  -11.45 input  -60.11 | X-H torsion
[ 7974 7965 7964 7962 ] final   17.98 input  175.53 | X-H torsion
[ 8008 7997 7996 7995 ] final  -20.10 input   59.86 | X-H torsion
[ 10167 10162 10161 10158 ] final   50.35 input  -65.29 | X-H torsion
[ 10718 10713 10712 10709 ] final   -8.59 input   66.30 | X-H torsion
[ 10763 10752 10751 10750 ] final   94.99 input  -60.55 | X-H torsion
[ 11005 11000 10999 10996 ] final  147.33 input  -57.11 | X-H torsion

> <Gold.Protein.ActiveResidues>
 VAL166  LYS551  ARG553  GLY616  TRP617  ASP618  TYR619  PRO620  LYS621  CYS622 
 ASP623  PHE694  ASN695  SER759  ASP760  ASP761  ALA762  ILE779  LEU786  VAL792 
 PHE793  MET794  SER795  GLU796  ALA797  LYS798  CYS799  TRP800  GLU811  SER814 

> <Gold.Protein.RotatedAtoms>
  151.3860  135.0948  159.9510 H   0  0  0  0  0  0  0  0  0  0  0  0  # atno 6907 bound_to 6896
  152.5094  133.9026  159.7459 H   0  0  0  0  0  0  0  0  0  0  0  0  # atno 6908 bound_to 6896
  150.9469  133.6537  159.2808 H   0  0  0  0  0  0  0  0  0  0  0  0  # atno 6909 bound_to 6896
  146.2200  139.8524  142.8620 H   0  0  0  0  0  0  0  0  0  0  0  0  # atno 7974 bound_to 7965
  154.4792  140.2071  155.9804 H   0  0  0  0  0  0  0  0  0  0  0  0  # atno 8008 bound_to 7997
  156.1138  140.3224  155.8080 H   0  0  0  0  0  0  0  0  0  0  0  0  # atno 8009 bound_to 7997
  155.4588  140.0522  157.2984 H   0  0  0  0  0  0  0  0  0  0  0  0  # atno 8010 bound_to 7997
  140.2734  144.3239  150.6284 H   0  0  0  0  0  0  0  0  0  0  0  0  # atno 10167 bound_to 10162
  156.7004  130.5091  149.5919 H   0  0  0  0  0  0  0  0  0  0  0  0  # atno 10718 bound_to 10713
  153.2480  135.4270  155.0768 H   0  0  0  0  0  0  0  0  0  0  0  0  # atno 10763 bound_to 10752
  154.8369  135.3419  154.6554 H   0  0  0  0  0  0  0  0  0  0  0  0  # atno 10764 bound_to 10752
  153.6976  135.7030  153.5129 H   0  0  0  0  0  0  0  0  0  0  0  0  # atno 10765 bound_to 10752
  140.0867  134.9065  157.1587 H   0  0  0  0  0  0  0  0  0  0  0  0  # atno 11005 bound_to 11000
  145.2788  141.0132  143.3729 LP  0  0  0  0  0  0  0  0  0  0  0  0  # atno 17320 bound_to 7965
  144.9166  139.4463  143.6561 LP  0  0  0  0  0  0  0  0  0  0  0  0  # atno 17321 bound_to 7965
  140.5871  143.2169  151.7322 LP  0  0  0  0  0  0  0  0  0  0  0  0  # atno 17342 bound_to 10162
  139.4982  144.3994  152.0197 LP  0  0  0  0  0  0  0  0  0  0  0  0  # atno 17343 bound_to 10162
  156.1733  130.6451  151.0864 LP  0  0  0  0  0  0  0  0  0  0  0  0  # atno 17370 bound_to 10713
  157.6975  131.0788  150.6923 LP  0  0  0  0  0  0  0  0  0  0  0  0  # atno 17371 bound_to 10713
  140.3410  134.2704  155.7212 LP  0  0  0  0  0  0  0  0  0  0  0  0  # atno 17394 bound_to 11000
  141.2065  133.7832  157.0174 LP  0  0  0  0  0  0  0  0  0  0  0  0  # atno 17395 bound_to 11000

$$$$
