AV-unprocessed.smi:2422|AV-procd|sdf|9557|dock2
  -GOLD-   2272013193D 1   1.00000     0.00000
 Structure written by MMmdl.
 46 47  0  0  0  0  0  0  0  0  1 V2000
  146.8880  133.5935  152.1838 C   0  0  0  0  0  0  0  0  0  0  0  0
  147.1509  134.3384  153.3598 O   0  0  0  0  0  0  0  0  0  0  0  0
  148.3459  133.9288  154.0084 C   0  0  0  0  0  0  0  0  0  0  0  0
  148.6099  134.8070  155.2549 C   0  0  0  0  0  0  0  0  0  0  0  0
  147.3056  134.9657  156.0588 C   0  0  0  0  0  0  0  0  0  0  0  0
  149.6660  134.1394  156.1617 C   0  0  0  0  0  0  0  0  0  0  0  0
  149.0482  136.1546  154.8682 N   0  0  0  0  0  0  0  0  0  0  0  0
  149.3266  137.2021  155.6630 C   0  0  0  0  0  0  0  0  0  0  0  0
  149.2325  137.1800  156.8901 O   0  0  0  0  0  0  0  0  0  0  0  0
  149.7195  138.2631  154.9372 N   0  0  0  0  0  0  0  0  0  0  0  0
  150.1073  139.5479  155.3987 C   0  0  0  0  0  0  0  0  0  0  0  0
  150.2492  140.6462  154.5947 N   0  0  0  0  0  0  0  0  0  0  0  0
  150.6093  141.5339  155.5119 C   0  0  0  0  0  0  0  0  0  0  0  0
  150.6774  141.0390  156.7513 N   0  0  0  0  0  0  0  0  0  0  0  0
  151.0436  141.6888  158.0005 C   0  0  0  0  0  0  0  0  0  0  0  0
  151.5547  143.1239  157.7594 C   0  0  0  0  0  0  0  0  0  0  0  0
  151.9249  143.8128  159.0834 C   0  0  0  0  0  0  0  0  0  0  0  0
  152.9514  142.9860  159.8746 C   0  0  0  0  0  0  0  0  0  0  0  0
  152.4470  141.5542  160.1164 C   0  0  0  0  0  0  0  0  0  0  0  0
  152.0796  140.8634  158.7931 C   0  0  0  0  0  0  0  0  0  0  0  0
  150.3575  139.7221  156.6947 N   0  0  0  0  0  0  0  0  0  0  0  0
  145.9645  133.9468  151.7253 H   0  0  0  0  0  0  0  0  0  0  0  0
  146.7692  132.5326  152.4072 H   0  0  0  0  0  0  0  0  0  0  0  0
  147.6913  133.7106  151.4552 H   0  0  0  0  0  0  0  0  0  0  0  0
  148.2596  132.8820  154.3042 H   0  0  0  0  0  0  0  0  0  0  0  0
  149.1815  133.9848  153.3095 H   0  0  0  0  0  0  0  0  0  0  0  0
  146.9100  133.9979  156.3684 H   0  0  0  0  0  0  0  0  0  0  0  0
  146.5311  135.4640  155.4743 H   0  0  0  0  0  0  0  0  0  0  0  0
  147.4645  135.5577  156.9611 H   0  0  0  0  0  0  0  0  0  0  0  0
  149.3149  133.1739  156.5273 H   0  0  0  0  0  0  0  0  0  0  0  0
  149.8909  134.7571  157.0319 H   0  0  0  0  0  0  0  0  0  0  0  0
  150.6034  133.9583  155.6358 H   0  0  0  0  0  0  0  0  0  0  0  0
  149.1679  136.2983  153.8764 H   0  0  0  0  0  0  0  0  0  0  0  0
  149.7535  138.1356  153.9368 H   0  0  0  0  0  0  0  0  0  0  0  0
  150.8278  142.5649  155.2754 H   0  0  0  0  0  0  0  0  0  0  0  0
  150.1353  141.7525  158.6023 H   0  0  0  0  0  0  0  0  0  0  0  0
  152.4283  143.1052  157.1063 H   0  0  0  0  0  0  0  0  0  0  0  0
  150.7940  143.7092  157.2415 H   0  0  0  0  0  0  0  0  0  0  0  0
  152.3222  144.8088  158.8864 H   0  0  0  0  0  0  0  0  0  0  0  0
  151.0266  143.9522  159.6860 H   0  0  0  0  0  0  0  0  0  0  0  0
  153.8942  142.9530  159.3266 H   0  0  0  0  0  0  0  0  0  0  0  0
  153.1645  143.4709  160.8276 H   0  0  0  0  0  0  0  0  0  0  0  0
  153.2087  140.9749  160.6392 H   0  0  0  0  0  0  0  0  0  0  0  0
  151.5745  141.5787  160.7707 H   0  0  0  0  0  0  0  0  0  0  0  0
  151.6884  139.8656  158.9947 H   0  0  0  0  0  0  0  0  0  0  0  0
  152.9849  140.7260  158.1997 H   0  0  0  0  0  0  0  0  0  0  0  0
  1  2  1  0  0  0  0
  1 22  1  0  0  0  0
  1 23  1  0  0  0  0
  1 24  1  0  0  0  0
  2  3  1  0  0  0  0
  3  4  1  0  0  0  0
  3 25  1  0  0  0  0
  3 26  1  0  0  0  0
  4  5  1  0  0  0  0
  4  6  1  0  0  0  0
  4  7  1  0  0  0  0
  5 27  1  0  0  0  0
  5 28  1  0  0  0  0
  5 29  1  0  0  0  0
  6 30  1  0  0  0  0
  6 31  1  0  0  0  0
  6 32  1  0  0  0  0
  7  8  1  0  0  0  0
  7 33  1  0  0  0  0
  8  9  2  0  0  0  0
  8 10  1  0  0  0  0
 10 11  1  0  0  0  0
 10 34  1  0  0  0  0
 11 21  2  0  0  0  0
 11 12  1  0  0  0  0
 12 13  2  0  0  0  0
 13 14  1  0  0  0  0
 13 35  1  0  0  0  0
 14 15  1  0  0  0  0
 14 21  1  0  0  0  0
 15 20  1  0  0  0  0
 15 16  1  0  0  0  0
 15 36  1  0  0  0  0
 16 17  1  0  0  0  0
 16 37  1  0  0  0  0
 16 38  1  0  0  0  0
 17 18  1  0  0  0  0
 17 39  1  0  0  0  0
 17 40  1  0  0  0  0
 18 19  1  0  0  0  0
 18 41  1  0  0  0  0
 18 42  1  0  0  0  0
 19 20  1  0  0  0  0
 19 43  1  0  0  0  0
 19 44  1  0  0  0  0
 20 45  1  0  0  0  0
 20 46  1  0  0  0  0
M  END
> <s_m_source_file>
AV-unprocessed.smi

> <i_m_source_file_index>
2422

> <i_lp_mmshare_version>
43012

> <i_f3d_flags>
0

> <s_epik_input>
W0NIM11PW0NIMl1DKFtDSDNdKShbQ0gzXSlbTkhdQyg9TylbTkhdYzFuW2NIXW4objEpW0NIXTJbQ0gyXVtDSDJdW0NIMl1bQ0gyXVtDSDJdMg==

> <s_epik_cmdline>
J2VwaWtfcHl0aG9uJywgJy1waCcsICc3LjAnLCAnLXRuJywgJzgnLCAnLW1hJywgJzIwMCcsICctbWV0YWxfYmluZGluZycsICctaW1hZScsICc8aW5maWxlLm1hZT4nLCAnLW9tYWUnLCAnPG91dGZpbGUubWFlPic=

> <r_lp_tautomer_probability>
1

> <r_epik_Ionization_Penalty>
0.000103736

> <r_epik_Ionization_Penalty_Charging>
0

> <r_epik_Ionization_Penalty_Neutral>
0.000103736

> <r_epik_State_Penalty>
-0

> <r_epik_Charging_Adjusted_Penalty>
0

> <i_epik_Tot_Q>
0

> <i_epik_Tot_abs_Q>
0

> <r_epik_Metal_State_Penalty>
-0

> <b_epik_Metal_Only>
0

> <s_lp_Force_Field>
OPLS_2005

> <r_lp_Energy>
18.085

> <b_lp_Chiralities_Consistent>
1

> <s_lp_Variant>
AV-unprocessed.smi:2422-1

> <Gold.Version>
5.8.1

> <Gold.Id.Protein>
6NUR|6NUR_protein|mol2

> <Gold.PLP.Fitness>
43.4233

> <Gold.PLP.PLP>
-36.2276

> <Gold.PLP.part.hbond>
-1.9886

> <Gold.PLP.part.metal>
0.0000

> <Gold.PLP.part.buried>
-5.0932

> <Gold.PLP.part.nonpolar>
-29.6382

> <Gold.PLP.part.repulsive>
1.3589

> <Gold.PLP.ligand.clash>
0.0000

> <Gold.PLP.ligand.torsion>
0.3824

> <Gold.PLP.Chemscore.Hbond>
1.6497

> <Gold.PLP.Chemscore.CHOScore>
0.9697

> <Gold.PLP.Chemscore.Metal>
0.0000

> <Gold.Chemscore.Hbonds>
donor molecule, donor type, donor heavy atom, donor atom, acceptor molecule, acceptor atom, score
      L1  H     7    33       P1  7948  1.00
      P1  H  7989  7998       L1    12  0.73
      L1  C    13    35       P1  8028  0.03

> <Gold.PLP.Chemscore.Internal.Correction>
0.1022

> <Gold.Rescore>
     Score         DG    S(hbond)    S(metal)    S(lipo)     H(rot)  DE(clash)    DE(int)     intcor
     11.69     -14.33       0.95        0.00      85.59       1.70       0.07       2.58       ----

> <Gold.Chemscore.Fitness>
11.6866

> <Gold.Chemscore.DG>
-14.3331

> <Gold.Chemscore.ZeroCoef>
-5.4800

> <Gold.Chemscore.Hbond>
0.9518

> <Gold.Chemscore.Metal>
0.0000

> <Gold.Chemscore.Lipo>
85.5917

> <Gold.Chemscore.Internal_Hbond>
0.0000

> <Gold.Chemscore.DEClash>
0.0681

> <Gold.Chemscore.DEInternal>
2.5783

> <Gold.Chemscore.Rot>
1.6954

> <Gold.Chemscore.Internal.Correction>
   9.000000E+99

> <Gold.Chemscore.Hbonds>
donor molecule, donor type, donor heavy atom, donor atom, acceptor molecule, acceptor atom, score
      L1  H     7    33       P1  7948  0.91
      P1  H  7989  7998       L1    12  0.12

> <Gold.Chemscore.Hbond.Weighted>
-3.1791

> <Gold.Chemscore.Metal.Weighted>
-0.0000

> <Gold.Chemscore.Lipo.Weighted>
-10.0142

> <Gold.Chemscore.Internal_Hbond.Weighted>
0.0000

> <Gold.Chemscore.DEClash.Weighted>
0.0681

> <Gold.Chemscore.DEInternal.Weighted>
2.5783

> <Gold.Chemscore.Rot.Weighted>
4.3402

> <Gold.Chemscore.Internal.Correction.Weighted>
   9.000000E+99

> <Gold.Protein.RotatedTorsions>
[ 6907 6896 6895 6894 ] final  118.66 input  -60.11 | X-H torsion
[ 7974 7965 7964 7962 ] final   27.89 input  175.53 | X-H torsion
[ 8008 7997 7996 7995 ] final  114.09 input   59.86 | X-H torsion
[ 10167 10162 10161 10158 ] final  -55.93 input  -65.29 | X-H torsion
[ 10718 10713 10712 10709 ] final  -31.40 input   66.30 | X-H torsion
[ 10763 10752 10751 10750 ] final -147.75 input  -60.55 | X-H torsion
[ 11005 11000 10999 10996 ] final  132.03 input  -57.11 | X-H torsion

> <Gold.Protein.ActiveResidues>
 VAL166  LYS551  ARG553  GLY616  TRP617  ASP618  TYR619  PRO620  LYS621  CYS622 
 ASP623  PHE694  ASN695  SER759  ASP760  ASP761  ALA762  ILE779  LEU786  VAL792 
 PHE793  MET794  SER795  GLU796  ALA797  LYS798  CYS799  TRP800  GLU811  SER814 

> <Gold.Protein.RotatedAtoms>
  152.4528  133.7662  159.6773 H   0  0  0  0  0  0  0  0  0  0  0  0  # atno 6907 bound_to 6896
  150.8444  133.7874  159.3055 H   0  0  0  0  0  0  0  0  0  0  0  0  # atno 6908 bound_to 6896
  151.5489  135.1070  159.9996 H   0  0  0  0  0  0  0  0  0  0  0  0  # atno 6909 bound_to 6896
  146.1759  139.7130  142.8935 H   0  0  0  0  0  0  0  0  0  0  0  0  # atno 7974 bound_to 7965
  156.2299  140.2966  156.0162 H   0  0  0  0  0  0  0  0  0  0  0  0  # atno 8008 bound_to 7997
  155.2254  140.0417  157.2971 H   0  0  0  0  0  0  0  0  0  0  0  0  # atno 8009 bound_to 7997
  154.5978  140.2419  155.7841 H   0  0  0  0  0  0  0  0  0  0  0  0  # atno 8010 bound_to 7997
  140.6346  143.2476  151.5151 H   0  0  0  0  0  0  0  0  0  0  0  0  # atno 10167 bound_to 10162
  156.3878  130.4367  149.7418 H   0  0  0  0  0  0  0  0  0  0  0  0  # atno 10718 bound_to 10713
  154.8269  135.3352  154.6867 H   0  0  0  0  0  0  0  0  0  0  0  0  # atno 10763 bound_to 10752
  153.7492  135.6940  153.4954 H   0  0  0  0  0  0  0  0  0  0  0  0  # atno 10764 bound_to 10752
  153.2189  135.4456  155.0416 H   0  0  0  0  0  0  0  0  0  0  0  0  # atno 10765 bound_to 10752
  139.9766  134.9561  156.9524 H   0  0  0  0  0  0  0  0  0  0  0  0  # atno 11005 bound_to 11000
  145.4212  141.0406  143.2962 LP  0  0  0  0  0  0  0  0  0  0  0  0  # atno 17320 bound_to 7965
  144.8236  139.5749  143.6976 LP  0  0  0  0  0  0  0  0  0  0  0  0  # atno 17321 bound_to 7965
  139.5557  144.2281  152.1608 LP  0  0  0  0  0  0  0  0  0  0  0  0  # atno 17342 bound_to 10162
  140.1534  144.5093  150.6674 LP  0  0  0  0  0  0  0  0  0  0  0  0  # atno 17343 bound_to 10162
  156.4484  130.7895  151.2916 LP  0  0  0  0  0  0  0  0  0  0  0  0  # atno 17370 bound_to 10713
  157.7497  131.0103  150.3301 LP  0  0  0  0  0  0  0  0  0  0  0  0  # atno 17371 bound_to 10713
  140.5183  134.0933  155.7286 LP  0  0  0  0  0  0  0  0  0  0  0  0  # atno 17394 bound_to 11000
  141.1442  133.9085  157.2255 LP  0  0  0  0  0  0  0  0  0  0  0  0  # atno 17395 bound_to 11000

$$$$
