AV-unprocessed.smi:3232|AV-procd|sdf|12340|dock8
  -GOLD-   2272018203D 1   1.00000     0.00000
 Structure written by MMmdl.
 40 41  0  0  0  0  0  0  0  0  2 V2000
  141.5591  134.8106  153.3065 C   0  0  0  0  0  0  0  0  0  0  0  0
  143.0757  134.9021  153.0827 C   0  0  0  0  0  0  0  0  0  0  0  0
  143.6689  133.5967  152.6880 N   0  3  1  0  0  0  0  0  0  0  0  0
  143.2442  133.1140  151.3529 C   0  0  0  0  0  0  0  0  0  0  0  0
  144.3597  132.1951  150.8694 C   0  0  0  0  0  0  0  0  0  0  0  0
  145.6010  132.8893  151.4063 C   0  0  0  0  0  0  0  0  0  0  0  0
  145.1554  133.4476  152.7693 C   0  0  1  0  0  0  0  0  0  0  0  0
  145.9512  134.6995  153.2193 C   0  0  0  0  0  0  0  0  0  0  0  0
  147.3893  134.4528  153.1877 N   0  0  0  0  0  0  0  0  0  0  0  0
  148.0267  133.4623  153.8334 C   0  0  0  0  0  0  0  0  0  0  0  0
  147.4387  132.5874  154.4701 O   0  0  0  0  0  0  0  0  0  0  0  0
  149.5619  133.4908  153.7668 C   0  0  2  0  0  0  0  0  0  0  0  0
  150.2138  132.2122  154.3311 C   0  0  0  0  0  0  0  0  0  0  0  0
  150.0650  134.6937  154.4194 N   0  0  0  0  0  0  0  0  0  0  0  0
  149.4147  135.6271  155.1175 C   0  0  0  0  0  0  0  0  0  0  0  0
  150.2011  136.5651  155.6261 N   0  0  0  0  0  0  0  0  0  0  0  0
  151.4105  136.1183  155.1750 C   0  0  0  0  0  0  0  0  0  0  0  0
  151.3873  134.9946  154.4589 N   0  0  0  0  0  0  0  0  0  0  0  0
  141.1669  135.7617  153.6674 H   0  0  0  0  0  0  0  0  0  0  0  0
  141.3142  134.0501  154.0485 H   0  0  0  0  0  0  0  0  0  0  0  0
  141.0263  134.5691  152.3864 H   0  0  0  0  0  0  0  0  0  0  0  0
  143.2952  135.6600  152.3295 H   0  0  0  0  0  0  0  0  0  0  0  0
  143.5226  135.2355  154.0188 H   0  0  0  0  0  0  0  0  0  0  0  0
  142.2801  132.6065  151.3945 H   0  0  0  0  0  0  0  0  0  0  0  0
  143.1514  133.9587  150.6680 H   0  0  0  0  0  0  0  0  0  0  0  0
  144.2576  131.2069  151.3200 H   0  0  0  0  0  0  0  0  0  0  0  0
  144.3734  132.0764  149.7856 H   0  0  0  0  0  0  0  0  0  0  0  0
  146.4592  132.2201  151.4823 H   0  0  0  0  0  0  0  0  0  0  0  0
  145.8724  133.7037  150.7331 H   0  0  0  0  0  0  0  0  0  0  0  0
  145.3204  132.6663  153.5126 H   0  0  0  0  0  0  0  0  0  0  0  0
  145.6957  135.5663  152.6080 H   0  0  0  0  0  0  0  0  0  0  0  0
  145.7037  134.9576  154.2487 H   0  0  0  0  0  0  0  0  0  0  0  0
  147.9523  135.1195  152.6794 H   0  0  0  0  0  0  0  0  0  0  0  0
  149.8371  133.5570  152.7129 H   0  0  0  0  0  0  0  0  0  0  0  0
  149.8702  131.3263  153.7961 H   0  0  0  0  0  0  0  0  0  0  0  0
  149.9872  132.0686  155.3884 H   0  0  0  0  0  0  0  0  0  0  0  0
  151.2988  132.2531  154.2299 H   0  0  0  0  0  0  0  0  0  0  0  0
  148.3446  135.6156  155.2651 H   0  0  0  0  0  0  0  0  0  0  0  0
  152.3368  136.6310  155.3892 H   0  0  0  0  0  0  0  0  0  0  0  0
  143.3095  132.9218  153.3481 H   0  0  0  0  0  0  0  0  0  0  0  0
  1  2  1  0  0  0  0
  1 19  1  0  0  0  0
  1 20  1  0  0  0  0
  1 21  1  0  0  0  0
  2  3  1  0  0  0  0
  2 22  1  0  0  0  0
  2 23  1  0  0  0  0
  3  7  1  0  0  0  0
  3  4  1  0  0  0  0
  3 40  1  0  0  0  0
  4  5  1  0  0  0  0
  4 24  1  0  0  0  0
  4 25  1  0  0  0  0
  5  6  1  0  0  0  0
  5 26  1  0  0  0  0
  5 27  1  0  0  0  0
  6  7  1  0  0  0  0
  6 28  1  0  0  0  0
  6 29  1  0  0  0  0
  7  8  1  0  0  0  0
  7 30  1  0  0  0  0
  8  9  1  0  0  0  0
  8 31  1  0  0  0  0
  8 32  1  0  0  0  0
  9 10  1  0  0  0  0
  9 33  1  0  0  0  0
 10 11  2  0  0  0  0
 10 12  1  0  0  0  0
 12 13  1  0  0  0  0
 12 14  1  0  0  0  0
 12 34  1  0  0  0  0
 13 35  1  0  0  0  0
 13 36  1  0  0  0  0
 13 37  1  0  0  0  0
 14 18  1  0  0  0  0
 14 15  1  0  0  0  0
 15 16  2  0  0  0  0
 15 38  1  0  0  0  0
 16 17  1  0  0  0  0
 17 18  2  0  0  0  0
 17 39  1  0  0  0  0
M  CHG  1   3   1
M  END
> <s_m_source_file>
AV-unprocessed.smi

> <i_m_source_file_index>
3232

> <i_lp_mmshare_version>
43012

> <i_f3d_flags>
0

> <s_epik_input>
W0NIM11bQ0gyXU4xW0NIMl1bQ0gyXVtDSDJdW0NASF0xW0NIMl1bTkhdQyg9TylbQ0BIXShbQ0gzXSluMltjSF1uW2NIXW4y

> <s_epik_cmdline>
J2VwaWtfcHl0aG9uJywgJy1waCcsICc3LjAnLCAnLXRuJywgJzgnLCAnLW1hJywgJzIwMCcsICctbWV0YWxfYmluZGluZycsICctaW1hZScsICc8aW5maWxlLm1hZT4nLCAnLW9tYWUnLCAnPG91dGZpbGUubWFlPic=

> <r_lp_tautomer_probability>
1

> <r_epik_Ionization_Penalty>
0.00177695

> <r_epik_Ionization_Penalty_Charging>
0.00176881

> <r_epik_Ionization_Penalty_Neutral>
8.13528e-06

> <r_epik_State_Penalty>
0.00119827

> <r_epik_Charging_Adjusted_Penalty>
0.00296709

> <i_epik_Tot_Q>
1

> <i_epik_Tot_abs_Q>
1

> <r_epik_Metal_State_Penalty>
-0

> <b_epik_Metal_Only>
0

> <s_lp_Force_Field>
OPLS_2005

> <r_lp_Energy>
36.2264

> <b_lp_Chiralities_Consistent>
1

> <s_lp_Variant>
AV-unprocessed.smi:3232-2

> <Gold.Version>
5.8.1

> <Gold.Id.Protein>
6NUR|6NUR_protein|mol2

> <Gold.PLP.Fitness>
39.5169

> <Gold.PLP.PLP>
-27.8334

> <Gold.PLP.part.hbond>
-3.0000

> <Gold.PLP.part.metal>
0.0000

> <Gold.PLP.part.buried>
-4.4782

> <Gold.PLP.part.nonpolar>
-20.9245

> <Gold.PLP.part.repulsive>
0.1740

> <Gold.PLP.ligand.clash>
0.0000

> <Gold.PLP.ligand.torsion>
0.2308

> <Gold.PLP.Chemscore.Hbond>
4.0000

> <Gold.PLP.Chemscore.CHOScore>
0.0000

> <Gold.PLP.Chemscore.Metal>
0.0000

> <Gold.Chemscore.Hbonds>
donor molecule, donor type, donor heavy atom, donor atom, acceptor molecule, acceptor atom, score
      L1  H     3    40       P1 10957  2.00
      L1  H     9    33       P1  7948  1.00

> <Gold.PLP.Chemscore.Internal.Correction>
0.1451

> <Gold.Rescore>
     Score         DG    S(hbond)    S(metal)    S(lipo)     H(rot)  DE(clash)    DE(int)     intcor
     13.96     -14.44       2.95        0.00      46.91       2.49       0.00       0.48       ----

> <Gold.Chemscore.Fitness>
13.9609

> <Gold.Chemscore.DG>
-14.4449

> <Gold.Chemscore.ZeroCoef>
-5.4800

> <Gold.Chemscore.Hbond>
2.9481

> <Gold.Chemscore.Metal>
0.0000

> <Gold.Chemscore.Lipo>
46.9058

> <Gold.Chemscore.Internal_Hbond>
0.0000

> <Gold.Chemscore.DEClash>
0.0029

> <Gold.Chemscore.DEInternal>
0.4811

> <Gold.Chemscore.Rot>
2.4882

> <Gold.Chemscore.Internal.Correction>
   9.000000E+99

> <Gold.Chemscore.Hbonds>
donor molecule, donor type, donor heavy atom, donor atom, acceptor molecule, acceptor atom, score
      L1  H     3    40       P1 10957  0.74
      L1  H     9    33       P1  7948  0.97

> <Gold.Chemscore.Hbond.Weighted>
-9.8467

> <Gold.Chemscore.Metal.Weighted>
-0.0000

> <Gold.Chemscore.Lipo.Weighted>
-5.4880

> <Gold.Chemscore.Internal_Hbond.Weighted>
0.0000

> <Gold.Chemscore.DEClash.Weighted>
0.0029

> <Gold.Chemscore.DEInternal.Weighted>
0.4811

> <Gold.Chemscore.Rot.Weighted>
6.3697

> <Gold.Chemscore.Internal.Correction.Weighted>
   9.000000E+99

> <Gold.Protein.RotatedTorsions>
[ 6907 6896 6895 6894 ] final   18.19 input  -60.11 | X-H torsion
[ 7974 7965 7964 7962 ] final  -15.81 input  175.53 | X-H torsion
[ 8008 7997 7996 7995 ] final -142.86 input   59.86 | X-H torsion
[ 10167 10162 10161 10158 ] final   35.81 input  -65.29 | X-H torsion
[ 10718 10713 10712 10709 ] final -115.39 input   66.30 | X-H torsion
[ 10763 10752 10751 10750 ] final  -59.14 input  -60.55 | X-H torsion
[ 11005 11000 10999 10996 ] final  -14.04 input  -57.11 | X-H torsion

> <Gold.Protein.ActiveResidues>
 VAL166  LYS551  ARG553  GLY616  TRP617  ASP618  TYR619  PRO620  LYS621  CYS622 
 ASP623  PHE694  ASN695  SER759  ASP760  ASP761  ALA762  ILE779  LEU786  VAL792 
 PHE793  MET794  SER795  GLU796  ALA797  LYS798  CYS799  TRP800  GLU811  SER814 

> <Gold.Protein.RotatedAtoms>
  151.8614  135.0523  160.0469 H   0  0  0  0  0  0  0  0  0  0  0  0  # atno 6907 bound_to 6896
  152.2660  133.5335  159.5418 H   0  0  0  0  0  0  0  0  0  0  0  0  # atno 6908 bound_to 6896
  150.7134  134.0680  159.3897 H   0  0  0  0  0  0  0  0  0  0  0  0  # atno 6909 bound_to 6896
  146.2015  140.3546  142.8421 H   0  0  0  0  0  0  0  0  0  0  0  0  # atno 7974 bound_to 7965
  155.5011  140.0575  157.2939 H   0  0  0  0  0  0  0  0  0  0  0  0  # atno 8008 bound_to 7997
  154.4587  140.1985  156.0256 H   0  0  0  0  0  0  0  0  0  0  0  0  # atno 8009 bound_to 7997
  156.0848  140.3242  155.7744 H   0  0  0  0  0  0  0  0  0  0  0  0  # atno 8010 bound_to 7997
  140.4187  144.1491  150.6146 H   0  0  0  0  0  0  0  0  0  0  0  0  # atno 10167 bound_to 10162
  156.0892  130.6078  150.8899 H   0  0  0  0  0  0  0  0  0  0  0  0  # atno 10718 bound_to 10713
  154.2491  135.6329  153.5234 H   0  0  0  0  0  0  0  0  0  0  0  0  # atno 10763 bound_to 10752
  152.9915  135.5560  154.5827 H   0  0  0  0  0  0  0  0  0  0  0  0  # atno 10764 bound_to 10752
  154.5350  135.2891  155.1121 H   0  0  0  0  0  0  0  0  0  0  0  0  # atno 10765 bound_to 10752
  140.7823  133.8353  155.9303 H   0  0  0  0  0  0  0  0  0  0  0  0  # atno 11005 bound_to 11000
  144.8695  140.7253  143.6056 LP  0  0  0  0  0  0  0  0  0  0  0  0  # atno 17320 bound_to 7965
  145.3466  139.1717  143.4457 LP  0  0  0  0  0  0  0  0  0  0  0  0  # atno 17321 bound_to 7965
  140.4558  143.2468  151.9286 LP  0  0  0  0  0  0  0  0  0  0  0  0  # atno 17342 bound_to 10162
  139.4782  144.5517  151.8376 LP  0  0  0  0  0  0  0  0  0  0  0  0  # atno 17343 bound_to 10162
  157.6036  131.0940  150.8917 LP  0  0  0  0  0  0  0  0  0  0  0  0  # atno 17370 bound_to 10713
  156.9069  130.5267  149.5281 LP  0  0  0  0  0  0  0  0  0  0  0  0  # atno 17371 bound_to 10713
  140.9471  134.1827  157.4755 LP  0  0  0  0  0  0  0  0  0  0  0  0  # atno 17394 bound_to 11000
  139.8741  134.9894  156.5458 LP  0  0  0  0  0  0  0  0  0  0  0  0  # atno 17395 bound_to 11000

$$$$
