AV-unprocessed.smi:3331|AV-procd|sdf|12818|dock3
  -GOLD-   2272019193D 1   1.00000     0.00000
 Structure written by MMmdl.
 47 48  0  0  0  0  0  0  0  0  2 V2000
  143.8035  132.6989  148.6052 C   0  0  0  0  0  0  0  0  0  0  0  0
  144.2997  132.6361  150.0564 C   0  0  2  0  0  0  0  0  0  0  0  0
  144.0684  133.9750  150.7936 C   0  0  0  0  0  0  0  0  0  0  0  0
  144.6807  133.9824  152.2128 C   0  0  2  0  0  0  0  0  0  0  0  0
  144.5505  135.3603  152.8759 C   0  0  0  0  0  0  0  0  0  0  0  0
  146.1491  133.5157  152.1500 C   0  0  0  0  0  0  0  0  0  0  0  0
  146.1848  132.1787  151.5443 N   0  0  0  0  0  0  0  0  0  0  0  0
  146.3860  131.0072  152.1985 C   0  0  0  0  0  0  0  0  0  0  0  0
  146.5957  130.9656  153.4124 O   0  0  0  0  0  0  0  0  0  0  0  0
  146.3568  129.6724  151.4232 C   0  0  2  0  0  0  0  0  0  0  0  0
  145.2728  128.7485  152.0016 C   0  0  0  0  0  0  0  0  0  0  0  0
  147.6678  128.9828  151.4671 N   0  3  0  0  0  0  0  0  0  0  0  0
  147.7046  127.6690  150.7894 C   0  0  0  0  0  0  0  0  0  0  0  0
  148.7994  126.7729  151.3846 C   0  0  0  0  0  0  0  0  0  0  0  0
  149.1881  125.7195  150.4669 N   0  0  0  0  0  0  0  0  0  0  0  0
  150.4210  125.4935  149.8917 C   0  0  0  0  0  0  0  0  0  0  0  0
  150.3035  124.3851  149.1028 C   0  0  0  0  0  0  0  0  0  0  0  0
  148.9443  123.9966  149.2655 C   0  0  0  0  0  0  0  0  0  0  0  0
  148.2794  124.7969  150.0838 N   0  0  0  0  0  0  0  0  0  0  0  0
  145.7879  132.2321  150.1319 C   0  0  0  0  0  0  0  0  0  0  0  0
  144.3501  133.4475  148.0308 H   0  0  0  0  0  0  0  0  0  0  0  0
  142.7445  132.9547  148.5633 H   0  0  0  0  0  0  0  0  0  0  0  0
  143.9301  131.7381  148.1058 H   0  0  0  0  0  0  0  0  0  0  0  0
  143.7181  131.8676  150.5681 H   0  0  0  0  0  0  0  0  0  0  0  0
  144.5130  134.7830  150.2105 H   0  0  0  0  0  0  0  0  0  0  0  0
  143.0004  134.1895  150.8478 H   0  0  0  0  0  0  0  0  0  0  0  0
  144.1253  133.2700  152.8250 H   0  0  0  0  0  0  0  0  0  0  0  0
  145.0894  136.1235  152.3136 H   0  0  0  0  0  0  0  0  0  0  0  0
  144.9513  135.3475  153.8898 H   0  0  0  0  0  0  0  0  0  0  0  0
  143.5061  135.6677  152.9384 H   0  0  0  0  0  0  0  0  0  0  0  0
  146.7300  134.2033  151.5330 H   0  0  0  0  0  0  0  0  0  0  0  0
  146.6166  133.5650  153.1313 H   0  0  0  0  0  0  0  0  0  0  0  0
  146.1447  129.8480  150.3692 H   0  0  0  0  0  0  0  0  0  0  0  0
  144.2892  129.2188  151.9807 H   0  0  0  0  0  0  0  0  0  0  0  0
  145.4872  128.4793  153.0369 H   0  0  0  0  0  0  0  0  0  0  0  0
  145.2016  127.8240  151.4278 H   0  0  0  0  0  0  0  0  0  0  0  0
  148.3614  129.5891  151.0522 H   0  0  0  0  0  0  0  0  0  0  0  0
  146.7305  127.1885  150.8915 H   0  0  0  0  0  0  0  0  0  0  0  0
  147.8838  127.8078  149.7226 H   0  0  0  0  0  0  0  0  0  0  0  0
  149.6830  127.3647  151.6277 H   0  0  0  0  0  0  0  0  0  0  0  0
  148.4584  126.3138  152.3137 H   0  0  0  0  0  0  0  0  0  0  0  0
  151.2695  126.1324  150.0878 H   0  0  0  0  0  0  0  0  0  0  0  0
  151.0718  123.9215  148.5018 H   0  0  0  0  0  0  0  0  0  0  0  0
  148.4253  123.1628  148.8162 H   0  0  0  0  0  0  0  0  0  0  0  0
  145.9468  131.2854  149.6134 H   0  0  0  0  0  0  0  0  0  0  0  0
  146.4067  132.9606  149.6059 H   0  0  0  0  0  0  0  0  0  0  0  0
  147.9085  128.8317  152.4362 H   0  0  0  0  0  0  0  0  0  0  0  0
  1  2  1  0  0  0  0
  1 21  1  0  0  0  0
  1 22  1  0  0  0  0
  1 23  1  0  0  0  0
  2 20  1  0  0  0  0
  2  3  1  0  0  0  0
  2 24  1  0  0  0  0
  3  4  1  0  0  0  0
  3 25  1  0  0  0  0
  3 26  1  0  0  0  0
  4  5  1  0  0  0  0
  4  6  1  0  0  0  0
  4 27  1  0  0  0  0
  5 28  1  0  0  0  0
  5 29  1  0  0  0  0
  5 30  1  0  0  0  0
  6  7  1  0  0  0  0
  6 31  1  0  0  0  0
  6 32  1  0  0  0  0
  7  8  1  0  0  0  0
  7 20  1  0  0  0  0
  8  9  2  0  0  0  0
  8 10  1  0  0  0  0
 10 11  1  0  0  0  0
 10 12  1  0  0  0  0
 10 33  1  0  0  0  0
 11 34  1  0  0  0  0
 11 35  1  0  0  0  0
 11 36  1  0  0  0  0
 12 13  1  0  0  0  0
 12 37  1  0  0  0  0
 12 47  1  0  0  0  0
 13 14  1  0  0  0  0
 13 38  1  0  0  0  0
 13 39  1  0  0  0  0
 14 15  1  0  0  0  0
 14 40  1  0  0  0  0
 14 41  1  0  0  0  0
 15 19  1  0  0  0  0
 15 16  1  0  0  0  0
 16 17  2  0  0  0  0
 16 42  1  0  0  0  0
 17 18  1  0  0  0  0
 17 43  1  0  0  0  0
 18 19  2  0  0  0  0
 18 44  1  0  0  0  0
 20 45  1  0  0  0  0
 20 46  1  0  0  0  0
M  CHG  1  12   1
M  END
> <s_m_source_file>
AV-unprocessed.smi

> <i_m_source_file_index>
3331

> <i_lp_mmshare_version>
43012

> <i_f3d_flags>
0

> <s_epik_input>
W0NIM11bQ0BASF0xW0NIMl1bQ0BASF0oW0NIM10pW0NIMl1OKFtDSDJdMSlDKD1PKVtDQEhdKFtDSDNdKVtOSF1bQ0gyXVtDSDJdbjJbY0hdW2NIXVtjSF1uMg==

> <s_epik_cmdline>
J2VwaWtfcHl0aG9uJywgJy1waCcsICc3LjAnLCAnLXRuJywgJzgnLCAnLW1hJywgJzIwMCcsICctbWV0YWxfYmluZGluZycsICctaW1hZScsICc8aW5maWxlLm1hZT4nLCAnLW9tYWUnLCAnPG91dGZpbGUubWFlPic=

> <r_lp_tautomer_probability>
1

> <r_epik_Ionization_Penalty>
0.189706

> <r_epik_Ionization_Penalty_Charging>
0.189703

> <r_epik_Ionization_Penalty_Neutral>
2.45875e-06

> <r_epik_State_Penalty>
0.179341

> <r_epik_Charging_Adjusted_Penalty>
0.369044

> <i_epik_Tot_Q>
1

> <i_epik_Tot_abs_Q>
1

> <r_epik_Metal_State_Penalty>
0.179578

> <b_epik_Metal_Only>
0

> <s_lp_Force_Field>
OPLS_2005

> <r_lp_Energy>
26.1648

> <b_lp_Chiralities_Consistent>
1

> <s_lp_Variant>
AV-unprocessed.smi:3331-2

> <Gold.Version>
5.8.1

> <Gold.Id.Protein>
6NUR|6NUR_protein|mol2

> <Gold.PLP.Fitness>
50.8254

> <Gold.PLP.PLP>
-45.3197

> <Gold.PLP.part.hbond>
-1.0000

> <Gold.PLP.part.metal>
0.0000

> <Gold.PLP.part.buried>
-4.6242

> <Gold.PLP.part.nonpolar>
-38.7927

> <Gold.PLP.part.repulsive>
0.2974

> <Gold.PLP.ligand.clash>
0.0000

> <Gold.PLP.ligand.torsion>
0.2839

> <Gold.PLP.Chemscore.Hbond>
1.0000

> <Gold.PLP.Chemscore.CHOScore>
1.0000

> <Gold.PLP.Chemscore.Metal>
0.0000

> <Gold.Chemscore.Hbonds>
donor molecule, donor type, donor heavy atom, donor atom, acceptor molecule, acceptor atom, score
      L1  H    12    37       P1 10747  1.00
      L1  C    16    42       P1 10737  1.00

> <Gold.PLP.Chemscore.Internal.Correction>
0.0734

> <Gold.Rescore>
     Score         DG    S(hbond)    S(metal)    S(lipo)     H(rot)  DE(clash)    DE(int)     intcor
     14.22     -14.57       0.29        0.00     107.25       1.73       0.00       0.36       ----

> <Gold.Chemscore.Fitness>
14.2165

> <Gold.Chemscore.DG>
-14.5733

> <Gold.Chemscore.ZeroCoef>
-5.4800

> <Gold.Chemscore.Hbond>
0.2879

> <Gold.Chemscore.Metal>
0.0000

> <Gold.Chemscore.Lipo>
107.2549

> <Gold.Chemscore.Internal_Hbond>
0.0000

> <Gold.Chemscore.DEClash>
0.0000

> <Gold.Chemscore.DEInternal>
0.3569

> <Gold.Chemscore.Rot>
1.7254

> <Gold.Chemscore.Internal.Correction>
   9.000000E+99

> <Gold.Chemscore.Hbonds>
donor molecule, donor type, donor heavy atom, donor atom, acceptor molecule, acceptor atom, score
      L1  H    12    37       P1 10747  0.29

> <Gold.Chemscore.Hbond.Weighted>
-0.9615

> <Gold.Chemscore.Metal.Weighted>
-0.0000

> <Gold.Chemscore.Lipo.Weighted>
-12.5488

> <Gold.Chemscore.Internal_Hbond.Weighted>
0.0000

> <Gold.Chemscore.DEClash.Weighted>
0.0000

> <Gold.Chemscore.DEInternal.Weighted>
0.3569

> <Gold.Chemscore.Rot.Weighted>
4.4170

> <Gold.Chemscore.Internal.Correction.Weighted>
   9.000000E+99

> <Gold.Protein.RotatedTorsions>
[ 6907 6896 6895 6894 ] final -171.24 input  -60.11 | X-H torsion
[ 7974 7965 7964 7962 ] final  -61.14 input  175.53 | X-H torsion
[ 8008 7997 7996 7995 ] final   91.58 input   59.86 | X-H torsion
[ 10167 10162 10161 10158 ] final -147.35 input  -65.29 | X-H torsion
[ 10718 10713 10712 10709 ] final -134.09 input   66.30 | X-H torsion
[ 10763 10752 10751 10750 ] final -161.42 input  -60.55 | X-H torsion
[ 11005 11000 10999 10996 ] final  131.03 input  -57.11 | X-H torsion

> <Gold.Protein.ActiveResidues>
 VAL166  LYS551  ARG553  GLY616  TRP617  ASP618  TYR619  PRO620  LYS621  CYS622 
 ASP623  PHE694  ASN695  SER759  ASP760  ASP761  ALA762  ILE779  LEU786  VAL792 
 PHE793  MET794  SER795  GLU796  ALA797  LYS798  CYS799  TRP800  GLU811  SER814 

> <Gold.Protein.RotatedAtoms>
  151.5206  133.3467  159.2900 H   0  0  0  0  0  0  0  0  0  0  0  0  # atno 6907 bound_to 6896
  150.8655  134.8019  159.7126 H   0  0  0  0  0  0  0  0  0  0  0  0  # atno 6908 bound_to 6896
  152.4661  134.5082  159.9797 H   0  0  0  0  0  0  0  0  0  0  0  0  # atno 6909 bound_to 6896
  145.8070  140.8621  143.0202 H   0  0  0  0  0  0  0  0  0  0  0  0  # atno 7974 bound_to 7965
  156.0255  140.3336  155.7083 H   0  0  0  0  0  0  0  0  0  0  0  0  # atno 8008 bound_to 7997
  155.5961  140.0651  157.2763 H   0  0  0  0  0  0  0  0  0  0  0  0  # atno 8009 bound_to 7997
  154.4332  140.1818  156.1113 H   0  0  0  0  0  0  0  0  0  0  0  0  # atno 8010 bound_to 7997
  139.7630  143.8349  152.2611 H   0  0  0  0  0  0  0  0  0  0  0  0  # atno 10167 bound_to 10162
  156.2518  130.7158  151.1059 H   0  0  0  0  0  0  0  0  0  0  0  0  # atno 10718 bound_to 10713
  154.7305  135.3045  154.8900 H   0  0  0  0  0  0  0  0  0  0  0  0  # atno 10763 bound_to 10752
  153.9744  135.6738  153.4752 H   0  0  0  0  0  0  0  0  0  0  0  0  # atno 10764 bound_to 10752
  153.0914  135.4958  154.8617 H   0  0  0  0  0  0  0  0  0  0  0  0  # atno 10765 bound_to 10752
  139.9706  134.9578  156.9379 H   0  0  0  0  0  0  0  0  0  0  0  0  # atno 11005 bound_to 11000
  144.6762  140.0341  143.7482 LP  0  0  0  0  0  0  0  0  0  0  0  0  # atno 17320 bound_to 7965
  145.9818  139.2947  143.1037 LP  0  0  0  0  0  0  0  0  0  0  0  0  # atno 17321 bound_to 7965
  139.8361  144.7231  150.9389 LP  0  0  0  0  0  0  0  0  0  0  0  0  # atno 17342 bound_to 10162
  140.7808  143.4026  151.1124 LP  0  0  0  0  0  0  0  0  0  0  0  0  # atno 17343 bound_to 10162
  157.7217  131.0677  150.6106 LP  0  0  0  0  0  0  0  0  0  0  0  0  # atno 17370 bound_to 10713
  156.6187  130.4400  149.5831 LP  0  0  0  0  0  0  0  0  0  0  0  0  # atno 17371 bound_to 10713
  140.5301  134.0821  155.7313 LP  0  0  0  0  0  0  0  0  0  0  0  0  # atno 17394 bound_to 11000
  141.1386  133.9178  157.2378 LP  0  0  0  0  0  0  0  0  0  0  0  0  # atno 17395 bound_to 11000

$$$$
