AV-unprocessed.smi:1552|AV-procd|sdf|6237|dock8
  -GOLD-   22720 6423D 1   1.00000     0.00000
 Structure written by MMmdl.
 49 50  0  0  0  0  0  0  0  0  3 V2000
  146.8228  138.9664  151.9092 C   0  0  0  0  0  0  0  0  0  0  0  0
  146.7804  137.7388  152.7361 N   0  3  0  0  0  0  0  0  0  0  0  0
  145.4957  137.0161  152.5618 C   0  0  0  0  0  0  0  0  0  0  0  0
  147.2218  137.9746  154.1475 C   0  0  1  0  0  0  0  0  0  0  0  0
  147.3569  136.6731  154.9790 C   0  0  0  0  0  0  0  0  0  0  0  0
  147.7305  135.5351  154.1477 N   0  0  0  0  0  0  0  0  0  0  0  0
  147.4398  134.2450  154.3785 C   0  0  0  0  0  0  0  0  0  0  0  0
  146.8194  133.9146  155.3877 O   0  0  0  0  0  0  0  0  0  0  0  0
  147.9227  133.1737  153.3804 C   0  0  0  0  0  0  0  0  0  0  0  0
  146.8625  132.7216  152.4653 N   0  0  0  0  0  0  0  0  0  0  0  0
  146.3978  133.6308  151.4990 C   0  0  0  0  0  0  0  0  0  0  0  0
  145.4310  133.3014  150.6212 C   0  0  0  0  0  0  0  0  0  0  0  0
  144.8626  131.9608  150.6907 C   0  0  0  0  0  0  0  0  0  0  0  0
  143.9751  131.6447  149.9008 O   0  0  0  0  0  0  0  0  0  0  0  0
  145.3510  131.1129  151.6428 N   0  5  0  0  0  0  0  0  0  0  0  0
  146.3365  131.4608  152.5273 C   0  0  0  0  0  0  0  0  0  0  0  0
  146.7654  130.6799  153.3782 O   0  0  0  0  0  0  0  0  0  0  0  0
  148.4606  138.9146  154.2113 C   0  0  0  0  0  0  0  0  0  0  0  0
  149.6010  138.3182  155.0665 C   0  0  0  0  0  0  0  0  0  0  0  0
  150.8605  139.1994  155.0259 C   0  0  0  0  0  0  0  0  0  0  0  0
  150.5491  140.6408  155.4565 C   0  0  0  0  0  0  0  0  0  0  0  0
  149.4176  141.2404  154.6075 C   0  0  0  0  0  0  0  0  0  0  0  0
  148.1578  140.3614  154.6615 C   0  0  0  0  0  0  0  0  0  0  0  0
  146.1160  139.7104  152.2791 H   0  0  0  0  0  0  0  0  0  0  0  0
  146.5720  138.7427  150.8718 H   0  0  0  0  0  0  0  0  0  0  0  0
  147.8209  139.4056  151.9161 H   0  0  0  0  0  0  0  0  0  0  0  0
  144.6457  137.6431  152.8340 H   0  0  0  0  0  0  0  0  0  0  0  0
  145.4517  136.1066  153.1588 H   0  0  0  0  0  0  0  0  0  0  0  0
  145.3691  136.7246  151.5187 H   0  0  0  0  0  0  0  0  0  0  0  0
  146.4263  138.5405  154.6361 H   0  0  0  0  0  0  0  0  0  0  0  0
  148.1238  136.8065  155.7436 H   0  0  0  0  0  0  0  0  0  0  0  0
  146.4242  136.4377  155.4924 H   0  0  0  0  0  0  0  0  0  0  0  0
  148.2681  135.7403  153.3178 H   0  0  0  0  0  0  0  0  0  0  0  0
  148.7644  133.5377  152.7903 H   0  0  0  0  0  0  0  0  0  0  0  0
  148.3165  132.3323  153.9523 H   0  0  0  0  0  0  0  0  0  0  0  0
  146.8750  134.5997  151.5113 H   0  0  0  0  0  0  0  0  0  0  0  0
  145.0868  134.0104  149.8826 H   0  0  0  0  0  0  0  0  0  0  0  0
  148.8585  138.9833  153.1981 H   0  0  0  0  0  0  0  0  0  0  0  0
  149.2766  138.2072  156.1017 H   0  0  0  0  0  0  0  0  0  0  0  0
  149.8515  137.3175  154.7130 H   0  0  0  0  0  0  0  0  0  0  0  0
  151.6306  138.7771  155.6723 H   0  0  0  0  0  0  0  0  0  0  0  0
  151.2730  139.2016  154.0161 H   0  0  0  0  0  0  0  0  0  0  0  0
  150.2638  140.6550  156.5092 H   0  0  0  0  0  0  0  0  0  0  0  0
  151.4452  141.2560  155.3709 H   0  0  0  0  0  0  0  0  0  0  0  0
  149.1848  142.2464  154.9577 H   0  0  0  0  0  0  0  0  0  0  0  0
  149.7496  141.3432  153.5735 H   0  0  0  0  0  0  0  0  0  0  0  0
  147.3848  140.8051  154.0339 H   0  0  0  0  0  0  0  0  0  0  0  0
  147.7777  140.3662  155.6827 H   0  0  0  0  0  0  0  0  0  0  0  0
  147.4884  137.1360  152.3415 H   0  0  0  0  0  0  0  0  0  0  0  0
  1  2  1  0  0  0  0
  1 24  1  0  0  0  0
  1 25  1  0  0  0  0
  1 26  1  0  0  0  0
  2  3  1  0  0  0  0
  2  4  1  0  0  0  0
  2 49  1  0  0  0  0
  3 27  1  0  0  0  0
  3 28  1  0  0  0  0
  3 29  1  0  0  0  0
  4  5  1  0  0  0  0
  4 18  1  0  0  0  0
  4 30  1  0  0  0  0
  5  6  1  0  0  0  0
  5 31  1  0  0  0  0
  5 32  1  0  0  0  0
  6  7  1  0  0  0  0
  6 33  1  0  0  0  0
  7  8  2  0  0  0  0
  7  9  1  0  0  0  0
  9 10  1  0  0  0  0
  9 34  1  0  0  0  0
  9 35  1  0  0  0  0
 10 16  1  0  0  0  0
 10 11  1  0  0  0  0
 11 12  2  0  0  0  0
 11 36  1  0  0  0  0
 12 13  1  0  0  0  0
 12 37  1  0  0  0  0
 13 14  2  0  0  0  0
 13 15  1  0  0  0  0
 15 16  1  0  0  0  0
 16 17  2  0  0  0  0
 18 23  1  0  0  0  0
 18 19  1  0  0  0  0
 18 38  1  0  0  0  0
 19 20  1  0  0  0  0
 19 39  1  0  0  0  0
 19 40  1  0  0  0  0
 20 21  1  0  0  0  0
 20 41  1  0  0  0  0
 20 42  1  0  0  0  0
 21 22  1  0  0  0  0
 21 43  1  0  0  0  0
 21 44  1  0  0  0  0
 22 23  1  0  0  0  0
 22 45  1  0  0  0  0
 22 46  1  0  0  0  0
 23 47  1  0  0  0  0
 23 48  1  0  0  0  0
M  CHG  1   2   1
M  CHG  1  15  -1
M  END
> <s_m_source_file>
AV-unprocessed.smi

> <i_m_source_file_index>
1552

> <i_lp_mmshare_version>
43012

> <i_f3d_flags>
0

> <s_epik_input>
W0NIMl0xW0NIMl1bQ0gyXVtDSDJdW0NIMl1bQ0hdMVtDQEhdKE4oW0NIM10pW0NIM10pW0NIMl1bTkhdQyg9TylbQ0gyXW4yW2NIXVtjSF1jKD1PKVtuSF1jMj1P

> <s_epik_cmdline>
J2VwaWtfcHl0aG9uJywgJy1waCcsICc3LjAnLCAnLXRuJywgJzgnLCAnLW1hJywgJzIwMCcsICctbWV0YWxfYmluZGluZycsICctaW1hZScsICc8aW5maWxlLm1hZT4nLCAnLW9tYWUnLCAnPG91dGZpbGUubWFlPic=

> <r_lp_tautomer_probability>
1

> <r_epik_Ionization_Penalty>
2.93575

> <r_epik_Ionization_Penalty_Charging>
0.00331645

> <r_epik_Ionization_Penalty_Neutral>
2.93244

> <r_epik_State_Penalty>
2.92822

> <r_epik_Charging_Adjusted_Penalty>
2.93154

> <i_epik_Tot_Q>
0

> <i_epik_Tot_abs_Q>
2

> <r_epik_Metal_State_Penalty>
0.448509

> <b_epik_Metal_Only>
1

> <s_lp_Force_Field>
OPLS_2005

> <r_lp_Energy>
36.4882

> <b_lp_Chiralities_Consistent>
1

> <s_lp_Variant>
AV-unprocessed.smi:1552-4

> <Gold.Version>
5.8.1

> <Gold.Id.Protein>
6NUR|6NUR_protein|mol2

> <Gold.PLP.Fitness>
46.7151

> <Gold.PLP.PLP>
-37.5363

> <Gold.PLP.part.hbond>
-3.0000

> <Gold.PLP.part.metal>
0.0000

> <Gold.PLP.part.buried>
-3.8890

> <Gold.PLP.part.nonpolar>
-31.8245

> <Gold.PLP.part.repulsive>
0.5105

> <Gold.PLP.ligand.clash>
0.0000

> <Gold.PLP.ligand.torsion>
2.5216

> <Gold.PLP.Chemscore.Hbond>
3.6389

> <Gold.PLP.Chemscore.CHOScore>
1.0000

> <Gold.PLP.Chemscore.Metal>
0.0000

> <Gold.Chemscore.Hbonds>
donor molecule, donor type, donor heavy atom, donor atom, acceptor molecule, acceptor atom, score
      L1  H     2    49       P1  7948  2.00
      L1  H     6    33       P1  7948  1.00
      P1  H 10785 10796       L1    14  0.71
      L1  C    11    36       P1  7948  0.79

> <Gold.PLP.Chemscore.Internal.Correction>
0.3054

> <Gold.Rescore>
     Score         DG    S(hbond)    S(metal)    S(lipo)     H(rot)  DE(clash)    DE(int)     intcor
     14.27     -17.03       2.80        0.00      72.09       2.43       0.06       2.70       ----

> <Gold.Chemscore.Fitness>
14.2688

> <Gold.Chemscore.DG>
-17.0313

> <Gold.Chemscore.ZeroCoef>
-5.4800

> <Gold.Chemscore.Hbond>
2.7959

> <Gold.Chemscore.Metal>
0.0000

> <Gold.Chemscore.Lipo>
72.0936

> <Gold.Chemscore.Internal_Hbond>
0.0000

> <Gold.Chemscore.DEClash>
0.0589

> <Gold.Chemscore.DEInternal>
2.7036

> <Gold.Chemscore.Rot>
2.4305

> <Gold.Chemscore.Internal.Correction>
   9.000000E+99

> <Gold.Chemscore.Hbonds>
donor molecule, donor type, donor heavy atom, donor atom, acceptor molecule, acceptor atom, score
      L1  H     2    49       P1  7948  1.00
      L1  H     6    33       P1  7948  1.00
      P1  H 10785 10796       L1    14  0.67

> <Gold.Chemscore.Hbond.Weighted>
-9.3384

> <Gold.Chemscore.Metal.Weighted>
-0.0000

> <Gold.Chemscore.Lipo.Weighted>
-8.4349

> <Gold.Chemscore.Internal_Hbond.Weighted>
0.0000

> <Gold.Chemscore.DEClash.Weighted>
0.0589

> <Gold.Chemscore.DEInternal.Weighted>
2.7036

> <Gold.Chemscore.Rot.Weighted>
6.2220

> <Gold.Chemscore.Internal.Correction.Weighted>
   9.000000E+99

> <Gold.Protein.RotatedTorsions>
[ 6907 6896 6895 6894 ] final -103.14 input  -60.11 | X-H torsion
[ 7974 7965 7964 7962 ] final  -84.69 input  175.53 | X-H torsion
[ 8008 7997 7996 7995 ] final   14.96 input   59.86 | X-H torsion
[ 10167 10162 10161 10158 ] final   86.64 input  -65.29 | X-H torsion
[ 10718 10713 10712 10709 ] final  175.52 input   66.30 | X-H torsion
[ 10763 10752 10751 10750 ] final -111.70 input  -60.55 | X-H torsion
[ 11005 11000 10999 10996 ] final  -80.62 input  -57.11 | X-H torsion

> <Gold.Protein.ActiveResidues>
 VAL166  LYS551  ARG553  GLY616  TRP617  ASP618  TYR619  PRO620  LYS621  CYS622 
 ASP623  PHE694  ASN695  SER759  ASP760  ASP761  ALA762  ILE779  LEU786  VAL792 
 PHE793  MET794  SER795  GLU796  ALA797  LYS798  CYS799  TRP800  GLU811  SER814 

> <Gold.Protein.RotatedAtoms>
  150.7227  134.0474  159.3786 H   0  0  0  0  0  0  0  0  0  0  0  0  # atno 6907 bound_to 6896
  151.8450  135.0575  160.0462 H   0  0  0  0  0  0  0  0  0  0  0  0  # atno 6908 bound_to 6896
  152.2834  133.5456  159.5548 H   0  0  0  0  0  0  0  0  0  0  0  0  # atno 6909 bound_to 6896
  145.5033  140.9545  143.1748 H   0  0  0  0  0  0  0  0  0  0  0  0  # atno 7974 bound_to 7965
  154.8559  140.2937  155.5569 H   0  0  0  0  0  0  0  0  0  0  0  0  # atno 8008 bound_to 7997
  156.3018  140.2487  156.3457 H   0  0  0  0  0  0  0  0  0  0  0  0  # atno 8009 bound_to 7997
  154.8971  140.0392  157.1861 H   0  0  0  0  0  0  0  0  0  0  0  0  # atno 8010 bound_to 7997
  139.8855  144.6415  150.8796 H   0  0  0  0  0  0  0  0  0  0  0  0  # atno 10167 bound_to 10162
  156.9336  130.9979  151.2982 H   0  0  0  0  0  0  0  0  0  0  0  0  # atno 10718 bound_to 10713
  154.8313  135.4518  154.1080 H   0  0  0  0  0  0  0  0  0  0  0  0  # atno 10763 bound_to 10752
  153.2350  135.6910  153.7853 H   0  0  0  0  0  0  0  0  0  0  0  0  # atno 10764 bound_to 10752
  153.7221  135.3340  155.3245 H   0  0  0  0  0  0  0  0  0  0  0  0  # atno 10765 bound_to 10752
  141.1668  133.7158  156.8300 H   0  0  0  0  0  0  0  0  0  0  0  0  # atno 11005 bound_to 11000
  144.7768  139.6612  143.7171 LP  0  0  0  0  0  0  0  0  0  0  0  0  # atno 17320 bound_to 7965
  146.2213  139.5640  142.9617 LP  0  0  0  0  0  0  0  0  0  0  0  0  # atno 17321 bound_to 7965
  140.7736  143.3551  151.1937 LP  0  0  0  0  0  0  0  0  0  0  0  0  # atno 17342 bound_to 10162
  139.7157  143.9305  152.2965 LP  0  0  0  0  0  0  0  0  0  0  0  0  # atno 17343 bound_to 10162
  157.5830  130.8390  149.8550 LP  0  0  0  0  0  0  0  0  0  0  0  0  # atno 17370 bound_to 10713
  156.0436  130.3733  150.1374 LP  0  0  0  0  0  0  0  0  0  0  0  0  # atno 17371 bound_to 10713
  140.2058  134.8864  157.3220 LP  0  0  0  0  0  0  0  0  0  0  0  0  # atno 17394 bound_to 11000
  140.2139  134.4105  155.7599 LP  0  0  0  0  0  0  0  0  0  0  0  0  # atno 17395 bound_to 11000

$$$$
