AV-unprocessed.smi:1491|AV-procd|sdf|6034|dock2
  -GOLD-   22720 6133D 1   1.00000     0.00000
 Structure written by MMmdl.
 38 39  0  0  0  0  0  0  0  0  1 V2000
  145.0164  136.0445  153.6622 O   0  0  0  0  0  0  0  0  0  0  0  0
  146.1561  135.9654  153.2034 C   0  0  0  0  0  0  0  0  0  0  0  0
  147.1309  136.8499  153.4585 N   0  0  0  0  0  0  0  0  0  0  0  0
  147.0065  138.0110  154.3347 C   0  0  0  0  0  0  0  0  0  0  0  0
  147.6884  139.2575  153.7402 C   0  0  0  0  0  0  0  0  0  0  0  0
  149.0725  139.3905  154.1561 N   0  0  0  0  0  0  0  0  0  0  0  0
  150.0061  138.3727  154.3029 C   0  0  0  0  0  0  0  0  0  0  0  0
  151.1745  138.9686  154.7205 C   0  0  0  0  0  0  0  0  0  0  0  0
  150.9865  140.3443  154.8298 N   0  0  0  0  0  0  0  0  0  0  0  0
  149.7191  140.5191  154.4784 C   0  0  0  0  0  0  0  0  0  0  0  0
  146.5812  134.9808  152.3997 N   0  0  0  0  0  0  0  0  0  0  0  0
  145.7846  133.8435  151.9481 C   0  0  2  0  0  0  0  0  0  0  0  0
  146.4908  133.1511  150.7664 C   0  0  0  0  0  0  0  0  0  0  0  0
  145.6422  132.0019  150.1986 C   0  0  0  0  0  0  0  0  0  0  0  0
  144.2419  132.4944  149.7948 C   0  0  1  0  0  0  0  0  0  0  0  0
  143.4696  131.4021  149.3435 O   0  0  0  0  0  0  0  0  0  0  0  0
  143.5308  133.1728  150.9782 C   0  0  0  0  0  0  0  0  0  0  0  0
  144.3767  134.3232  151.5470 C   0  0  0  0  0  0  0  0  0  0  0  0
  148.0327  136.6987  153.0306 H   0  0  0  0  0  0  0  0  0  0  0  0
  145.9423  138.2115  154.4603 H   0  0  0  0  0  0  0  0  0  0  0  0
  147.3928  137.7968  155.3328 H   0  0  0  0  0  0  0  0  0  0  0  0
  147.6463  139.2340  152.6504 H   0  0  0  0  0  0  0  0  0  0  0  0
  147.1548  140.1549  154.0545 H   0  0  0  0  0  0  0  0  0  0  0  0
  149.7669  137.3375  154.1102 H   0  0  0  0  0  0  0  0  0  0  0  0
  152.1286  138.5170  154.9486 H   0  0  0  0  0  0  0  0  0  0  0  0
  149.2473  141.4907  154.4613 H   0  0  0  0  0  0  0  0  0  0  0  0
  147.5395  135.0115  152.0843 H   0  0  0  0  0  0  0  0  0  0  0  0
  145.6752  133.1131  152.7523 H   0  0  0  0  0  0  0  0  0  0  0  0
  146.6874  133.8771  149.9760 H   0  0  0  0  0  0  0  0  0  0  0  0
  147.4619  132.7684  151.0836 H   0  0  0  0  0  0  0  0  0  0  0  0
  146.1475  131.5614  149.3383 H   0  0  0  0  0  0  0  0  0  0  0  0
  145.5572  131.2121  150.9465 H   0  0  0  0  0  0  0  0  0  0  0  0
  144.3318  133.2046  148.9716 H   0  0  0  0  0  0  0  0  0  0  0  0
  142.5869  131.5049  149.6653 H   0  0  0  0  0  0  0  0  0  0  0  0
  142.5575  133.5519  150.6641 H   0  0  0  0  0  0  0  0  0  0  0  0
  143.3394  132.4419  151.7653 H   0  0  0  0  0  0  0  0  0  0  0  0
  143.8710  134.7585  152.4098 H   0  0  0  0  0  0  0  0  0  0  0  0
  144.4537  135.1160  150.8015 H   0  0  0  0  0  0  0  0  0  0  0  0
  1  2  2  0  0  0  0
  2  3  1  0  0  0  0
  2 11  1  0  0  0  0
  3  4  1  0  0  0  0
  3 19  1  0  0  0  0
  4  5  1  0  0  0  0
  4 20  1  0  0  0  0
  4 21  1  0  0  0  0
  5  6  1  0  0  0  0
  5 22  1  0  0  0  0
  5 23  1  0  0  0  0
  6 10  1  0  0  0  0
  6  7  1  0  0  0  0
  7  8  2  0  0  0  0
  7 24  1  0  0  0  0
  8  9  1  0  0  0  0
  8 25  1  0  0  0  0
  9 10  2  0  0  0  0
 10 26  1  0  0  0  0
 11 12  1  0  0  0  0
 11 27  1  0  0  0  0
 12 18  1  0  0  0  0
 12 13  1  0  0  0  0
 12 28  1  0  0  0  0
 13 14  1  0  0  0  0
 13 29  1  0  0  0  0
 13 30  1  0  0  0  0
 14 15  1  0  0  0  0
 14 31  1  0  0  0  0
 14 32  1  0  0  0  0
 15 16  1  0  0  0  0
 15 17  1  0  0  0  0
 15 33  1  0  0  0  0
 16 34  1  0  0  0  0
 17 18  1  0  0  0  0
 17 35  1  0  0  0  0
 17 36  1  0  0  0  0
 18 37  1  0  0  0  0
 18 38  1  0  0  0  0
M  END
> <s_m_source_file>
AV-unprocessed.smi

> <i_m_source_file_index>
1491

> <i_lp_mmshare_version>
43012

> <i_f3d_flags>
0

> <s_epik_input>
W0NIMl0xW0NIMl1bQ0BIXShbT0hdKVtDSDJdW0NIMl1bQ0BIXTFbTkhdQyg9TylbTkhdW0NIMl1bQ0gyXW4yW2NIXVtjSF1uW2NIXTI=

> <s_epik_cmdline>
J2VwaWtfcHl0aG9uJywgJy1waCcsICc3LjAnLCAnLXRuJywgJzgnLCAnLW1hJywgJzIwMCcsICctbWV0YWxfYmluZGluZycsICctaW1hZScsICc8aW5maWxlLm1hZT4nLCAnLW9tYWUnLCAnPG91dGZpbGUubWFlPic=

> <r_lp_tautomer_probability>
1

> <r_epik_Ionization_Penalty>
0.623245

> <r_epik_Ionization_Penalty_Charging>
0.623187

> <r_epik_Ionization_Penalty_Neutral>
5.75214e-05

> <r_epik_State_Penalty>
0.639392

> <r_epik_Charging_Adjusted_Penalty>
1.26258

> <i_epik_Tot_Q>
0

> <i_epik_Tot_abs_Q>
0

> <r_epik_Metal_State_Penalty>
0.307266

> <b_epik_Metal_Only>
0

> <s_lp_Force_Field>
OPLS_2005

> <r_lp_Energy>
7.54437

> <b_lp_Chiralities_Consistent>
1

> <s_lp_Variant>
AV-unprocessed.smi:1491-3

> <Gold.Version>
5.8.1

> <Gold.Id.Protein>
6NUR|6NUR_protein|mol2

> <Gold.PLP.Fitness>
48.7145

> <Gold.PLP.PLP>
-33.9940

> <Gold.PLP.part.hbond>
-5.0000

> <Gold.PLP.part.metal>
0.0000

> <Gold.PLP.part.buried>
-4.7376

> <Gold.PLP.part.nonpolar>
-25.3083

> <Gold.PLP.part.repulsive>
0.0963

> <Gold.PLP.ligand.clash>
0.0000

> <Gold.PLP.ligand.torsion>
0.8289

> <Gold.PLP.Chemscore.Hbond>
4.4560

> <Gold.PLP.Chemscore.CHOScore>
0.9925

> <Gold.PLP.Chemscore.Metal>
0.0000

> <Gold.Chemscore.Hbonds>
donor molecule, donor type, donor heavy atom, donor atom, acceptor molecule, acceptor atom, score
      L1  H     3    19       P1  7948  1.00
      L1  H    11    27       P1  7948  0.85
      L1  H    16    34       P1 10952  0.56
      P1  H  7989  7998       L1     9  0.85
      P1  H 10785 10796       L1    16  0.50
      L1  C     7    24       P1  7948  0.79

> <Gold.PLP.Chemscore.Internal.Correction>
0.0328

> <Gold.Rescore>
     Score         DG    S(hbond)    S(metal)    S(lipo)     H(rot)  DE(clash)    DE(int)     intcor
     15.00     -17.16       3.17        0.00      65.70       2.57       0.13       2.04       ----

> <Gold.Chemscore.Fitness>
14.9962

> <Gold.Chemscore.DG>
-17.1647

> <Gold.Chemscore.ZeroCoef>
-5.4800

> <Gold.Chemscore.Hbond>
3.1697

> <Gold.Chemscore.Metal>
0.0000

> <Gold.Chemscore.Lipo>
65.7001

> <Gold.Chemscore.Internal_Hbond>
0.0000

> <Gold.Chemscore.DEClash>
0.1292

> <Gold.Chemscore.DEInternal>
2.0393

> <Gold.Chemscore.Rot>
2.5738

> <Gold.Chemscore.Internal.Correction>
   9.000000E+99

> <Gold.Chemscore.Hbonds>
donor molecule, donor type, donor heavy atom, donor atom, acceptor molecule, acceptor atom, score
      L1  H     3    19       P1  7948  0.93
      L1  H    11    27       P1  7948  0.77
      L1  H    16    34       P1 10952  0.55
      P1  H  7989  7998       L1     9  0.05
      P1  H 10785 10796       L1    16  0.05

> <Gold.Chemscore.Hbond.Weighted>
-10.5867

> <Gold.Chemscore.Metal.Weighted>
-0.0000

> <Gold.Chemscore.Lipo.Weighted>
-7.6869

> <Gold.Chemscore.Internal_Hbond.Weighted>
0.0000

> <Gold.Chemscore.DEClash.Weighted>
0.1292

> <Gold.Chemscore.DEInternal.Weighted>
2.0393

> <Gold.Chemscore.Rot.Weighted>
6.5890

> <Gold.Chemscore.Internal.Correction.Weighted>
   9.000000E+99

> <Gold.Protein.RotatedTorsions>
[ 6907 6896 6895 6894 ] final -160.12 input  -60.11 | X-H torsion
[ 7974 7965 7964 7962 ] final  104.04 input  175.53 | X-H torsion
[ 8008 7997 7996 7995 ] final  -44.60 input   59.86 | X-H torsion
[ 10167 10162 10161 10158 ] final  100.17 input  -65.29 | X-H torsion
[ 10718 10713 10712 10709 ] final  -75.08 input   66.30 | X-H torsion
[ 10763 10752 10751 10750 ] final  -71.99 input  -60.55 | X-H torsion
[ 11005 11000 10999 10996 ] final  -47.62 input  -57.11 | X-H torsion

> <Gold.Protein.ActiveResidues>
 VAL166  LYS551  ARG553  GLY616  TRP617  ASP618  TYR619  PRO620  LYS621  CYS622 
 ASP623  PHE694  ASN695  SER759  ASP760  ASP761  ALA762  ILE779  LEU786  VAL792 
 PHE793  MET794  SER795  GLU796  ALA797  LYS798  CYS799  TRP800  GLU811  SER814 

> <Gold.Protein.RotatedAtoms>
  151.3441  133.3951  159.2673 H   0  0  0  0  0  0  0  0  0  0  0  0  # atno 6907 bound_to 6896
  150.9854  134.9201  159.7879 H   0  0  0  0  0  0  0  0  0  0  0  0  # atno 6908 bound_to 6896
  152.5230  134.3405  159.9268 H   0  0  0  0  0  0  0  0  0  0  0  0  # atno 6909 bound_to 6896
  145.3380  139.2469  143.3625 H   0  0  0  0  0  0  0  0  0  0  0  0  # atno 7974 bound_to 7965
  154.3998  140.1418  156.3710 H   0  0  0  0  0  0  0  0  0  0  0  0  # atno 8008 bound_to 7997
  155.8092  140.3473  155.5427 H   0  0  0  0  0  0  0  0  0  0  0  0  # atno 8009 bound_to 7997
  155.8403  140.0926  157.1729 H   0  0  0  0  0  0  0  0  0  0  0  0  # atno 8010 bound_to 7997
  139.7551  144.6972  151.0375 H   0  0  0  0  0  0  0  0  0  0  0  0  # atno 10167 bound_to 10162
  156.0220  130.4432  150.2989 H   0  0  0  0  0  0  0  0  0  0  0  0  # atno 10718 bound_to 10713
  154.4394  135.5944  153.6119 H   0  0  0  0  0  0  0  0  0  0  0  0  # atno 10763 bound_to 10752
  152.9804  135.5994  154.3741 H   0  0  0  0  0  0  0  0  0  0  0  0  # atno 10764 bound_to 10752
  154.3589  135.2841  155.2310 H   0  0  0  0  0  0  0  0  0  0  0  0  # atno 10765 bound_to 10752
  141.0651  133.6696  156.3323 H   0  0  0  0  0  0  0  0  0  0  0  0  # atno 11005 bound_to 11000
  146.3019  140.3971  142.8701 LP  0  0  0  0  0  0  0  0  0  0  0  0  # atno 17320 bound_to 7965
  144.8812  140.7403  143.5985 LP  0  0  0  0  0  0  0  0  0  0  0  0  # atno 17321 bound_to 7965
  140.7802  143.4763  151.0078 LP  0  0  0  0  0  0  0  0  0  0  0  0  # atno 17342 bound_to 10162
  139.8450  143.7513  152.3179 LP  0  0  0  0  0  0  0  0  0  0  0  0  # atno 17343 bound_to 10162
  157.1092  131.0216  151.3055 LP  0  0  0  0  0  0  0  0  0  0  0  0  # atno 17370 bound_to 10713
  157.4718  130.7713  149.7331 LP  0  0  0  0  0  0  0  0  0  0  0  0  # atno 17371 bound_to 10713
  140.5789  134.5766  157.5475 LP  0  0  0  0  0  0  0  0  0  0  0  0  # atno 17394 bound_to 11000
  139.9469  134.7686  156.0540 LP  0  0  0  0  0  0  0  0  0  0  0  0  # atno 17395 bound_to 11000

$$$$
