AV-unprocessed.smi:72|AV-procd|sdf|699|dock7
  -GOLD-   2262017 13D 1   1.00000     0.00000
 Structure written by MMmdl.
 30 31  0  0  0  0  0  0  0  0  2 V2000
  145.9116  138.7194  151.9710 N   0  0  0  0  0  0  0  0  0  0  0  0
  146.8105  139.4177  152.7500 C   0  0  0  0  0  0  0  0  0  0  0  0
  148.0593  138.8560  152.9496 N   0  3  0  0  0  0  0  0  0  0  0  0
  149.0445  139.4059  153.6722 C   0  0  0  0  0  0  0  0  0  0  0  0
  148.8430  140.5772  154.2404 N   0  0  0  0  0  0  0  0  0  0  0  0
  149.9133  141.2313  155.0689 C   0  0  2  0  0  0  0  0  0  0  0  0
  151.0504  140.4259  155.0048 O   0  0  0  0  0  0  0  0  0  0  0  0
  151.5825  140.2290  156.3100 C   0  0  2  0  0  0  0  0  0  0  0  0
  152.4261  138.9441  156.3844 C   0  0  0  0  0  0  0  0  0  0  0  0
  153.5001  139.0179  155.4720 O   0  0  0  0  0  0  0  0  0  0  0  0
  150.3387  140.2591  157.2074 C   0  0  2  0  0  0  0  0  0  0  0  0
  149.6786  139.0054  157.2089 O   0  0  0  0  0  0  0  0  0  0  0  0
  149.4656  141.3105  156.5381 C   0  0  1  0  0  0  0  0  0  0  0  0
  149.7242  142.5883  157.0834 O   0  0  0  0  0  0  0  0  0  0  0  0
  147.5848  141.2188  154.1166 C   0  0  0  0  0  0  0  0  0  0  0  0
  147.3744  142.2916  154.6812 O   0  0  0  0  0  0  0  0  0  0  0  0
  146.6178  140.5665  153.3374 N   0  0  0  0  0  0  0  0  0  0  0  0
  150.1209  142.1971  154.6046 H   0  0  0  0  0  0  0  0  0  0  0  0
  152.1982  141.0950  156.5611 H   0  0  0  0  0  0  0  0  0  0  0  0
  150.5840  140.5130  158.2397 H   0  0  0  0  0  0  0  0  0  0  0  0
  148.3996  141.1025  156.6476 H   0  0  0  0  0  0  0  0  0  0  0  0
  144.9767  139.0490  151.7742 H   0  0  0  0  0  0  0  0  0  0  0  0
  146.1111  137.8279  151.5406 H   0  0  0  0  0  0  0  0  0  0  0  0
  149.9839  138.8784  153.7810 H   0  0  0  0  0  0  0  0  0  0  0  0
  152.8543  138.8346  157.3812 H   0  0  0  0  0  0  0  0  0  0  0  0
  151.8233  138.0570  156.1878 H   0  0  0  0  0  0  0  0  0  0  0  0
  153.4411  138.2868  154.8756 H   0  0  0  0  0  0  0  0  0  0  0  0
  150.2845  138.3477  156.9023 H   0  0  0  0  0  0  0  0  0  0  0  0
  149.4511  143.2449  156.4604 H   0  0  0  0  0  0  0  0  0  0  0  0
  148.2387  137.9613  152.5167 H   0  0  0  0  0  0  0  0  0  0  0  0
  1  2  1  0  0  0  0
  1 22  1  0  0  0  0
  1 23  1  0  0  0  0
  2 17  2  0  0  0  0
  2  3  1  0  0  0  0
  3  4  2  0  0  0  0
  3 30  1  0  0  0  0
  4  5  1  0  0  0  0
  4 24  1  0  0  0  0
  5  6  1  0  0  0  0
  5 15  1  0  0  0  0
  6 18  1  0  0  0  0
  6 13  1  0  0  0  0
  6  7  1  0  0  0  0
  7  8  1  0  0  0  0
  8 19  1  0  0  0  0
  8  9  1  0  0  0  0
  8 11  1  0  0  0  0
  9 10  1  0  0  0  0
  9 25  1  0  0  0  0
  9 26  1  0  0  0  0
 10 27  1  0  0  0  0
 11 20  1  0  0  0  0
 11 12  1  0  0  0  0
 11 13  1  0  0  0  0
 12 28  1  0  0  0  0
 13 21  1  0  0  0  0
 13 14  1  0  0  0  0
 14 29  1  0  0  0  0
 15 16  2  0  0  0  0
 15 17  1  0  0  0  0
M  CHG  1   3   1
M  END
> <s_m_source_file>
AV-unprocessed.smi

> <i_m_source_file_index>
72

> <i_lp_mmshare_version>
43012

> <i_f3d_flags>
0

> <s_epik_input>
W05IMl1jMW5bY0hdbihjKD1PKW4xKVtDQEBIXTJPW0NASF0oW0NIMl1bT0hdKVtDQEBIXShbT0hdKVtDQEhdMltPSF0=

> <s_epik_cmdline>
J2VwaWtfcHl0aG9uJywgJy1waCcsICc3LjAnLCAnLXRuJywgJzgnLCAnLW1hJywgJzIwMCcsICctbWV0YWxfYmluZGluZycsICctaW1hZScsICc8aW5maWxlLm1hZT4nLCAnLW9tYWUnLCAnPG91dGZpbGUubWFlPic=

> <r_lp_tautomer_probability>
4.77166e-05

> <r_epik_Ionization_Penalty>
0.104979

> <r_epik_Ionization_Penalty_Charging>
0.0999619

> <r_epik_Ionization_Penalty_Neutral>
0.00501745

> <r_epik_State_Penalty>
2.51541

> <r_epik_Charging_Adjusted_Penalty>
2.61537

> <i_epik_Tot_Q>
1

> <i_epik_Tot_abs_Q>
1

> <r_epik_Metal_State_Penalty>
3.53763

> <b_epik_Metal_Only>
0

> <s_epik_Chemistry_Notes>
This compound contains an acetal/aminal-like group ( X-CH(R)-Y where X, Y are N, S, or O) that may be acid/base labile, releasing an aldehyde.

> <s_lp_Force_Field>
OPLS_2005

> <r_lp_Energy>
28.7493

> <b_lp_Chiralities_Consistent>
1

> <s_lp_Variant>
AV-unprocessed.smi:72-37

> <Gold.Version>
5.8.1

> <Gold.Id.Protein>
6NUR|6NUR_protein|mol2

> <Gold.PLP.Fitness>
42.9776

> <Gold.PLP.PLP>
-25.6347

> <Gold.PLP.part.hbond>
-6.8466

> <Gold.PLP.part.metal>
0.0000

> <Gold.PLP.part.buried>
-0.2013

> <Gold.PLP.part.nonpolar>
-19.8105

> <Gold.PLP.part.repulsive>
1.8685

> <Gold.PLP.ligand.clash>
0.0000

> <Gold.PLP.ligand.torsion>
0.0359

> <Gold.PLP.Chemscore.Hbond>
5.8000

> <Gold.PLP.Chemscore.CHOScore>
0.0000

> <Gold.PLP.Chemscore.Metal>
0.0000

> <Gold.Chemscore.Hbonds>
donor molecule, donor type, donor heavy atom, donor atom, acceptor molecule, acceptor atom, score
      L1  H     1    22       P1 10175  0.78
      L1  H     3    30       P1  7948  2.00
      L1  H    14    29       P1  8028  1.00
      P1  H  7989  7998       L1     7  1.00
      P1  H  7997  8008       L1    10  1.00

> <Gold.PLP.Chemscore.Internal.Correction>
0.0147

> <Gold.Rescore>
     Score         DG    S(hbond)    S(metal)    S(lipo)     H(rot)  DE(clash)    DE(int)     intcor
      7.88     -11.43       4.19        0.00      20.60       4.08       2.36       1.19       ----

> <Gold.Chemscore.Fitness>
7.8786

> <Gold.Chemscore.DG>
-11.4288

> <Gold.Chemscore.ZeroCoef>
-5.4800

> <Gold.Chemscore.Hbond>
4.1854

> <Gold.Chemscore.Metal>
0.0000

> <Gold.Chemscore.Lipo>
20.5985

> <Gold.Chemscore.Internal_Hbond>
0.0000

> <Gold.Chemscore.DEClash>
2.3595

> <Gold.Chemscore.DEInternal>
1.1907

> <Gold.Chemscore.Rot>
4.0783

> <Gold.Chemscore.Internal.Correction>
   9.000000E+99

> <Gold.Chemscore.Hbonds>
donor molecule, donor type, donor heavy atom, donor atom, acceptor molecule, acceptor atom, score
      L1  H     1    22       P1 10175  0.73
      L1  H     3    30       P1  7948  0.99
      L1  H    14    29       P1  8028  1.00
      P1  H  7989  7998       L1     7  0.25
      P1  H  7997  8008       L1    10  0.55

> <Gold.Chemscore.Hbond.Weighted>
-13.9792

> <Gold.Chemscore.Metal.Weighted>
-0.0000

> <Gold.Chemscore.Lipo.Weighted>
-2.4100

> <Gold.Chemscore.Internal_Hbond.Weighted>
0.0000

> <Gold.Chemscore.DEClash.Weighted>
2.3595

> <Gold.Chemscore.DEInternal.Weighted>
1.1907

> <Gold.Chemscore.Rot.Weighted>
10.4404

> <Gold.Chemscore.Internal.Correction.Weighted>
   9.000000E+99

> <Gold.Protein.RotatedTorsions>
[ 6907 6896 6895 6894 ] final   50.92 input  -60.11 | X-H torsion
[ 7974 7965 7964 7962 ] final -111.83 input  175.53 | X-H torsion
[ 8008 7997 7996 7995 ] final  -19.91 input   59.86 | X-H torsion
[ 10167 10162 10161 10158 ] final  -23.24 input  -65.29 | X-H torsion
[ 10718 10713 10712 10709 ] final   76.30 input   66.30 | X-H torsion
[ 10763 10752 10751 10750 ] final    9.26 input  -60.55 | X-H torsion
[ 11005 11000 10999 10996 ] final -108.64 input  -57.11 | X-H torsion

> <Gold.Protein.ActiveResidues>
 VAL166  LYS551  ARG553  GLY616  TRP617  ASP618  TYR619  PRO620  LYS621  CYS622 
 ASP623  PHE694  ASN695  SER759  ASP760  ASP761  ALA762  ILE779  LEU786  VAL792 
 PHE793  MET794  SER795  GLU796  ALA797  LYS798  CYS799  TRP800  GLU811  SER814 

> <Gold.Protein.RotatedAtoms>
  152.3071  134.7542  160.0344 H   0  0  0  0  0  0  0  0  0  0  0  0  # atno 6907 bound_to 6896
  151.8036  133.3367  159.3542 H   0  0  0  0  0  0  0  0  0  0  0  0  # atno 6908 bound_to 6896
  150.7301  134.5660  159.5911 H   0  0  0  0  0  0  0  0  0  0  0  0  # atno 6909 bound_to 6896
  145.1513  140.8830  143.3645 H   0  0  0  0  0  0  0  0  0  0  0  0  # atno 7974 bound_to 7965
  154.4805  140.2076  155.9776 H   0  0  0  0  0  0  0  0  0  0  0  0  # atno 8008 bound_to 7997
  156.1157  140.3222  155.8105 H   0  0  0  0  0  0  0  0  0  0  0  0  # atno 8009 bound_to 7997
  155.4557  140.0520  157.2987 H   0  0  0  0  0  0  0  0  0  0  0  0  # atno 8010 bound_to 7997
  140.7287  143.4461  151.0584 H   0  0  0  0  0  0  0  0  0  0  0  0  # atno 10167 bound_to 10162
  157.6668  130.9767  150.1476 H   0  0  0  0  0  0  0  0  0  0  0  0  # atno 10718 bound_to 10713
  153.2160  135.6875  153.8057 H   0  0  0  0  0  0  0  0  0  0  0  0  # atno 10763 bound_to 10752
  153.7272  135.3258  155.3279 H   0  0  0  0  0  0  0  0  0  0  0  0  # atno 10764 bound_to 10752
  154.8246  135.4627  154.0988 H   0  0  0  0  0  0  0  0  0  0  0  0  # atno 10765 bound_to 10752
  141.0891  133.9087  157.2118 H   0  0  0  0  0  0  0  0  0  0  0  0  # atno 11005 bound_to 11000
  145.0428  139.3246  143.5968 LP  0  0  0  0  0  0  0  0  0  0  0  0  # atno 17320 bound_to 7965
  146.3494  139.9807  142.8696 LP  0  0  0  0  0  0  0  0  0  0  0  0  # atno 17321 bound_to 7965
  139.8133  143.7921  152.3172 LP  0  0  0  0  0  0  0  0  0  0  0  0  # atno 17342 bound_to 10162
  139.7978  144.7386  150.9867 LP  0  0  0  0  0  0  0  0  0  0  0  0  # atno 17343 bound_to 10162
  156.2283  130.3680  149.8474 LP  0  0  0  0  0  0  0  0  0  0  0  0  # atno 17370 bound_to 10713
  156.6308  130.8665  151.3495 LP  0  0  0  0  0  0  0  0  0  0  0  0  # atno 17371 bound_to 10713
  139.9713  135.0127  156.9520 LP  0  0  0  0  0  0  0  0  0  0  0  0  # atno 17394 bound_to 11000
  140.5295  134.0828  155.7312 LP  0  0  0  0  0  0  0  0  0  0  0  0  # atno 17395 bound_to 11000

$$$$
