AV-unprocessed.smi:148|AV-procd|sdf|1228|dock4
  -GOLD-   2262018433D 1   1.00000     0.00000
 Structure written by MMmdl.
 63 67  0  0  0  0  0  0  0  0  1 V2000
  154.1774  133.2477  159.6047 O   0  0  0  0  0  0  0  0  0  0  0  0
  154.8854  134.4453  159.8504 C   0  0  0  0  0  0  0  0  0  0  0  0
  154.3713  135.1555  161.1268 C   0  0  2  0  0  0  0  0  0  0  0  0
  154.8599  136.6216  161.2334 C   0  0  0  0  0  0  0  0  0  0  0  0
  154.3122  137.4798  160.1974 N   0  0  0  0  0  0  0  0  0  0  0  0
  155.0180  138.3466  159.3944 C   0  0  0  0  0  0  0  0  0  0  0  0
  154.2998  139.0231  158.5401 N   0  0  0  0  0  0  0  0  0  0  0  0
  153.0012  138.5831  158.7677 C   0  0  0  0  0  0  0  0  0  0  0  0
  151.7319  138.8915  158.2010 C   0  0  0  0  0  0  0  0  0  0  0  0
  151.5274  139.7946  157.2177 N   0  0  0  0  0  0  0  0  0  0  0  0
  150.7398  139.1593  156.1581 C   0  0  0  0  0  0  0  0  0  0  0  0
  150.6833  140.0271  154.8980 C   0  0  0  0  0  0  0  0  0  0  0  0
  150.1405  141.4122  155.2494 C   0  0  0  0  0  0  0  0  0  0  0  0
  151.0009  142.0409  156.3520 C   0  0  0  0  0  0  0  0  0  0  0  0
  151.1006  141.1516  157.6226 C   0  0  2  0  0  0  0  0  0  0  0  0
  152.0462  141.8292  158.6754 C   0  0  2  0  0  0  0  0  0  0  0  0
  152.1145  141.1959  160.0823 C   0  0  0  0  0  0  0  0  0  0  0  0
  152.5923  142.2919  161.0455 C   0  0  0  0  0  0  0  0  0  0  0  0
  152.5645  143.6012  160.2520 C   0  0  0  0  0  0  0  0  0  0  0  0
  151.7286  143.3035  159.0062 C   0  0  2  0  0  0  0  0  0  0  0  0
  150.3598  143.4749  159.3301 O   0  0  0  0  0  0  0  0  0  0  0  0
  150.6404  138.2592  158.6980 N   0  0  0  0  0  0  0  0  0  0  0  0
  150.7798  137.3589  159.6758 C   0  0  0  0  0  0  0  0  0  0  0  0
  151.8951  136.9597  160.2912 N   0  0  0  0  0  0  0  0  0  0  0  0
  152.9918  137.6077  159.8033 C   0  0  0  0  0  0  0  0  0  0  0  0
  154.6884  134.3509  162.4130 C   0  0  1  0  0  0  0  0  0  0  0  0
  154.3606  135.0679  163.7110 C   0  0  0  0  0  0  0  0  0  0  0  0
  154.3210  133.9180  164.7106 C   0  0  0  0  0  0  0  0  0  0  0  0
  153.8208  132.8009  163.9853 O   0  0  0  0  0  0  0  0  0  0  0  0
  153.8673  133.0678  162.5870 C   0  0  0  0  0  0  0  0  0  0  0  0
  154.2160  132.7102  160.3809 H   0  0  0  0  0  0  0  0  0  0  0  0
  155.9477  134.2147  159.9287 H   0  0  0  0  0  0  0  0  0  0  0  0
  154.7854  135.0920  158.9790 H   0  0  0  0  0  0  0  0  0  0  0  0
  153.2847  135.1946  161.0350 H   0  0  0  0  0  0  0  0  0  0  0  0
  154.5797  137.0513  162.1951 H   0  0  0  0  0  0  0  0  0  0  0  0
  155.9485  136.6638  161.1845 H   0  0  0  0  0  0  0  0  0  0  0  0
  156.0892  138.4664  159.4682 H   0  0  0  0  0  0  0  0  0  0  0  0
  151.1674  138.1875  155.9049 H   0  0  0  0  0  0  0  0  0  0  0  0
  149.7259  138.9752  156.5163 H   0  0  0  0  0  0  0  0  0  0  0  0
  151.6796  140.1155  154.4628 H   0  0  0  0  0  0  0  0  0  0  0  0
  150.0520  139.5545  154.1452 H   0  0  0  0  0  0  0  0  0  0  0  0
  150.1355  142.0499  154.3649 H   0  0  0  0  0  0  0  0  0  0  0  0
  149.1061  141.3331  155.5865 H   0  0  0  0  0  0  0  0  0  0  0  0
  152.0018  142.2291  155.9603 H   0  0  0  0  0  0  0  0  0  0  0  0
  150.5756  143.0155  156.5869 H   0  0  0  0  0  0  0  0  0  0  0  0
  150.1010  141.0742  158.0516 H   0  0  0  0  0  0  0  0  0  0  0  0
  153.0576  141.8137  158.2646 H   0  0  0  0  0  0  0  0  0  0  0  0
  151.1236  140.8589  160.3889 H   0  0  0  0  0  0  0  0  0  0  0  0
  152.7837  140.3381  160.1265 H   0  0  0  0  0  0  0  0  0  0  0  0
  151.9308  142.3468  161.9108 H   0  0  0  0  0  0  0  0  0  0  0  0
  153.5975  142.0879  161.4157 H   0  0  0  0  0  0  0  0  0  0  0  0
  152.1831  144.4409  160.8347 H   0  0  0  0  0  0  0  0  0  0  0  0
  153.5811  143.8547  159.9479 H   0  0  0  0  0  0  0  0  0  0  0  0
  151.9908  143.9788  158.1913 H   0  0  0  0  0  0  0  0  0  0  0  0
  150.2978  143.7618  160.2282 H   0  0  0  0  0  0  0  0  0  0  0  0
  149.8665  136.8918  160.0136 H   0  0  0  0  0  0  0  0  0  0  0  0
  155.7477  134.0882  162.4278 H   0  0  0  0  0  0  0  0  0  0  0  0
  155.0937  135.8280  163.9822 H   0  0  0  0  0  0  0  0  0  0  0  0
  153.3804  135.5429  163.6486 H   0  0  0  0  0  0  0  0  0  0  0  0
  155.3269  133.6833  165.0604 H   0  0  0  0  0  0  0  0  0  0  0  0
  153.7024  134.1403  165.5802 H   0  0  0  0  0  0  0  0  0  0  0  0
  152.8445  133.2110  162.2358 H   0  0  0  0  0  0  0  0  0  0  0  0
  154.2948  132.2251  162.0430 H   0  0  0  0  0  0  0  0  0  0  0  0
  1  2  1  0  0  0  0
  1 31  1  0  0  0  0
  2  3  1  0  0  0  0
  2 32  1  0  0  0  0
  2 33  1  0  0  0  0
  3  4  1  0  0  0  0
  3 26  1  0  0  0  0
  3 34  1  0  0  0  0
  4  5  1  0  0  0  0
  4 35  1  0  0  0  0
  4 36  1  0  0  0  0
  5 25  1  0  0  0  0
  5  6  1  0  0  0  0
  6  7  2  0  0  0  0
  6 37  1  0  0  0  0
  7  8  1  0  0  0  0
  8 25  2  0  0  0  0
  8  9  1  0  0  0  0
  9 10  1  0  0  0  0
  9 22  2  0  0  0  0
 10 15  1  0  0  0  0
 10 11  1  0  0  0  0
 11 12  1  0  0  0  0
 11 38  1  0  0  0  0
 11 39  1  0  0  0  0
 12 13  1  0  0  0  0
 12 40  1  0  0  0  0
 12 41  1  0  0  0  0
 13 14  1  0  0  0  0
 13 42  1  0  0  0  0
 13 43  1  0  0  0  0
 14 15  1  0  0  0  0
 14 44  1  0  0  0  0
 14 45  1  0  0  0  0
 15 16  1  0  0  0  0
 15 46  1  0  0  0  0
 16 20  1  0  0  0  0
 16 17  1  0  0  0  0
 16 47  1  0  0  0  0
 17 18  1  0  0  0  0
 17 48  1  0  0  0  0
 17 49  1  0  0  0  0
 18 19  1  0  0  0  0
 18 50  1  0  0  0  0
 18 51  1  0  0  0  0
 19 20  1  0  0  0  0
 19 52  1  0  0  0  0
 19 53  1  0  0  0  0
 20 21  1  0  0  0  0
 20 54  1  0  0  0  0
 21 55  1  0  0  0  0
 22 23  1  0  0  0  0
 23 24  2  0  0  0  0
 23 56  1  0  0  0  0
 24 25  1  0  0  0  0
 26 30  1  0  0  0  0
 26 27  1  0  0  0  0
 26 57  1  0  0  0  0
 27 28  1  0  0  0  0
 27 58  1  0  0  0  0
 27 59  1  0  0  0  0
 28 29  1  0  0  0  0
 28 60  1  0  0  0  0
 28 61  1  0  0  0  0
 29 30  1  0  0  0  0
 30 62  1  0  0  0  0
 30 63  1  0  0  0  0
M  END
> <s_m_source_file>
AV-unprocessed.smi

> <i_m_source_file_index>
148

> <i_lp_mmshare_version>
43012

> <i_f3d_flags>
0

> <s_epik_input>
W0NIMl0xT1tDSDJdW0NIMl1bQ0BIXTFbQ0BIXShbQ0gyXVtPSF0pW0NIMl1uKFtjSF1uMiljKGMyMyluW2NIXW5jM040W0NIMl1bQ0gyXVtDSDJdW0NIMl1bQ0BIXTRbQ0BASF01W0NIMl1bQ0gyXVtDSDJdW0NASF01W09IXQ==

> <s_epik_cmdline>
J2VwaWtfcHl0aG9uJywgJy1waCcsICc3LjAnLCAnLXRuJywgJzgnLCAnLW1hJywgJzIwMCcsICctbWV0YWxfYmluZGluZycsICctaW1hZScsICc8aW5maWxlLm1hZT4nLCAnLW9tYWUnLCAnPG91dGZpbGUubWFlPic=

> <r_lp_tautomer_probability>
1

> <r_epik_Ionization_Penalty>
0.00556303

> <r_epik_Ionization_Penalty_Charging>
0

> <r_epik_Ionization_Penalty_Neutral>
0.00556303

> <r_epik_State_Penalty>
0.00401767

> <r_epik_Charging_Adjusted_Penalty>
0.00401767

> <i_epik_Tot_Q>
0

> <i_epik_Tot_abs_Q>
0

> <r_epik_Metal_State_Penalty>
-0

> <b_epik_Metal_Only>
0

> <s_lp_Force_Field>
OPLS_2005

> <r_lp_Energy>
70.1865

> <b_lp_Chiralities_Consistent>
1

> <s_lp_Variant>
AV-unprocessed.smi:148-27

> <Gold.Version>
5.8.1

> <Gold.Id.Protein>
6NUR|6NUR_protein|mol2

> <Gold.PLP.Fitness>
46.9758

> <Gold.PLP.PLP>
-42.0984

> <Gold.PLP.part.hbond>
-2.9641

> <Gold.PLP.part.metal>
0.0000

> <Gold.PLP.part.buried>
-2.7583

> <Gold.PLP.part.nonpolar>
-37.0240

> <Gold.PLP.part.repulsive>
0.0218

> <Gold.PLP.ligand.clash>
0.0208

> <Gold.PLP.ligand.torsion>
0.8563

> <Gold.PLP.Chemscore.Hbond>
2.0014

> <Gold.PLP.Chemscore.CHOScore>
0.0000

> <Gold.PLP.Chemscore.Metal>
0.0000

> <Gold.Chemscore.Hbonds>
donor molecule, donor type, donor heavy atom, donor atom, acceptor molecule, acceptor atom, score
      P1  H  6896  6907       L1    24  0.70
      P1  H  6896  6908       L1     1  1.00
      P1  H  7997  8009       L1     7  0.67

> <Gold.PLP.Chemscore.Internal.Correction>
0.6066

> <Gold.Rescore>
     Score         DG    S(hbond)    S(metal)    S(lipo)     H(rot)  DE(clash)    DE(int)     intcor
     14.41     -16.63       1.61        0.00     122.08       3.32       0.32       1.89       ----

> <Gold.Chemscore.Fitness>
14.4149

> <Gold.Chemscore.DG>
-16.6266

> <Gold.Chemscore.ZeroCoef>
-5.4800

> <Gold.Chemscore.Hbond>
1.6057

> <Gold.Chemscore.Metal>
0.0000

> <Gold.Chemscore.Lipo>
122.0809

> <Gold.Chemscore.Internal_Hbond>
0.0000

> <Gold.Chemscore.DEClash>
0.3249

> <Gold.Chemscore.DEInternal>
1.8868

> <Gold.Chemscore.Rot>
3.3203

> <Gold.Chemscore.Internal.Correction>
   9.000000E+99

> <Gold.Chemscore.Hbonds>
donor molecule, donor type, donor heavy atom, donor atom, acceptor molecule, acceptor atom, score
      P1  H  6896  6907       L1    24  0.07
      P1  H  6896  6908       L1     1  0.11
      P1  H  7997  8009       L1     7  0.50

> <Gold.Chemscore.Hbond.Weighted>
-5.3631

> <Gold.Chemscore.Metal.Weighted>
-0.0000

> <Gold.Chemscore.Lipo.Weighted>
-14.2835

> <Gold.Chemscore.Internal_Hbond.Weighted>
0.0000

> <Gold.Chemscore.DEClash.Weighted>
0.3249

> <Gold.Chemscore.DEInternal.Weighted>
1.8868

> <Gold.Chemscore.Rot.Weighted>
8.5000

> <Gold.Chemscore.Internal.Correction.Weighted>
   9.000000E+99

> <Gold.Protein.RotatedTorsions>
[ 6907 6896 6895 6894 ] final   -0.92 input  -60.11 | X-H torsion
[ 7974 7965 7964 7962 ] final -125.59 input  175.53 | X-H torsion
[ 8008 7997 7996 7995 ] final   98.63 input   59.86 | X-H torsion
[ 10167 10162 10161 10158 ] final   14.22 input  -65.29 | X-H torsion
[ 10718 10713 10712 10709 ] final   26.03 input   66.30 | X-H torsion
[ 10763 10752 10751 10750 ] final   58.72 input  -60.55 | X-H torsion
[ 11005 11000 10999 10996 ] final  149.73 input  -57.11 | X-H torsion

> <Gold.Protein.ActiveResidues>
 VAL166  LYS551  ARG553  GLY616  TRP617  ASP618  TYR619  PRO620  LYS621  CYS622 
 ASP623  PHE694  ASN695  SER759  ASP760  ASP761  ALA762  ILE779  LEU786  VAL792 
 PHE793  MET794  SER795  GLU796  ALA797  LYS798  CYS799  TRP800  GLU811  SER814 

> <Gold.Protein.RotatedAtoms>
  151.5544  135.1067  159.9957 H   0  0  0  0  0  0  0  0  0  0  0  0  # atno 6907 bound_to 6896
  152.4476  133.7563  159.6732 H   0  0  0  0  0  0  0  0  0  0  0  0  # atno 6908 bound_to 6896
  150.8396  133.7890  159.3090 H   0  0  0  0  0  0  0  0  0  0  0  0  # atno 6909 bound_to 6896
  144.9960  140.7776  143.4525 H   0  0  0  0  0  0  0  0  0  0  0  0  # atno 7974 bound_to 7965
  156.1024  140.3241  155.7959 H   0  0  0  0  0  0  0  0  0  0  0  0  # atno 8008 bound_to 7997
  155.4814  140.0554  157.2984 H   0  0  0  0  0  0  0  0  0  0  0  0  # atno 8009 bound_to 7997
  154.4705  140.2009  156.0022 H   0  0  0  0  0  0  0  0  0  0  0  0  # atno 8010 bound_to 7997
  140.5950  143.8719  150.6909 H   0  0  0  0  0  0  0  0  0  0  0  0  # atno 10167 bound_to 10162
  157.2013  130.6891  149.6189 H   0  0  0  0  0  0  0  0  0  0  0  0  # atno 10718 bound_to 10713
  152.9877  135.5596  154.5598 H   0  0  0  0  0  0  0  0  0  0  0  0  # atno 10763 bound_to 10752
  154.5019  135.2798  155.1415 H   0  0  0  0  0  0  0  0  0  0  0  0  # atno 10764 bound_to 10752
  154.2842  135.6339  153.5412 H   0  0  0  0  0  0  0  0  0  0  0  0  # atno 10765 bound_to 10752
  140.1070  134.8948  157.1881 H   0  0  0  0  0  0  0  0  0  0  0  0  # atno 11005 bound_to 11000
  145.2220  139.2155  143.5088 LP  0  0  0  0  0  0  0  0  0  0  0  0  # atno 17320 bound_to 7965
  146.3442  140.2079  142.8590 LP  0  0  0  0  0  0  0  0  0  0  0  0  # atno 17321 bound_to 7965
  140.2252  143.3778  152.1611 LP  0  0  0  0  0  0  0  0  0  0  0  0  # atno 17342 bound_to 10162
  139.5252  144.7093  151.5256 LP  0  0  0  0  0  0  0  0  0  0  0  0  # atno 17343 bound_to 10162
  155.9700  130.4582  150.5990 LP  0  0  0  0  0  0  0  0  0  0  0  0  # atno 17370 bound_to 10713
  157.3764  131.0774  151.1514 LP  0  0  0  0  0  0  0  0  0  0  0  0  # atno 17371 bound_to 10713
  140.3142  134.2989  155.7260 LP  0  0  0  0  0  0  0  0  0  0  0  0  # atno 17394 bound_to 11000
  141.2121  133.7669  156.9819 LP  0  0  0  0  0  0  0  0  0  0  0  0  # atno 17395 bound_to 11000

$$$$
