AV-unprocessed.smi:12|AV-procd|sdf|63|dock5
  -GOLD-   2262015183D 1   1.00000     0.00000
 Structure written by MMmdl.
 41 44  0  0  0  0  0  0  0  0  1 V2000
  147.8093  133.8872  157.7425 C   0  0  0  0  0  0  0  0  0  0  0  0
  148.7790  134.6297  156.8407 C   0  0  0  0  0  0  0  0  0  0  0  0
  148.9910  135.9610  156.9668 C   0  0  0  0  0  0  0  0  0  0  0  0
  149.8776  136.5810  156.1314 N   0  0  0  0  0  0  0  0  0  0  0  0
  150.5471  135.8322  155.1397 C   0  0  0  0  0  0  0  0  0  0  0  0
  150.3989  134.5570  154.9560 N   0  0  0  0  0  0  0  0  0  0  0  0
  149.5083  133.8640  155.7986 C   0  0  0  0  0  0  0  0  0  0  0  0
  149.3406  132.6524  155.6676 O   0  0  0  0  0  0  0  0  0  0  0  0
  151.3436  136.6672  154.4171 O   0  0  0  0  0  0  0  0  0  0  0  0
  151.2112  138.0088  154.9061 C   0  0  2  0  0  0  0  0  0  0  0  0
  152.5191  138.5057  155.5155 C   0  0  1  0  0  0  0  0  0  0  0  0
  153.1119  139.4918  154.6944 O   0  0  0  0  0  0  0  0  0  0  0  0
  152.0876  139.0898  156.8643 C   0  0  2  0  0  0  0  0  0  0  0  0
  153.1694  139.0459  157.9506 C   0  0  0  0  0  0  0  0  0  0  0  0
  153.3399  140.3443  158.4954 O   0  0  0  0  0  0  0  0  0  0  0  0
  154.0054  140.5099  159.6546 C   0  0  0  0  0  0  0  0  0  0  0  0
  154.9068  139.7610  160.0369 O   0  0  0  0  0  0  0  0  0  0  0  0
  153.5336  141.6940  160.4292 C   0  0  0  0  0  0  0  0  0  0  0  0
  153.8310  141.7833  161.8094 C   0  0  0  0  0  0  0  0  0  0  0  0
  153.3948  142.8874  162.5673 C   0  0  0  0  0  0  0  0  0  0  0  0
  152.6566  143.9166  161.9543 C   0  0  0  0  0  0  0  0  0  0  0  0
  152.3566  143.8411  160.5816 C   0  0  0  0  0  0  0  0  0  0  0  0
  152.7914  142.7374  159.8221 C   0  0  0  0  0  0  0  0  0  0  0  0
  150.9904  138.2753  157.2446 O   0  0  0  0  0  0  0  0  0  0  0  0
  150.2436  137.9960  156.1049 C   0  0  2  0  0  0  0  0  0  0  0  0
  147.3450  134.5601  158.4642 H   0  0  0  0  0  0  0  0  0  0  0  0
  148.3269  133.1038  158.2970 H   0  0  0  0  0  0  0  0  0  0  0  0
  147.0164  133.4260  157.1530 H   0  0  0  0  0  0  0  0  0  0  0  0
  148.4744  136.5386  157.7196 H   0  0  0  0  0  0  0  0  0  0  0  0
  150.8144  138.6736  154.1370 H   0  0  0  0  0  0  0  0  0  0  0  0
  153.2091  137.6733  155.6631 H   0  0  0  0  0  0  0  0  0  0  0  0
  153.5706  139.0591  153.9903 H   0  0  0  0  0  0  0  0  0  0  0  0
  151.7130  140.1080  156.7405 H   0  0  0  0  0  0  0  0  0  0  0  0
  152.8673  138.3602  158.7435 H   0  0  0  0  0  0  0  0  0  0  0  0
  154.1109  138.6785  157.5400 H   0  0  0  0  0  0  0  0  0  0  0  0
  154.3956  141.0050  162.3024 H   0  0  0  0  0  0  0  0  0  0  0  0
  153.6268  142.9437  163.6208 H   0  0  0  0  0  0  0  0  0  0  0  0
  152.3211  144.7626  162.5361 H   0  0  0  0  0  0  0  0  0  0  0  0
  151.7912  144.6310  160.1094 H   0  0  0  0  0  0  0  0  0  0  0  0
  152.5433  142.7114  158.7710 H   0  0  0  0  0  0  0  0  0  0  0  0
  149.3215  138.5660  155.9861 H   0  0  0  0  0  0  0  0  0  0  0  0
  1  2  1  0  0  0  0
  1 26  1  0  0  0  0
  1 27  1  0  0  0  0
  1 28  1  0  0  0  0
  2  7  1  0  0  0  0
  2  3  2  0  0  0  0
  3  4  1  0  0  0  0
  3 29  1  0  0  0  0
  4 25  1  0  0  0  0
  4  5  1  0  0  0  0
  5  6  2  0  0  0  0
  5  9  1  0  0  0  0
  6  7  1  0  0  0  0
  7  8  2  0  0  0  0
  9 10  1  0  0  0  0
 10 25  1  0  0  0  0
 10 11  1  0  0  0  0
 10 30  1  0  0  0  0
 11 12  1  0  0  0  0
 11 13  1  0  0  0  0
 11 31  1  0  0  0  0
 12 32  1  0  0  0  0
 13 14  1  0  0  0  0
 13 24  1  0  0  0  0
 13 33  1  0  0  0  0
 14 15  1  0  0  0  0
 14 34  1  0  0  0  0
 14 35  1  0  0  0  0
 15 16  1  0  0  0  0
 16 17  2  0  0  0  0
 16 18  1  0  0  0  0
 18 23  1  0  0  0  0
 18 19  2  0  0  0  0
 19 20  1  0  0  0  0
 19 36  1  0  0  0  0
 20 21  2  0  0  0  0
 20 37  1  0  0  0  0
 21 22  1  0  0  0  0
 21 38  1  0  0  0  0
 22 23  2  0  0  0  0
 22 39  1  0  0  0  0
 23 40  1  0  0  0  0
 24 25  1  0  0  0  0
 25 41  1  0  0  0  0
M  END
> <s_m_source_file>
AV-unprocessed.smi

> <i_m_source_file_index>
12

> <i_lp_mmshare_version>
43012

> <i_f3d_flags>
0

> <s_epik_input>
W0NIM11jKFtjSF0xKWMoPU8pbmMobjEyKU9bQ0BIXTNbQ0BASF0yT1tDQEBIXShbQ0BASF0zW09IXSlbQ0gyXU9DKD1PKWM0W2NIXVtjSF1bY0hdW2NIXVtjSF00

> <s_epik_cmdline>
J2VwaWtfcHl0aG9uJywgJy1waCcsICc3LjAnLCAnLXRuJywgJzgnLCAnLW1hJywgJzIwMCcsICctbWV0YWxfYmluZGluZycsICctaW1hZScsICc8aW5maWxlLm1hZT4nLCAnLW9tYWUnLCAnPG91dGZpbGUubWFlPic=

> <r_lp_tautomer_probability>
0.933681

> <r_epik_Ionization_Penalty>
0.00399549

> <r_epik_Ionization_Penalty_Charging>
3.09373e-09

> <r_epik_Ionization_Penalty_Neutral>
0.00399549

> <r_epik_State_Penalty>
0.00284953

> <r_epik_Charging_Adjusted_Penalty>
0.00284953

> <i_epik_Tot_Q>
0

> <i_epik_Tot_abs_Q>
0

> <r_epik_Metal_State_Penalty>
-0

> <b_epik_Metal_Only>
0

> <s_epik_Chemistry_Notes>
This compound has an ester and may undergo hydrolysis at high or low pH. This compound contains an acetal/aminal-like group ( X-CH(R)-Y where X, Y are N, S, or O) that may be acid/base labile, releasing an aldehyde.

> <s_lp_Force_Field>
OPLS_2005

> <r_lp_Energy>
41.0284

> <b_lp_Chiralities_Consistent>
1

> <s_lp_Variant>
AV-unprocessed.smi:12-3

> <Gold.Version>
5.8.1

> <Gold.Id.Protein>
6NUR|6NUR_protein|mol2

> <Gold.PLP.Fitness>
45.9436

> <Gold.PLP.PLP>
-42.2769

> <Gold.PLP.part.hbond>
-4.0000

> <Gold.PLP.part.metal>
0.0000

> <Gold.PLP.part.buried>
-4.5253

> <Gold.PLP.part.nonpolar>
-33.4949

> <Gold.PLP.part.repulsive>
1.1884

> <Gold.PLP.ligand.clash>
0.0000

> <Gold.PLP.ligand.torsion>
1.3171

> <Gold.PLP.Chemscore.Hbond>
2.0936

> <Gold.PLP.Chemscore.CHOScore>
0.0000

> <Gold.PLP.Chemscore.Metal>
0.0000

> <Gold.Chemscore.Hbonds>
donor molecule, donor type, donor heavy atom, donor atom, acceptor molecule, acceptor atom, score
      P1  H  7989  7998       L1    12  0.11
      P1  H  7997  8009       L1    12  0.85
      P1  H 10752 10765       L1     9  1.00

> <Gold.PLP.Chemscore.Internal.Correction>
0.0200

> <Gold.Rescore>
     Score         DG    S(hbond)    S(metal)    S(lipo)     H(rot)  DE(clash)    DE(int)     intcor
     15.86     -17.08       1.82        0.00      94.88       2.18       0.01       1.21       ----

> <Gold.Chemscore.Fitness>
15.8554

> <Gold.Chemscore.DG>
-17.0833

> <Gold.Chemscore.ZeroCoef>
-5.4800

> <Gold.Chemscore.Hbond>
1.8215

> <Gold.Chemscore.Metal>
0.0000

> <Gold.Chemscore.Lipo>
94.8756

> <Gold.Chemscore.Internal_Hbond>
0.0000

> <Gold.Chemscore.DEClash>
0.0142

> <Gold.Chemscore.DEInternal>
1.2137

> <Gold.Chemscore.Rot>
2.1800

> <Gold.Chemscore.Internal.Correction>
   9.000000E+99

> <Gold.Chemscore.Hbonds>
donor molecule, donor type, donor heavy atom, donor atom, acceptor molecule, acceptor atom, score
      P1  H  7989  7998       L1    12  0.03
      P1  H  7997  8009       L1    12  0.11
      P1  H 10752 10765       L1     9  0.26

> <Gold.Chemscore.Hbond.Weighted>
-6.0836

> <Gold.Chemscore.Metal.Weighted>
-0.0000

> <Gold.Chemscore.Lipo.Weighted>
-11.1004

> <Gold.Chemscore.Internal_Hbond.Weighted>
0.0000

> <Gold.Chemscore.DEClash.Weighted>
0.0142

> <Gold.Chemscore.DEInternal.Weighted>
1.2137

> <Gold.Chemscore.Rot.Weighted>
5.5807

> <Gold.Chemscore.Internal.Correction.Weighted>
   9.000000E+99

> <Gold.Protein.RotatedTorsions>
[ 6907 6896 6895 6894 ] final  -79.02 input  -60.11 | X-H torsion
[ 7974 7965 7964 7962 ] final  164.04 input  175.53 | X-H torsion
[ 8008 7997 7996 7995 ] final -144.48 input   59.86 | X-H torsion
[ 10167 10162 10161 10158 ] final  -10.64 input  -65.29 | X-H torsion
[ 10718 10713 10712 10709 ] final -118.93 input   66.30 | X-H torsion
[ 10763 10752 10751 10750 ] final  166.86 input  -60.55 | X-H torsion
[ 11005 11000 10999 10996 ] final  -37.08 input  -57.11 | X-H torsion

> <Gold.Protein.ActiveResidues>
 VAL166  LYS551  ARG553  GLY616  TRP617  ASP618  TYR619  PRO620  LYS621  CYS622 
 ASP623  PHE694  ASN695  SER759  ASP760  ASP761  ALA762  ILE779  LEU786  VAL792 
 PHE793  MET794  SER795  GLU796  ALA797  LYS798  CYS799  TRP800  GLU811  SER814 

> <Gold.Protein.RotatedAtoms>
  150.6959  134.4184  159.5193 H   0  0  0  0  0  0  0  0  0  0  0  0  # atno 6907 bound_to 6896
  152.1931  134.8652  160.0525 H   0  0  0  0  0  0  0  0  0  0  0  0  # atno 6908 bound_to 6896
  151.9600  133.3657  159.4068 H   0  0  0  0  0  0  0  0  0  0  0  0  # atno 6909 bound_to 6896
  144.7562  139.8269  143.6349 H   0  0  0  0  0  0  0  0  0  0  0  0  # atno 7974 bound_to 7965
  155.5276  140.0597  157.2895 H   0  0  0  0  0  0  0  0  0  0  0  0  # atno 8008 bound_to 7997
  154.4495  140.1941  156.0507 H   0  0  0  0  0  0  0  0  0  0  0  0  # atno 8009 bound_to 7997
  156.0675  140.3264  155.7539 H   0  0  0  0  0  0  0  0  0  0  0  0  # atno 8010 bound_to 7997
  140.7119  143.5726  150.9076 H   0  0  0  0  0  0  0  0  0  0  0  0  # atno 10167 bound_to 10162
  156.1143  130.6273  150.9352 H   0  0  0  0  0  0  0  0  0  0  0  0  # atno 10718 bound_to 10713
  154.3453  135.2753  155.2401 H   0  0  0  0  0  0  0  0  0  0  0  0  # atno 10763 bound_to 10752
  154.4653  135.5896  153.6287 H   0  0  0  0  0  0  0  0  0  0  0  0  # atno 10764 bound_to 10752
  152.9854  135.6075  154.3658 H   0  0  0  0  0  0  0  0  0  0  0  0  # atno 10765 bound_to 10752
  140.9924  133.6998  156.1874 H   0  0  0  0  0  0  0  0  0  0  0  0  # atno 11005 bound_to 11000
  146.1576  139.4679  143.0009 LP  0  0  0  0  0  0  0  0  0  0  0  0  # atno 17320 bound_to 7965
  145.6770  141.0201  143.1627 LP  0  0  0  0  0  0  0  0  0  0  0  0  # atno 17321 bound_to 7965
  139.9452  143.6335  152.3043 LP  0  0  0  0  0  0  0  0  0  0  0  0  # atno 17342 bound_to 10162
  139.6834  144.7653  151.1567 LP  0  0  0  0  0  0  0  0  0  0  0  0  # atno 17343 bound_to 10162
  157.6325  131.0919  150.8413 LP  0  0  0  0  0  0  0  0  0  0  0  0  # atno 17370 bound_to 10713
  156.8519  130.5083  149.5311 LP  0  0  0  0  0  0  0  0  0  0  0  0  # atno 17371 bound_to 10713
  140.7019  134.4555  157.5586 LP  0  0  0  0  0  0  0  0  0  0  0  0  # atno 17394 bound_to 11000
  139.8998  134.8582  156.1943 LP  0  0  0  0  0  0  0  0  0  0  0  0  # atno 17395 bound_to 11000

$$$$
