AV-unprocessed.smi:835|AV-procd|sdf|3886|dock1
  -GOLD-   22720 1343D 1   1.00000     0.00000
 Structure written by MMmdl.
 41 43  0  0  0  0  0  0  0  0  2 V2000
  152.8951  138.4819  157.9765 C   0  0  0  0  0  0  0  0  0  0  0  0
  151.9797  138.1087  156.8481 C   0  0  0  0  0  0  0  0  0  0  0  0
  151.5025  136.8124  156.4969 C   0  0  0  0  0  0  0  0  0  0  0  0
  150.7171  137.0665  155.4058 C   0  0  0  0  0  0  0  0  0  0  0  0
  149.9903  136.1955  154.6567 N   0  0  0  0  0  0  0  0  0  0  0  0
  149.6348  134.9331  154.9518 C   0  0  0  0  0  0  0  0  0  0  0  0
  149.9298  134.3300  155.9838 O   0  0  0  0  0  0  0  0  0  0  0  0
  148.9132  134.3864  153.9631 N   0  0  0  0  0  0  0  0  0  0  0  0
  148.4003  133.0205  153.9715 C   0  0  2  0  0  0  0  0  0  0  0  0
  149.4663  131.9444  154.1543 C   0  0  0  0  0  0  0  0  0  0  0  0
  148.7712  130.6917  153.6103 C   0  0  0  0  0  0  0  0  0  0  0  0
  147.7892  131.1535  152.5976 N   0  3  1  0  0  0  0  0  0  0  0  0
  146.4495  130.5466  152.7540 C   0  0  0  0  0  0  0  0  0  0  0  0
  146.2656  129.2784  151.9552 C   0  0  0  0  0  0  0  0  0  0  0  0
  145.6250  130.5678  151.4890 C   0  0  0  0  0  0  0  0  0  0  0  0
  147.7780  132.6330  152.6308 C   0  0  0  0  0  0  0  0  0  0  0  0
  150.7348  138.4192  155.1491 N   0  0  0  0  0  0  0  0  0  0  0  0
  150.0587  139.1687  154.1083 C   0  0  0  0  0  0  0  0  0  0  0  0
  151.5195  139.0596  156.0427 N   0  0  0  0  0  0  0  0  0  0  0  0
  153.2190  137.5997  158.5290 H   0  0  0  0  0  0  0  0  0  0  0  0
  152.3984  139.1498  158.6804 H   0  0  0  0  0  0  0  0  0  0  0  0
  153.7875  138.9882  157.6077 H   0  0  0  0  0  0  0  0  0  0  0  0
  151.7101  135.8698  156.9803 H   0  0  0  0  0  0  0  0  0  0  0  0
  149.7041  136.5420  153.7529 H   0  0  0  0  0  0  0  0  0  0  0  0
  148.7119  134.9499  153.1499 H   0  0  0  0  0  0  0  0  0  0  0  0
  147.6435  132.9175  154.7523 H   0  0  0  0  0  0  0  0  0  0  0  0
  150.3462  132.1741  153.5509 H   0  0  0  0  0  0  0  0  0  0  0  0
  149.7867  131.8329  155.1908 H   0  0  0  0  0  0  0  0  0  0  0  0
  149.4801  129.9865  153.1758 H   0  0  0  0  0  0  0  0  0  0  0  0
  148.2582  130.1798  154.4263 H   0  0  0  0  0  0  0  0  0  0  0  0
  145.9739  130.6626  153.7266 H   0  0  0  0  0  0  0  0  0  0  0  0
  147.1122  128.9023  151.3836 H   0  0  0  0  0  0  0  0  0  0  0  0
  145.6073  128.5157  152.3664 H   0  0  0  0  0  0  0  0  0  0  0  0
  144.5453  130.6536  151.5944 H   0  0  0  0  0  0  0  0  0  0  0  0
  146.0459  131.0496  150.6080 H   0  0  0  0  0  0  0  0  0  0  0  0
  146.7795  133.0530  152.4977 H   0  0  0  0  0  0  0  0  0  0  0  0
  148.3970  132.9899  151.8060 H   0  0  0  0  0  0  0  0  0  0  0  0
  150.2940  138.7387  153.1344 H   0  0  0  0  0  0  0  0  0  0  0  0
  150.3768  140.2123  154.1183 H   0  0  0  0  0  0  0  0  0  0  0  0
  148.9811  139.1247  154.2675 H   0  0  0  0  0  0  0  0  0  0  0  0
  148.1332  130.8820  151.6876 H   0  0  0  0  0  0  0  0  0  0  0  0
  1  2  1  0  0  0  0
  1 20  1  0  0  0  0
  1 21  1  0  0  0  0
  1 22  1  0  0  0  0
  2 19  2  0  0  0  0
  2  3  1  0  0  0  0
  3  4  2  0  0  0  0
  3 23  1  0  0  0  0
  4  5  1  0  0  0  0
  4 17  1  0  0  0  0
  5  6  1  0  0  0  0
  5 24  1  0  0  0  0
  6  7  2  0  0  0  0
  6  8  1  0  0  0  0
  8  9  1  0  0  0  0
  8 25  1  0  0  0  0
  9 16  1  0  0  0  0
  9 10  1  0  0  0  0
  9 26  1  0  0  0  0
 10 11  1  0  0  0  0
 10 27  1  0  0  0  0
 10 28  1  0  0  0  0
 11 12  1  0  0  0  0
 11 29  1  0  0  0  0
 11 30  1  0  0  0  0
 12 13  1  0  0  0  0
 12 16  1  0  0  0  0
 12 41  1  0  0  0  0
 13 15  1  0  0  0  0
 13 14  1  0  0  0  0
 13 31  1  0  0  0  0
 14 15  1  0  0  0  0
 14 32  1  0  0  0  0
 14 33  1  0  0  0  0
 15 34  1  0  0  0  0
 15 35  1  0  0  0  0
 16 36  1  0  0  0  0
 16 37  1  0  0  0  0
 17 18  1  0  0  0  0
 17 19  1  0  0  0  0
 18 38  1  0  0  0  0
 18 39  1  0  0  0  0
 18 40  1  0  0  0  0
M  CHG  1  12   1
M  END
> <s_m_source_file>
AV-unprocessed.smi

> <i_m_source_file_index>
835

> <i_lp_mmshare_version>
43012

> <i_f3d_flags>
0

> <s_epik_input>
W0NIM11jMVtjSF1jKG4objEpW0NIM10pW05IXUMoPU8pW05IXVtDQEBIXTJbQ0gyXVtDSDJdTihbQ0gyXTIpW0NIXTNbQ0gyXVtDSDJdMw==

> <s_epik_cmdline>
J2VwaWtfcHl0aG9uJywgJy1waCcsICc3LjAnLCAnLXRuJywgJzgnLCAnLW1hJywgJzIwMCcsICctbWV0YWxfYmluZGluZycsICctaW1hZScsICc8aW5maWxlLm1hZT4nLCAnLW9tYWUnLCAnPG91dGZpbGUubWFlPic=

> <r_lp_tautomer_probability>
1

> <r_epik_Ionization_Penalty>
0.000700689

> <r_epik_Ionization_Penalty_Charging>
0.000627528

> <r_epik_Ionization_Penalty_Neutral>
7.31611e-05

> <r_epik_State_Penalty>
0.00039643

> <r_epik_Charging_Adjusted_Penalty>
0.00102396

> <i_epik_Tot_Q>
1

> <i_epik_Tot_abs_Q>
1

> <r_epik_Metal_State_Penalty>
-0

> <b_epik_Metal_Only>
0

> <s_lp_Force_Field>
OPLS_2005

> <r_lp_Energy>
38.9836

> <b_lp_Chiralities_Consistent>
1

> <s_lp_Variant>
AV-unprocessed.smi:835-1

> <Gold.Version>
5.8.1

> <Gold.Id.Protein>
6NUR|6NUR_protein|mol2

> <Gold.PLP.Fitness>
40.6780

> <Gold.PLP.PLP>
-31.8609

> <Gold.PLP.part.hbond>
-3.0497

> <Gold.PLP.part.metal>
0.0000

> <Gold.PLP.part.buried>
-2.7855

> <Gold.PLP.part.nonpolar>
-25.6248

> <Gold.PLP.part.repulsive>
0.0882

> <Gold.PLP.ligand.clash>
0.0000

> <Gold.PLP.ligand.torsion>
0.7249

> <Gold.PLP.Chemscore.Hbond>
3.0000

> <Gold.PLP.Chemscore.CHOScore>
0.0000

> <Gold.PLP.Chemscore.Metal>
0.0000

> <Gold.Chemscore.Hbonds>
donor molecule, donor type, donor heavy atom, donor atom, acceptor molecule, acceptor atom, score
      L1  H     5    24       P1  7948  1.00
      L1  H     8    25       P1  7948  1.00
      L1  H    12    41       P1 10747  1.00

> <Gold.PLP.Chemscore.Internal.Correction>
1.2668

> <Gold.Rescore>
     Score         DG    S(hbond)    S(metal)    S(lipo)     H(rot)  DE(clash)    DE(int)     intcor
     16.88     -18.81       2.50        0.00      69.38       1.22       0.15       1.78       ----

> <Gold.Chemscore.Fitness>
16.8822

> <Gold.Chemscore.DG>
-18.8124

> <Gold.Chemscore.ZeroCoef>
-5.4800

> <Gold.Chemscore.Hbond>
2.4961

> <Gold.Chemscore.Metal>
0.0000

> <Gold.Chemscore.Lipo>
69.3832

> <Gold.Chemscore.Internal_Hbond>
0.0000

> <Gold.Chemscore.DEClash>
0.1515

> <Gold.Chemscore.DEInternal>
1.7787

> <Gold.Chemscore.Rot>
1.2196

> <Gold.Chemscore.Internal.Correction>
   9.000000E+99

> <Gold.Chemscore.Hbonds>
donor molecule, donor type, donor heavy atom, donor atom, acceptor molecule, acceptor atom, score
      L1  H     5    24       P1  7948  0.49
      L1  H     8    25       P1  7948  0.44
      L1  H    12    41       P1 10747  0.99

> <Gold.Chemscore.Hbond.Weighted>
-8.3368

> <Gold.Chemscore.Metal.Weighted>
-0.0000

> <Gold.Chemscore.Lipo.Weighted>
-8.1178

> <Gold.Chemscore.Internal_Hbond.Weighted>
0.0000

> <Gold.Chemscore.DEClash.Weighted>
0.1515

> <Gold.Chemscore.DEInternal.Weighted>
1.7787

> <Gold.Chemscore.Rot.Weighted>
3.1223

> <Gold.Chemscore.Internal.Correction.Weighted>
   9.000000E+99

> <Gold.Protein.RotatedTorsions>
[ 6907 6896 6895 6894 ] final  111.83 input  -60.11 | X-H torsion
[ 7974 7965 7964 7962 ] final  -63.15 input  175.53 | X-H torsion
[ 8008 7997 7996 7995 ] final -138.45 input   59.86 | X-H torsion
[ 10167 10162 10161 10158 ] final   73.84 input  -65.29 | X-H torsion
[ 10718 10713 10712 10709 ] final -134.84 input   66.30 | X-H torsion
[ 10763 10752 10751 10750 ] final  -24.94 input  -60.55 | X-H torsion
[ 11005 11000 10999 10996 ] final   -3.51 input  -57.11 | X-H torsion

> <Gold.Protein.ActiveResidues>
 VAL166  LYS551  ARG553  GLY616  TRP617  ASP618  TYR619  PRO620  LYS621  CYS622 
 ASP623  PHE694  ASN695  SER759  ASP760  ASP761  ALA762  ILE779  LEU786  VAL792 
 PHE793  MET794  SER795  GLU796  ALA797  LYS798  CYS799  TRP800  GLU811  SER814 

> <Gold.Protein.RotatedAtoms>
  152.4949  133.8602  159.7246 H   0  0  0  0  0  0  0  0  0  0  0  0  # atno 6907 bound_to 6896
  150.9116  133.6981  159.2860 H   0  0  0  0  0  0  0  0  0  0  0  0  # atno 6908 bound_to 6896
  151.4389  135.1022  159.9716 H   0  0  0  0  0  0  0  0  0  0  0  0  # atno 6909 bound_to 6896
  145.7826  140.8754  143.0322 H   0  0  0  0  0  0  0  0  0  0  0  0  # atno 7974 bound_to 7965
  155.4286  140.0523  157.3020 H   0  0  0  0  0  0  0  0  0  0  0  0  # atno 8008 bound_to 7997
  154.4870  140.2105  155.9591 H   0  0  0  0  0  0  0  0  0  0  0  0  # atno 8009 bound_to 7997
  156.1289  140.3175  155.8324 H   0  0  0  0  0  0  0  0  0  0  0  0  # atno 8010 bound_to 7997
  140.0201  144.5547  150.7588 H   0  0  0  0  0  0  0  0  0  0  0  0  # atno 10167 bound_to 10162
  156.2597  130.7202  151.1132 H   0  0  0  0  0  0  0  0  0  0  0  0  # atno 10718 bound_to 10713
  153.6918  135.6961  153.5088 H   0  0  0  0  0  0  0  0  0  0  0  0  # atno 10763 bound_to 10752
  153.2407  135.4307  155.0694 H   0  0  0  0  0  0  0  0  0  0  0  0  # atno 10764 bound_to 10752
  154.8370  135.3507  154.6460 H   0  0  0  0  0  0  0  0  0  0  0  0  # atno 10765 bound_to 10752
  140.6701  133.9244  155.8489 H   0  0  0  0  0  0  0  0  0  0  0  0  # atno 11005 bound_to 11000
  144.6794  140.0010  143.7484 LP  0  0  0  0  0  0  0  0  0  0  0  0  # atno 17320 bound_to 7965
  146.0058  139.3129  143.0900 LP  0  0  0  0  0  0  0  0  0  0  0  0  # atno 17321 bound_to 7965
  140.7346  143.2730  151.3828 LP  0  0  0  0  0  0  0  0  0  0  0  0  # atno 17342 bound_to 10162
  139.6145  144.1030  152.2332 LP  0  0  0  0  0  0  0  0  0  0  0  0  # atno 17343 bound_to 10162
  157.7246  131.0659  150.5989 LP  0  0  0  0  0  0  0  0  0  0  0  0  # atno 17370 bound_to 10713
  156.6076  130.4371  149.5872 LP  0  0  0  0  0  0  0  0  0  0  0  0  # atno 17371 bound_to 10713
  141.0398  134.0637  157.3915 LP  0  0  0  0  0  0  0  0  0  0  0  0  # atno 17394 bound_to 11000
  139.8984  135.0154  156.7148 LP  0  0  0  0  0  0  0  0  0  0  0  0  # atno 17395 bound_to 11000

$$$$
