AV-unprocessed.smi:2083|AV-procd|sdf|8513|dock3
  -GOLD-   2272011233D 1   1.00000     0.00000
 Structure written by MMmdl.
 44 45  0  0  0  0  0  0  0  0  3 V2000
  147.3540  134.9472  162.5822 C   0  0  0  0  0  0  0  0  0  0  0  0
  147.7842  135.4324  161.2407 C   0  0  0  0  0  0  0  0  0  0  0  0
  147.8552  134.8349  160.0139 C   0  0  0  0  0  0  0  0  0  0  0  0
  148.3480  135.8730  159.1789 C   0  0  0  0  0  0  0  0  0  0  0  0
  148.5684  135.6451  157.7946 N   0  0  0  0  0  0  0  0  0  0  0  0
  149.1203  134.5747  157.1940 C   0  0  0  0  0  0  0  0  0  0  0  0
  149.5341  133.6244  157.8690 O   0  0  0  0  0  0  0  0  0  0  0  0
  149.1466  134.7015  155.8389 N   0  5  0  0  0  0  0  0  0  0  0  0
  147.9634  134.6767  154.9796 C   0  0  0  0  0  0  0  0  0  0  0  0
  148.1770  133.7047  153.7895 C   0  0  1  0  0  0  0  0  0  0  0  0
  148.1255  132.2039  154.1741 C   0  0  0  0  0  0  0  0  0  0  0  0
  147.2559  134.0479  152.6603 N   0  3  2  0  0  0  0  0  0  0  0  0
  146.0173  134.7968  153.0259 C   0  0  0  0  0  0  0  0  0  0  0  0
  145.2925  135.2969  151.7676 C   0  0  0  0  0  0  0  0  0  0  0  0
  144.9575  134.1287  150.8313 C   0  0  0  0  0  0  0  0  0  0  0  0
  146.2303  133.3356  150.4900 C   0  0  2  0  0  0  0  0  0  0  0  0
  145.9197  132.1420  149.5756 C   0  0  0  0  0  0  0  0  0  0  0  0
  146.9478  132.8877  151.7802 C   0  0  0  0  0  0  0  0  0  0  0  0
  148.5604  137.0019  159.8391 N   0  0  0  0  0  0  0  0  0  0  0  0
  148.1997  136.7254  161.1631 O   0  0  0  0  0  0  0  0  0  0  0  0
  147.0340  133.9062  162.5357 H   0  0  0  0  0  0  0  0  0  0  0  0
  146.5204  135.5410  162.9576 H   0  0  0  0  0  0  0  0  0  0  0  0
  148.1719  135.0180  163.2994 H   0  0  0  0  0  0  0  0  0  0  0  0
  147.5951  133.8191  159.7564 H   0  0  0  0  0  0  0  0  0  0  0  0
  148.2664  136.3849  157.1783 H   0  0  0  0  0  0  0  0  0  0  0  0
  147.0687  134.3813  155.5287 H   0  0  0  0  0  0  0  0  0  0  0  0
  147.7462  135.6670  154.5758 H   0  0  0  0  0  0  0  0  0  0  0  0
  149.1913  133.8991  153.4372 H   0  0  0  0  0  0  0  0  0  0  0  0
  148.9111  131.9397  154.8840 H   0  0  0  0  0  0  0  0  0  0  0  0
  148.2777  131.5738  153.2976 H   0  0  0  0  0  0  0  0  0  0  0  0
  147.1745  131.9145  154.6246 H   0  0  0  0  0  0  0  0  0  0  0  0
  145.3461  134.1548  153.5980 H   0  0  0  0  0  0  0  0  0  0  0  0
  146.2573  135.6504  153.6603 H   0  0  0  0  0  0  0  0  0  0  0  0
  144.3791  135.8221  152.0478 H   0  0  0  0  0  0  0  0  0  0  0  0
  145.9194  136.0213  151.2458 H   0  0  0  0  0  0  0  0  0  0  0  0
  144.2271  133.4739  151.3087 H   0  0  0  0  0  0  0  0  0  0  0  0
  144.4900  134.5058  149.9210 H   0  0  0  0  0  0  0  0  0  0  0  0
  146.9037  133.9988  149.9445 H   0  0  0  0  0  0  0  0  0  0  0  0
  145.2480  131.4337  150.0614 H   0  0  0  0  0  0  0  0  0  0  0  0
  146.8301  131.6063  149.3053 H   0  0  0  0  0  0  0  0  0  0  0  0
  145.4452  132.4695  148.6501 H   0  0  0  0  0  0  0  0  0  0  0  0
  147.8722  132.3780  151.5054 H   0  0  0  0  0  0  0  0  0  0  0  0
  146.3383  132.1672  152.3277 H   0  0  0  0  0  0  0  0  0  0  0  0
  147.7977  134.6754  152.0831 H   0  0  0  0  0  0  0  0  0  0  0  0
  1  2  1  0  0  0  0
  1 21  1  0  0  0  0
  1 22  1  0  0  0  0
  1 23  1  0  0  0  0
  2 20  1  0  0  0  0
  2  3  2  0  0  0  0
  3  4  1  0  0  0  0
  3 24  1  0  0  0  0
  4  5  1  0  0  0  0
  4 19  2  0  0  0  0
  5  6  1  0  0  0  0
  5 25  1  0  0  0  0
  6  7  2  0  0  0  0
  6  8  1  0  0  0  0
  8  9  1  0  0  0  0
  9 10  1  0  0  0  0
  9 26  1  0  0  0  0
  9 27  1  0  0  0  0
 10 11  1  0  0  0  0
 10 12  1  0  0  0  0
 10 28  1  0  0  0  0
 11 29  1  0  0  0  0
 11 30  1  0  0  0  0
 11 31  1  0  0  0  0
 12 18  1  0  0  0  0
 12 13  1  0  0  0  0
 12 44  1  0  0  0  0
 13 14  1  0  0  0  0
 13 32  1  0  0  0  0
 13 33  1  0  0  0  0
 14 15  1  0  0  0  0
 14 34  1  0  0  0  0
 14 35  1  0  0  0  0
 15 16  1  0  0  0  0
 15 36  1  0  0  0  0
 15 37  1  0  0  0  0
 16 17  1  0  0  0  0
 16 18  1  0  0  0  0
 16 38  1  0  0  0  0
 17 39  1  0  0  0  0
 17 40  1  0  0  0  0
 17 41  1  0  0  0  0
 18 42  1  0  0  0  0
 18 43  1  0  0  0  0
 19 20  1  0  0  0  0
M  CHG  1   8  -1
M  CHG  1  12   1
M  END
> <s_m_source_file>
AV-unprocessed.smi

> <i_m_source_file_index>
2083

> <i_lp_mmshare_version>
43012

> <i_f3d_flags>
0

> <s_epik_input>
W0NIM11jMVtjSF1jKG5vMSlbTkhdQyg9TylbTkhdW0NIMl1bQ0BIXShbQ0gzXSlOMltDSDJdW0NIMl1bQ0gyXVtDQEBIXShbQ0gzXSlbQ0gyXTI=

> <s_epik_cmdline>
J2VwaWtfcHl0aG9uJywgJy1waCcsICc3LjAnLCAnLXRuJywgJzgnLCAnLW1hJywgJzIwMCcsICctbWV0YWxfYmluZGluZycsICctaW1hZScsICc8aW5maWxlLm1hZT4nLCAnLW9tYWUnLCAnPG91dGZpbGUubWFlPic=

> <r_epik_Ionization_Penalty>
6.76934

> <r_epik_Ionization_Penalty_Charging>
6.76934

> <r_epik_Ionization_Penalty_Neutral>
5.77849e-06

> <r_epik_State_Penalty>
6.79457

> <r_epik_Charging_Adjusted_Penalty>
13.5639

> <i_epik_Tot_Q>
0

> <i_epik_Tot_abs_Q>
2

> <r_epik_Metal_State_Penalty>
2.72837

> <b_epik_Metal_Only>
1

> <s_lp_Force_Field>
OPLS_2005

> <r_lp_Energy>
18.0099

> <b_lp_Chiralities_Consistent>
1

> <s_lp_Variant>
AV-unprocessed.smi:2083-24

> <Gold.Version>
5.8.1

> <Gold.Id.Protein>
6NUR|6NUR_protein|mol2

> <Gold.PLP.Fitness>
42.4330

> <Gold.PLP.PLP>
-34.0868

> <Gold.PLP.part.hbond>
-5.8068

> <Gold.PLP.part.metal>
0.0000

> <Gold.PLP.part.buried>
-2.5020

> <Gold.PLP.part.nonpolar>
-25.7459

> <Gold.PLP.part.repulsive>
0.0987

> <Gold.PLP.ligand.clash>
0.0000

> <Gold.PLP.ligand.torsion>
2.1674

> <Gold.PLP.Chemscore.Hbond>
4.1813

> <Gold.PLP.Chemscore.CHOScore>
0.0000

> <Gold.PLP.Chemscore.Metal>
0.0000

> <Gold.Chemscore.Hbonds>
donor molecule, donor type, donor heavy atom, donor atom, acceptor molecule, acceptor atom, score
      L1  H    12    44       P1  7948  2.00
      P1  H  6896  6908       L1     7  1.00
      P1  H  6931  6943       L1    20  0.75

> <Gold.PLP.Chemscore.Internal.Correction>
0.1372

> <Gold.Rescore>
     Score         DG    S(hbond)    S(metal)    S(lipo)     H(rot)  DE(clash)    DE(int)     intcor
     16.57     -18.72       2.64        0.00      70.95       1.52       0.08       2.07       ----

> <Gold.Chemscore.Fitness>
16.5673

> <Gold.Chemscore.DG>
-18.7209

> <Gold.Chemscore.ZeroCoef>
-5.4800

> <Gold.Chemscore.Hbond>
2.6432

> <Gold.Chemscore.Metal>
0.0000

> <Gold.Chemscore.Lipo>
70.9513

> <Gold.Chemscore.Internal_Hbond>
0.0000

> <Gold.Chemscore.DEClash>
0.0835

> <Gold.Chemscore.DEInternal>
2.0700

> <Gold.Chemscore.Rot>
1.5190

> <Gold.Chemscore.Internal.Correction>
   9.000000E+99

> <Gold.Chemscore.Hbonds>
donor molecule, donor type, donor heavy atom, donor atom, acceptor molecule, acceptor atom, score
      L1  H    12    44       P1  7948  0.48
      P1  H  6896  6908       L1     7  0.99
      P1  H  6931  6943       L1    20  0.09

> <Gold.Chemscore.Hbond.Weighted>
-8.8282

> <Gold.Chemscore.Metal.Weighted>
-0.0000

> <Gold.Chemscore.Lipo.Weighted>
-8.3013

> <Gold.Chemscore.Internal_Hbond.Weighted>
0.0000

> <Gold.Chemscore.DEClash.Weighted>
0.0835

> <Gold.Chemscore.DEInternal.Weighted>
2.0700

> <Gold.Chemscore.Rot.Weighted>
3.8886

> <Gold.Chemscore.Internal.Correction.Weighted>
   9.000000E+99

> <Gold.Protein.RotatedTorsions>
[ 6907 6896 6895 6894 ] final  113.80 input  -60.11 | X-H torsion
[ 7974 7965 7964 7962 ] final -139.97 input  175.53 | X-H torsion
[ 8008 7997 7996 7995 ] final   15.16 input   59.86 | X-H torsion
[ 10167 10162 10161 10158 ] final  168.33 input  -65.29 | X-H torsion
[ 10718 10713 10712 10709 ] final  -45.36 input   66.30 | X-H torsion
[ 10763 10752 10751 10750 ] final -137.49 input  -60.55 | X-H torsion
[ 11005 11000 10999 10996 ] final   48.25 input  -57.11 | X-H torsion

> <Gold.Protein.ActiveResidues>
 VAL166  LYS551  ARG553  GLY616  TRP617  ASP618  TYR619  PRO620  LYS621  CYS622 
 ASP623  PHE694  ASN695  SER759  ASP760  ASP761  ALA762  ILE779  LEU786  VAL792 
 PHE793  MET794  SER795  GLU796  ALA797  LYS798  CYS799  TRP800  GLU811  SER814 

> <Gold.Protein.RotatedAtoms>
  152.4840  133.8325  159.7110 H   0  0  0  0  0  0  0  0  0  0  0  0  # atno 6907 bound_to 6896
  150.8911  133.7233  159.2911 H   0  0  0  0  0  0  0  0  0  0  0  0  # atno 6908 bound_to 6896
  151.4705  135.1049  159.9802 H   0  0  0  0  0  0  0  0  0  0  0  0  # atno 6909 bound_to 6896
  144.8634  140.6255  143.5314 H   0  0  0  0  0  0  0  0  0  0  0  0  # atno 7974 bound_to 7965
  154.8586  140.2941  155.5553 H   0  0  0  0  0  0  0  0  0  0  0  0  # atno 8008 bound_to 7997
  156.3019  140.2482  156.3490 H   0  0  0  0  0  0  0  0  0  0  0  0  # atno 8009 bound_to 7997
  154.8942  140.0393  157.1845 H   0  0  0  0  0  0  0  0  0  0  0  0  # atno 8010 bound_to 7997
  139.4965  144.3826  151.9606 H   0  0  0  0  0  0  0  0  0  0  0  0  # atno 10167 bound_to 10162
  156.2291  130.4171  149.8896 H   0  0  0  0  0  0  0  0  0  0  0  0  # atno 10718 bound_to 10713
  154.8660  135.3641  154.5231 H   0  0  0  0  0  0  0  0  0  0  0  0  # atno 10763 bound_to 10752
  153.5860  135.7017  153.5448 H   0  0  0  0  0  0  0  0  0  0  0  0  # atno 10764 bound_to 10752
  153.3415  135.4096  155.1537 H   0  0  0  0  0  0  0  0  0  0  0  0  # atno 10765 bound_to 10752
  140.1207  134.4833  155.8600 H   0  0  0  0  0  0  0  0  0  0  0  0  # atno 11005 bound_to 11000
  145.4268  139.1555  143.4044 LP  0  0  0  0  0  0  0  0  0  0  0  0  # atno 17320 bound_to 7965
  146.2877  140.4382  142.8751 LP  0  0  0  0  0  0  0  0  0  0  0  0  # atno 17321 bound_to 7965
  140.3262  144.3370  150.5998 LP  0  0  0  0  0  0  0  0  0  0  0  0  # atno 17342 bound_to 10162
  140.5682  143.2184  151.7646 LP  0  0  0  0  0  0  0  0  0  0  0  0  # atno 17343 bound_to 10162
  156.6517  130.8746  151.3532 LP  0  0  0  0  0  0  0  0  0  0  0  0  # atno 17370 bound_to 10713
  157.7125  130.9457  150.1137 LP  0  0  0  0  0  0  0  0  0  0  0  0  # atno 17371 bound_to 10713
  141.2151  133.6759  156.6882 LP  0  0  0  0  0  0  0  0  0  0  0  0  # atno 17394 bound_to 11000
  140.2969  134.8195  157.4065 LP  0  0  0  0  0  0  0  0  0  0  0  0  # atno 17395 bound_to 11000

$$$$
