AV-unprocessed.smi:1740|AV-procd|sdf|7012|dock1
  -GOLD-   22720 8223D 1   1.00000     0.00000
 Structure written by MMmdl.
 51 53  0  0  0  0  0  0  0  0  3 V2000
  146.4408  131.9804  150.1131 N   0  5  0  0  0  0  0  0  0  0  0  0
  145.4931  131.4526  150.9141 C   0  0  0  0  0  0  0  0  0  0  0  0
  145.5634  130.4345  151.5984 O   0  0  0  0  0  0  0  0  0  0  0  0
  144.2034  132.2806  150.9152 C   0  0  0  0  0  0  0  0  0  0  0  0
  144.4696  133.6679  151.3743 N   0  3  2  0  0  0  0  0  0  0  0  0
  143.3245  134.2506  152.1180 C   0  0  0  0  0  0  0  0  0  0  0  0
  143.6882  135.6227  152.7104 C   0  0  0  0  0  0  0  0  0  0  0  0
  144.1727  136.5913  151.6192 C   0  0  1  0  0  0  0  0  0  0  0  0
  144.5954  137.8509  152.2248 N   0  0  0  0  0  0  0  0  0  0  0  0
  145.6803  138.0107  152.9961 C   0  0  0  0  0  0  0  0  0  0  0  0
  146.4657  137.1006  153.2611 O   0  0  0  0  0  0  0  0  0  0  0  0
  145.7942  139.2817  153.4168 N   0  0  0  0  0  0  0  0  0  0  0  0
  146.7966  139.8486  154.2550 C   0  0  0  0  0  0  0  0  0  0  0  0
  148.0137  139.1746  154.5226 C   0  0  0  0  0  0  0  0  0  0  0  0
  148.9392  139.7470  155.4120 C   0  0  0  0  0  0  0  0  0  0  0  0
  148.6087  140.9697  156.0192 C   0  0  0  0  0  0  0  0  0  0  0  0
  147.4499  141.6171  155.7867 N   0  0  0  0  0  0  0  0  0  0  0  0
  146.5536  141.0848  154.9197 C   0  0  0  0  0  0  0  0  0  0  0  0
  145.3645  141.8160  154.6990 N   0  0  0  0  0  0  0  0  0  0  0  0
  145.4704  143.0708  153.9598 C   0  0  0  0  0  0  0  0  0  0  0  0
  144.4792  144.0415  154.6101 C   0  0  0  0  0  0  0  0  0  0  0  0
  143.4887  143.1234  155.3191 C   0  0  0  0  0  0  0  0  0  0  0  0
  144.3808  141.9690  155.7662 C   0  0  0  0  0  0  0  0  0  0  0  0
  145.3315  135.9465  150.8364 C   0  0  0  0  0  0  0  0  0  0  0  0
  144.9323  134.5684  150.2848 C   0  0  0  0  0  0  0  0  0  0  0  0
  147.4129  131.6704  150.2311 H   0  0  0  0  0  0  0  0  0  0  0  0
  143.7482  132.2877  149.9234 H   0  0  0  0  0  0  0  0  0  0  0  0
  143.4919  131.7882  151.5803 H   0  0  0  0  0  0  0  0  0  0  0  0
  142.4647  134.3408  151.4522 H   0  0  0  0  0  0  0  0  0  0  0  0
  143.0321  133.5793  152.9264 H   0  0  0  0  0  0  0  0  0  0  0  0
  142.8231  136.0418  153.2258 H   0  0  0  0  0  0  0  0  0  0  0  0
  144.4656  135.4944  153.4652 H   0  0  0  0  0  0  0  0  0  0  0  0
  143.3420  136.7819  150.9365 H   0  0  0  0  0  0  0  0  0  0  0  0
  144.0112  138.6567  152.0556 H   0  0  0  0  0  0  0  0  0  0  0  0
  145.1301  139.9396  153.0355 H   0  0  0  0  0  0  0  0  0  0  0  0
  148.2438  138.2175  154.0805 H   0  0  0  0  0  0  0  0  0  0  0  0
  149.8742  139.2536  155.6328 H   0  0  0  0  0  0  0  0  0  0  0  0
  149.2892  141.4381  156.7147 H   0  0  0  0  0  0  0  0  0  0  0  0
  146.4852  143.4715  153.9699 H   0  0  0  0  0  0  0  0  0  0  0  0
  145.1884  142.8914  152.9220 H   0  0  0  0  0  0  0  0  0  0  0  0
  144.9976  144.6563  155.3472 H   0  0  0  0  0  0  0  0  0  0  0  0
  144.0041  144.7083  153.8902 H   0  0  0  0  0  0  0  0  0  0  0  0
  142.9718  143.6079  156.1476 H   0  0  0  0  0  0  0  0  0  0  0  0
  142.7395  142.7651  154.6116 H   0  0  0  0  0  0  0  0  0  0  0  0
  143.8115  141.0513  155.9157 H   0  0  0  0  0  0  0  0  0  0  0  0
  144.8636  142.2307  156.7085 H   0  0  0  0  0  0  0  0  0  0  0  0
  145.6380  136.5934  150.0136 H   0  0  0  0  0  0  0  0  0  0  0  0
  146.2027  135.8377  151.4843 H   0  0  0  0  0  0  0  0  0  0  0  0
  145.7882  134.1298  149.7711 H   0  0  0  0  0  0  0  0  0  0  0  0
  144.1411  134.6778  149.5417 H   0  0  0  0  0  0  0  0  0  0  0  0
  145.2295  133.5856  152.0357 H   0  0  0  0  0  0  0  0  0  0  0  0
  1  2  1  0  0  0  0
  1 26  1  0  0  0  0
  2  3  2  0  0  0  0
  2  4  1  0  0  0  0
  4  5  1  0  0  0  0
  4 27  1  0  0  0  0
  4 28  1  0  0  0  0
  5 25  1  0  0  0  0
  5  6  1  0  0  0  0
  5 51  1  0  0  0  0
  6  7  1  0  0  0  0
  6 29  1  0  0  0  0
  6 30  1  0  0  0  0
  7  8  1  0  0  0  0
  7 31  1  0  0  0  0
  7 32  1  0  0  0  0
  8  9  1  0  0  0  0
  8 24  1  0  0  0  0
  8 33  1  0  0  0  0
  9 10  1  0  0  0  0
  9 34  1  0  0  0  0
 10 11  2  0  0  0  0
 10 12  1  0  0  0  0
 12 13  1  0  0  0  0
 12 35  1  0  0  0  0
 13 18  1  0  0  0  0
 13 14  2  0  0  0  0
 14 15  1  0  0  0  0
 14 36  1  0  0  0  0
 15 16  2  0  0  0  0
 15 37  1  0  0  0  0
 16 17  1  0  0  0  0
 16 38  1  0  0  0  0
 17 18  2  0  0  0  0
 18 19  1  0  0  0  0
 19 23  1  0  0  0  0
 19 20  1  0  0  0  0
 20 21  1  0  0  0  0
 20 39  1  0  0  0  0
 20 40  1  0  0  0  0
 21 22  1  0  0  0  0
 21 41  1  0  0  0  0
 21 42  1  0  0  0  0
 22 23  1  0  0  0  0
 22 43  1  0  0  0  0
 22 44  1  0  0  0  0
 23 45  1  0  0  0  0
 23 46  1  0  0  0  0
 24 25  1  0  0  0  0
 24 47  1  0  0  0  0
 24 48  1  0  0  0  0
 25 49  1  0  0  0  0
 25 50  1  0  0  0  0
M  CHG  1   1  -1
M  CHG  1   5   1
M  END
> <s_m_source_file>
AV-unprocessed.smi

> <i_m_source_file_index>
1740

> <i_lp_mmshare_version>
43012

> <i_f3d_flags>
0

> <s_epik_input>
W05IMl1DKD1PKVtDSDJdTjFbQ0gyXVtDSDJdW0NIXShbQ0gyXVtDSDJdMSlbTkhdQyg9TylbTkhdYzJbY0hdW2NIXVtjSF1uYzJOM1tDSDJdW0NIMl1bQ0gyXVtDSDJdMw==

> <s_epik_cmdline>
J2VwaWtfcHl0aG9uJywgJy1waCcsICc3LjAnLCAnLXRuJywgJzgnLCAnLW1hJywgJzIwMCcsICctbWV0YWxfYmluZGluZycsICctaW1hZScsICc8aW5maWxlLm1hZT4nLCAnLW9tYWUnLCAnPG91dGZpbGUubWFlPic=

> <r_lp_tautomer_probability>
1

> <r_epik_Ionization_Penalty>
5.80652

> <r_epik_Ionization_Penalty_Charging>
5.7288

> <r_epik_Ionization_Penalty_Neutral>
0.0777157

> <r_epik_State_Penalty>
6.60246

> <r_epik_Charging_Adjusted_Penalty>
12.3313

> <i_epik_Tot_Q>
0

> <i_epik_Tot_abs_Q>
2

> <r_epik_Metal_State_Penalty>
2.64988

> <b_epik_Metal_Only>
1

> <s_lp_Force_Field>
OPLS_2005

> <r_lp_Energy>
35.8158

> <b_lp_Chiralities_Consistent>
1

> <s_lp_Variant>
AV-unprocessed.smi:1740-7

> <Gold.Version>
5.8.1

> <Gold.Id.Protein>
6NUR|6NUR_protein|mol2

> <Gold.PLP.Fitness>
46.1424

> <Gold.PLP.PLP>
-38.0420

> <Gold.PLP.part.hbond>
-4.0000

> <Gold.PLP.part.metal>
0.0000

> <Gold.PLP.part.buried>
-5.5884

> <Gold.PLP.part.nonpolar>
-32.7089

> <Gold.PLP.part.repulsive>
4.0992

> <Gold.PLP.ligand.clash>
0.0000

> <Gold.PLP.ligand.torsion>
0.6396

> <Gold.PLP.Chemscore.Hbond>
3.0000

> <Gold.PLP.Chemscore.CHOScore>
0.0000

> <Gold.PLP.Chemscore.Metal>
0.0000

> <Gold.Chemscore.Hbonds>
donor molecule, donor type, donor heavy atom, donor atom, acceptor molecule, acceptor atom, score
      L1  H     1    26       P1 10747  1.00
      L1  H     9    34       P1 10175  0.96
      L1  H    12    35       P1 10175  1.00

> <Gold.PLP.Chemscore.Internal.Correction>
0.3795

> <Gold.Rescore>
     Score         DG    S(hbond)    S(metal)    S(lipo)     H(rot)  DE(clash)    DE(int)     intcor
     14.23     -19.04       2.95        0.00      79.00       2.16       1.56       3.25       ----

> <Gold.Chemscore.Fitness>
14.2322

> <Gold.Chemscore.DG>
-19.0397

> <Gold.Chemscore.ZeroCoef>
-5.4800

> <Gold.Chemscore.Hbond>
2.9450

> <Gold.Chemscore.Metal>
0.0000

> <Gold.Chemscore.Lipo>
79.0010

> <Gold.Chemscore.Internal_Hbond>
0.0000

> <Gold.Chemscore.DEClash>
1.5606

> <Gold.Chemscore.DEInternal>
3.2469

> <Gold.Chemscore.Rot>
2.1562

> <Gold.Chemscore.Internal.Correction>
   9.000000E+99

> <Gold.Chemscore.Hbonds>
donor molecule, donor type, donor heavy atom, donor atom, acceptor molecule, acceptor atom, score
      L1  H     1    26       P1 10747  1.00
      L1  H     9    34       P1 10175  0.92
      L1  H    12    35       P1 10175  0.99

> <Gold.Chemscore.Hbond.Weighted>
-9.8364

> <Gold.Chemscore.Metal.Weighted>
-0.0000

> <Gold.Chemscore.Lipo.Weighted>
-9.2431

> <Gold.Chemscore.Internal_Hbond.Weighted>
0.0000

> <Gold.Chemscore.DEClash.Weighted>
1.5606

> <Gold.Chemscore.DEInternal.Weighted>
3.2469

> <Gold.Chemscore.Rot.Weighted>
5.5198

> <Gold.Chemscore.Internal.Correction.Weighted>
   9.000000E+99

> <Gold.Protein.RotatedTorsions>
[ 6907 6896 6895 6894 ] final  120.05 input  -60.11 | X-H torsion
[ 7974 7965 7964 7962 ] final   90.01 input  175.53 | X-H torsion
[ 8008 7997 7996 7995 ] final  -93.95 input   59.86 | X-H torsion
[ 10167 10162 10161 10158 ] final -121.34 input  -65.29 | X-H torsion
[ 10718 10713 10712 10709 ] final   94.37 input   66.30 | X-H torsion
[ 10763 10752 10751 10750 ] final   22.94 input  -60.55 | X-H torsion
[ 11005 11000 10999 10996 ] final  124.83 input  -57.11 | X-H torsion

> <Gold.Protein.ActiveResidues>
 VAL166  LYS551  ARG553  GLY616  TRP617  ASP618  TYR619  PRO620  LYS621  CYS622 
 ASP623  PHE694  ASN695  SER759  ASP760  ASP761  ALA762  ILE779  LEU786  VAL792 
 PHE793  MET794  SER795  GLU796  ALA797  LYS798  CYS799  TRP800  GLU811  SER814 

> <Gold.Protein.RotatedAtoms>
  152.4427  133.7477  159.6676 H   0  0  0  0  0  0  0  0  0  0  0  0  # atno 6907 bound_to 6896
  150.8320  133.8065  159.3101 H   0  0  0  0  0  0  0  0  0  0  0  0  # atno 6908 bound_to 6896
  151.5716  135.1065  160.0048 H   0  0  0  0  0  0  0  0  0  0  0  0  # atno 6909 bound_to 6896
  145.5247  139.2280  143.2652 H   0  0  0  0  0  0  0  0  0  0  0  0  # atno 7974 bound_to 7965
  154.7422  140.0494  157.0821 H   0  0  0  0  0  0  0  0  0  0  0  0  # atno 8008 bound_to 7997
  155.0164  140.3142  155.4791 H   0  0  0  0  0  0  0  0  0  0  0  0  # atno 8009 bound_to 7997
  156.2867  140.2175  156.5280 H   0  0  0  0  0  0  0  0  0  0  0  0  # atno 8010 bound_to 7997
  140.0260  143.5296  152.2198 H   0  0  0  0  0  0  0  0  0  0  0  0  # atno 10167 bound_to 10162
  157.6948  131.0510  150.4176 H   0  0  0  0  0  0  0  0  0  0  0  0  # atno 10718 bound_to 10713
  153.0876  135.6637  153.9917 H   0  0  0  0  0  0  0  0  0  0  0  0  # atno 10763 bound_to 10752
  153.9523  135.2982  155.3439 H   0  0  0  0  0  0  0  0  0  0  0  0  # atno 10764 bound_to 10752
  154.7287  135.5133  153.9000 H   0  0  0  0  0  0  0  0  0  0  0  0  # atno 10765 bound_to 10752
  139.9377  134.9638  156.8467 H   0  0  0  0  0  0  0  0  0  0  0  0  # atno 11005 bound_to 11000
  146.2083  140.6061  142.9071 LP  0  0  0  0  0  0  0  0  0  0  0  0  # atno 17320 bound_to 7965
  144.7657  140.5525  143.6704 LP  0  0  0  0  0  0  0  0  0  0  0  0  # atno 17321 bound_to 7965
  139.6107  144.7608  151.2958 LP  0  0  0  0  0  0  0  0  0  0  0  0  # atno 17342 bound_to 10162
  140.7322  143.6830  150.7985 LP  0  0  0  0  0  0  0  0  0  0  0  0  # atno 17343 bound_to 10162
  156.4554  130.4020  149.6609 LP  0  0  0  0  0  0  0  0  0  0  0  0  # atno 17370 bound_to 10713
  156.3743  130.7547  151.2533 LP  0  0  0  0  0  0  0  0  0  0  0  0  # atno 17371 bound_to 10713
  140.6032  134.0152  155.7546 LP  0  0  0  0  0  0  0  0  0  0  0  0  # atno 17394 bound_to 11000
  141.0998  133.9786  157.3098 LP  0  0  0  0  0  0  0  0  0  0  0  0  # atno 17395 bound_to 11000

$$$$
