AV-unprocessed.smi:542|AV-procd|sdf|2874|dock4
  -GOLD-   2262023363D 1   1.00000     0.00000
 Structure written by MMmdl.
 45 47  0  0  0  0  0  0  0  0  2 V2000
  150.5280  140.1644  157.5524 C   0  0  0  0  0  0  0  0  0  0  0  0
  151.0479  138.8581  157.7270 O   0  0  0  0  0  0  0  0  0  0  0  0
  151.4590  138.6121  159.0612 C   0  0  0  0  0  0  0  0  0  0  0  0
  152.9079  139.0993  159.2295 C   0  0  0  0  0  0  0  0  0  0  0  0
  153.3462  139.0774  160.6227 N   0  0  0  0  0  0  0  0  0  0  0  0
  153.6024  140.1245  161.4607 C   0  0  0  0  0  0  0  0  0  0  0  0
  153.4998  141.4705  161.0799 N   0  0  0  0  0  0  0  0  0  0  0  0
  153.9231  142.0769  159.8149 C   0  0  0  0  0  0  0  0  0  0  0  0
  152.8229  142.9595  159.1966 C   0  0  0  0  0  0  0  0  0  0  0  0
  152.4067  144.0742  160.1693 C   0  0  0  0  0  0  0  0  0  0  0  0
  151.2532  144.9202  159.6126 C   0  0  0  0  0  0  0  0  0  0  0  0
  152.0565  143.4467  161.5283 C   0  0  0  0  0  0  0  0  0  0  0  0
  153.1987  142.5449  162.0287 C   0  0  0  0  0  0  0  0  0  0  0  0
  153.9323  139.7606  162.7029 N   0  0  0  0  0  0  0  0  0  0  0  0
  153.9003  138.3775  162.6531 C   0  0  0  0  0  0  0  0  0  0  0  0
  153.5394  137.9408  161.4179 C   0  0  0  0  0  0  0  0  0  0  0  0
  153.3816  136.5100  161.0689 C   0  0  0  0  0  0  0  0  0  0  0  0
  153.0209  136.1643  159.9458 O   0  0  0  0  0  0  0  0  0  0  0  0
  153.6756  135.6838  162.1223 N   0  5  0  0  0  0  0  0  0  0  0  0
  154.0546  136.0848  163.3850 C   0  0  0  0  0  0  0  0  0  0  0  0
  154.3026  135.2734  164.2779 O   0  0  0  0  0  0  0  0  0  0  0  0
  154.1633  137.4202  163.6706 N   0  0  0  0  0  0  0  0  0  0  0  0
  154.5564  137.8767  165.0068 C   0  0  0  0  0  0  0  0  0  0  0  0
  150.2230  140.3021  156.5150 H   0  0  0  0  0  0  0  0  0  0  0  0
  151.2777  140.9215  157.7863 H   0  0  0  0  0  0  0  0  0  0  0  0
  149.6547  140.3290  158.1847 H   0  0  0  0  0  0  0  0  0  0  0  0
  150.7961  139.1297  159.7544 H   0  0  0  0  0  0  0  0  0  0  0  0
  151.3764  137.5484  159.2837 H   0  0  0  0  0  0  0  0  0  0  0  0
  153.5865  138.5044  158.6237 H   0  0  0  0  0  0  0  0  0  0  0  0
  153.0121  140.1134  158.8445 H   0  0  0  0  0  0  0  0  0  0  0  0
  154.8131  142.6797  160.0005 H   0  0  0  0  0  0  0  0  0  0  0  0
  154.2348  141.3173  159.1049 H   0  0  0  0  0  0  0  0  0  0  0  0
  153.1818  143.3935  158.2630 H   0  0  0  0  0  0  0  0  0  0  0  0
  151.9563  142.3496  158.9403 H   0  0  0  0  0  0  0  0  0  0  0  0
  153.2640  144.7334  160.3138 H   0  0  0  0  0  0  0  0  0  0  0  0
  150.3623  144.3145  159.4440 H   0  0  0  0  0  0  0  0  0  0  0  0
  151.5278  145.3806  158.6631 H   0  0  0  0  0  0  0  0  0  0  0  0
  150.9861  145.7210  160.3024 H   0  0  0  0  0  0  0  0  0  0  0  0
  151.8569  144.2288  162.2615 H   0  0  0  0  0  0  0  0  0  0  0  0
  151.1411  142.8591  161.4440 H   0  0  0  0  0  0  0  0  0  0  0  0
  152.9169  142.1213  162.9932 H   0  0  0  0  0  0  0  0  0  0  0  0
  154.0993  143.1346  162.2038 H   0  0  0  0  0  0  0  0  0  0  0  0
  153.8592  137.5045  165.7584 H   0  0  0  0  0  0  0  0  0  0  0  0
  154.5748  138.9628  165.0925 H   0  0  0  0  0  0  0  0  0  0  0  0
  155.5538  137.5124  165.2559 H   0  0  0  0  0  0  0  0  0  0  0  0
  1  2  1  0  0  0  0
  1 24  1  0  0  0  0
  1 25  1  0  0  0  0
  1 26  1  0  0  0  0
  2  3  1  0  0  0  0
  3  4  1  0  0  0  0
  3 27  1  0  0  0  0
  3 28  1  0  0  0  0
  4  5  1  0  0  0  0
  4 29  1  0  0  0  0
  4 30  1  0  0  0  0
  5 16  1  0  0  0  0
  5  6  1  0  0  0  0
  6  7  1  0  0  0  0
  6 14  2  0  0  0  0
  7 13  1  0  0  0  0
  7  8  1  0  0  0  0
  8  9  1  0  0  0  0
  8 31  1  0  0  0  0
  8 32  1  0  0  0  0
  9 10  1  0  0  0  0
  9 33  1  0  0  0  0
  9 34  1  0  0  0  0
 10 11  1  0  0  0  0
 10 12  1  0  0  0  0
 10 35  1  0  0  0  0
 11 36  1  0  0  0  0
 11 37  1  0  0  0  0
 11 38  1  0  0  0  0
 12 13  1  0  0  0  0
 12 39  1  0  0  0  0
 12 40  1  0  0  0  0
 13 41  1  0  0  0  0
 13 42  1  0  0  0  0
 14 15  1  0  0  0  0
 15 22  1  0  0  0  0
 15 16  2  0  0  0  0
 16 17  1  0  0  0  0
 17 18  2  0  0  0  0
 17 19  1  0  0  0  0
 19 20  1  0  0  0  0
 20 21  2  0  0  0  0
 20 22  1  0  0  0  0
 22 23  1  0  0  0  0
 23 43  1  0  0  0  0
 23 44  1  0  0  0  0
 23 45  1  0  0  0  0
M  CHG  1  19  -1
M  END
> <s_m_source_file>
AV-unprocessed.smi

> <i_m_source_file_index>
542

> <i_lp_mmshare_version>
43012

> <i_f3d_flags>
0

> <s_epik_input>
W0NIM11uMWMoPU8pW25IXWMoPU8pYyhjMTIpbihbQ0gyXVtDSDJdT1tDSDNdKWMobjIpTjNbQ0gyXVtDSDJdW0NIXShbQ0gzXSlbQ0gyXVtDSDJdMw==

> <s_epik_cmdline>
J2VwaWtfcHl0aG9uJywgJy1waCcsICc3LjAnLCAnLXRuJywgJzgnLCAnLW1hJywgJzIwMCcsICctbWV0YWxfYmluZGluZycsICctaW1hZScsICc8aW5maWxlLm1hZT4nLCAnLW9tYWUnLCAnPG91dGZpbGUubWFlPic=

> <r_lp_tautomer_probability>
1

> <r_epik_Ionization_Penalty>
5.11335

> <r_epik_Ionization_Penalty_Charging>
0.0783784

> <r_epik_Ionization_Penalty_Neutral>
5.03497

> <r_epik_State_Penalty>
5.01923

> <r_epik_Charging_Adjusted_Penalty>
5.09761

> <i_epik_Tot_Q>
-1

> <i_epik_Tot_abs_Q>
1

> <r_epik_Metal_State_Penalty>
1.13361

> <b_epik_Metal_Only>
1

> <s_lp_Force_Field>
OPLS_2005

> <r_lp_Energy>
42.8721

> <b_lp_Chiralities_Consistent>
1

> <s_lp_Variant>
AV-unprocessed.smi:542-2

> <Gold.Version>
5.8.1

> <Gold.Id.Protein>
6NUR|6NUR_protein|mol2

> <Gold.PLP.Fitness>
45.9656

> <Gold.PLP.PLP>
-44.2411

> <Gold.PLP.part.hbond>
-1.0000

> <Gold.PLP.part.metal>
0.0000

> <Gold.PLP.part.buried>
-4.6148

> <Gold.PLP.part.nonpolar>
-38.9212

> <Gold.PLP.part.repulsive>
0.0688

> <Gold.PLP.ligand.clash>
0.0000

> <Gold.PLP.ligand.torsion>
0.7027

> <Gold.PLP.Chemscore.Hbond>
1.0000

> <Gold.PLP.Chemscore.CHOScore>
0.0000

> <Gold.PLP.Chemscore.Metal>
0.0000

> <Gold.Chemscore.Hbonds>
donor molecule, donor type, donor heavy atom, donor atom, acceptor molecule, acceptor atom, score
      P1  H  6896  6908       L1    18  0.86

> <Gold.PLP.Chemscore.Internal.Correction>
0.1300

> <Gold.Rescore>
     Score         DG    S(hbond)    S(metal)    S(lipo)     H(rot)  DE(clash)    DE(int)     intcor
     15.74     -16.65       0.99        0.00      98.68       1.44       0.07       0.84       ----

> <Gold.Chemscore.Fitness>
15.7394

> <Gold.Chemscore.DG>
-16.6506

> <Gold.Chemscore.ZeroCoef>
-5.4800

> <Gold.Chemscore.Hbond>
0.9892

> <Gold.Chemscore.Metal>
0.0000

> <Gold.Chemscore.Lipo>
98.6840

> <Gold.Chemscore.Internal_Hbond>
0.0000

> <Gold.Chemscore.DEClash>
0.0667

> <Gold.Chemscore.DEInternal>
0.8445

> <Gold.Chemscore.Rot>
1.4372

> <Gold.Chemscore.Internal.Correction>
   9.000000E+99

> <Gold.Chemscore.Hbonds>
donor molecule, donor type, donor heavy atom, donor atom, acceptor molecule, acceptor atom, score
      P1  H  6896  6908       L1    18  0.62

> <Gold.Chemscore.Hbond.Weighted>
-3.3039

> <Gold.Chemscore.Metal.Weighted>
-0.0000

> <Gold.Chemscore.Lipo.Weighted>
-11.5460

> <Gold.Chemscore.Internal_Hbond.Weighted>
0.0000

> <Gold.Chemscore.DEClash.Weighted>
0.0667

> <Gold.Chemscore.DEInternal.Weighted>
0.8445

> <Gold.Chemscore.Rot.Weighted>
3.6793

> <Gold.Chemscore.Internal.Correction.Weighted>
   9.000000E+99

> <Gold.Protein.RotatedTorsions>
[ 6907 6896 6895 6894 ] final  -89.76 input  -60.11 | X-H torsion
[ 7974 7965 7964 7962 ] final  -25.39 input  175.53 | X-H torsion
[ 8008 7997 7996 7995 ] final -174.66 input   59.86 | X-H torsion
[ 10167 10162 10161 10158 ] final   85.12 input  -65.29 | X-H torsion
[ 10718 10713 10712 10709 ] final   -4.85 input   66.30 | X-H torsion
[ 10763 10752 10751 10750 ] final  142.21 input  -60.55 | X-H torsion
[ 11005 11000 10999 10996 ] final  102.91 input  -57.11 | X-H torsion

> <Gold.Protein.ActiveResidues>
 VAL166  LYS551  ARG553  GLY616  TRP617  ASP618  TYR619  PRO620  LYS621  CYS622 
 ASP623  PHE694  ASN695  SER759  ASP760  ASP761  ALA762  ILE779  LEU786  VAL792 
 PHE793  MET794  SER795  GLU796  ALA797  LYS798  CYS799  TRP800  GLU811  SER814 

> <Gold.Protein.RotatedAtoms>
  150.6876  134.2537  159.4520 H   0  0  0  0  0  0  0  0  0  0  0  0  # atno 6907 bound_to 6896
  152.0472  134.9673  160.0583 H   0  0  0  0  0  0  0  0  0  0  0  0  # atno 6908 bound_to 6896
  152.1151  133.4287  159.4686 H   0  0  0  0  0  0  0  0  0  0  0  0  # atno 6909 bound_to 6896
  146.1494  140.4880  142.8618 H   0  0  0  0  0  0  0  0  0  0  0  0  # atno 7974 bound_to 7965
  155.9729  140.1166  157.0796 H   0  0  0  0  0  0  0  0  0  0  0  0  # atno 8008 bound_to 7997
  154.4161  140.1160  156.5398 H   0  0  0  0  0  0  0  0  0  0  0  0  # atno 8009 bound_to 7997
  155.6573  140.3473  155.4772 H   0  0  0  0  0  0  0  0  0  0  0  0  # atno 8010 bound_to 7997
  139.9010  144.6329  150.8637 H   0  0  0  0  0  0  0  0  0  0  0  0  # atno 10167 bound_to 10162
  156.7552  130.5252  149.5796 H   0  0  0  0  0  0  0  0  0  0  0  0  # atno 10718 bound_to 10713
  153.9521  135.2969  155.3438 H   0  0  0  0  0  0  0  0  0  0  0  0  # atno 10763 bound_to 10752
  154.7421  135.5020  153.9143 H   0  0  0  0  0  0  0  0  0  0  0  0  # atno 10764 bound_to 10752
  153.0989  135.6729  153.9819 H   0  0  0  0  0  0  0  0  0  0  0  0  # atno 10765 bound_to 10752
  139.8780  134.9242  156.5129 H   0  0  0  0  0  0  0  0  0  0  0  0  # atno 11005 bound_to 11000
  144.7885  140.5986  143.6557 LP  0  0  0  0  0  0  0  0  0  0  0  0  # atno 17320 bound_to 7965
  145.4859  139.1492  143.3736 LP  0  0  0  0  0  0  0  0  0  0  0  0  # atno 17321 bound_to 7965
  140.7707  143.3436  151.2156 LP  0  0  0  0  0  0  0  0  0  0  0  0  # atno 17342 bound_to 10162
  139.7025  143.9509  152.2912 LP  0  0  0  0  0  0  0  0  0  0  0  0  # atno 17343 bound_to 10162
  156.1375  130.6221  151.0421 LP  0  0  0  0  0  0  0  0  0  0  0  0  # atno 17370 bound_to 10713
  157.6759  131.0850  150.7495 LP  0  0  0  0  0  0  0  0  0  0  0  0  # atno 17371 bound_to 10713
  140.8507  133.8134  155.9165 LP  0  0  0  0  0  0  0  0  0  0  0  0  # atno 17394 bound_to 11000
  140.9147  134.2216  157.4964 LP  0  0  0  0  0  0  0  0  0  0  0  0  # atno 17395 bound_to 11000

$$$$
