AV-unprocessed.smi:2842|AV-procd|sdf|10936|dock6
  -GOLD-   2272015383D 1   1.00000     0.00000
 Structure written by MMmdl.
 35 37  0  0  0  0  0  0  0  0  1 V2000
  155.7722  139.3777  162.7104 O   0  0  0  0  0  0  0  0  0  0  0  0
  154.9908  138.6332  162.1167 C   0  0  0  0  0  0  0  0  0  0  0  0
  154.6470  138.8770  160.6392 C   0  0  0  0  0  0  0  0  0  0  0  0
  154.0027  140.1814  160.3986 N   0  0  0  0  0  0  0  0  0  0  0  0
  154.0219  141.1036  161.4637 C   0  0  0  0  0  0  0  0  0  0  0  0
  153.4852  142.2776  161.3589 N   0  0  0  0  0  0  0  0  0  0  0  0
  152.8602  142.6531  160.1641 C   0  0  0  0  0  0  0  0  0  0  0  0
  152.2177  144.0319  160.1012 C   0  0  0  0  0  0  0  0  0  0  0  0
  150.7160  144.0752  159.7704 C   0  0  0  0  0  0  0  0  0  0  0  0
  151.0066  145.3197  158.9241 C   0  0  0  0  0  0  0  0  0  0  0  0
  152.4485  144.8149  158.7987 C   0  0  0  0  0  0  0  0  0  0  0  0
  152.8088  141.7983  159.1152 C   0  0  0  0  0  0  0  0  0  0  0  0
  153.4143  140.4698  159.2002 C   0  0  0  0  0  0  0  0  0  0  0  0
  153.3952  139.6708  158.2636 O   0  0  0  0  0  0  0  0  0  0  0  0
  154.4073  137.5694  162.6871 N   0  0  0  0  0  0  0  0  0  0  0  0
  154.5771  137.1582  164.0431 C   0  0  0  0  0  0  0  0  0  0  0  0
  155.4599  135.9584  164.3101 C   0  0  0  0  0  0  0  0  0  0  0  0
  153.9682  135.8356  164.4554 C   0  0  0  0  0  0  0  0  0  0  0  0
  155.5642  138.7674  160.0576 H   0  0  0  0  0  0  0  0  0  0  0  0
  153.9920  138.0787  160.2842 H   0  0  0  0  0  0  0  0  0  0  0  0
  154.5137  140.7594  162.3749 H   0  0  0  0  0  0  0  0  0  0  0  0
  152.4574  144.6302  160.9822 H   0  0  0  0  0  0  0  0  0  0  0  0
  150.3749  143.2342  159.1637 H   0  0  0  0  0  0  0  0  0  0  0  0
  150.0641  144.2468  160.6273 H   0  0  0  0  0  0  0  0  0  0  0  0
  150.4559  145.3733  157.9846 H   0  0  0  0  0  0  0  0  0  0  0  0
  150.9305  146.2474  159.4936 H   0  0  0  0  0  0  0  0  0  0  0  0
  153.2123  145.5904  158.8600 H   0  0  0  0  0  0  0  0  0  0  0  0
  152.5918  144.1737  157.9267 H   0  0  0  0  0  0  0  0  0  0  0  0
  152.3166  142.0934  158.2000 H   0  0  0  0  0  0  0  0  0  0  0  0
  153.7854  137.0124  162.1191 H   0  0  0  0  0  0  0  0  0  0  0  0
  154.5863  137.9367  164.8049 H   0  0  0  0  0  0  0  0  0  0  0  0
  155.9235  135.4665  163.4571 H   0  0  0  0  0  0  0  0  0  0  0  0
  156.0542  135.9663  165.2216 H   0  0  0  0  0  0  0  0  0  0  0  0
  153.5650  135.7631  165.4636 H   0  0  0  0  0  0  0  0  0  0  0  0
  153.4352  135.2624  163.6990 H   0  0  0  0  0  0  0  0  0  0  0  0
  1  2  2  0  0  0  0
  2  3  1  0  0  0  0
  2 15  1  0  0  0  0
  3  4  1  0  0  0  0
  3 19  1  0  0  0  0
  3 20  1  0  0  0  0
  4 13  1  0  0  0  0
  4  5  1  0  0  0  0
  5  6  2  0  0  0  0
  5 21  1  0  0  0  0
  6  7  1  0  0  0  0
  7  8  1  0  0  0  0
  7 12  2  0  0  0  0
  8 11  1  0  0  0  0
  8  9  1  0  0  0  0
  8 22  1  0  0  0  0
  9 10  1  0  0  0  0
  9 23  1  0  0  0  0
  9 24  1  0  0  0  0
 10 11  1  0  0  0  0
 10 25  1  0  0  0  0
 10 26  1  0  0  0  0
 11 27  1  0  0  0  0
 11 28  1  0  0  0  0
 12 13  1  0  0  0  0
 12 29  1  0  0  0  0
 13 14  2  0  0  0  0
 15 16  1  0  0  0  0
 15 30  1  0  0  0  0
 16 18  1  0  0  0  0
 16 17  1  0  0  0  0
 16 31  1  0  0  0  0
 17 18  1  0  0  0  0
 17 32  1  0  0  0  0
 17 33  1  0  0  0  0
 18 34  1  0  0  0  0
 18 35  1  0  0  0  0
M  END
> <s_m_source_file>
AV-unprocessed.smi

> <i_m_source_file_index>
2842

> <i_lp_mmshare_version>
43012

> <i_f3d_flags>
0

> <s_epik_input>
W0NIMl0xW0NIMl1bQ0hdMVtOSF1DKD1PKVtDSDJdbjJbY0hdbmMoW2NIXWMyPU8pW0NIXTNbQ0gyXVtDSDJdW0NIMl0z

> <s_epik_cmdline>
J2VwaWtfcHl0aG9uJywgJy1waCcsICc3LjAnLCAnLXRuJywgJzgnLCAnLW1hJywgJzIwMCcsICctbWV0YWxfYmluZGluZycsICctaW1hZScsICc8aW5maWxlLm1hZT4nLCAnLW9tYWUnLCAnPG91dGZpbGUubWFlPic=

> <r_lp_tautomer_probability>
1

> <r_epik_Ionization_Penalty>
7.30946e-06

> <r_epik_Ionization_Penalty_Charging>
8.23701e-09

> <r_epik_Ionization_Penalty_Neutral>
7.30122e-06

> <r_epik_State_Penalty>
-0

> <r_epik_Charging_Adjusted_Penalty>
8.23701e-09

> <i_epik_Tot_Q>
0

> <i_epik_Tot_abs_Q>
0

> <r_epik_Metal_State_Penalty>
-0

> <b_epik_Metal_Only>
0

> <s_lp_Force_Field>
OPLS_2005

> <r_lp_Energy>
30.4853

> <b_lp_Chiralities_Consistent>
1

> <s_lp_Variant>
AV-unprocessed.smi:2842-1

> <Gold.Version>
5.8.1

> <Gold.Id.Protein>
6NUR|6NUR_protein|mol2

> <Gold.PLP.Fitness>
44.0174

> <Gold.PLP.PLP>
-42.2046

> <Gold.PLP.part.hbond>
-1.0000

> <Gold.PLP.part.metal>
0.0000

> <Gold.PLP.part.buried>
-4.8537

> <Gold.PLP.part.nonpolar>
-35.8212

> <Gold.PLP.part.repulsive>
0.0145

> <Gold.PLP.ligand.clash>
0.6259

> <Gold.PLP.ligand.torsion>
0.4860

> <Gold.PLP.Chemscore.Hbond>
1.0000

> <Gold.PLP.Chemscore.CHOScore>
0.0000

> <Gold.PLP.Chemscore.Metal>
0.0000

> <Gold.Chemscore.Hbonds>
donor molecule, donor type, donor heavy atom, donor atom, acceptor molecule, acceptor atom, score
      P1  H  7997  8009       L1    14  1.00

> <Gold.PLP.Chemscore.Internal.Correction>
0.4108

> <Gold.Rescore>
     Score         DG    S(hbond)    S(metal)    S(lipo)     H(rot)  DE(clash)    DE(int)     intcor
     14.25     -16.13       0.96        0.00     101.37       1.73       0.15       1.73       ----

> <Gold.Chemscore.Fitness>
14.2505

> <Gold.Chemscore.DG>
-16.1278

> <Gold.Chemscore.ZeroCoef>
-5.4800

> <Gold.Chemscore.Hbond>
0.9632

> <Gold.Chemscore.Metal>
0.0000

> <Gold.Chemscore.Lipo>
101.3746

> <Gold.Chemscore.Internal_Hbond>
0.0000

> <Gold.Chemscore.DEClash>
0.1469

> <Gold.Chemscore.DEInternal>
1.7304

> <Gold.Chemscore.Rot>
1.7305

> <Gold.Chemscore.Internal.Correction>
   9.000000E+99

> <Gold.Chemscore.Hbonds>
donor molecule, donor type, donor heavy atom, donor atom, acceptor molecule, acceptor atom, score
      P1  H  7997  8009       L1    14  0.57

> <Gold.Chemscore.Hbond.Weighted>
-3.2170

> <Gold.Chemscore.Metal.Weighted>
-0.0000

> <Gold.Chemscore.Lipo.Weighted>
-11.8608

> <Gold.Chemscore.Internal_Hbond.Weighted>
0.0000

> <Gold.Chemscore.DEClash.Weighted>
0.1469

> <Gold.Chemscore.DEInternal.Weighted>
1.7304

> <Gold.Chemscore.Rot.Weighted>
4.4300

> <Gold.Chemscore.Internal.Correction.Weighted>
   9.000000E+99

> <Gold.Protein.RotatedTorsions>
[ 6907 6896 6895 6894 ] final -104.89 input  -60.11 | X-H torsion
[ 7974 7965 7964 7962 ] final   78.96 input  175.53 | X-H torsion
[ 8008 7997 7996 7995 ] final  134.31 input   59.86 | X-H torsion
[ 10167 10162 10161 10158 ] final -149.51 input  -65.29 | X-H torsion
[ 10718 10713 10712 10709 ] final   39.55 input   66.30 | X-H torsion
[ 10763 10752 10751 10750 ] final -150.80 input  -60.55 | X-H torsion
[ 11005 11000 10999 10996 ] final   95.40 input  -57.11 | X-H torsion

> <Gold.Protein.ActiveResidues>
 VAL166  LYS551  ARG553  GLY616  TRP617  ASP618  TYR619  PRO620  LYS621  CYS622 
 ASP623  PHE694  ASN695  SER759  ASP760  ASP761  ALA762  ILE779  LEU786  VAL792 
 PHE793  MET794  SER795  GLU796  ALA797  LYS798  CYS799  TRP800  GLU811  SER814 

> <Gold.Protein.RotatedAtoms>
  150.7309  134.0209  159.3700 H   0  0  0  0  0  0  0  0  0  0  0  0  # atno 6907 bound_to 6896
  151.8174  135.0660  160.0430 H   0  0  0  0  0  0  0  0  0  0  0  0  # atno 6908 bound_to 6896
  152.3028  133.5637  159.5666 H   0  0  0  0  0  0  0  0  0  0  0  0  # atno 6909 bound_to 6896
  145.6704  139.2495  143.1871 H   0  0  0  0  0  0  0  0  0  0  0  0  # atno 7974 bound_to 7965
  156.2998  140.2499  156.3396 H   0  0  0  0  0  0  0  0  0  0  0  0  # atno 8008 bound_to 7997
  154.9067  140.0404  157.1943 H   0  0  0  0  0  0  0  0  0  0  0  0  # atno 8009 bound_to 7997
  154.8446  140.2896  155.5641 H   0  0  0  0  0  0  0  0  0  0  0  0  # atno 8010 bound_to 7997
  139.7436  143.8625  152.2569 H   0  0  0  0  0  0  0  0  0  0  0  0  # atno 10167 bound_to 10162
  157.3719  130.7706  149.7125 H   0  0  0  0  0  0  0  0  0  0  0  0  # atno 10718 bound_to 10713
  154.8097  135.3275  154.7339 H   0  0  0  0  0  0  0  0  0  0  0  0  # atno 10763 bound_to 10752
  153.7990  135.6905  153.4863 H   0  0  0  0  0  0  0  0  0  0  0  0  # atno 10764 bound_to 10752
  153.1866  135.4566  155.0042 H   0  0  0  0  0  0  0  0  0  0  0  0  # atno 10765 bound_to 10752
  139.8789  134.8897  156.4006 H   0  0  0  0  0  0  0  0  0  0  0  0  # atno 11005 bound_to 11000
  146.1050  140.7498  142.9531 LP  0  0  0  0  0  0  0  0  0  0  0  0  # atno 17320 bound_to 7965
  144.7059  140.3848  143.7119 LP  0  0  0  0  0  0  0  0  0  0  0  0  # atno 17321 bound_to 7965
  139.8583  144.7130  150.9131 LP  0  0  0  0  0  0  0  0  0  0  0  0  # atno 17342 bound_to 10162
  140.7789  143.3840  151.1427 LP  0  0  0  0  0  0  0  0  0  0  0  0  # atno 17343 bound_to 10162
  155.9757  130.4085  150.3830 LP  0  0  0  0  0  0  0  0  0  0  0  0  # atno 17370 bound_to 10713
  157.1922  131.0418  151.2694 LP  0  0  0  0  0  0  0  0  0  0  0  0  # atno 17371 bound_to 10713
  140.9270  133.7606  155.9976 LP  0  0  0  0  0  0  0  0  0  0  0  0  # atno 17394 bound_to 11000
  140.8375  134.3106  157.5326 LP  0  0  0  0  0  0  0  0  0  0  0  0  # atno 17395 bound_to 11000

$$$$
