AV-unprocessed.smi:1813|AV-procd|sdf|7346|dock2
  -GOLD-   22720 9 03D 1   1.00000     0.00000
 Structure written by MMmdl.
 39 40  0  0  0  0  0  0  0  0  3 V2000
  150.1071  141.7091  156.5017 C   0  0  0  0  0  0  0  0  0  0  0  0
  148.7477  141.8011  155.9909 N   0  0  0  0  0  0  0  0  0  0  0  0
  148.4228  141.7139  154.6938 C   0  0  0  0  0  0  0  0  0  0  0  0
  149.2525  141.5382  153.8008 O   0  0  0  0  0  0  0  0  0  0  0  0
  146.9314  141.8244  154.3605 C   0  0  0  0  0  0  0  0  0  0  0  0
  146.4222  140.6681  153.5793 N   0  3  2  0  0  0  0  0  0  0  0  0
  146.3731  139.4072  154.3667 C   0  0  0  0  0  0  0  0  0  0  0  0
  145.7088  138.2785  153.5622 C   0  0  0  0  0  0  0  0  0  0  0  0
  146.4322  138.0512  152.2257 C   0  0  1  0  0  0  0  0  0  0  0  0
  145.7275  137.0358  151.4494 N   0  0  0  0  0  0  0  0  0  0  0  0
  145.6174  135.7382  151.7681 C   0  0  0  0  0  0  0  0  0  0  0  0
  146.1402  135.3119  152.8004 O   0  0  0  0  0  0  0  0  0  0  0  0
  144.9125  135.0166  150.8682 N   0  5  0  0  0  0  0  0  0  0  0  0
  145.0145  133.6776  150.8539 C   0  0  0  0  0  0  0  0  0  0  0  0
  146.1475  133.0293  151.1470 N   0  0  0  0  0  0  0  0  0  0  0  0
  146.0269  131.6404  151.0742 C   0  0  0  0  0  0  0  0  0  0  0  0
  144.7703  131.2211  150.7267 C   0  0  0  0  0  0  0  0  0  0  0  0
  143.6941  132.5663  150.4794 S   0  0  0  0  0  0  0  0  0  0  0  0
  146.5107  139.3784  151.4489 C   0  0  0  0  0  0  0  0  0  0  0  0
  147.1547  140.4831  152.3011 C   0  0  0  0  0  0  0  0  0  0  0  0
  150.1036  141.8059  157.5875 H   0  0  0  0  0  0  0  0  0  0  0  0
  150.7317  142.5035  156.0911 H   0  0  0  0  0  0  0  0  0  0  0  0
  150.5540  140.7471  156.2474 H   0  0  0  0  0  0  0  0  0  0  0  0
  148.0100  141.9370  156.6671 H   0  0  0  0  0  0  0  0  0  0  0  0
  146.4045  141.8834  155.3137 H   0  0  0  0  0  0  0  0  0  0  0  0
  146.7234  142.7550  153.8296 H   0  0  0  0  0  0  0  0  0  0  0  0
  147.3848  139.1165  154.6540 H   0  0  0  0  0  0  0  0  0  0  0  0
  145.8156  139.5609  155.2908 H   0  0  0  0  0  0  0  0  0  0  0  0
  145.7092  137.3584  154.1480 H   0  0  0  0  0  0  0  0  0  0  0  0
  144.6624  138.5299  153.3817 H   0  0  0  0  0  0  0  0  0  0  0  0
  147.4434  137.6997  152.4396 H   0  0  0  0  0  0  0  0  0  0  0  0
  145.2819  137.3384  150.5955 H   0  0  0  0  0  0  0  0  0  0  0  0
  146.8885  131.0258  151.2883 H   0  0  0  0  0  0  0  0  0  0  0  0
  144.4130  130.2102  150.6029 H   0  0  0  0  0  0  0  0  0  0  0  0
  147.0831  139.2460  150.5301 H   0  0  0  0  0  0  0  0  0  0  0  0
  145.5100  139.6904  151.1460 H   0  0  0  0  0  0  0  0  0  0  0  0
  147.1527  141.4155  151.7355 H   0  0  0  0  0  0  0  0  0  0  0  0
  148.1978  140.2393  152.5094 H   0  0  0  0  0  0  0  0  0  0  0  0
  145.4699  140.8955  153.3291 H   0  0  0  0  0  0  0  0  0  0  0  0
  1  2  1  0  0  0  0
  1 21  1  0  0  0  0
  1 22  1  0  0  0  0
  1 23  1  0  0  0  0
  2  3  1  0  0  0  0
  2 24  1  0  0  0  0
  3  4  2  0  0  0  0
  3  5  1  0  0  0  0
  5  6  1  0  0  0  0
  5 25  1  0  0  0  0
  5 26  1  0  0  0  0
  6 20  1  0  0  0  0
  6  7  1  0  0  0  0
  6 39  1  0  0  0  0
  7  8  1  0  0  0  0
  7 27  1  0  0  0  0
  7 28  1  0  0  0  0
  8  9  1  0  0  0  0
  8 29  1  0  0  0  0
  8 30  1  0  0  0  0
  9 10  1  0  0  0  0
  9 19  1  0  0  0  0
  9 31  1  0  0  0  0
 10 11  1  0  0  0  0
 10 32  1  0  0  0  0
 11 12  2  0  0  0  0
 11 13  1  0  0  0  0
 13 14  1  0  0  0  0
 14 18  1  0  0  0  0
 14 15  2  0  0  0  0
 15 16  1  0  0  0  0
 16 17  2  0  0  0  0
 16 33  1  0  0  0  0
 17 18  1  0  0  0  0
 17 34  1  0  0  0  0
 19 20  1  0  0  0  0
 19 35  1  0  0  0  0
 19 36  1  0  0  0  0
 20 37  1  0  0  0  0
 20 38  1  0  0  0  0
M  CHG  1   6   1
M  CHG  1  13  -1
M  END
> <s_m_source_file>
AV-unprocessed.smi

> <i_m_source_file_index>
1813

> <i_lp_mmshare_version>
43012

> <i_f3d_flags>
0

> <s_epik_input>
W0NIM11bTkhdQyg9TylbQ0gyXU4xW0NIMl1bQ0gyXVtDSF0oW0NIMl1bQ0gyXTEpW05IXUMoPU8pW05IXWMybltjSF1bY0hdczI=

> <s_epik_cmdline>
J2VwaWtfcHl0aG9uJywgJy1waCcsICc3LjAnLCAnLXRuJywgJzgnLCAnLW1hJywgJzIwMCcsICctbWV0YWxfYmluZGluZycsICctaW1hZScsICc8aW5maWxlLm1hZT4nLCAnLW9tYWUnLCAnPG91dGZpbGUubWFlPic=

> <r_lp_tautomer_probability>
0.999

> <r_epik_Ionization_Penalty>
7.12128

> <r_epik_Ionization_Penalty_Charging>
6.25357

> <r_epik_Ionization_Penalty_Neutral>
0.867707

> <r_epik_State_Penalty>
6.33838

> <r_epik_Charging_Adjusted_Penalty>
12.592

> <i_epik_Tot_Q>
0

> <i_epik_Tot_abs_Q>
2

> <r_epik_Metal_State_Penalty>
2.34161

> <b_epik_Metal_Only>
1

> <s_lp_Force_Field>
OPLS_2005

> <r_lp_Energy>
3.88073

> <b_lp_Chiralities_Consistent>
1

> <s_lp_Variant>
AV-unprocessed.smi:1813-7

> <Gold.Version>
5.8.1

> <Gold.Id.Protein>
6NUR|6NUR_protein|mol2

> <Gold.PLP.Fitness>
45.5588

> <Gold.PLP.PLP>
-32.3092

> <Gold.PLP.part.hbond>
-5.0000

> <Gold.PLP.part.metal>
0.0000

> <Gold.PLP.part.buried>
1.3732

> <Gold.PLP.part.nonpolar>
-30.2611

> <Gold.PLP.part.repulsive>
1.4150

> <Gold.PLP.ligand.clash>
0.0000

> <Gold.PLP.ligand.torsion>
0.4154

> <Gold.PLP.Chemscore.Hbond>
3.6800

> <Gold.PLP.Chemscore.CHOScore>
1.0000

> <Gold.PLP.Chemscore.Metal>
0.0000

> <Gold.Chemscore.Hbonds>
donor molecule, donor type, donor heavy atom, donor atom, acceptor molecule, acceptor atom, score
      L1  H     6    39       P1 10175  2.00
      L1  H    10    32       P1 10171  0.89
      P1  H  8011  8017       L1     4  0.72
      L1  C    16    33       P1 10747  1.00

> <Gold.PLP.Chemscore.Internal.Correction>
0.0404

> <Gold.Rescore>
     Score         DG    S(hbond)    S(metal)    S(lipo)     H(rot)  DE(clash)    DE(int)     intcor
     13.64     -17.92       2.45        0.00      74.97       1.76       1.40       2.88       ----

> <Gold.Chemscore.Fitness>
13.6447

> <Gold.Chemscore.DG>
-17.9223

> <Gold.Chemscore.ZeroCoef>
-5.4800

> <Gold.Chemscore.Hbond>
2.4483

> <Gold.Chemscore.Metal>
0.0000

> <Gold.Chemscore.Lipo>
74.9692

> <Gold.Chemscore.Internal_Hbond>
0.0000

> <Gold.Chemscore.DEClash>
1.3986

> <Gold.Chemscore.DEInternal>
2.8790

> <Gold.Chemscore.Rot>
1.7603

> <Gold.Chemscore.Internal.Correction>
   9.000000E+99

> <Gold.Chemscore.Hbonds>
donor molecule, donor type, donor heavy atom, donor atom, acceptor molecule, acceptor atom, score
      L1  H     6    39       P1 10175  0.60
      L1  H    10    32       P1 10171  0.81
      P1  H  7989  7998       L1     4  0.01
      P1  H  8011  8017       L1     4  0.72

> <Gold.Chemscore.Hbond.Weighted>
-8.1773

> <Gold.Chemscore.Metal.Weighted>
-0.0000

> <Gold.Chemscore.Lipo.Weighted>
-8.7714

> <Gold.Chemscore.Internal_Hbond.Weighted>
0.0000

> <Gold.Chemscore.DEClash.Weighted>
1.3986

> <Gold.Chemscore.DEInternal.Weighted>
2.8790

> <Gold.Chemscore.Rot.Weighted>
4.5064

> <Gold.Chemscore.Internal.Correction.Weighted>
   9.000000E+99

> <Gold.Protein.RotatedTorsions>
[ 6907 6896 6895 6894 ] final -119.91 input  -60.11 | X-H torsion
[ 7974 7965 7964 7962 ] final  132.31 input  175.53 | X-H torsion
[ 8008 7997 7996 7995 ] final    7.25 input   59.86 | X-H torsion
[ 10167 10162 10161 10158 ] final   47.11 input  -65.29 | X-H torsion
[ 10718 10713 10712 10709 ] final -177.32 input   66.30 | X-H torsion
[ 10763 10752 10751 10750 ] final   99.29 input  -60.55 | X-H torsion
[ 11005 11000 10999 10996 ] final  105.98 input  -57.11 | X-H torsion

> <Gold.Protein.ActiveResidues>
 VAL166  LYS551  ARG553  GLY616  TRP617  ASP618  TYR619  PRO620  LYS621  CYS622 
 ASP623  PHE694  ASN695  SER759  ASP760  ASP761  ALA762  ILE779  LEU786  VAL792 
 PHE793  MET794  SER795  GLU796  ALA797  LYS798  CYS799  TRP800  GLU811  SER814 

> <Gold.Protein.RotatedAtoms>
  150.8346  133.8034  159.3084 H   0  0  0  0  0  0  0  0  0  0  0  0  # atno 6907 bound_to 6896
  151.5754  135.1059  160.0014 H   0  0  0  0  0  0  0  0  0  0  0  0  # atno 6908 bound_to 6896
  152.4421  133.7425  159.6705 H   0  0  0  0  0  0  0  0  0  0  0  0  # atno 6909 bound_to 6896
  144.9982  139.4338  143.5305 H   0  0  0  0  0  0  0  0  0  0  0  0  # atno 7974 bound_to 7965
  154.7514  140.2767  155.6289 H   0  0  0  0  0  0  0  0  0  0  0  0  # atno 8008 bound_to 7997
  156.2896  140.2677  156.2195 H   0  0  0  0  0  0  0  0  0  0  0  0  # atno 8009 bound_to 7997
  155.0132  140.0372  157.2397 H   0  0  0  0  0  0  0  0  0  0  0  0  # atno 8010 bound_to 7997
  140.3070  144.2866  150.6207 H   0  0  0  0  0  0  0  0  0  0  0  0  # atno 10167 bound_to 10162
  156.8278  130.9642  151.3108 H   0  0  0  0  0  0  0  0  0  0  0  0  # atno 10718 bound_to 10713
  153.2996  135.4118  155.1240 H   0  0  0  0  0  0  0  0  0  0  0  0  # atno 10763 bound_to 10752
  154.8545  135.3538  154.5870 H   0  0  0  0  0  0  0  0  0  0  0  0  # atno 10764 bound_to 10752
  153.6295  135.7061  153.5339 H   0  0  0  0  0  0  0  0  0  0  0  0  # atno 10765 bound_to 10752
  139.8808  134.9354  156.5596 H   0  0  0  0  0  0  0  0  0  0  0  0  # atno 11005 bound_to 11000
  146.3446  139.9355  142.8748 LP  0  0  0  0  0  0  0  0  0  0  0  0  # atno 17320 bound_to 7965
  145.2190  140.9927  143.4056 LP  0  0  0  0  0  0  0  0  0  0  0  0  # atno 17321 bound_to 7965
  140.5602  143.2193  151.7779 LP  0  0  0  0  0  0  0  0  0  0  0  0  # atno 17342 bound_to 10162
  139.4902  144.4359  151.9819 LP  0  0  0  0  0  0  0  0  0  0  0  0  # atno 17343 bound_to 10162
  157.6423  130.8815  149.9472 LP  0  0  0  0  0  0  0  0  0  0  0  0  # atno 17370 bound_to 10713
  156.0952  130.3660  150.0320 LP  0  0  0  0  0  0  0  0  0  0  0  0  # atno 17371 bound_to 10713
  140.8179  133.8377  155.8869 LP  0  0  0  0  0  0  0  0  0  0  0  0  # atno 17394 bound_to 11000
  140.9446  134.1857  157.4773 LP  0  0  0  0  0  0  0  0  0  0  0  0  # atno 17395 bound_to 11000

$$$$
