AV-unprocessed.smi:149|AV-procd|sdf|1239|dock3
  -GOLD-   2262018453D 1   1.00000     0.00000
 Structure written by MMmdl.
 59 63  0  0  0  0  0  0  0  0  1 V2000
  151.3247  138.7309  157.9569 C   0  0  0  0  0  0  0  0  0  0  0  0
  152.0075  139.8703  157.1722 C   0  0  1  0  0  0  0  0  0  0  0  0
  151.2326  140.1690  155.8788 C   0  0  0  0  0  0  0  0  0  0  0  0
  150.4047  141.3320  156.1638 N   0  0  0  0  0  0  0  0  0  0  0  0
  149.2150  141.5201  155.5363 C   0  0  0  0  0  0  0  0  0  0  0  0
  149.1056  141.1777  154.2249 N   0  0  0  0  0  0  0  0  0  0  0  0
  147.9506  141.3412  153.5740 C   0  0  0  0  0  0  0  0  0  0  0  0
  146.7944  141.8195  154.0354 N   0  0  0  0  0  0  0  0  0  0  0  0
  146.8908  142.1589  155.3526 C   0  0  0  0  0  0  0  0  0  0  0  0
  148.0487  142.0376  156.1740 C   0  0  0  0  0  0  0  0  0  0  0  0
  147.7484  142.4550  157.4665 N   0  0  0  0  0  0  0  0  0  0  0  0
  146.4925  142.8039  157.4104 C   0  0  0  0  0  0  0  0  0  0  0  0
  145.9066  142.6849  156.1711 N   0  0  0  0  0  0  0  0  0  0  0  0
  144.5391  142.9547  155.8366 C   0  0  0  0  0  0  0  0  0  0  0  0
  144.1777  143.9717  154.7513 C   0  0  0  0  0  0  0  0  0  0  0  0
  142.8875  144.3269  155.5244 C   0  0  0  0  0  0  0  0  0  0  0  0
  142.5484  145.8277  155.5392 C   0  0  0  0  0  0  0  0  0  0  0  0
  141.3690  146.0958  156.2690 O   0  0  0  0  0  0  0  0  0  0  0  0
  141.6477  143.5285  155.0679 C   0  0  0  0  0  0  0  0  0  0  0  0
  141.3204  143.7732  153.7154 O   0  0  0  0  0  0  0  0  0  0  0  0
  143.6424  143.7827  156.7592 C   0  0  0  0  0  0  0  0  0  0  0  0
  150.6261  141.7800  157.5297 C   0  0  0  0  0  0  0  0  0  0  0  0
  152.0099  141.2325  157.9024 C   0  0  1  0  0  0  0  0  0  0  0  0
  152.3192  141.2069  159.3385 N   0  0  0  0  0  0  0  0  0  0  0  0
  152.3197  142.5459  159.9269 C   0  0  0  0  0  0  0  0  0  0  0  0
  152.6595  142.5179  161.4275 C   0  0  0  0  0  0  0  0  0  0  0  0
  153.9202  141.8868  161.6220 O   0  0  0  0  0  0  0  0  0  0  0  0
  153.9537  140.5626  161.1017 C   0  0  0  0  0  0  0  0  0  0  0  0
  153.6207  140.5919  159.6005 C   0  0  0  0  0  0  0  0  0  0  0  0
  150.2972  138.9835  158.2192 H   0  0  0  0  0  0  0  0  0  0  0  0
  151.8535  138.4986  158.8807 H   0  0  0  0  0  0  0  0  0  0  0  0
  151.2969  137.8156  157.3652 H   0  0  0  0  0  0  0  0  0  0  0  0
  153.0254  139.5616  156.9318 H   0  0  0  0  0  0  0  0  0  0  0  0
  151.9209  140.4241  155.0723 H   0  0  0  0  0  0  0  0  0  0  0  0
  150.6412  139.3105  155.5581 H   0  0  0  0  0  0  0  0  0  0  0  0
  147.9531  141.0463  152.5350 H   0  0  0  0  0  0  0  0  0  0  0  0
  145.9586  143.1631  158.2782 H   0  0  0  0  0  0  0  0  0  0  0  0
  144.0843  141.9854  155.6256 H   0  0  0  0  0  0  0  0  0  0  0  0
  144.8937  144.7945  154.7024 H   0  0  0  0  0  0  0  0  0  0  0  0
  144.0180  143.5388  153.7631 H   0  0  0  0  0  0  0  0  0  0  0  0
  143.3522  146.4014  156.0013 H   0  0  0  0  0  0  0  0  0  0  0  0
  142.4360  146.2195  154.5279 H   0  0  0  0  0  0  0  0  0  0  0  0
  140.7746  145.3696  156.1580 H   0  0  0  0  0  0  0  0  0  0  0  0
  141.7998  142.4570  155.2018 H   0  0  0  0  0  0  0  0  0  0  0  0
  140.7728  143.7840  155.6661 H   0  0  0  0  0  0  0  0  0  0  0  0
  142.0389  143.4835  153.1746 H   0  0  0  0  0  0  0  0  0  0  0  0
  143.0382  143.1923  157.4485 H   0  0  0  0  0  0  0  0  0  0  0  0
  144.1929  144.5603  157.2923 H   0  0  0  0  0  0  0  0  0  0  0  0
  150.5933  142.8684  157.5902 H   0  0  0  0  0  0  0  0  0  0  0  0
  149.8547  141.3738  158.1858 H   0  0  0  0  0  0  0  0  0  0  0  0
  152.7461  141.8651  157.4025 H   0  0  0  0  0  0  0  0  0  0  0  0
  153.0383  143.1798  159.4050 H   0  0  0  0  0  0  0  0  0  0  0  0
  151.3430  143.0137  159.8037 H   0  0  0  0  0  0  0  0  0  0  0  0
  152.7032  143.5318  161.8256 H   0  0  0  0  0  0  0  0  0  0  0  0
  151.8887  141.9863  161.9874 H   0  0  0  0  0  0  0  0  0  0  0  0
  154.9463  140.1416  161.2620 H   0  0  0  0  0  0  0  0  0  0  0  0
  153.2460  139.9322  161.6425 H   0  0  0  0  0  0  0  0  0  0  0  0
  153.6467  139.5729  159.2165 H   0  0  0  0  0  0  0  0  0  0  0  0
  154.4017  141.1402  159.0713 H   0  0  0  0  0  0  0  0  0  0  0  0
  1  2  1  0  0  0  0
  1 30  1  0  0  0  0
  1 31  1  0  0  0  0
  1 32  1  0  0  0  0
  2 23  1  0  0  0  0
  2  3  1  0  0  0  0
  2 33  1  0  0  0  0
  3  4  1  0  0  0  0
  3 34  1  0  0  0  0
  3 35  1  0  0  0  0
  4  5  1  0  0  0  0
  4 22  1  0  0  0  0
  5 10  1  0  0  0  0
  5  6  2  0  0  0  0
  6  7  1  0  0  0  0
  7  8  2  0  0  0  0
  7 36  1  0  0  0  0
  8  9  1  0  0  0  0
  9 13  1  0  0  0  0
  9 10  2  0  0  0  0
 10 11  1  0  0  0  0
 11 12  2  0  0  0  0
 12 13  1  0  0  0  0
 12 37  1  0  0  0  0
 13 14  1  0  0  0  0
 14 21  1  0  0  0  0
 14 15  1  0  0  0  0
 14 38  1  0  0  0  0
 15 16  1  0  0  0  0
 15 39  1  0  0  0  0
 15 40  1  0  0  0  0
 16 17  1  0  0  0  0
 16 19  1  0  0  0  0
 16 21  1  0  0  0  0
 17 18  1  0  0  0  0
 17 41  1  0  0  0  0
 17 42  1  0  0  0  0
 18 43  1  0  0  0  0
 19 20  1  0  0  0  0
 19 44  1  0  0  0  0
 19 45  1  0  0  0  0
 20 46  1  0  0  0  0
 21 47  1  0  0  0  0
 21 48  1  0  0  0  0
 22 23  1  0  0  0  0
 22 49  1  0  0  0  0
 22 50  1  0  0  0  0
 23 24  1  0  0  0  0
 23 51  1  0  0  0  0
 24 29  1  0  0  0  0
 24 25  1  0  0  0  0
 25 26  1  0  0  0  0
 25 52  1  0  0  0  0
 25 53  1  0  0  0  0
 26 27  1  0  0  0  0
 26 54  1  0  0  0  0
 26 55  1  0  0  0  0
 27 28  1  0  0  0  0
 28 29  1  0  0  0  0
 28 56  1  0  0  0  0
 28 57  1  0  0  0  0
 29 58  1  0  0  0  0
 29 59  1  0  0  0  0
M  END
> <s_m_source_file>
AV-unprocessed.smi

> <i_m_source_file_index>
149

> <i_lp_mmshare_version>
43012

> <i_f3d_flags>
0

> <s_epik_input>
W0NIMl0xW0NIMl1PW0NIMl1bQ0gyXU4xW0NAQEhdMltDSDJdTihbQ0gyXVtDQEhdMltDSDNdKWMobltjSF1uMyljKGMzNCluW2NIXW40W0NIXShbQ0gyXTUpW0NIMl1DNShbQ0gyXVtPSF0pW0NIMl1bT0hd

> <s_epik_cmdline>
J2VwaWtfcHl0aG9uJywgJy1waCcsICc3LjAnLCAnLXRuJywgJzgnLCAnLW1hJywgJzIwMCcsICctbWV0YWxfYmluZGluZycsICctaW1hZScsICc8aW5maWxlLm1hZT4nLCAnLW9tYWUnLCAnPG91dGZpbGUubWFlPic=

> <r_lp_tautomer_probability>
1

> <r_epik_Ionization_Penalty>
0.41918

> <r_epik_Ionization_Penalty_Charging>
0

> <r_epik_Ionization_Penalty_Neutral>
0.41918

> <r_epik_State_Penalty>
0.654916

> <r_epik_Charging_Adjusted_Penalty>
0.654916

> <i_epik_Tot_Q>
0

> <i_epik_Tot_abs_Q>
0

> <r_epik_Metal_State_Penalty>
0.653217

> <b_epik_Metal_Only>
0

> <s_lp_Force_Field>
OPLS_2005

> <r_lp_Energy>
77.678

> <b_lp_Chiralities_Consistent>
1

> <s_lp_Variant>
AV-unprocessed.smi:149-6

> <Gold.Version>
5.8.1

> <Gold.Id.Protein>
6NUR|6NUR_protein|mol2

> <Gold.PLP.Fitness>
50.3474

> <Gold.PLP.PLP>
-43.3896

> <Gold.PLP.part.hbond>
-3.1845

> <Gold.PLP.part.metal>
0.0000

> <Gold.PLP.part.buried>
-3.1223

> <Gold.PLP.part.nonpolar>
-37.2345

> <Gold.PLP.part.repulsive>
1.1685

> <Gold.PLP.ligand.clash>
0.0000

> <Gold.PLP.ligand.torsion>
0.7463

> <Gold.PLP.Chemscore.Hbond>
1.5624

> <Gold.PLP.Chemscore.CHOScore>
1.0000

> <Gold.PLP.Chemscore.Metal>
0.0000

> <Gold.Chemscore.Hbonds>
donor molecule, donor type, donor heavy atom, donor atom, acceptor molecule, acceptor atom, score
      L1  H    20    46       P1 10174  1.00
      P1  H 10162 10167       L1    20  0.53
      L1  C     7    36       P1  7957  1.00

> <Gold.PLP.Chemscore.Internal.Correction>
0.7632

> <Gold.Rescore>
     Score         DG    S(hbond)    S(metal)    S(lipo)     H(rot)  DE(clash)    DE(int)     intcor
      9.33     -11.23       1.03        0.00      86.31       3.04       0.07       1.83       ----

> <Gold.Chemscore.Fitness>
9.3316

> <Gold.Chemscore.DG>
-11.2281

> <Gold.Chemscore.ZeroCoef>
-5.4800

> <Gold.Chemscore.Hbond>
1.0268

> <Gold.Chemscore.Metal>
0.0000

> <Gold.Chemscore.Lipo>
86.3115

> <Gold.Chemscore.Internal_Hbond>
0.0000

> <Gold.Chemscore.DEClash>
0.0678

> <Gold.Chemscore.DEInternal>
1.8286

> <Gold.Chemscore.Rot>
3.0390

> <Gold.Chemscore.Internal.Correction>
   9.000000E+99

> <Gold.Chemscore.Hbonds>
donor molecule, donor type, donor heavy atom, donor atom, acceptor molecule, acceptor atom, score
      L1  H    20    46       P1 10174  0.90
      P1  H 10162 10167       L1    20  0.10

> <Gold.Chemscore.Hbond.Weighted>
-3.4294

> <Gold.Chemscore.Metal.Weighted>
-0.0000

> <Gold.Chemscore.Lipo.Weighted>
-10.0984

> <Gold.Chemscore.Internal_Hbond.Weighted>
0.0000

> <Gold.Chemscore.DEClash.Weighted>
0.0678

> <Gold.Chemscore.DEInternal.Weighted>
1.8286

> <Gold.Chemscore.Rot.Weighted>
7.7798

> <Gold.Chemscore.Internal.Correction.Weighted>
   9.000000E+99

> <Gold.Protein.RotatedTorsions>
[ 6907 6896 6895 6894 ] final  -57.13 input  -60.11 | X-H torsion
[ 7974 7965 7964 7962 ] final  -82.22 input  175.53 | X-H torsion
[ 8008 7997 7996 7995 ] final  179.44 input   59.86 | X-H torsion
[ 10167 10162 10161 10158 ] final -141.22 input  -65.29 | X-H torsion
[ 10718 10713 10712 10709 ] final  -47.52 input   66.30 | X-H torsion
[ 10763 10752 10751 10750 ] final  -12.37 input  -60.55 | X-H torsion
[ 11005 11000 10999 10996 ] final  141.20 input  -57.11 | X-H torsion

> <Gold.Protein.ActiveResidues>
 VAL166  LYS551  ARG553  GLY616  TRP617  ASP618  TYR619  PRO620  LYS621  CYS622 
 ASP623  PHE694  ASN695  SER759  ASP760  ASP761  ALA762  ILE779  LEU786  VAL792 
 PHE793  MET794  SER795  GLU796  ALA797  LYS798  CYS799  TRP800  GLU811  SER814 

> <Gold.Protein.RotatedAtoms>
  150.8111  134.7266  159.6688 H   0  0  0  0  0  0  0  0  0  0  0  0  # atno 6907 bound_to 6896
  152.4231  134.5915  159.9985 H   0  0  0  0  0  0  0  0  0  0  0  0  # atno 6908 bound_to 6896
  151.6125  133.3309  159.3106 H   0  0  0  0  0  0  0  0  0  0  0  0  # atno 6909 bound_to 6896
  145.5362  140.9515  143.1576 H   0  0  0  0  0  0  0  0  0  0  0  0  # atno 7974 bound_to 7965
  156.0434  140.1308  157.0131 H   0  0  0  0  0  0  0  0  0  0  0  0  # atno 8008 bound_to 7997
  154.4401  140.1025  156.6340 H   0  0  0  0  0  0  0  0  0  0  0  0  # atno 8009 bound_to 7997
  155.5633  140.3465  155.4499 H   0  0  0  0  0  0  0  0  0  0  0  0  # atno 8010 bound_to 7997
  139.8206  143.7579  152.2666 H   0  0  0  0  0  0  0  0  0  0  0  0  # atno 10167 bound_to 10162
  156.2076  130.4159  149.9157 H   0  0  0  0  0  0  0  0  0  0  0  0  # atno 10718 bound_to 10713
  153.4975  135.7017  153.5850 H   0  0  0  0  0  0  0  0  0  0  0  0  # atno 10763 bound_to 10752
  153.3996  135.3875  155.1978 H   0  0  0  0  0  0  0  0  0  0  0  0  # atno 10764 bound_to 10752
  154.8713  135.3878  154.4442 H   0  0  0  0  0  0  0  0  0  0  0  0  # atno 10765 bound_to 10752
  140.0383  134.9317  157.0796 H   0  0  0  0  0  0  0  0  0  0  0  0  # atno 11005 bound_to 11000
  144.7600  139.6979  143.7238 LP  0  0  0  0  0  0  0  0  0  0  0  0  # atno 17320 bound_to 7965
  146.2012  139.5307  142.9742 LP  0  0  0  0  0  0  0  0  0  0  0  0  # atno 17321 bound_to 7965
  139.7756  144.7462  151.0162 LP  0  0  0  0  0  0  0  0  0  0  0  0  # atno 17342 bound_to 10162
  140.7813  143.4597  151.0295 LP  0  0  0  0  0  0  0  0  0  0  0  0  # atno 17343 bound_to 10162
  156.6846  130.8872  151.3580 LP  0  0  0  0  0  0  0  0  0  0  0  0  # atno 17370 bound_to 10713
  157.7021  130.9344  150.0816 LP  0  0  0  0  0  0  0  0  0  0  0  0  # atno 17371 bound_to 10713
  140.4110  134.1981  155.7163 LP  0  0  0  0  0  0  0  0  0  0  0  0  # atno 17394 bound_to 11000
  141.1869  133.8291  157.1050 LP  0  0  0  0  0  0  0  0  0  0  0  0  # atno 17395 bound_to 11000

$$$$
