AV-unprocessed.smi:772|AV-procd|sdf|3687|dock1
  -GOLD-   22720 1103D 1   1.00000     0.00000
 Structure written by MMmdl.
 47 48  0  0  0  0  0  0  0  0  2 V2000
  144.8489  134.9337  150.8809 C   0  0  0  0  0  0  0  0  0  0  0  0
  145.4929  136.0588  151.6624 C   0  0  0  0  0  0  0  0  0  0  0  0
  145.5452  136.0643  153.0726 C   0  0  0  0  0  0  0  0  0  0  0  0
  146.1509  137.1522  153.7344 C   0  0  0  0  0  0  0  0  0  0  0  0
  146.6909  138.2125  152.9743 C   0  0  0  0  0  0  0  0  0  0  0  0
  147.3132  139.4140  153.6636 C   0  0  0  0  0  0  0  0  0  0  0  0
  148.7272  139.1439  154.2139 C   0  0  0  0  0  0  0  0  0  0  0  0
  148.9280  139.7180  155.5425 N   0  0  0  0  0  0  0  0  0  0  0  0
  150.0657  140.2709  155.9997 C   0  0  0  0  0  0  0  0  0  0  0  0
  151.0838  140.3412  155.3096 O   0  0  0  0  0  0  0  0  0  0  0  0
  150.0136  140.6927  157.2885 N   0  0  0  0  0  0  0  0  0  0  0  0
  148.7894  140.9589  158.0604 C   0  0  0  0  0  0  0  0  0  0  0  0
  148.4789  142.4620  157.9988 C   0  0  0  0  0  0  0  0  0  0  0  0
  149.8102  143.4322  158.7708 S   0  0  0  0  0  0  0  0  0  0  0  0
  151.2665  142.7146  157.9297 C   0  0  1  0  0  0  0  0  0  0  0  0
  152.6001  143.2929  158.4670 C   0  0  0  0  0  0  0  0  0  0  0  0
  152.9400  142.8510  159.9029 C   0  0  0  0  0  0  0  0  0  0  0  0
  152.6566  144.8246  158.3375 C   0  0  0  0  0  0  0  0  0  0  0  0
  151.2115  141.1714  157.9894 C   0  0  0  0  0  0  0  0  0  0  0  0
  146.6167  138.1484  151.5660 C   0  0  0  0  0  0  0  0  0  0  0  0
  146.0267  137.0897  150.9699 N   0  3  0  0  0  0  0  0  0  0  0  0
  144.5806  134.1039  151.5355 H   0  0  0  0  0  0  0  0  0  0  0  0
  145.5320  134.5576  150.1188 H   0  0  0  0  0  0  0  0  0  0  0  0
  143.9424  135.2869  150.3885 H   0  0  0  0  0  0  0  0  0  0  0  0
  145.1215  135.2506  153.6432 H   0  0  0  0  0  0  0  0  0  0  0  0
  146.1885  137.1776  154.8138 H   0  0  0  0  0  0  0  0  0  0  0  0
  147.3505  140.2407  152.9533 H   0  0  0  0  0  0  0  0  0  0  0  0
  146.6597  139.7415  154.4734 H   0  0  0  0  0  0  0  0  0  0  0  0
  148.9325  138.0722  154.2230 H   0  0  0  0  0  0  0  0  0  0  0  0
  149.4658  139.5858  153.5449 H   0  0  0  0  0  0  0  0  0  0  0  0
  148.1376  139.6900  156.1701 H   0  0  0  0  0  0  0  0  0  0  0  0
  147.9288  140.3871  157.7132 H   0  0  0  0  0  0  0  0  0  0  0  0
  148.9292  140.6506  159.0974 H   0  0  0  0  0  0  0  0  0  0  0  0
  148.3545  142.7847  156.9646 H   0  0  0  0  0  0  0  0  0  0  0  0
  147.5447  142.6793  158.5165 H   0  0  0  0  0  0  0  0  0  0  0  0
  151.1882  143.0027  156.8803 H   0  0  0  0  0  0  0  0  0  0  0  0
  153.3925  142.9065  157.8248 H   0  0  0  0  0  0  0  0  0  0  0  0
  152.2032  143.2075  160.6226 H   0  0  0  0  0  0  0  0  0  0  0  0
  153.9094  143.2449  160.2096 H   0  0  0  0  0  0  0  0  0  0  0  0
  152.9954  141.7665  159.9898 H   0  0  0  0  0  0  0  0  0  0  0  0
  151.9197  145.3117  158.9762 H   0  0  0  0  0  0  0  0  0  0  0  0
  152.4693  145.1410  157.3110 H   0  0  0  0  0  0  0  0  0  0  0  0
  153.6384  145.2046  158.6214 H   0  0  0  0  0  0  0  0  0  0  0  0
  151.1906  140.8258  159.0232 H   0  0  0  0  0  0  0  0  0  0  0  0
  152.1204  140.7441  157.5631 H   0  0  0  0  0  0  0  0  0  0  0  0
  146.9938  138.9132  150.9029 H   0  0  0  0  0  0  0  0  0  0  0  0
  145.9780  137.0690  149.9510 H   0  0  0  0  0  0  0  0  0  0  0  0
  1  2  1  0  0  0  0
  1 22  1  0  0  0  0
  1 23  1  0  0  0  0
  1 24  1  0  0  0  0
  2 21  1  0  0  0  0
  2  3  2  0  0  0  0
  3  4  1  0  0  0  0
  3 25  1  0  0  0  0
  4  5  2  0  0  0  0
  4 26  1  0  0  0  0
  5  6  1  0  0  0  0
  5 20  1  0  0  0  0
  6  7  1  0  0  0  0
  6 27  1  0  0  0  0
  6 28  1  0  0  0  0
  7  8  1  0  0  0  0
  7 29  1  0  0  0  0
  7 30  1  0  0  0  0
  8  9  1  0  0  0  0
  8 31  1  0  0  0  0
  9 10  2  0  0  0  0
  9 11  1  0  0  0  0
 11 19  1  0  0  0  0
 11 12  1  0  0  0  0
 12 13  1  0  0  0  0
 12 32  1  0  0  0  0
 12 33  1  0  0  0  0
 13 14  1  0  0  0  0
 13 34  1  0  0  0  0
 13 35  1  0  0  0  0
 14 15  1  0  0  0  0
 15 16  1  0  0  0  0
 15 19  1  0  0  0  0
 15 36  1  0  0  0  0
 16 17  1  0  0  0  0
 16 18  1  0  0  0  0
 16 37  1  0  0  0  0
 17 38  1  0  0  0  0
 17 39  1  0  0  0  0
 17 40  1  0  0  0  0
 18 41  1  0  0  0  0
 18 42  1  0  0  0  0
 18 43  1  0  0  0  0
 19 44  1  0  0  0  0
 19 45  1  0  0  0  0
 20 21  2  0  0  0  0
 20 46  1  0  0  0  0
 21 47  1  0  0  0  0
M  CHG  1  21   1
M  END
> <s_m_source_file>
AV-unprocessed.smi

> <i_m_source_file_index>
772

> <i_lp_mmshare_version>
43012

> <i_f3d_flags>
0

> <s_epik_input>
W0NIM11jMVtjSF1bY0hdYyhbY0hdbjEpW0NIMl1bQ0gyXVtOSF1DKD1PKU4yW0NIMl1bQ0gyXVNbQ0BIXShbQ0gyXTIpW0NIXShbQ0gzXSlbQ0gzXQ==

> <s_epik_cmdline>
J2VwaWtfcHl0aG9uJywgJy1waCcsICc3LjAnLCAnLXRuJywgJzgnLCAnLW1hJywgJzIwMCcsICctbWV0YWxfYmluZGluZycsICctaW1hZScsICc8aW5maWxlLm1hZT4nLCAnLW9tYWUnLCAnPG91dGZpbGUubWFlPic=

> <r_epik_Ionization_Penalty>
1.41908

> <r_epik_Ionization_Penalty_Charging>
1.41903

> <r_epik_Ionization_Penalty_Neutral>
4.72921e-05

> <r_epik_State_Penalty>
1.50265

> <r_epik_Charging_Adjusted_Penalty>
2.92168

> <i_epik_Tot_Q>
1

> <i_epik_Tot_abs_Q>
1

> <r_epik_Metal_State_Penalty>
1.55496

> <b_epik_Metal_Only>
0

> <s_lp_Force_Field>
OPLS_2005

> <r_lp_Energy>
32.521

> <b_lp_Chiralities_Consistent>
1

> <s_lp_Variant>
AV-unprocessed.smi:772-3

> <Gold.Version>
5.8.1

> <Gold.Id.Protein>
6NUR|6NUR_protein|mol2

> <Gold.PLP.Fitness>
42.8209

> <Gold.PLP.PLP>
-41.5291

> <Gold.PLP.part.hbond>
-2.0822

> <Gold.PLP.part.metal>
0.0000

> <Gold.PLP.part.buried>
-2.2834

> <Gold.PLP.part.nonpolar>
-37.4768

> <Gold.PLP.part.repulsive>
0.1983

> <Gold.PLP.ligand.clash>
0.0000

> <Gold.PLP.ligand.torsion>
0.7944

> <Gold.PLP.Chemscore.Hbond>
0.9280

> <Gold.PLP.Chemscore.CHOScore>
0.0000

> <Gold.PLP.Chemscore.Metal>
0.0000

> <Gold.Chemscore.Hbonds>
donor molecule, donor type, donor heavy atom, donor atom, acceptor molecule, acceptor atom, score
      P1  H  7989  7998       L1    10  1.00

> <Gold.PLP.Chemscore.Internal.Correction>
0.0967

> <Gold.Rescore>
     Score         DG    S(hbond)    S(metal)    S(lipo)     H(rot)  DE(clash)    DE(int)     intcor
     17.83     -18.76       1.09        0.00     112.78       1.39       0.27       0.66       ----

> <Gold.Chemscore.Fitness>
17.8253

> <Gold.Chemscore.DG>
-18.7599

> <Gold.Chemscore.ZeroCoef>
-5.4800

> <Gold.Chemscore.Hbond>
1.0946

> <Gold.Chemscore.Metal>
0.0000

> <Gold.Chemscore.Lipo>
112.7762

> <Gold.Chemscore.Internal_Hbond>
0.0000

> <Gold.Chemscore.DEClash>
0.2723

> <Gold.Chemscore.DEInternal>
0.6624

> <Gold.Chemscore.Rot>
1.3949

> <Gold.Chemscore.Internal.Correction>
   9.000000E+99

> <Gold.Chemscore.Hbonds>
donor molecule, donor type, donor heavy atom, donor atom, acceptor molecule, acceptor atom, score
      P1  H  7989  7998       L1    10  0.95

> <Gold.Chemscore.Hbond.Weighted>
-3.6561

> <Gold.Chemscore.Metal.Weighted>
-0.0000

> <Gold.Chemscore.Lipo.Weighted>
-13.1948

> <Gold.Chemscore.Internal_Hbond.Weighted>
0.0000

> <Gold.Chemscore.DEClash.Weighted>
0.2723

> <Gold.Chemscore.DEInternal.Weighted>
0.6624

> <Gold.Chemscore.Rot.Weighted>
3.5709

> <Gold.Chemscore.Internal.Correction.Weighted>
   9.000000E+99

> <Gold.Protein.RotatedTorsions>
[ 6907 6896 6895 6894 ] final  170.54 input  -60.11 | X-H torsion
[ 7974 7965 7964 7962 ] final -156.95 input  175.53 | X-H torsion
[ 8008 7997 7996 7995 ] final  -59.61 input   59.86 | X-H torsion
[ 10167 10162 10161 10158 ] final  -15.14 input  -65.29 | X-H torsion
[ 10718 10713 10712 10709 ] final  -51.46 input   66.30 | X-H torsion
[ 10763 10752 10751 10750 ] final  -51.08 input  -60.55 | X-H torsion
[ 11005 11000 10999 10996 ] final   31.22 input  -57.11 | X-H torsion

> <Gold.Protein.ActiveResidues>
 VAL166  LYS551  ARG553  GLY616  TRP617  ASP618  TYR619  PRO620  LYS621  CYS622 
 ASP623  PHE694  ASN695  SER759  ASP760  ASP761  ALA762  ILE779  LEU786  VAL792 
 PHE793  MET794  SER795  GLU796  ALA797  LYS798  CYS799  TRP800  GLU811  SER814 

> <Gold.Protein.RotatedAtoms>
  151.8145  133.3386  159.3565 H   0  0  0  0  0  0  0  0  0  0  0  0  # atno 6907 bound_to 6896
  150.7315  134.5632  159.5862 H   0  0  0  0  0  0  0  0  0  0  0  0  # atno 6908 bound_to 6896
  152.3051  134.7566  160.0400 H   0  0  0  0  0  0  0  0  0  0  0  0  # atno 6909 bound_to 6896
  144.7570  140.4037  143.6005 H   0  0  0  0  0  0  0  0  0  0  0  0  # atno 7974 bound_to 7965
  154.4360  140.1058  156.6143 H   0  0  0  0  0  0  0  0  0  0  0  0  # atno 8008 bound_to 7997
  155.5776  140.3490  155.4513 H   0  0  0  0  0  0  0  0  0  0  0  0  # atno 8009 bound_to 7997
  156.0343  140.1267  157.0214 H   0  0  0  0  0  0  0  0  0  0  0  0  # atno 8010 bound_to 7997
  140.7213  143.5248  150.9590 H   0  0  0  0  0  0  0  0  0  0  0  0  # atno 10167 bound_to 10162
  156.1708  130.4149  149.9650 H   0  0  0  0  0  0  0  0  0  0  0  0  # atno 10718 bound_to 10713
  154.1207  135.6535  153.4902 H   0  0  0  0  0  0  0  0  0  0  0  0  # atno 10763 bound_to 10752
  153.0226  135.5269  154.7099 H   0  0  0  0  0  0  0  0  0  0  0  0  # atno 10764 bound_to 10752
  154.6306  135.2975  155.0191 H   0  0  0  0  0  0  0  0  0  0  0  0  # atno 10765 bound_to 10752
  140.2862  134.2917  155.7787 H   0  0  0  0  0  0  0  0  0  0  0  0  # atno 11005 bound_to 11000
  145.6747  139.1606  143.2735 LP  0  0  0  0  0  0  0  0  0  0  0  0  # atno 17320 bound_to 7965
  146.1591  140.6815  142.9286 LP  0  0  0  0  0  0  0  0  0  0  0  0  # atno 17321 bound_to 7965
  139.8967  143.6886  152.3137 LP  0  0  0  0  0  0  0  0  0  0  0  0  # atno 17342 bound_to 10162
  139.7221  144.7600  151.0938 LP  0  0  0  0  0  0  0  0  0  0  0  0  # atno 17343 bound_to 10162
  156.7451  130.9094  151.3634 LP  0  0  0  0  0  0  0  0  0  0  0  0  # atno 17370 bound_to 10713
  157.6801  130.9132  150.0246 LP  0  0  0  0  0  0  0  0  0  0  0  0  # atno 17371 bound_to 10713
  141.2154  133.7556  156.9555 LP  0  0  0  0  0  0  0  0  0  0  0  0  # atno 17394 bound_to 11000
  140.1238  134.9400  157.2241 LP  0  0  0  0  0  0  0  0  0  0  0  0  # atno 17395 bound_to 11000

$$$$
