AV-unprocessed.smi:3228|AV-procd|sdf|12325|dock1
  -GOLD-   2272018173D 1   1.00000     0.00000
 Structure written by MMmdl.
 30 31  0  0  0  0  0  0  0  0  2 V2000
  148.7037  136.0386  158.4631 O   0  0  0  0  0  0  0  0  0  0  0  0
  149.2633  136.6971  159.3432 C   0  0  0  0  0  0  0  0  0  0  0  0
  150.4898  137.1942  159.1284 N   0  0  0  0  0  0  0  0  0  0  0  0
  151.2838  137.0188  157.9162 C   0  0  0  0  0  0  0  0  0  0  0  0
  151.1333  138.2140  156.9506 C   0  0  2  0  0  0  0  0  0  0  0  0
  151.5620  137.9419  155.5037 C   0  0  0  0  0  0  0  0  0  0  0  0
  151.8168  139.3245  154.8857 C   0  0  0  0  0  0  0  0  0  0  0  0
  151.8863  140.3216  156.0546 C   0  0  0  0  0  0  0  0  0  0  0  0
  151.9130  139.4793  157.3358 C   0  0  2  0  0  0  0  0  0  0  0  0
  153.2584  139.1823  157.6627 O   0  0  0  0  0  0  0  0  0  0  0  0
  148.7639  136.9884  160.5659 N   0  5  0  0  0  0  0  0  0  0  0  0
  147.8282  136.1967  161.1149 C   0  0  0  0  0  0  0  0  0  0  0  0
  147.2132  135.2176  160.4416 N   0  0  0  0  0  0  0  0  0  0  0  0
  146.2724  134.5245  161.2056 C   0  0  0  0  0  0  0  0  0  0  0  0
  146.1613  134.9934  162.4878 C   0  0  0  0  0  0  0  0  0  0  0  0
  147.2422  136.3268  162.7760 S   0  0  0  0  0  0  0  0  0  0  0  0
  150.9099  137.7272  159.8758 H   0  0  0  0  0  0  0  0  0  0  0  0
  152.3328  136.8714  158.1770 H   0  0  0  0  0  0  0  0  0  0  0  0
  150.9528  136.0971  157.4379 H   0  0  0  0  0  0  0  0  0  0  0  0
  150.0789  138.4950  156.9255 H   0  0  0  0  0  0  0  0  0  0  0  0
  152.4867  137.3630  155.4934 H   0  0  0  0  0  0  0  0  0  0  0  0
  150.8135  137.3725  154.9518 H   0  0  0  0  0  0  0  0  0  0  0  0
  152.7442  139.3216  154.3120 H   0  0  0  0  0  0  0  0  0  0  0  0
  151.0125  139.5992  154.2023 H   0  0  0  0  0  0  0  0  0  0  0  0
  152.7348  141.0025  155.9750 H   0  0  0  0  0  0  0  0  0  0  0  0
  150.9841  140.9348  156.0497 H   0  0  0  0  0  0  0  0  0  0  0  0
  151.4535  140.0013  158.1759 H   0  0  0  0  0  0  0  0  0  0  0  0
  153.3037  138.9795  158.5846 H   0  0  0  0  0  0  0  0  0  0  0  0
  145.7247  133.7108  160.7541 H   0  0  0  0  0  0  0  0  0  0  0  0
  145.5132  134.6399  163.2754 H   0  0  0  0  0  0  0  0  0  0  0  0
  1  2  2  0  0  0  0
  2  3  1  0  0  0  0
  2 11  1  0  0  0  0
  3  4  1  0  0  0  0
  3 17  1  0  0  0  0
  4  5  1  0  0  0  0
  4 18  1  0  0  0  0
  4 19  1  0  0  0  0
  5  9  1  0  0  0  0
  5  6  1  0  0  0  0
  5 20  1  0  0  0  0
  6  7  1  0  0  0  0
  6 21  1  0  0  0  0
  6 22  1  0  0  0  0
  7  8  1  0  0  0  0
  7 23  1  0  0  0  0
  7 24  1  0  0  0  0
  8  9  1  0  0  0  0
  8 25  1  0  0  0  0
  8 26  1  0  0  0  0
  9 10  1  0  0  0  0
  9 27  1  0  0  0  0
 10 28  1  0  0  0  0
 11 12  1  0  0  0  0
 12 16  1  0  0  0  0
 12 13  2  0  0  0  0
 13 14  1  0  0  0  0
 14 15  2  0  0  0  0
 14 29  1  0  0  0  0
 15 16  1  0  0  0  0
 15 30  1  0  0  0  0
M  CHG  1  11  -1
M  END
> <s_m_source_file>
AV-unprocessed.smi

> <i_m_source_file_index>
3228

> <i_lp_mmshare_version>
43012

> <i_f3d_flags>
0

> <s_epik_input>
czFbY0hdW2NIXW5jMVtOSF1DKD1PKVtOSF1bQ0gyXVtDQEBIXTJbQ0gyXVtDSDJdW0NIMl1bQ0BIXTJbT0hd

> <s_epik_cmdline>
J2VwaWtfcHl0aG9uJywgJy1waCcsICc3LjAnLCAnLXRuJywgJzgnLCAnLW1hJywgJzIwMCcsICctbWV0YWxfYmluZGluZycsICctaW1hZScsICc8aW5maWxlLm1hZT4nLCAnLW9tYWUnLCAnPG91dGZpbGUubWFlPic=

> <r_lp_tautomer_probability>
0.999

> <r_epik_Ionization_Penalty>
8.49756

> <r_epik_Ionization_Penalty_Charging>
6.79645

> <r_epik_Ionization_Penalty_Neutral>
1.70111

> <r_epik_State_Penalty>
6.79662

> <r_epik_Charging_Adjusted_Penalty>
13.5931

> <i_epik_Tot_Q>
-1

> <i_epik_Tot_abs_Q>
1

> <r_epik_Metal_State_Penalty>
2.71629

> <b_epik_Metal_Only>
1

> <s_lp_Force_Field>
OPLS_2005

> <r_lp_Energy>
19.9343

> <b_lp_Chiralities_Consistent>
1

> <s_lp_Variant>
AV-unprocessed.smi:3228-7

> <Gold.Version>
5.8.1

> <Gold.Id.Protein>
6NUR|6NUR_protein|mol2

> <Gold.PLP.Fitness>
39.6414

> <Gold.PLP.PLP>
-29.8166

> <Gold.PLP.part.hbond>
-3.5682

> <Gold.PLP.part.metal>
0.0000

> <Gold.PLP.part.buried>
-2.5386

> <Gold.PLP.part.nonpolar>
-24.1394

> <Gold.PLP.part.repulsive>
0.2051

> <Gold.PLP.ligand.clash>
0.0000

> <Gold.PLP.ligand.torsion>
0.4609

> <Gold.PLP.Chemscore.Hbond>
3.5680

> <Gold.PLP.Chemscore.CHOScore>
0.0000

> <Gold.PLP.Chemscore.Metal>
0.0000

> <Gold.Chemscore.Hbonds>
donor molecule, donor type, donor heavy atom, donor atom, acceptor molecule, acceptor atom, score
      P1  H  6931  6943       L1    11  1.57
      P1  H  7997  8008       L1    10  1.00

> <Gold.PLP.Chemscore.Internal.Correction>
0.0427

> <Gold.Rescore>
     Score         DG    S(hbond)    S(metal)    S(lipo)     H(rot)  DE(clash)    DE(int)     intcor
     14.15     -16.31       2.56        0.00      59.98       1.85       0.18       1.98       ----

> <Gold.Chemscore.Fitness>
14.1488

> <Gold.Chemscore.DG>
-16.3104

> <Gold.Chemscore.ZeroCoef>
-5.4800

> <Gold.Chemscore.Hbond>
2.5582

> <Gold.Chemscore.Metal>
0.0000

> <Gold.Chemscore.Lipo>
59.9777

> <Gold.Chemscore.Internal_Hbond>
0.0000

> <Gold.Chemscore.DEClash>
0.1784

> <Gold.Chemscore.DEInternal>
1.9832

> <Gold.Chemscore.Rot>
1.8481

> <Gold.Chemscore.Internal.Correction>
   9.000000E+99

> <Gold.Chemscore.Hbonds>
donor molecule, donor type, donor heavy atom, donor atom, acceptor molecule, acceptor atom, score
      P1  H  6931  6943       L1    11  0.31
      P1  H  7997  8008       L1    10  0.85

> <Gold.Chemscore.Hbond.Weighted>
-8.5443

> <Gold.Chemscore.Metal.Weighted>
-0.0000

> <Gold.Chemscore.Lipo.Weighted>
-7.0174

> <Gold.Chemscore.Internal_Hbond.Weighted>
0.0000

> <Gold.Chemscore.DEClash.Weighted>
0.1784

> <Gold.Chemscore.DEInternal.Weighted>
1.9832

> <Gold.Chemscore.Rot.Weighted>
4.7313

> <Gold.Chemscore.Internal.Correction.Weighted>
   9.000000E+99

> <Gold.Protein.RotatedTorsions>
[ 6907 6896 6895 6894 ] final   41.43 input  -60.11 | X-H torsion
[ 7974 7965 7964 7962 ] final  -58.53 input  175.53 | X-H torsion
[ 8008 7997 7996 7995 ] final  -63.23 input   59.86 | X-H torsion
[ 10167 10162 10161 10158 ] final -147.08 input  -65.29 | X-H torsion
[ 10718 10713 10712 10709 ] final -170.07 input   66.30 | X-H torsion
[ 10763 10752 10751 10750 ] final  166.86 input  -60.55 | X-H torsion
[ 11005 11000 10999 10996 ] final -153.55 input  -57.11 | X-H torsion

> <Gold.Protein.ActiveResidues>
 VAL166  LYS551  ARG553  GLY616  TRP617  ASP618  TYR619  PRO620  LYS621  CYS622 
 ASP623  PHE694  ASN695  SER759  ASP760  ASP761  ALA762  ILE779  LEU786  VAL792 
 PHE793  MET794  SER795  GLU796  ALA797  LYS798  CYS799  TRP800  GLU811  SER814 

> <Gold.Protein.RotatedAtoms>
  152.1952  134.8637  160.0513 H   0  0  0  0  0  0  0  0  0  0  0  0  # atno 6907 bound_to 6896
  151.9511  133.3661  159.4008 H   0  0  0  0  0  0  0  0  0  0  0  0  # atno 6908 bound_to 6896
  150.6943  134.4263  159.5272 H   0  0  0  0  0  0  0  0  0  0  0  0  # atno 6909 bound_to 6896
  145.8383  140.8434  143.0048 H   0  0  0  0  0  0  0  0  0  0  0  0  # atno 7974 bound_to 7965
  154.4543  140.0979  156.6711 H   0  0  0  0  0  0  0  0  0  0  0  0  # atno 8008 bound_to 7997
  155.5187  140.3478  155.4384 H   0  0  0  0  0  0  0  0  0  0  0  0  # atno 8009 bound_to 7997
  156.0745  140.1358  156.9777 H   0  0  0  0  0  0  0  0  0  0  0  0  # atno 8010 bound_to 7997
  139.7654  143.8315  152.2615 H   0  0  0  0  0  0  0  0  0  0  0  0  # atno 10167 bound_to 10162
  156.7208  130.9269  151.3097 H   0  0  0  0  0  0  0  0  0  0  0  0  # atno 10718 bound_to 10713
  154.3453  135.2753  155.2401 H   0  0  0  0  0  0  0  0  0  0  0  0  # atno 10763 bound_to 10752
  154.4653  135.5896  153.6287 H   0  0  0  0  0  0  0  0  0  0  0  0  # atno 10764 bound_to 10752
  152.9854  135.6075  154.3658 H   0  0  0  0  0  0  0  0  0  0  0  0  # atno 10765 bound_to 10752
  140.7069  134.3875  157.5203 H   0  0  0  0  0  0  0  0  0  0  0  0  # atno 11005 bound_to 11000
  144.6735  140.0774  143.7470 LP  0  0  0  0  0  0  0  0  0  0  0  0  # atno 17320 bound_to 7965
  145.9494  139.2723  143.1221 LP  0  0  0  0  0  0  0  0  0  0  0  0  # atno 17321 bound_to 7965
  139.8334  144.7243  150.9422 LP  0  0  0  0  0  0  0  0  0  0  0  0  # atno 17342 bound_to 10162
  140.7810  143.4049  151.1087 LP  0  0  0  0  0  0  0  0  0  0  0  0  # atno 17343 bound_to 10162
  157.6899  130.9222  150.0484 LP  0  0  0  0  0  0  0  0  0  0  0  0  # atno 17370 bound_to 10713
  156.1596  130.3643  149.9319 LP  0  0  0  0  0  0  0  0  0  0  0  0  # atno 17371 bound_to 10713
  139.8882  134.8863  156.2489 LP  0  0  0  0  0  0  0  0  0  0  0  0  # atno 17394 bound_to 11000
  141.0117  133.7092  156.1122 LP  0  0  0  0  0  0  0  0  0  0  0  0  # atno 17395 bound_to 11000

$$$$
